
     RDKit          3D

 33 35  0  0  0  0  0  0  0  0999 V2000
   36.0540   30.1510   48.7310 C   0  0  0  0  0  0  0  0  0  0  0  0
   35.9730   29.3240   49.8610 C   0  0  0  0  0  0  0  0  0  0  0  0
   34.9610   28.4060   49.6590 C   0  0  0  0  0  0  0  0  0  0  0  0
   34.4550   28.6850   48.4390 N   0  0  0  0  0  0  0  0  0  0  0  0
   35.0930   29.6960   47.9090 N   0  0  0  0  0  0  0  0  0  0  0  0
   38.0870   33.1740   49.3930 C   0  0  0  0  0  0  0  0  0  0  0  0
   39.0140   33.0980   48.3570 C   0  0  0  0  0  0  0  0  0  0  0  0
   38.9210   32.0250   47.4660 C   0  0  0  0  0  0  0  0  0  0  0  0
   37.9200   31.1120   47.6700 N   0  0  0  0  0  0  0  0  0  0  0  0
   37.0490   31.2180   48.6760 C   0  0  0  0  0  0  0  0  0  0  0  0
   37.1230   32.2420   49.5400 N   0  0  0  0  0  0  0  0  0  0  0  0
   33.3670   27.9250   47.8790 C   0  0  0  0  0  0  0  0  0  0  0  0
   32.1760   27.8670   48.8050 C   0  0  0  0  0  0  0  0  0  0  0  0
   31.1340   26.9510   48.2400 C   0  0  0  0  0  0  0  0  0  0  0  0
   31.6790   25.6110   47.8270 C   0  0  0  0  0  0  0  0  0  0  0  0
   32.7500   25.8540   46.7690 C   0  0  0  0  0  0  0  0  0  0  0  0
   33.8710   26.5770   47.4780 C   0  0  0  0  0  0  0  0  0  0  0  0
   36.6080   29.3946   50.7565 H   0  0  0  0  0  0  0  0  0  0  0  0
   34.6353   27.6131   50.3484 H   0  0  0  0  0  0  0  0  0  0  0  0
   38.1418   34.0103   50.1055 H   0  0  0  0  0  0  0  0  0  0  0  0
   39.7979   33.8612   48.2428 H   0  0  0  0  0  0  0  0  0  0  0  0
   39.6273   31.9173   46.6296 H   0  0  0  0  0  0  0  0  0  0  0  0
   32.9937   28.4327   46.9774 H   0  0  0  0  0  0  0  0  0  0  0  0
   32.4966   27.4921   49.7882 H   0  0  0  0  0  0  0  0  0  0  0  0
   31.7512   28.8760   48.9118 H   0  0  0  0  0  0  0  0  0  0  0  0
   30.3582   26.7919   49.0034 H   0  0  0  0  0  0  0  0  0  0  0  0
   30.7337   27.4322   47.3355 H   0  0  0  0  0  0  0  0  0  0  0  0
   32.1197   25.1013   48.6965 H   0  0  0  0  0  0  0  0  0  0  0  0
   30.8764   24.9753   47.4248 H   0  0  0  0  0  0  0  0  0  0  0  0
   32.3494   26.4741   45.9535 H   0  0  0  0  0  0  0  0  0  0  0  0
   33.0962   24.9119   46.3189 H   0  0  0  0  0  0  0  0  0  0  0  0
   34.1750   26.0109   48.3708 H   0  0  0  0  0  0  0  0  0  0  0  0
   34.7430   26.6757   46.8148 H   0  0  0  0  0  0  0  0  0  0  0  0
  1  2  1  0
  3  2  2  0
  4  3  1  0
  5  4  1  0
  5  1  2  0
  6 11  2  0
  7  6  1  0
  8  9  1  0
  8  7  2  0
  9 10  2  0
 10  1  1  0
 10 11  1  0
 12  4  1  0
 12 13  1  0
 14 13  1  0
 15 14  1  0
 16 17  1  0
 16 15  1  0
 17 12  1  0
  2 18  1  0
  3 19  1  0
  6 20  1  0
  7 21  1  0
  8 22  1  0
 12 23  1  0
 13 24  1  0
 13 25  1  0
 14 26  1  0
 14 27  1  0
 15 28  1  0
 15 29  1  0
 16 30  1  0
 16 31  1  0
 17 32  1  0
 17 33  1  0
M  ISO  8  18  14  19  14  20  14  21  14  22  14  23  13  24  13  25  13
M  ISO  8  26  13  27  13  28  13  29  13  30  13  31  13  32  13  33  13
M  END
>  <minimizedAffinity>  (1) 
-5.22680855

>  <minimizedRMSD>  (1) 
1.1844728

$$$$
