
     RDKit          3D

 28 30  0  0  0  0  0  0  0  0999 V2000
   37.6250   31.7460   48.9770 C   0  0  0  0  0  0  0  0  0  0  0  0
   38.1440   32.8650   49.5860 C   0  0  0  0  0  0  0  0  0  0  0  0
   39.0700   33.6180   48.8810 C   0  0  0  0  0  0  0  0  0  0  0  0
   39.4750   33.2960   47.6380 N   0  0  0  0  0  0  0  0  0  0  0  0
   38.9390   32.1850   47.0720 C   0  0  0  0  0  0  0  0  0  0  0  0
   38.0300   31.4320   47.7470 N   0  0  0  0  0  0  0  0  0  0  0  0
   39.3520   31.8220   45.7570 N   0  0  0  0  0  0  0  0  0  0  0  0
   39.1910   30.5110   45.4180 C   0  0  0  0  0  0  0  0  0  0  0  0
   39.5760   30.0960   44.1430 C   0  0  0  0  0  0  0  0  0  0  0  0
   40.0930   31.0960   43.3450 C   0  0  0  0  0  0  0  0  0  0  0  0
   40.4560   30.7480   42.1700 O   0  0  0  0  0  0  0  0  0  0  0  0
   40.2630   32.3940   43.6550 N   0  0  0  0  0  0  0  0  0  0  0  0
   39.8670   32.7380   44.9140 C   0  0  0  0  0  0  0  0  0  0  0  0
   40.0030   33.9470   45.2590 O   0  0  0  0  0  0  0  0  0  0  0  0
   37.0140   30.2530   50.8200 C   0  0  0  0  0  0  0  0  0  0  0  0
   36.6490   30.8760   49.6110 C   0  0  0  0  0  0  0  0  0  0  0  0
   35.3880   30.6240   49.1060 C   0  0  0  0  0  0  0  0  0  0  0  0
   34.5500   29.7970   49.7710 N   0  0  0  0  0  0  0  0  0  0  0  0
   34.9270   29.2040   50.9410 C   0  0  0  0  0  0  0  0  0  0  0  0
   36.1360   29.4290   51.4520 N   0  0  0  0  0  0  0  0  0  0  0  0
   37.8337   33.1534   50.6012 H   0  0  0  0  0  0  0  0  0  0  0  0
   39.4914   34.5158   49.3568 H   0  0  0  0  0  0  0  0  0  0  0  0
   38.7657   29.7945   46.1361 H   0  0  0  0  0  0  0  0  0  0  0  0
   39.4755   29.0553   43.8013 H   0  0  0  0  0  0  0  0  0  0  0  0
   40.6613   33.0751   42.9930 H   0  0  0  0  0  0  0  0  0  0  0  0
   38.0090   30.4328   51.2531 H   0  0  0  0  0  0  0  0  0  0  0  0
   35.0665   31.0949   48.1653 H   0  0  0  0  0  0  0  0  0  0  0  0
   34.2278   28.5360   51.4652 H   0  0  0  0  0  0  0  0  0  0  0  0
  1  2  2  0
  1 16  1  0
  3  2  1  0
  4  3  2  0
  5  4  1  0
  5  6  2  0
  6  1  1  0
  7  5  1  0
  8  7  1  0
  9  8  2  0
 10 12  1  0
 10  9  1  0
 11 10  2  0
 12 13  1  0
 13 14  2  0
 13  7  1  0
 15 20  2  0
 16 15  1  0
 17 16  2  0
 17 18  1  0
 18 19  2  0
 19 20  1  0
  2 21  1  0
  3 22  1  0
  8 23  1  0
  9 24  1  0
 12 25  1  0
 15 26  1  0
 17 27  1  0
 19 28  1  0
M  ISO  8  21  14  22  14  23  14  24  14  25   9  26  14  27  14  28  14
M  END
>  <minimizedAffinity>  (1) 
-6.51826143

>  <minimizedRMSD>  (1) 
1.53540647

$$$$
