
     RDKit          3D

 25 27  0  0  0  0  0  0  0  0999 V2000
   36.9150   31.2690   48.7030 C   0  0  0  0  0  0  0  0  0  0  0  0
   37.0980   32.1480   49.7250 C   0  0  0  0  0  0  0  0  0  0  0  0
   38.1240   33.0650   49.6310 C   0  0  0  0  0  0  0  0  0  0  0  0
   38.9560   33.1300   48.5720 N   0  0  0  0  0  0  0  0  0  0  0  0
   38.7440   32.2390   47.5750 C   0  0  0  0  0  0  0  0  0  0  0  0
   37.7350   31.3140   47.6320 N   0  0  0  0  0  0  0  0  0  0  0  0
   39.5430   32.1880   46.3900 N   0  0  0  0  0  0  0  0  0  0  0  0
   40.0090   31.0430   45.9410 N   0  0  0  0  0  0  0  0  0  0  0  0
   40.7310   31.2320   44.8200 C   0  0  0  0  0  0  0  0  0  0  0  0
   40.6970   32.5780   44.5830 C   0  0  0  0  0  0  0  0  0  0  0  0
   39.9420   33.2060   45.5760 C   0  0  0  0  0  0  0  0  0  0  0  0
   35.8910   29.2840   49.6930 C   0  0  0  0  0  0  0  0  0  0  0  0
   35.8680   30.2500   48.6780 C   0  0  0  0  0  0  0  0  0  0  0  0
   34.8710   30.1880   47.7260 C   0  0  0  0  0  0  0  0  0  0  0  0
   33.9460   29.1980   47.7970 N   0  0  0  0  0  0  0  0  0  0  0  0
   33.9790   28.2710   48.7820 C   0  0  0  0  0  0  0  0  0  0  0  0
   34.9430   28.3180   49.7170 N   0  0  0  0  0  0  0  0  0  0  0  0
   36.4417   32.1279   50.6075 H   0  0  0  0  0  0  0  0  0  0  0  0
   38.2701   33.7757   50.4577 H   0  0  0  0  0  0  0  0  0  0  0  0
   41.2414   30.4639   44.2204 H   0  0  0  0  0  0  0  0  0  0  0  0
   41.1881   33.0874   43.7408 H   0  0  0  0  0  0  0  0  0  0  0  0
   39.7198   34.2785   45.6781 H   0  0  0  0  0  0  0  0  0  0  0  0
   36.6741   29.3106   50.4650 H   0  0  0  0  0  0  0  0  0  0  0  0
   34.8267   30.9333   46.9182 H   0  0  0  0  0  0  0  0  0  0  0  0
   33.2166   27.4788   48.8174 H   0  0  0  0  0  0  0  0  0  0  0  0
  1  2  2  0
  3  2  1  0
  4  3  2  0
  5  6  2  0
  5  4  1  0
  6  1  1  0
  7  5  1  0
  8  7  1  0
  9  8  2  0
 10  9  1  0
 10 11  2  0
 11  7  1  0
 12 17  2  0
 13  1  1  0
 13 12  1  0
 14 15  1  0
 14 13  2  0
 15 16  2  0
 16 17  1  0
  2 18  1  0
  3 19  1  0
  9 20  1  0
 10 21  1  0
 11 22  1  0
 12 23  1  0
 14 24  1  0
 16 25  1  0
M  ISO  8  18  14  19  14  20  14  21  14  22  14  23  14  24  14  25  14
M  END
>  <minimizedAffinity>  (1) 
-6.16219807

>  <minimizedRMSD>  (1) 
0.278433472

$$$$
