
     RDKit          3D

 30 32  0  0  0  0  0  0  0  0999 V2000
   36.8890   31.2340   48.6930 C   0  0  0  0  0  0  0  0  0  0  0  0
   37.1190   32.1490   49.6820 C   0  0  0  0  0  0  0  0  0  0  0  0
   38.1760   33.0400   49.4860 C   0  0  0  0  0  0  0  0  0  0  0  0
   38.9550   33.0340   48.3950 N   0  0  0  0  0  0  0  0  0  0  0  0
   38.6920   32.1010   47.4260 C   0  0  0  0  0  0  0  0  0  0  0  0
   37.6680   31.2310   47.6060 N   0  0  0  0  0  0  0  0  0  0  0  0
   39.4610   32.0260   46.2500 N   0  0  0  0  0  0  0  0  0  0  0  0
   39.7350   30.8180   45.4580 C   0  0  0  0  0  0  0  0  0  0  0  0
   40.6740   31.3220   44.3660 C   0  0  0  0  0  0  0  0  0  0  0  0
   40.0900   32.7280   44.1710 C   0  0  0  0  0  0  0  0  0  0  0  0
   40.1220   33.1820   45.6240 C   0  0  0  0  0  0  0  0  0  0  0  0
   35.8100   29.3710   49.8510 C   0  0  0  0  0  0  0  0  0  0  0  0
   35.8210   30.2430   48.7600 C   0  0  0  0  0  0  0  0  0  0  0  0
   34.8200   30.1290   47.7930 C   0  0  0  0  0  0  0  0  0  0  0  0
   33.8660   29.1700   47.9470 N   0  0  0  0  0  0  0  0  0  0  0  0
   33.8750   28.3290   49.0180 C   0  0  0  0  0  0  0  0  0  0  0  0
   34.8280   28.4350   49.9430 N   0  0  0  0  0  0  0  0  0  0  0  0
   36.4998   32.1819   50.5906 H   0  0  0  0  0  0  0  0  0  0  0  0
   38.3803   33.7862   50.2680 H   0  0  0  0  0  0  0  0  0  0  0  0
   40.2223   30.0461   46.0718 H   0  0  0  0  0  0  0  0  0  0  0  0
   38.8239   30.3476   45.0599 H   0  0  0  0  0  0  0  0  0  0  0  0
   41.7200   31.3540   44.7049 H   0  0  0  0  0  0  0  0  0  0  0  0
   40.7195   30.7005   43.4595 H   0  0  0  0  0  0  0  0  0  0  0  0
   40.7229   33.3550   43.5257 H   0  0  0  0  0  0  0  0  0  0  0  0
   39.1096   32.7760   43.6745 H   0  0  0  0  0  0  0  0  0  0  0  0
   41.1506   33.3154   45.9904 H   0  0  0  0  0  0  0  0  0  0  0  0
   39.6515   34.1563   45.8222 H   0  0  0  0  0  0  0  0  0  0  0  0
   36.5867   29.4406   50.6268 H   0  0  0  0  0  0  0  0  0  0  0  0
   34.8026   30.8017   46.9228 H   0  0  0  0  0  0  0  0  0  0  0  0
   33.0942   27.5609   49.1196 H   0  0  0  0  0  0  0  0  0  0  0  0
  1 13  1  0
  1  2  2  0
  3  2  1  0
  4  3  2  0
  5  6  2  0
  5  4  1  0
  6  1  1  0
  7  5  1  0
  8  7  1  0
  9  8  1  0
 10  9  1  0
 10 11  1  0
 11  7  1  0
 12 17  2  0
 13 12  1  0
 14 15  1  0
 14 13  2  0
 15 16  2  0
 16 17  1  0
  2 18  1  0
  3 19  1  0
  8 20  1  0
  8 21  1  0
  9 22  1  0
  9 23  1  0
 10 24  1  0
 10 25  1  0
 11 26  1  0
 11 27  1  0
 12 28  1  0
 14 29  1  0
 16 30  1  0
M  ISO  8  18  14  19  14  20  13  21  13  22  13  23  13  24  13  25  13
M  ISO  5  26  13  27  13  28  14  29  14  30  14
M  END
>  <minimizedAffinity>  (1) 
-6.14650488

>  <minimizedRMSD>  (1) 
0.309978455

$$$$
