
     RDKit          3D

 27 29  0  0  0  0  0  0  0  0999 V2000
   37.1040   31.4400   48.7340 C   0  0  0  0  0  0  0  0  0  0  0  0
   37.6120   32.3610   49.6120 C   0  0  0  0  0  0  0  0  0  0  0  0
   38.6370   33.1910   49.1680 C   0  0  0  0  0  0  0  0  0  0  0  0
   39.1470   33.1230   47.9140 N   0  0  0  0  0  0  0  0  0  0  0  0
   38.6170   32.1990   47.0790 C   0  0  0  0  0  0  0  0  0  0  0  0
   37.6190   31.3890   47.5070 N   0  0  0  0  0  0  0  0  0  0  0  0
   36.0370   29.9660   50.3580 C   0  0  0  0  0  0  0  0  0  0  0  0
   36.0400   30.5230   49.0790 C   0  0  0  0  0  0  0  0  0  0  0  0
   35.0230   30.1720   48.1990 C   0  0  0  0  0  0  0  0  0  0  0  0
   34.0630   29.2950   48.6270 N   0  0  0  0  0  0  0  0  0  0  0  0
   34.0920   28.7730   49.8820 C   0  0  0  0  0  0  0  0  0  0  0  0
   35.0640   29.1010   50.7380 N   0  0  0  0  0  0  0  0  0  0  0  0
   39.1300   32.0840   45.7160 C   0  0  0  0  0  0  0  0  0  0  0  0
   40.1950   31.2410   45.4670 C   0  0  0  0  0  0  0  0  0  0  0  0
   40.6900   31.1210   44.1850 C   0  0  0  0  0  0  0  0  0  0  0  0
   40.0570   31.8820   43.2180 C   0  0  0  0  0  0  0  0  0  0  0  0
   39.0030   32.7130   43.4780 C   0  0  0  0  0  0  0  0  0  0  0  0
   38.5290   32.8170   44.7540 N   0  0  0  0  0  0  0  0  0  0  0  0
   37.2214   32.4419   50.6371 H   0  0  0  0  0  0  0  0  0  0  0  0
   39.0513   33.9344   49.8649 H   0  0  0  0  0  0  0  0  0  0  0  0
   36.8343   30.2319   51.0677 H   0  0  0  0  0  0  0  0  0  0  0  0
   34.9903   30.5894   47.1818 H   0  0  0  0  0  0  0  0  0  0  0  0
   33.3052   28.0717   50.1967 H   0  0  0  0  0  0  0  0  0  0  0  0
   40.6475   30.6666   46.2888 H   0  0  0  0  0  0  0  0  0  0  0  0
   41.5365   30.4605   43.9459 H   0  0  0  0  0  0  0  0  0  0  0  0
   40.4222   31.8146   42.1826 H   0  0  0  0  0  0  0  0  0  0  0  0
   38.5407   33.2931   42.6657 H   0  0  0  0  0  0  0  0  0  0  0  0
  1  8  1  0
  1  2  2  0
  3  2  1  0
  4  3  2  0
  5  6  2  0
  5  4  1  0
  6  1  1  0
  7 12  2  0
  8  7  1  0
  9 10  1  0
  9  8  2  0
 10 11  2  0
 11 12  1  0
 13  5  1  0
 14 13  2  0
 15 14  1  0
 16 17  1  0
 16 15  2  0
 17 18  2  0
 18 13  1  0
  2 19  1  0
  3 20  1  0
  7 21  1  0
  9 22  1  0
 11 23  1  0
 14 24  1  0
 15 25  1  0
 16 26  1  0
 17 27  1  0
M  ISO  8  19  14  20  14  21  14  22  14  23  14  24  14  25  14  26  14
M  ISO  1  27  14
M  END
>  <minimizedAffinity>  (1) 
-5.9595561

>  <minimizedRMSD>  (1) 
0.932428539

$$$$
