
     RDKit          3D

 25 27  0  0  0  0  0  0  0  0999 V2000
   37.8150   31.9180   49.1420 C   0  0  0  0  0  0  0  0  0  0  0  0
   38.2880   33.0610   49.6990 C   0  0  0  0  0  0  0  0  0  0  0  0
   39.1620   33.8540   48.9830 C   0  0  0  0  0  0  0  0  0  0  0  0
   39.5680   33.5390   47.7490 N   0  0  0  0  0  0  0  0  0  0  0  0
   39.0880   32.3930   47.2030 C   0  0  0  0  0  0  0  0  0  0  0  0
   38.2180   31.5890   47.8940 N   0  0  0  0  0  0  0  0  0  0  0  0
   37.3530   30.3740   50.9710 C   0  0  0  0  0  0  0  0  0  0  0  0
   36.8930   31.0040   49.7950 C   0  0  0  0  0  0  0  0  0  0  0  0
   35.6220   30.7210   49.3390 C   0  0  0  0  0  0  0  0  0  0  0  0
   34.8530   29.8480   50.0340 N   0  0  0  0  0  0  0  0  0  0  0  0
   35.2970   29.2520   51.1570 C   0  0  0  0  0  0  0  0  0  0  0  0
   36.5320   29.5090   51.6240 N   0  0  0  0  0  0  0  0  0  0  0  0
   39.5360   32.0560   45.8550 C   0  0  0  0  0  0  0  0  0  0  0  0
   40.5040   31.2270   45.4130 C   0  0  0  0  0  0  0  0  0  0  0  0
   40.7370   31.0780   44.0750 C   0  0  0  0  0  0  0  0  0  0  0  0
   39.8990   31.8440   43.2250 C   0  0  0  0  0  0  0  0  0  0  0  0
   38.8110   32.7460   44.4320 S   0  0  0  0  0  0  0  0  0  0  0  0
   37.9776   33.3535   50.7130 H   0  0  0  0  0  0  0  0  0  0  0  0
   39.5381   34.7789   49.4447 H   0  0  0  0  0  0  0  0  0  0  0  0
   38.3631   30.5802   51.3546 H   0  0  0  0  0  0  0  0  0  0  0  0
   35.2384   31.1971   48.4246 H   0  0  0  0  0  0  0  0  0  0  0  0
   34.6447   28.5496   51.6966 H   0  0  0  0  0  0  0  0  0  0  0  0
   41.1121   30.6651   46.1373 H   0  0  0  0  0  0  0  0  0  0  0  0
   41.5195   30.4108   43.6845 H   0  0  0  0  0  0  0  0  0  0  0  0
   39.8942   31.8922   42.1261 H   0  0  0  0  0  0  0  0  0  0  0  0
  1  2  2  0
  1  8  1  0
  3  2  1  0
  4  3  2  0
  5  4  1  0
  5  6  2  0
  6  1  1  0
  7 12  2  0
  8  7  1  0
  9  8  2  0
  9 10  1  0
 10 11  2  0
 11 12  1  0
 13  5  1  0
 14 13  2  0
 15 14  1  0
 16 15  2  0
 16 17  1  0
 17 13  1  0
  2 18  1  0
  3 19  1  0
  7 20  1  0
  9 21  1  0
 11 22  1  0
 14 23  1  0
 15 24  1  0
 16 25  1  0
M  ISO  8  18  14  19  14  20  14  21  14  22  14  23  14  24  14  25  14
M  END
>  <minimizedAffinity>  (1) 
-5.77476931

>  <minimizedRMSD>  (1) 
1.76910865

$$$$
