
     RDKit          3D

 21 22  0  0  0  0  0  0  0  0999 V2000
   37.0370   31.2100   48.5380 C   0  0  0  0  0  0  0  0  0  0  0  0
   37.1850   32.1730   49.4990 C   0  0  0  0  0  0  0  0  0  0  0  0
   38.2420   33.0650   49.3590 C   0  0  0  0  0  0  0  0  0  0  0  0
   39.1120   33.0190   48.3300 N   0  0  0  0  0  0  0  0  0  0  0  0
   38.9300   32.0520   47.4020 C   0  0  0  0  0  0  0  0  0  0  0  0
   37.9010   31.1720   47.5250 N   0  0  0  0  0  0  0  0  0  0  0  0
   36.0330   29.2180   49.5420 C   0  0  0  0  0  0  0  0  0  0  0  0
   35.9790   30.2230   48.5690 C   0  0  0  0  0  0  0  0  0  0  0  0
   34.9020   30.2210   47.6760 C   0  0  0  0  0  0  0  0  0  0  0  0
   33.9640   29.2410   47.8000 N   0  0  0  0  0  0  0  0  0  0  0  0
   34.0430   28.2860   48.7470 C   0  0  0  0  0  0  0  0  0  0  0  0
   35.0630   28.2740   49.6070 N   0  0  0  0  0  0  0  0  0  0  0  0
   39.8010   31.8910   46.2380 C   0  0  0  0  0  0  0  0  0  0  0  0
   39.8980   32.7760   45.3320 O   0  0  0  0  0  0  0  0  0  0  0  0
   40.5740   30.7630   46.0480 O   0  0  0  0  0  0  0  0  0  0  0  0
   36.4927   32.2388   50.3513 H   0  0  0  0  0  0  0  0  0  0  0  0
   38.3748   33.8448   50.1234 H   0  0  0  0  0  0  0  0  0  0  0  0
   36.8677   29.1945   50.2580 H   0  0  0  0  0  0  0  0  0  0  0  0
   34.8150   30.9903   46.8946 H   0  0  0  0  0  0  0  0  0  0  0  0
   33.2632   27.5128   48.8115 H   0  0  0  0  0  0  0  0  0  0  0  0
   41.1522   30.6882   45.2479 H   0  0  0  0  0  0  0  0  0  0  0  0
  1  8  1  0
  1  2  2  0
  3  2  1  0
  4  3  2  0
  5  6  2  0
  5  4  1  0
  6  1  1  0
  7 12  2  0
  8  7  1  0
  9 10  1  0
  9  8  2  0
 10 11  2  0
 11 12  1  0
 13  5  1  0
 14 13  2  0
 15 13  1  0
  2 16  1  0
  3 17  1  0
  7 18  1  0
  9 19  1  0
 11 20  1  0
 15 21  1  0
M  ISO  6  16  14  17  14  18  14  19  14  20  14  21   3
M  END
>  <minimizedAffinity>  (1) 
-5.38638735

>  <minimizedRMSD>  (1) 
0.423840463

$$$$
