
     RDKit          3D

 27 28  0  0  0  0  0  0  0  0999 V2000
   36.9800   31.2470   48.5410 C   0  0  0  0  0  0  0  0  0  0  0  0
   37.3080   32.0610   49.5870 C   0  0  0  0  0  0  0  0  0  0  0  0
   38.3570   32.9530   49.3780 C   0  0  0  0  0  0  0  0  0  0  0  0
   39.0430   33.0480   48.2230 N   0  0  0  0  0  0  0  0  0  0  0  0
   38.6800   32.2200   47.2160 C   0  0  0  0  0  0  0  0  0  0  0  0
   37.6530   31.3230   47.3720 N   0  0  0  0  0  0  0  0  0  0  0  0
   35.9460   29.3240   49.6560 C   0  0  0  0  0  0  0  0  0  0  0  0
   35.9040   30.2580   48.6040 C   0  0  0  0  0  0  0  0  0  0  0  0
   34.8600   30.1890   47.7030 C   0  0  0  0  0  0  0  0  0  0  0  0
   33.9170   29.2270   47.8640 N   0  0  0  0  0  0  0  0  0  0  0  0
   33.9770   28.3290   48.8900 C   0  0  0  0  0  0  0  0  0  0  0  0
   34.9830   28.3770   49.7790 N   0  0  0  0  0  0  0  0  0  0  0  0
   39.3590   32.2310   45.9010 C   0  0  0  0  0  0  0  0  0  0  0  0
   40.2540   33.4470   45.8080 C   0  0  0  0  0  0  0  0  0  0  0  0
   40.2550   31.0130   45.7250 C   0  0  0  0  0  0  0  0  0  0  0  0
   36.7711   32.0146   50.5459 H   0  0  0  0  0  0  0  0  0  0  0  0
   38.6421   33.6194   50.2054 H   0  0  0  0  0  0  0  0  0  0  0  0
   36.7682   29.3625   50.3858 H   0  0  0  0  0  0  0  0  0  0  0  0
   34.7939   30.9024   46.8683 H   0  0  0  0  0  0  0  0  0  0  0  0
   33.1962   27.5606   48.9897 H   0  0  0  0  0  0  0  0  0  0  0  0
   38.5758   32.2350   45.1287 H   0  0  0  0  0  0  0  0  0  0  0  0
   40.5087   33.7931   46.8206 H   0  0  0  0  0  0  0  0  0  0  0  0
   41.1754   33.1837   45.2679 H   0  0  0  0  0  0  0  0  0  0  0  0
   39.7287   34.2485   45.2679 H   0  0  0  0  0  0  0  0  0  0  0  0
   40.5419   30.6230   46.7127 H   0  0  0  0  0  0  0  0  0  0  0  0
   39.7118   30.2357   45.1675 H   0  0  0  0  0  0  0  0  0  0  0  0
   41.1588   31.3001   45.1675 H   0  0  0  0  0  0  0  0  0  0  0  0
  1  8  1  0
  1  2  2  0
  3  2  1  0
  4  3  2  0
  5  6  2  0
  5  4  1  0
  6  1  1  0
  7 12  2  0
  8  7  1  0
  9 10  1  0
  9  8  2  0
 10 11  2  0
 11 12  1  0
 13  5  1  0
 14 13  1  0
 15 13  1  0
  2 16  1  0
  3 17  1  0
  7 18  1  0
  9 19  1  0
 11 20  1  0
 13 21  1  0
 14 22  1  0
 14 23  1  0
 14 24  1  0
 15 25  1  0
 15 26  1  0
 15 27  1  0
M  ISO  8  16  14  17  14  18  14  19  14  20  14  21   8  22   8  23   8
M  ISO  4  24   8  25   8  26   8  27   8
M  END
>  <minimizedAffinity>  (1) 
-5.3819313

>  <minimizedRMSD>  (1) 
0.550918043

$$$$
