
     RDKit          3D

 20 21  0  0  0  0  0  0  0  0999 V2000
   36.9800   31.2780   48.5520 C   0  0  0  0  0  0  0  0  0  0  0  0
   37.2790   32.0610   49.6190 C   0  0  0  0  0  0  0  0  0  0  0  0
   38.2970   32.9880   49.5120 C   0  0  0  0  0  0  0  0  0  0  0  0
   39.0070   33.1460   48.3930 N   0  0  0  0  0  0  0  0  0  0  0  0
   38.6910   32.3470   47.3300 C   0  0  0  0  0  0  0  0  0  0  0  0
   37.6870   31.4240   47.4110 N   0  0  0  0  0  0  0  0  0  0  0  0
   36.0120   29.2670   49.5370 C   0  0  0  0  0  0  0  0  0  0  0  0
   35.9380   30.2750   48.5530 C   0  0  0  0  0  0  0  0  0  0  0  0
   34.8850   30.2340   47.6630 C   0  0  0  0  0  0  0  0  0  0  0  0
   33.9680   29.2510   47.7510 N   0  0  0  0  0  0  0  0  0  0  0  0
   34.0530   28.2860   48.7060 C   0  0  0  0  0  0  0  0  0  0  0  0
   35.0690   28.2910   49.5970 N   0  0  0  0  0  0  0  0  0  0  0  0
   39.3910   32.4200   46.0480 C   0  0  0  0  0  0  0  0  0  0  0  0
   40.3260   33.2190   45.8120 O   0  0  0  0  0  0  0  0  0  0  0  0
   36.7167   31.9585   50.5589 H   0  0  0  0  0  0  0  0  0  0  0  0
   38.5314   33.6197   50.3815 H   0  0  0  0  0  0  0  0  0  0  0  0
   36.8398   29.2713   50.2614 H   0  0  0  0  0  0  0  0  0  0  0  0
   34.7941   31.0033   46.8820 H   0  0  0  0  0  0  0  0  0  0  0  0
   33.2892   27.4959   48.7533 H   0  0  0  0  0  0  0  0  0  0  0  0
   39.0788   31.7347   45.2462 H   0  0  0  0  0  0  0  0  0  0  0  0
  1  8  1  0
  1  2  2  0
  3  2  1  0
  4  3  2  0
  5  6  2  0
  5  4  1  0
  6  1  1  0
  7 12  2  0
  8  7  1  0
  9 10  1  0
  9  8  2  0
 10 11  2  0
 11 12  1  0
 13  5  1  0
 14 13  2  0
  2 15  1  0
  3 16  1  0
  7 17  1  0
  9 18  1  0
 11 19  1  0
 13 20  1  0
M  ISO  6  15  14  16  14  17  14  18  14  19  14  20   6
M  END
>  <minimizedAffinity>  (1) 
-4.8448782

>  <minimizedRMSD>  (1) 
0.0750975534

$$$$
