
     RDKit          3D

 19 20  0  0  0  0  0  0  0  0999 V2000
   37.0010   31.2800   48.5490 C   0  0  0  0  0  0  0  0  0  0  0  0
   37.2710   32.0720   49.6370 C   0  0  0  0  0  0  0  0  0  0  0  0
   38.2980   33.0050   49.4990 C   0  0  0  0  0  0  0  0  0  0  0  0
   39.0130   33.1580   48.3800 N   0  0  0  0  0  0  0  0  0  0  0  0
   38.7130   32.3500   47.3210 C   0  0  0  0  0  0  0  0  0  0  0  0
   37.7140   31.4330   47.4350 N   0  0  0  0  0  0  0  0  0  0  0  0
   36.0190   29.2630   49.5240 C   0  0  0  0  0  0  0  0  0  0  0  0
   35.9630   30.2740   48.5550 C   0  0  0  0  0  0  0  0  0  0  0  0
   34.8980   30.2460   47.6470 C   0  0  0  0  0  0  0  0  0  0  0  0
   33.9810   29.2500   47.7490 N   0  0  0  0  0  0  0  0  0  0  0  0
   34.0620   28.2870   48.6970 C   0  0  0  0  0  0  0  0  0  0  0  0
   35.0820   28.2960   49.5820 N   0  0  0  0  0  0  0  0  0  0  0  0
   39.4660   32.5270   46.1750 O   0  0  0  0  0  0  0  0  0  0  0  0
   36.7035   31.9752   50.5743 H   0  0  0  0  0  0  0  0  0  0  0  0
   38.5327   33.6506   50.3582 H   0  0  0  0  0  0  0  0  0  0  0  0
   36.8440   29.2587   50.2516 H   0  0  0  0  0  0  0  0  0  0  0  0
   34.8059   31.0156   46.8664 H   0  0  0  0  0  0  0  0  0  0  0  0
   33.2975   27.4977   48.7464 H   0  0  0  0  0  0  0  0  0  0  0  0
   40.1806   33.2118   46.1531 H   0  0  0  0  0  0  0  0  0  0  0  0
  1  8  1  0
  1  2  2  0
  3  2  1  0
  4  3  2  0
  5  6  2  0
  5  4  1  0
  6  1  1  0
  7 12  2  0
  8  7  1  0
  9 10  1  0
  9  8  2  0
 10 11  2  0
 11 12  1  0
 13  5  1  0
  2 14  1  0
  3 15  1  0
  7 16  1  0
  9 17  1  0
 11 18  1  0
 13 19  1  0
M  ISO  6  14  14  15  14  16  14  17  14  18  14  19   3
M  END
>  <minimizedAffinity>  (1) 
-4.72991371

>  <minimizedRMSD>  (1) 
0.0557421409

$$$$
