
     RDKit          3D

 38 42  0  0  0  0  0  0  0  0999 V2000
   35.0330   28.8770   48.9600 C   0  0  0  0  0  0  0  0  0  0  0  0
   35.3430   29.8990   48.0600 C   0  0  0  0  0  0  0  0  0  0  0  0
   34.5670   29.9990   46.9170 C   0  0  0  0  0  0  0  0  0  0  0  0
   33.5540   29.1070   46.7350 N   0  0  0  0  0  0  0  0  0  0  0  0
   33.2800   28.1270   47.6300 C   0  0  0  0  0  0  0  0  0  0  0  0
   34.0280   28.0070   48.7610 N   0  0  0  0  0  0  0  0  0  0  0  0
   32.1930   27.2670   47.3100 N   0  0  0  0  0  0  0  0  0  0  0  0
   32.3870   25.9690   46.9380 C   0  0  0  0  0  0  0  0  0  0  0  0
   31.1860   25.4000   46.6980 N   0  0  0  0  0  0  0  0  0  0  0  0
   30.2640   26.3610   46.9270 C   0  0  0  0  0  0  0  0  0  0  0  0
   28.8680   26.3580   46.8430 C   0  0  0  0  0  0  0  0  0  0  0  0
   28.3100   25.2870   46.4930 O   0  0  0  0  0  0  0  0  0  0  0  0
   28.2070   27.4980   47.1420 N   0  0  0  0  0  0  0  0  0  0  0  0
   28.8220   28.6300   47.5130 C   0  0  0  0  0  0  0  0  0  0  0  0
   27.9320   29.7030   47.7780 N   0  0  0  0  0  0  0  0  0  0  0  0
   30.1800   28.6530   47.6000 N   0  0  0  0  0  0  0  0  0  0  0  0
   30.8740   27.5260   47.3090 C   0  0  0  0  0  0  0  0  0  0  0  0
   36.4560   30.7820   48.3820 C   0  0  0  0  0  0  0  0  0  0  0  0
   36.6000   31.3730   49.6110 C   0  0  0  0  0  0  0  0  0  0  0  0
   37.7200   32.1970   49.7730 C   0  0  0  0  0  0  0  0  0  0  0  0
   38.6220   32.4250   48.8150 N   0  0  0  0  0  0  0  0  0  0  0  0
   38.4320   31.8130   47.6130 C   0  0  0  0  0  0  0  0  0  0  0  0
   37.3600   31.0030   47.4070 N   0  0  0  0  0  0  0  0  0  0  0  0
   39.3720   32.0290   46.5640 N   0  0  0  0  0  0  0  0  0  0  0  0
   39.9550   33.0900   45.9930 C   0  0  0  0  0  0  0  0  0  0  0  0
   40.7780   32.6200   45.0190 N   0  0  0  0  0  0  0  0  0  0  0  0
   40.6760   31.2710   45.0200 C   0  0  0  0  0  0  0  0  0  0  0  0
   39.7930   30.8860   45.9890 N   0  0  0  0  0  0  0  0  0  0  0  0
   35.6387   28.7797   49.8730 H   0  0  0  0  0  0  0  0  0  0  0  0
   34.7649   30.7831   46.1713 H   0  0  0  0  0  0  0  0  0  0  0  0
   33.3621   25.4678   46.8482 H   0  0  0  0  0  0  0  0  0  0  0  0
   27.1788   27.4972   47.0818 H   0  0  0  0  0  0  0  0  0  0  0  0
   28.3019   30.6187   48.0706 H   0  0  0  0  0  0  0  0  0  0  0  0
   26.9161   29.5662   47.6778 H   0  0  0  0  0  0  0  0  0  0  0  0
   35.8766   31.2089   50.4233 H   0  0  0  0  0  0  0  0  0  0  0  0
   37.8658   32.6859   50.7476 H   0  0  0  0  0  0  0  0  0  0  0  0
   39.7974   34.1449   46.2618 H   0  0  0  0  0  0  0  0  0  0  0  0
   41.2186   30.5911   44.3467 H   0  0  0  0  0  0  0  0  0  0  0  0
  2 18  1  0
  2  1  2  0
  3  2  1  0
  4  3  2  0
  4  5  1  0
  5  6  2  0
  6  1  1  0
  7  5  1  0
  8  7  1  0
  9 10  1  0
  9  8  2  0
 10 17  2  0
 11 10  1  0
 11 13  1  0
 12 11  2  0
 13 14  1  0
 14 16  2  0
 14 15  1  0
 17  7  1  0
 17 16  1  0
 18 19  2  0
 19 20  1  0
 21 20  2  0
 22 21  1  0
 23 22  2  0
 23 18  1  0
 24 22  1  0
 25 24  1  0
 26 27  1  0
 26 25  2  0
 27 28  2  0
 28 24  1  0
  1 29  1  0
  3 30  1  0
  8 31  1  0
 13 32  1  0
 15 33  1  0
 15 34  1  0
 19 35  1  0
 20 36  1  0
 25 37  1  0
 27 38  1  0
M  ISO  8  29  14  30  14  31  14  32   9  35  14  36  14  37  14  38  14
M  END
>  <minimizedAffinity>  (1) 
-7.62488222

>  <minimizedRMSD>  (1) 
1.56469548

$$$$
