
     RDKit          3D

 24 26  0  0  0  0  0  0  0  0999 V2000
   36.2170   30.4000   49.1110 C   0  0  0  0  0  0  0  0  0  0  0  0
   36.0730   29.8760   50.4020 C   0  0  0  0  0  0  0  0  0  0  0  0
   35.0560   28.9330   50.3850 C   0  0  0  0  0  0  0  0  0  0  0  0
   34.6200   28.9090   49.1130 N   0  0  0  0  0  0  0  0  0  0  0  0
   35.2850   29.7590   48.3540 N   0  0  0  0  0  0  0  0  0  0  0  0
   38.3680   33.4120   49.2380 C   0  0  0  0  0  0  0  0  0  0  0  0
   39.1890   33.1960   48.1320 C   0  0  0  0  0  0  0  0  0  0  0  0
   38.9800   32.0360   47.3840 C   0  0  0  0  0  0  0  0  0  0  0  0
   37.9910   31.1780   47.7710 N   0  0  0  0  0  0  0  0  0  0  0  0
   37.2190   31.4170   48.8430 C   0  0  0  0  0  0  0  0  0  0  0  0
   37.3930   32.5230   49.5830 N   0  0  0  0  0  0  0  0  0  0  0  0
   33.5620   28.0410   48.7180 C   0  0  0  0  0  0  0  0  0  0  0  0
   33.8270   26.9900   47.8450 C   0  0  0  0  0  0  0  0  0  0  0  0
   32.5950   26.3500   47.6680 C   0  0  0  0  0  0  0  0  0  0  0  0
   31.6710   27.0350   48.4290 C   0  0  0  0  0  0  0  0  0  0  0  0
   32.2870   28.0260   49.0310 O   0  0  0  0  0  0  0  0  0  0  0  0
   36.6670   30.1641   51.2819 H   0  0  0  0  0  0  0  0  0  0  0  0
   34.6858   28.3338   51.2299 H   0  0  0  0  0  0  0  0  0  0  0  0
   38.5096   34.3184   49.8450 H   0  0  0  0  0  0  0  0  0  0  0  0
   39.9748   33.9153   47.8581 H   0  0  0  0  0  0  0  0  0  0  0  0
   39.5991   31.8178   46.5013 H   0  0  0  0  0  0  0  0  0  0  0  0
   34.7932   26.7212   47.3931 H   0  0  0  0  0  0  0  0  0  0  0  0
   32.4005   25.4676   47.0406 H   0  0  0  0  0  0  0  0  0  0  0  0
   30.6016   26.7927   48.5166 H   0  0  0  0  0  0  0  0  0  0  0  0
  1  2  1  0
  3  2  2  0
  4  3  1  0
  5  1  2  0
  5  4  1  0
  6 11  2  0
  7  6  1  0
  8  9  1  0
  8  7  2  0
  9 10  2  0
 10  1  1  0
 10 11  1  0
 12 16  1  0
 12  4  1  0
 13 12  2  0
 14 13  1  0
 14 15  2  0
 15 16  1  0
  2 17  1  0
  3 18  1  0
  6 19  1  0
  7 20  1  0
  8 21  1  0
 13 22  1  0
 14 23  1  0
 15 24  1  0
M  ISO  8  17  14  18  14  19  14  20  14  21  14  22  14  23  14  24  14
M  END
>  <minimizedAffinity>  (1) 
-5.06182098

>  <minimizedRMSD>  (1) 
1.21838415

$$$$
