
     RDKit          3D

 36 39  0  0  0  0  0  0  0  0999 V2000
   36.7400   31.0970   48.5590 C   0  0  0  0  0  0  0  0  0  0  0  0
   36.9700   31.8450   49.6980 C   0  0  0  0  0  0  0  0  0  0  0  0
   38.0780   32.7030   49.6640 C   0  0  0  0  0  0  0  0  0  0  0  0
   38.8920   32.8190   48.6070 N   0  0  0  0  0  0  0  0  0  0  0  0
   38.6180   32.0590   47.5130 C   0  0  0  0  0  0  0  0  0  0  0  0
   37.5530   31.2110   47.4990 N   0  0  0  0  0  0  0  0  0  0  0  0
   39.4600   32.1560   46.3700 N   0  0  0  0  0  0  0  0  0  0  0  0
   39.9650   33.1430   45.6160 C   0  0  0  0  0  0  0  0  0  0  0  0
   40.7130   32.5640   44.6500 N   0  0  0  0  0  0  0  0  0  0  0  0
   40.6520   31.2150   44.8290 C   0  0  0  0  0  0  0  0  0  0  0  0
   39.8620   30.9620   45.9130 N   0  0  0  0  0  0  0  0  0  0  0  0
   35.5110   29.1780   49.4240 C   0  0  0  0  0  0  0  0  0  0  0  0
   35.6340   30.1740   48.4610 C   0  0  0  0  0  0  0  0  0  0  0  0
   34.6730   30.2190   47.4550 C   0  0  0  0  0  0  0  0  0  0  0  0
   33.6680   29.2910   47.4650 N   0  0  0  0  0  0  0  0  0  0  0  0
   33.5890   28.3430   48.4200 C   0  0  0  0  0  0  0  0  0  0  0  0
   34.4980   28.2710   49.4050 N   0  0  0  0  0  0  0  0  0  0  0  0
   32.5190   27.4030   48.3780 N   0  0  0  0  0  0  0  0  0  0  0  0
   31.2190   27.5450   49.0080 C   0  0  0  0  0  0  0  0  0  0  0  0
   30.3250   27.0420   47.8660 C   0  0  0  0  0  0  0  0  0  0  0  0
   31.1870   26.1800   46.9900 C   0  0  0  0  0  0  0  0  0  0  0  0
   32.5260   26.1200   47.6980 C   0  0  0  0  0  0  0  0  0  0  0  0
   36.3198   31.7712   50.5822 H   0  0  0  0  0  0  0  0  0  0  0  0
   38.2903   33.3141   50.5537 H   0  0  0  0  0  0  0  0  0  0  0  0
   39.8014   34.2216   45.7569 H   0  0  0  0  0  0  0  0  0  0  0  0
   41.1534   30.4591   44.2067 H   0  0  0  0  0  0  0  0  0  0  0  0
   36.2589   29.1221   50.2287 H   0  0  0  0  0  0  0  0  0  0  0  0
   34.7208   30.9856   46.6676 H   0  0  0  0  0  0  0  0  0  0  0  0
   31.1282   26.9172   49.9067 H   0  0  0  0  0  0  0  0  0  0  0  0
   30.9851   28.5555   49.3742 H   0  0  0  0  0  0  0  0  0  0  0  0
   29.4882   26.4538   48.2707 H   0  0  0  0  0  0  0  0  0  0  0  0
   29.8993   27.8822   47.2978 H   0  0  0  0  0  0  0  0  0  0  0  0
   31.2967   26.6298   45.9922 H   0  0  0  0  0  0  0  0  0  0  0  0
   30.7539   25.1804   46.8380 H   0  0  0  0  0  0  0  0  0  0  0  0
   32.5726   25.2826   48.4098 H   0  0  0  0  0  0  0  0  0  0  0  0
   33.3891   25.9548   47.0364 H   0  0  0  0  0  0  0  0  0  0  0  0
  1  2  2  0
  3  2  1  0
  4  3  2  0
  5  4  1  0
  6  5  2  0
  6  1  1  0
  7  5  1  0
  8  7  1  0
  9 10  1  0
  9  8  2  0
 10 11  2  0
 11  7  1  0
 13  1  1  0
 13 12  2  0
 14 15  2  0
 14 13  1  0
 15 16  1  0
 16 17  2  0
 17 12  1  0
 18 16  1  0
 18 19  1  0
 20 19  1  0
 21 22  1  0
 21 20  1  0
 22 18  1  0
  2 23  1  0
  3 24  1  0
  8 25  1  0
 10 26  1  0
 12 27  1  0
 14 28  1  0
 19 29  1  0
 19 30  1  0
 20 31  1  0
 20 32  1  0
 21 33  1  0
 21 34  1  0
 22 35  1  0
 22 36  1  0
M  ISO  8  23  14  24  14  25  14  26  14  27  14  28  14  29  13  30  13
M  ISO  6  31  13  32  13  33  13  34  13  35  13  36  13
M  END
>  <minimizedAffinity>  (1) 
-6.97553635

>  <minimizedRMSD>  (1) 
0.492823333

$$$$
