
     RDKit          3D

 30 33  0  0  0  0  0  0  0  0999 V2000
   36.7910   31.1420   48.5490 C   0  0  0  0  0  0  0  0  0  0  0  0
   36.9990   31.8740   49.6920 C   0  0  0  0  0  0  0  0  0  0  0  0
   38.1020   32.7350   49.6990 C   0  0  0  0  0  0  0  0  0  0  0  0
   38.9390   32.8690   48.6620 N   0  0  0  0  0  0  0  0  0  0  0  0
   38.6880   32.1230   47.5540 C   0  0  0  0  0  0  0  0  0  0  0  0
   37.6260   31.2730   47.5050 N   0  0  0  0  0  0  0  0  0  0  0  0
   39.5510   32.2330   46.4280 N   0  0  0  0  0  0  0  0  0  0  0  0
   40.0770   33.2370   45.7090 C   0  0  0  0  0  0  0  0  0  0  0  0
   40.8380   32.6980   44.7400 N   0  0  0  0  0  0  0  0  0  0  0  0
   40.7630   31.3350   44.8850 C   0  0  0  0  0  0  0  0  0  0  0  0
   39.9550   31.0460   45.9450 N   0  0  0  0  0  0  0  0  0  0  0  0
   35.5580   29.1950   49.3520 C   0  0  0  0  0  0  0  0  0  0  0  0
   35.6860   30.2150   48.4130 C   0  0  0  0  0  0  0  0  0  0  0  0
   34.7410   30.2790   47.4000 C   0  0  0  0  0  0  0  0  0  0  0  0
   33.7480   29.3490   47.3780 N   0  0  0  0  0  0  0  0  0  0  0  0
   33.6440   28.3680   48.3010 C   0  0  0  0  0  0  0  0  0  0  0  0
   34.5560   28.2990   49.2860 N   0  0  0  0  0  0  0  0  0  0  0  0
   32.5940   27.4110   48.2500 N   0  0  0  0  0  0  0  0  0  0  0  0
   32.4730   26.1970   47.6850 C   0  0  0  0  0  0  0  0  0  0  0  0
   31.2350   25.6960   47.9430 N   0  0  0  0  0  0  0  0  0  0  0  0
   30.5940   26.6370   48.6850 C   0  0  0  0  0  0  0  0  0  0  0  0
   31.4380   27.6890   48.8680 N   0  0  0  0  0  0  0  0  0  0  0  0
   36.3302   31.7876   50.5610 H   0  0  0  0  0  0  0  0  0  0  0  0
   38.2915   33.3327   50.6028 H   0  0  0  0  0  0  0  0  0  0  0  0
   39.9143   34.3111   45.8818 H   0  0  0  0  0  0  0  0  0  0  0  0
   41.2721   30.5957   44.2492 H   0  0  0  0  0  0  0  0  0  0  0  0
   36.2931   29.1197   50.1669 H   0  0  0  0  0  0  0  0  0  0  0  0
   34.7931   31.0642   46.6314 H   0  0  0  0  0  0  0  0  0  0  0  0
   33.2551   25.6872   47.1034 H   0  0  0  0  0  0  0  0  0  0  0  0
   29.5671   26.5613   49.0721 H   0  0  0  0  0  0  0  0  0  0  0  0
  1  2  2  0
  2  3  1  0
  4  3  2  0
  5  4  1  0
  6  5  2  0
  6  1  1  0
  7  5  1  0
  8  7  1  0
  9 10  1  0
  9  8  2  0
 10 11  2  0
 11  7  1  0
 13  1  1  0
 13 12  2  0
 14 13  1  0
 15 14  2  0
 15 16  1  0
 16 17  2  0
 17 12  1  0
 18 16  1  0
 18 22  1  0
 19 20  2  0
 19 18  1  0
 20 21  1  0
 21 22  2  0
  2 23  1  0
  3 24  1  0
  8 25  1  0
 10 26  1  0
 12 27  1  0
 14 28  1  0
 19 29  1  0
 21 30  1  0
M  ISO  8  23  14  24  14  25  14  26  14  27  14  28  14  29  14  30  14
M  END
>  <minimizedAffinity>  (1) 
-6.94208908

>  <minimizedRMSD>  (1) 
0.550030231

$$$$
