
     RDKit          3D

 38 42  0  0  0  0  0  0  0  0999 V2000
   34.3900   28.5230   48.4890 C   0  0  0  0  0  0  0  0  0  0  0  0
   34.6950   29.7470   47.9380 C   0  0  0  0  0  0  0  0  0  0  0  0
   33.8600   30.2000   46.9330 C   0  0  0  0  0  0  0  0  0  0  0  0
   32.8150   29.4380   46.5530 N   0  0  0  0  0  0  0  0  0  0  0  0
   32.5260   28.2580   47.0860 C   0  0  0  0  0  0  0  0  0  0  0  0
   33.3220   27.8010   48.0620 N   0  0  0  0  0  0  0  0  0  0  0  0
   35.8480   30.4710   48.4180 C   0  0  0  0  0  0  0  0  0  0  0  0
   35.9860   30.8350   49.7330 C   0  0  0  0  0  0  0  0  0  0  0  0
   37.1560   31.5270   50.0710 C   0  0  0  0  0  0  0  0  0  0  0  0
   38.1190   31.8360   49.1860 N   0  0  0  0  0  0  0  0  0  0  0  0
   37.9300   31.4520   47.9040 C   0  0  0  0  0  0  0  0  0  0  0  0
   36.8100   30.7760   47.5150 N   0  0  0  0  0  0  0  0  0  0  0  0
   38.9290   31.7580   46.9200 N   0  0  0  0  0  0  0  0  0  0  0  0
   39.6130   32.8480   46.5450 C   0  0  0  0  0  0  0  0  0  0  0  0
   40.4300   32.4960   45.5340 N   0  0  0  0  0  0  0  0  0  0  0  0
   40.2270   31.1600   45.3010 C   0  0  0  0  0  0  0  0  0  0  0  0
   39.2830   30.6950   46.1730 N   0  0  0  0  0  0  0  0  0  0  0  0
   31.4430   27.2870   46.8070 C   0  0  0  0  0  0  0  0  0  0  0  0
   31.5850   26.2210   46.0210 N   0  0  0  0  0  0  0  0  0  0  0  0
   30.6110   25.3460   45.7700 C   0  0  0  0  0  0  0  0  0  0  0  0
   29.3770   25.4800   46.3090 N   0  0  0  0  0  0  0  0  0  0  0  0
   29.1350   26.5440   47.1320 C   0  0  0  0  0  0  0  0  0  0  0  0
   27.8760   26.6660   47.6720 C   0  0  0  0  0  0  0  0  0  0  0  0
   27.6000   27.7280   48.5040 C   0  0  0  0  0  0  0  0  0  0  0  0
   28.6160   28.6270   48.7570 C   0  0  0  0  0  0  0  0  0  0  0  0
   29.8460   28.4370   48.1800 C   0  0  0  0  0  0  0  0  0  0  0  0
   30.1890   27.4040   47.3430 C   0  0  0  0  0  0  0  0  0  0  0  0
   35.0249   28.1211   49.2923 H   0  0  0  0  0  0  0  0  0  0  0  0
   34.0463   31.1704   46.4496 H   0  0  0  0  0  0  0  0  0  0  0  0
   35.2179   30.5960   50.4832 H   0  0  0  0  0  0  0  0  0  0  0  0
   37.2941   31.8343   51.1181 H   0  0  0  0  0  0  0  0  0  0  0  0
   39.5229   33.8521   46.9851 H   0  0  0  0  0  0  0  0  0  0  0  0
   40.7409   30.5596   44.5359 H   0  0  0  0  0  0  0  0  0  0  0  0
   30.8159   24.4924   45.1071 H   0  0  0  0  0  0  0  0  0  0  0  0
   27.0979   25.9233   47.4418 H   0  0  0  0  0  0  0  0  0  0  0  0
   26.6034   27.8554   48.9518 H   0  0  0  0  0  0  0  0  0  0  0  0
   28.4408   29.4897   49.4166 H   0  0  0  0  0  0  0  0  0  0  0  0
   30.6266   29.1778   48.4081 H   0  0  0  0  0  0  0  0  0  0  0  0
  2  7  1  0
  2  1  2  0
  3  2  1  0
  4  3  2  0
  4  5  1  0
  5  6  2  0
  6  1  1  0
  7  8  2  0
  8  9  1  0
 10  9  2  0
 11 10  1  0
 12 11  2  0
 12  7  1  0
 13 11  1  0
 14 13  1  0
 15 14  2  0
 16 15  1  0
 16 17  2  0
 17 13  1  0
 18  5  1  0
 18 27  1  0
 19 18  2  0
 20 19  1  0
 20 21  2  0
 21 22  1  0
 22 27  2  0
 22 23  1  0
 23 24  2  0
 24 25  1  0
 26 25  2  0
 27 26  1  0
  1 28  1  0
  3 29  1  0
  8 30  1  0
  9 31  1  0
 14 32  1  0
 16 33  1  0
 20 34  1  0
 23 35  1  0
 24 36  1  0
 25 37  1  0
 26 38  1  0
M  ISO  8  28  14  29  14  30  14  31  14  32  14  33  14  34  14  35  14
M  ISO  3  36  14  37  14  38  14
M  END
>  <minimizedAffinity>  (1) 
-6.76320505

>  <minimizedRMSD>  (1) 
2.42054987

$$$$
