
     RDKit          3D

 31 34  0  0  0  0  0  0  0  0999 V2000
   36.9310   31.3040   48.6190 C   0  0  0  0  0  0  0  0  0  0  0  0
   37.1390   32.0840   49.7220 C   0  0  0  0  0  0  0  0  0  0  0  0
   38.2250   32.9690   49.6590 C   0  0  0  0  0  0  0  0  0  0  0  0
   39.0400   33.0780   48.5990 N   0  0  0  0  0  0  0  0  0  0  0  0
   38.7900   32.2830   47.5330 C   0  0  0  0  0  0  0  0  0  0  0  0
   37.7420   31.4000   47.5400 N   0  0  0  0  0  0  0  0  0  0  0  0
   39.6300   32.3690   46.3910 N   0  0  0  0  0  0  0  0  0  0  0  0
   40.1210   33.3340   45.6110 C   0  0  0  0  0  0  0  0  0  0  0  0
   40.8770   32.7610   44.6620 N   0  0  0  0  0  0  0  0  0  0  0  0
   40.8420   31.4200   44.8700 C   0  0  0  0  0  0  0  0  0  0  0  0
   40.0590   31.1710   45.9570 N   0  0  0  0  0  0  0  0  0  0  0  0
   35.8280   29.2970   49.4380 C   0  0  0  0  0  0  0  0  0  0  0  0
   35.8510   30.3420   48.5300 C   0  0  0  0  0  0  0  0  0  0  0  0
   34.8240   30.4010   47.5790 C   0  0  0  0  0  0  0  0  0  0  0  0
   33.8680   29.4360   47.6000 N   0  0  0  0  0  0  0  0  0  0  0  0
   33.8780   28.4310   48.5030 C   0  0  0  0  0  0  0  0  0  0  0  0
   34.8660   28.3510   49.4380 N   0  0  0  0  0  0  0  0  0  0  0  0
   32.7520   27.5060   48.3400 C   0  0  0  0  0  0  0  0  0  0  0  0
   31.5010   27.5880   48.7820 C   0  0  0  0  0  0  0  0  0  0  0  0
   30.5920   26.6000   48.5140 C   0  0  0  0  0  0  0  0  0  0  0  0
   31.1120   25.5060   47.7360 C   0  0  0  0  0  0  0  0  0  0  0  0
   32.9120   25.9880   47.4370 S   0  0  0  0  0  0  0  0  0  0  0  0
   36.4912   32.0211   50.6088 H   0  0  0  0  0  0  0  0  0  0  0  0
   38.4201   33.6117   50.5301 H   0  0  0  0  0  0  0  0  0  0  0  0
   39.9377   34.4125   45.7261 H   0  0  0  0  0  0  0  0  0  0  0  0
   41.3588   30.6619   44.2631 H   0  0  0  0  0  0  0  0  0  0  0  0
   36.6276   29.2355   50.1909 H   0  0  0  0  0  0  0  0  0  0  0  0
   34.7924   31.2091   46.8334 H   0  0  0  0  0  0  0  0  0  0  0  0
   31.1914   28.4631   49.3722 H   0  0  0  0  0  0  0  0  0  0  0  0
   29.5500   26.6389   48.8643 H   0  0  0  0  0  0  0  0  0  0  0  0
   30.5847   24.6025   47.3961 H   0  0  0  0  0  0  0  0  0  0  0  0
  1  2  2  0
  3  2  1  0
  4  3  2  0
  5  6  2  0
  5  4  1  0
  6  1  1  0
  7  5  1  0
  8  7  1  0
  9 10  1  0
  9  8  2  0
 10 11  2  0
 11  7  1  0
 12 17  2  0
 13  1  1  0
 13 12  1  0
 14 15  1  0
 14 13  2  0
 15 16  2  0
 16 17  1  0
 18 16  1  0
 18 19  2  0
 20 19  1  0
 21 20  2  0
 22 21  1  0
 22 18  1  0
  2 23  1  0
  3 24  1  0
  8 25  1  0
 10 26  1  0
 12 27  1  0
 14 28  1  0
 19 29  1  0
 20 30  1  0
 21 31  1  0
M  ISO  8  23  14  24  14  25  14  26  14  27  14  28  14  29  14  30  14
M  ISO  1  31  14
M  END
>  <minimizedAffinity>  (1) 
-6.5300889

>  <minimizedRMSD>  (1) 
0.338277936

$$$$
