
     RDKit          3D

 33 36  0  0  0  0  0  0  0  0999 V2000
   36.8960   31.3940   48.6060 C   0  0  0  0  0  0  0  0  0  0  0  0
   37.1200   32.1760   49.7160 C   0  0  0  0  0  0  0  0  0  0  0  0
   38.2300   33.0330   49.6670 C   0  0  0  0  0  0  0  0  0  0  0  0
   39.0520   33.1160   48.6140 N   0  0  0  0  0  0  0  0  0  0  0  0
   38.7780   32.3200   47.5520 C   0  0  0  0  0  0  0  0  0  0  0  0
   37.7150   31.4720   47.5500 N   0  0  0  0  0  0  0  0  0  0  0  0
   39.6320   32.3740   46.3990 N   0  0  0  0  0  0  0  0  0  0  0  0
   40.1430   33.3330   45.6210 C   0  0  0  0  0  0  0  0  0  0  0  0
   40.8880   32.7440   44.6760 N   0  0  0  0  0  0  0  0  0  0  0  0
   40.8250   31.4010   44.8900 C   0  0  0  0  0  0  0  0  0  0  0  0
   40.0290   31.1570   45.9820 N   0  0  0  0  0  0  0  0  0  0  0  0
   35.2080   30.0270   49.7010 C   0  0  0  0  0  0  0  0  0  0  0  0
   35.7910   30.4740   48.5320 C   0  0  0  0  0  0  0  0  0  0  0  0
   35.2560   29.9910   47.3420 C   0  0  0  0  0  0  0  0  0  0  0  0
   34.2090   29.1220   47.3850 N   0  0  0  0  0  0  0  0  0  0  0  0
   33.6680   28.7110   48.5480 C   0  0  0  0  0  0  0  0  0  0  0  0
   34.1660   29.1620   49.7110 N   0  0  0  0  0  0  0  0  0  0  0  0
   32.5470   27.7780   48.5050 C   0  0  0  0  0  0  0  0  0  0  0  0
   32.6010   26.6270   47.7470 C   0  0  0  0  0  0  0  0  0  0  0  0
   31.5190   25.7500   47.7200 C   0  0  0  0  0  0  0  0  0  0  0  0
   30.4400   26.1480   48.5020 C   0  0  0  0  0  0  0  0  0  0  0  0
   30.3650   27.2940   49.2670 C   0  0  0  0  0  0  0  0  0  0  0  0
   31.4520   28.1070   49.2510 N   0  0  0  0  0  0  0  0  0  0  0  0
   36.4625   32.1315   50.5967 H   0  0  0  0  0  0  0  0  0  0  0  0
   38.4354   33.6701   50.5399 H   0  0  0  0  0  0  0  0  0  0  0  0
   39.9806   34.4148   45.7362 H   0  0  0  0  0  0  0  0  0  0  0  0
   41.3308   30.6341   44.2850 H   0  0  0  0  0  0  0  0  0  0  0  0
   35.6052   30.3874   50.6614 H   0  0  0  0  0  0  0  0  0  0  0  0
   35.6750   30.3083   46.3757 H   0  0  0  0  0  0  0  0  0  0  0  0
   33.5035   26.4003   47.1605 H   0  0  0  0  0  0  0  0  0  0  0  0
   31.5181   24.8215   47.1302 H   0  0  0  0  0  0  0  0  0  0  0  0
   29.5619   25.4855   48.5116 H   0  0  0  0  0  0  0  0  0  0  0  0
   29.4704   27.5363   49.8594 H   0  0  0  0  0  0  0  0  0  0  0  0
  1  2  2  0
  3  2  1  0
  4  3  2  0
  5  4  1  0
  6  5  2  0
  6  1  1  0
  7  5  1  0
  8  7  1  0
  9 10  1  0
  9  8  2  0
 10 11  2  0
 11  7  1  0
 12 17  2  0
 13  1  1  0
 13 12  1  0
 14 15  1  0
 14 13  2  0
 15 16  2  0
 16 17  1  0
 18 16  1  0
 18 23  1  0
 19 18  2  0
 20 19  1  0
 20 21  2  0
 21 22  1  0
 23 22  2  0
  2 24  1  0
  3 25  1  0
  8 26  1  0
 10 27  1  0
 12 28  1  0
 14 29  1  0
 19 30  1  0
 20 31  1  0
 21 32  1  0
 22 33  1  0
M  ISO  8  24  14  25  14  26  14  27  14  28  14  29  14  30  14  31  14
M  ISO  2  32  14  33  14
M  END
>  <minimizedAffinity>  (1) 
-6.49302959

>  <minimizedRMSD>  (1) 
0.701370239

$$$$
