
     RDKit          3D

 33 35  0  0  0  0  0  0  0  0999 V2000
   36.8100   31.1240   48.5630 C   0  0  0  0  0  0  0  0  0  0  0  0
   36.9890   31.9190   49.6800 C   0  0  0  0  0  0  0  0  0  0  0  0
   38.0630   32.8200   49.6330 C   0  0  0  0  0  0  0  0  0  0  0  0
   38.8980   32.9400   48.5820 N   0  0  0  0  0  0  0  0  0  0  0  0
   38.6700   32.1370   47.5240 C   0  0  0  0  0  0  0  0  0  0  0  0
   37.6430   31.2400   47.5070 N   0  0  0  0  0  0  0  0  0  0  0  0
   39.5250   32.2230   46.3840 N   0  0  0  0  0  0  0  0  0  0  0  0
   40.0040   33.2200   45.6110 C   0  0  0  0  0  0  0  0  0  0  0  0
   40.7820   32.6610   44.6660 N   0  0  0  0  0  0  0  0  0  0  0  0
   40.7700   31.3150   44.8720 C   0  0  0  0  0  0  0  0  0  0  0  0
   39.9760   31.0380   45.9580 N   0  0  0  0  0  0  0  0  0  0  0  0
   35.7520   29.0810   49.3480 C   0  0  0  0  0  0  0  0  0  0  0  0
   35.7440   30.1520   48.4740 C   0  0  0  0  0  0  0  0  0  0  0  0
   34.7050   30.2300   47.5590 C   0  0  0  0  0  0  0  0  0  0  0  0
   33.7520   29.2660   47.5580 N   0  0  0  0  0  0  0  0  0  0  0  0
   33.7840   28.2180   48.4320 C   0  0  0  0  0  0  0  0  0  0  0  0
   34.7960   28.1230   49.3400 N   0  0  0  0  0  0  0  0  0  0  0  0
   32.6970   27.2000   48.3630 C   0  0  0  0  0  0  0  0  0  0  0  0
   31.4400   27.8390   47.7620 C   0  0  0  0  0  0  0  0  0  0  0  0
   33.1060   26.0620   47.4850 C   0  0  0  0  0  0  0  0  0  0  0  0
   36.3269   31.8489   50.5556 H   0  0  0  0  0  0  0  0  0  0  0  0
   38.2339   33.4671   50.5059 H   0  0  0  0  0  0  0  0  0  0  0  0
   39.7964   34.2935   45.7314 H   0  0  0  0  0  0  0  0  0  0  0  0
   41.3086   30.5707   44.2671 H   0  0  0  0  0  0  0  0  0  0  0  0
   36.5692   29.0042   50.0803 H   0  0  0  0  0  0  0  0  0  0  0  0
   34.6548   31.0636   46.8430 H   0  0  0  0  0  0  0  0  0  0  0  0
   32.4978   26.8315   49.3801 H   0  0  0  0  0  0  0  0  0  0  0  0
   30.7768   28.1761   48.5723 H   0  0  0  0  0  0  0  0  0  0  0  0
   31.7276   28.7004   47.1412 H   0  0  0  0  0  0  0  0  0  0  0  0
   30.9135   27.0991   47.1412 H   0  0  0  0  0  0  0  0  0  0  0  0
   33.4124   25.2094   48.1088 H   0  0  0  0  0  0  0  0  0  0  0  0
   32.2581   25.7657   46.8500 H   0  0  0  0  0  0  0  0  0  0  0  0
   33.9485   26.3733   46.8500 H   0  0  0  0  0  0  0  0  0  0  0  0
  1  2  2  0
  3  2  1  0
  4  3  2  0
  5  4  1  0
  6  5  2  0
  6  1  1  0
  7  5  1  0
  8  7  1  0
  9 10  1  0
  9  8  2  0
 10 11  2  0
 11  7  1  0
 13  1  1  0
 13 12  2  0
 14 13  1  0
 15 14  2  0
 15 16  1  0
 16 17  2  0
 17 12  1  0
 18 16  1  0
 19 18  1  0
 20 18  1  0
  2 21  1  0
  3 22  1  0
  8 23  1  0
 10 24  1  0
 12 25  1  0
 14 26  1  0
 18 27  1  0
 19 28  1  0
 19 29  1  0
 19 30  1  0
 20 31  1  0
 20 32  1  0
 20 33  1  0
M  ISO  8  21  14  22  14  23  14  24  14  25  14  26  14  27   8  28   8
M  ISO  5  29   8  30   8  31   8  32   8  33   8
M  END
>  <minimizedAffinity>  (1) 
-6.46417236

>  <minimizedRMSD>  (1) 
0.759419203

$$$$
