
     RDKit          3D

 27 29  0  0  0  0  0  0  0  0999 V2000
   36.7870   31.0990   48.5550 C   0  0  0  0  0  0  0  0  0  0  0  0
   36.9900   31.8810   49.6690 C   0  0  0  0  0  0  0  0  0  0  0  0
   38.0650   32.7670   49.6340 C   0  0  0  0  0  0  0  0  0  0  0  0
   38.8910   32.8850   48.5820 N   0  0  0  0  0  0  0  0  0  0  0  0
   38.6510   32.0980   47.5160 C   0  0  0  0  0  0  0  0  0  0  0  0
   37.6110   31.2190   47.5100 N   0  0  0  0  0  0  0  0  0  0  0  0
   39.5050   32.1890   46.3720 N   0  0  0  0  0  0  0  0  0  0  0  0
   39.9920   33.1830   45.6040 C   0  0  0  0  0  0  0  0  0  0  0  0
   40.7640   32.6190   44.6500 N   0  0  0  0  0  0  0  0  0  0  0  0
   40.7320   31.2800   44.8530 C   0  0  0  0  0  0  0  0  0  0  0  0
   39.9440   31.0020   45.9340 N   0  0  0  0  0  0  0  0  0  0  0  0
   35.7030   29.0630   49.3480 C   0  0  0  0  0  0  0  0  0  0  0  0
   35.7060   30.1390   48.4630 C   0  0  0  0  0  0  0  0  0  0  0  0
   34.6710   30.2350   47.5390 C   0  0  0  0  0  0  0  0  0  0  0  0
   33.7060   29.2740   47.5420 N   0  0  0  0  0  0  0  0  0  0  0  0
   33.7270   28.2420   48.4090 C   0  0  0  0  0  0  0  0  0  0  0  0
   34.7180   28.1320   49.3100 N   0  0  0  0  0  0  0  0  0  0  0  0
   32.6210   27.2500   48.3220 C   0  0  0  0  0  0  0  0  0  0  0  0
   36.3328   31.8098   50.5482 H   0  0  0  0  0  0  0  0  0  0  0  0
   38.2462   33.4024   50.5134 H   0  0  0  0  0  0  0  0  0  0  0  0
   39.7965   34.2580   45.7308 H   0  0  0  0  0  0  0  0  0  0  0  0
   41.2589   30.5322   44.2421 H   0  0  0  0  0  0  0  0  0  0  0  0
   36.5112   28.9674   50.0881 H   0  0  0  0  0  0  0  0  0  0  0  0
   34.6327   31.0683   46.8220 H   0  0  0  0  0  0  0  0  0  0  0  0
   32.3034   26.9651   49.3359 H   0  0  0  0  0  0  0  0  0  0  0  0
   31.7714   27.6944   47.7829 H   0  0  0  0  0  0  0  0  0  0  0  0
   32.9708   26.3572   47.7829 H   0  0  0  0  0  0  0  0  0  0  0  0
  1  2  2  0
  3  2  1  0
  4  3  2  0
  5  4  1  0
  6  5  2  0
  6  1  1  0
  7  5  1  0
  8  7  1  0
  9 10  1  0
  9  8  2  0
 10 11  2  0
 11  7  1  0
 13  1  1  0
 13 12  2  0
 14 15  2  0
 14 13  1  0
 15 16  1  0
 16 17  2  0
 17 12  1  0
 18 16  1  0
  2 19  1  0
  3 20  1  0
  8 21  1  0
 10 22  1  0
 12 23  1  0
 14 24  1  0
 18 25  1  0
 18 26  1  0
 18 27  1  0
M  ISO  8  19  14  20  14  21  14  22  14  23  14  24  14  25   8  26   8
M  ISO  1  27   8
M  END
>  <minimizedAffinity>  (1) 
-6.3355217

>  <minimizedRMSD>  (1) 
0.326836586

$$$$
