
     RDKit          3D

 25 27  0  0  0  0  0  0  0  0999 V2000
   36.7710   31.0920   48.5480 C   0  0  0  0  0  0  0  0  0  0  0  0
   36.9740   31.8570   49.6650 C   0  0  0  0  0  0  0  0  0  0  0  0
   38.0590   32.7450   49.6450 C   0  0  0  0  0  0  0  0  0  0  0  0
   38.8870   32.8660   48.5960 N   0  0  0  0  0  0  0  0  0  0  0  0
   38.6450   32.0890   47.5160 C   0  0  0  0  0  0  0  0  0  0  0  0
   37.6030   31.2160   47.4970 N   0  0  0  0  0  0  0  0  0  0  0  0
   39.5000   32.1860   46.3760 N   0  0  0  0  0  0  0  0  0  0  0  0
   40.0030   33.1720   45.6190 C   0  0  0  0  0  0  0  0  0  0  0  0
   40.7680   32.6140   44.6600 N   0  0  0  0  0  0  0  0  0  0  0  0
   40.7220   31.2740   44.8450 C   0  0  0  0  0  0  0  0  0  0  0  0
   39.9270   31.0080   45.9220 N   0  0  0  0  0  0  0  0  0  0  0  0
   35.6690   29.0630   49.3110 C   0  0  0  0  0  0  0  0  0  0  0  0
   35.6920   30.1420   48.4400 C   0  0  0  0  0  0  0  0  0  0  0  0
   34.6580   30.2370   47.5090 C   0  0  0  0  0  0  0  0  0  0  0  0
   33.6930   29.2860   47.4970 N   0  0  0  0  0  0  0  0  0  0  0  0
   33.7080   28.2400   48.3720 C   0  0  0  0  0  0  0  0  0  0  0  0
   34.6950   28.1150   49.2900 N   0  0  0  0  0  0  0  0  0  0  0  0
   32.3250   27.1140   48.1600 S   0  0  0  0  0  0  0  0  0  0  0  0
   36.3138   31.7784   50.5413 H   0  0  0  0  0  0  0  0  0  0  0  0
   38.2399   33.3718   50.5307 H   0  0  0  0  0  0  0  0  0  0  0  0
   39.8227   34.2483   45.7567 H   0  0  0  0  0  0  0  0  0  0  0  0
   41.2396   30.5237   44.2293 H   0  0  0  0  0  0  0  0  0  0  0  0
   36.4759   28.9701   50.0528 H   0  0  0  0  0  0  0  0  0  0  0  0
   34.6263   31.0725   46.7942 H   0  0  0  0  0  0  0  0  0  0  0  0
   31.8551   26.7314   49.3887 H   0  0  0  0  0  0  0  0  0  0  0  0
  1  2  2  0
  3  2  1  0
  4  3  2  0
  5  4  1  0
  6  5  2  0
  6  1  1  0
  7  5  1  0
  8  7  1  0
  9 10  1  0
  9  8  2  0
 10 11  2  0
 11  7  1  0
 13  1  1  0
 13 12  2  0
 14 13  1  0
 15 14  2  0
 15 16  1  0
 16 17  2  0
 17 12  1  0
 18 16  1  0
  2 19  1  0
  3 20  1  0
  8 21  1  0
 10 22  1  0
 12 23  1  0
 14 24  1  0
 18 25  1  0
M  ISO  7  19  14  20  14  21  14  22  14  23  14  24  14  25  11
M  END
>  <minimizedAffinity>  (1) 
-6.22785997

>  <minimizedRMSD>  (1) 
0.356648654

$$$$
