
     RDKit          3D

 26 28  0  0  0  0  0  0  0  0999 V2000
   36.7760   31.0930   48.5490 C   0  0  0  0  0  0  0  0  0  0  0  0
   36.9840   31.8600   49.6720 C   0  0  0  0  0  0  0  0  0  0  0  0
   38.0690   32.7400   49.6390 C   0  0  0  0  0  0  0  0  0  0  0  0
   38.8940   32.8610   48.5880 N   0  0  0  0  0  0  0  0  0  0  0  0
   38.6480   32.0850   47.5070 C   0  0  0  0  0  0  0  0  0  0  0  0
   37.5970   31.2050   47.4850 N   0  0  0  0  0  0  0  0  0  0  0  0
   39.4990   32.1850   46.3740 N   0  0  0  0  0  0  0  0  0  0  0  0
   40.0040   33.1740   45.6330 C   0  0  0  0  0  0  0  0  0  0  0  0
   40.7660   32.6180   44.6660 N   0  0  0  0  0  0  0  0  0  0  0  0
   40.7120   31.2570   44.8410 C   0  0  0  0  0  0  0  0  0  0  0  0
   39.9170   30.9920   45.9120 N   0  0  0  0  0  0  0  0  0  0  0  0
   35.6580   29.0740   49.3180 C   0  0  0  0  0  0  0  0  0  0  0  0
   35.6920   30.1480   48.4530 C   0  0  0  0  0  0  0  0  0  0  0  0
   34.6530   30.2540   47.5200 C   0  0  0  0  0  0  0  0  0  0  0  0
   33.6840   29.3020   47.5240 N   0  0  0  0  0  0  0  0  0  0  0  0
   33.6880   28.2680   48.3870 C   0  0  0  0  0  0  0  0  0  0  0  0
   34.6740   28.1470   49.2890 N   0  0  0  0  0  0  0  0  0  0  0  0
   32.6400   27.2820   48.3550 C   0  0  0  0  0  0  0  0  0  0  0  0
   31.4780   27.4730   48.7760 O   0  0  0  0  0  0  0  0  0  0  0  0
   36.3287   31.7843   50.5523 H   0  0  0  0  0  0  0  0  0  0  0  0
   38.2568   33.3675   50.5227 H   0  0  0  0  0  0  0  0  0  0  0  0
   39.8305   34.2498   45.7831 H   0  0  0  0  0  0  0  0  0  0  0  0
   41.2250   30.5079   44.2199 H   0  0  0  0  0  0  0  0  0  0  0  0
   36.4628   28.9675   50.0603 H   0  0  0  0  0  0  0  0  0  0  0  0
   34.6223   31.0870   46.8022 H   0  0  0  0  0  0  0  0  0  0  0  0
   32.8769   26.2946   47.9320 H   0  0  0  0  0  0  0  0  0  0  0  0
  1  2  2  0
  3  2  1  0
  4  3  2  0
  5  4  1  0
  6  5  2  0
  6  1  1  0
  7  5  1  0
  8  7  1  0
  9 10  1  0
  9  8  2  0
 10 11  2  0
 11  7  1  0
 13  1  1  0
 13 12  2  0
 14 15  2  0
 14 13  1  0
 15 16  1  0
 16 17  2  0
 17 12  1  0
 18 16  1  0
 18 19  2  0
  2 20  1  0
  3 21  1  0
  8 22  1  0
 10 23  1  0
 12 24  1  0
 14 25  1  0
 18 26  1  0
M  ISO  7  20  14  21  14  22  14  23  14  24  14  25  14  26   6
M  END
>  <minimizedAffinity>  (1) 
-6.16167879

>  <minimizedRMSD>  (1) 
0.503767431

$$$$
