
     RDKit          3D

 29 31  0  0  0  0  0  0  0  0999 V2000
   36.6390   29.0330   49.9840 C   0  0  0  0  0  0  0  0  0  0  0  0
   37.5470   30.0840   49.7870 C   0  0  0  0  0  0  0  0  0  0  0  0
   37.2410   31.0200   48.7890 C   0  0  0  0  0  0  0  0  0  0  0  0
   36.0880   30.8350   48.0920 N   0  0  0  0  0  0  0  0  0  0  0  0
   35.2370   29.8160   48.3050 C   0  0  0  0  0  0  0  0  0  0  0  0
   35.5210   28.9100   49.2610 N   0  0  0  0  0  0  0  0  0  0  0  0
   38.0900   32.1340   48.4900 N   0  0  0  0  0  0  0  0  0  0  0  0
   38.0870   33.3000   49.3820 C   0  0  0  0  0  0  0  0  0  0  0  0
   39.3920   34.0330   49.2350 C   0  0  0  0  0  0  0  0  0  0  0  0
   39.7580   34.2670   47.8580 N   0  0  0  0  0  0  0  0  0  0  0  0
   39.7820   33.1520   46.9940 C   0  0  0  0  0  0  0  0  0  0  0  0
   38.9070   32.0120   47.2980 C   0  0  0  0  0  0  0  0  0  0  0  0
   38.7990   30.7900   46.5000 C   0  0  0  0  0  0  0  0  0  0  0  0
   38.2190   30.6990   45.1610 C   0  0  0  0  0  0  0  0  0  0  0  0
   39.7720   30.6580   45.3460 C   0  0  0  0  0  0  0  0  0  0  0  0
   36.8543   28.2840   50.7603 H   0  0  0  0  0  0  0  0  0  0  0  0
   38.4622   30.1703   50.3912 H   0  0  0  0  0  0  0  0  0  0  0  0
   34.3194   29.7231   47.7056 H   0  0  0  0  0  0  0  0  0  0  0  0
   37.2562   33.9685   49.1121 H   0  0  0  0  0  0  0  0  0  0  0  0
   37.9616   32.9702   50.4239 H   0  0  0  0  0  0  0  0  0  0  0  0
   39.3075   35.0041   49.7447 H   0  0  0  0  0  0  0  0  0  0  0  0
   40.1750   33.4013   49.6798 H   0  0  0  0  0  0  0  0  0  0  0  0
   39.9924   35.2112   47.5197 H   0  0  0  0  0  0  0  0  0  0  0  0
   40.4407   33.1367   46.1131 H   0  0  0  0  0  0  0  0  0  0  0  0
   38.5411   30.2361   47.4147 H   0  0  0  0  0  0  0  0  0  0  0  0
   37.7422   31.5802   44.7070 H   0  0  0  0  0  0  0  0  0  0  0  0
   37.4756   30.0480   44.6778 H   0  0  0  0  0  0  0  0  0  0  0  0
   40.3292   29.7227   45.1888 H   0  0  0  0  0  0  0  0  0  0  0  0
   40.6353   31.2219   44.9631 H   0  0  0  0  0  0  0  0  0  0  0  0
  2  1  2  0
  3  2  1  0
  4  5  1  0
  4  3  2  0
  5  6  2  0
  6  1  1  0
  7  3  1  0
  7  8  1  0
  9  8  1  0
 10  9  1  0
 11 12  2  0
 11 10  1  0
 12  7  1  0
 13 12  1  0
 14 15  1  0
 14 13  1  0
 15 13  1  0
  1 16  1  0
  2 17  1  0
  5 18  1  0
  8 19  1  0
  8 20  1  0
  9 21  1  0
  9 22  1  0
 10 23  1  0
 11 24  1  0
 13 25  1  0
 14 26  1  0
 14 27  1  0
 15 28  1  0
 15 29  1  0
M  ISO  8  16  14  17  14  18  14  19  13  20  13  21  13  22  13  24  13
M  ISO  5  25  13  26  13  27  13  28  13  29  13
M  END
>  <minimizedAffinity>  (1) 
-5.5674386

>  <minimizedRMSD>  (1) 
1.6761663

$$$$
