
     RDKit          3D

 31 32  0  0  0  0  0  0  0  0999 V2000
   36.9520   29.0680   50.0730 C   0  0  0  0  0  0  0  0  0  0  0  0
   37.8320   30.1530   49.8630 C   0  0  0  0  0  0  0  0  0  0  0  0
   37.4520   31.1220   48.8990 C   0  0  0  0  0  0  0  0  0  0  0  0
   36.2670   30.9080   48.2670 N   0  0  0  0  0  0  0  0  0  0  0  0
   35.4540   29.8810   48.4800 C   0  0  0  0  0  0  0  0  0  0  0  0
   35.7900   28.9540   49.3840 N   0  0  0  0  0  0  0  0  0  0  0  0
   38.2400   32.2510   48.5700 N   0  0  0  0  0  0  0  0  0  0  0  0
   38.2580   33.3820   49.4950 C   0  0  0  0  0  0  0  0  0  0  0  0
   39.5270   34.1630   49.3320 C   0  0  0  0  0  0  0  0  0  0  0  0
   39.8030   34.4730   47.9580 N   0  0  0  0  0  0  0  0  0  0  0  0
   39.8070   33.3970   47.0500 C   0  0  0  0  0  0  0  0  0  0  0  0
   38.9790   32.1990   47.3420 C   0  0  0  0  0  0  0  0  0  0  0  0
   38.9830   31.1000   46.3930 C   0  0  0  0  0  0  0  0  0  0  0  0
   40.2890   30.8200   45.7040 C   0  0  0  0  0  0  0  0  0  0  0  0
   37.8780   31.1390   45.3510 C   0  0  0  0  0  0  0  0  0  0  0  0
   37.2157   28.2978   50.8127 H   0  0  0  0  0  0  0  0  0  0  0  0
   38.7738   30.2429   50.4242 H   0  0  0  0  0  0  0  0  0  0  0  0
   34.5124   29.7928   47.9183 H   0  0  0  0  0  0  0  0  0  0  0  0
   37.3990   34.0364   49.2857 H   0  0  0  0  0  0  0  0  0  0  0  0
   38.1990   33.0037   50.5262 H   0  0  0  0  0  0  0  0  0  0  0  0
   39.4386   35.1033   49.8959 H   0  0  0  0  0  0  0  0  0  0  0  0
   40.3540   33.5441   49.7101 H   0  0  0  0  0  0  0  0  0  0  0  0
   39.9895   35.4382   47.6504 H   0  0  0  0  0  0  0  0  0  0  0  0
   40.4161   33.4430   46.1352 H   0  0  0  0  0  0  0  0  0  0  0  0
   38.7882   30.2641   47.0810 H   0  0  0  0  0  0  0  0  0  0  0  0
   41.0725   30.6520   46.4576 H   0  0  0  0  0  0  0  0  0  0  0  0
   40.1869   29.9233   45.0751 H   0  0  0  0  0  0  0  0  0  0  0  0
   40.5635   31.6797   45.0751 H   0  0  0  0  0  0  0  0  0  0  0  0
   36.9005   31.1735   45.8543 H   0  0  0  0  0  0  0  0  0  0  0  0
   37.9984   32.0335   44.7222 H   0  0  0  0  0  0  0  0  0  0  0  0
   37.9351   30.2383   44.7222 H   0  0  0  0  0  0  0  0  0  0  0  0
  2  1  2  0
  3  2  1  0
  4  5  1  0
  4  3  2  0
  5  6  2  0
  6  1  1  0
  7  3  1  0
  7  8  1  0
  9  8  1  0
 10  9  1  0
 11 12  2  0
 11 10  1  0
 12  7  1  0
 13 12  1  0
 14 13  1  0
 15 13  1  0
  1 16  1  0
  2 17  1  0
  5 18  1  0
  8 19  1  0
  8 20  1  0
  9 21  1  0
  9 22  1  0
 10 23  1  0
 11 24  1  0
 13 25  1  0
 14 26  1  0
 14 27  1  0
 14 28  1  0
 15 29  1  0
 15 30  1  0
 15 31  1  0
M  ISO  8  16  14  17  14  18  14  19  13  20  13  21  13  22  13  24  13
M  ISO  7  25   8  26   8  27   8  28   8  29   8  30   8  31   8
M  END
>  <minimizedAffinity>  (1) 
-5.43029642

>  <minimizedRMSD>  (1) 
1.25022542

$$$$
