
     RDKit          3D

 29 31  0  0  0  0  0  0  0  0999 V2000
   36.8010   29.0090   49.8200 C   0  0  0  0  0  0  0  0  0  0  0  0
   37.7160   30.0710   49.6380 C   0  0  0  0  0  0  0  0  0  0  0  0
   37.3050   31.1490   48.7980 C   0  0  0  0  0  0  0  0  0  0  0  0
   36.0430   31.0850   48.2220 N   0  0  0  0  0  0  0  0  0  0  0  0
   35.2240   30.0350   48.4450 C   0  0  0  0  0  0  0  0  0  0  0  0
   35.5880   29.0140   49.2260 N   0  0  0  0  0  0  0  0  0  0  0  0
   38.1390   32.2650   48.5450 N   0  0  0  0  0  0  0  0  0  0  0  0
   38.2580   33.2950   49.6120 C   0  0  0  0  0  0  0  0  0  0  0  0
   39.5280   34.0570   49.4320 C   0  0  0  0  0  0  0  0  0  0  0  0
   39.7440   34.4860   48.0750 N   0  0  0  0  0  0  0  0  0  0  0  0
   39.6440   33.5010   47.0710 C   0  0  0  0  0  0  0  0  0  0  0  0
   38.8000   32.3200   47.3000 C   0  0  0  0  0  0  0  0  0  0  0  0
   38.7830   31.4040   46.2270 C   0  0  0  0  0  0  0  0  0  0  0  0
   39.7600   30.6230   45.6600 C   0  0  0  0  0  0  0  0  0  0  0  0
   39.2860   29.8460   44.6410 N   0  0  0  0  0  0  0  0  0  0  0  0
   37.9580   30.1450   44.5550 C   0  0  0  0  0  0  0  0  0  0  0  0
   37.7110   31.0540   45.4950 N   0  0  0  0  0  0  0  0  0  0  0  0
   37.0831   28.1597   50.4596 H   0  0  0  0  0  0  0  0  0  0  0  0
   38.7031   30.0667   50.1233 H   0  0  0  0  0  0  0  0  0  0  0  0
   34.2313   30.0198   47.9714 H   0  0  0  0  0  0  0  0  0  0  0  0
   37.4044   33.9861   49.5506 H   0  0  0  0  0  0  0  0  0  0  0  0
   38.2632   32.8031   50.5959 H   0  0  0  0  0  0  0  0  0  0  0  0
   39.4971   34.9460   50.0791 H   0  0  0  0  0  0  0  0  0  0  0  0
   40.3549   33.3818   49.6971 H   0  0  0  0  0  0  0  0  0  0  0  0
   39.9615   35.4668   47.8480 H   0  0  0  0  0  0  0  0  0  0  0  0
   40.1929   33.6156   46.1247 H   0  0  0  0  0  0  0  0  0  0  0  0
   40.8093   30.6230   45.9901 H   0  0  0  0  0  0  0  0  0  0  0  0
   37.2327   29.7180   43.8468 H   0  0  0  0  0  0  0  0  0  0  0  0
   36.7754   31.4564   45.6491 H   0  0  0  0  0  0  0  0  0  0  0  0
  2  1  2  0
  3  2  1  0
  4  5  1  0
  4  3  2  0
  5  6  2  0
  6  1  1  0
  7  3  1  0
  7  8  1  0
  9  8  1  0
 10  9  1  0
 11 12  2  0
 11 10  1  0
 12  7  1  0
 13 12  1  0
 14 13  2  0
 15 14  1  0
 16 15  2  0
 16 17  1  0
 17 13  1  0
  1 18  1  0
  2 19  1  0
  5 20  1  0
  8 21  1  0
  8 22  1  0
  9 23  1  0
  9 24  1  0
 10 25  1  0
 11 26  1  0
 14 27  1  0
 16 28  1  0
 17 29  1  0
M  ISO  8  18  14  19  14  20  14  21  13  22  13  23  13  24  13  26  13
M  ISO  3  27  14  28  14  29   9
M  END
>  <minimizedAffinity>  (1) 
-5.19137812

>  <minimizedRMSD>  (1) 
1.486166

$$$$
