
     RDKit          3D

 25 26  0  0  0  0  0  0  0  0999 V2000
   37.0060   29.1540   49.7580 C   0  0  0  0  0  0  0  0  0  0  0  0
   37.9080   30.2320   49.6030 C   0  0  0  0  0  0  0  0  0  0  0  0
   37.5220   31.2240   48.6620 C   0  0  0  0  0  0  0  0  0  0  0  0
   36.3380   31.0480   48.0080 N   0  0  0  0  0  0  0  0  0  0  0  0
   35.5220   30.0120   48.1900 C   0  0  0  0  0  0  0  0  0  0  0  0
   35.8620   29.0550   49.0760 N   0  0  0  0  0  0  0  0  0  0  0  0
   38.3380   32.3700   48.3960 N   0  0  0  0  0  0  0  0  0  0  0  0
   38.3700   33.4650   49.3580 C   0  0  0  0  0  0  0  0  0  0  0  0
   39.6570   34.2330   49.1870 C   0  0  0  0  0  0  0  0  0  0  0  0
   39.9410   34.5650   47.8180 N   0  0  0  0  0  0  0  0  0  0  0  0
   39.9250   33.5100   46.8840 C   0  0  0  0  0  0  0  0  0  0  0  0
   39.0830   32.3370   47.1580 C   0  0  0  0  0  0  0  0  0  0  0  0
   39.0400   31.2600   46.2320 C   0  0  0  0  0  0  0  0  0  0  0  0
   38.0750   31.0790   45.4660 O   0  0  0  0  0  0  0  0  0  0  0  0
   40.1030   30.3910   46.1850 O   0  0  0  0  0  0  0  0  0  0  0  0
   37.2587   28.3588   50.4747 H   0  0  0  0  0  0  0  0  0  0  0  0
   38.8463   30.2981   50.1732 H   0  0  0  0  0  0  0  0  0  0  0  0
   34.5816   29.9379   47.6241 H   0  0  0  0  0  0  0  0  0  0  0  0
   37.5151   34.1347   49.1828 H   0  0  0  0  0  0  0  0  0  0  0  0
   38.3107   33.0629   50.3802 H   0  0  0  0  0  0  0  0  0  0  0  0
   39.5868   35.1659   49.7656 H   0  0  0  0  0  0  0  0  0  0  0  0
   40.4729   33.5865   49.5424 H   0  0  0  0  0  0  0  0  0  0  0  0
   40.1474   35.5326   47.5317 H   0  0  0  0  0  0  0  0  0  0  0  0
   40.5310   33.5634   45.9675 H   0  0  0  0  0  0  0  0  0  0  0  0
   40.0952   29.6333   45.5478 H   0  0  0  0  0  0  0  0  0  0  0  0
  2  1  2  0
  3  2  1  0
  4  5  1  0
  4  3  2  0
  5  6  2  0
  6  1  1  0
  7  3  1  0
  7  8  1  0
  9  8  1  0
 10  9  1  0
 11 12  2  0
 11 10  1  0
 12  7  1  0
 13 12  1  0
 14 13  2  0
 15 13  1  0
  1 16  1  0
  2 17  1  0
  5 18  1  0
  8 19  1  0
  8 20  1  0
  9 21  1  0
  9 22  1  0
 10 23  1  0
 11 24  1  0
 15 25  1  0
M  ISO  8  16  14  17  14  18  14  19  13  20  13  21  13  22  13  24  13
M  ISO  1  25   3
M  END
>  <minimizedAffinity>  (1) 
-5.15175581

>  <minimizedRMSD>  (1) 
1.50267661

$$$$
