
     RDKit          3D

 24 25  0  0  0  0  0  0  0  0999 V2000
   36.9560   29.1200   50.1440 C   0  0  0  0  0  0  0  0  0  0  0  0
   37.8030   30.1950   49.8530 C   0  0  0  0  0  0  0  0  0  0  0  0
   37.4510   31.0970   48.8130 C   0  0  0  0  0  0  0  0  0  0  0  0
   36.2820   30.8380   48.1630 N   0  0  0  0  0  0  0  0  0  0  0  0
   35.4850   29.8070   48.4540 C   0  0  0  0  0  0  0  0  0  0  0  0
   35.8210   28.9460   49.4460 N   0  0  0  0  0  0  0  0  0  0  0  0
   38.2580   32.2070   48.4610 N   0  0  0  0  0  0  0  0  0  0  0  0
   38.2550   33.4010   49.3170 C   0  0  0  0  0  0  0  0  0  0  0  0
   39.5480   34.1470   49.1330 C   0  0  0  0  0  0  0  0  0  0  0  0
   39.8660   34.3590   47.7380 N   0  0  0  0  0  0  0  0  0  0  0  0
   39.8770   33.2210   46.9020 C   0  0  0  0  0  0  0  0  0  0  0  0
   39.0350   32.0810   47.2680 C   0  0  0  0  0  0  0  0  0  0  0  0
   39.0340   30.9200   46.4290 C   0  0  0  0  0  0  0  0  0  0  0  0
   39.9840   30.6820   45.6400 O   0  0  0  0  0  0  0  0  0  0  0  0
   37.2199   28.4154   50.9464 H   0  0  0  0  0  0  0  0  0  0  0  0
   38.7321   30.3404   50.4236 H   0  0  0  0  0  0  0  0  0  0  0  0
   34.5541   29.6559   47.8879 H   0  0  0  0  0  0  0  0  0  0  0  0
   37.4127   34.0511   49.0381 H   0  0  0  0  0  0  0  0  0  0  0  0
   38.1496   33.0998   50.3697 H   0  0  0  0  0  0  0  0  0  0  0  0
   39.4658   35.1251   49.6296 H   0  0  0  0  0  0  0  0  0  0  0  0
   40.3525   33.5393   49.5728 H   0  0  0  0  0  0  0  0  0  0  0  0
   40.0751   35.2983   47.3707 H   0  0  0  0  0  0  0  0  0  0  0  0
   40.5030   33.1920   45.9979 H   0  0  0  0  0  0  0  0  0  0  0  0
   38.1849   30.2223   46.4758 H   0  0  0  0  0  0  0  0  0  0  0  0
  2  1  2  0
  3  2  1  0
  4  5  1  0
  4  3  2  0
  5  6  2  0
  6  1  1  0
  7  3  1  0
  7  8  1  0
  9  8  1  0
 10  9  1  0
 11 12  2  0
 11 10  1  0
 12  7  1  0
 13 12  1  0
 14 13  2  0
  1 15  1  0
  2 16  1  0
  5 17  1  0
  8 18  1  0
  8 19  1  0
  9 20  1  0
  9 21  1  0
 10 22  1  0
 11 23  1  0
 13 24  1  0
M  ISO  8  15  14  16  14  17  14  18  13  19  13  20  13  21  13  23  13
M  ISO  1  24   6
M  END
>  <minimizedAffinity>  (1) 
-5.14681911

>  <minimizedRMSD>  (1) 
1.3732965

$$$$
