
     RDKit          3D

 29 31  0  0  0  0  0  0  0  0999 V2000
   37.0380   29.0730   49.9750 C   0  0  0  0  0  0  0  0  0  0  0  0
   37.9190   30.1530   49.7460 C   0  0  0  0  0  0  0  0  0  0  0  0
   37.4500   31.2190   48.9210 C   0  0  0  0  0  0  0  0  0  0  0  0
   36.1670   31.1160   48.4070 N   0  0  0  0  0  0  0  0  0  0  0  0
   35.3780   30.0670   48.6580 C   0  0  0  0  0  0  0  0  0  0  0  0
   35.7950   29.0520   49.4310 N   0  0  0  0  0  0  0  0  0  0  0  0
   38.2570   32.3460   48.6230 N   0  0  0  0  0  0  0  0  0  0  0  0
   38.4200   33.3830   49.6710 C   0  0  0  0  0  0  0  0  0  0  0  0
   39.6740   34.1510   49.4410 C   0  0  0  0  0  0  0  0  0  0  0  0
   39.8140   34.5830   48.0570 N   0  0  0  0  0  0  0  0  0  0  0  0
   39.6700   33.5770   47.0580 C   0  0  0  0  0  0  0  0  0  0  0  0
   38.8560   32.4020   47.3440 C   0  0  0  0  0  0  0  0  0  0  0  0
   38.8060   31.5140   46.2950 N   0  0  0  0  0  0  0  0  0  0  0  0
   37.8330   31.4310   45.3770 C   0  0  0  0  0  0  0  0  0  0  0  0
   38.0530   30.4760   44.4170 C   0  0  0  0  0  0  0  0  0  0  0  0
   39.2530   29.9120   44.7530 N   0  0  0  0  0  0  0  0  0  0  0  0
   39.6570   30.5700   45.8810 C   0  0  0  0  0  0  0  0  0  0  0  0
   37.3655   28.2335   50.6059 H   0  0  0  0  0  0  0  0  0  0  0  0
   38.9269   30.1718   50.1862 H   0  0  0  0  0  0  0  0  0  0  0  0
   34.3681   30.0348   48.2231 H   0  0  0  0  0  0  0  0  0  0  0  0
   37.5617   34.0702   49.6393 H   0  0  0  0  0  0  0  0  0  0  0  0
   38.4727   32.8946   50.6552 H   0  0  0  0  0  0  0  0  0  0  0  0
   39.6683   35.0394   50.0896 H   0  0  0  0  0  0  0  0  0  0  0  0
   40.5208   33.4883   49.6730 H   0  0  0  0  0  0  0  0  0  0  0  0
   40.0071   35.5649   47.8130 H   0  0  0  0  0  0  0  0  0  0  0  0
   40.1671   33.6858   46.0828 H   0  0  0  0  0  0  0  0  0  0  0  0
   36.9385   32.0710   45.3920 H   0  0  0  0  0  0  0  0  0  0  0  0
   37.4066   30.2201   43.5646 H   0  0  0  0  0  0  0  0  0  0  0  0
   40.5989   30.3428   46.4018 H   0  0  0  0  0  0  0  0  0  0  0  0
  2  1  2  0
  3  2  1  0
  4  5  1  0
  4  3  2  0
  5  6  2  0
  6  1  1  0
  7  3  1  0
  7  8  1  0
  9  8  1  0
 10  9  1  0
 11 12  2  0
 11 10  1  0
 12  7  1  0
 13 12  1  0
 14 13  1  0
 15 16  1  0
 15 14  2  0
 16 17  2  0
 17 13  1  0
  1 18  1  0
  2 19  1  0
  5 20  1  0
  8 21  1  0
  8 22  1  0
  9 23  1  0
  9 24  1  0
 10 25  1  0
 11 26  1  0
 14 27  1  0
 15 28  1  0
 17 29  1  0
M  ISO  8  18  14  19  14  20  14  21  13  22  13  23  13  24  13  26  13
M  ISO  3  27  14  28  14  29  14
M  END
>  <minimizedAffinity>  (1) 
-5.1059823

>  <minimizedRMSD>  (1) 
1.4899056

$$$$
