
     RDKit          3D

 24 26  0  0  0  0  0  0  0  0999 V2000
   35.8670   30.1580   48.7680 C   0  0  0  0  0  0  0  0  0  0  0  0
   36.0070   29.0700   49.6110 C   0  0  0  0  0  0  0  0  0  0  0  0
   34.8960   28.2580   49.4660 C   0  0  0  0  0  0  0  0  0  0  0  0
   34.1180   28.8740   48.5390 N   0  0  0  0  0  0  0  0  0  0  0  0
   34.6930   29.9770   48.1420 N   0  0  0  0  0  0  0  0  0  0  0  0
   38.0370   33.0940   49.4470 C   0  0  0  0  0  0  0  0  0  0  0  0
   38.9190   33.0200   48.3650 C   0  0  0  0  0  0  0  0  0  0  0  0
   38.7510   31.9880   47.4520 C   0  0  0  0  0  0  0  0  0  0  0  0
   37.7340   31.1050   47.6630 N   0  0  0  0  0  0  0  0  0  0  0  0
   36.8950   31.1920   48.7080 C   0  0  0  0  0  0  0  0  0  0  0  0
   37.0370   32.1880   49.6120 N   0  0  0  0  0  0  0  0  0  0  0  0
   32.8870   28.4140   48.0730 C   0  0  0  0  0  0  0  0  0  0  0  0
   31.9300   27.6270   48.5950 C   0  0  0  0  0  0  0  0  0  0  0  0
   30.7960   27.3190   47.9210 C   0  0  0  0  0  0  0  0  0  0  0  0
   30.6970   27.9030   46.6010 C   0  0  0  0  0  0  0  0  0  0  0  0
   32.2950   28.8830   46.4180 S   0  0  0  0  0  0  0  0  0  0  0  0
   36.8575   28.8822   50.2828 H   0  0  0  0  0  0  0  0  0  0  0  0
   34.6873   27.3138   49.9904 H   0  0  0  0  0  0  0  0  0  0  0  0
   38.1548   33.9040   50.1819 H   0  0  0  0  0  0  0  0  0  0  0  0
   39.7240   33.7592   48.2405 H   0  0  0  0  0  0  0  0  0  0  0  0
   39.4188   31.8857   46.5839 H   0  0  0  0  0  0  0  0  0  0  0  0
   32.0731   27.2183   49.6062 H   0  0  0  0  0  0  0  0  0  0  0  0
   30.0113   26.6748   48.3445 H   0  0  0  0  0  0  0  0  0  0  0  0
   29.8786   27.7989   45.8734 H   0  0  0  0  0  0  0  0  0  0  0  0
  1  2  1  0
  3  2  2  0
  4  3  1  0
  5  4  1  0
  5  1  2  0
  6 11  2  0
  7  6  1  0
  8  9  1  0
  8  7  2  0
  9 10  2  0
 10  1  1  0
 10 11  1  0
 12  4  1  0
 12 13  2  0
 14 13  1  0
 15 14  2  0
 16 15  1  0
 16 12  1  0
  2 17  1  0
  3 18  1  0
  6 19  1  0
  7 20  1  0
  8 21  1  0
 13 22  1  0
 14 23  1  0
 15 24  1  0
M  ISO  8  17  14  18  14  19  14  20  14  21  14  22  14  23  14  24  14
M  END
>  <minimizedAffinity>  (1) 
-4.82629395

>  <minimizedRMSD>  (1) 
0.709646344

$$$$
