
     RDKit          3D

 31 33  0  0  0  0  0  0  0  0999 V2000
   37.0520   29.1210   49.8330 C   0  0  0  0  0  0  0  0  0  0  0  0
   37.9430   30.1800   49.5700 C   0  0  0  0  0  0  0  0  0  0  0  0
   37.4970   31.2330   48.7100 C   0  0  0  0  0  0  0  0  0  0  0  0
   36.2160   31.1060   48.2140 N   0  0  0  0  0  0  0  0  0  0  0  0
   35.4070   30.0850   48.4870 C   0  0  0  0  0  0  0  0  0  0  0  0
   35.8110   29.0990   49.2870 N   0  0  0  0  0  0  0  0  0  0  0  0
   38.3170   32.3320   48.3910 N   0  0  0  0  0  0  0  0  0  0  0  0
   38.4970   33.3900   49.4130 C   0  0  0  0  0  0  0  0  0  0  0  0
   39.7570   34.1310   49.1770 C   0  0  0  0  0  0  0  0  0  0  0  0
   39.9010   34.5290   47.7720 N   0  0  0  0  0  0  0  0  0  0  0  0
   39.7370   33.5020   46.8010 C   0  0  0  0  0  0  0  0  0  0  0  0
   38.9080   32.3460   47.1170 C   0  0  0  0  0  0  0  0  0  0  0  0
   38.8450   31.4420   46.0850 N   0  0  0  0  0  0  0  0  0  0  0  0
   37.7450   31.1100   45.3860 C   0  0  0  0  0  0  0  0  0  0  0  0
   37.9950   30.1760   44.3980 C   0  0  0  0  0  0  0  0  0  0  0  0
   39.3350   29.9010   44.4790 N   0  0  0  0  0  0  0  0  0  0  0  0
   39.8000   30.6870   45.5070 C   0  0  0  0  0  0  0  0  0  0  0  0
   41.1720   30.7250   45.9530 N   0  0  0  0  0  0  0  0  0  0  0  0
   37.3681   28.2988   50.4918 H   0  0  0  0  0  0  0  0  0  0  0  0
   38.9502   30.1969   50.0120 H   0  0  0  0  0  0  0  0  0  0  0  0
   34.3983   30.0550   48.0493 H   0  0  0  0  0  0  0  0  0  0  0  0
   37.6503   34.0904   49.3618 H   0  0  0  0  0  0  0  0  0  0  0  0
   38.5416   32.9204   50.4067 H   0  0  0  0  0  0  0  0  0  0  0  0
   39.7618   35.0341   49.8050 H   0  0  0  0  0  0  0  0  0  0  0  0
   40.5964   33.4673   49.4318 H   0  0  0  0  0  0  0  0  0  0  0  0
   40.1099   35.5010   47.5028 H   0  0  0  0  0  0  0  0  0  0  0  0
   40.2312   33.5799   45.8213 H   0  0  0  0  0  0  0  0  0  0  0  0
   36.7501   31.5371   45.5802 H   0  0  0  0  0  0  0  0  0  0  0  0
   37.2693   29.7436   43.6935 H   0  0  0  0  0  0  0  0  0  0  0  0
   41.4434   31.3417   46.7321 H   0  0  0  0  0  0  0  0  0  0  0  0
   41.8798   30.1355   45.4922 H   0  0  0  0  0  0  0  0  0  0  0  0
  2  1  2  0
  3  2  1  0
  4  5  1  0
  4  3  2  0
  5  6  2  0
  6  1  1  0
  7  3  1  0
  7  8  1  0
  9  8  1  0
 10  9  1  0
 11 12  2  0
 11 10  1  0
 12  7  1  0
 13 12  1  0
 14 13  1  0
 15 16  1  0
 15 14  2  0
 16 17  2  0
 17 18  1  0
 17 13  1  0
  1 19  1  0
  2 20  1  0
  5 21  1  0
  8 22  1  0
  8 23  1  0
  9 24  1  0
  9 25  1  0
 10 26  1  0
 11 27  1  0
 14 28  1  0
 15 29  1  0
 18 30  1  0
 18 31  1  0
M  ISO  8  19  14  20  14  21  14  22  13  23  13  24  13  25  13  27  13
M  ISO  2  28  14  29  14
M  END
>  <minimizedAffinity>  (1) 
-5.86340046

>  <minimizedRMSD>  (1) 
0.318773538

$$$$
