
     RDKit          3D

 32 34  0  0  0  0  0  0  0  0999 V2000
   36.9830   28.9800   50.0810 C   0  0  0  0  0  0  0  0  0  0  0  0
   37.8580   30.0520   49.8120 C   0  0  0  0  0  0  0  0  0  0  0  0
   37.3530   31.1540   49.0530 C   0  0  0  0  0  0  0  0  0  0  0  0
   36.0290   31.0770   48.6400 N   0  0  0  0  0  0  0  0  0  0  0  0
   35.2490   30.0290   48.9290 C   0  0  0  0  0  0  0  0  0  0  0  0
   35.7080   28.9890   49.6370 N   0  0  0  0  0  0  0  0  0  0  0  0
   38.1520   32.2700   48.7360 N   0  0  0  0  0  0  0  0  0  0  0  0
   38.4150   33.2670   49.7890 C   0  0  0  0  0  0  0  0  0  0  0  0
   39.6720   34.0210   49.4790 C   0  0  0  0  0  0  0  0  0  0  0  0
   39.7010   34.4930   48.1030 N   0  0  0  0  0  0  0  0  0  0  0  0
   39.4600   33.5230   47.1000 C   0  0  0  0  0  0  0  0  0  0  0  0
   38.6460   32.3440   47.4140 C   0  0  0  0  0  0  0  0  0  0  0  0
   38.5020   31.4910   46.3310 N   0  0  0  0  0  0  0  0  0  0  0  0
   37.3470   30.9230   45.9420 C   0  0  0  0  0  0  0  0  0  0  0  0
   37.5090   30.1280   44.8250 C   0  0  0  0  0  0  0  0  0  0  0  0
   38.8400   30.2110   44.5080 N   0  0  0  0  0  0  0  0  0  0  0  0
   39.3930   31.0450   45.4470 C   0  0  0  0  0  0  0  0  0  0  0  0
   40.8170   31.3980   45.4610 C   0  0  0  0  0  0  0  0  0  0  0  0
   41.1740   32.4440   44.8460 O   0  0  0  0  0  0  0  0  0  0  0  0
   41.7580   30.6250   46.1220 O   0  0  0  0  0  0  0  0  0  0  0  0
   37.3457   28.1202   50.6634 H   0  0  0  0  0  0  0  0  0  0  0  0
   38.8965   30.0413   50.1744 H   0  0  0  0  0  0  0  0  0  0  0  0
   34.2069   30.0215   48.5770 H   0  0  0  0  0  0  0  0  0  0  0  0
   37.5717   33.9713   49.8425 H   0  0  0  0  0  0  0  0  0  0  0  0
   38.5322   32.7510   50.7534 H   0  0  0  0  0  0  0  0  0  0  0  0
   39.7413   34.8876   50.1529 H   0  0  0  0  0  0  0  0  0  0  0  0
   40.5215   33.3367   49.6207 H   0  0  0  0  0  0  0  0  0  0  0  0
   39.8868   35.4792   47.8711 H   0  0  0  0  0  0  0  0  0  0  0  0
   39.8805   33.6528   46.0919 H   0  0  0  0  0  0  0  0  0  0  0  0
   36.3852   31.0741   46.4540 H   0  0  0  0  0  0  0  0  0  0  0  0
   36.7339   29.5501   44.3003 H   0  0  0  0  0  0  0  0  0  0  0  0
   42.7117   30.8905   46.1125 H   0  0  0  0  0  0  0  0  0  0  0  0
  2  1  2  0
  3  2  1  0
  4  5  1  0
  4  3  2  0
  5  6  2  0
  6  1  1  0
  7  3  1  0
  7  8  1  0
  9  8  1  0
 10  9  1  0
 11 12  2  0
 11 10  1  0
 12  7  1  0
 13 12  1  0
 14 13  1  0
 15 14  2  0
 16 15  1  0
 16 17  2  0
 17 18  1  0
 17 13  1  0
 18 20  1  0
 19 18  2  0
  1 21  1  0
  2 22  1  0
  5 23  1  0
  8 24  1  0
  8 25  1  0
  9 26  1  0
  9 27  1  0
 10 28  1  0
 11 29  1  0
 14 30  1  0
 15 31  1  0
 20 32  1  0
M  ISO  8  21  14  22  14  23  14  24  13  25  13  26  13  27  13  29  13
M  ISO  3  30  14  31  14  32   3
M  END
>  <minimizedAffinity>  (1) 
-5.77045488

>  <minimizedRMSD>  (1) 
0.863440156

$$$$
