
     RDKit          3D

 36 38  0  0  0  0  0  0  0  0999 V2000
   35.2850   28.2150   49.1610 C   0  0  0  0  0  0  0  0  0  0  0  0
   36.3000   29.1810   49.1380 C   0  0  0  0  0  0  0  0  0  0  0  0
   36.0480   30.4280   48.5000 C   0  0  0  0  0  0  0  0  0  0  0  0
   34.7870   30.5850   47.9400 N   0  0  0  0  0  0  0  0  0  0  0  0
   33.8540   29.6340   47.9900 C   0  0  0  0  0  0  0  0  0  0  0  0
   34.0880   28.4600   48.5880 N   0  0  0  0  0  0  0  0  0  0  0  0
   37.0190   31.4440   48.4380 N   0  0  0  0  0  0  0  0  0  0  0  0
   37.2750   32.2370   49.6650 C   0  0  0  0  0  0  0  0  0  0  0  0
   38.6130   32.8670   49.6000 C   0  0  0  0  0  0  0  0  0  0  0  0
   38.8910   33.4980   48.3070 N   0  0  0  0  0  0  0  0  0  0  0  0
   38.6550   32.7060   47.1450 C   0  0  0  0  0  0  0  0  0  0  0  0
   37.6780   31.6310   47.2080 C   0  0  0  0  0  0  0  0  0  0  0  0
   37.5620   30.9590   46.0110 N   0  0  0  0  0  0  0  0  0  0  0  0
   36.4610   30.8870   45.2440 C   0  0  0  0  0  0  0  0  0  0  0  0
   36.6400   30.1530   44.0900 C   0  0  0  0  0  0  0  0  0  0  0  0
   37.9510   29.7300   44.1350 N   0  0  0  0  0  0  0  0  0  0  0  0
   38.4540   30.2420   45.3050 C   0  0  0  0  0  0  0  0  0  0  0  0
   39.8140   30.0070   45.7010 N   0  0  0  0  0  0  0  0  0  0  0  0
   40.8870   30.8710   45.3370 C   0  0  0  0  0  0  0  0  0  0  0  0
   40.7100   31.6330   44.2850 N   0  0  0  0  0  0  0  0  0  0  0  0
   42.1230   30.9260   46.0760 N   0  0  0  0  0  0  0  0  0  0  0  0
   41.4610   32.2830   43.9740 H   0  0  0  0  0  0  0  0  0  0  0  0
   35.4659   27.2470   49.6512 H   0  0  0  0  0  0  0  0  0  0  0  0
   37.2751   28.9788   49.6052 H   0  0  0  0  0  0  0  0  0  0  0  0
   32.8718   29.8182   47.5303 H   0  0  0  0  0  0  0  0  0  0  0  0
   36.5089   33.0210   49.7567 H   0  0  0  0  0  0  0  0  0  0  0  0
   37.2365   31.5683   50.5376 H   0  0  0  0  0  0  0  0  0  0  0  0
   38.6764   33.6351   50.3848 H   0  0  0  0  0  0  0  0  0  0  0  0
   39.3573   32.0696   49.7417 H   0  0  0  0  0  0  0  0  0  0  0  0
   39.2394   34.4650   48.2408 H   0  0  0  0  0  0  0  0  0  0  0  0
   39.2047   32.9056   46.2134 H   0  0  0  0  0  0  0  0  0  0  0  0
   35.5081   31.3674   45.5109 H   0  0  0  0  0  0  0  0  0  0  0  0
   35.8976   29.9494   43.3043 H   0  0  0  0  0  0  0  0  0  0  0  0
   40.0233   29.1769   46.2737 H   0  0  0  0  0  0  0  0  0  0  0  0
   42.8733   31.5656   45.7778 H   0  0  0  0  0  0  0  0  0  0  0  0
   42.2561   30.3257   46.9024 H   0  0  0  0  0  0  0  0  0  0  0  0
  2  1  2  0
  3  2  1  0
  4  5  1  0
  4  3  2  0
  5  6  2  0
  6  1  1  0
  7  3  1  0
  7  8  1  0
  9  8  1  0
 10  9  1  0
 11 12  2  0
 11 10  1  0
 12  7  1  0
 13 12  1  0
 14 13  1  0
 15 16  1  0
 15 14  2  0
 16 17  2  0
 17 18  1  0
 17 13  1  0
 19 18  1  0
 19 21  1  0
 20 19  2  0
 22 20  1  0
  1 23  1  0
  2 24  1  0
  5 25  1  0
  8 26  1  0
  8 27  1  0
  9 28  1  0
  9 29  1  0
 10 30  1  0
 11 31  1  0
 14 32  1  0
 15 33  1  0
 18 34  1  0
 21 35  1  0
 21 36  1  0
M  ISO  8  23  14  24  14  25  14  26  13  27  13  28  13  29  13  31  13
M  ISO  2  32  14  33  14
M  END
>  <minimizedAffinity>  (1) 
-5.64084864

>  <minimizedRMSD>  (1) 
1.60486376

$$$$
