
     RDKit          3D

 35 38  0  0  0  0  0  0  0  0999 V2000
   36.8120   28.9940   49.9900 C   0  0  0  0  0  0  0  0  0  0  0  0
   37.6070   29.7300   49.0920 C   0  0  0  0  0  0  0  0  0  0  0  0
   37.0070   30.8420   48.4160 C   0  0  0  0  0  0  0  0  0  0  0  0
   35.6760   31.1010   48.7110 N   0  0  0  0  0  0  0  0  0  0  0  0
   34.9670   30.3710   49.5730 C   0  0  0  0  0  0  0  0  0  0  0  0
   35.5120   29.3320   50.2090 N   0  0  0  0  0  0  0  0  0  0  0  0
   37.7290   31.6310   47.5020 N   0  0  0  0  0  0  0  0  0  0  0  0
   38.6950   32.6120   48.0390 C   0  0  0  0  0  0  0  0  0  0  0  0
   39.7140   32.9580   47.0180 C   0  0  0  0  0  0  0  0  0  0  0  0
   39.1280   33.2340   45.7090 N   0  0  0  0  0  0  0  0  0  0  0  0
   38.2130   32.2730   45.1990 C   0  0  0  0  0  0  0  0  0  0  0  0
   37.4750   31.4300   46.1350 C   0  0  0  0  0  0  0  0  0  0  0  0
   36.6280   30.5490   45.4950 N   0  0  0  0  0  0  0  0  0  0  0  0
   35.3760   30.2460   45.8600 C   0  0  0  0  0  0  0  0  0  0  0  0
   34.7640   29.3370   45.0200 C   0  0  0  0  0  0  0  0  0  0  0  0
   35.6940   29.0490   44.0640 N   0  0  0  0  0  0  0  0  0  0  0  0
   36.7970   29.8000   44.3880 C   0  0  0  0  0  0  0  0  0  0  0  0
   38.0070   29.7670   43.6010 N   0  0  0  0  0  0  0  0  0  0  0  0
   38.4740   30.6380   42.7090 C   0  0  0  0  0  0  0  0  0  0  0  0
   39.6420   30.2290   42.2000 N   0  0  0  0  0  0  0  0  0  0  0  0
   39.9330   29.0410   42.7960 C   0  0  0  0  0  0  0  0  0  0  0  0
   38.9190   28.8020   43.6340 N   0  0  0  0  0  0  0  0  0  0  0  0
   37.2467   28.1347   50.5216 H   0  0  0  0  0  0  0  0  0  0  0  0
   38.6583   29.4596   48.9141 H   0  0  0  0  0  0  0  0  0  0  0  0
   33.9149   30.6297   49.7630 H   0  0  0  0  0  0  0  0  0  0  0  0
   38.1563   33.5242   48.3350 H   0  0  0  0  0  0  0  0  0  0  0  0
   39.2023   32.1689   48.9087 H   0  0  0  0  0  0  0  0  0  0  0  0
   40.2604   33.8514   47.3546 H   0  0  0  0  0  0  0  0  0  0  0  0
   40.3818   32.0909   46.9074 H   0  0  0  0  0  0  0  0  0  0  0  0
   39.3665   34.0851   45.1801 H   0  0  0  0  0  0  0  0  0  0  0  0
   38.0632   32.1661   44.1145 H   0  0  0  0  0  0  0  0  0  0  0  0
   34.8830   30.6790   46.7429 H   0  0  0  0  0  0  0  0  0  0  0  0
   33.7448   28.9317   45.1036 H   0  0  0  0  0  0  0  0  0  0  0  0
   37.9660   31.5721   42.4272 H   0  0  0  0  0  0  0  0  0  0  0  0
   40.8172   28.4095   42.6244 H   0  0  0  0  0  0  0  0  0  0  0  0
  1  6  2  0
  2  1  1  0
  3  4  1  0
  3  2  2  0
  4  5  2  0
  5  6  1  0
  7  8  1  0
  7  3  1  0
  9  8  1  0
 10  9  1  0
 11 10  1  0
 11 12  2  0
 12  7  1  0
 13 14  1  0
 13 12  1  0
 15 14  2  0
 16 17  2  0
 16 15  1  0
 17 13  1  0
 18 22  1  0
 18 17  1  0
 19 18  1  0
 20 19  2  0
 20 21  1  0
 21 22  2  0
  1 23  1  0
  2 24  1  0
  5 25  1  0
  8 26  1  0
  8 27  1  0
  9 28  1  0
  9 29  1  0
 10 30  1  0
 11 31  1  0
 14 32  1  0
 15 33  1  0
 19 34  1  0
 21 35  1  0
M  ISO  8  23  14  24  14  25  14  26  13  27  13  28  13  29  13  31  13
M  ISO  4  32  14  33  14  34  14  35  14
M  END
>  <minimizedAffinity>  (1) 
-5.28597021

>  <minimizedRMSD>  (1) 
3.15440774

$$$$
