
     RDKit          3D

 20 21  0  0  0  0  0  0  0  0999 V2000
   36.1920   30.5480   49.0230 C   0  0  0  0  0  0  0  0  0  0  0  0
   36.0870   29.9210   50.2750 C   0  0  0  0  0  0  0  0  0  0  0  0
   35.0440   28.9990   50.1910 C   0  0  0  0  0  0  0  0  0  0  0  0
   34.5670   29.0950   48.9280 N   0  0  0  0  0  0  0  0  0  0  0  0
   35.2400   29.9990   48.2510 N   0  0  0  0  0  0  0  0  0  0  0  0
   38.4350   33.4770   49.3390 C   0  0  0  0  0  0  0  0  0  0  0  0
   39.2040   33.3560   48.1850 C   0  0  0  0  0  0  0  0  0  0  0  0
   38.9340   32.2790   47.3350 C   0  0  0  0  0  0  0  0  0  0  0  0
   37.9340   31.4110   47.6850 N   0  0  0  0  0  0  0  0  0  0  0  0
   37.2110   31.5690   48.8190 C   0  0  0  0  0  0  0  0  0  0  0  0
   37.4570   32.5910   49.6380 N   0  0  0  0  0  0  0  0  0  0  0  0
   33.4690   28.2610   48.5120 C   0  0  0  0  0  0  0  0  0  0  0  0
   32.8730   28.6560   47.3470 F   0  0  0  0  0  0  0  0  0  0  0  0
   33.9830   26.9870   48.3490 F   0  0  0  0  0  0  0  0  0  0  0  0
   32.4800   28.1930   49.4830 F   0  0  0  0  0  0  0  0  0  0  0  0
   36.7116   30.1201   51.1583 H   0  0  0  0  0  0  0  0  0  0  0  0
   34.6833   28.3313   50.9872 H   0  0  0  0  0  0  0  0  0  0  0  0
   38.6274   34.3146   50.0256 H   0  0  0  0  0  0  0  0  0  0  0  0
   39.9962   34.0821   47.9500 H   0  0  0  0  0  0  0  0  0  0  0  0
   39.5098   32.1327   46.4092 H   0  0  0  0  0  0  0  0  0  0  0  0
  1  2  1  0
  3  2  2  0
  4  3  1  0
  5  4  1  0
  5  1  2  0
  6 11  2  0
  7  6  1  0
  8  9  1  0
  8  7  2  0
  9 10  2  0
 10  1  1  0
 10 11  1  0
 12  4  1  0
 12 15  1  0
 13 12  1  0
 14 12  1  0
  2 16  1  0
  3 17  1  0
  6 18  1  0
  7 19  1  0
  8 20  1  0
M  ISO  5  16  14  17  14  18  14  19  14  20  14
M  END
>  <minimizedAffinity>  (1) 
-4.81560135

>  <minimizedRMSD>  (1) 
1.15359116

$$$$
