
     RDKit          3D

 35 38  0  0  0  0  0  0  0  0999 V2000
   36.8010   28.9930   49.9930 C   0  0  0  0  0  0  0  0  0  0  0  0
   37.5940   29.7220   49.0920 C   0  0  0  0  0  0  0  0  0  0  0  0
   37.0020   30.8310   48.4230 C   0  0  0  0  0  0  0  0  0  0  0  0
   35.6680   31.1010   48.7280 N   0  0  0  0  0  0  0  0  0  0  0  0
   34.9650   30.3720   49.5950 C   0  0  0  0  0  0  0  0  0  0  0  0
   35.5140   29.3290   50.2250 N   0  0  0  0  0  0  0  0  0  0  0  0
   37.7170   31.6250   47.5010 N   0  0  0  0  0  0  0  0  0  0  0  0
   38.6850   32.6050   48.0270 C   0  0  0  0  0  0  0  0  0  0  0  0
   39.7020   32.9440   47.0130 C   0  0  0  0  0  0  0  0  0  0  0  0
   39.1130   33.2210   45.7030 N   0  0  0  0  0  0  0  0  0  0  0  0
   38.1850   32.2600   45.2030 C   0  0  0  0  0  0  0  0  0  0  0  0
   37.4490   31.4190   46.1330 C   0  0  0  0  0  0  0  0  0  0  0  0
   36.5980   30.5500   45.5020 N   0  0  0  0  0  0  0  0  0  0  0  0
   35.3690   30.2120   45.9040 C   0  0  0  0  0  0  0  0  0  0  0  0
   34.7320   29.3220   45.0670 C   0  0  0  0  0  0  0  0  0  0  0  0
   35.6280   29.0830   44.0630 N   0  0  0  0  0  0  0  0  0  0  0  0
   36.7290   29.8380   44.3650 C   0  0  0  0  0  0  0  0  0  0  0  0
   37.9400   29.8540   43.5040 C   0  0  0  0  0  0  0  0  0  0  0  0
   39.0810   29.0440   43.8520 C   0  0  0  0  0  0  0  0  0  0  0  0
   40.2230   29.4590   42.4780 S   0  0  0  0  0  0  0  0  0  0  0  0
   39.0300   30.6050   41.6960 C   0  0  0  0  0  0  0  0  0  0  0  0
   38.0820   30.5770   42.3910 N   0  0  0  0  0  0  0  0  0  0  0  0
   37.2368   28.1314   50.5200 H   0  0  0  0  0  0  0  0  0  0  0  0
   38.6424   29.4443   48.9083 H   0  0  0  0  0  0  0  0  0  0  0  0
   33.9154   30.6334   49.7952 H   0  0  0  0  0  0  0  0  0  0  0  0
   38.1481   33.5201   48.3172 H   0  0  0  0  0  0  0  0  0  0  0  0
   39.1927   32.1624   48.8967 H   0  0  0  0  0  0  0  0  0  0  0  0
   40.2520   33.8356   47.3487 H   0  0  0  0  0  0  0  0  0  0  0  0
   40.3690   32.0761   46.9040 H   0  0  0  0  0  0  0  0  0  0  0  0
   39.3561   34.0673   45.1686 H   0  0  0  0  0  0  0  0  0  0  0  0
   38.0270   32.1557   44.1194 H   0  0  0  0  0  0  0  0  0  0  0  0
   34.9076   30.6086   46.8204 H   0  0  0  0  0  0  0  0  0  0  0  0
   33.7238   28.8972   45.1816 H   0  0  0  0  0  0  0  0  0  0  0  0
   39.2263   28.3651   44.7052 H   0  0  0  0  0  0  0  0  0  0  0  0
   39.1693   31.1921   40.7763 H   0  0  0  0  0  0  0  0  0  0  0  0
  1  6  2  0
  2  1  1  0
  3  4  1  0
  3  2  2  0
  4  5  2  0
  5  6  1  0
  7  8  1  0
  7  3  1  0
  9  8  1  0
 10  9  1  0
 11 10  1  0
 11 12  2  0
 12  7  1  0
 13 14  1  0
 13 12  1  0
 15 14  2  0
 16 17  2  0
 16 15  1  0
 17 13  1  0
 18 19  2  0
 18 17  1  0
 20 19  1  0
 21 22  2  0
 21 20  1  0
 22 18  1  0
  1 23  1  0
  2 24  1  0
  5 25  1  0
  8 26  1  0
  8 27  1  0
  9 28  1  0
  9 29  1  0
 10 30  1  0
 11 31  1  0
 14 32  1  0
 15 33  1  0
 19 34  1  0
 21 35  1  0
M  ISO  8  23  14  24  14  25  14  26  13  27  13  28  13  29  13  31  13
M  ISO  4  32  14  33  14  34  14  35  14
M  END
>  <minimizedAffinity>  (1) 
-5.07845163

>  <minimizedRMSD>  (1) 
3.32548237

$$$$
