
     RDKit          3D

 35 37  0  0  0  0  0  0  0  0999 V2000
   36.9190   28.9440   50.3560 C   0  0  0  0  0  0  0  0  0  0  0  0
   37.7890   30.0050   50.0250 C   0  0  0  0  0  0  0  0  0  0  0  0
   37.2500   31.1140   49.3120 C   0  0  0  0  0  0  0  0  0  0  0  0
   35.8980   31.0550   49.0000 N   0  0  0  0  0  0  0  0  0  0  0  0
   35.1140   30.0310   49.3330 C   0  0  0  0  0  0  0  0  0  0  0  0
   35.6000   28.9860   50.0000 N   0  0  0  0  0  0  0  0  0  0  0  0
   38.0340   32.2230   48.9350 N   0  0  0  0  0  0  0  0  0  0  0  0
   38.3760   33.2170   49.9700 C   0  0  0  0  0  0  0  0  0  0  0  0
   39.6050   33.9640   49.5810 C   0  0  0  0  0  0  0  0  0  0  0  0
   39.5770   34.4220   48.2090 N   0  0  0  0  0  0  0  0  0  0  0  0
   39.2440   33.4600   47.2240 C   0  0  0  0  0  0  0  0  0  0  0  0
   38.4320   32.2950   47.5880 C   0  0  0  0  0  0  0  0  0  0  0  0
   38.1970   31.4540   46.5130 N   0  0  0  0  0  0  0  0  0  0  0  0
   36.9910   31.1070   46.0510 C   0  0  0  0  0  0  0  0  0  0  0  0
   37.0640   30.2630   44.9650 C   0  0  0  0  0  0  0  0  0  0  0  0
   38.4080   30.0740   44.7400 N   0  0  0  0  0  0  0  0  0  0  0  0
   39.0450   30.8150   45.7010 C   0  0  0  0  0  0  0  0  0  0  0  0
   40.5400   30.9200   45.8570 C   0  0  0  0  0  0  0  0  0  0  0  0
   41.1140   31.8710   44.8320 C   0  0  0  0  0  0  0  0  0  0  0  0
   37.3066   28.0740   50.9063 H   0  0  0  0  0  0  0  0  0  0  0  0
   38.8513   29.9763   50.3091 H   0  0  0  0  0  0  0  0  0  0  0  0
   34.0503   30.0488   49.0531 H   0  0  0  0  0  0  0  0  0  0  0  0
   37.5416   33.9247   50.0838 H   0  0  0  0  0  0  0  0  0  0  0  0
   38.5592   32.6957   50.9212 H   0  0  0  0  0  0  0  0  0  0  0  0
   39.7073   34.8384   50.2405 H   0  0  0  0  0  0  0  0  0  0  0  0
   40.4554   33.2734   49.6803 H   0  0  0  0  0  0  0  0  0  0  0  0
   39.7887   35.3990   47.9608 H   0  0  0  0  0  0  0  0  0  0  0  0
   39.5937   33.5868   46.1888 H   0  0  0  0  0  0  0  0  0  0  0  0
   36.0450   31.4570   46.4899 H   0  0  0  0  0  0  0  0  0  0  0  0
   36.2258   29.8317   44.3981 H   0  0  0  0  0  0  0  0  0  0  0  0
   40.7734   31.2912   46.8658 H   0  0  0  0  0  0  0  0  0  0  0  0
   40.9840   29.9249   45.7067 H   0  0  0  0  0  0  0  0  0  0  0  0
   41.6167   32.7038   45.3455 H   0  0  0  0  0  0  0  0  0  0  0  0
   41.8405   31.3365   44.2023 H   0  0  0  0  0  0  0  0  0  0  0  0
   40.3026   32.2648   44.2023 H   0  0  0  0  0  0  0  0  0  0  0  0
  2  1  2  0
  3  2  1  0
  4  3  2  0
  4  5  1  0
  5  6  2  0
  6  1  1  0
  7  3  1  0
  7  8  1  0
  9  8  1  0
 10  9  1  0
 11 12  2  0
 11 10  1  0
 12  7  1  0
 13 12  1  0
 14 13  1  0
 15 14  2  0
 16 15  1  0
 16 17  2  0
 17 18  1  0
 17 13  1  0
 19 18  1  0
  1 20  1  0
  2 21  1  0
  5 22  1  0
  8 23  1  0
  8 24  1  0
  9 25  1  0
  9 26  1  0
 10 27  1  0
 11 28  1  0
 14 29  1  0
 15 30  1  0
 18 31  1  0
 18 32  1  0
 19 33  1  0
 19 34  1  0
 19 35  1  0
M  ISO  8  20  14  21  14  22  14  23  13  24  13  25  13  26  13  28  13
M  ISO  7  29  14  30  14  31   8  32   8  33   8  34   8  35   8
M  END
>  <minimizedAffinity>  (1) 
-4.905509

>  <minimizedRMSD>  (1) 
0.788927972

$$$$
