
     RDKit          3D

 41 45  0  0  0  0  0  0  0  0999 V2000
   36.7760   29.1470   49.4570 C   0  0  0  0  0  0  0  0  0  0  0  0
   37.7220   30.1530   49.2030 C   0  0  0  0  0  0  0  0  0  0  0  0
   37.3660   31.2240   48.3080 C   0  0  0  0  0  0  0  0  0  0  0  0
   36.0940   31.1560   47.7700 N   0  0  0  0  0  0  0  0  0  0  0  0
   35.2270   30.1810   48.0390 C   0  0  0  0  0  0  0  0  0  0  0  0
   35.5440   29.1900   48.8620 N   0  0  0  0  0  0  0  0  0  0  0  0
   38.2550   32.2590   48.0060 N   0  0  0  0  0  0  0  0  0  0  0  0
   38.4600   33.3170   49.0170 C   0  0  0  0  0  0  0  0  0  0  0  0
   39.7460   34.0050   48.8060 C   0  0  0  0  0  0  0  0  0  0  0  0
   39.9800   34.3580   47.3980 N   0  0  0  0  0  0  0  0  0  0  0  0
   39.7890   33.3190   46.4510 C   0  0  0  0  0  0  0  0  0  0  0  0
   38.8870   32.2160   46.7590 C   0  0  0  0  0  0  0  0  0  0  0  0
   38.8160   31.2840   45.7210 N   0  0  0  0  0  0  0  0  0  0  0  0
   39.5140   30.1650   45.6240 C   0  0  0  0  0  0  0  0  0  0  0  0
   39.2490   29.4340   44.5050 C   0  0  0  0  0  0  0  0  0  0  0  0
   38.3130   30.1410   43.8430 N   0  0  0  0  0  0  0  0  0  0  0  0
   38.0550   31.2760   44.5990 C   0  0  0  0  0  0  0  0  0  0  0  0
   37.1420   32.2740   44.2610 O   0  0  0  0  0  0  0  0  0  0  0  0
   34.9200   33.8750   40.5780 N   0  0  0  0  0  0  0  0  0  0  0  0
   34.0490   33.4110   41.4950 C   0  0  0  0  0  0  0  0  0  0  0  0
   34.7620   32.9490   42.5640 N   0  0  0  0  0  0  0  0  0  0  0  0
   36.0680   33.1310   42.3000 C   0  0  0  0  0  0  0  0  0  0  0  0
   37.2210   32.8580   43.0070 C   0  0  0  0  0  0  0  0  0  0  0  0
   38.4280   33.1680   42.4540 N   0  0  0  0  0  0  0  0  0  0  0  0
   38.5380   33.7300   41.2500 C   0  0  0  0  0  0  0  0  0  0  0  0
   37.4090   34.0090   40.5350 N   0  0  0  0  0  0  0  0  0  0  0  0
   36.1950   33.7200   41.0380 C   0  0  0  0  0  0  0  0  0  0  0  0
   37.0262   28.3200   50.1377 H   0  0  0  0  0  0  0  0  0  0  0  0
   38.7140   30.1239   49.6775 H   0  0  0  0  0  0  0  0  0  0  0  0
   34.2317   30.1979   47.5709 H   0  0  0  0  0  0  0  0  0  0  0  0
   37.6431   34.0498   48.9419 H   0  0  0  0  0  0  0  0  0  0  0  0
   38.4697   32.8526   50.0141 H   0  0  0  0  0  0  0  0  0  0  0  0
   39.7534   34.9274   49.4053 H   0  0  0  0  0  0  0  0  0  0  0  0
   40.5451   33.3133   49.1108 H   0  0  0  0  0  0  0  0  0  0  0  0
   40.2664   35.3061   47.1151 H   0  0  0  0  0  0  0  0  0  0  0  0
   40.3196   33.3456   45.4878 H   0  0  0  0  0  0  0  0  0  0  0  0
   40.2464   29.8510   46.3823 H   0  0  0  0  0  0  0  0  0  0  0  0
   39.7006   28.4761   44.2074 H   0  0  0  0  0  0  0  0  0  0  0  0
   34.6627   34.2843   39.6685 H   0  0  0  0  0  0  0  0  0  0  0  0
   32.9532   33.4053   41.3992 H   0  0  0  0  0  0  0  0  0  0  0  0
   39.5295   33.9667   40.8365 H   0  0  0  0  0  0  0  0  0  0  0  0
  2  1  2  0
  3  2  1  0
  4  5  1  0
  4  3  2  0
  5  6  2  0
  6  1  1  0
  7  3  1  0
  7  8  1  0
  9  8  1  0
 10  9  1  0
 11 12  2  0
 11 10  1  0
 12  7  1  0
 13 12  1  0
 14 13  1  0
 15 14  2  0
 16 15  1  0
 16 17  2  0
 17 13  1  0
 18 17  1  0
 19 27  1  0
 19 20  1  0
 20 21  2  0
 22 21  1  0
 22 23  2  0
 23 18  1  0
 24 23  1  0
 25 24  2  0
 26 27  2  0
 26 25  1  0
 27 22  1  0
  1 28  1  0
  2 29  1  0
  5 30  1  0
  8 31  1  0
  8 32  1  0
  9 33  1  0
  9 34  1  0
 10 35  1  0
 11 36  1  0
 14 37  1  0
 15 38  1  0
 19 39  1  0
 20 40  1  0
 25 41  1  0
M  ISO  8  28  14  29  14  30  14  31  13  32  13  33  13  34  13  36  13
M  ISO  5  37  14  38  14  39   9  40  14  41  14
M  END
>  <minimizedAffinity>  (1) 
-5.59600306

>  <minimizedRMSD>  (1) 
4.73423481

$$$$
