
     RDKit          3D

 35 37  0  0  1  0  0  0  0  0999 V2000
   37.2400   31.0290   48.7060 N   0  0  0  0  0  0  0  0  0  0  0  0
   38.1050   31.3850   49.8220 C   0  0  0  0  0  0  0  0  0  0  0  0
   38.5410   32.7610   49.4290 C   0  0  0  0  0  0  0  0  0  0  0  0
   38.8470   32.5770   47.9680 C   0  0  0  0  0  0  0  0  0  0  0  0
   37.6910   31.7280   47.5190 C   0  0  1  0  0  0  0  0  0  0  0  0
   36.0750   28.9940   49.5590 C   0  0  0  0  0  0  0  0  0  0  0  0
   36.1350   30.1480   48.7220 C   0  0  0  0  0  0  0  0  0  0  0  0
   35.0520   30.4190   47.8590 C   0  0  0  0  0  0  0  0  0  0  0  0
   33.9910   29.5470   47.8680 N   0  0  0  0  0  0  0  0  0  0  0  0
   33.9730   28.4580   48.6810 C   0  0  0  0  0  0  0  0  0  0  0  0
   35.0080   28.1860   49.5190 N   0  0  0  0  0  0  0  0  0  0  0  0
   38.0920   30.8220   46.4070 C   0  0  0  0  0  0  0  0  0  0  0  0
   37.3880   31.2430   45.1170 C   0  0  0  0  0  0  0  0  0  0  0  0
   38.3170   30.8490   43.9960 C   0  0  0  0  0  0  0  0  0  0  0  0
   39.4240   30.0890   44.6600 C   0  0  0  0  0  0  0  0  0  0  0  0
   39.5350   30.8880   45.9820 C   0  0  0  0  0  0  0  0  0  0  0  0
   37.5520   31.3942   50.7729 H   0  0  0  0  0  0  0  0  0  0  0  0
   38.9335   30.6816   49.9914 H   0  0  0  0  0  0  0  0  0  0  0  0
   37.7364   33.4955   49.5809 H   0  0  0  0  0  0  0  0  0  0  0  0
   39.3863   33.1472   50.0175 H   0  0  0  0  0  0  0  0  0  0  0  0
   38.8664   33.5407   47.4379 H   0  0  0  0  0  0  0  0  0  0  0  0
   39.8325   32.1297   47.7711 H   0  0  0  0  0  0  0  0  0  0  0  0
   36.8671   32.3235   47.0987 H   0  0  0  0  0  0  0  0  0  0  0  0
   36.9086   28.7672   50.2399 H   0  0  0  0  0  0  0  0  0  0  0  0
   35.0574   31.3001   47.2004 H   0  0  0  0  0  0  0  0  0  0  0  0
   33.1041   27.7838   48.6604 H   0  0  0  0  0  0  0  0  0  0  0  0
   37.8474   29.8294   46.8131 H   0  0  0  0  0  0  0  0  0  0  0  0
   36.4249   30.7209   45.0180 H   0  0  0  0  0  0  0  0  0  0  0  0
   37.1737   32.3219   45.1056 H   0  0  0  0  0  0  0  0  0  0  0  0
   38.7110   31.7418   43.4884 H   0  0  0  0  0  0  0  0  0  0  0  0
   37.8069   30.2496   43.2275 H   0  0  0  0  0  0  0  0  0  0  0  0
   39.1497   29.0388   44.8384 H   0  0  0  0  0  0  0  0  0  0  0  0
   40.3551   30.0194   44.0784 H   0  0  0  0  0  0  0  0  0  0  0  0
   40.2029   30.3991   46.7065 H   0  0  0  0  0  0  0  0  0  0  0  0
   39.9605   31.8985   45.8942 H   0  0  0  0  0  0  0  0  0  0  0  0
  1  7  1  0
  1  2  1  0
  3  2  1  0
  4  3  1  0
  5  4  1  0
  5  1  1  0
  7  6  2  0
  8  9  2  0
  8  7  1  0
  9 10  1  0
 10 11  2  0
 11  6  1  0
 12  5  1  0
 13 12  1  0
 14 15  1  0
 14 13  1  0
 15 16  1  0
 16 12  1  0
  2 17  1  0
  2 18  1  0
  3 19  1  0
  3 20  1  0
  4 21  1  0
  4 22  1  0
  5 23  1  6
  6 24  1  0
  8 25  1  0
 10 26  1  0
 12 27  1  0
 13 28  1  0
 13 29  1  0
 14 30  1  0
 14 31  1  0
 15 32  1  0
 15 33  1  0
 16 34  1  0
 16 35  1  0
M  ISO  8  17  13  18  13  19  13  20  13  21  13  22  13  23  13  24  14
M  ISO  8  25  14  26  14  27  13  28  13  29  13  30  13  31  13  32  13
M  ISO  3  33  13  34  13  35  13
M  END
>  <minimizedAffinity>  (1) 
-5.2258625

>  <minimizedRMSD>  (1) 
1.0043987

$$$$
