
     RDKit          3D

 36 38  0  0  1  0  0  0  0  0999 V2000
   37.5990   31.5040   48.5600 N   0  0  0  0  0  0  0  0  0  0  0  0
   38.3600   31.9220   49.7570 C   0  0  0  0  0  0  0  0  0  0  0  0
   38.6930   33.3470   49.3700 C   0  0  0  0  0  0  0  0  0  0  0  0
   39.2280   33.0800   47.9690 C   0  0  0  0  0  0  0  0  0  0  0  0
   38.0220   32.3210   47.4450 C   0  0  1  0  0  0  0  0  0  0  0  0
   36.5320   29.4040   49.3860 C   0  0  0  0  0  0  0  0  0  0  0  0
   36.6250   30.4880   48.4960 C   0  0  0  0  0  0  0  0  0  0  0  0
   35.6810   30.5730   47.4570 C   0  0  0  0  0  0  0  0  0  0  0  0
   34.7250   29.6020   47.3670 N   0  0  0  0  0  0  0  0  0  0  0  0
   34.6760   28.5740   48.2510 C   0  0  0  0  0  0  0  0  0  0  0  0
   35.5830   28.4840   49.2570 N   0  0  0  0  0  0  0  0  0  0  0  0
   38.2840   31.5660   46.2720 N   0  0  0  0  0  0  0  0  0  0  0  0
   37.8920   32.1820   45.0610 C   0  0  0  0  0  0  0  0  0  0  0  0
   39.0120   32.8000   44.2840 C   0  0  0  0  0  0  0  0  0  0  0  0
   40.0670   31.8280   44.0700 N   0  0  0  0  0  0  0  0  0  0  0  0
   40.5490   31.2900   45.3030 C   0  0  0  0  0  0  0  0  0  0  0  0
   39.4920   30.8250   46.2550 C   0  0  0  0  0  0  0  0  0  0  0  0
   37.7447   31.8792   50.6678 H   0  0  0  0  0  0  0  0  0  0  0  0
   39.2286   31.2916   49.9982 H   0  0  0  0  0  0  0  0  0  0  0  0
   37.8022   33.9923   49.3577 H   0  0  0  0  0  0  0  0  0  0  0  0
   39.3751   33.8799   50.0488 H   0  0  0  0  0  0  0  0  0  0  0  0
   39.4168   34.0071   47.4080 H   0  0  0  0  0  0  0  0  0  0  0  0
   40.1974   32.5642   47.9047 H   0  0  0  0  0  0  0  0  0  0  0  0
   37.2314   33.0090   47.1109 H   0  0  0  0  0  0  0  0  0  0  0  0
   37.2600   29.3160   50.2059 H   0  0  0  0  0  0  0  0  0  0  0  0
   35.7120   31.4017   46.7343 H   0  0  0  0  0  0  0  0  0  0  0  0
   33.8943   27.8065   48.1517 H   0  0  0  0  0  0  0  0  0  0  0  0
   37.4148   31.4199   44.4274 H   0  0  0  0  0  0  0  0  0  0  0  0
   37.2131   33.0030   45.3349 H   0  0  0  0  0  0  0  0  0  0  0  0
   38.6325   33.1450   43.3109 H   0  0  0  0  0  0  0  0  0  0  0  0
   39.4167   33.6510   44.8514 H   0  0  0  0  0  0  0  0  0  0  0  0
   39.6999   31.0591   43.4913 H   0  0  0  0  0  0  0  0  0  0  0  0
   41.1969   30.4323   45.0693 H   0  0  0  0  0  0  0  0  0  0  0  0
   41.0734   32.1136   45.8097 H   0  0  0  0  0  0  0  0  0  0  0  0
   39.2425   29.7856   45.9952 H   0  0  0  0  0  0  0  0  0  0  0  0
   39.9264   30.9547   47.2572 H   0  0  0  0  0  0  0  0  0  0  0  0
  1  2  1  0
  3  2  1  0
  4  3  1  0
  5  4  1  0
  5  1  1  0
  7  1  1  0
  7  6  2  0
  8  7  1  0
  9  8  2  0
  9 10  1  0
 10 11  2  0
 11  6  1  0
 12  5  1  0
 13 12  1  0
 14 13  1  0
 15 14  1  0
 15 16  1  0
 16 17  1  0
 17 12  1  0
  2 18  1  0
  2 19  1  0
  3 20  1  0
  3 21  1  0
  4 22  1  0
  4 23  1  0
  5 24  1  6
  6 25  1  0
  8 26  1  0
 10 27  1  0
 13 28  1  0
 13 29  1  0
 14 30  1  0
 14 31  1  0
 15 32  1  0
 16 33  1  0
 16 34  1  0
 17 35  1  0
 17 36  1  0
M  ISO  8  18  13  19  13  20  13  21  13  22  13  23  13  24  13  25  14
M  ISO  8  26  14  27  14  28  13  29  13  30  13  31  13  32   5  33  13
M  ISO  3  34  13  35  13  36  13
M  END
>  <minimizedAffinity>  (1) 
-5.19452381

>  <minimizedRMSD>  (1) 
1.43298399

$$$$
