
     RDKit          3D

 29 31  0  0  1  0  0  0  0  0999 V2000
   37.3180   31.1710   48.7390 N   0  0  0  0  0  0  0  0  0  0  0  0
   38.2840   31.4490   49.8170 C   0  0  0  0  0  0  0  0  0  0  0  0
   38.5700   32.9220   49.4880 C   0  0  0  0  0  0  0  0  0  0  0  0
   38.9240   32.7230   48.0250 C   0  0  0  0  0  0  0  0  0  0  0  0
   37.6360   32.0210   47.5980 C   0  0  1  0  0  0  0  0  0  0  0  0
   36.2590   29.0640   49.5420 C   0  0  0  0  0  0  0  0  0  0  0  0
   36.2420   30.2450   48.7560 C   0  0  0  0  0  0  0  0  0  0  0  0
   35.1270   30.5250   47.9590 C   0  0  0  0  0  0  0  0  0  0  0  0
   34.0970   29.6120   47.9920 N   0  0  0  0  0  0  0  0  0  0  0  0
   34.1370   28.4970   48.7470 C   0  0  0  0  0  0  0  0  0  0  0  0
   35.2150   28.2230   49.5210 N   0  0  0  0  0  0  0  0  0  0  0  0
   38.0020   31.2390   46.3880 C   0  0  0  0  0  0  0  0  0  0  0  0
   39.2360   30.7100   46.1340 C   0  0  0  0  0  0  0  0  0  0  0  0
   39.1280   30.0640   44.8990 C   0  0  0  0  0  0  0  0  0  0  0  0
   37.8300   30.2440   44.4830 C   0  0  0  0  0  0  0  0  0  0  0  0
   37.1890   30.9390   45.3750 O   0  0  0  0  0  0  0  0  0  0  0  0
   37.8386   31.3257   50.8152 H   0  0  0  0  0  0  0  0  0  0  0  0
   39.1622   30.7877   49.8552 H   0  0  0  0  0  0  0  0  0  0  0  0
   37.6857   33.5622   49.6231 H   0  0  0  0  0  0  0  0  0  0  0  0
   39.3227   33.4272   50.1111 H   0  0  0  0  0  0  0  0  0  0  0  0
   39.0750   33.6766   47.4979 H   0  0  0  0  0  0  0  0  0  0  0  0
   39.8616   32.1853   47.8204 H   0  0  0  0  0  0  0  0  0  0  0  0
   36.7763   32.6621   47.3532 H   0  0  0  0  0  0  0  0  0  0  0  0
   37.1323   28.8374   50.1712 H   0  0  0  0  0  0  0  0  0  0  0  0
   35.0757   31.4304   47.3364 H   0  0  0  0  0  0  0  0  0  0  0  0
   33.2851   27.8012   48.7350 H   0  0  0  0  0  0  0  0  0  0  0  0
   40.1305   30.7784   46.7705 H   0  0  0  0  0  0  0  0  0  0  0  0
   39.9225   29.5205   44.3666 H   0  0  0  0  0  0  0  0  0  0  0  0
   37.4021   29.8609   43.5448 H   0  0  0  0  0  0  0  0  0  0  0  0
  1  7  1  0
  1  2  1  0
  3  2  1  0
  4  3  1  0
  5  4  1  0
  5  1  1  0
  7  6  2  0
  8  9  2  0
  8  7  1  0
  9 10  1  0
 10 11  2  0
 11  6  1  0
 12  5  1  0
 13 12  2  0
 14 13  1  0
 15 14  2  0
 15 16  1  0
 16 12  1  0
  2 17  1  0
  2 18  1  0
  3 19  1  0
  3 20  1  0
  4 21  1  0
  4 22  1  0
  5 23  1  6
  6 24  1  0
  8 25  1  0
 10 26  1  0
 13 27  1  0
 14 28  1  0
 15 29  1  0
M  ISO  8  17  13  18  13  19  13  20  13  21  13  22  13  23  13  24  14
M  ISO  5  25  14  26  14  27  14  28  14  29  14
M  END
>  <minimizedAffinity>  (1) 
-4.94322062

>  <minimizedRMSD>  (1) 
0.861947179

$$$$
