
     RDKit          3D

 30 32  0  0  1  0  0  0  0  0999 V2000
   37.3030   31.1660   48.7700 N   0  0  0  0  0  0  0  0  0  0  0  0
   38.2770   31.4120   49.8540 C   0  0  0  0  0  0  0  0  0  0  0  0
   38.6420   32.8490   49.5470 C   0  0  0  0  0  0  0  0  0  0  0  0
   38.8950   32.7360   48.0560 C   0  0  0  0  0  0  0  0  0  0  0  0
   37.6090   32.0410   47.6460 C   0  0  1  0  0  0  0  0  0  0  0  0
   36.2840   29.0030   49.4720 C   0  0  0  0  0  0  0  0  0  0  0  0
   36.2370   30.2450   48.7760 C   0  0  0  0  0  0  0  0  0  0  0  0
   35.0800   30.5630   48.0610 C   0  0  0  0  0  0  0  0  0  0  0  0
   34.0430   29.6650   48.0620 N   0  0  0  0  0  0  0  0  0  0  0  0
   34.1250   28.4930   48.7370 C   0  0  0  0  0  0  0  0  0  0  0  0
   35.2390   28.1770   49.4310 N   0  0  0  0  0  0  0  0  0  0  0  0
   37.7980   31.2690   46.3920 C   0  0  0  0  0  0  0  0  0  0  0  0
   39.1400   30.9250   46.2130 C   0  0  0  0  0  0  0  0  0  0  0  0
   39.5400   30.2000   45.0980 C   0  0  0  0  0  0  0  0  0  0  0  0
   38.6180   29.8270   44.1790 N   0  0  0  0  0  0  0  0  0  0  0  0
   37.3130   30.1760   44.3750 C   0  0  0  0  0  0  0  0  0  0  0  0
   36.9260   30.8720   45.4480 N   0  0  0  0  0  0  0  0  0  0  0  0
   37.8178   31.3095   50.8483 H   0  0  0  0  0  0  0  0  0  0  0  0
   39.1250   30.7121   49.8868 H   0  0  0  0  0  0  0  0  0  0  0  0
   37.8145   33.5384   49.7708 H   0  0  0  0  0  0  0  0  0  0  0  0
   39.4812   33.2520   50.1329 H   0  0  0  0  0  0  0  0  0  0  0  0
   39.0002   33.7221   47.5801 H   0  0  0  0  0  0  0  0  0  0  0  0
   39.8228   32.2175   47.7726 H   0  0  0  0  0  0  0  0  0  0  0  0
   36.7932   32.7484   47.4358 H   0  0  0  0  0  0  0  0  0  0  0  0
   37.1824   28.7259   50.0430 H   0  0  0  0  0  0  0  0  0  0  0  0
   35.0022   31.5117   47.5098 H   0  0  0  0  0  0  0  0  0  0  0  0
   33.2766   27.7930   48.7194 H   0  0  0  0  0  0  0  0  0  0  0  0
   39.8860   31.2308   46.9613 H   0  0  0  0  0  0  0  0  0  0  0  0
   40.5979   29.9308   44.9624 H   0  0  0  0  0  0  0  0  0  0  0  0
   36.5606   29.8766   43.6305 H   0  0  0  0  0  0  0  0  0  0  0  0
  1  7  1  0
  1  2  1  0
  3  2  1  0
  4  3  1  0
  5  4  1  0
  5  1  1  0
  7  6  2  0
  8  9  2  0
  8  7  1  0
  9 10  1  0
 10 11  2  0
 11  6  1  0
 12  5  1  0
 13 12  2  0
 14 13  1  0
 15 16  1  0
 15 14  2  0
 16 17  2  0
 17 12  1  0
  2 18  1  0
  2 19  1  0
  3 20  1  0
  3 21  1  0
  4 22  1  0
  4 23  1  0
  5 24  1  6
  6 25  1  0
  8 26  1  0
 10 27  1  0
 13 28  1  0
 14 29  1  0
 16 30  1  0
M  ISO  8  18  13  19  13  20  13  21  13  22  13  23  13  24  13  25  14
M  ISO  5  26  14  27  14  28  14  29  14  30  14
M  END
>  <minimizedAffinity>  (1) 
-4.88474464

>  <minimizedRMSD>  (1) 
1.04032981

$$$$
