
     RDKit          3D

 20 21  0  0  0  0  0  0  0  0999 V2000
   38.0360   33.0210   49.4650 C   0  0  0  0  0  0  0  0  0  0  0  0
   38.9020   32.9910   48.3570 C   0  0  0  0  0  0  0  0  0  0  0  0
   38.7040   32.0090   47.3940 C   0  0  0  0  0  0  0  0  0  0  0  0
   37.6750   31.1230   47.5730 N   0  0  0  0  0  0  0  0  0  0  0  0
   36.8610   31.1840   48.6530 C   0  0  0  0  0  0  0  0  0  0  0  0
   37.0390   32.1200   49.5850 N   0  0  0  0  0  0  0  0  0  0  0  0
   35.8310   30.1630   48.6680 C   0  0  0  0  0  0  0  0  0  0  0  0
   35.8400   29.1630   49.6550 C   0  0  0  0  0  0  0  0  0  0  0  0
   34.7580   28.3280   49.4380 C   0  0  0  0  0  0  0  0  0  0  0  0
   34.1300   28.8190   48.3570 N   0  0  0  0  0  0  0  0  0  0  0  0
   34.7560   29.8840   47.9130 N   0  0  0  0  0  0  0  0  0  0  0  0
   32.9250   28.2500   47.7620 C   0  0  0  0  0  0  0  0  0  0  0  0
   38.1731   33.7874   50.2421 H   0  0  0  0  0  0  0  0  0  0  0  0
   39.7145   33.7255   48.2555 H   0  0  0  0  0  0  0  0  0  0  0  0
   39.3567   31.9449   46.5109 H   0  0  0  0  0  0  0  0  0  0  0  0
   36.5804   29.0613   50.4621 H   0  0  0  0  0  0  0  0  0  0  0  0
   34.4716   27.4452   50.0284 H   0  0  0  0  0  0  0  0  0  0  0  0
   32.2399   27.9265   48.5595 H   0  0  0  0  0  0  0  0  0  0  0  0
   32.4299   29.0095   47.1390 H   0  0  0  0  0  0  0  0  0  0  0  0
   33.1969   27.3852   47.1390 H   0  0  0  0  0  0  0  0  0  0  0  0
  1  6  2  0
  2  1  1  0
  3  4  1  0
  3  2  2  0
  4  5  2  0
  5  7  1  0
  5  6  1  0
  7  8  1  0
  9  8  2  0
 10  9  1  0
 11 10  1  0
 11  7  2  0
 12 10  1  0
  1 13  1  0
  2 14  1  0
  3 15  1  0
  8 16  1  0
  9 17  1  0
 12 18  1  0
 12 19  1  0
 12 20  1  0
M  ISO  8  13  14  14  14  15  14  16  14  17  14  18   8  19   8  20   8
M  END
>  <minimizedAffinity>  (1) 
-4.24554634

>  <minimizedRMSD>  (1) 
0.469919592

$$$$
