
     RDKit          3D

 27 29  0  0  1  0  0  0  0  0999 V2000
   37.3110   31.1000   48.7930 N   0  0  0  0  0  0  0  0  0  0  0  0
   38.2780   31.3240   49.8810 C   0  0  0  0  0  0  0  0  0  0  0  0
   38.5670   32.8030   49.6370 C   0  0  0  0  0  0  0  0  0  0  0  0
   38.8440   32.7540   48.1510 C   0  0  0  0  0  0  0  0  0  0  0  0
   37.6330   31.9790   47.6840 C   0  0  1  0  0  0  0  0  0  0  0  0
   36.1950   28.9850   49.5330 C   0  0  0  0  0  0  0  0  0  0  0  0
   36.2390   30.1850   48.8000 C   0  0  0  0  0  0  0  0  0  0  0  0
   35.1150   30.5110   47.9990 C   0  0  0  0  0  0  0  0  0  0  0  0
   34.0610   29.6340   47.9930 N   0  0  0  0  0  0  0  0  0  0  0  0
   34.0610   28.5020   48.7050 C   0  0  0  0  0  0  0  0  0  0  0  0
   35.1170   28.1890   49.4620 N   0  0  0  0  0  0  0  0  0  0  0  0
   38.0370   31.2310   46.4630 C   0  0  0  0  0  0  0  0  0  0  0  0
   37.2740   30.9900   45.4030 N   0  0  0  0  0  0  0  0  0  0  0  0
   37.9150   30.3050   44.4860 O   0  0  0  0  0  0  0  0  0  0  0  0
   39.1130   30.1060   44.9750 C   0  0  0  0  0  0  0  0  0  0  0  0
   39.2290   30.6620   46.1950 N   0  0  0  0  0  0  0  0  0  0  0  0
   37.8335   31.1478   50.8716 H   0  0  0  0  0  0  0  0  0  0  0  0
   39.1565   30.6621   49.8790 H   0  0  0  0  0  0  0  0  0  0  0  0
   37.6991   33.4363   49.8732 H   0  0  0  0  0  0  0  0  0  0  0  0
   39.3712   33.2333   50.2519 H   0  0  0  0  0  0  0  0  0  0  0  0
   38.8799   33.7606   47.7090 H   0  0  0  0  0  0  0  0  0  0  0  0
   39.8123   32.3115   47.8744 H   0  0  0  0  0  0  0  0  0  0  0  0
   36.7574   32.5921   47.4242 H   0  0  0  0  0  0  0  0  0  0  0  0
   37.0473   28.6982   50.1666 H   0  0  0  0  0  0  0  0  0  0  0  0
   35.0896   31.4353   47.4032 H   0  0  0  0  0  0  0  0  0  0  0  0
   33.1920   27.8286   48.6676 H   0  0  0  0  0  0  0  0  0  0  0  0
   39.9156   29.5588   44.4589 H   0  0  0  0  0  0  0  0  0  0  0  0
  1  7  1  0
  1  2  1  0
  3  2  1  0
  4  3  1  0
  5  4  1  0
  5  1  1  0
  7  6  2  0
  8  7  1  0
  9  8  2  0
  9 10  1  0
 10 11  2  0
 11  6  1  0
 12  5  1  0
 13 12  2  0
 14 15  1  0
 14 13  1  0
 15 16  2  0
 16 12  1  0
  2 17  1  0
  2 18  1  0
  3 19  1  0
  3 20  1  0
  4 21  1  0
  4 22  1  0
  5 23  1  6
  6 24  1  0
  8 25  1  0
 10 26  1  0
 15 27  1  0
M  ISO  8  17  13  18  13  19  13  20  13  21  13  22  13  23  13  24  14
M  ISO  3  25  14  26  14  27  14
M  END
>  <minimizedAffinity>  (1) 
-4.78162336

>  <minimizedRMSD>  (1) 
1.08946812

$$$$
