
     RDKit          3D

 28 29  0  0  1  0  0  0  0  0999 V2000
   37.4530   31.2240   48.5140 N   0  0  0  0  0  0  0  0  0  0  0  0
   38.1990   31.7870   49.6260 C   0  0  0  0  0  0  0  0  0  0  0  0
   38.5950   33.1220   49.0570 C   0  0  0  0  0  0  0  0  0  0  0  0
   39.0300   32.7400   47.6800 C   0  0  0  0  0  0  0  0  0  0  0  0
   37.9630   31.7560   47.2630 C   0  0  1  0  0  0  0  0  0  0  0  0
   36.3350   29.2380   49.5380 C   0  0  0  0  0  0  0  0  0  0  0  0
   36.3920   30.2880   48.5750 C   0  0  0  0  0  0  0  0  0  0  0  0
   35.3450   30.3950   47.6240 C   0  0  0  0  0  0  0  0  0  0  0  0
   34.3420   29.4600   47.7020 N   0  0  0  0  0  0  0  0  0  0  0  0
   34.3390   28.4930   48.6260 C   0  0  0  0  0  0  0  0  0  0  0  0
   35.3190   28.3790   49.5330 N   0  0  0  0  0  0  0  0  0  0  0  0
   38.6990   30.6930   46.4730 C   0  0  0  0  0  0  0  0  0  0  0  0
   40.0120   31.2000   45.9830 C   0  0  0  0  0  0  0  0  0  0  0  0
   37.5683   31.8997   50.5202 H   0  0  0  0  0  0  0  0  0  0  0  0
   39.0436   31.1694   49.9653 H   0  0  0  0  0  0  0  0  0  0  0  0
   37.7426   33.8169   49.0311 H   0  0  0  0  0  0  0  0  0  0  0  0
   39.3641   33.6487   49.6410 H   0  0  0  0  0  0  0  0  0  0  0  0
   39.0484   33.6137   47.0119 H   0  0  0  0  0  0  0  0  0  0  0  0
   40.0485   32.3264   47.6402 H   0  0  0  0  0  0  0  0  0  0  0  0
   37.1390   32.1640   46.6592 H   0  0  0  0  0  0  0  0  0  0  0  0
   37.1338   29.1378   50.2876 H   0  0  0  0  0  0  0  0  0  0  0  0
   35.3368   31.1878   46.8615 H   0  0  0  0  0  0  0  0  0  0  0  0
   33.5091   27.7712   48.6419 H   0  0  0  0  0  0  0  0  0  0  0  0
   38.8699   29.8193   47.1192 H   0  0  0  0  0  0  0  0  0  0  0  0
   38.0849   30.4170   45.6031 H   0  0  0  0  0  0  0  0  0  0  0  0
   40.6531   31.4476   46.8419 H   0  0  0  0  0  0  0  0  0  0  0  0
   40.4995   30.4255   45.3727 H   0  0  0  0  0  0  0  0  0  0  0  0
   39.8525   32.1012   45.3727 H   0  0  0  0  0  0  0  0  0  0  0  0
  1  7  1  0
  1  2  1  0
  3  2  1  0
  4  3  1  0
  5  4  1  0
  5  1  1  0
  7  6  2  0
  8  9  2  0
  8  7  1  0
  9 10  1  0
 10 11  2  0
 11  6  1  0
 12  5  1  0
 13 12  1  0
  2 14  1  0
  2 15  1  0
  3 16  1  0
  3 17  1  0
  4 18  1  0
  4 19  1  0
  5 20  1  6
  6 21  1  0
  8 22  1  0
 10 23  1  0
 12 24  1  0
 12 25  1  0
 13 26  1  0
 13 27  1  0
 13 28  1  0
M  ISO  8  14  13  15  13  16  13  17  13  18  13  19  13  20  13  21  14
M  ISO  7  22  14  23  14  24   8  25   8  26   8  27   8  28   8
M  END
>  <minimizedAffinity>  (1) 
-4.60229921

>  <minimizedRMSD>  (1) 
0.653145432

$$$$
