
     RDKit          3D

 24 25  0  0  1  0  0  0  0  0999 V2000
   37.3790   31.3220   48.5370 N   0  0  0  0  0  0  0  0  0  0  0  0
   38.0390   31.9730   49.6600 C   0  0  0  0  0  0  0  0  0  0  0  0
   38.4870   33.2570   49.0040 C   0  0  0  0  0  0  0  0  0  0  0  0
   39.0920   32.7010   47.7290 C   0  0  0  0  0  0  0  0  0  0  0  0
   37.9410   31.8320   47.2720 C   0  0  1  0  0  0  0  0  0  0  0  0
   36.3550   29.2660   49.4890 C   0  0  0  0  0  0  0  0  0  0  0  0
   36.3580   30.3470   48.5600 C   0  0  0  0  0  0  0  0  0  0  0  0
   35.3050   30.4470   47.6170 C   0  0  0  0  0  0  0  0  0  0  0  0
   34.3360   29.4740   47.6650 N   0  0  0  0  0  0  0  0  0  0  0  0
   34.3670   28.4740   48.5510 C   0  0  0  0  0  0  0  0  0  0  0  0
   35.3610   28.3750   49.4470 N   0  0  0  0  0  0  0  0  0  0  0  0
   38.4250   30.6120   46.5640 C   0  0  0  0  0  0  0  0  0  0  0  0
   38.9310   30.2440   45.5230 O   0  0  0  0  0  0  0  0  0  0  0  0
   37.3405   32.1617   50.4886 H   0  0  0  0  0  0  0  0  0  0  0  0
   38.8468   31.3863   50.1217 H   0  0  0  0  0  0  0  0  0  0  0  0
   37.6397   33.9269   48.7960 H   0  0  0  0  0  0  0  0  0  0  0  0
   39.1664   33.8752   49.6092 H   0  0  0  0  0  0  0  0  0  0  0  0
   39.3219   33.4945   47.0027 H   0  0  0  0  0  0  0  0  0  0  0  0
   40.0537   32.1815   47.8522 H   0  0  0  0  0  0  0  0  0  0  0  0
   37.2647   32.3979   46.6145 H   0  0  0  0  0  0  0  0  0  0  0  0
   37.1610   29.1669   50.2310 H   0  0  0  0  0  0  0  0  0  0  0  0
   35.2653   31.2643   46.8819 H   0  0  0  0  0  0  0  0  0  0  0  0
   33.5655   27.7206   48.5457 H   0  0  0  0  0  0  0  0  0  0  0  0
   38.2687   29.7377   47.2130 H   0  0  0  0  0  0  0  0  0  0  0  0
  1  7  1  0
  1  2  1  0
  3  2  1  0
  4  3  1  0
  5  4  1  0
  5  1  1  0
  7  6  2  0
  8  9  2  0
  8  7  1  0
  9 10  1  0
 10 11  2  0
 11  6  1  0
 12  5  1  0
 13 12  2  0
  2 14  1  0
  2 15  1  0
  3 16  1  0
  3 17  1  0
  4 18  1  0
  4 19  1  0
  5 20  1  6
  6 21  1  0
  8 22  1  0
 10 23  1  0
 12 24  1  0
M  ISO  8  14  13  15  13  16  13  17  13  18  13  19  13  20  13  21  14
M  ISO  3  22  14  23  14  24   6
M  END
>  <minimizedAffinity>  (1) 
-4.21818256

>  <minimizedRMSD>  (1) 
0.823787332

$$$$
