
     RDKit          3D

 41 45  0  0  1  0  0  0  0  0999 V2000
   37.5370   31.3950   48.6220 N   0  0  0  0  0  0  0  0  0  0  0  0
   38.3790   31.6780   49.7790 C   0  0  0  0  0  0  0  0  0  0  0  0
   38.7090   33.1310   49.5490 C   0  0  0  0  0  0  0  0  0  0  0  0
   39.0770   33.0870   48.0770 C   0  0  0  0  0  0  0  0  0  0  0  0
   37.8960   32.2940   47.5600 C   0  0  1  0  0  0  0  0  0  0  0  0
   38.2880   31.6450   46.3130 C   0  0  0  0  0  0  0  0  0  0  0  0
   38.9610   30.4310   46.1080 C   0  0  0  0  0  0  0  0  0  0  0  0
   39.2440   30.0060   44.8390 C   0  0  0  0  0  0  0  0  0  0  0  0
   38.8790   30.7470   43.8130 N   0  0  0  0  0  0  0  0  0  0  0  0
   38.2300   31.9200   43.9640 C   0  0  0  0  0  0  0  0  0  0  0  0
   37.9560   32.3300   45.2240 N   0  0  0  0  0  0  0  0  0  0  0  0
   37.8500   32.6980   42.8090 N   0  0  0  0  0  0  0  0  0  0  0  0
   38.7470   33.2430   41.9660 C   0  0  0  0  0  0  0  0  0  0  0  0
   38.1710   33.9250   40.9620 N   0  0  0  0  0  0  0  0  0  0  0  0
   36.8360   33.8110   41.1760 C   0  0  0  0  0  0  0  0  0  0  0  0
   35.7470   34.2940   40.4890 C   0  0  0  0  0  0  0  0  0  0  0  0
   34.5200   33.9950   40.9750 N   0  0  0  0  0  0  0  0  0  0  0  0
   34.3700   33.2480   42.0990 C   0  0  0  0  0  0  0  0  0  0  0  0
   35.4340   32.7590   42.7970 N   0  0  0  0  0  0  0  0  0  0  0  0
   36.6740   33.0530   42.3170 C   0  0  0  0  0  0  0  0  0  0  0  0
   36.4300   29.3000   49.3790 C   0  0  0  0  0  0  0  0  0  0  0  0
   36.5370   30.4170   48.5300 C   0  0  0  0  0  0  0  0  0  0  0  0
   35.5740   30.5660   47.5120 C   0  0  0  0  0  0  0  0  0  0  0  0
   34.5880   29.6340   47.3940 N   0  0  0  0  0  0  0  0  0  0  0  0
   34.5230   28.5680   48.2390 C   0  0  0  0  0  0  0  0  0  0  0  0
   35.4470   28.4050   49.2300 N   0  0  0  0  0  0  0  0  0  0  0  0
   37.8313   31.5329   50.7219 H   0  0  0  0  0  0  0  0  0  0  0  0
   39.2581   31.0231   49.8700 H   0  0  0  0  0  0  0  0  0  0  0  0
   37.8411   33.7811   49.7337 H   0  0  0  0  0  0  0  0  0  0  0  0
   39.4878   33.5398   50.2096 H   0  0  0  0  0  0  0  0  0  0  0  0
   39.1242   34.0926   47.6336 H   0  0  0  0  0  0  0  0  0  0  0  0
   40.0665   32.6636   47.8497 H   0  0  0  0  0  0  0  0  0  0  0  0
   37.0118   32.8986   47.3097 H   0  0  0  0  0  0  0  0  0  0  0  0
   39.2621   29.8188   46.9709 H   0  0  0  0  0  0  0  0  0  0  0  0
   39.7714   29.0544   44.6769 H   0  0  0  0  0  0  0  0  0  0  0  0
   39.8356   33.1408   42.0864 H   0  0  0  0  0  0  0  0  0  0  0  0
   35.8687   34.9002   39.5792 H   0  0  0  0  0  0  0  0  0  0  0  0
   33.3538   33.0297   42.4591 H   0  0  0  0  0  0  0  0  0  0  0  0
   37.1694   29.1599   50.1813 H   0  0  0  0  0  0  0  0  0  0  0  0
   35.6180   31.4223   46.8230 H   0  0  0  0  0  0  0  0  0  0  0  0
   33.7162   27.8296   48.1214 H   0  0  0  0  0  0  0  0  0  0  0  0
  1  2  1  0
  3  2  1  0
  4  3  1  0
  5  4  1  0
  5  1  1  0
  6  5  1  0
  7  6  2  0
  8  7  1  0
  9 10  1  0
  9  8  2  0
 10 11  2  0
 11  6  1  0
 12 10  1  0
 13 12  1  0
 14 15  1  0
 14 13  2  0
 15 20  2  0
 16 17  2  0
 16 15  1  0
 17 18  1  0
 18 19  2  0
 20 19  1  0
 20 12  1  0
 22  1  1  0
 22 21  2  0
 23 22  1  0
 24 23  2  0
 24 25  1  0
 25 26  2  0
 26 21  1  0
  2 27  1  0
  2 28  1  0
  3 29  1  0
  3 30  1  0
  4 31  1  0
  4 32  1  0
  5 33  1  6
  7 34  1  0
  8 35  1  0
 13 36  1  0
 16 37  1  0
 18 38  1  0
 21 39  1  0
 23 40  1  0
 25 41  1  0
M  ISO  8  27  13  28  13  29  13  30  13  31  13  32  13  33  13  34  14
M  ISO  7  35  14  36  14  37  14  38  14  39  14  40  14  41  14
M  END
>  <minimizedAffinity>  (1) 
-6.59949875

>  <minimizedRMSD>  (1) 
0.467858016

$$$$
