
     RDKit          3D

 44 47  0  0  1  0  0  0  0  0999 V2000
   37.5290   31.3680   48.6660 N   0  0  0  0  0  0  0  0  0  0  0  0
   38.3810   31.6330   49.8170 C   0  0  0  0  0  0  0  0  0  0  0  0
   38.7020   33.0910   49.6180 C   0  0  0  0  0  0  0  0  0  0  0  0
   39.0490   33.0840   48.1460 C   0  0  0  0  0  0  0  0  0  0  0  0
   37.8810   32.2870   47.6180 C   0  0  1  0  0  0  0  0  0  0  0  0
   38.2730   31.6580   46.3590 C   0  0  0  0  0  0  0  0  0  0  0  0
   39.0180   30.4890   46.1390 C   0  0  0  0  0  0  0  0  0  0  0  0
   39.2890   30.0690   44.8700 C   0  0  0  0  0  0  0  0  0  0  0  0
   38.8290   30.7960   43.8450 N   0  0  0  0  0  0  0  0  0  0  0  0
   38.1140   31.9170   44.0110 C   0  0  0  0  0  0  0  0  0  0  0  0
   37.8580   32.3120   45.2800 N   0  0  0  0  0  0  0  0  0  0  0  0
   37.6390   32.6680   42.8750 N   0  0  0  0  0  0  0  0  0  0  0  0
   38.6610   33.1610   41.9930 C   0  0  0  0  0  0  0  0  0  0  0  0
   38.0970   33.6740   40.6930 C   0  0  0  0  0  0  0  0  0  0  0  0
   36.7840   34.2640   40.8640 N   0  0  0  0  0  0  0  0  0  0  0  0
   35.8780   33.2060   41.2690 C   0  0  0  0  0  0  0  0  0  0  0  0
   36.2170   32.8600   42.7150 C   0  0  0  0  0  0  0  0  0  0  0  0
   36.4090   29.2740   49.4060 C   0  0  0  0  0  0  0  0  0  0  0  0
   36.5200   30.3930   48.5550 C   0  0  0  0  0  0  0  0  0  0  0  0
   35.5720   30.5540   47.5290 C   0  0  0  0  0  0  0  0  0  0  0  0
   34.5860   29.6220   47.4020 N   0  0  0  0  0  0  0  0  0  0  0  0
   34.5130   28.5520   48.2470 C   0  0  0  0  0  0  0  0  0  0  0  0
   35.4180   28.3830   49.2380 N   0  0  0  0  0  0  0  0  0  0  0  0
   37.8445   31.4643   50.7623 H   0  0  0  0  0  0  0  0  0  0  0  0
   39.2654   30.9821   49.8819 H   0  0  0  0  0  0  0  0  0  0  0  0
   37.8342   33.7329   49.8300 H   0  0  0  0  0  0  0  0  0  0  0  0
   39.4881   33.4870   50.2778 H   0  0  0  0  0  0  0  0  0  0  0  0
   39.0756   34.1003   47.7259 H   0  0  0  0  0  0  0  0  0  0  0  0
   40.0416   32.6780   47.9011 H   0  0  0  0  0  0  0  0  0  0  0  0
   36.9934   32.8901   47.3764 H   0  0  0  0  0  0  0  0  0  0  0  0
   39.3862   29.9070   46.9968 H   0  0  0  0  0  0  0  0  0  0  0  0
   39.8725   29.1534   44.6931 H   0  0  0  0  0  0  0  0  0  0  0  0
   39.1955   33.9811   42.4946 H   0  0  0  0  0  0  0  0  0  0  0  0
   39.3360   32.3244   41.7597 H   0  0  0  0  0  0  0  0  0  0  0  0
   38.0199   32.8361   39.9845 H   0  0  0  0  0  0  0  0  0  0  0  0
   38.7730   34.4551   40.3149 H   0  0  0  0  0  0  0  0  0  0  0  0
   36.8186   34.9939   41.5899 H   0  0  0  0  0  0  0  0  0  0  0  0
   34.8364   33.5523   41.1974 H   0  0  0  0  0  0  0  0  0  0  0  0
   35.9858   32.3256   40.6184 H   0  0  0  0  0  0  0  0  0  0  0  0
   35.8878   33.6808   43.3692 H   0  0  0  0  0  0  0  0  0  0  0  0
   35.7020   31.9262   42.9848 H   0  0  0  0  0  0  0  0  0  0  0  0
   37.1406   29.1295   50.2147 H   0  0  0  0  0  0  0  0  0  0  0  0
   35.6251   31.4132   46.8441 H   0  0  0  0  0  0  0  0  0  0  0  0
   33.7056   27.8159   48.1199 H   0  0  0  0  0  0  0  0  0  0  0  0
  1  2  1  0
  3  2  1  0
  4  3  1  0
  5  4  1  0
  5  1  1  0
  6  5  1  0
  7  6  2  0
  8  7  1  0
  9 10  1  0
  9  8  2  0
 10 11  2  0
 11  6  1  0
 12 10  1  0
 13 12  1  0
 14 15  1  0
 14 13  1  0
 15 16  1  0
 16 17  1  0
 17 12  1  0
 19  1  1  0
 19 18  2  0
 20 19  1  0
 21 20  2  0
 21 22  1  0
 22 23  2  0
 23 18  1  0
  2 24  1  0
  2 25  1  0
  3 26  1  0
  3 27  1  0
  4 28  1  0
  4 29  1  0
  5 30  1  6
  7 31  1  0
  8 32  1  0
 13 33  1  0
 13 34  1  0
 14 35  1  0
 14 36  1  0
 15 37  1  0
 16 38  1  0
 16 39  1  0
 17 40  1  0
 17 41  1  0
 18 42  1  0
 20 43  1  0
 22 44  1  0
M  ISO  8  24  13  25  13  26  13  27  13  28  13  29  13  30  13  31  14
M  ISO  8  32  14  33  13  34  13  35  13  36  13  37   5  38  13  39  13
M  ISO  5  40  13  41  13  42  14  43  14  44  14
M  END
>  <minimizedAffinity>  (1) 
-6.13764095

>  <minimizedRMSD>  (1) 
0.222539112

$$$$
