
     RDKit          3D

 43 46  0  0  1  0  0  0  0  0999 V2000
   37.5560   31.3850   48.6620 N   0  0  0  0  0  0  0  0  0  0  0  0
   38.4270   31.6610   49.7940 C   0  0  0  0  0  0  0  0  0  0  0  0
   38.7440   33.1090   49.5850 C   0  0  0  0  0  0  0  0  0  0  0  0
   39.0630   33.0980   48.1030 C   0  0  0  0  0  0  0  0  0  0  0  0
   37.8850   32.2990   47.6020 C   0  0  1  0  0  0  0  0  0  0  0  0
   36.4540   29.2920   49.4360 C   0  0  0  0  0  0  0  0  0  0  0  0
   36.5500   30.4040   48.5760 C   0  0  0  0  0  0  0  0  0  0  0  0
   35.5850   30.5500   47.5620 C   0  0  0  0  0  0  0  0  0  0  0  0
   34.6030   29.6120   47.4620 N   0  0  0  0  0  0  0  0  0  0  0  0
   34.5440   28.5530   48.3100 C   0  0  0  0  0  0  0  0  0  0  0  0
   35.4680   28.3960   49.2940 N   0  0  0  0  0  0  0  0  0  0  0  0
   38.2550   31.6630   46.3400 C   0  0  0  0  0  0  0  0  0  0  0  0
   39.0780   30.5500   46.1060 C   0  0  0  0  0  0  0  0  0  0  0  0
   39.3120   30.1140   44.8330 C   0  0  0  0  0  0  0  0  0  0  0  0
   38.7390   30.7710   43.8190 N   0  0  0  0  0  0  0  0  0  0  0  0
   37.9470   31.8390   44.0000 C   0  0  0  0  0  0  0  0  0  0  0  0
   37.7310   32.2500   45.2700 N   0  0  0  0  0  0  0  0  0  0  0  0
   36.1170   33.7750   40.8250 C   0  0  0  0  0  0  0  0  0  0  0  0
   37.5130   33.7360   40.8390 C   0  0  0  0  0  0  0  0  0  0  0  0
   38.1300   33.0890   41.8990 C   0  0  0  0  0  0  0  0  0  0  0  0
   37.3310   32.5400   42.8500 C   0  0  0  0  0  0  0  0  0  0  0  0
   35.9520   32.5610   42.8690 C   0  0  0  0  0  0  0  0  0  0  0  0
   35.3070   33.2050   41.8130 C   0  0  0  0  0  0  0  0  0  0  0  0
   35.3780   34.6100   39.4570 S   0  0  0  0  0  0  0  0  0  0  0  0
   36.4090   35.1060   38.5040 O   0  0  0  0  0  0  0  0  0  0  0  0
   34.5530   35.7260   40.0330 O   0  0  0  0  0  0  0  0  0  0  0  0
   37.9070   31.4979   50.7495 H   0  0  0  0  0  0  0  0  0  0  0  0
   39.3137   31.0119   49.8447 H   0  0  0  0  0  0  0  0  0  0  0  0
   37.8813   33.7526   49.8120 H   0  0  0  0  0  0  0  0  0  0  0  0
   39.5437   33.5055   50.2279 H   0  0  0  0  0  0  0  0  0  0  0  0
   39.0807   34.1130   47.6793 H   0  0  0  0  0  0  0  0  0  0  0  0
   40.0508   32.6923   47.8392 H   0  0  0  0  0  0  0  0  0  0  0  0
   36.9921   32.8997   47.3742 H   0  0  0  0  0  0  0  0  0  0  0  0
   37.1985   29.1577   50.2346 H   0  0  0  0  0  0  0  0  0  0  0  0
   35.6231   31.4016   46.8668 H   0  0  0  0  0  0  0  0  0  0  0  0
   33.7379   27.8128   48.1990 H   0  0  0  0  0  0  0  0  0  0  0  0
   39.5385   30.0244   46.9555 H   0  0  0  0  0  0  0  0  0  0  0  0
   39.9568   29.2426   44.6462 H   0  0  0  0  0  0  0  0  0  0  0  0
   38.1030   34.2027   40.0364 H   0  0  0  0  0  0  0  0  0  0  0  0
   39.2259   33.0229   41.9670 H   0  0  0  0  0  0  0  0  0  0  0  0
   35.3838   32.0889   43.6840 H   0  0  0  0  0  0  0  0  0  0  0  0
   34.2098   33.2621   41.7595 H   0  0  0  0  0  0  0  0  0  0  0  0
   34.5871   33.7620   38.7275 H   0  0  0  0  0  0  0  0  0  0  0  0
  1  2  1  0
  3  2  1  0
  4  3  1  0
  5  4  1  0
  5  1  1  0
  7  1  1  0
  7  6  2  0
  8  7  1  0
  9  8  2  0
  9 10  1  0
 10 11  2  0
 11  6  1  0
 12  5  1  0
 13 12  2  0
 14 13  1  0
 15 16  1  0
 15 14  2  0
 16 17  2  0
 17 12  1  0
 18 19  2  0
 18 23  1  0
 19 20  1  0
 20 21  2  0
 21 22  1  0
 21 16  1  0
 23 22  2  0
 24 26  2  0
 24 18  1  0
 25 24  2  0
  2 27  1  0
  2 28  1  0
  3 29  1  0
  3 30  1  0
  4 31  1  0
  4 32  1  0
  5 33  1  6
  6 34  1  0
  8 35  1  0
 10 36  1  0
 13 37  1  0
 14 38  1  0
 19 39  1  0
 20 40  1  0
 22 41  1  0
 23 42  1  0
 24 43  1  0
M  ISO  8  27  13  28  13  29  13  30  13  31  13  32  13  33  13  34  14
M  ISO  8  35  14  36  14  37  14  38  14  39  14  40  14  41  14  42  14
M  ISO  1  43  11
M  END
>  <minimizedAffinity>  (1) 
-5.83804464

>  <minimizedRMSD>  (1) 
0.707646251

$$$$
