
     RDKit          3D

 36 39  0  0  1  0  0  0  0  0999 V2000
   37.5350   31.3820   48.6490 N   0  0  0  0  0  0  0  0  0  0  0  0
   38.3950   31.6580   49.7940 C   0  0  0  0  0  0  0  0  0  0  0  0
   38.7370   33.0960   49.5840 C   0  0  0  0  0  0  0  0  0  0  0  0
   39.0490   33.0950   48.1070 C   0  0  0  0  0  0  0  0  0  0  0  0
   37.8820   32.2920   47.5930 C   0  0  1  0  0  0  0  0  0  0  0  0
   36.4230   29.2870   49.3990 C   0  0  0  0  0  0  0  0  0  0  0  0
   36.5290   30.4020   48.5530 C   0  0  0  0  0  0  0  0  0  0  0  0
   35.5690   30.5540   47.5400 C   0  0  0  0  0  0  0  0  0  0  0  0
   34.5830   29.6250   47.4200 N   0  0  0  0  0  0  0  0  0  0  0  0
   34.5210   28.5550   48.2670 C   0  0  0  0  0  0  0  0  0  0  0  0
   35.4440   28.3920   49.2560 N   0  0  0  0  0  0  0  0  0  0  0  0
   38.2670   31.6530   46.3370 C   0  0  0  0  0  0  0  0  0  0  0  0
   38.9810   30.4640   46.1180 C   0  0  0  0  0  0  0  0  0  0  0  0
   39.2470   30.0440   44.8450 C   0  0  0  0  0  0  0  0  0  0  0  0
   38.8210   30.7730   43.8230 N   0  0  0  0  0  0  0  0  0  0  0  0
   38.1380   31.9090   43.9910 C   0  0  0  0  0  0  0  0  0  0  0  0
   37.8790   32.3180   45.2540 N   0  0  0  0  0  0  0  0  0  0  0  0
   37.6840   32.6890   42.8130 C   0  0  0  0  0  0  0  0  0  0  0  0
   36.3400   32.9350   42.4340 C   0  0  0  0  0  0  0  0  0  0  0  0
   36.6010   33.9460   40.9130 S   0  0  0  0  0  0  0  0  0  0  0  0
   38.4910   33.8410   41.0840 C   0  0  0  0  0  0  0  0  0  0  0  0
   38.6420   33.1920   42.0620 N   0  0  0  0  0  0  0  0  0  0  0  0
   37.8582   31.5090   50.7425 H   0  0  0  0  0  0  0  0  0  0  0  0
   39.2724   30.9979   49.8597 H   0  0  0  0  0  0  0  0  0  0  0  0
   37.8869   33.7535   49.8185 H   0  0  0  0  0  0  0  0  0  0  0  0
   39.5504   33.4705   50.2228 H   0  0  0  0  0  0  0  0  0  0  0  0
   39.0585   34.1133   47.6912 H   0  0  0  0  0  0  0  0  0  0  0  0
   40.0389   32.6944   47.8431 H   0  0  0  0  0  0  0  0  0  0  0  0
   36.9928   32.8927   47.3514 H   0  0  0  0  0  0  0  0  0  0  0  0
   37.1649   29.1478   50.1991 H   0  0  0  0  0  0  0  0  0  0  0  0
   35.6136   31.4121   46.8532 H   0  0  0  0  0  0  0  0  0  0  0  0
   33.7154   27.8153   48.1491 H   0  0  0  0  0  0  0  0  0  0  0  0
   39.3278   29.8679   46.9749 H   0  0  0  0  0  0  0  0  0  0  0  0
   39.8071   29.1135   44.6707 H   0  0  0  0  0  0  0  0  0  0  0  0
   35.4035   32.6131   42.9129 H   0  0  0  0  0  0  0  0  0  0  0  0
   39.2601   34.2786   40.4306 H   0  0  0  0  0  0  0  0  0  0  0  0
  1  2  1  0
  3  2  1  0
  4  3  1  0
  5  4  1  0
  5  1  1  0
  7  1  1  0
  7  6  2  0
  8  7  1  0
  9  8  2  0
  9 10  1  0
 10 11  2  0
 11  6  1  0
 12  5  1  0
 13 12  2  0
 14 13  1  0
 15 16  1  0
 15 14  2  0
 16 17  2  0
 17 12  1  0
 18 16  1  0
 19 18  2  0
 20 21  1  0
 20 19  1  0
 21 22  2  0
 22 18  1  0
  2 23  1  0
  2 24  1  0
  3 25  1  0
  3 26  1  0
  4 27  1  0
  4 28  1  0
  5 29  1  6
  6 30  1  0
  8 31  1  0
 10 32  1  0
 13 33  1  0
 14 34  1  0
 19 35  1  0
 21 36  1  0
M  ISO  8  23  13  24  13  25  13  26  13  27  13  28  13  29  13  30  14
M  ISO  6  31  14  32  14  33  14  34  14  35  14  36  14
M  END
>  <minimizedAffinity>  (1) 
-5.7598505

>  <minimizedRMSD>  (1) 
0.241391122

$$$$
