
     RDKit          3D

 37 40  0  0  1  0  0  0  0  0999 V2000
   37.5390   31.3820   48.6440 N   0  0  0  0  0  0  0  0  0  0  0  0
   38.3980   31.6470   49.7940 C   0  0  0  0  0  0  0  0  0  0  0  0
   38.7170   33.1030   49.5840 C   0  0  0  0  0  0  0  0  0  0  0  0
   39.0590   33.0930   48.1070 C   0  0  0  0  0  0  0  0  0  0  0  0
   37.8820   32.2970   47.5890 C   0  0  1  0  0  0  0  0  0  0  0  0
   36.4240   29.2840   49.3850 C   0  0  0  0  0  0  0  0  0  0  0  0
   36.5350   30.4040   48.5480 C   0  0  0  0  0  0  0  0  0  0  0  0
   35.5700   30.5650   47.5330 C   0  0  0  0  0  0  0  0  0  0  0  0
   34.5830   29.6350   47.4110 N   0  0  0  0  0  0  0  0  0  0  0  0
   34.5230   28.5620   48.2550 C   0  0  0  0  0  0  0  0  0  0  0  0
   35.4420   28.3930   49.2360 N   0  0  0  0  0  0  0  0  0  0  0  0
   38.2720   31.6560   46.3330 C   0  0  0  0  0  0  0  0  0  0  0  0
   38.9430   30.4400   46.1170 C   0  0  0  0  0  0  0  0  0  0  0  0
   39.2270   30.0220   44.8500 C   0  0  0  0  0  0  0  0  0  0  0  0
   38.8600   30.7820   43.8250 N   0  0  0  0  0  0  0  0  0  0  0  0
   38.2210   31.9440   43.9920 C   0  0  0  0  0  0  0  0  0  0  0  0
   37.9420   32.3520   45.2520 N   0  0  0  0  0  0  0  0  0  0  0  0
   37.8540   32.7170   42.8080 C   0  0  0  0  0  0  0  0  0  0  0  0
   38.8420   33.2180   41.9820 C   0  0  0  0  0  0  0  0  0  0  0  0
   38.2090   33.9070   40.9420 C   0  0  0  0  0  0  0  0  0  0  0  0
   36.8690   33.7990   41.1780 N   0  0  0  0  0  0  0  0  0  0  0  0
   36.6570   33.0990   42.2730 N   0  0  0  0  0  0  0  0  0  0  0  0
   37.8656   31.4827   50.7424 H   0  0  0  0  0  0  0  0  0  0  0  0
   39.2808   30.9942   49.8608 H   0  0  0  0  0  0  0  0  0  0  0  0
   37.8494   33.7449   49.7969 H   0  0  0  0  0  0  0  0  0  0  0  0
   39.5072   33.5010   50.2377 H   0  0  0  0  0  0  0  0  0  0  0  0
   39.0867   34.1082   47.6845 H   0  0  0  0  0  0  0  0  0  0  0  0
   40.0493   32.6850   47.8565 H   0  0  0  0  0  0  0  0  0  0  0  0
   36.9941   32.9005   47.3493 H   0  0  0  0  0  0  0  0  0  0  0  0
   37.1651   29.1365   50.1843 H   0  0  0  0  0  0  0  0  0  0  0  0
   35.6136   31.4272   46.8513 H   0  0  0  0  0  0  0  0  0  0  0  0
   33.7160   27.8240   48.1361 H   0  0  0  0  0  0  0  0  0  0  0  0
   39.2413   29.8209   46.9759 H   0  0  0  0  0  0  0  0  0  0  0  0
   39.7518   29.0703   44.6801 H   0  0  0  0  0  0  0  0  0  0  0  0
   39.9269   33.0972   42.1174 H   0  0  0  0  0  0  0  0  0  0  0  0
   38.6931   34.4298   40.1039 H   0  0  0  0  0  0  0  0  0  0  0  0
   36.1310   34.2058   40.5858 H   0  0  0  0  0  0  0  0  0  0  0  0
  1  2  1  0
  3  2  1  0
  4  3  1  0
  5  4  1  0
  5  1  1  0
  7  1  1  0
  7  6  2  0
  8  7  1  0
  9  8  2  0
  9 10  1  0
 10 11  2  0
 11  6  1  0
 12  5  1  0
 13 12  2  0
 14 13  1  0
 15 16  1  0
 15 14  2  0
 16 17  2  0
 17 12  1  0
 18 16  1  0
 19 18  1  0
 20 21  1  0
 20 19  2  0
 21 22  1  0
 22 18  2  0
  2 23  1  0
  2 24  1  0
  3 25  1  0
  3 26  1  0
  4 27  1  0
  4 28  1  0
  5 29  1  6
  6 30  1  0
  8 31  1  0
 10 32  1  0
 13 33  1  0
 14 34  1  0
 19 35  1  0
 20 36  1  0
 21 37  1  0
M  ISO  8  23  13  24  13  25  13  26  13  27  13  28  13  29  13  30  14
M  ISO  7  31  14  32  14  33  14  34  14  35  14  36  14  37   9
M  END
>  <minimizedAffinity>  (1) 
-5.74189091

>  <minimizedRMSD>  (1) 
0.468138576

$$$$
