
     RDKit          3D

 43 46  0  0  1  0  0  0  0  0999 V2000
   37.5390   31.3840   48.6470 N   0  0  0  0  0  0  0  0  0  0  0  0
   38.3950   31.6680   49.7870 C   0  0  0  0  0  0  0  0  0  0  0  0
   38.7370   33.1050   49.5660 C   0  0  0  0  0  0  0  0  0  0  0  0
   39.0590   33.0880   48.0870 C   0  0  0  0  0  0  0  0  0  0  0  0
   37.8850   32.2870   47.5830 C   0  0  1  0  0  0  0  0  0  0  0  0
   36.4400   29.2890   49.4220 C   0  0  0  0  0  0  0  0  0  0  0  0
   36.5310   30.4040   48.5570 C   0  0  0  0  0  0  0  0  0  0  0  0
   35.5670   30.5560   47.5420 C   0  0  0  0  0  0  0  0  0  0  0  0
   34.5830   29.6200   47.4370 N   0  0  0  0  0  0  0  0  0  0  0  0
   34.5250   28.5560   48.2900 C   0  0  0  0  0  0  0  0  0  0  0  0
   35.4500   28.3940   49.2760 N   0  0  0  0  0  0  0  0  0  0  0  0
   38.2620   31.6400   46.3290 C   0  0  0  0  0  0  0  0  0  0  0  0
   38.9760   30.4500   46.1160 C   0  0  0  0  0  0  0  0  0  0  0  0
   39.2360   30.0230   44.8440 C   0  0  0  0  0  0  0  0  0  0  0  0
   38.8040   30.7450   43.8180 N   0  0  0  0  0  0  0  0  0  0  0  0
   38.1220   31.8810   43.9830 C   0  0  0  0  0  0  0  0  0  0  0  0
   37.8680   32.2990   45.2440 N   0  0  0  0  0  0  0  0  0  0  0  0
   37.6590   32.6540   42.7780 C   0  0  0  0  0  0  0  0  0  0  0  0
   38.8120   33.2390   42.0120 C   0  0  0  0  0  0  0  0  0  0  0  0
   39.0850   32.1770   40.9680 C   0  0  0  0  0  0  0  0  0  0  0  0
   37.7020   31.7480   40.5320 C   0  0  0  0  0  0  0  0  0  0  0  0
   36.9260   31.7350   41.8170 C   0  0  0  0  0  0  0  0  0  0  0  0
   37.8573   31.5262   50.7361 H   0  0  0  0  0  0  0  0  0  0  0  0
   39.2725   31.0085   49.8588 H   0  0  0  0  0  0  0  0  0  0  0  0
   37.8849   33.7640   49.7885 H   0  0  0  0  0  0  0  0  0  0  0  0
   39.5453   33.4874   50.2066 H   0  0  0  0  0  0  0  0  0  0  0  0
   39.0774   34.1015   47.6598 H   0  0  0  0  0  0  0  0  0  0  0  0
   40.0477   32.6808   47.8288 H   0  0  0  0  0  0  0  0  0  0  0  0
   36.9967   32.8894   47.3423 H   0  0  0  0  0  0  0  0  0  0  0  0
   37.1853   29.1541   50.2197 H   0  0  0  0  0  0  0  0  0  0  0  0
   35.6076   31.4103   46.8503 H   0  0  0  0  0  0  0  0  0  0  0  0
   33.7176   27.8172   48.1791 H   0  0  0  0  0  0  0  0  0  0  0  0
   39.3271   29.8597   46.9752 H   0  0  0  0  0  0  0  0  0  0  0  0
   39.7966   29.0921   44.6729 H   0  0  0  0  0  0  0  0  0  0  0  0
   37.0076   33.4567   43.1540 H   0  0  0  0  0  0  0  0  0  0  0  0
   38.5339   34.1946   41.5435 H   0  0  0  0  0  0  0  0  0  0  0  0
   39.6843   33.4696   42.6412 H   0  0  0  0  0  0  0  0  0  0  0  0
   39.6525   32.5932   40.1226 H   0  0  0  0  0  0  0  0  0  0  0  0
   39.6911   31.3435   41.3526 H   0  0  0  0  0  0  0  0  0  0  0  0
   37.2724   32.4671   39.8190 H   0  0  0  0  0  0  0  0  0  0  0  0
   37.6946   30.7778   40.0137 H   0  0  0  0  0  0  0  0  0  0  0  0
   35.9034   32.1027   41.6462 H   0  0  0  0  0  0  0  0  0  0  0  0
   36.8507   30.7157   42.2237 H   0  0  0  0  0  0  0  0  0  0  0  0
  1  2  1  0
  3  2  1  0
  4  3  1  0
  5  4  1  0
  5  1  1  0
  7  1  1  0
  7  6  2  0
  8  7  1  0
  9  8  2  0
  9 10  1  0
 10 11  2  0
 11  6  1  0
 12  5  1  0
 13 12  2  0
 14 13  1  0
 15 16  1  0
 15 14  2  0
 16 17  2  0
 17 12  1  0
 18 16  1  0
 19 18  1  0
 20 19  1  0
 21 20  1  0
 21 22  1  0
 22 18  1  0
  2 23  1  0
  2 24  1  0
  3 25  1  0
  3 26  1  0
  4 27  1  0
  4 28  1  0
  5 29  1  6
  6 30  1  0
  8 31  1  0
 10 32  1  0
 13 33  1  0
 14 34  1  0
 18 35  1  0
 19 36  1  0
 19 37  1  0
 20 38  1  0
 20 39  1  0
 21 40  1  0
 21 41  1  0
 22 42  1  0
 22 43  1  0
M  ISO  8  23  13  24  13  25  13  26  13  27  13  28  13  29  13  30  14
M  ISO  8  31  14  32  14  33  14  34  14  35  13  36  13  37  13  38  13
M  ISO  5  39  13  40  13  41  13  42  13  43  13
M  END
>  <minimizedAffinity>  (1) 
-5.4958334

>  <minimizedRMSD>  (1) 
0.246006206

$$$$
