
     RDKit          3D

 33 35  0  0  1  0  0  0  0  0999 V2000
   37.5420   31.3650   48.6560 N   0  0  0  0  0  0  0  0  0  0  0  0
   38.4180   31.6450   49.7840 C   0  0  0  0  0  0  0  0  0  0  0  0
   38.7410   33.0900   49.5640 C   0  0  0  0  0  0  0  0  0  0  0  0
   39.0560   33.0700   48.0830 C   0  0  0  0  0  0  0  0  0  0  0  0
   37.8680   32.2720   47.5920 C   0  0  1  0  0  0  0  0  0  0  0  0
   36.4520   29.2730   49.4410 C   0  0  0  0  0  0  0  0  0  0  0  0
   36.5350   30.3840   48.5800 C   0  0  0  0  0  0  0  0  0  0  0  0
   35.5560   30.5350   47.5760 C   0  0  0  0  0  0  0  0  0  0  0  0
   34.5740   29.5960   47.4850 N   0  0  0  0  0  0  0  0  0  0  0  0
   34.5240   28.5340   48.3360 C   0  0  0  0  0  0  0  0  0  0  0  0
   35.4550   28.3770   49.3010 N   0  0  0  0  0  0  0  0  0  0  0  0
   38.2280   31.6330   46.3300 C   0  0  0  0  0  0  0  0  0  0  0  0
   39.0380   30.5120   46.0930 C   0  0  0  0  0  0  0  0  0  0  0  0
   39.2560   30.0840   44.8110 C   0  0  0  0  0  0  0  0  0  0  0  0
   38.6950   30.7360   43.8030 N   0  0  0  0  0  0  0  0  0  0  0  0
   37.9180   31.8080   43.9930 C   0  0  0  0  0  0  0  0  0  0  0  0
   37.7060   32.2250   45.2610 N   0  0  0  0  0  0  0  0  0  0  0  0
   37.3390   32.4650   42.8010 C   0  0  0  0  0  0  0  0  0  0  0  0
   37.9001   31.4910   50.7421 H   0  0  0  0  0  0  0  0  0  0  0  0
   39.3018   30.9922   49.8366 H   0  0  0  0  0  0  0  0  0  0  0  0
   37.8817   33.7387   49.7893 H   0  0  0  0  0  0  0  0  0  0  0  0
   39.5448   33.4861   50.2020 H   0  0  0  0  0  0  0  0  0  0  0  0
   39.0774   34.0824   47.6533 H   0  0  0  0  0  0  0  0  0  0  0  0
   40.0411   32.6591   47.8170 H   0  0  0  0  0  0  0  0  0  0  0  0
   36.9747   32.8738   47.3688 H   0  0  0  0  0  0  0  0  0  0  0  0
   37.2044   29.1357   50.2316 H   0  0  0  0  0  0  0  0  0  0  0  0
   35.5850   31.3896   46.8840 H   0  0  0  0  0  0  0  0  0  0  0  0
   33.7153   27.7951   48.2359 H   0  0  0  0  0  0  0  0  0  0  0  0
   39.4978   29.9772   46.9372 H   0  0  0  0  0  0  0  0  0  0  0  0
   39.8912   29.2066   44.6194 H   0  0  0  0  0  0  0  0  0  0  0  0
   36.6429   33.2549   43.1195 H   0  0  0  0  0  0  0  0  0  0  0  0
   38.1456   32.9082   42.1985 H   0  0  0  0  0  0  0  0  0  0  0  0
   36.7979   31.7205   42.1985 H   0  0  0  0  0  0  0  0  0  0  0  0
  1  2  1  0
  3  2  1  0
  4  3  1  0
  5  4  1  0
  5  1  1  0
  7  1  1  0
  7  6  2  0
  8  7  1  0
  9  8  2  0
  9 10  1  0
 10 11  2  0
 11  6  1  0
 12  5  1  0
 13 12  2  0
 14 13  1  0
 15 16  1  0
 15 14  2  0
 16 17  2  0
 17 12  1  0
 18 16  1  0
  2 19  1  0
  2 20  1  0
  3 21  1  0
  3 22  1  0
  4 23  1  0
  4 24  1  0
  5 25  1  6
  6 26  1  0
  8 27  1  0
 10 28  1  0
 13 29  1  0
 14 30  1  0
 18 31  1  0
 18 32  1  0
 18 33  1  0
M  ISO  8  19  13  20  13  21  13  22  13  23  13  24  13  25  13  26  14
M  ISO  7  27  14  28  14  29  14  30  14  31   8  32   8  33   8
M  END
>  <minimizedAffinity>  (1) 
-5.220469

>  <minimizedRMSD>  (1) 
0.0265735276

$$$$
