
     RDKit          3D

 24 26  0  0  0  0  0  0  0  0999 V2000
   38.6760   31.8590   47.3380 N   0  0  0  0  0  0  0  0  0  0  0  0
   39.2540   33.0540   47.5870 C   0  0  0  0  0  0  0  0  0  0  0  0
   40.0870   33.4060   46.5960 N   0  0  0  0  0  0  0  0  0  0  0  0
   40.0550   32.4290   45.6830 C   0  0  0  0  0  0  0  0  0  0  0  0
   40.6650   32.2070   44.4820 C   0  0  0  0  0  0  0  0  0  0  0  0
   40.4650   31.1100   43.7190 N   0  0  0  0  0  0  0  0  0  0  0  0
   39.5930   30.1980   44.2220 C   0  0  0  0  0  0  0  0  0  0  0  0
   38.9910   30.4040   45.3930 N   0  0  0  0  0  0  0  0  0  0  0  0
   39.1590   31.4660   46.1710 C   0  0  0  0  0  0  0  0  0  0  0  0
   36.5130   30.8180   47.6600 C   0  0  0  0  0  0  0  0  0  0  0  0
   37.7580   31.2110   48.1740 C   0  0  0  0  0  0  0  0  0  0  0  0
   38.0380   30.9410   49.5000 C   0  0  0  0  0  0  0  0  0  0  0  0
   37.0690   30.3010   50.2330 N   0  0  0  0  0  0  0  0  0  0  0  0
   35.8860   29.9350   49.7190 C   0  0  0  0  0  0  0  0  0  0  0  0
   35.6130   30.1920   48.4450 N   0  0  0  0  0  0  0  0  0  0  0  0
   34.8740   29.2410   50.5670 C   0  0  0  0  0  0  0  0  0  0  0  0
   33.6790   29.9400   50.5730 F   0  0  0  0  0  0  0  0  0  0  0  0
   35.2800   29.0410   51.8530 F   0  0  0  0  0  0  0  0  0  0  0  0
   34.5840   27.9790   50.0340 F   0  0  0  0  0  0  0  0  0  0  0  0
   39.0662   33.6600   48.4856 H   0  0  0  0  0  0  0  0  0  0  0  0
   41.3646   32.9707   44.1115 H   0  0  0  0  0  0  0  0  0  0  0  0
   39.3813   29.2787   43.6562 H   0  0  0  0  0  0  0  0  0  0  0  0
   36.2689   31.0224   46.6071 H   0  0  0  0  0  0  0  0  0  0  0  0
   38.9996   31.2276   49.9508 H   0  0  0  0  0  0  0  0  0  0  0  0
  1  2  1  0
  1 11  1  0
  3  2  2  0
  4  9  2  0
  4  3  1  0
  5  4  1  0
  6  7  1  0
  6  5  2  0
  7  8  2  0
  8  9  1  0
  9  1  1  0
 10 11  2  0
 10 15  1  0
 11 12  1  0
 12 13  2  0
 14 13  1  0
 14 16  1  0
 15 14  2  0
 16 17  1  0
 16 18  1  0
 19 16  1  0
  2 20  1  0
  5 21  1  0
  7 22  1  0
 10 23  1  0
 12 24  1  0
M  ISO  5  20  14  21  14  22  14  23  14  24  14
M  END
>  <minimizedAffinity>  (1) 
-5.91455317

>  <minimizedRMSD>  (1) 
1.76455188

$$$$
