
     RDKit          3D

 22 24  0  0  0  0  0  0  0  0999 V2000
   36.7900   31.1250   48.6970 N   0  0  0  0  0  0  0  0  0  0  0  0
   37.0740   31.8650   49.7720 C   0  0  0  0  0  0  0  0  0  0  0  0
   38.0860   32.7110   49.5510 N   0  0  0  0  0  0  0  0  0  0  0  0
   38.4810   32.5130   48.2760 C   0  0  0  0  0  0  0  0  0  0  0  0
   39.4460   33.0480   47.4570 C   0  0  0  0  0  0  0  0  0  0  0  0
   39.6550   32.6790   46.1910 N   0  0  0  0  0  0  0  0  0  0  0  0
   38.8340   31.7040   45.7160 C   0  0  0  0  0  0  0  0  0  0  0  0
   37.8890   31.1730   46.5030 N   0  0  0  0  0  0  0  0  0  0  0  0
   37.6520   31.5160   47.7680 C   0  0  0  0  0  0  0  0  0  0  0  0
   34.7310   30.3240   47.6910 C   0  0  0  0  0  0  0  0  0  0  0  0
   35.7910   30.1530   48.6050 C   0  0  0  0  0  0  0  0  0  0  0  0
   35.8030   29.0110   49.3900 C   0  0  0  0  0  0  0  0  0  0  0  0
   34.7800   28.1070   49.2320 N   0  0  0  0  0  0  0  0  0  0  0  0
   33.7850   28.3030   48.3520 C   0  0  0  0  0  0  0  0  0  0  0  0
   33.7600   29.3910   47.5930 N   0  0  0  0  0  0  0  0  0  0  0  0
   32.4580   27.1200   48.1550 S   0  0  0  0  0  0  0  0  0  0  0  0
   36.5373   31.7875   50.7290 H   0  0  0  0  0  0  0  0  0  0  0  0
   40.0914   33.8353   47.8735 H   0  0  0  0  0  0  0  0  0  0  0  0
   38.9466   31.3499   44.6807 H   0  0  0  0  0  0  0  0  0  0  0  0
   34.6950   31.2210   47.0553 H   0  0  0  0  0  0  0  0  0  0  0  0
   36.6079   28.8333   50.1184 H   0  0  0  0  0  0  0  0  0  0  0  0
   32.0130   26.7233   49.3885 H   0  0  0  0  0  0  0  0  0  0  0  0
  1  2  1  0
  3  2  2  0
  4  3  1  0
  5  4  2  0
  6  5  1  0
  7  6  2  0
  7  8  1  0
  8  9  2  0
  9  4  1  0
  9  1  1  0
 10 11  2  0
 11  1  1  0
 11 12  1  0
 13 12  2  0
 14 13  1  0
 15 10  1  0
 15 14  2  0
 16 14  1  0
  2 17  1  0
  5 18  1  0
  7 19  1  0
 10 20  1  0
 12 21  1  0
 16 22  1  0
M  ISO  6  17  14  18  14  19  14  20  14  21  14  22  11
M  END
>  <minimizedAffinity>  (1) 
-4.88552856

>  <minimizedRMSD>  (1) 
2.17306757

$$$$
