
     RDKit          3D

 42 47  0  0  1  0  0  0  0  0999 V2000
   35.0300   30.4280   47.4610 C   0  0  0  0  0  0  0  0  0  0  0  0
   36.1800   30.2640   48.2330 C   0  0  0  0  0  0  0  0  0  0  0  0
   36.1570   29.3080   49.2210 C   0  0  0  0  0  0  0  0  0  0  0  0
   35.0010   28.5750   49.3850 N   0  0  0  0  0  0  0  0  0  0  0  0
   33.9250   28.7560   48.6340 C   0  0  0  0  0  0  0  0  0  0  0  0
   33.9290   29.6840   47.6640 N   0  0  0  0  0  0  0  0  0  0  0  0
   37.3060   31.0510   47.9940 N   0  0  0  0  0  0  0  0  0  0  0  0
   37.7730   32.0280   48.7930 C   0  0  0  0  0  0  0  0  0  0  0  0
   38.8690   32.6070   48.3000 N   0  0  0  0  0  0  0  0  0  0  0  0
   39.1380   31.9830   47.1220 C   0  0  0  0  0  0  0  0  0  0  0  0
   40.0980   32.1100   46.1650 C   0  0  0  0  0  0  0  0  0  0  0  0
   40.1490   31.3520   45.0590 N   0  0  0  0  0  0  0  0  0  0  0  0
   39.1720   30.4130   44.9140 C   0  0  0  0  0  0  0  0  0  0  0  0
   38.2310   30.2910   45.8530 N   0  0  0  0  0  0  0  0  0  0  0  0
   38.1410   31.0110   46.9540 C   0  0  0  0  0  0  0  0  0  0  0  0
   32.7080   27.9100   48.8930 C   0  0  2  0  0  0  0  0  0  0  0  0
   32.5410   26.7750   47.8320 C   0  0  0  0  0  0  0  0  0  0  0  0
   31.5820   27.9080   47.9460 C   0  0  1  0  0  0  0  0  0  0  0  0
   30.2090   27.6670   48.4450 C   0  0  0  0  0  0  0  0  0  0  0  0
   30.2590   27.2470   49.7420 N   0  0  0  0  0  0  0  0  0  0  0  0
   29.1320   27.0020   50.4550 C   0  0  0  0  0  0  0  0  0  0  0  0
   27.9280   27.1790   49.8520 N   0  0  0  0  0  0  0  0  0  0  0  0
   27.8170   27.5850   48.5870 C   0  0  0  0  0  0  0  0  0  0  0  0
   26.6490   27.7830   47.8840 C   0  0  0  0  0  0  0  0  0  0  0  0
   26.6670   28.2000   46.5500 C   0  0  0  0  0  0  0  0  0  0  0  0
   27.8610   28.4330   45.8740 C   0  0  0  0  0  0  0  0  0  0  0  0
   29.0310   28.2370   46.5770 C   0  0  0  0  0  0  0  0  0  0  0  0
   28.9670   27.8310   47.8780 C   0  0  0  0  0  0  0  0  0  0  0  0
   35.0238   31.1867   46.6645 H   0  0  0  0  0  0  0  0  0  0  0  0
   37.0344   29.1334   49.8611 H   0  0  0  0  0  0  0  0  0  0  0  0
   37.3039   32.3166   49.7452 H   0  0  0  0  0  0  0  0  0  0  0  0
   40.8745   32.8762   46.3063 H   0  0  0  0  0  0  0  0  0  0  0  0
   39.1589   29.7599   44.0290 H   0  0  0  0  0  0  0  0  0  0  0  0
   32.7543   28.0309   49.9854 H   0  0  0  0  0  0  0  0  0  0  0  0
   32.2452   25.7620   48.1425 H   0  0  0  0  0  0  0  0  0  0  0  0
   33.1607   26.3396   47.0343 H   0  0  0  0  0  0  0  0  0  0  0  0
   31.1973   28.6440   47.2247 H   0  0  0  0  0  0  0  0  0  0  0  0
   29.1917   26.6666   51.5009 H   0  0  0  0  0  0  0  0  0  0  0  0
   25.6836   27.6096   48.3820 H   0  0  0  0  0  0  0  0  0  0  0  0
   25.7137   28.3477   46.0213 H   0  0  0  0  0  0  0  0  0  0  0  0
   27.8710   28.7596   44.8237 H   0  0  0  0  0  0  0  0  0  0  0  0
   30.0049   28.4061   46.0943 H   0  0  0  0  0  0  0  0  0  0  0  0
  1  6  2  0
  1  2  1  0
  2  3  2  0
  3  4  1  0
  5 16  1  0
  5  4  2  0
  6  5  1  0
  7  2  1  0
  7  8  1  0
  9  8  2  0
 10  9  1  0
 11 10  2  0
 12 11  1  0
 13 12  2  0
 13 14  1  0
 14 15  2  0
 15 10  1  0
 15  7  1  0
 17 18  1  0
 17 16  1  0
 18 19  1  0
 18 16  1  0
 19 20  2  0
 20 21  1  0
 22 21  2  0
 23 22  1  0
 24 23  2  0
 25 24  1  0
 26 25  2  0
 26 27  1  0
 27 28  2  0
 28 19  1  0
 28 23  1  0
  1 29  1  0
  3 30  1  0
  8 31  1  0
 11 32  1  0
 13 33  1  0
 16 34  1  1
 17 35  1  0
 17 36  1  0
 18 37  1  6
 21 38  1  0
 24 39  1  0
 25 40  1  0
 26 41  1  0
 27 42  1  0
M  ISO  8  29  14  30  14  31  14  32  14  33  14  34  13  35  13  36  13
M  ISO  6  37  13  38  14  39  14  40  14  41  14  42  14
M  END
>  <minimizedAffinity>  (1) 
-7.2450614

>  <minimizedRMSD>  (1) 
1.33346379

$$$$
