
     RDKit          3D

 34 38  0  0  1  0  0  0  0  0999 V2000
   35.6280   30.4260   47.0950 C   0  0  0  0  0  0  0  0  0  0  0  0
   36.7710   30.4560   47.9030 C   0  0  0  0  0  0  0  0  0  0  0  0
   36.8130   29.6610   49.0230 C   0  0  0  0  0  0  0  0  0  0  0  0
   35.7110   28.8760   49.2770 N   0  0  0  0  0  0  0  0  0  0  0  0
   34.6420   28.8620   48.4990 C   0  0  0  0  0  0  0  0  0  0  0  0
   34.5870   29.6350   47.4020 N   0  0  0  0  0  0  0  0  0  0  0  0
   37.8450   31.2920   47.5590 N   0  0  0  0  0  0  0  0  0  0  0  0
   38.2650   32.3680   48.2540 C   0  0  0  0  0  0  0  0  0  0  0  0
   39.3140   32.9700   47.6780 N   0  0  0  0  0  0  0  0  0  0  0  0
   39.5900   32.2650   46.5700 C   0  0  0  0  0  0  0  0  0  0  0  0
   40.5170   32.3530   45.5650 C   0  0  0  0  0  0  0  0  0  0  0  0
   40.5880   31.4880   44.5160 N   0  0  0  0  0  0  0  0  0  0  0  0
   39.6780   30.4970   44.4980 C   0  0  0  0  0  0  0  0  0  0  0  0
   38.7750   30.4160   45.4830 N   0  0  0  0  0  0  0  0  0  0  0  0
   38.6660   31.2220   46.5100 C   0  0  0  0  0  0  0  0  0  0  0  0
   33.4890   27.9810   48.8740 C   0  0  2  0  0  0  0  0  0  0  0  0
   33.3470   26.7450   47.9230 C   0  0  0  0  0  0  0  0  0  0  0  0
   32.3420   27.8100   47.9670 C   0  0  1  0  0  0  0  0  0  0  0  0
   31.0490   27.6110   48.5880 N   0  0  0  0  0  0  0  0  0  0  0  0
   29.9580   26.9950   48.0960 C   0  0  0  0  0  0  0  0  0  0  0  0
   28.9510   27.0260   49.0020 N   0  0  0  0  0  0  0  0  0  0  0  0
   29.4340   27.6710   50.0620 C   0  0  0  0  0  0  0  0  0  0  0  0
   30.7030   28.0170   49.7930 N   0  0  0  0  0  0  0  0  0  0  0  0
   35.5820   31.0589   46.1965 H   0  0  0  0  0  0  0  0  0  0  0  0
   37.6893   29.6522   49.6879 H   0  0  0  0  0  0  0  0  0  0  0  0
   37.7989   32.7128   49.1888 H   0  0  0  0  0  0  0  0  0  0  0  0
   41.2490   33.1730   45.6083 H   0  0  0  0  0  0  0  0  0  0  0  0
   39.6761   29.7601   43.6813 H   0  0  0  0  0  0  0  0  0  0  0  0
   33.5621   28.2123   49.9469 H   0  0  0  0  0  0  0  0  0  0  0  0
   33.1207   25.7504   48.3348 H   0  0  0  0  0  0  0  0  0  0  0  0
   33.9639   26.2736   47.1438 H   0  0  0  0  0  0  0  0  0  0  0  0
   31.8874   28.4044   47.1608 H   0  0  0  0  0  0  0  0  0  0  0  0
   29.8932   26.5323   47.1002 H   0  0  0  0  0  0  0  0  0  0  0  0
   28.8893   27.8830   50.9939 H   0  0  0  0  0  0  0  0  0  0  0  0
  1  6  2  0
  1  2  1  0
  2  3  2  0
  3  4  1  0
  5 16  1  0
  5  4  2  0
  6  5  1  0
  7  2  1  0
  7  8  1  0
  9  8  2  0
 10  9  1  0
 11 10  2  0
 12 11  1  0
 13 12  2  0
 13 14  1  0
 14 15  2  0
 15 10  1  0
 15  7  1  0
 17 18  1  0
 17 16  1  0
 18 19  1  0
 18 16  1  0
 19 23  1  0
 20 19  1  0
 20 21  2  0
 21 22  1  0
 23 22  2  0
  1 24  1  0
  3 25  1  0
  8 26  1  0
 11 27  1  0
 13 28  1  0
 16 29  1  1
 17 30  1  0
 17 31  1  0
 18 32  1  6
 20 33  1  0
 22 34  1  0
M  ISO  8  24  14  25  14  26  14  27  14  28  14  29  13  30  13  31  13
M  ISO  3  32  13  33  14  34  14
M  END
>  <minimizedAffinity>  (1) 
-6.14093208

>  <minimizedRMSD>  (1) 
0.589020431

$$$$
