
     RDKit          3D

 37 40  0  0  1  0  0  0  0  0999 V2000
   35.8750   30.5090   47.0750 C   0  0  0  0  0  0  0  0  0  0  0  0
   37.0180   30.6090   47.8770 C   0  0  0  0  0  0  0  0  0  0  0  0
   37.0920   29.8340   49.0110 C   0  0  0  0  0  0  0  0  0  0  0  0
   36.0230   29.0070   49.2810 N   0  0  0  0  0  0  0  0  0  0  0  0
   34.9540   28.9340   48.5050 C   0  0  0  0  0  0  0  0  0  0  0  0
   34.8780   29.6820   47.4040 N   0  0  0  0  0  0  0  0  0  0  0  0
   38.0510   31.4840   47.5130 N   0  0  0  0  0  0  0  0  0  0  0  0
   38.4420   32.5740   48.2340 C   0  0  0  0  0  0  0  0  0  0  0  0
   39.4530   33.2260   47.6400 N   0  0  0  0  0  0  0  0  0  0  0  0
   39.7330   32.5420   46.4990 C   0  0  0  0  0  0  0  0  0  0  0  0
   40.6270   32.6860   45.4810 C   0  0  0  0  0  0  0  0  0  0  0  0
   40.7100   31.8560   44.4280 N   0  0  0  0  0  0  0  0  0  0  0  0
   39.8260   30.8140   44.4130 C   0  0  0  0  0  0  0  0  0  0  0  0
   38.9580   30.6890   45.4160 N   0  0  0  0  0  0  0  0  0  0  0  0
   38.8410   31.4720   46.4600 C   0  0  0  0  0  0  0  0  0  0  0  0
   33.8360   28.0030   48.8950 C   0  0  2  0  0  0  0  0  0  0  0  0
   33.7440   26.7660   47.9350 C   0  0  0  0  0  0  0  0  0  0  0  0
   32.6970   27.7890   47.9890 C   0  0  1  0  0  0  0  0  0  0  0  0
   31.3100   27.5130   48.5070 C   0  0  0  0  0  0  0  0  0  0  0  0
   31.0770   26.0160   48.3350 C   0  0  0  0  0  0  0  0  0  0  0  0
   30.2320   28.2170   47.7400 C   0  0  0  0  0  0  0  0  0  0  0  0
   35.7965   31.1186   46.1628 H   0  0  0  0  0  0  0  0  0  0  0  0
   37.9682   29.8727   49.6749 H   0  0  0  0  0  0  0  0  0  0  0  0
   37.9843   32.8809   49.1860 H   0  0  0  0  0  0  0  0  0  0  0  0
   41.3247   33.5353   45.5241 H   0  0  0  0  0  0  0  0  0  0  0  0
   39.8310   30.0894   43.5854 H   0  0  0  0  0  0  0  0  0  0  0  0
   33.9015   28.2313   49.9691 H   0  0  0  0  0  0  0  0  0  0  0  0
   33.5597   25.7603   48.3406 H   0  0  0  0  0  0  0  0  0  0  0  0
   34.3780   26.3251   47.1516 H   0  0  0  0  0  0  0  0  0  0  0  0
   32.2200   28.4071   47.2141 H   0  0  0  0  0  0  0  0  0  0  0  0
   31.2576   27.8662   49.5474 H   0  0  0  0  0  0  0  0  0  0  0  0
   31.0030   25.5404   49.3241 H   0  0  0  0  0  0  0  0  0  0  0  0
   30.1425   25.8519   47.7784 H   0  0  0  0  0  0  0  0  0  0  0  0
   31.9174   25.5757   47.7784 H   0  0  0  0  0  0  0  0  0  0  0  0
   29.5239   28.6795   48.4433 H   0  0  0  0  0  0  0  0  0  0  0  0
   30.6815   28.9961   47.1069 H   0  0  0  0  0  0  0  0  0  0  0  0
   29.6994   27.4921   47.1069 H   0  0  0  0  0  0  0  0  0  0  0  0
  1  6  2  0
  1  2  1  0
  2  3  2  0
  3  4  1  0
  5 16  1  0
  5  4  2  0
  6  5  1  0
  7  2  1  0
  7  8  1  0
  9  8  2  0
 10  9  1  0
 11 10  2  0
 12 11  1  0
 13 12  2  0
 13 14  1  0
 14 15  2  0
 15 10  1  0
 15  7  1  0
 17 18  1  0
 17 16  1  0
 18 19  1  0
 18 16  1  0
 20 19  1  0
 21 19  1  0
  1 22  1  0
  3 23  1  0
  8 24  1  0
 11 25  1  0
 13 26  1  0
 16 27  1  1
 17 28  1  0
 17 29  1  0
 18 30  1  6
 19 31  1  0
 20 32  1  0
 20 33  1  0
 20 34  1  0
 21 35  1  0
 21 36  1  0
 21 37  1  0
M  ISO  8  22  14  23  14  24  14  25  14  26  14  27  13  28  13  29  13
M  ISO  8  30  13  31   8  32   8  33   8  34   8  35   8  36   8  37   8
M  END
>  <minimizedAffinity>  (1) 
-5.65458107

>  <minimizedRMSD>  (1) 
0.27797097

$$$$
