
     RDKit          3D

 44 48  0  0  0  0  0  0  0  0999 V2000
   29.8470   27.7490   47.0700 C   0  0  0  0  0  0  0  0  0  0  0  0
   30.6930   28.4610   46.2950 C   0  0  0  0  0  0  0  0  0  0  0  0
   31.9720   28.7990   46.6790 C   0  0  0  0  0  0  0  0  0  0  0  0
   32.4270   28.3920   47.9230 C   0  0  0  0  0  0  0  0  0  0  0  0
   31.5570   27.6670   48.7070 C   0  0  0  0  0  0  0  0  0  0  0  0
   30.2820   27.3300   48.3240 C   0  0  0  0  0  0  0  0  0  0  0  0
   35.4850   29.9190   48.6680 C   0  0  0  0  0  0  0  0  0  0  0  0
   35.6370   28.7700   49.4420 C   0  0  0  0  0  0  0  0  0  0  0  0
   34.5110   27.9920   49.2980 C   0  0  0  0  0  0  0  0  0  0  0  0
   33.7070   28.6540   48.4640 N   0  0  0  0  0  0  0  0  0  0  0  0
   34.2730   29.7770   48.0950 N   0  0  0  0  0  0  0  0  0  0  0  0
   37.8120   32.6770   49.4620 C   0  0  0  0  0  0  0  0  0  0  0  0
   38.5310   32.7660   48.2770 C   0  0  0  0  0  0  0  0  0  0  0  0
   38.2070   31.8870   47.2390 C   0  0  0  0  0  0  0  0  0  0  0  0
   37.2070   30.9960   47.4490 N   0  0  0  0  0  0  0  0  0  0  0  0
   36.5240   30.9370   48.6220 C   0  0  0  0  0  0  0  0  0  0  0  0
   36.8120   31.7720   49.6450 N   0  0  0  0  0  0  0  0  0  0  0  0
   28.2280   27.3370   46.6020 S   0  0  0  0  0  0  0  0  0  0  0  0
   28.2030   25.9430   46.0430 O   0  0  0  0  0  0  0  0  0  0  0  0
   27.3610   27.3970   47.8420 O   0  0  0  0  0  0  0  0  0  0  0  0
   27.5730   28.3780   45.3750 C   0  0  0  0  0  0  0  0  0  0  0  0
   27.3240   28.0900   44.0270 C   0  0  0  0  0  0  0  0  0  0  0  0
   26.8320   29.1190   43.3530 N   0  0  0  0  0  0  0  0  0  0  0  0
   26.7220   30.1520   44.2030 C   0  0  0  0  0  0  0  0  0  0  0  0
   26.2610   31.4340   44.0030 C   0  0  0  0  0  0  0  0  0  0  0  0
   26.2390   32.3300   45.0680 C   0  0  0  0  0  0  0  0  0  0  0  0
   26.6860   31.8940   46.3100 C   0  0  0  0  0  0  0  0  0  0  0  0
   27.1430   30.6070   46.4860 C   0  0  0  0  0  0  0  0  0  0  0  0
   27.1690   29.7080   45.4260 C   0  0  0  0  0  0  0  0  0  0  0  0
   30.3425   28.7883   45.3051 H   0  0  0  0  0  0  0  0  0  0  0  0
   32.6212   29.3822   46.0094 H   0  0  0  0  0  0  0  0  0  0  0  0
   31.9038   27.3387   49.6979 H   0  0  0  0  0  0  0  0  0  0  0  0
   29.6255   26.7475   48.9871 H   0  0  0  0  0  0  0  0  0  0  0  0
   36.5108   28.5258   50.0640 H   0  0  0  0  0  0  0  0  0  0  0  0
   34.3136   27.0204   49.7744 H   0  0  0  0  0  0  0  0  0  0  0  0
   38.0603   33.3643   50.2842 H   0  0  0  0  0  0  0  0  0  0  0  0
   39.3340   33.5083   48.1583 H   0  0  0  0  0  0  0  0  0  0  0  0
   38.7470   31.9175   46.2812 H   0  0  0  0  0  0  0  0  0  0  0  0
   27.5177   27.1069   43.5730 H   0  0  0  0  0  0  0  0  0  0  0  0
   26.5790   29.1252   42.3546 H   0  0  0  0  0  0  0  0  0  0  0  0
   25.9124   31.7480   43.0081 H   0  0  0  0  0  0  0  0  0  0  0  0
   25.8763   33.3593   44.9300 H   0  0  0  0  0  0  0  0  0  0  0  0
   26.6745   32.5869   47.1643 H   0  0  0  0  0  0  0  0  0  0  0  0
   27.4921   30.2860   47.4785 H   0  0  0  0  0  0  0  0  0  0  0  0
  1  6  2  0
  2  3  2  0
  2  1  1  0
  3  4  1  0
  4 10  1  0
  4  5  2  0
  6  5  1  0
  7  8  1  0
  9  8  2  0
 10  9  1  0
 11 10  1  0
 11  7  2  0
 12 17  2  0
 13 12  1  0
 14 15  1  0
 14 13  2  0
 15 16  2  0
 16  7  1  0
 16 17  1  0
 18  1  1  0
 18 20  2  0
 19 18  2  0
 21 29  1  0
 21 18  1  0
 22 21  2  0
 23 22  1  0
 23 24  1  0
 24 29  2  0
 25 24  1  0
 25 26  2  0
 26 27  1  0
 27 28  2  0
 29 28  1  0
  2 30  1  0
  3 31  1  0
  5 32  1  0
  6 33  1  0
  8 34  1  0
  9 35  1  0
 12 36  1  0
 13 37  1  0
 14 38  1  0
 22 39  1  0
 23 40  1  0
 25 41  1  0
 26 42  1  0
 27 43  1  0
 28 44  1  0
M  ISO  8  30  14  31  14  32  14  33  14  34  14  35  14  36  14  37  14
M  ISO  7  38  14  39  14  40   9  41  14  42  14  43  14  44  14
M  END
>  <minimizedAffinity>  (1) 
-6.64071035

>  <minimizedRMSD>  (1) 
1.99837244

$$$$
