
     RDKit          3D

 28 30  0  0  0  0  0  0  0  0999 V2000
   37.1320   31.3930   48.6500 C   0  0  0  0  0  0  0  0  0  0  0  0
   37.3910   32.3710   49.6300 C   0  0  0  0  0  0  0  0  0  0  0  0
   38.3680   33.3360   49.3470 C   0  0  0  0  0  0  0  0  0  0  0  0
   39.0080   33.2720   48.1380 N   0  0  0  0  0  0  0  0  0  0  0  0
   38.7300   32.3290   47.2370 C   0  0  0  0  0  0  0  0  0  0  0  0
   37.7890   31.3770   47.4790 N   0  0  0  0  0  0  0  0  0  0  0  0
   39.4080   32.2810   45.9860 N   0  0  0  0  0  0  0  0  0  0  0  0
   40.1930   33.2750   45.4850 C   0  0  0  0  0  0  0  0  0  0  0  0
   40.7090   32.9560   44.2760 N   0  0  0  0  0  0  0  0  0  0  0  0
   40.2310   31.7080   44.0010 C   0  0  0  0  0  0  0  0  0  0  0  0
   40.3490   30.8080   42.9790 C   0  0  0  0  0  0  0  0  0  0  0  0
   39.7200   29.6390   43.0430 N   0  0  0  0  0  0  0  0  0  0  0  0
   38.9390   29.2480   44.0830 C   0  0  0  0  0  0  0  0  0  0  0  0
   38.8350   30.1370   45.0710 N   0  0  0  0  0  0  0  0  0  0  0  0
   39.4510   31.3360   45.0580 C   0  0  0  0  0  0  0  0  0  0  0  0
   36.1220   30.4000   48.9500 C   0  0  0  0  0  0  0  0  0  0  0  0
   34.9550   30.5170   48.4890 O   0  0  0  0  0  0  0  0  0  0  0  0
   36.4350   29.3140   49.7460 O   0  0  0  0  0  0  0  0  0  0  0  0
   36.5070   29.3770   51.1360 C   0  0  0  0  0  0  0  0  0  0  0  0
   37.7050   29.5880   51.8690 N   0  0  0  0  0  0  0  0  0  0  0  0
   35.3900   29.2260   51.6720 O   0  0  0  0  0  0  0  0  0  0  0  0
   36.8452   32.3775   50.5850 H   0  0  0  0  0  0  0  0  0  0  0  0
   38.6136   34.1225   50.0757 H   0  0  0  0  0  0  0  0  0  0  0  0
   40.3849   34.2262   46.0031 H   0  0  0  0  0  0  0  0  0  0  0  0
   40.9660   31.0518   42.1016 H   0  0  0  0  0  0  0  0  0  0  0  0
   38.4312   28.2726   44.1082 H   0  0  0  0  0  0  0  0  0  0  0  0
   37.6798   29.6226   52.8981 H   0  0  0  0  0  0  0  0  0  0  0  0
   38.5991   29.7064   51.3715 H   0  0  0  0  0  0  0  0  0  0  0  0
  1 16  1  0
  1  2  2  0
  3  2  1  0
  4  3  2  0
  5  6  2  0
  5  4  1  0
  6  1  1  0
  7  5  1  0
  8  7  1  0
  9  8  2  0
 10  9  1  0
 10 15  2  0
 11 12  2  0
 11 10  1  0
 12 13  1  0
 13 14  2  0
 15 14  1  0
 15  7  1  0
 16 18  1  0
 17 16  2  0
 18 19  1  0
 19 21  2  0
 19 20  1  0
  2 22  1  0
  3 23  1  0
  8 24  1  0
 11 25  1  0
 13 26  1  0
 20 27  1  0
 20 28  1  0
M  ISO  5  22  14  23  14  24  14  25  14  26  14
M  END
>  <minimizedAffinity>  (1) 
-6.28560543

>  <minimizedRMSD>  (1) 
1.87536108

$$$$
