
     RDKit          3D

 31 33  0  0  0  0  0  0  0  0999 V2000
   37.3310   31.4560   48.5760 C   0  0  0  0  0  0  0  0  0  0  0  0
   37.7330   32.3510   49.5790 C   0  0  0  0  0  0  0  0  0  0  0  0
   38.7100   33.2900   49.2400 C   0  0  0  0  0  0  0  0  0  0  0  0
   39.2130   33.2810   47.9600 N   0  0  0  0  0  0  0  0  0  0  0  0
   38.7930   32.4080   47.0490 C   0  0  0  0  0  0  0  0  0  0  0  0
   37.8540   31.4890   47.3380 N   0  0  0  0  0  0  0  0  0  0  0  0
   39.3600   32.4420   45.7060 C   0  0  0  0  0  0  0  0  0  0  0  0
   39.9360   33.5060   45.0410 C   0  0  0  0  0  0  0  0  0  0  0  0
   40.3220   33.0730   43.8130 N   0  0  0  0  0  0  0  0  0  0  0  0
   40.0320   31.7840   43.6320 C   0  0  0  0  0  0  0  0  0  0  0  0
   40.1950   30.8680   42.6120 C   0  0  0  0  0  0  0  0  0  0  0  0
   39.7810   29.5540   42.7130 C   0  0  0  0  0  0  0  0  0  0  0  0
   39.1750   29.1580   43.9050 C   0  0  0  0  0  0  0  0  0  0  0  0
   39.0180   30.0810   44.9160 C   0  0  0  0  0  0  0  0  0  0  0  0
   39.4350   31.3950   44.8090 C   0  0  0  0  0  0  0  0  0  0  0  0
   36.3130   30.4750   48.9230 C   0  0  0  0  0  0  0  0  0  0  0  0
   35.1380   30.5900   48.4870 O   0  0  0  0  0  0  0  0  0  0  0  0
   36.6230   29.4110   49.7320 O   0  0  0  0  0  0  0  0  0  0  0  0
   36.5630   29.4410   51.1240 C   0  0  0  0  0  0  0  0  0  0  0  0
   37.6780   29.6940   51.9610 N   0  0  0  0  0  0  0  0  0  0  0  0
   35.4100   29.2210   51.5530 O   0  0  0  0  0  0  0  0  0  0  0  0
   37.2977   32.3148   50.5885 H   0  0  0  0  0  0  0  0  0  0  0  0
   39.0690   34.0202   49.9802 H   0  0  0  0  0  0  0  0  0  0  0  0
   40.0604   34.5250   45.4362 H   0  0  0  0  0  0  0  0  0  0  0  0
   40.7820   33.6670   43.1084 H   0  0  0  0  0  0  0  0  0  0  0  0
   40.6750   31.1986   41.6791 H   0  0  0  0  0  0  0  0  0  0  0  0
   39.9241   28.8458   41.8835 H   0  0  0  0  0  0  0  0  0  0  0  0
   38.8270   28.1228   44.0363 H   0  0  0  0  0  0  0  0  0  0  0  0
   38.5386   29.7575   45.8517 H   0  0  0  0  0  0  0  0  0  0  0  0
   37.5625   29.7015   52.9845 H   0  0  0  0  0  0  0  0  0  0  0  0
   38.6040   29.8704   51.5459 H   0  0  0  0  0  0  0  0  0  0  0  0
  1 16  1  0
  1  2  2  0
  3  2  1  0
  4  3  2  0
  5  6  2  0
  5  4  1  0
  6  1  1  0
  7  5  1  0
  8  7  2  0
  9  8  1  0
 10  9  1  0
 10 15  2  0
 11 12  2  0
 11 10  1  0
 12 13  1  0
 13 14  2  0
 15 14  1  0
 15  7  1  0
 16 18  1  0
 17 16  2  0
 18 19  1  0
 19 21  2  0
 19 20  1  0
  2 22  1  0
  3 23  1  0
  8 24  1  0
  9 25  1  0
 11 26  1  0
 12 27  1  0
 13 28  1  0
 14 29  1  0
 20 30  1  0
 20 31  1  0
M  ISO  8  22  14  23  14  24  14  25   9  26  14  27  14  28  14  29  14
M  END
>  <minimizedAffinity>  (1) 
-6.23933887

>  <minimizedRMSD>  (1) 
1.77044773

$$$$
