
     RDKit          3D

 27 28  0  0  0  0  0  0  0  0999 V2000
   37.2510   31.3710   48.4510 C   0  0  0  0  0  0  0  0  0  0  0  0
   37.8270   32.3200   49.3050 C   0  0  0  0  0  0  0  0  0  0  0  0
   38.8060   33.1620   48.7870 C   0  0  0  0  0  0  0  0  0  0  0  0
   39.1500   33.0100   47.4730 N   0  0  0  0  0  0  0  0  0  0  0  0
   38.5700   32.0820   46.6850 C   0  0  0  0  0  0  0  0  0  0  0  0
   37.6080   31.2430   47.1660 N   0  0  0  0  0  0  0  0  0  0  0  0
   39.0000   32.0060   45.3260 N   0  0  0  0  0  0  0  0  0  0  0  0
   38.1310   32.5140   44.4330 C   0  0  0  0  0  0  0  0  0  0  0  0
   38.4030   32.5150   43.0790 C   0  0  0  0  0  0  0  0  0  0  0  0
   39.6160   31.9640   42.6840 C   0  0  0  0  0  0  0  0  0  0  0  0
   39.9470   31.9230   41.4550 O   0  0  0  0  0  0  0  0  0  0  0  0
   40.4710   31.4610   43.5930 N   0  0  0  0  0  0  0  0  0  0  0  0
   40.1700   31.4790   44.9090 C   0  0  0  0  0  0  0  0  0  0  0  0
   40.8940   31.0370   45.8390 O   0  0  0  0  0  0  0  0  0  0  0  0
   36.2250   30.4930   49.0060 C   0  0  0  0  0  0  0  0  0  0  0  0
   34.9940   30.7090   48.7580 O   0  0  0  0  0  0  0  0  0  0  0  0
   36.6110   29.4240   49.8050 O   0  0  0  0  0  0  0  0  0  0  0  0
   36.5740   29.4770   51.1960 C   0  0  0  0  0  0  0  0  0  0  0  0
   37.6940   29.8030   51.9860 N   0  0  0  0  0  0  0  0  0  0  0  0
   35.4570   29.2120   51.6790 O   0  0  0  0  0  0  0  0  0  0  0  0
   37.5139   32.3975   50.3566 H   0  0  0  0  0  0  0  0  0  0  0  0
   39.2879   33.9258   49.4150 H   0  0  0  0  0  0  0  0  0  0  0  0
   37.1812   32.9387   44.7900 H   0  0  0  0  0  0  0  0  0  0  0  0
   37.6938   32.9318   42.3486 H   0  0  0  0  0  0  0  0  0  0  0  0
   41.3658   31.0574   43.2812 H   0  0  0  0  0  0  0  0  0  0  0  0
   37.6107   29.8276   53.0123 H   0  0  0  0  0  0  0  0  0  0  0  0
   38.5961   30.0168   51.5372 H   0  0  0  0  0  0  0  0  0  0  0  0
  1 15  1  0
  1  2  2  0
  3  2  1  0
  4  3  2  0
  5  6  2  0
  5  4  1  0
  6  1  1  0
  7  5  1  0
  8  7  1  0
  9  8  2  0
 10  9  1  0
 10 12  1  0
 11 10  2  0
 12 13  1  0
 13  7  1  0
 13 14  2  0
 15 17  1  0
 16 15  2  0
 17 18  1  0
 18 20  2  0
 18 19  1  0
  2 21  1  0
  3 22  1  0
  8 23  1  0
  9 24  1  0
 12 25  1  0
 19 26  1  0
 19 27  1  0
M  ISO  5  21  14  22  14  23  14  24  14  25   9
M  END
>  <minimizedAffinity>  (1) 
-6.14146805

>  <minimizedRMSD>  (1) 
1.01643002

$$$$
