
     RDKit          3D

 33 34  0  0  0  0  0  0  0  0999 V2000
   37.3150   31.4610   48.5800 C   0  0  0  0  0  0  0  0  0  0  0  0
   37.7720   32.3620   49.5490 C   0  0  0  0  0  0  0  0  0  0  0  0
   38.7430   33.2910   49.1910 C   0  0  0  0  0  0  0  0  0  0  0  0
   39.2000   33.2730   47.9020 N   0  0  0  0  0  0  0  0  0  0  0  0
   38.7310   32.3880   47.0050 C   0  0  0  0  0  0  0  0  0  0  0  0
   37.7900   31.4810   47.3350 N   0  0  0  0  0  0  0  0  0  0  0  0
   39.2790   32.4350   45.6250 C   0  0  0  0  0  0  0  0  0  0  0  0
   40.1890   31.2800   45.3960 C   0  0  0  0  0  0  0  0  0  0  0  0
   40.2770   30.8430   43.9630 C   0  0  0  0  0  0  0  0  0  0  0  0
   40.0770   31.9630   42.9820 C   0  0  0  0  0  0  0  0  0  0  0  0
   38.8930   32.8320   43.2800 C   0  0  0  0  0  0  0  0  0  0  0  0
   38.1940   32.3960   44.5700 C   0  0  0  0  0  0  0  0  0  0  0  0
   36.2990   30.4990   48.9830 C   0  0  0  0  0  0  0  0  0  0  0  0
   35.1020   30.6510   48.6110 O   0  0  0  0  0  0  0  0  0  0  0  0
   36.6460   29.4180   49.7760 O   0  0  0  0  0  0  0  0  0  0  0  0
   36.5860   29.4540   51.1780 C   0  0  0  0  0  0  0  0  0  0  0  0
   37.7010   29.7300   52.0010 N   0  0  0  0  0  0  0  0  0  0  0  0
   35.4440   29.2170   51.6230 O   0  0  0  0  0  0  0  0  0  0  0  0
   37.3711   32.3357   50.5730 H   0  0  0  0  0  0  0  0  0  0  0  0
   39.1309   34.0168   49.9209 H   0  0  0  0  0  0  0  0  0  0  0  0
   39.8210   33.3880   45.5356 H   0  0  0  0  0  0  0  0  0  0  0  0
   41.1971   31.5625   45.7334 H   0  0  0  0  0  0  0  0  0  0  0  0
   39.7735   30.4324   45.9608 H   0  0  0  0  0  0  0  0  0  0  0  0
   41.2715   30.4046   43.7930 H   0  0  0  0  0  0  0  0  0  0  0  0
   39.4673   30.1175   43.7955 H   0  0  0  0  0  0  0  0  0  0  0  0
   39.9420   31.5262   41.9815 H   0  0  0  0  0  0  0  0  0  0  0  0
   40.9673   32.6057   43.0478 H   0  0  0  0  0  0  0  0  0  0  0  0
   39.2311   33.8730   43.3898 H   0  0  0  0  0  0  0  0  0  0  0  0
   38.1775   32.7409   42.4495 H   0  0  0  0  0  0  0  0  0  0  0  0
   37.3800   33.0908   44.8244 H   0  0  0  0  0  0  0  0  0  0  0  0
   37.7359   31.4000   44.4798 H   0  0  0  0  0  0  0  0  0  0  0  0
   37.5945   29.7424   53.0254 H   0  0  0  0  0  0  0  0  0  0  0  0
   38.6203   29.9188   51.5765 H   0  0  0  0  0  0  0  0  0  0  0  0
  1 13  1  0
  1  2  2  0
  3  2  1  0
  4  3  2  0
  5  6  2  0
  5  4  1  0
  6  1  1  0
  7  5  1  0
  8  7  1  0
  9  8  1  0
 10 11  1  0
 10  9  1  0
 11 12  1  0
 12  7  1  0
 13 15  1  0
 14 13  2  0
 15 16  1  0
 16 18  2  0
 16 17  1  0
  2 19  1  0
  3 20  1  0
  7 21  1  0
  8 22  1  0
  8 23  1  0
  9 24  1  0
  9 25  1  0
 10 26  1  0
 10 27  1  0
 11 28  1  0
 11 29  1  0
 12 30  1  0
 12 31  1  0
 17 32  1  0
 17 33  1  0
M  ISO  8  19  14  20  14  21  13  22  13  23  13  24  13  25  13  26  13
M  ISO  5  27  13  28  13  29  13  30  13  31  13
M  END
>  <minimizedAffinity>  (1) 
-5.6812377

>  <minimizedRMSD>  (1) 
1.3532443

$$$$
