
     RDKit          3D

 29 29  0  0  0  0  0  0  0  0999 V2000
   37.2920   31.4460   48.5700 C   0  0  0  0  0  0  0  0  0  0  0  0
   37.6150   32.4000   49.5330 C   0  0  0  0  0  0  0  0  0  0  0  0
   38.5780   33.3560   49.2070 C   0  0  0  0  0  0  0  0  0  0  0  0
   39.1510   33.3080   47.9690 N   0  0  0  0  0  0  0  0  0  0  0  0
   38.8050   32.3680   47.0760 C   0  0  0  0  0  0  0  0  0  0  0  0
   37.8760   31.4260   47.3570 N   0  0  0  0  0  0  0  0  0  0  0  0
   39.4370   32.3300   45.7330 C   0  0  0  0  0  0  0  0  0  0  0  0
   38.3590   32.3830   44.6820 C   0  0  0  0  0  0  0  0  0  0  0  0
   40.3570   33.5020   45.5300 C   0  0  0  0  0  0  0  0  0  0  0  0
   40.2530   31.0570   45.6300 C   0  0  0  0  0  0  0  0  0  0  0  0
   36.2820   30.4380   48.9020 C   0  0  0  0  0  0  0  0  0  0  0  0
   35.1020   30.5420   48.4590 O   0  0  0  0  0  0  0  0  0  0  0  0
   36.6460   29.3710   49.7110 O   0  0  0  0  0  0  0  0  0  0  0  0
   36.5760   29.4390   51.1080 C   0  0  0  0  0  0  0  0  0  0  0  0
   37.6940   29.7230   51.9380 N   0  0  0  0  0  0  0  0  0  0  0  0
   35.4310   29.2260   51.5570 O   0  0  0  0  0  0  0  0  0  0  0  0
   37.1265   32.3996   50.5186 H   0  0  0  0  0  0  0  0  0  0  0  0
   38.8688   34.1309   49.9315 H   0  0  0  0  0  0  0  0  0  0  0  0
   37.3740   32.4314   45.1692 H   0  0  0  0  0  0  0  0  0  0  0  0
   38.5021   33.2752   44.0547 H   0  0  0  0  0  0  0  0  0  0  0  0
   38.4138   31.4811   44.0547 H   0  0  0  0  0  0  0  0  0  0  0  0
   40.6678   33.8979   46.5081 H   0  0  0  0  0  0  0  0  0  0  0  0
   41.2446   33.1781   44.9667 H   0  0  0  0  0  0  0  0  0  0  0  0
   39.8316   34.2873   44.9667 H   0  0  0  0  0  0  0  0  0  0  0  0
   40.4884   30.6897   46.6398 H   0  0  0  0  0  0  0  0  0  0  0  0
   39.6753   30.2940   45.0877 H   0  0  0  0  0  0  0  0  0  0  0  0
   41.1875   31.2634   45.0877 H   0  0  0  0  0  0  0  0  0  0  0  0
   37.5798   29.7596   52.9610 H   0  0  0  0  0  0  0  0  0  0  0  0
   38.6185   29.8923   51.5166 H   0  0  0  0  0  0  0  0  0  0  0  0
  1 11  1  0
  1  2  2  0
  3  2  1  0
  4  3  2  0
  5  6  2  0
  5  4  1  0
  6  1  1  0
  7  5  1  0
  8  7  1  0
  9  7  1  0
 10  7  1  0
 11 13  1  0
 12 11  2  0
 13 14  1  0
 14 16  2  0
 14 15  1  0
  2 17  1  0
  3 18  1  0
  8 19  1  0
  8 20  1  0
  8 21  1  0
  9 22  1  0
  9 23  1  0
  9 24  1  0
 10 25  1  0
 10 26  1  0
 10 27  1  0
 15 28  1  0
 15 29  1  0
M  ISO  8  17  14  18  14  19   8  20   8  21   8  22   8  23   8  24   8
M  ISO  3  25   8  26   8  27   8
M  END
>  <minimizedAffinity>  (1) 
-5.42281008

>  <minimizedRMSD>  (1) 
1.26327074

$$$$
