
     RDKit          3D

 20 20  0  0  0  0  0  0  0  0999 V2000
   37.5770   31.5950   48.5210 C   0  0  0  0  0  0  0  0  0  0  0  0
   37.7830   32.5310   49.5570 C   0  0  0  0  0  0  0  0  0  0  0  0
   38.7220   33.5450   49.3490 C   0  0  0  0  0  0  0  0  0  0  0  0
   39.3910   33.5690   48.1410 N   0  0  0  0  0  0  0  0  0  0  0  0
   39.1540   32.6600   47.2020 C   0  0  0  0  0  0  0  0  0  0  0  0
   38.2550   31.6740   47.3790 N   0  0  0  0  0  0  0  0  0  0  0  0
   36.6000   30.5490   48.7520 C   0  0  0  0  0  0  0  0  0  0  0  0
   35.4550   30.6230   48.2020 O   0  0  0  0  0  0  0  0  0  0  0  0
   36.9110   29.4780   49.5650 O   0  0  0  0  0  0  0  0  0  0  0  0
   36.6960   29.4970   50.9500 C   0  0  0  0  0  0  0  0  0  0  0  0
   37.7160   29.7970   51.8910 N   0  0  0  0  0  0  0  0  0  0  0  0
   35.5170   29.2230   51.2600 O   0  0  0  0  0  0  0  0  0  0  0  0
   39.8950   32.7430   45.9500 C   0  0  0  0  0  0  0  0  0  0  0  0
   40.6160   31.7760   45.5790 O   0  0  0  0  0  0  0  0  0  0  0  0
   39.8630   33.8430   45.1070 O   0  0  0  0  0  0  0  0  0  0  0  0
   37.2211   32.4644   50.5003 H   0  0  0  0  0  0  0  0  0  0  0  0
   38.9220   34.3004   50.1232 H   0  0  0  0  0  0  0  0  0  0  0  0
   37.5032   29.7969   52.8988 H   0  0  0  0  0  0  0  0  0  0  0  0
   38.6688   30.0147   51.5659 H   0  0  0  0  0  0  0  0  0  0  0  0
   40.3893   33.8395   44.2685 H   0  0  0  0  0  0  0  0  0  0  0  0
  1  7  1  0
  1  2  2  0
  3  2  1  0
  4  3  2  0
  5  6  2  0
  5  4  1  0
  6  1  1  0
  7  9  1  0
  8  7  2  0
  9 10  1  0
 10 12  2  0
 10 11  1  0
 13  5  1  0
 14 13  2  0
 15 13  1  0
  2 16  1  0
  3 17  1  0
 11 18  1  0
 11 19  1  0
 15 20  1  0
M  ISO  3  16  14  17  14  20   3
M  END
>  <minimizedAffinity>  (1) 
-5.13689184

>  <minimizedRMSD>  (1) 
1.58178592

$$$$
