
     RDKit          3D

 18 18  0  0  0  0  0  0  0  0999 V2000
   37.1790   31.0990   48.0120 C   0  0  0  0  0  0  0  0  0  0  0  0
   37.9960   31.9600   48.7800 C   0  0  0  0  0  0  0  0  0  0  0  0
   38.9460   32.7330   48.1040 C   0  0  0  0  0  0  0  0  0  0  0  0
   39.0300   32.6120   46.7440 N   0  0  0  0  0  0  0  0  0  0  0  0
   38.2320   31.7830   46.0650 C   0  0  0  0  0  0  0  0  0  0  0  0
   37.3040   31.0210   46.6850 N   0  0  0  0  0  0  0  0  0  0  0  0
   36.1950   30.3010   48.7260 C   0  0  0  0  0  0  0  0  0  0  0  0
   34.9540   30.5050   48.5330 O   0  0  0  0  0  0  0  0  0  0  0  0
   36.6290   29.3250   49.6130 O   0  0  0  0  0  0  0  0  0  0  0  0
   36.5690   29.4850   50.9900 C   0  0  0  0  0  0  0  0  0  0  0  0
   37.6750   29.9030   51.7750 N   0  0  0  0  0  0  0  0  0  0  0  0
   35.4340   29.2230   51.4720 O   0  0  0  0  0  0  0  0  0  0  0  0
   38.2860   31.6320   44.6930 O   0  0  0  0  0  0  0  0  0  0  0  0
   37.8882   32.0201   49.8731 H   0  0  0  0  0  0  0  0  0  0  0  0
   39.6080   33.4200   48.6516 H   0  0  0  0  0  0  0  0  0  0  0  0
   37.5734   30.0051   52.7949 H   0  0  0  0  0  0  0  0  0  0  0  0
   38.5793   30.1042   51.3248 H   0  0  0  0  0  0  0  0  0  0  0  0
   38.9388   32.1543   44.1628 H   0  0  0  0  0  0  0  0  0  0  0  0
  1  7  1  0
  1  2  2  0
  3  2  1  0
  4  3  2  0
  5  6  2  0
  5  4  1  0
  6  1  1  0
  7  9  1  0
  8  7  2  0
  9 10  1  0
 10 12  2  0
 10 11  1  0
 13  5  1  0
  2 14  1  0
  3 15  1  0
 11 16  1  0
 11 17  1  0
 13 18  1  0
M  ISO  3  14  14  15  14  18   3
M  END
>  <minimizedAffinity>  (1) 
-4.28296566

>  <minimizedRMSD>  (1) 
0.0941896513

$$$$
