
     RDKit          3D

 38 41  0  0  0  0  0  0  0  0999 V2000
   39.1190   32.4640   45.9440 C   0  0  0  0  0  0  0  0  0  0  0  0
   40.3280   33.0810   45.7340 C   0  0  0  0  0  0  0  0  0  0  0  0
   40.6120   32.9930   44.3790 C   0  0  0  0  0  0  0  0  0  0  0  0
   39.5450   32.3170   43.8190 C   0  0  0  0  0  0  0  0  0  0  0  0
   38.7360   32.0490   44.7810 O   0  0  0  0  0  0  0  0  0  0  0  0
   39.5670   32.0710   42.3820 C   0  0  0  0  0  0  0  0  0  0  0  0
   38.9600   32.8640   41.4820 N   0  0  0  0  0  0  0  0  0  0  0  0
   38.9660   32.6590   40.1620 C   0  0  0  0  0  0  0  0  0  0  0  0
   39.5910   31.6230   39.6180 N   0  0  0  0  0  0  0  0  0  0  0  0
   40.2460   30.7440   40.4320 C   0  0  0  0  0  0  0  0  0  0  0  0
   40.9030   29.6610   39.8910 C   0  0  0  0  0  0  0  0  0  0  0  0
   41.5680   28.7650   40.6990 C   0  0  0  0  0  0  0  0  0  0  0  0
   41.5520   28.9910   42.0660 C   0  0  0  0  0  0  0  0  0  0  0  0
   40.8800   30.0900   42.5540 C   0  0  0  0  0  0  0  0  0  0  0  0
   40.2040   31.0080   41.7830 C   0  0  0  0  0  0  0  0  0  0  0  0
   36.8860   31.2480   48.5440 C   0  0  0  0  0  0  0  0  0  0  0  0
   37.2040   32.0570   49.6560 C   0  0  0  0  0  0  0  0  0  0  0  0
   38.1970   33.0230   49.4910 C   0  0  0  0  0  0  0  0  0  0  0  0
   38.8050   33.1280   48.2530 N   0  0  0  0  0  0  0  0  0  0  0  0
   38.4650   32.3410   47.2450 C   0  0  0  0  0  0  0  0  0  0  0  0
   37.4920   31.3770   47.3670 N   0  0  0  0  0  0  0  0  0  0  0  0
   35.8450   30.2450   48.7410 C   0  0  0  0  0  0  0  0  0  0  0  0
   34.6730   30.4630   48.2930 O   0  0  0  0  0  0  0  0  0  0  0  0
   36.1560   29.0600   49.4190 O   0  0  0  0  0  0  0  0  0  0  0  0
   36.5290   29.0550   50.7650 C   0  0  0  0  0  0  0  0  0  0  0  0
   37.8690   28.8620   51.1910 N   0  0  0  0  0  0  0  0  0  0  0  0
   35.5590   29.2400   51.5460 O   0  0  0  0  0  0  0  0  0  0  0  0
   40.9565   33.5580   46.5005 H   0  0  0  0  0  0  0  0  0  0  0  0
   41.5007   33.3803   43.8592 H   0  0  0  0  0  0  0  0  0  0  0  0
   38.4382   33.3688   39.5081 H   0  0  0  0  0  0  0  0  0  0  0  0
   40.8966   29.5098   38.8015 H   0  0  0  0  0  0  0  0  0  0  0  0
   42.0946   27.8983   40.2728 H   0  0  0  0  0  0  0  0  0  0  0  0
   42.0684   28.3029   42.7515 H   0  0  0  0  0  0  0  0  0  0  0  0
   40.8840   30.2458   43.6429 H   0  0  0  0  0  0  0  0  0  0  0  0
   36.6872   31.9303   50.6187 H   0  0  0  0  0  0  0  0  0  0  0  0
   38.4882   33.6825   50.3219 H   0  0  0  0  0  0  0  0  0  0  0  0
   38.0957   28.8664   52.1957 H   0  0  0  0  0  0  0  0  0  0  0  0
   38.6148   28.7176   50.4954 H   0  0  0  0  0  0  0  0  0  0  0  0
  1 20  1  0
  2  1  2  0
  3  2  1  0
  4  3  2  0
  4  5  1  0
  5  1  1  0
  6  4  1  0
  7  6  2  0
  8  7  1  0
  9  8  2  0
  9 10  1  0
 10 15  2  0
 11 10  1  0
 11 12  2  0
 12 13  1  0
 13 14  2  0
 15  6  1  0
 15 14  1  0
 16 22  1  0
 16 17  2  0
 18 17  1  0
 19 18  2  0
 20 21  2  0
 20 19  1  0
 21 16  1  0
 22 24  1  0
 23 22  2  0
 24 25  1  0
 25 26  1  0
 25 27  2  0
  2 28  1  0
  3 29  1  0
  8 30  1  0
 11 31  1  0
 12 32  1  0
 13 33  1  0
 14 34  1  0
 17 35  1  0
 18 36  1  0
 26 37  1  0
 26 38  1  0
M  ISO  8  28  14  29  14  30  14  31  14  32  14  33  14  34  14  35  14
M  ISO  1  36  14
M  END
>  <minimizedAffinity>  (1) 
-6.77435112

>  <minimizedRMSD>  (1) 
1.60016286

$$$$
