
     RDKit          3D

 37 40  0  0  0  0  0  0  0  0999 V2000
   38.8230   32.3400   45.2700 C   0  0  0  0  0  0  0  0  0  0  0  0
   39.9450   31.7770   44.7040 C   0  0  0  0  0  0  0  0  0  0  0  0
   39.8830   32.0210   43.3200 C   0  0  0  0  0  0  0  0  0  0  0  0
   38.7110   32.7230   43.1470 C   0  0  0  0  0  0  0  0  0  0  0  0
   38.1270   32.8870   44.3090 O   0  0  0  0  0  0  0  0  0  0  0  0
   38.1360   33.2350   41.9490 N   0  0  0  0  0  0  0  0  0  0  0  0
   38.7940   33.6810   40.8490 C   0  0  0  0  0  0  0  0  0  0  0  0
   37.8950   34.0850   39.9230 N   0  0  0  0  0  0  0  0  0  0  0  0
   36.6970   33.8850   40.4560 C   0  0  0  0  0  0  0  0  0  0  0  0
   35.4110   34.0980   40.0060 C   0  0  0  0  0  0  0  0  0  0  0  0
   34.3150   33.8070   40.7550 N   0  0  0  0  0  0  0  0  0  0  0  0
   34.4610   33.2850   41.9990 C   0  0  0  0  0  0  0  0  0  0  0  0
   35.7160   33.0760   42.4410 N   0  0  0  0  0  0  0  0  0  0  0  0
   36.7980   33.3560   41.7200 C   0  0  0  0  0  0  0  0  0  0  0  0
   35.1430   34.6400   38.7200 N   0  0  0  0  0  0  0  0  0  0  0  0
   37.3140   31.3510   48.4200 C   0  0  0  0  0  0  0  0  0  0  0  0
   37.9620   32.1760   49.3740 C   0  0  0  0  0  0  0  0  0  0  0  0
   38.9210   33.0730   48.9120 C   0  0  0  0  0  0  0  0  0  0  0  0
   39.1760   33.0940   47.5440 N   0  0  0  0  0  0  0  0  0  0  0  0
   38.5330   32.2930   46.7010 C   0  0  0  0  0  0  0  0  0  0  0  0
   37.5890   31.4050   47.1230 N   0  0  0  0  0  0  0  0  0  0  0  0
   36.3140   30.4230   48.9440 C   0  0  0  0  0  0  0  0  0  0  0  0
   35.0930   30.5720   48.6410 O   0  0  0  0  0  0  0  0  0  0  0  0
   36.7150   29.3800   49.7750 O   0  0  0  0  0  0  0  0  0  0  0  0
   36.6140   29.4500   51.1600 C   0  0  0  0  0  0  0  0  0  0  0  0
   37.7120   29.7590   51.9970 N   0  0  0  0  0  0  0  0  0  0  0  0
   35.4520   29.2110   51.5890 O   0  0  0  0  0  0  0  0  0  0  0  0
   40.7421   31.2366   45.2356 H   0  0  0  0  0  0  0  0  0  0  0  0
   40.6076   31.7190   42.5494 H   0  0  0  0  0  0  0  0  0  0  0  0
   39.8871   33.7094   40.7294 H   0  0  0  0  0  0  0  0  0  0  0  0
   33.5880   33.0419   42.6225 H   0  0  0  0  0  0  0  0  0  0  0  0
   34.1700   34.7862   38.4153 H   0  0  0  0  0  0  0  0  0  0  0  0
   35.9217   34.8866   38.0926 H   0  0  0  0  0  0  0  0  0  0  0  0
   37.7150   32.1094   50.4438 H   0  0  0  0  0  0  0  0  0  0  0  0
   39.4574   33.7404   49.6025 H   0  0  0  0  0  0  0  0  0  0  0  0
   37.5858   29.7987   53.0185 H   0  0  0  0  0  0  0  0  0  0  0  0
   38.6376   29.9442   51.5849 H   0  0  0  0  0  0  0  0  0  0  0  0
  1 20  1  0
  2  1  2  0
  3  2  1  0
  4  3  2  0
  4  5  1  0
  5  1  1  0
  6  4  1  0
  7  6  1  0
  8  9  1  0
  8  7  2  0
  9 14  2  0
 10  9  1  0
 10 11  2  0
 11 12  1  0
 12 13  2  0
 14  6  1  0
 14 13  1  0
 15 10  1  0
 16 22  1  0
 16 17  2  0
 18 17  1  0
 19 18  2  0
 20 21  2  0
 20 19  1  0
 21 16  1  0
 22 24  1  0
 23 22  2  0
 24 25  1  0
 25 27  2  0
 25 26  1  0
  2 28  1  0
  3 29  1  0
  7 30  1  0
 12 31  1  0
 15 32  1  0
 15 33  1  0
 17 34  1  0
 18 35  1  0
 26 36  1  0
 26 37  1  0
M  ISO  6  28  14  29  14  30  14  31  14  34  14  35  14
M  END
>  <minimizedAffinity>  (1) 
-6.28310871

>  <minimizedRMSD>  (1) 
3.01789069

$$$$
