
     RDKit          3D

 35 38  0  0  0  0  0  0  0  0999 V2000
   38.8530   32.3400   45.2690 C   0  0  0  0  0  0  0  0  0  0  0  0
   39.9870   31.7820   44.7220 C   0  0  0  0  0  0  0  0  0  0  0  0
   39.9450   32.0170   43.3480 C   0  0  0  0  0  0  0  0  0  0  0  0
   38.7720   32.7120   43.1530 C   0  0  0  0  0  0  0  0  0  0  0  0
   38.1600   32.8810   44.3060 O   0  0  0  0  0  0  0  0  0  0  0  0
   38.1800   33.2310   41.9670 N   0  0  0  0  0  0  0  0  0  0  0  0
   38.7730   33.7340   40.8660 C   0  0  0  0  0  0  0  0  0  0  0  0
   37.8310   34.1130   39.9790 N   0  0  0  0  0  0  0  0  0  0  0  0
   36.6290   33.8530   40.5130 C   0  0  0  0  0  0  0  0  0  0  0  0
   35.3130   34.0260   40.0740 C   0  0  0  0  0  0  0  0  0  0  0  0
   34.3080   33.6450   40.8850 N   0  0  0  0  0  0  0  0  0  0  0  0
   34.5440   33.1020   42.1070 C   0  0  0  0  0  0  0  0  0  0  0  0
   35.8050   32.9390   42.5250 N   0  0  0  0  0  0  0  0  0  0  0  0
   36.8400   33.2910   41.7770 C   0  0  0  0  0  0  0  0  0  0  0  0
   37.3190   31.3570   48.4260 C   0  0  0  0  0  0  0  0  0  0  0  0
   37.9560   32.1970   49.3720 C   0  0  0  0  0  0  0  0  0  0  0  0
   38.9130   33.0990   48.9090 C   0  0  0  0  0  0  0  0  0  0  0  0
   39.1750   33.1100   47.5510 N   0  0  0  0  0  0  0  0  0  0  0  0
   38.5440   32.2940   46.6990 C   0  0  0  0  0  0  0  0  0  0  0  0
   37.6040   31.4040   47.1300 N   0  0  0  0  0  0  0  0  0  0  0  0
   36.3270   30.4290   48.9400 C   0  0  0  0  0  0  0  0  0  0  0  0
   35.1060   30.5850   48.6250 O   0  0  0  0  0  0  0  0  0  0  0  0
   36.7340   29.3830   49.7720 O   0  0  0  0  0  0  0  0  0  0  0  0
   36.6210   29.4530   51.1630 C   0  0  0  0  0  0  0  0  0  0  0  0
   37.7130   29.7650   52.0000 N   0  0  0  0  0  0  0  0  0  0  0  0
   35.4740   29.2150   51.5860 O   0  0  0  0  0  0  0  0  0  0  0  0
   40.7795   31.2493   45.2680 H   0  0  0  0  0  0  0  0  0  0  0  0
   40.6830   31.7151   42.5902 H   0  0  0  0  0  0  0  0  0  0  0  0
   39.8590   33.8218   40.7144 H   0  0  0  0  0  0  0  0  0  0  0  0
   35.1031   34.4640   39.0871 H   0  0  0  0  0  0  0  0  0  0  0  0
   33.7043   32.7981   42.7492 H   0  0  0  0  0  0  0  0  0  0  0  0
   37.7030   32.1394   50.4410 H   0  0  0  0  0  0  0  0  0  0  0  0
   39.4396   33.7762   49.5976 H   0  0  0  0  0  0  0  0  0  0  0  0
   37.5841   29.8057   53.0211 H   0  0  0  0  0  0  0  0  0  0  0  0
   38.6392   29.9521   51.5900 H   0  0  0  0  0  0  0  0  0  0  0  0
  1 19  1  0
  2  1  2  0
  3  2  1  0
  4  3  2  0
  4  5  1  0
  5  1  1  0
  6  4  1  0
  7  6  1  0
  8  9  1  0
  8  7  2  0
  9 14  2  0
 10  9  1  0
 10 11  2  0
 11 12  1  0
 12 13  2  0
 14  6  1  0
 14 13  1  0
 15 21  1  0
 15 16  2  0
 17 16  1  0
 18 17  2  0
 19 20  2  0
 19 18  1  0
 20 15  1  0
 21 23  1  0
 22 21  2  0
 23 24  1  0
 24 26  2  0
 24 25  1  0
  2 27  1  0
  3 28  1  0
  7 29  1  0
 10 30  1  0
 12 31  1  0
 16 32  1  0
 17 33  1  0
 25 34  1  0
 25 35  1  0
M  ISO  7  27  14  28  14  29  14  30  14  31  14  32  14  33  14
M  END
>  <minimizedAffinity>  (1) 
-6.23989248

>  <minimizedRMSD>  (1) 
2.89744902

$$$$
