
     RDKit          3D

 42 44  0  0  0  0  0  0  0  0999 V2000
   30.4010   27.7800   47.0500 C   0  0  0  0  0  0  0  0  0  0  0  0
   31.2000   28.5970   46.3250 C   0  0  0  0  0  0  0  0  0  0  0  0
   32.4480   28.9920   46.7510 C   0  0  0  0  0  0  0  0  0  0  0  0
   32.9200   28.5510   47.9580 C   0  0  0  0  0  0  0  0  0  0  0  0
   32.0990   27.7200   48.6870 C   0  0  0  0  0  0  0  0  0  0  0  0
   30.8530   27.3210   48.2680 C   0  0  0  0  0  0  0  0  0  0  0  0
   35.9190   30.1640   48.7600 C   0  0  0  0  0  0  0  0  0  0  0  0
   36.0650   29.0550   49.5900 C   0  0  0  0  0  0  0  0  0  0  0  0
   34.9670   28.2530   49.4370 C   0  0  0  0  0  0  0  0  0  0  0  0
   34.1780   28.8650   48.5360 N   0  0  0  0  0  0  0  0  0  0  0  0
   34.7330   29.9710   48.1470 N   0  0  0  0  0  0  0  0  0  0  0  0
   38.0450   33.1130   49.4530 C   0  0  0  0  0  0  0  0  0  0  0  0
   38.9270   33.0530   48.3680 C   0  0  0  0  0  0  0  0  0  0  0  0
   38.7800   32.0200   47.4360 C   0  0  0  0  0  0  0  0  0  0  0  0
   37.7780   31.1250   47.6390 N   0  0  0  0  0  0  0  0  0  0  0  0
   36.9360   31.2100   48.7010 C   0  0  0  0  0  0  0  0  0  0  0  0
   37.0530   32.1970   49.6220 N   0  0  0  0  0  0  0  0  0  0  0  0
   28.8160   27.2850   46.5310 S   0  0  0  0  0  0  0  0  0  0  0  0
   28.6650   27.5770   45.0590 O   0  0  0  0  0  0  0  0  0  0  0  0
   28.6920   25.8080   46.7690 O   0  0  0  0  0  0  0  0  0  0  0  0
   27.4960   28.1060   47.3330 C   0  0  0  0  0  0  0  0  0  0  0  0
   26.8520   27.2620   48.3950 C   0  0  0  0  0  0  0  0  0  0  0  0
   26.4400   28.3860   46.2620 C   0  0  0  0  0  0  0  0  0  0  0  0
   27.8810   29.4620   47.8790 C   0  0  0  0  0  0  0  0  0  0  0  0
   30.8363   28.9613   45.3529 H   0  0  0  0  0  0  0  0  0  0  0  0
   33.0617   29.6573   46.1259 H   0  0  0  0  0  0  0  0  0  0  0  0
   32.4612   27.3551   49.6595 H   0  0  0  0  0  0  0  0  0  0  0  0
   30.2342   26.6545   48.8868 H   0  0  0  0  0  0  0  0  0  0  0  0
   36.9182   28.8575   50.2556 H   0  0  0  0  0  0  0  0  0  0  0  0
   34.7693   27.2993   49.9482 H   0  0  0  0  0  0  0  0  0  0  0  0
   38.1567   33.9227   50.1892 H   0  0  0  0  0  0  0  0  0  0  0  0
   39.7215   33.8045   48.2501 H   0  0  0  0  0  0  0  0  0  0  0  0
   39.4520   31.9353   46.5693 H   0  0  0  0  0  0  0  0  0  0  0  0
   27.1397   27.6390   49.3875 H   0  0  0  0  0  0  0  0  0  0  0  0
   25.7583   27.3092   48.2877 H   0  0  0  0  0  0  0  0  0  0  0  0
   27.1863   26.2195   48.2877 H   0  0  0  0  0  0  0  0  0  0  0  0
   25.4851   28.6392   46.7459 H   0  0  0  0  0  0  0  0  0  0  0  0
   26.7680   29.2282   45.6350 H   0  0  0  0  0  0  0  0  0  0  0  0
   26.3076   27.4919   45.6350 H   0  0  0  0  0  0  0  0  0  0  0  0
   27.8721   29.4306   48.9785 H   0  0  0  0  0  0  0  0  0  0  0  0
   28.8895   29.7258   47.5279 H   0  0  0  0  0  0  0  0  0  0  0  0
   27.1615   30.2164   47.5279 H   0  0  0  0  0  0  0  0  0  0  0  0
  1  6  2  0
  2  3  2  0
  2  1  1  0
  3  4  1  0
  4 10  1  0
  4  5  2  0
  6  5  1  0
  7  8  1  0
  9  8  2  0
 10  9  1  0
 11 10  1  0
 11  7  2  0
 12 17  2  0
 13 12  1  0
 14 15  1  0
 14 13  2  0
 15 16  2  0
 16  7  1  0
 16 17  1  0
 18 20  2  0
 18  1  1  0
 18 21  1  0
 19 18  2  0
 21 24  1  0
 21 22  1  0
 23 21  1  0
  2 25  1  0
  3 26  1  0
  5 27  1  0
  6 28  1  0
  8 29  1  0
  9 30  1  0
 12 31  1  0
 13 32  1  0
 14 33  1  0
 22 34  1  0
 22 35  1  0
 22 36  1  0
 23 37  1  0
 23 38  1  0
 23 39  1  0
 24 40  1  0
 24 41  1  0
 24 42  1  0
M  ISO  8  25  14  26  14  27  14  28  14  29  14  30  14  31  14  32  14
M  ISO  8  33  14  34   8  35   8  36   8  37   8  38   8  39   8  40   8
M  ISO  2  41   8  42   8
M  END
>  <minimizedAffinity>  (1) 
-6.01731825

>  <minimizedRMSD>  (1) 
1.69121909

$$$$
