
     RDKit          3D

 30 32  0  0  0  0  0  0  0  0999 V2000
   37.0550   31.3170   48.5450 C   0  0  0  0  0  0  0  0  0  0  0  0
   37.3670   32.1920   49.6090 C   0  0  0  0  0  0  0  0  0  0  0  0
   38.3690   33.1390   49.3890 C   0  0  0  0  0  0  0  0  0  0  0  0
   38.9880   33.1590   48.1490 N   0  0  0  0  0  0  0  0  0  0  0  0
   38.6500   32.3140   47.1940 C   0  0  0  0  0  0  0  0  0  0  0  0
   37.6730   31.3710   47.3680 N   0  0  0  0  0  0  0  0  0  0  0  0
   39.3130   32.3510   45.8950 C   0  0  0  0  0  0  0  0  0  0  0  0
   39.9130   33.4680   45.3600 C   0  0  0  0  0  0  0  0  0  0  0  0
   40.4380   33.1260   44.1130 C   0  0  0  0  0  0  0  0  0  0  0  0
   40.1130   31.7740   43.9620 C   0  0  0  0  0  0  0  0  0  0  0  0
   39.4640   31.3750   45.0190 O   0  0  0  0  0  0  0  0  0  0  0  0
   40.4570   30.9400   42.7850 C   0  0  0  0  0  0  0  0  0  0  0  0
   39.9930   31.3650   41.5240 C   0  0  0  0  0  0  0  0  0  0  0  0
   40.6530   30.0440   40.4000 S   0  0  0  0  0  0  0  0  0  0  0  0
   41.4470   29.1500   41.8770 C   0  0  0  0  0  0  0  0  0  0  0  0
   41.1570   29.8250   42.7570 N   0  0  0  0  0  0  0  0  0  0  0  0
   36.0030   30.3320   48.7920 C   0  0  0  0  0  0  0  0  0  0  0  0
   34.8180   30.5580   48.3770 O   0  0  0  0  0  0  0  0  0  0  0  0
   36.3080   29.1640   49.4760 O   0  0  0  0  0  0  0  0  0  0  0  0
   36.5400   29.1540   50.8540 C   0  0  0  0  0  0  0  0  0  0  0  0
   37.8270   29.0380   51.4140 N   0  0  0  0  0  0  0  0  0  0  0  0
   35.5090   29.2570   51.5490 O   0  0  0  0  0  0  0  0  0  0  0  0
   36.8411   32.1297   50.5732 H   0  0  0  0  0  0  0  0  0  0  0  0
   38.6590   33.8491   50.1774 H   0  0  0  0  0  0  0  0  0  0  0  0
   39.9691   34.4593   45.8335 H   0  0  0  0  0  0  0  0  0  0  0  0
   40.9831   33.7723   43.4093 H   0  0  0  0  0  0  0  0  0  0  0  0
   39.3936   32.2519   41.2710 H   0  0  0  0  0  0  0  0  0  0  0  0
   42.0355   28.2207   41.8854 H   0  0  0  0  0  0  0  0  0  0  0  0
   37.9451   29.0357   52.4372 H   0  0  0  0  0  0  0  0  0  0  0  0
   38.6501   28.9555   50.8004 H   0  0  0  0  0  0  0  0  0  0  0  0
  1 17  1  0
  1  2  2  0
  3  2  1  0
  4  3  2  0
  5  6  2  0
  5  4  1  0
  6  1  1  0
  7  5  1  0
  8  7  2  0
  9  8  1  0
 10  9  2  0
 10 11  1  0
 11  7  1  0
 12 10  1  0
 13 12  2  0
 14 13  1  0
 14 15  1  0
 15 16  2  0
 16 12  1  0
 17 19  1  0
 18 17  2  0
 19 20  1  0
 20 21  1  0
 20 22  2  0
  2 23  1  0
  3 24  1  0
  8 25  1  0
  9 26  1  0
 13 27  1  0
 15 28  1  0
 21 29  1  0
 21 30  1  0
M  ISO  6  23  14  24  14  25  14  26  14  27  14  28  14
M  END
>  <minimizedAffinity>  (1) 
-6.02998686

>  <minimizedRMSD>  (1) 
2.03716755

$$$$
