
     RDKit          3D

 37 39  0  0  0  0  0  0  0  0999 V2000
   37.2780   31.3470   48.4480 C   0  0  0  0  0  0  0  0  0  0  0  0
   37.7760   32.3550   49.3150 C   0  0  0  0  0  0  0  0  0  0  0  0
   38.7700   33.2020   48.8060 C   0  0  0  0  0  0  0  0  0  0  0  0
   39.1870   32.9950   47.5090 N   0  0  0  0  0  0  0  0  0  0  0  0
   38.6750   32.0250   46.7440 C   0  0  0  0  0  0  0  0  0  0  0  0
   37.7110   31.1880   47.2080 N   0  0  0  0  0  0  0  0  0  0  0  0
   39.1510   31.8450   45.3720 C   0  0  0  0  0  0  0  0  0  0  0  0
   39.6550   32.8890   44.6070 C   0  0  0  0  0  0  0  0  0  0  0  0
   40.0080   32.3550   43.3640 C   0  0  0  0  0  0  0  0  0  0  0  0
   39.6960   31.0160   43.4580 C   0  0  0  0  0  0  0  0  0  0  0  0
   39.2010   30.7680   44.6390 O   0  0  0  0  0  0  0  0  0  0  0  0
   39.8820   30.0550   42.4250 N   0  0  0  0  0  0  0  0  0  0  0  0
   40.9050   30.2240   41.4120 C   0  0  0  0  0  0  0  0  0  0  0  0
   41.6900   28.9240   41.3220 C   0  0  0  0  0  0  0  0  0  0  0  0
   40.7790   27.8990   41.1260 O   0  0  0  0  0  0  0  0  0  0  0  0
   40.0270   27.6970   42.2800 C   0  0  0  0  0  0  0  0  0  0  0  0
   39.0460   28.8710   42.3550 C   0  0  0  0  0  0  0  0  0  0  0  0
   36.2450   30.4790   48.9990 C   0  0  0  0  0  0  0  0  0  0  0  0
   35.0240   30.7150   48.7300 O   0  0  0  0  0  0  0  0  0  0  0  0
   36.6150   29.4030   49.8100 O   0  0  0  0  0  0  0  0  0  0  0  0
   36.5690   29.4750   51.2010 C   0  0  0  0  0  0  0  0  0  0  0  0
   37.7050   29.8120   51.9820 N   0  0  0  0  0  0  0  0  0  0  0  0
   35.4280   29.2130   51.6760 O   0  0  0  0  0  0  0  0  0  0  0  0
   37.3980   32.4664   50.3420 H   0  0  0  0  0  0  0  0  0  0  0  0
   39.2026   34.0048   49.4211 H   0  0  0  0  0  0  0  0  0  0  0  0
   39.7572   33.9385   44.9202 H   0  0  0  0  0  0  0  0  0  0  0  0
   40.4391   32.8858   42.5024 H   0  0  0  0  0  0  0  0  0  0  0  0
   40.4374   30.4467   40.4415 H   0  0  0  0  0  0  0  0  0  0  0  0
   41.5721   31.0581   41.6752 H   0  0  0  0  0  0  0  0  0  0  0  0
   42.3932   28.9678   40.4773 H   0  0  0  0  0  0  0  0  0  0  0  0
   42.2685   28.7568   42.2425 H   0  0  0  0  0  0  0  0  0  0  0  0
   39.4797   26.7449   42.2178 H   0  0  0  0  0  0  0  0  0  0  0  0
   40.6660   27.6479   43.1740 H   0  0  0  0  0  0  0  0  0  0  0  0
   38.4087   28.9001   41.4589 H   0  0  0  0  0  0  0  0  0  0  0  0
   38.3705   28.7904   43.2194 H   0  0  0  0  0  0  0  0  0  0  0  0
   37.6301   29.8547   53.0084 H   0  0  0  0  0  0  0  0  0  0  0  0
   38.6044   30.0139   51.5224 H   0  0  0  0  0  0  0  0  0  0  0  0
  1 18  1  0
  1  2  2  0
  3  2  1  0
  4  3  2  0
  5  6  2  0
  5  4  1  0
  6  1  1  0
  7  5  1  0
  8  7  2  0
  9 10  2  0
  9  8  1  0
 10 11  1  0
 11  7  1  0
 12 10  1  0
 13 12  1  0
 14 13  1  0
 15 14  1  0
 15 16  1  0
 16 17  1  0
 17 12  1  0
 18 20  1  0
 19 18  2  0
 20 21  1  0
 21 23  2  0
 21 22  1  0
  2 24  1  0
  3 25  1  0
  8 26  1  0
  9 27  1  0
 13 28  1  0
 13 29  1  0
 14 30  1  0
 14 31  1  0
 16 32  1  0
 16 33  1  0
 17 34  1  0
 17 35  1  0
 22 36  1  0
 22 37  1  0
M  ISO  8  24  14  25  14  26  14  27  14  28  13  29  13  30  13  31  13
M  ISO  4  32  13  33  13  34  13  35  13
M  END
>  <minimizedAffinity>  (1) 
-5.9510417

>  <minimizedRMSD>  (1) 
2.60125804

$$$$
