
     RDKit          3D

 52 57  0  0  0  0  0  0  0  0999 V2000
   40.2520   31.2000   44.2560 C   0  0  0  0  0  0  0  0  0  0  0  0
   39.6000   31.8650   45.2690 C   0  0  0  0  0  0  0  0  0  0  0  0
   38.3980   32.5120   44.9570 C   0  0  0  0  0  0  0  0  0  0  0  0
   37.8690   32.4860   43.6550 C   0  0  0  0  0  0  0  0  0  0  0  0
   36.7780   32.9940   43.0740 N   0  0  0  0  0  0  0  0  0  0  0  0
   36.7580   32.6600   41.7730 C   0  0  0  0  0  0  0  0  0  0  0  0
   37.8670   31.9260   41.5390 N   0  0  0  0  0  0  0  0  0  0  0  0
   38.5690   31.8060   42.6940 C   0  0  0  0  0  0  0  0  0  0  0  0
   39.7570   31.1600   42.9770 C   0  0  0  0  0  0  0  0  0  0  0  0
   40.9460   29.1510   42.1300 C   0  0  0  0  0  0  0  0  0  0  0  0
   40.4880   30.4400   41.9400 C   0  0  0  0  0  0  0  0  0  0  0  0
   40.6760   31.1510   40.7800 C   0  0  0  0  0  0  0  0  0  0  0  0
   41.3630   30.5420   39.7390 C   0  0  0  0  0  0  0  0  0  0  0  0
   41.7230   30.9190   38.4990 N   0  0  0  0  0  0  0  0  0  0  0  0
   42.3930   29.9450   37.8610 C   0  0  0  0  0  0  0  0  0  0  0  0
   42.4740   28.8750   38.7360 C   0  0  0  0  0  0  0  0  0  0  0  0
   41.8320   29.2430   39.9110 C   0  0  0  0  0  0  0  0  0  0  0  0
   41.6230   28.5610   41.0920 C   0  0  0  0  0  0  0  0  0  0  0  0
   39.9200   32.0180   46.5750 O   0  0  0  0  0  0  0  0  0  0  0  0
   38.0930   31.4110   48.0480 C   0  0  0  0  0  0  0  0  0  0  0  0
   37.2070   31.5990   49.0930 C   0  0  0  0  0  0  0  0  0  0  0  0
   37.3730   32.8260   49.7630 C   0  0  0  0  0  0  0  0  0  0  0  0
   38.3560   33.7500   49.3820 C   0  0  0  0  0  0  0  0  0  0  0  0
   39.2050   33.4460   48.2950 C   0  0  0  0  0  0  0  0  0  0  0  0
   39.0570   32.2430   47.6220 C   0  0  0  0  0  0  0  0  0  0  0  0
   35.0900   30.4450   48.6810 C   0  0  0  0  0  0  0  0  0  0  0  0
   36.2050   30.6580   49.4820 C   0  0  0  0  0  0  0  0  0  0  0  0
   36.3040   29.9180   50.6750 C   0  0  0  0  0  0  0  0  0  0  0  0
   35.3090   29.0480   50.9640 N   0  0  0  0  0  0  0  0  0  0  0  0
   34.2330   28.8720   50.1500 C   0  0  0  0  0  0  0  0  0  0  0  0
   34.1290   29.5700   49.0130 N   0  0  0  0  0  0  0  0  0  0  0  0
   37.4690   30.1030   51.5660 C   0  0  0  0  0  0  0  0  0  0  0  0
   38.0050   30.2160   47.3170 O   0  0  0  0  0  0  0  0  0  0  0  0
   41.1983   30.6851   44.4783 H   0  0  0  0  0  0  0  0  0  0  0  0
   37.8563   33.0520   45.7475 H   0  0  0  0  0  0  0  0  0  0  0  0
   36.0602   33.5571   43.5520 H   0  0  0  0  0  0  0  0  0  0  0  0
   35.9857   32.9324   41.0386 H   0  0  0  0  0  0  0  0  0  0  0  0
   40.7748   28.6177   43.0767 H   0  0  0  0  0  0  0  0  0  0  0  0
   40.2920   32.1768   40.6786 H   0  0  0  0  0  0  0  0  0  0  0  0
   41.5113   31.8401   38.0895 H   0  0  0  0  0  0  0  0  0  0  0  0
   42.7992   29.9891   36.8397 H   0  0  0  0  0  0  0  0  0  0  0  0
   42.9592   27.9082   38.5364 H   0  0  0  0  0  0  0  0  0  0  0  0
   42.0026   27.5345   41.2028 H   0  0  0  0  0  0  0  0  0  0  0  0
   36.7128   33.0665   50.6093 H   0  0  0  0  0  0  0  0  0  0  0  0
   38.4649   34.7012   49.9236 H   0  0  0  0  0  0  0  0  0  0  0  0
   39.9807   34.1610   47.9836 H   0  0  0  0  0  0  0  0  0  0  0  0
   34.9920   31.0125   47.7438 H   0  0  0  0  0  0  0  0  0  0  0  0
   33.4468   28.1543   50.4272 H   0  0  0  0  0  0  0  0  0  0  0  0
   37.1406   30.0509   52.6145 H   0  0  0  0  0  0  0  0  0  0  0  0
   38.2075   29.3109   51.3732 H   0  0  0  0  0  0  0  0  0  0  0  0
   37.9258   31.0849   51.3732 H   0  0  0  0  0  0  0  0  0  0  0  0
   38.6245   30.0503   46.5628 H   0  0  0  0  0  0  0  0  0  0  0  0
  1  2  2  0
  2 19  1  0
  3  2  1  0
  4  3  2  0
  5  4  1  0
  6  5  1  0
  7  6  2  0
  7  8  1  0
  8  9  2  0
  8  4  1  0
  9  1  1  0
 11 10  2  0
 11  9  1  0
 12 11  1  0
 13 17  1  0
 13 12  2  0
 14 13  1  0
 15 14  1  0
 15 16  2  0
 16 17  1  0
 17 18  2  0
 18 10  1  0
 19 25  1  0
 20 21  2  0
 21 27  1  0
 21 22  1  0
 23 22  2  0
 24 23  1  0
 25 20  1  0
 25 24  2  0
 26 31  2  0
 26 27  1  0
 27 28  2  0
 28 29  1  0
 28 32  1  0
 30 29  2  0
 31 30  1  0
 33 20  1  0
  1 34  1  0
  3 35  1  0
  5 36  1  0
  6 37  1  0
 10 38  1  0
 12 39  1  0
 14 40  1  0
 15 41  1  0
 16 42  1  0
 18 43  1  0
 22 44  1  0
 23 45  1  0
 24 46  1  0
 26 47  1  0
 30 48  1  0
 32 49  1  0
 32 50  1  0
 32 51  1  0
 33 52  1  0
M  END
>  <Score>  (1) 
-8.09781

>  <Score_dual>  (1) 
-7.44

>  <Choices>  (1) 
[None, 7, ['35-27', 90], 18, ['3-10', 0], 24, ['34-12', 330], 37, ['24-9', 120]]

$$$$
