
     RDKit          3D

 47 51  0  0  0  0  0  0  0  0999 V2000
   38.6980   31.5340   47.2860 C   0  0  0  0  0  0  0  0  0  0  0  0
   39.3150   32.7630   47.2620 C   0  0  0  0  0  0  0  0  0  0  0  0
   40.1020   33.1850   46.2130 C   0  0  0  0  0  0  0  0  0  0  0  0
   40.3030   32.3690   45.1300 C   0  0  0  0  0  0  0  0  0  0  0  0
   39.6780   31.1580   45.1870 C   0  0  0  0  0  0  0  0  0  0  0  0
   38.9120   30.7430   46.2000 N   0  0  0  0  0  0  0  0  0  0  0  0
   37.3710   30.6300   50.6990 C   0  0  0  0  0  0  0  0  0  0  0  0
   38.2670   31.0900   49.7300 C   0  0  0  0  0  0  0  0  0  0  0  0
   37.8630   31.0830   48.3940 C   0  0  0  0  0  0  0  0  0  0  0  0
   36.6190   30.6280   48.1160 N   0  0  0  0  0  0  0  0  0  0  0  0
   35.7760   30.1910   49.0740 C   0  0  0  0  0  0  0  0  0  0  0  0
   36.1390   30.1890   50.3430 N   0  0  0  0  0  0  0  0  0  0  0  0
   34.5010   29.7430   48.6290 N   0  0  0  0  0  0  0  0  0  0  0  0
   33.8010   28.7060   49.3660 C   0  0  0  0  0  0  0  0  0  0  0  0
   33.7240   27.4980   48.4400 C   0  0  0  0  0  0  0  0  0  0  0  0
   34.1330   27.8430   47.0750 N   0  0  0  0  0  0  0  0  0  0  0  0
   33.4230   29.0460   46.6320 C   0  0  0  0  0  0  0  0  0  0  0  0
   33.8320   30.2670   47.4530 C   0  0  0  0  0  0  0  0  0  0  0  0
   39.0420   29.1240   43.8410 C   0  0  0  0  0  0  0  0  0  0  0  0
   39.8400   30.2320   44.0740 C   0  0  0  0  0  0  0  0  0  0  0  0
   40.8390   30.3860   43.1210 C   0  0  0  0  0  0  0  0  0  0  0  0
   41.0530   29.5550   42.0470 C   0  0  0  0  0  0  0  0  0  0  0  0
   41.9480   29.5460   41.0460 N   0  0  0  0  0  0  0  0  0  0  0  0
   41.6870   28.4800   40.2600 C   0  0  0  0  0  0  0  0  0  0  0  0
   40.6070   27.7830   40.7560 C   0  0  0  0  0  0  0  0  0  0  0  0
   40.2130   28.4730   41.8870 C   0  0  0  0  0  0  0  0  0  0  0  0
   39.2090   28.2580   42.7820 C   0  0  0  0  0  0  0  0  0  0  0  0
   39.1738   33.4389   48.1183 H   0  0  0  0  0  0  0  0  0  0  0  0
   40.5705   34.1797   46.2445 H   0  0  0  0  0  0  0  0  0  0  0  0
   40.9252   32.6700   44.2743 H   0  0  0  0  0  0  0  0  0  0  0  0
   37.6673   30.6256   51.7583 H   0  0  0  0  0  0  0  0  0  0  0  0
   39.2673   31.4492   50.0136 H   0  0  0  0  0  0  0  0  0  0  0  0
   34.3551   28.4494   50.2809 H   0  0  0  0  0  0  0  0  0  0  0  0
   32.7981   29.0403   49.6699 H   0  0  0  0  0  0  0  0  0  0  0  0
   34.3882   26.7098   48.8241 H   0  0  0  0  0  0  0  0  0  0  0  0
   32.6809   27.1500   48.4112 H   0  0  0  0  0  0  0  0  0  0  0  0
   35.1477   28.0187   47.0564 H   0  0  0  0  0  0  0  0  0  0  0  0
   33.6580   29.2311   45.5735 H   0  0  0  0  0  0  0  0  0  0  0  0
   32.3439   28.8819   46.7687 H   0  0  0  0  0  0  0  0  0  0  0  0
   34.5161   30.9060   46.8753 H   0  0  0  0  0  0  0  0  0  0  0  0
   32.9628   30.8852   47.7219 H   0  0  0  0  0  0  0  0  0  0  0  0
   38.2224   28.9224   44.5465 H   0  0  0  0  0  0  0  0  0  0  0  0
   41.5159   31.2454   43.2354 H   0  0  0  0  0  0  0  0  0  0  0  0
   42.7022   30.2327   40.9029 H   0  0  0  0  0  0  0  0  0  0  0  0
   42.2530   28.2080   39.3569 H   0  0  0  0  0  0  0  0  0  0  0  0
   40.1543   26.8708   40.3401 H   0  0  0  0  0  0  0  0  0  0  0  0
   38.5348   27.3974   42.6601 H   0  0  0  0  0  0  0  0  0  0  0  0
  1  9  1  0
  2  1  2  0
  3  2  1  0
  4  5  1  0
  4  3  2  0
  5  6  2  0
  6  1  1  0
  8  7  2  0
  9  8  1  0
 10  9  2  0
 10 11  1  0
 11 12  2  0
 12  7  1  0
 13 11  1  0
 13 14  1  0
 15 14  1  0
 16 15  1  0
 17 16  1  0
 17 18  1  0
 18 13  1  0
 19 20  2  0
 20  5  1  0
 21 20  1  0
 22 21  2  0
 23 22  1  0
 24 25  2  0
 24 23  1  0
 25 26  1  0
 26 22  1  0
 26 27  2  0
 27 19  1  0
  2 28  1  0
  3 29  1  0
  4 30  1  0
  7 31  1  0
  8 32  1  0
 14 33  1  0
 14 34  1  0
 15 35  1  0
 15 36  1  0
 16 37  1  0
 17 38  1  0
 17 39  1  0
 18 40  1  0
 18 41  1  0
 19 42  1  0
 21 43  1  0
 23 44  1  0
 24 45  1  0
 25 46  1  0
 27 47  1  0
M  END
>  <Score>  (1) 
-7.68731

>  <Score_dual>  (1) 
-7.16

>  <Choices>  (1) 
[None, 8, ['6-17', 345], 18, ['24-9', 180], 32, ['15-7', 150]]

$$$$
