
     RDKit          3D

 43 47  0  0  0  0  0  0  0  0999 V2000
   38.7650   31.6830   46.9580 C   0  0  0  0  0  0  0  0  0  0  0  0
   39.4710   32.8500   46.9330 C   0  0  0  0  0  0  0  0  0  0  0  0
   40.3390   33.1800   45.9120 C   0  0  0  0  0  0  0  0  0  0  0  0
   40.5210   32.3200   44.8620 C   0  0  0  0  0  0  0  0  0  0  0  0
   39.7910   31.1520   44.9210 C   0  0  0  0  0  0  0  0  0  0  0  0
   38.9560   30.8430   45.9110 N   0  0  0  0  0  0  0  0  0  0  0  0
   39.1320   29.0730   43.6590 C   0  0  0  0  0  0  0  0  0  0  0  0
   39.9340   30.1900   43.8390 C   0  0  0  0  0  0  0  0  0  0  0  0
   40.9080   30.3050   42.8620 C   0  0  0  0  0  0  0  0  0  0  0  0
   41.0990   29.4340   41.8130 C   0  0  0  0  0  0  0  0  0  0  0  0
   41.9760   29.3920   40.7970 N   0  0  0  0  0  0  0  0  0  0  0  0
   41.7110   28.3100   40.0520 C   0  0  0  0  0  0  0  0  0  0  0  0
   40.6320   27.6260   40.5990 C   0  0  0  0  0  0  0  0  0  0  0  0
   40.2650   28.3570   41.7100 C   0  0  0  0  0  0  0  0  0  0  0  0
   39.2790   28.1760   42.6340 C   0  0  0  0  0  0  0  0  0  0  0  0
   37.0900   31.2360   50.3130 C   0  0  0  0  0  0  0  0  0  0  0  0
   38.0680   31.6450   49.3860 C   0  0  0  0  0  0  0  0  0  0  0  0
   37.8460   31.3290   48.0350 C   0  0  0  0  0  0  0  0  0  0  0  0
   36.7140   30.6570   47.7110 N   0  0  0  0  0  0  0  0  0  0  0  0
   35.7960   30.2820   48.6410 C   0  0  0  0  0  0  0  0  0  0  0  0
   35.9850   30.5680   49.9170 N   0  0  0  0  0  0  0  0  0  0  0  0
   34.9030   27.8330   49.7740 F   0  0  0  0  0  0  0  0  0  0  0  0
   34.2260   28.3750   48.7370 C   0  0  0  0  0  0  0  0  0  0  0  0
   34.6190   29.5610   48.1520 C   0  0  0  0  0  0  0  0  0  0  0  0
   33.9100   30.1030   47.0860 C   0  0  0  0  0  0  0  0  0  0  0  0
   32.7890   29.4410   46.6000 C   0  0  0  0  0  0  0  0  0  0  0  0
   32.4230   28.2700   47.1980 C   0  0  0  0  0  0  0  0  0  0  0  0
   33.1100   27.7110   48.2570 C   0  0  0  0  0  0  0  0  0  0  0  0
   39.3427   33.5596   47.7636 H   0  0  0  0  0  0  0  0  0  0  0  0
   40.8850   34.1345   45.9417 H   0  0  0  0  0  0  0  0  0  0  0  0
   41.2028   32.5456   44.0288 H   0  0  0  0  0  0  0  0  0  0  0  0
   38.3258   28.8958   44.3861 H   0  0  0  0  0  0  0  0  0  0  0  0
   41.5882   31.1668   42.9296 H   0  0  0  0  0  0  0  0  0  0  0  0
   42.7257   30.0758   40.6202 H   0  0  0  0  0  0  0  0  0  0  0  0
   42.2618   28.0100   39.1483 H   0  0  0  0  0  0  0  0  0  0  0  0
   40.1696   26.7002   40.2261 H   0  0  0  0  0  0  0  0  0  0  0  0
   38.6030   27.3117   42.5567 H   0  0  0  0  0  0  0  0  0  0  0  0
   37.2287   31.4649   51.3799 H   0  0  0  0  0  0  0  0  0  0  0  0
   38.9686   32.1894   49.7063 H   0  0  0  0  0  0  0  0  0  0  0  0
   34.2344   31.0500   46.6301 H   0  0  0  0  0  0  0  0  0  0  0  0
   32.2126   29.8494   45.7568 H   0  0  0  0  0  0  0  0  0  0  0  0
   31.5350   27.7446   46.8166 H   0  0  0  0  0  0  0  0  0  0  0  0
   32.7795   26.7634   48.7074 H   0  0  0  0  0  0  0  0  0  0  0  0
  1 18  1  0
  2  1  2  0
  3  2  1  0
  4  5  1  0
  4  3  2  0
  5  6  2  0
  6  1  1  0
  7  8  2  0
  8  5  1  0
  9  8  1  0
 10  9  2  0
 11 10  1  0
 12 13  2  0
 12 11  1  0
 13 14  1  0
 14 10  1  0
 14 15  2  0
 15  7  1  0
 17 16  2  0
 18 17  1  0
 19 18  2  0
 19 20  1  0
 20 21  2  0
 21 16  1  0
 23 22  1  0
 24 20  1  0
 24 23  2  0
 25 24  1  0
 26 25  2  0
 26 27  1  0
 27 28  2  0
 28 23  1  0
  2 29  1  0
  3 30  1  0
  4 31  1  0
  7 32  1  0
  9 33  1  0
 11 34  1  0
 12 35  1  0
 13 36  1  0
 15 37  1  0
 16 38  1  0
 17 39  1  0
 25 40  1  0
 26 41  1  0
 27 42  1  0
 28 43  1  0
M  END
>  <Score>  (1) 
-7.87635

>  <Score_dual>  (1) 
-7.46

>  <Choices>  (1) 
[None, 8, ['6-17', 345], 18, ['24-9', 180], 32, ['9-15', 345]]

$$$$
