
     RDKit          3D

 47 52  0  0  0  0  0  0  0  0999 V2000
   37.2840   31.2310   48.5940 C   0  0  0  0  0  0  0  0  0  0  0  0
   37.7990   32.2430   49.3800 C   0  0  0  0  0  0  0  0  0  0  0  0
   38.7270   33.1550   48.9370 C   0  0  0  0  0  0  0  0  0  0  0  0
   39.1850   33.0810   47.6480 C   0  0  0  0  0  0  0  0  0  0  0  0
   38.6620   32.0730   46.8890 C   0  0  0  0  0  0  0  0  0  0  0  0
   37.7590   31.1920   47.3310 N   0  0  0  0  0  0  0  0  0  0  0  0
   38.9850   32.8890   44.5340 C   0  0  0  0  0  0  0  0  0  0  0  0
   39.0960   31.9250   45.5100 C   0  0  0  0  0  0  0  0  0  0  0  0
   39.6860   30.7450   45.0500 C   0  0  0  0  0  0  0  0  0  0  0  0
   40.1270   30.5190   43.7620 C   0  0  0  0  0  0  0  0  0  0  0  0
   40.7020   29.4780   43.1520 N   0  0  0  0  0  0  0  0  0  0  0  0
   40.9190   29.8190   41.8630 C   0  0  0  0  0  0  0  0  0  0  0  0
   40.4730   31.1150   41.6360 C   0  0  0  0  0  0  0  0  0  0  0  0
   39.9790   31.5310   42.8490 C   0  0  0  0  0  0  0  0  0  0  0  0
   39.4040   32.7270   43.2320 C   0  0  0  0  0  0  0  0  0  0  0  0
   35.1070   29.0220   50.7220 C   0  0  0  0  0  0  0  0  0  0  0  0
   36.1120   29.9480   50.4160 C   0  0  0  0  0  0  0  0  0  0  0  0
   36.3010   30.2800   49.0800 C   0  0  0  0  0  0  0  0  0  0  0  0
   35.5030   29.6850   48.2060 N   0  0  0  0  0  0  0  0  0  0  0  0
   34.5300   28.7940   48.4680 C   0  0  0  0  0  0  0  0  0  0  0  0
   34.3510   28.4770   49.7490 N   0  0  0  0  0  0  0  0  0  0  0  0
   33.6320   28.1170   47.5600 C   0  0  0  0  0  0  0  0  0  0  0  0
   34.0040   27.7770   46.3160 N   0  0  0  0  0  0  0  0  0  0  0  0
   33.2280   27.1510   45.4240 C   0  0  0  0  0  0  0  0  0  0  0  0
   31.9620   26.7940   45.7000 N   0  0  0  0  0  0  0  0  0  0  0  0
   31.4960   27.0910   46.9230 C   0  0  0  0  0  0  0  0  0  0  0  0
   30.2060   26.7470   47.2540 C   0  0  0  0  0  0  0  0  0  0  0  0
   29.6750   27.0280   48.4960 C   0  0  0  0  0  0  0  0  0  0  0  0
   30.5090   27.6780   49.3950 C   0  0  0  0  0  0  0  0  0  0  0  0
   31.7830   28.0050   49.0310 C   0  0  0  0  0  0  0  0  0  0  0  0
   32.3340   27.7360   47.8010 C   0  0  0  0  0  0  0  0  0  0  0  0
   37.4467   32.3237   50.4189 H   0  0  0  0  0  0  0  0  0  0  0  0
   39.0994   33.9389   49.6128 H   0  0  0  0  0  0  0  0  0  0  0  0
   39.9270   33.7886   47.2495 H   0  0  0  0  0  0  0  0  0  0  0  0
   38.5319   33.8520   44.8120 H   0  0  0  0  0  0  0  0  0  0  0  0
   39.8094   29.9274   45.7755 H   0  0  0  0  0  0  0  0  0  0  0  0
   40.9380   28.5751   43.5878 H   0  0  0  0  0  0  0  0  0  0  0  0
   41.3801   29.1676   41.1060 H   0  0  0  0  0  0  0  0  0  0  0  0
   40.5076   31.6823   40.6942 H   0  0  0  0  0  0  0  0  0  0  0  0
   39.2818   33.5425   42.5040 H   0  0  0  0  0  0  0  0  0  0  0  0
   34.9326   28.7360   51.7698 H   0  0  0  0  0  0  0  0  0  0  0  0
   36.7309   30.3974   51.2066 H   0  0  0  0  0  0  0  0  0  0  0  0
   33.6402   26.9205   44.4305 H   0  0  0  0  0  0  0  0  0  0  0  0
   29.5809   26.2340   46.5083 H   0  0  0  0  0  0  0  0  0  0  0  0
   28.6437   26.7511   48.7601 H   0  0  0  0  0  0  0  0  0  0  0  0
   30.1430   27.9297   50.4013 H   0  0  0  0  0  0  0  0  0  0  0  0
   32.4119   28.5190   49.7728 H   0  0  0  0  0  0  0  0  0  0  0  0
  1 18  1  0
  1  2  2  0
  3  2  1  0
  4  3  2  0
  5  6  2  0
  5  4  1  0
  6  1  1  0
  7  8  2  0
  8  5  1  0
  9  8  1  0
 10  9  2  0
 11 10  1  0
 12 11  1  0
 13 12  2  0
 13 14  1  0
 14 15  2  0
 14 10  1  0
 15  7  1  0
 17 16  2  0
 18 17  1  0
 19 20  1  0
 19 18  2  0
 20 21  2  0
 21 16  1  0
 22 31  1  0
 22 20  1  0
 23 22  2  0
 24 25  2  0
 24 23  1  0
 25 26  1  0
 26 27  1  0
 26 31  2  0
 27 28  2  0
 28 29  1  0
 30 29  2  0
 31 30  1  0
  2 32  1  0
  3 33  1  0
  4 34  1  0
  7 35  1  0
  9 36  1  0
 11 37  1  0
 12 38  1  0
 13 39  1  0
 15 40  1  0
 16 41  1  0
 17 42  1  0
 24 43  1  0
 27 44  1  0
 28 45  1  0
 29 46  1  0
 30 47  1  0
M  END
>  <Score>  (1) 
-8.0515

>  <Score_dual>  (1) 
-8.0

>  <Choices>  (1) 
[None, 8, ['6-17', 345], 18, ['24-9', 180], 32, ['47-22', 240]]

$$$$
