
     RDKit          3D

 41 45  0  0  0  0  0  0  0  0999 V2000
   38.7760   31.5490   47.0670 C   0  0  0  0  0  0  0  0  0  0  0  0
   39.4320   32.7580   47.0320 C   0  0  0  0  0  0  0  0  0  0  0  0
   40.2450   33.1460   45.9910 C   0  0  0  0  0  0  0  0  0  0  0  0
   40.4310   32.3100   44.9270 C   0  0  0  0  0  0  0  0  0  0  0  0
   39.7650   31.1120   44.9910 C   0  0  0  0  0  0  0  0  0  0  0  0
   38.9790   30.7390   45.9970 N   0  0  0  0  0  0  0  0  0  0  0  0
   39.1250   29.0550   43.6820 C   0  0  0  0  0  0  0  0  0  0  0  0
   39.9150   30.1670   43.8890 C   0  0  0  0  0  0  0  0  0  0  0  0
   40.9020   30.3130   42.9220 C   0  0  0  0  0  0  0  0  0  0  0  0
   41.1010   29.4610   41.8560 C   0  0  0  0  0  0  0  0  0  0  0  0
   41.9830   29.4440   40.8460 N   0  0  0  0  0  0  0  0  0  0  0  0
   41.7350   28.3780   40.0750 C   0  0  0  0  0  0  0  0  0  0  0  0
   40.6700   27.6860   40.5920 C   0  0  0  0  0  0  0  0  0  0  0  0
   40.2700   28.3720   41.7190 C   0  0  0  0  0  0  0  0  0  0  0  0
   39.2820   28.1750   42.6380 C   0  0  0  0  0  0  0  0  0  0  0  0
   37.3210   30.9060   50.4790 C   0  0  0  0  0  0  0  0  0  0  0  0
   38.2380   31.3530   49.5270 C   0  0  0  0  0  0  0  0  0  0  0  0
   37.9130   31.1340   48.1700 C   0  0  0  0  0  0  0  0  0  0  0  0
   36.7490   30.5140   47.8620 N   0  0  0  0  0  0  0  0  0  0  0  0
   35.8880   30.0950   48.8280 C   0  0  0  0  0  0  0  0  0  0  0  0
   36.1810   30.2940   50.1110 N   0  0  0  0  0  0  0  0  0  0  0  0
   34.6460   29.4300   48.4460 C   0  0  0  0  0  0  0  0  0  0  0  0
   34.0560   28.4940   49.2670 C   0  0  0  0  0  0  0  0  0  0  0  0
   32.8690   27.9170   48.8070 C   0  0  0  0  0  0  0  0  0  0  0  0
   32.3450   28.2690   47.6190 N   0  0  0  0  0  0  0  0  0  0  0  0
   32.9240   29.1790   46.8230 C   0  0  0  0  0  0  0  0  0  0  0  0
   34.0620   29.7270   47.2750 N   0  0  0  0  0  0  0  0  0  0  0  0
   39.3003   33.4488   47.8778 H   0  0  0  0  0  0  0  0  0  0  0  0
   40.7433   34.1263   46.0160 H   0  0  0  0  0  0  0  0  0  0  0  0
   41.0724   32.5794   44.0749 H   0  0  0  0  0  0  0  0  0  0  0  0
   38.3154   28.8597   44.4006 H   0  0  0  0  0  0  0  0  0  0  0  0
   41.5778   31.1760   43.0140 H   0  0  0  0  0  0  0  0  0  0  0  0
   42.7286   30.1371   40.6892 H   0  0  0  0  0  0  0  0  0  0  0  0
   42.2964   28.1012   39.1704 H   0  0  0  0  0  0  0  0  0  0  0  0
   40.2233   26.7657   40.1876 H   0  0  0  0  0  0  0  0  0  0  0  0
   38.6092   27.3099   42.5436 H   0  0  0  0  0  0  0  0  0  0  0  0
   37.5337   31.0565   51.5477 H   0  0  0  0  0  0  0  0  0  0  0  0
   39.1725   31.8537   49.8203 H   0  0  0  0  0  0  0  0  0  0  0  0
   34.4968   28.2150   50.2354 H   0  0  0  0  0  0  0  0  0  0  0  0
   32.3563   27.1649   49.4247 H   0  0  0  0  0  0  0  0  0  0  0  0
   32.4898   29.4609   45.8524 H   0  0  0  0  0  0  0  0  0  0  0  0
  1 18  1  0
  2  1  2  0
  3  2  1  0
  4  5  1  0
  4  3  2  0
  5  6  2  0
  6  1  1  0
  7  8  2  0
  8  5  1  0
  9  8  1  0
 10  9  2  0
 11 10  1  0
 12 13  2  0
 12 11  1  0
 13 14  1  0
 14 10  1  0
 14 15  2  0
 15  7  1  0
 17 16  2  0
 18 17  1  0
 19 18  2  0
 19 20  1  0
 20 21  2  0
 21 16  1  0
 22 20  1  0
 22 23  2  0
 24 23  1  0
 25 24  2  0
 26 27  2  0
 26 25  1  0
 27 22  1  0
  2 28  1  0
  3 29  1  0
  4 30  1  0
  7 31  1  0
  9 32  1  0
 11 33  1  0
 12 34  1  0
 13 35  1  0
 15 36  1  0
 16 37  1  0
 17 38  1  0
 23 39  1  0
 24 40  1  0
 26 41  1  0
M  END
>  <Score>  (1) 
-7.47616

>  <Score_dual>  (1) 
-7.08

>  <Choices>  (1) 
[None, 8, ['6-17', 345], 18, ['24-9', 180], 32, ['19-16', 270]]

$$$$
