
     RDKit          3D

 43 47  0  0  0  0  0  0  0  0999 V2000
   38.8200   31.5570   47.0360 C   0  0  0  0  0  0  0  0  0  0  0  0
   39.4870   32.7610   46.9930 C   0  0  0  0  0  0  0  0  0  0  0  0
   40.3020   33.1420   45.9500 C   0  0  0  0  0  0  0  0  0  0  0  0
   40.4790   32.3040   44.8840 C   0  0  0  0  0  0  0  0  0  0  0  0
   39.8020   31.1050   44.9470 C   0  0  0  0  0  0  0  0  0  0  0  0
   39.0240   30.7610   45.9630 N   0  0  0  0  0  0  0  0  0  0  0  0
   39.1480   29.0580   43.6530 C   0  0  0  0  0  0  0  0  0  0  0  0
   39.9400   30.1610   43.8530 C   0  0  0  0  0  0  0  0  0  0  0  0
   40.9290   30.3070   42.8770 C   0  0  0  0  0  0  0  0  0  0  0  0
   41.1280   29.4630   41.8140 C   0  0  0  0  0  0  0  0  0  0  0  0
   41.9990   29.4340   40.7960 N   0  0  0  0  0  0  0  0  0  0  0  0
   41.7260   28.3550   40.0330 C   0  0  0  0  0  0  0  0  0  0  0  0
   40.6530   27.6600   40.5570 C   0  0  0  0  0  0  0  0  0  0  0  0
   40.2930   28.3790   41.6810 C   0  0  0  0  0  0  0  0  0  0  0  0
   39.2930   28.1720   42.6080 C   0  0  0  0  0  0  0  0  0  0  0  0
   37.3380   30.9780   50.4460 C   0  0  0  0  0  0  0  0  0  0  0  0
   38.2430   31.4250   49.4720 C   0  0  0  0  0  0  0  0  0  0  0  0
   37.9590   31.1450   48.1330 C   0  0  0  0  0  0  0  0  0  0  0  0
   36.8380   30.4680   47.8610 N   0  0  0  0  0  0  0  0  0  0  0  0
   35.9720   30.0410   48.8070 C   0  0  0  0  0  0  0  0  0  0  0  0
   36.2370   30.3050   50.0920 N   0  0  0  0  0  0  0  0  0  0  0  0
   35.3400   30.0390   45.8600 Cl  0  0  0  0  0  0  0  0  0  0  0  0
   34.3920   29.2470   47.1020 C   0  0  0  0  0  0  0  0  0  0  0  0
   34.7640   29.3030   48.4360 C   0  0  0  0  0  0  0  0  0  0  0  0
   34.0210   28.6800   49.4160 C   0  0  0  0  0  0  0  0  0  0  0  0
   32.8940   28.0020   49.0020 C   0  0  0  0  0  0  0  0  0  0  0  0
   32.4470   27.8890   47.7180 C   0  0  0  0  0  0  0  0  0  0  0  0
   33.2390   28.5380   46.7740 C   0  0  0  0  0  0  0  0  0  0  0  0
   39.3623   33.4556   47.8367 H   0  0  0  0  0  0  0  0  0  0  0  0
   40.8092   34.1178   45.9745 H   0  0  0  0  0  0  0  0  0  0  0  0
   41.1205   32.5697   44.0309 H   0  0  0  0  0  0  0  0  0  0  0  0
   38.3419   28.8684   44.3770 H   0  0  0  0  0  0  0  0  0  0  0  0
   41.6042   31.1705   42.9686 H   0  0  0  0  0  0  0  0  0  0  0  0
   42.7492   30.1188   40.6250 H   0  0  0  0  0  0  0  0  0  0  0  0
   42.2779   28.0700   39.1252 H   0  0  0  0  0  0  0  0  0  0  0  0
   40.1897   26.7415   40.1674 H   0  0  0  0  0  0  0  0  0  0  0  0
   38.6182   27.3084   42.5140 H   0  0  0  0  0  0  0  0  0  0  0  0
   37.5349   31.1822   51.5088 H   0  0  0  0  0  0  0  0  0  0  0  0
   39.1499   31.9798   49.7542 H   0  0  0  0  0  0  0  0  0  0  0  0
   34.3128   28.7217   50.4758 H   0  0  0  0  0  0  0  0  0  0  0  0
   32.2983   27.5046   49.7816 H   0  0  0  0  0  0  0  0  0  0  0  0
   31.5370   27.3318   47.4506 H   0  0  0  0  0  0  0  0  0  0  0  0
   32.9390   28.4881   45.7169 H   0  0  0  0  0  0  0  0  0  0  0  0
  1 18  1  0
  2  1  2  0
  3  2  1  0
  4  5  1  0
  4  3  2  0
  5  6  2  0
  6  1  1  0
  7  8  2  0
  8  5  1  0
  9  8  1  0
 10  9  2  0
 11 10  1  0
 12 13  2  0
 12 11  1  0
 13 14  1  0
 14 10  1  0
 14 15  2  0
 15  7  1  0
 17 16  2  0
 18 17  1  0
 19 18  2  0
 19 20  1  0
 20 21  2  0
 21 16  1  0
 22 23  1  0
 23 24  2  0
 24 20  1  0
 24 25  1  0
 26 25  2  0
 27 26  1  0
 28 23  1  0
 28 27  2  0
  2 29  1  0
  3 30  1  0
  4 31  1  0
  7 32  1  0
  9 33  1  0
 11 34  1  0
 12 35  1  0
 13 36  1  0
 15 37  1  0
 16 38  1  0
 17 39  1  0
 25 40  1  0
 26 41  1  0
 27 42  1  0
 28 43  1  0
M  END
>  <Score>  (1) 
-7.82095

>  <Score_dual>  (1) 
-7.49

>  <Choices>  (1) 
[None, 8, ['6-17', 345], 18, ['24-9', 180], 32, ['7-14', 0]]

$$$$
