
     RDKit          3D

 50 54  0  0  0  0  0  0  0  0999 V2000
   30.1640   28.1770   46.6980 C   0  0  0  0  0  0  0  0  0  0  0  0
   30.1570   27.6600   48.0160 C   0  0  0  0  0  0  0  0  0  0  0  0
   31.2330   27.5890   48.8370 C   0  0  0  0  0  0  0  0  0  0  0  0
   32.4350   28.0280   48.4270 C   0  0  0  0  0  0  0  0  0  0  0  0
   32.4510   28.5220   47.1720 C   0  0  0  0  0  0  0  0  0  0  0  0
   31.3790   28.5780   46.3970 N   0  0  0  0  0  0  0  0  0  0  0  0
   28.5510   29.5710   45.6810 C   0  0  0  0  0  0  0  0  0  0  0  0
   28.9330   28.2090   45.9210 C   0  0  0  0  0  0  0  0  0  0  0  0
   28.1220   27.2440   45.4010 C   0  0  0  0  0  0  0  0  0  0  0  0
   27.0190   27.6370   44.6980 N   0  0  0  0  0  0  0  0  0  0  0  0
   26.6700   28.9090   44.4770 C   0  0  0  0  0  0  0  0  0  0  0  0
   27.4600   29.8710   44.9840 N   0  0  0  0  0  0  0  0  0  0  0  0
   25.5100   29.1310   43.7310 N   0  0  0  0  0  0  0  0  0  0  0  0
   28.4610   25.8450   45.6160 C   0  0  0  0  0  0  0  0  0  0  0  0
   28.1720   25.5060   46.8620 F   0  0  0  0  0  0  0  0  0  0  0  0
   27.8310   24.9580   44.7590 F   0  0  0  0  0  0  0  0  0  0  0  0
   29.8540   25.6140   45.4340 F   0  0  0  0  0  0  0  0  0  0  0  0
   34.3230   29.8930   48.6850 F   0  0  0  0  0  0  0  0  0  0  0  0
   34.6280   29.7310   47.3600 C   0  0  0  0  0  0  0  0  0  0  0  0
   33.7050   29.0470   46.5890 C   0  0  0  0  0  0  0  0  0  0  0  0
   34.0520   28.9040   45.2610 C   0  0  0  0  0  0  0  0  0  0  0  0
   35.2310   29.4120   44.7590 C   0  0  0  0  0  0  0  0  0  0  0  0
   36.1080   30.0850   45.5840 C   0  0  0  0  0  0  0  0  0  0  0  0
   35.8120   30.2520   46.9030 C   0  0  0  0  0  0  0  0  0  0  0  0
   36.6890   30.9490   47.8260 C   0  0  0  0  0  0  0  0  0  0  0  0
   36.4180   30.8000   49.1620 C   0  0  0  0  0  0  0  0  0  0  0  0
   37.2720   31.4780   50.0330 C   0  0  0  0  0  0  0  0  0  0  0  0
   38.3080   32.2390   49.5560 C   0  0  0  0  0  0  0  0  0  0  0  0
   38.5460   32.3620   48.1900 C   0  0  0  0  0  0  0  0  0  0  0  0
   39.5820   33.1220   47.6820 C   0  0  0  0  0  0  0  0  0  0  0  0
   39.7480   33.1910   46.3060 C   0  0  0  0  0  0  0  0  0  0  0  0
   38.9050   32.5210   45.4140 C   0  0  0  0  0  0  0  0  0  0  0  0
   37.8770   31.7680   45.9210 C   0  0  0  0  0  0  0  0  0  0  0  0
   37.7240   31.7070   47.2930 C   0  0  0  0  0  0  0  0  0  0  0  0
   29.1992   27.2850   48.4059 H   0  0  0  0  0  0  0  0  0  0  0  0
   31.1214   27.1685   49.8473 H   0  0  0  0  0  0  0  0  0  0  0  0
   33.3320   27.9878   49.0625 H   0  0  0  0  0  0  0  0  0  0  0  0
   29.1742   30.3838   46.0823 H   0  0  0  0  0  0  0  0  0  0  0  0
   25.2004   30.0935   43.5345 H   0  0  0  0  0  0  0  0  0  0  0  0
   24.9643   28.3322   43.3775 H   0  0  0  0  0  0  0  0  0  0  0  0
   33.3688   28.3698   44.5843 H   0  0  0  0  0  0  0  0  0  0  0  0
   35.4739   29.2799   43.6943 H   0  0  0  0  0  0  0  0  0  0  0  0
   37.0472   30.4872   45.1764 H   0  0  0  0  0  0  0  0  0  0  0  0
   35.5808   30.1852   49.5241 H   0  0  0  0  0  0  0  0  0  0  0  0
   37.1116   31.4007   51.1185 H   0  0  0  0  0  0  0  0  0  0  0  0
   38.9641   32.7627   50.2668 H   0  0  0  0  0  0  0  0  0  0  0  0
   40.2628   33.6625   48.3560 H   0  0  0  0  0  0  0  0  0  0  0  0
   40.5735   33.7953   45.9019 H   0  0  0  0  0  0  0  0  0  0  0  0
   39.0631   32.5963   44.3280 H   0  0  0  0  0  0  0  0  0  0  0  0
   37.1917   31.2263   45.2525 H   0  0  0  0  0  0  0  0  0  0  0  0
  1  2  2  0
  2  3  1  0
  4  3  2  0
  5  4  1  0
  6  1  1  0
  6  5  2  0
  7  8  2  0
  8  1  1  0
  9 14  1  0
  9  8  1  0
 10  9  2  0
 11 10  1  0
 11 12  2  0
 12  7  1  0
 13 11  1  0
 14 15  1  0
 16 14  1  0
 17 14  1  0
 19 18  1  0
 20  5  1  0
 20 19  2  0
 21 20  1  0
 22 21  2  0
 22 23  1  0
 23 24  2  0
 24 19  1  0
 24 25  1  0
 25 26  2  0
 26 27  1  0
 28 27  2  0
 29 28  1  0
 30 29  2  0
 31 30  1  0
 32 33  1  0
 32 31  2  0
 33 34  2  0
 34 25  1  0
 34 29  1  0
  2 35  1  0
  3 36  1  0
  4 37  1  0
  7 38  1  0
 13 39  1  0
 13 40  1  0
 21 41  1  0
 22 42  1  0
 23 43  1  0
 26 44  1  0
 27 45  1  0
 28 46  1  0
 30 47  1  0
 31 48  1  0
 32 49  1  0
 33 50  1  0
M  END
>  <Score>  (1) 
-7.59855

>  <Score_dual>  (1) 
-8.17

>  <Choices>  (1) 
[None, 8, ['11-11', 210], 12, ['0-3', 0], 12, ['6-10', 345], 23, ['9-15', 60], 33, ['26-23', 225]]

$$$$
