
     RDKit          3D

 48 53  0  0  0  0  0  0  0  0999 V2000
   38.5260   31.4390   46.4470 C   0  0  0  0  0  0  0  0  0  0  0  0
   39.0990   31.3950   45.2080 N   0  0  0  0  0  0  0  0  0  0  0  0
   40.0410   32.3090   44.8720 C   0  0  0  0  0  0  0  0  0  0  0  0
   40.4530   33.2790   45.7050 N   0  0  0  0  0  0  0  0  0  0  0  0
   39.9240   33.3660   46.9280 C   0  0  0  0  0  0  0  0  0  0  0  0
   40.3420   34.3710   47.7740 C   0  0  0  0  0  0  0  0  0  0  0  0
   39.7940   34.4770   49.0360 C   0  0  0  0  0  0  0  0  0  0  0  0
   38.8170   33.5600   49.4480 C   0  0  0  0  0  0  0  0  0  0  0  0
   38.4380   32.5700   48.5500 C   0  0  0  0  0  0  0  0  0  0  0  0
   38.9610   32.4470   47.3020 C   0  0  0  0  0  0  0  0  0  0  0  0
   38.1430   30.7380   49.9970 C   0  0  0  0  0  0  0  0  0  0  0  0
   37.4850   31.6940   49.2150 C   0  0  0  0  0  0  0  0  0  0  0  0
   36.0830   31.6210   49.1600 C   0  0  0  0  0  0  0  0  0  0  0  0
   35.4200   30.6370   49.8600 C   0  0  0  0  0  0  0  0  0  0  0  0
   34.0870   30.4560   49.8950 N   0  0  0  0  0  0  0  0  0  0  0  0
   33.8830   29.4100   50.6780 N   0  0  0  0  0  0  0  0  0  0  0  0
   35.0730   28.9270   51.1410 C   0  0  0  0  0  0  0  0  0  0  0  0
   36.0890   29.7060   50.6240 C   0  0  0  0  0  0  0  0  0  0  0  0
   37.4620   29.7590   50.6920 C   0  0  0  0  0  0  0  0  0  0  0  0
   37.2680   30.3570   47.0270 S   0  0  0  0  0  0  0  0  0  0  0  0
   34.8000   28.8490   47.4430 F   0  0  0  0  0  0  0  0  0  0  0  0
   34.8240   29.4230   46.2030 C   0  0  0  0  0  0  0  0  0  0  0  0
   33.7700   29.2620   45.3120 C   0  0  0  0  0  0  0  0  0  0  0  0
   33.8420   29.8700   44.0540 C   0  0  0  0  0  0  0  0  0  0  0  0
   34.9530   30.6300   43.6910 C   0  0  0  0  0  0  0  0  0  0  0  0
   35.9630   30.7490   44.6250 C   0  0  0  0  0  0  0  0  0  0  0  0
   35.9260   30.1650   45.8680 C   0  0  0  0  0  0  0  0  0  0  0  0
   32.7570   27.1320   45.4450 C   0  0  0  0  0  0  0  0  0  0  0  0
   32.6690   28.4750   45.7460 C   0  0  0  0  0  0  0  0  0  0  0  0
   31.5310   28.8960   46.4300 C   0  0  0  0  0  0  0  0  0  0  0  0
   30.5800   27.9710   46.7580 N   0  0  0  0  0  0  0  0  0  0  0  0
   30.7120   26.6930   46.4460 C   0  0  0  0  0  0  0  0  0  0  0  0
   31.7880   26.2460   45.7910 N   0  0  0  0  0  0  0  0  0  0  0  0
   40.4898   32.2542   43.8692 H   0  0  0  0  0  0  0  0  0  0  0  0
   41.1099   35.0861   47.4441 H   0  0  0  0  0  0  0  0  0  0  0  0
   40.1223   35.2773   49.7155 H   0  0  0  0  0  0  0  0  0  0  0  0
   38.3654   33.6222   50.4491 H   0  0  0  0  0  0  0  0  0  0  0  0
   39.2408   30.7678   50.0600 H   0  0  0  0  0  0  0  0  0  0  0  0
   35.5162   32.3477   48.5595 H   0  0  0  0  0  0  0  0  0  0  0  0
   33.3718   31.0174   49.4109 H   0  0  0  0  0  0  0  0  0  0  0  0
   35.2006   28.0644   51.8115 H   0  0  0  0  0  0  0  0  0  0  0  0
   38.0143   29.0250   51.2971 H   0  0  0  0  0  0  0  0  0  0  0  0
   33.0120   29.7469   43.3427 H   0  0  0  0  0  0  0  0  0  0  0  0
   35.0219   31.1130   42.7051 H   0  0  0  0  0  0  0  0  0  0  0  0
   36.8479   31.3456   44.3586 H   0  0  0  0  0  0  0  0  0  0  0  0
   33.6431   26.7658   44.9058 H   0  0  0  0  0  0  0  0  0  0  0  0
   31.4001   29.9540   46.7013 H   0  0  0  0  0  0  0  0  0  0  0  0
   29.9209   25.9838   46.7310 H   0  0  0  0  0  0  0  0  0  0  0  0
  1 20  1  0
  1 10  1  0
  2  1  2  0
  3  2  1  0
  3  4  2  0
  4  5  1  0
  5 10  2  0
  5  6  1  0
  6  7  2  0
  7  8  1  0
  9 12  1  0
  9  8  2  0
 10  9  1  0
 11 19  2  0
 12 11  1  0
 13 12  2  0
 13 14  1  0
 14 15  1  0
 14 18  2  0
 15 16  1  0
 16 17  2  0
 18 19  1  0
 18 17  1  0
 22 21  1  0
 23 29  1  0
 23 22  2  0
 24 23  1  0
 25 24  2  0
 25 26  1  0
 26 27  2  0
 27 22  1  0
 27 20  1  0
 28 29  2  0
 28 33  1  0
 29 30  1  0
 30 31  2  0
 32 31  1  0
 33 32  2  0
  3 34  1  0
  6 35  1  0
  7 36  1  0
  8 37  1  0
 11 38  1  0
 13 39  1  0
 15 40  1  0
 17 41  1  0
 19 42  1  0
 24 43  1  0
 25 44  1  0
 26 45  1  0
 28 46  1  0
 30 47  1  0
 32 48  1  0
M  END
>  <Score>  (1) 
-7.31406

>  <Score_dual>  (1) 
-7.02

>  <Choices>  (1) 
[None, 7, ['9-17', 0], 19, ['17-14', 0], 20, ['47-12', 240], 34, ['54-9', 195]]

$$$$
