
     RDKit          3D

 49 52  0  0  0  0  0  0  0  0999 V2000
   37.3060   26.6280   41.0470 C   0  0  0  0  0  0  0  0  0  0  0  0
   38.3410   26.3610   41.9510 C   0  0  0  0  0  0  0  0  0  0  0  0
   38.8180   27.3900   42.7690 C   0  0  0  0  0  0  0  0  0  0  0  0
   38.2380   28.6160   42.6370 N   0  0  0  0  0  0  0  0  0  0  0  0
   37.2410   28.8670   41.7630 C   0  0  0  0  0  0  0  0  0  0  0  0
   36.7670   27.8750   40.9620 N   0  0  0  0  0  0  0  0  0  0  0  0
   39.8460   27.1520   43.6710 N   0  0  0  0  0  0  0  0  0  0  0  0
   36.7920   25.6540   40.2050 N   0  0  0  0  0  0  0  0  0  0  0  0
   36.7460   30.1590   41.7360 O   0  0  0  0  0  0  0  0  0  0  0  0
   37.0390   31.0610   40.7400 C   0  0  0  0  0  0  0  0  0  0  0  0
   36.6800   31.3520   39.4810 N   0  0  0  0  0  0  0  0  0  0  0  0
   37.3540   32.3770   39.0570 O   0  0  0  0  0  0  0  0  0  0  0  0
   38.1710   32.7970   40.0020 C   0  0  0  0  0  0  0  0  0  0  0  0
   37.9830   31.9820   41.0640 N   0  0  0  0  0  0  0  0  0  0  0  0
   39.1010   33.9290   39.9210 C   0  0  0  0  0  0  0  0  0  0  0  0
   38.8450   35.1820   40.4200 C   0  0  0  0  0  0  0  0  0  0  0  0
   39.7950   36.1860   40.2910 C   0  0  0  0  0  0  0  0  0  0  0  0
   41.0040   35.9660   39.6700 C   0  0  0  0  0  0  0  0  0  0  0  0
   41.2610   34.7100   39.1700 C   0  0  0  0  0  0  0  0  0  0  0  0
   40.3190   33.7090   39.2960 C   0  0  0  0  0  0  0  0  0  0  0  0
   40.6910   32.4050   38.7290 C   0  0  0  0  0  0  0  0  0  0  0  0
   41.1820   31.2040   39.2210 C   0  0  0  0  0  0  0  0  0  0  0  0
   41.3170   30.3570   38.1300 C   0  0  0  0  0  0  0  0  0  0  0  0
   40.9220   31.0340   37.0370 N   0  0  0  0  0  0  0  0  0  0  0  0
   40.5430   32.2700   37.3930 N   0  0  0  0  0  0  0  0  0  0  0  0
   38.8380   24.9850   41.9460 C   0  0  0  0  0  0  0  0  0  0  0  0
   37.6970   23.9680   41.7510 C   0  0  0  0  0  0  0  0  0  0  0  0
   39.6020   24.5520   43.1510 C   0  0  0  0  0  0  0  0  0  0  0  0
   39.7650   24.8440   40.7520 C   0  0  0  0  0  0  0  0  0  0  0  0
   40.1922   27.9148   44.2703 H   0  0  0  0  0  0  0  0  0  0  0  0
   40.2626   26.2126   43.7410 H   0  0  0  0  0  0  0  0  0  0  0  0
   36.0300   25.8872   39.5525 H   0  0  0  0  0  0  0  0  0  0  0  0
   37.1721   24.6971   40.2320 H   0  0  0  0  0  0  0  0  0  0  0  0
   37.8883   35.3902   40.9214 H   0  0  0  0  0  0  0  0  0  0  0  0
   39.5758   37.1849   40.6961 H   0  0  0  0  0  0  0  0  0  0  0  0
   41.7452   36.7733   39.5760 H   0  0  0  0  0  0  0  0  0  0  0  0
   42.2184   34.5034   38.6693 H   0  0  0  0  0  0  0  0  0  0  0  0
   41.4178   30.9695   40.2695 H   0  0  0  0  0  0  0  0  0  0  0  0
   41.6813   29.3194   38.1547 H   0  0  0  0  0  0  0  0  0  0  0  0
   40.9122   30.6614   36.0768 H   0  0  0  0  0  0  0  0  0  0  0  0
   37.3275   23.6387   42.7334 H   0  0  0  0  0  0  0  0  0  0  0  0
   36.8769   24.4401   41.1902 H   0  0  0  0  0  0  0  0  0  0  0  0
   38.0721   23.0992   41.1902 H   0  0  0  0  0  0  0  0  0  0  0  0
   39.0607   24.8588   44.0581 H   0  0  0  0  0  0  0  0  0  0  0  0
   39.7116   23.4575   43.1419 H   0  0  0  0  0  0  0  0  0  0  0  0
   40.5973   25.0203   43.1419 H   0  0  0  0  0  0  0  0  0  0  0  0
   40.7953   24.6873   41.1042 H   0  0  0  0  0  0  0  0  0  0  0  0
   39.4506   23.9833   40.1434 H   0  0  0  0  0  0  0  0  0  0  0  0
   39.7208   25.7592   40.1434 H   0  0  0  0  0  0  0  0  0  0  0  0
  1  2  2  0
  2  3  1  0
  3  7  1  0
  4  3  2  0
  5  4  1  0
  6  1  1  0
  6  5  2  0
  8  1  1  0
  9  5  1  0
 10 14  1  0
 10  9  1  0
 11 10  2  0
 12 11  1  0
 12 13  1  0
 13 14  2  0
 15 13  1  0
 15 16  2  0
 17 16  1  0
 18 17  2  0
 19 20  2  0
 19 18  1  0
 20 15  1  0
 21 22  1  0
 21 20  1  0
 23 22  2  0
 24 25  1  0
 24 23  1  0
 25 21  2  0
 26  2  1  0
 26 28  1  0
 27 26  1  0
 29 26  1  0
  7 30  1  0
  7 31  1  0
  8 32  1  0
  8 33  1  0
 16 34  1  0
 17 35  1  0
 18 36  1  0
 19 37  1  0
 22 38  1  0
 23 39  1  0
 24 40  1  0
 27 41  1  0
 27 42  1  0
 27 43  1  0
 28 44  1  0
 28 45  1  0
 28 46  1  0
 29 47  1  0
 29 48  1  0
 29 49  1  0
M  END
>  <Score>  (1) 
-7.11477

$$$$
