
     RDKit          3D

 51 55  0  0  0  0  0  0  0  0999 V2000
   43.0240   34.6600   41.1620 C   0  0  0  0  0  0  0  0  0  0  0  0
   43.4610   35.4500   42.2620 C   0  0  0  0  0  0  0  0  0  0  0  0
   42.7120   36.4880   42.6690 C   0  0  0  0  0  0  0  0  0  0  0  0
   41.5610   36.7440   42.0060 N   0  0  0  0  0  0  0  0  0  0  0  0
   41.1430   36.0050   40.9660 C   0  0  0  0  0  0  0  0  0  0  0  0
   41.8710   34.9790   40.5570 N   0  0  0  0  0  0  0  0  0  0  0  0
   43.2670   37.2240   43.7940 C   0  0  0  0  0  0  0  0  0  0  0  0
   44.2210   36.6160   44.6750 C   0  0  0  0  0  0  0  0  0  0  0  0
   45.2720   35.7600   44.3260 N   0  0  0  0  0  0  0  0  0  0  0  0
   45.2810   34.6690   45.1650 C   0  0  0  0  0  0  0  0  0  0  0  0
   46.2210   33.6340   45.1480 C   0  0  0  0  0  0  0  0  0  0  0  0
   46.2190   32.4630   46.0600 C   0  0  0  0  0  0  0  0  0  0  0  0
   47.2410   33.6680   44.2300 C   0  0  0  0  0  0  0  0  0  0  0  0
   48.1610   32.8620   44.0530 O   0  0  0  0  0  0  0  0  0  0  0  0
   47.2520   34.7220   43.4000 N   0  0  0  0  0  0  0  0  0  0  0  0
   46.3300   35.6800   43.4590 C   0  0  0  0  0  0  0  0  0  0  0  0
   46.2770   36.7100   42.6920 O   0  0  0  0  0  0  0  0  0  0  0  0
   39.6180   36.3990   40.1030 S   0  0  0  0  0  0  0  0  0  0  0  0
   37.0110   33.4500   39.8240 N   0  0  0  0  0  0  0  0  0  0  0  0
   37.3430   34.6780   39.5220 N   0  0  0  0  0  0  0  0  0  0  0  0
   38.5690   34.9390   40.0530 C   0  0  0  0  0  0  0  0  0  0  0  0
   38.9250   33.7560   40.6870 C   0  0  0  0  0  0  0  0  0  0  0  0
   37.8910   32.8060   40.5220 C   0  0  0  0  0  0  0  0  0  0  0  0
   38.0210   31.5360   41.1270 C   0  0  0  0  0  0  0  0  0  0  0  0
   39.0930   31.2750   41.9320 N   0  0  0  0  0  0  0  0  0  0  0  0
   39.3210   30.1590   42.5850 C   0  0  0  0  0  0  0  0  0  0  0  0
   38.4890   29.1110   42.5280 N   0  0  0  0  0  0  0  0  0  0  0  0
   37.3880   29.2410   41.7620 C   0  0  0  0  0  0  0  0  0  0  0  0
   36.5000   28.2110   41.6560 C   0  0  0  0  0  0  0  0  0  0  0  0
   35.3550   28.3100   40.8660 C   0  0  0  0  0  0  0  0  0  0  0  0
   35.1740   29.5200   40.1900 C   0  0  0  0  0  0  0  0  0  0  0  0
   36.1130   30.4980   40.3560 C   0  0  0  0  0  0  0  0  0  0  0  0
   37.2250   30.4360   41.1120 C   0  0  0  0  0  0  0  0  0  0  0  0
   43.6210   33.8038   40.8147 H   0  0  0  0  0  0  0  0  0  0  0  0
   44.4047   35.2125   42.7749 H   0  0  0  0  0  0  0  0  0  0  0  0
   43.7534   38.1170   43.3744 H   0  0  0  0  0  0  0  0  0  0  0  0
   42.3922   37.3666   44.4455 H   0  0  0  0  0  0  0  0  0  0  0  0
   44.7033   37.4581   45.1928 H   0  0  0  0  0  0  0  0  0  0  0  0
   43.5612   35.8881   45.1698 H   0  0  0  0  0  0  0  0  0  0  0  0
   44.4784   34.6057   45.9146 H   0  0  0  0  0  0  0  0  0  0  0  0
   46.2196   32.8110   47.1035 H   0  0  0  0  0  0  0  0  0  0  0  0
   45.3198   31.8566   45.8762 H   0  0  0  0  0  0  0  0  0  0  0  0
   47.1161   31.8536   45.8762 H   0  0  0  0  0  0  0  0  0  0  0  0
   47.9986   34.7921   42.6939 H   0  0  0  0  0  0  0  0  0  0  0  0
   36.1188   33.0278   39.5296 H   0  0  0  0  0  0  0  0  0  0  0  0
   39.8648   33.5847   41.2324 H   0  0  0  0  0  0  0  0  0  0  0  0
   40.2287   30.0819   43.2016 H   0  0  0  0  0  0  0  0  0  0  0  0
   36.6919   27.2788   42.2075 H   0  0  0  0  0  0  0  0  0  0  0  0
   34.6351   27.4828   40.7798 H   0  0  0  0  0  0  0  0  0  0  0  0
   34.2995   29.6802   39.5422 H   0  0  0  0  0  0  0  0  0  0  0  0
   35.9418   31.4389   39.8126 H   0  0  0  0  0  0  0  0  0  0  0  0
  1  2  2  0
  2  3  1  0
  3  7  1  0
  4  3  2  0
  5  4  1  0
  6  5  2  0
  6  1  1  0
  7  8  1  0
  9  8  1  0
  9 10  1  0
 11 10  2  0
 11 12  1  0
 13 11  1  0
 14 13  2  0
 15 16  1  0
 15 13  1  0
 16  9  1  0
 17 16  2  0
 18  5  1  0
 19 23  1  0
 20 19  1  0
 20 21  2  0
 21 18  1  0
 21 22  1  0
 23 22  2  0
 23 24  1  0
 24 25  2  0
 25 26  1  0
 27 26  2  0
 28 27  1  0
 29 28  2  0
 30 29  1  0
 31 32  1  0
 31 30  2  0
 32 33  2  0
 33 24  1  0
 33 28  1  0
  1 34  1  0
  2 35  1  0
  7 36  1  0
  7 37  1  0
  8 38  1  0
  8 39  1  0
 10 40  1  0
 12 41  1  0
 12 42  1  0
 12 43  1  0
 15 44  1  0
 19 45  1  0
 22 46  1  0
 26 47  1  0
 29 48  1  0
 30 49  1  0
 31 50  1  0
 32 51  1  0
M  END
>  <Score>  (1) 
-8.29311

$$$$
