
     RDKit          3D

 49 51  0  0  0  0  0  0  0  0999 V2000
   37.3090   26.5890   41.0960 C   0  0  0  0  0  0  0  0  0  0  0  0
   38.3680   26.3010   41.9790 C   0  0  0  0  0  0  0  0  0  0  0  0
   38.8640   27.3250   42.7920 C   0  0  0  0  0  0  0  0  0  0  0  0
   38.2790   28.5630   42.6770 N   0  0  0  0  0  0  0  0  0  0  0  0
   37.2610   28.8180   41.8200 C   0  0  0  0  0  0  0  0  0  0  0  0
   36.7720   27.8320   41.0250 N   0  0  0  0  0  0  0  0  0  0  0  0
   39.9060   27.0970   43.6710 N   0  0  0  0  0  0  0  0  0  0  0  0
   36.7880   25.6100   40.2590 N   0  0  0  0  0  0  0  0  0  0  0  0
   36.7680   30.1120   41.8080 O   0  0  0  0  0  0  0  0  0  0  0  0
   37.0260   31.0140   40.8090 C   0  0  0  0  0  0  0  0  0  0  0  0
   36.6170   31.3180   39.5800 N   0  0  0  0  0  0  0  0  0  0  0  0
   37.2830   32.3330   39.1290 O   0  0  0  0  0  0  0  0  0  0  0  0
   38.1390   32.7310   40.0260 C   0  0  0  0  0  0  0  0  0  0  0  0
   37.9930   31.9190   41.0820 N   0  0  0  0  0  0  0  0  0  0  0  0
   39.0960   33.8620   39.9110 C   0  0  0  0  0  0  0  0  0  0  0  0
   38.8460   35.1170   40.3790 C   0  0  0  0  0  0  0  0  0  0  0  0
   39.7700   36.1370   40.2470 C   0  0  0  0  0  0  0  0  0  0  0  0
   40.9830   35.8850   39.6250 C   0  0  0  0  0  0  0  0  0  0  0  0
   41.2260   34.6280   39.1620 C   0  0  0  0  0  0  0  0  0  0  0  0
   40.3220   33.6030   39.2820 C   0  0  0  0  0  0  0  0  0  0  0  0
   40.5860   32.3000   38.8050 N   0  0  0  0  0  0  0  0  0  0  0  0
   40.5390   31.9240   37.4210 C   0  0  0  0  0  0  0  0  0  0  0  0
   39.5040   32.3730   36.7760 N   0  0  0  0  0  0  0  0  0  0  0  0
   41.5940   31.1140   36.8870 N   0  0  0  0  0  0  0  0  0  0  0  0
   39.3740   32.1630   35.7840 H   0  0  0  0  0  0  0  0  0  0  0  0
   38.8510   24.9280   41.9660 C   0  0  0  0  0  0  0  0  0  0  0  0
   37.7200   23.9200   41.7150 C   0  0  0  0  0  0  0  0  0  0  0  0
   39.6080   24.4510   43.1500 C   0  0  0  0  0  0  0  0  0  0  0  0
   39.8090   24.8250   40.7830 C   0  0  0  0  0  0  0  0  0  0  0  0
   40.2582   27.8635   44.2620 H   0  0  0  0  0  0  0  0  0  0  0  0
   40.3303   26.1606   43.7350 H   0  0  0  0  0  0  0  0  0  0  0  0
   36.0135   25.8381   39.6195 H   0  0  0  0  0  0  0  0  0  0  0  0
   37.1763   24.6562   40.2780 H   0  0  0  0  0  0  0  0  0  0  0  0
   37.8856   35.3237   40.8739 H   0  0  0  0  0  0  0  0  0  0  0  0
   39.5441   37.1420   40.6330 H   0  0  0  0  0  0  0  0  0  0  0  0
   41.7319   36.6822   39.5082 H   0  0  0  0  0  0  0  0  0  0  0  0
   42.1889   34.4254   38.6704 H   0  0  0  0  0  0  0  0  0  0  0  0
   40.8276   31.5737   39.4942 H   0  0  0  0  0  0  0  0  0  0  0  0
   41.5772   30.8343   35.8959 H   0  0  0  0  0  0  0  0  0  0  0  0
   42.3689   30.8116   37.4944 H   0  0  0  0  0  0  0  0  0  0  0  0
   37.3234   23.5665   42.6782 H   0  0  0  0  0  0  0  0  0  0  0  0
   36.9156   24.4062   41.1435 H   0  0  0  0  0  0  0  0  0  0  0  0
   38.1108   23.0652   41.1435 H   0  0  0  0  0  0  0  0  0  0  0  0
   39.0950   24.7742   44.0678 H   0  0  0  0  0  0  0  0  0  0  0  0
   39.6662   23.3527   43.1299 H   0  0  0  0  0  0  0  0  0  0  0  0
   40.6239   24.8725   43.1299 H   0  0  0  0  0  0  0  0  0  0  0  0
   40.8387   24.7143   41.1536 H   0  0  0  0  0  0  0  0  0  0  0  0
   39.5435   23.9502   40.1712 H   0  0  0  0  0  0  0  0  0  0  0  0
   39.7355   25.7362   40.1712 H   0  0  0  0  0  0  0  0  0  0  0  0
  1  2  2  0
  2  3  1  0
  3  7  1  0
  4  3  2  0
  5  4  1  0
  6  1  1  0
  6  5  2  0
  8  1  1  0
  9  5  1  0
 10 14  1  0
 10  9  1  0
 11 10  2  0
 12 11  1  0
 12 13  1  0
 13 14  2  0
 15 13  1  0
 15 16  2  0
 17 16  1  0
 18 17  2  0
 19 20  2  0
 19 18  1  0
 20 15  1  0
 21 20  1  0
 22 21  1  0
 23 22  2  0
 24 22  1  0
 25 23  1  0
 26  2  1  0
 26 28  1  0
 27 26  1  0
 29 26  1  0
  7 30  1  0
  7 31  1  0
  8 32  1  0
  8 33  1  0
 16 34  1  0
 17 35  1  0
 18 36  1  0
 19 37  1  0
 21 38  1  0
 24 39  1  0
 24 40  1  0
 27 41  1  0
 27 42  1  0
 27 43  1  0
 28 44  1  0
 28 45  1  0
 28 46  1  0
 29 47  1  0
 29 48  1  0
 29 49  1  0
M  END
>  <Score>  (1) 
-7.61709

$$$$
