
     RDKit          3D

 42 46  0  0  0  0  0  0  0  0999 V2000
   37.3500   29.3870   39.9020 C   0  0  0  0  0  0  0  0  0  0  0  0
   36.4820   29.5130   38.8360 C   0  0  0  0  0  0  0  0  0  0  0  0
   36.6610   30.4090   37.7960 C   0  0  0  0  0  0  0  0  0  0  0  0
   37.7570   31.1730   37.8780 N   0  0  0  0  0  0  0  0  0  0  0  0
   38.6370   31.1020   38.8790 C   0  0  0  0  0  0  0  0  0  0  0  0
   38.3750   30.2130   39.8240 N   0  0  0  0  0  0  0  0  0  0  0  0
   37.2990   28.5600   41.0630 C   0  0  0  0  0  0  0  0  0  0  0  0
   37.4540   29.2170   42.3030 C   0  0  0  0  0  0  0  0  0  0  0  0
   37.4390   28.5850   43.5340 C   0  0  0  0  0  0  0  0  0  0  0  0
   37.2610   27.2330   43.5670 C   0  0  0  0  0  0  0  0  0  0  0  0
   37.1030   26.5310   42.4050 C   0  0  0  0  0  0  0  0  0  0  0  0
   36.9320   25.1620   42.4380 C   0  0  0  0  0  0  0  0  0  0  0  0
   36.7770   24.3990   41.2900 C   0  0  0  0  0  0  0  0  0  0  0  0
   36.8070   25.1260   40.0900 C   0  0  0  0  0  0  0  0  0  0  0  0
   36.9780   26.4770   40.0990 C   0  0  0  0  0  0  0  0  0  0  0  0
   37.1300   27.2230   41.2250 C   0  0  0  0  0  0  0  0  0  0  0  0
   39.8710   31.8780   39.0870 C   0  0  0  0  0  0  0  0  0  0  0  0
   41.1270   31.3380   38.8110 C   0  0  0  0  0  0  0  0  0  0  0  0
   42.2990   32.0120   38.9870 C   0  0  0  0  0  0  0  0  0  0  0  0
   42.2960   33.3000   39.4620 C   0  0  0  0  0  0  0  0  0  0  0  0
   41.0910   33.8850   39.7520 C   0  0  0  0  0  0  0  0  0  0  0  0
   41.0860   35.1770   40.2300 C   0  0  0  0  0  0  0  0  0  0  0  0
   39.9160   35.8280   40.5420 C   0  0  0  0  0  0  0  0  0  0  0  0
   38.7380   35.0980   40.3450 C   0  0  0  0  0  0  0  0  0  0  0  0
   38.7800   33.8160   39.8710 C   0  0  0  0  0  0  0  0  0  0  0  0
   39.9420   33.1620   39.5570 C   0  0  0  0  0  0  0  0  0  0  0  0
   35.5952   28.8626   38.8115 H   0  0  0  0  0  0  0  0  0  0  0  0
   35.9511   30.4877   36.9594 H   0  0  0  0  0  0  0  0  0  0  0  0
   37.5967   30.3076   42.2897 H   0  0  0  0  0  0  0  0  0  0  0  0
   37.5675   29.1591   44.4635 H   0  0  0  0  0  0  0  0  0  0  0  0
   37.2446   26.7058   44.5323 H   0  0  0  0  0  0  0  0  0  0  0  0
   36.9181   24.6553   43.4143 H   0  0  0  0  0  0  0  0  0  0  0  0
   36.6410   23.3078   41.3181 H   0  0  0  0  0  0  0  0  0  0  0  0
   36.6911   24.5988   39.1316 H   0  0  0  0  0  0  0  0  0  0  0  0
   36.9942   26.9991   39.1309 H   0  0  0  0  0  0  0  0  0  0  0  0
   41.1748   30.3076   38.4288 H   0  0  0  0  0  0  0  0  0  0  0  0
   43.2533   31.5205   38.7468 H   0  0  0  0  0  0  0  0  0  0  0  0
   43.2380   33.8493   39.6064 H   0  0  0  0  0  0  0  0  0  0  0  0
   42.0433   35.7016   40.3656 H   0  0  0  0  0  0  0  0  0  0  0  0
   39.9062   36.8598   40.9233 H   0  0  0  0  0  0  0  0  0  0  0  0
   37.7669   35.5611   40.5742 H   0  0  0  0  0  0  0  0  0  0  0  0
   37.8288   33.2807   39.7344 H   0  0  0  0  0  0  0  0  0  0  0  0
  1  7  1  0
  2  1  2  0
  3  4  2  0
  3  2  1  0
  4  5  1  0
  5 17  1  0
  5  6  2  0
  6  1  1  0
  7 16  1  0
  7  8  2  0
  8  9  1  0
  9 10  2  0
 11 12  2  0
 11 10  1  0
 13 12  1  0
 14 15  1  0
 14 13  2  0
 15 16  2  0
 16 11  1  0
 17 26  2  0
 18 19  2  0
 18 17  1  0
 19 20  1  0
 20 21  2  0
 21 22  1  0
 22 23  2  0
 24 23  1  0
 25 24  2  0
 26 21  1  0
 26 25  1  0
  2 27  1  0
  3 28  1  0
  8 29  1  0
  9 30  1  0
 10 31  1  0
 12 32  1  0
 13 33  1  0
 14 34  1  0
 15 35  1  0
 18 36  1  0
 19 37  1  0
 20 38  1  0
 22 39  1  0
 23 40  1  0
 24 41  1  0
 25 42  1  0
M  END
>  <Score>  (1) 
-7.45982

$$$$
