REMARK  Name = 
REMARK  2 active torsions:
REMARK  status: ('A' for Active; 'I' for Inactive)
REMARK    1  A    between atoms: C_3  and  C_15
REMARK    2  A    between atoms: C_16  and  C_20
REMARK                            x       y       z     vdW  Elec       q    Type
REMARK                         _______ _______ _______ _____ _____    ______ ____
ROOT
ATOM      1  C   UNL     1      44.731  35.632  44.285  0.00  0.00    +0.000 A 
ATOM      2  C   UNL     1      45.547  35.543  43.145  0.00  0.00    +0.000 A 
ATOM      3  C   UNL     1      46.579  34.571  43.110  0.00  0.00    +0.000 A 
ATOM      4  N   UNL     1      46.703  33.791  44.193  0.00  0.00    +0.000 NA
ATOM      5  C   UNL     1      45.921  33.873  45.291  0.00  0.00    +0.000 A 
ATOM      6  N   UNL     1      44.927  34.805  45.331  0.00  0.00    +0.000 NA
ATOM      7  N   UNL     1      46.115  33.003  46.410  0.00  0.00    +0.000 N 
ATOM      8  C   UNL     1      47.098  32.090  46.294  0.00  0.00    +0.000 A 
ATOM      9  C   UNL     1      47.281  31.253  47.376  0.00  0.00    +0.000 A 
ATOM     10  C   UNL     1      46.453  31.420  48.469  0.00  0.00    +0.000 A 
ATOM     11  N   UNL     1      46.609  30.580  49.599  0.00  0.00    +0.000 N 
ATOM     12  N   UNL     1      45.487  32.355  48.519  0.00  0.00    +0.000 NA
ATOM     13  C   UNL     1      45.293  33.191  47.458  0.00  0.00    +0.000 A 
ATOM     14  O   UNL     1      44.412  34.088  47.431  0.00  0.00    +0.000 OA
ATOM     15  H   UNL     1      45.995  30.699  50.418  0.00  0.00    +0.000 HD
ATOM     16  H   UNL     1      47.336  29.851  49.602  0.00  0.00    +0.000 HD
ENDROOT
BRANCH   3  17
ATOM     17  C   UNL     1      47.471  34.416  41.961  0.00  0.00    +0.000 C 
ATOM     18  C   UNL     1      46.826  34.330  40.642  0.00  0.00    +0.000 C 
ATOM     19  C   UNL     1      48.034  34.380  39.729  0.00  0.00    +0.000 C 
ATOM     20  C   UNL     1      48.882  35.462  40.388  0.00  0.00    +0.000 C 
ATOM     21  C   UNL     1      48.409  35.604  41.795  0.00  0.00    +0.000 C 
BRANCH  18  22
ATOM     22  C   UNL     1      46.183  32.934  40.571  0.00  0.00    +0.000 C 
ATOM     23  F   UNL     1      46.845  32.039  41.355  0.00  0.00    +0.000 F 
ATOM     24  F   UNL     1      46.158  32.593  39.236  0.00  0.00    +0.000 F 
ATOM     25  F   UNL     1      44.872  33.024  40.998  0.00  0.00    +0.000 F 
ENDBRANCH  18  22
ENDBRANCH   3  17
TORSDOF 2
