REMARK  Name = 
REMARK  4 active torsions:
REMARK  status: ('A' for Active; 'I' for Inactive)
REMARK    1  A    between atoms: C_3  and  N_22
REMARK    2  A    between atoms: C_5  and  C_7
REMARK    3  A    between atoms: N_11  and  C_18
REMARK    4  A    between atoms: C_24  and  C_30
REMARK                            x       y       z     vdW  Elec       q    Type
REMARK                         _______ _______ _______ _____ _____    ______ ____
ROOT
ATOM      1  C   UNL     1      44.789  36.086  44.712  0.00  0.00    +0.000 A 
ATOM      2  C   UNL     1      43.998  36.042  43.543  0.00  0.00    +0.000 A 
ATOM      3  C   UNL     1      43.990  34.862  42.816  0.00  0.00    +0.000 A 
ATOM      4  N   UNL     1      44.716  33.797  43.217  0.00  0.00    +0.000 NA
ATOM      5  C   UNL     1      45.476  33.853  44.349  0.00  0.00    +0.000 A 
ATOM      6  N   UNL     1      45.502  35.002  45.084  0.00  0.00    +0.000 NA
ENDROOT
BRANCH   5   7
ATOM      7  C   UNL     1      46.256  32.711  44.783  0.00  0.00    +0.000 A 
ATOM      8  C   UNL     1      47.106  31.924  43.998  0.00  0.00    +0.000 A 
ATOM      9  N   UNL     1      47.661  30.947  44.754  0.00  0.00    +0.000 NA
ATOM     10  C   UNL     1      47.148  31.138  46.007  0.00  0.00    +0.000 A 
ATOM     11  N   UNL     1      46.303  32.199  46.023  0.00  0.00    +0.000 N 
ATOM     12  N   UNL     1      47.485  30.303  47.131  0.00  0.00    +0.000 N 
ATOM     13  C   UNL     1      48.747  29.977  47.816  0.00  0.00    +0.000 C 
ATOM     14  C   UNL     1      48.491  30.237  49.291  0.00  0.00    +0.000 C 
ATOM     15  N   UNL     1      47.285  31.055  49.492  0.00  0.00    +0.000 NA
ATOM     16  C   UNL     1      46.110  30.318  49.063  0.00  0.00    +0.000 C 
ATOM     17  C   UNL     1      46.343  29.613  47.748  0.00  0.00    +0.000 C 
ATOM     18  H   UNL     1      47.195  31.290  50.491  0.00  0.00    +0.000 HD
BRANCH  11  19
ATOM     19  C   UNL     1      45.572  32.708  47.164  0.00  0.00    +0.000 C 
ATOM     20  F   UNL     1      44.686  31.734  47.695  0.00  0.00    +0.000 F 
ATOM     21  F   UNL     1      44.808  33.830  46.836  0.00  0.00    +0.000 F 
ATOM     22  F   UNL     1      46.431  33.002  48.206  0.00  0.00    +0.000 F 
ENDBRANCH  11  19
ENDBRANCH   5   7
BRANCH   3  23
ATOM     23  N   UNL     1      43.184  34.837  41.634  0.00  0.00    +0.000 N 
ATOM     24  C   UNL     1      41.868  35.069  41.553  0.00  0.00    +0.000 A 
ATOM     25  C   UNL     1      41.238  35.004  40.323  0.00  0.00    +0.000 A 
ATOM     26  C   UNL     1      41.928  34.708  39.175  0.00  0.00    +0.000 A 
ATOM     27  O   UNL     1      41.351  34.650  38.053  0.00  0.00    +0.000 OA
ATOM     28  N   UNL     1      43.244  34.483  39.302  0.00  0.00    +0.000 N 
ATOM     29  C   UNL     1      43.858  34.547  40.511  0.00  0.00    +0.000 A 
ATOM     30  O   UNL     1      45.114  34.308  40.461  0.00  0.00    +0.000 OA
ATOM     31  C   UNL     1      39.802  35.258  40.238  0.00  0.00    +0.000 C 
ATOM     32  H   UNL     1      43.800  34.257  38.465  0.00  0.00    +0.000 HD
ENDBRANCH   3  23
TORSDOF 3
