REMARK  Name = 
REMARK  1 active torsions:
REMARK  status: ('A' for Active; 'I' for Inactive)
REMARK    1  A    between atoms: C_3  and  N_15
REMARK                            x       y       z     vdW  Elec       q    Type
REMARK                         _______ _______ _______ _____ _____    ______ ____
ROOT
ATOM      1  C   UNL     1      44.591  35.797  44.309  0.00  0.00    +0.000 A 
ATOM      2  C   UNL     1      45.374  35.792  43.148  0.00  0.00    +0.000 A 
ATOM      3  C   UNL     1      46.411  34.876  43.065  0.00  0.00    +0.000 A 
ATOM      4  N   UNL     1      46.631  34.012  44.110  0.00  0.00    +0.000 NA
ATOM      5  C   UNL     1      45.856  34.039  45.220  0.00  0.00    +0.000 A 
ATOM      6  N   UNL     1      44.839  34.925  45.324  0.00  0.00    +0.000 NA
ATOM      7  N   UNL     1      46.099  33.138  46.295  0.00  0.00    +0.000 N 
ATOM      8  C   UNL     1      47.099  32.223  46.247  0.00  0.00    +0.000 A 
ATOM      9  C   UNL     1      47.315  31.351  47.315  0.00  0.00    +0.000 A 
ATOM     10  C   UNL     1      46.460  31.483  48.390  0.00  0.00    +0.000 A 
ATOM     11  N   UNL     1      46.626  30.631  49.503  0.00  0.00    +0.000 N 
ATOM     12  N   UNL     1      45.468  32.400  48.426  0.00  0.00    +0.000 NA
ATOM     13  C   UNL     1      45.282  33.234  47.371  0.00  0.00    +0.000 A 
ATOM     14  O   UNL     1      44.342  34.072  47.450  0.00  0.00    +0.000 OA
ATOM     15  H   UNL     1      45.997  30.715  50.314  0.00  0.00    +0.000 HD
ATOM     16  H   UNL     1      47.376  29.925  49.504  0.00  0.00    +0.000 HD
ENDROOT
BRANCH   3  17
ATOM     17  N   UNL     1      47.201  34.880  41.880  0.00  0.00    +0.000 N 
ATOM     18  C   UNL     1      48.387  35.533  41.744  0.00  0.00    +0.000 A 
ATOM     19  N   UNL     1      48.881  35.329  40.484  0.00  0.00    +0.000 NA
ATOM     20  C   UNL     1      47.979  34.539  39.853  0.00  0.00    +0.000 A 
ATOM     21  C   UNL     1      47.978  34.030  38.571  0.00  0.00    +0.000 A 
ATOM     22  N   UNL     1      46.928  33.257  38.205  0.00  0.00    +0.000 NA
ATOM     23  C   UNL     1      45.920  32.998  39.070  0.00  0.00    +0.000 A 
ATOM     24  N   UNL     1      45.882  33.479  40.338  0.00  0.00    +0.000 NA
ATOM     25  C   UNL     1      46.922  34.253  40.722  0.00  0.00    +0.000 A 
ENDBRANCH   3  17
TORSDOF 1
