REMARK  Name = 
REMARK  1 active torsions:
REMARK  status: ('A' for Active; 'I' for Inactive)
REMARK    1  A    between atoms: C_3  and  C_18
REMARK                            x       y       z     vdW  Elec       q    Type
REMARK                         _______ _______ _______ _____ _____    ______ ____
ROOT
ATOM      1  C   UNL     1      44.687  35.718  44.890  0.00  0.00    +0.000 A 
ATOM      2  C   UNL     1      44.230  35.693  43.582  0.00  0.00    +0.000 A 
ATOM      3  C   UNL     1      44.341  34.572  42.765  0.00  0.00    +0.000 A 
ATOM      4  N   UNL     1      44.942  33.514  43.387  0.00  0.00    +0.000 NA
ATOM      5  C   UNL     1      45.388  33.525  44.645  0.00  0.00    +0.000 A 
ATOM      6  N   UNL     1      45.253  34.626  45.380  0.00  0.00    +0.000 NA
ATOM      7  N   UNL     1      45.997  32.339  45.159  0.00  0.00    +0.000 N 
ATOM      8  C   UNL     1      46.644  31.425  44.378  0.00  0.00    +0.000 A 
ATOM      9  N   UNL     1      47.126  30.410  45.081  0.00  0.00    +0.000 NA
ATOM     10  C   UNL     1      46.801  30.639  46.364  0.00  0.00    +0.000 A 
ATOM     11  C   UNL     1      47.027  29.945  47.534  0.00  0.00    +0.000 A 
ATOM     12  O   UNL     1      47.665  28.848  47.519  0.00  0.00    +0.000 OA
ATOM     13  N   UNL     1      46.551  30.469  48.678  0.00  0.00    +0.000 N 
ATOM     14  C   UNL     1      45.866  31.647  48.699  0.00  0.00    +0.000 A 
ATOM     15  N   UNL     1      45.447  32.033  50.006  0.00  0.00    +0.000 N 
ATOM     16  N   UNL     1      45.633  32.348  47.550  0.00  0.00    +0.000 NA
ATOM     17  C   UNL     1      46.100  31.845  46.384  0.00  0.00    +0.000 A 
ATOM     18  H   UNL     1      46.709  29.966  49.563  0.00  0.00    +0.000 HD
ATOM     19  H   UNL     1      44.920  32.908  50.141  0.00  0.00    +0.000 HD
ATOM     20  H   UNL     1      45.671  31.437  50.816  0.00  0.00    +0.000 HD
ENDROOT
BRANCH   3  21
ATOM     21  C   UNL     1      43.924  34.367  41.404  0.00  0.00    +0.000 A 
ATOM     22  C   UNL     1      44.798  33.704  40.559  0.00  0.00    +0.000 A 
ATOM     23  C   UNL     1      44.536  33.431  39.239  0.00  0.00    +0.000 A 
ATOM     24  C   UNL     1      43.336  33.833  38.703  0.00  0.00    +0.000 A 
ATOM     25  C   UNL     1      42.417  34.499  39.487  0.00  0.00    +0.000 A 
ATOM     26  C   UNL     1      41.216  34.911  38.959  0.00  0.00    +0.000 A 
ATOM     27  C   UNL     1      40.275  35.586  39.711  0.00  0.00    +0.000 A 
ATOM     28  C   UNL     1      40.623  35.818  41.030  0.00  0.00    +0.000 A 
ATOM     29  C   UNL     1      41.818  35.400  41.527  0.00  0.00    +0.000 A 
ATOM     30  C   UNL     1      42.748  34.736  40.793  0.00  0.00    +0.000 A 
ENDBRANCH   3  21
TORSDOF 1
