REMARK  Name = 
REMARK  2 active torsions:
REMARK  status: ('A' for Active; 'I' for Inactive)
REMARK    1  A    between atoms: C_3  and  N_18
REMARK    2  A    between atoms: C_20  and  C_26
REMARK                            x       y       z     vdW  Elec       q    Type
REMARK                         _______ _______ _______ _____ _____    ______ ____
ROOT
ATOM      1  C   UNL     1      44.789  35.881  44.935  0.00  0.00    +0.000 A 
ATOM      2  C   UNL     1      44.154  35.848  43.662  0.00  0.00    +0.000 A 
ATOM      3  C   UNL     1      44.158  34.638  42.955  0.00  0.00    +0.000 A 
ATOM      4  N   UNL     1      44.772  33.576  43.538  0.00  0.00    +0.000 NA
ATOM      5  C   UNL     1      45.365  33.616  44.734  0.00  0.00    +0.000 A 
ATOM      6  N   UNL     1      45.374  34.779  45.438  0.00  0.00    +0.000 NA
ATOM      7  N   UNL     1      45.947  32.385  45.156  0.00  0.00    +0.000 N 
ATOM      8  C   UNL     1      46.580  31.566  44.277  0.00  0.00    +0.000 A 
ATOM      9  N   UNL     1      47.054  30.466  44.874  0.00  0.00    +0.000 NA
ATOM     10  C   UNL     1      46.719  30.571  46.191  0.00  0.00    +0.000 A 
ATOM     11  C   UNL     1      46.897  29.798  47.343  0.00  0.00    +0.000 A 
ATOM     12  O   UNL     1      47.514  28.714  47.227  0.00  0.00    +0.000 OA
ATOM     13  N   UNL     1      46.404  30.247  48.518  0.00  0.00    +0.000 N 
ATOM     14  C   UNL     1      45.743  31.413  48.636  0.00  0.00    +0.000 A 
ATOM     15  N   UNL     1      45.307  31.706  49.949  0.00  0.00    +0.000 N 
ATOM     16  N   UNL     1      45.559  32.182  47.524  0.00  0.00    +0.000 NA
ATOM     17  C   UNL     1      46.040  31.762  46.331  0.00  0.00    +0.000 A 
ATOM     18  H   UNL     1      46.540  29.671  49.361  0.00  0.00    +0.000 HD
ATOM     19  H   UNL     1      44.792  32.578  50.138  0.00  0.00    +0.000 HD
ATOM     20  H   UNL     1      45.505  31.048  50.716  0.00  0.00    +0.000 HD
ENDROOT
BRANCH   3  21
ATOM     21  N   UNL     1      43.522  34.639  41.699  0.00  0.00    +0.000 N 
ATOM     22  C   UNL     1      42.220  34.799  41.448  0.00  0.00    +0.000 A 
ATOM     23  C   UNL     1      41.701  34.781  40.168  0.00  0.00    +0.000 A 
ATOM     24  C   UNL     1      42.619  34.585  39.163  0.00  0.00    +0.000 A 
ATOM     25  O   UNL     1      42.200  34.560  37.971  0.00  0.00    +0.000 OA
ATOM     26  N   UNL     1      43.952  34.419  39.386  0.00  0.00    +0.000 N 
ATOM     27  C   UNL     1      44.398  34.447  40.675  0.00  0.00    +0.000 A 
ATOM     28  O   UNL     1      45.633  34.287  40.805  0.00  0.00    +0.000 OA
ATOM     29  C   UNL     1      40.250  34.963  39.931  0.00  0.00    +0.000 C 
ATOM     30  H   UNL     1      44.606  34.276  38.603  0.00  0.00    +0.000 HD
ENDBRANCH   3  21
TORSDOF 1
