REMARK  Name = 
REMARK  3 active torsions:
REMARK  status: ('A' for Active; 'I' for Inactive)
REMARK    1  A    between atoms: C_3  and  N_7
REMARK    2  A    between atoms: C_5  and  C_16
REMARK    3  A    between atoms: C_16  and  C_18
REMARK                            x       y       z     vdW  Elec       q    Type
REMARK                         _______ _______ _______ _____ _____    ______ ____
ROOT
ATOM      1  C   UNL     1      44.518  36.074  44.537  0.00  0.00    +0.000 A 
ATOM      2  C   UNL     1      45.313  35.974  43.378  0.00  0.00    +0.000 A 
ATOM      3  C   UNL     1      46.186  34.899  43.293  0.00  0.00    +0.000 A 
ATOM      4  N   UNL     1      46.196  34.044  44.331  0.00  0.00    +0.000 NA
ATOM      5  C   UNL     1      45.443  34.135  45.432  0.00  0.00    +0.000 A 
ATOM      6  N   UNL     1      44.597  35.168  45.526  0.00  0.00    +0.000 NA
ENDROOT
BRANCH   3   7
ATOM      7  N   UNL     1      46.991  34.786  42.135  0.00  0.00    +0.000 N 
ATOM      8  C   UNL     1      48.250  35.259  42.005  0.00  0.00    +0.000 A 
ATOM      9  N   UNL     1      48.736  34.985  40.770  0.00  0.00    +0.000 NA
ATOM     10  C   UNL     1      47.743  34.321  40.124  0.00  0.00    +0.000 A 
ATOM     11  C   UNL     1      47.704  33.810  38.844  0.00  0.00    +0.000 A 
ATOM     12  N   UNL     1      46.577  33.192  38.460  0.00  0.00    +0.000 NA
ATOM     13  C   UNL     1      45.516  33.078  39.307  0.00  0.00    +0.000 A 
ATOM     14  N   UNL     1      45.522  33.567  40.568  0.00  0.00    +0.000 NA
ATOM     15  C   UNL     1      46.648  34.194  40.975  0.00  0.00    +0.000 A 
ENDBRANCH   3   7
BRANCH   5  16
ATOM     16  C   UNL     1      45.525  33.148  46.519  0.00  0.00    +0.000 C 
ATOM     17  O   UNL     1      44.936  33.396  47.616  0.00  0.00    +0.000 OA
BRANCH  16  18
ATOM     18  C   UNL     1      46.303  31.919  46.242  0.00  0.00    +0.000 A 
ATOM     19  C   UNL     1      45.948  31.262  45.066  0.00  0.00    +0.000 A 
ATOM     20  C   UNL     1      46.580  30.094  44.677  0.00  0.00    +0.000 A 
ATOM     21  C   UNL     1      47.585  29.547  45.448  0.00  0.00    +0.000 A 
ATOM     22  C   UNL     1      47.925  30.209  46.608  0.00  0.00    +0.000 A 
ATOM     23  C   UNL     1      48.918  29.756  47.460  0.00  0.00    +0.000 A 
ATOM     24  C   UNL     1      49.272  30.417  48.635  0.00  0.00    +0.000 A 
ATOM     25  C   UNL     1      48.610  31.576  48.976  0.00  0.00    +0.000 A 
ATOM     26  C   UNL     1      47.615  32.066  48.161  0.00  0.00    +0.000 A 
ATOM     27  C   UNL     1      47.307  31.371  47.012  0.00  0.00    +0.000 A 
ENDBRANCH  16  18
ENDBRANCH   5  16
TORSDOF 3
