REMARK  Name = 
REMARK  2 active torsions:
REMARK  status: ('A' for Active; 'I' for Inactive)
REMARK    1  A    between atoms: C_1  and  C_13
REMARK    2  A    between atoms: C_15  and  C_17
REMARK                            x       y       z     vdW  Elec       q    Type
REMARK                         _______ _______ _______ _____ _____    ______ ____
ROOT
ATOM      1  C   UNL     1      44.374  36.282  44.743  0.00  0.00    +0.000 A 
ATOM      2  C   UNL     1      45.017  36.167  43.520  0.00  0.00    +0.000 A 
ATOM      3  C   UNL     1      45.862  35.125  43.214  0.00  0.00    +0.000 A 
ATOM      4  N   UNL     1      45.998  34.226  44.235  0.00  0.00    +0.000 NA
ATOM      5  C   UNL     1      45.388  34.318  45.423  0.00  0.00    +0.000 A 
ATOM      6  N   UNL     1      44.585  35.340  45.664  0.00  0.00    +0.000 NA
ENDROOT
BRANCH   3   7
ATOM      7  C   UNL     1      46.603  34.832  42.016  0.00  0.00    +0.000 A 
ATOM      8  C   UNL     1      47.913  35.273  41.948  0.00  0.00    +0.000 A 
ATOM      9  C   UNL     1      48.747  35.059  40.869  0.00  0.00    +0.000 A 
ATOM     10  C   UNL     1      48.271  34.374  39.788  0.00  0.00    +0.000 A 
ATOM     11  C   UNL     1      46.969  33.904  39.786  0.00  0.00    +0.000 A 
ATOM     12  C   UNL     1      46.479  33.214  38.696  0.00  0.00    +0.000 A 
ATOM     13  C   UNL     1      45.184  32.734  38.657  0.00  0.00    +0.000 A 
ATOM     14  C   UNL     1      44.405  32.994  39.794  0.00  0.00    +0.000 A 
ATOM     15  C   UNL     1      44.927  33.674  40.837  0.00  0.00    +0.000 A 
ATOM     16  C   UNL     1      46.205  34.153  40.888  0.00  0.00    +0.000 A 
ENDBRANCH   3   7
BRANCH   5  17
ATOM     17  C   UNL     1      45.610  33.295  46.438  0.00  0.00    +0.000 A 
ATOM     18  C   UNL     1      46.497  32.254  46.375  0.00  0.00    +0.000 A 
ATOM     19  N   UNL     1      46.410  31.521  47.510  0.00  0.00    +0.000 NA
ATOM     20  C   UNL     1      45.468  32.088  48.305  0.00  0.00    +0.000 A 
ATOM     21  N   UNL     1      45.003  33.155  47.631  0.00  0.00    +0.000 N 
ATOM     22  H   UNL     1      44.271  33.788  47.985  0.00  0.00    +0.000 HD
ENDBRANCH   5  17
TORSDOF 2
