REMARK  Name = 
REMARK  6 active torsions:
REMARK  status: ('A' for Active; 'I' for Inactive)
REMARK    1  A    between atoms: C_3  and  C_22
REMARK    2  A    between atoms: C_5  and  C_7
REMARK    3  A    between atoms: C_16  and  N_21
REMARK    4  A    between atoms: C_22  and  C_23
REMARK    5  A    between atoms: C_23  and  C_24
REMARK    6  A    between atoms: C_28  and  C_30
REMARK                            x       y       z     vdW  Elec       q    Type
REMARK                         _______ _______ _______ _____ _____    ______ ____
ROOT
ATOM      1  C   UNL     1      44.788  35.354  44.798  0.00  0.00    +0.000 A 
ATOM      2  C   UNL     1      45.619  35.025  43.711  0.00  0.00    +0.000 A 
ATOM      3  C   UNL     1      46.490  33.985  43.750  0.00  0.00    +0.000 A 
ATOM      4  N   UNL     1      46.546  33.253  44.876  0.00  0.00    +0.000 NA
ATOM      5  C   UNL     1      45.728  33.579  45.938  0.00  0.00    +0.000 A 
ATOM      6  N   UNL     1      44.890  34.581  45.903  0.00  0.00    +0.000 NA
ENDROOT
BRANCH   5   7
ATOM      7  C   UNL     1      45.947  32.643  47.081  0.00  0.00    +0.000 A 
ATOM      8  C   UNL     1      45.024  32.306  48.172  0.00  0.00    +0.000 A 
ATOM      9  S   UNL     1      46.073  31.140  49.075  0.00  0.00    +0.000 S 
ATOM     10  C   UNL     1      47.527  31.297  47.873  0.00  0.00    +0.000 A 
ATOM     11  N   UNL     1      47.151  32.162  46.932  0.00  0.00    +0.000 NA
ATOM     12  N   UNL     1      48.689  30.504  48.185  0.00  0.00    +0.000 N 
ATOM     13  C   UNL     1      48.942  29.265  47.732  0.00  0.00    +0.000 A 
ATOM     14  N   UNL     1      50.131  28.907  48.271  0.00  0.00    +0.000 NA
ATOM     15  C   UNL     1      50.590  29.905  49.034  0.00  0.00    +0.000 A 
ATOM     16  C   UNL     1      51.703  30.145  49.820  0.00  0.00    +0.000 A 
ATOM     17  N   UNL     1      51.895  31.303  50.501  0.00  0.00    +0.000 NA
ATOM     18  C   UNL     1      50.969  32.288  50.426  0.00  0.00    +0.000 A 
ATOM     19  N   UNL     1      49.873  32.083  49.667  0.00  0.00    +0.000 NA
ATOM     20  C   UNL     1      49.673  30.933  48.985  0.00  0.00    +0.000 A 
BRANCH  16  21
ATOM     21  N   UNL     1      52.694  29.122  49.916  0.00  0.00    +0.000 N 
ATOM     22  H   UNL     1      53.534  29.271  50.493  0.00  0.00    +0.000 HD
ATOM     23  H   UNL     1      52.569  28.235  49.408  0.00  0.00    +0.000 HD
ENDBRANCH  16  21
ENDBRANCH   5   7
BRANCH   3  24
ATOM     24  C   UNL     1      47.335  33.682  42.605  0.00  0.00    +0.000 C 
BRANCH  24  25
ATOM     25  C   UNL     1      47.597  34.785  41.651  0.00  0.00    +0.000 C 
BRANCH  25  26
ATOM     26  C   UNL     1      47.315  34.287  40.270  0.00  0.00    +0.000 A 
ATOM     27  C   UNL     1      48.244  34.350  39.250  0.00  0.00    +0.000 A 
ATOM     28  C   UNL     1      48.084  33.927  37.969  0.00  0.00    +0.000 A 
ATOM     29  N   UNL     1      46.859  33.388  37.707  0.00  0.00    +0.000 NA
ATOM     30  C   UNL     1      45.923  33.308  38.674  0.00  0.00    +0.000 A 
ATOM     31  N   UNL     1      46.106  33.737  39.947  0.00  0.00    +0.000 NA
BRANCH  30  32
ATOM     32  C   UNL     1      44.643  32.720  38.312  0.00  0.00    +0.000 A 
ATOM     33  C   UNL     1      43.453  33.321  38.723  0.00  0.00    +0.000 A 
ATOM     34  C   UNL     1      42.249  32.761  38.379  0.00  0.00    +0.000 A 
ATOM     35  N   UNL     1      42.193  31.645  37.653  0.00  0.00    +0.000 NA
ATOM     36  C   UNL     1      43.356  31.080  37.265  0.00  0.00    +0.000 A 
ATOM     37  N   UNL     1      44.582  31.593  37.578  0.00  0.00    +0.000 NA
ENDBRANCH  30  32
ENDBRANCH  25  26
ENDBRANCH  24  25
ENDBRANCH   3  24
TORSDOF 6
