REMARK  Name = 
REMARK  3 active torsions:
REMARK  status: ('A' for Active; 'I' for Inactive)
REMARK    1  A    between atoms: C_3  and  C_18
REMARK    2  A    between atoms: C_21  and  N_23
REMARK    3  A    between atoms: C_25  and  C_31
REMARK                            x       y       z     vdW  Elec       q    Type
REMARK                         _______ _______ _______ _____ _____    ______ ____
ROOT
ATOM      1  C   UNL     1      44.643  36.266  44.150  0.00  0.00    +0.000 A 
ATOM      2  C   UNL     1      45.363  36.072  42.934  0.00  0.00    +0.000 A 
ATOM      3  C   UNL     1      46.161  34.951  42.867  0.00  0.00    +0.000 A 
ATOM      4  N   UNL     1      46.208  34.132  43.923  0.00  0.00    +0.000 NA
ATOM      5  C   UNL     1      45.512  34.339  45.071  0.00  0.00    +0.000 A 
ATOM      6  N   UNL     1      44.725  35.422  45.172  0.00  0.00    +0.000 NA
ATOM      7  N   UNL     1      45.558  33.474  46.190  0.00  0.00    +0.000 N 
ATOM      8  C   UNL     1      44.830  33.693  47.312  0.00  0.00    +0.000 A 
ATOM      9  N   UNL     1      45.042  32.730  48.246  0.00  0.00    +0.000 NA
ATOM     10  C   UNL     1      45.929  31.868  47.717  0.00  0.00    +0.000 A 
ATOM     11  C   UNL     1      46.514  30.715  48.188  0.00  0.00    +0.000 A 
ATOM     12  O   UNL     1      46.219  30.295  49.355  0.00  0.00    +0.000 OA
ATOM     13  N   UNL     1      47.382  30.073  47.386  0.00  0.00    +0.000 N 
ATOM     14  C   UNL     1      47.675  30.551  46.143  0.00  0.00    +0.000 A 
ATOM     15  N   UNL     1      48.613  29.759  45.417  0.00  0.00    +0.000 N 
ATOM     16  N   UNL     1      47.102  31.692  45.666  0.00  0.00    +0.000 NA
ATOM     17  C   UNL     1      46.232  32.341  46.458  0.00  0.00    +0.000 A 
ATOM     18  H   UNL     1      47.832  29.207  47.716  0.00  0.00    +0.000 HD
ATOM     19  H   UNL     1      48.898  30.039  44.468  0.00  0.00    +0.000 HD
ATOM     20  H   UNL     1      49.006  28.907  45.842  0.00  0.00    +0.000 HD
ENDROOT
BRANCH   3  21
ATOM     21  C   UNL     1      46.910  34.715  41.644  0.00  0.00    +0.000 A 
ATOM     22  C   UNL     1      48.236  35.073  41.406  0.00  0.00    +0.000 A 
ATOM     23  C   UNL     1      48.454  34.622  40.104  0.00  0.00    +0.000 A 
ATOM     24  C   UNL     1      47.274  34.031  39.639  0.00  0.00    +0.000 A 
ATOM     25  O   UNL     1      46.382  34.117  40.609  0.00  0.00    +0.000 OA
BRANCH  24  26
ATOM     26  N   UNL     1      47.079  33.450  38.361  0.00  0.00    +0.000 N 
ATOM     27  C   UNL     1      46.215  32.422  38.249  0.00  0.00    +0.000 A 
ATOM     28  C   UNL     1      45.988  31.820  37.029  0.00  0.00    +0.000 A 
ATOM     29  C   UNL     1      46.672  32.296  35.920  0.00  0.00    +0.000 A 
ATOM     30  O   UNL     1      46.442  31.725  34.828  0.00  0.00    +0.000 OA
ATOM     31  N   UNL     1      47.519  33.321  36.092  0.00  0.00    +0.000 N 
ATOM     32  C   UNL     1      47.725  33.899  37.302  0.00  0.00    +0.000 A 
ATOM     33  O   UNL     1      48.534  34.862  37.398  0.00  0.00    +0.000 OA
ATOM     34  C   UNL     1      45.004  30.702  37.020  0.00  0.00    +0.000 C 
ATOM     35  H   UNL     1      48.032  33.683  35.276  0.00  0.00    +0.000 HD
ENDBRANCH  24  26
ENDBRANCH   3  21
TORSDOF 2
