REMARK  Name = 
REMARK  1 active torsions:
REMARK  status: ('A' for Active; 'I' for Inactive)
REMARK    1  A    between atoms: C_3  and  C_15
REMARK                            x       y       z     vdW  Elec       q    Type
REMARK                         _______ _______ _______ _____ _____    ______ ____
ROOT
ATOM      1  C   UNL     1      44.409  36.009  44.779  0.00  0.00    +0.000 A 
ATOM      2  C   UNL     1      45.034  35.981  43.536  0.00  0.00    +0.000 A 
ATOM      3  C   UNL     1      45.958  35.008  43.181  0.00  0.00    +0.000 A 
ATOM      4  N   UNL     1      46.180  34.097  44.176  0.00  0.00    +0.000 NA
ATOM      5  C   UNL     1      45.588  34.108  45.376  0.00  0.00    +0.000 A 
ATOM      6  N   UNL     1      44.708  35.067  45.662  0.00  0.00    +0.000 NA
ATOM      7  N   UNL     1      45.917  33.090  46.318  0.00  0.00    +0.000 N 
ATOM      8  C   UNL     1      45.216  33.179  47.473  0.00  0.00    +0.000 A 
ATOM      9  C   UNL     1      45.443  32.244  48.476  0.00  0.00    +0.000 A 
ATOM     10  C   UNL     1      46.399  31.258  48.219  0.00  0.00    +0.000 A 
ATOM     11  N   UNL     1      46.742  30.246  49.126  0.00  0.00    +0.000 N 
ATOM     12  N   UNL     1      47.066  31.222  47.046  0.00  0.00    +0.000 NA
ATOM     13  C   UNL     1      46.834  32.132  46.089  0.00  0.00    +0.000 A 
ATOM     14  O   UNL     1      47.422  32.162  44.963  0.00  0.00    +0.000 OA
ATOM     15  H   UNL     1      47.457  29.549  48.873  0.00  0.00    +0.000 HD
ATOM     16  H   UNL     1      46.279  30.200  50.045  0.00  0.00    +0.000 HD
ENDROOT
BRANCH   3  17
ATOM     17  C   UNL     1      46.691  34.813  41.966  0.00  0.00    +0.000 A 
ATOM     18  C   UNL     1      47.953  35.376  41.882  0.00  0.00    +0.000 A 
ATOM     19  C   UNL     1      48.774  35.263  40.783  0.00  0.00    +0.000 A 
ATOM     20  C   UNL     1      48.338  34.558  39.696  0.00  0.00    +0.000 A 
ATOM     21  C   UNL     1      47.094  33.971  39.707  0.00  0.00    +0.000 A 
ATOM     22  C   UNL     1      46.645  33.264  38.614  0.00  0.00    +0.000 A 
ATOM     23  C   UNL     1      45.398  32.669  38.589  0.00  0.00    +0.000 A 
ATOM     24  C   UNL     1      44.634  32.830  39.734  0.00  0.00    +0.000 A 
ATOM     25  C   UNL     1      45.107  33.532  40.791  0.00  0.00    +0.000 A 
ATOM     26  C   UNL     1      46.338  34.128  40.836  0.00  0.00    +0.000 A 
ENDBRANCH   3  17
TORSDOF 1
