REMARK  Name = 
REMARK  3 active torsions:
REMARK  status: ('A' for Active; 'I' for Inactive)
REMARK    1  A    between atoms: C_3  and  C_7
REMARK    2  A    between atoms: C_5  and  C_17
REMARK    3  A    between atoms: C_22  and  N_23
REMARK                            x       y       z     vdW  Elec       q    Type
REMARK                         _______ _______ _______ _____ _____    ______ ____
ROOT
ATOM      1  C   UNL     1      44.466  35.939  44.684  0.00  0.00    +0.000 A 
ATOM      2  C   UNL     1      45.112  35.950  43.452  0.00  0.00    +0.000 A 
ATOM      3  C   UNL     1      46.066  35.000  43.095  0.00  0.00    +0.000 A 
ATOM      4  N   UNL     1      46.302  34.062  44.070  0.00  0.00    +0.000 NA
ATOM      5  C   UNL     1      45.670  34.059  45.262  0.00  0.00    +0.000 A 
ATOM      6  N   UNL     1      44.772  34.985  45.551  0.00  0.00    +0.000 NA
ENDROOT
BRANCH   3   7
ATOM      7  C   UNL     1      46.829  34.852  41.891  0.00  0.00    +0.000 A 
ATOM      8  C   UNL     1      48.064  35.458  41.826  0.00  0.00    +0.000 A 
ATOM      9  C   UNL     1      48.893  35.390  40.730  0.00  0.00    +0.000 A 
ATOM     10  C   UNL     1      48.494  34.690  39.629  0.00  0.00    +0.000 A 
ATOM     11  C   UNL     1      47.272  34.055  39.614  0.00  0.00    +0.000 A 
ATOM     12  C   UNL     1      46.838  33.338  38.517  0.00  0.00    +0.000 A 
ATOM     13  C   UNL     1      45.628  32.696  38.473  0.00  0.00    +0.000 A 
ATOM     14  C   UNL     1      44.861  32.816  39.616  0.00  0.00    +0.000 A 
ATOM     15  C   UNL     1      45.284  33.520  40.695  0.00  0.00    +0.000 A 
ATOM     16  C   UNL     1      46.496  34.163  40.738  0.00  0.00    +0.000 A 
ENDBRANCH   3   7
BRANCH   5  17
ATOM     17  C   UNL     1      46.014  33.001  46.217  0.00  0.00    +0.000 A 
ATOM     18  C   UNL     1      46.959  32.053  45.881  0.00  0.00    +0.000 A 
ATOM     19  C   UNL     1      47.294  31.039  46.788  0.00  0.00    +0.000 A 
ATOM     20  C   UNL     1      46.643  31.050  47.988  0.00  0.00    +0.000 A 
ATOM     21  C   UNL     1      45.684  31.970  48.393  0.00  0.00    +0.000 A 
ATOM     22  C   UNL     1      45.412  32.933  47.444  0.00  0.00    +0.000 A 
BRANCH  22  23
ATOM     23  N   UNL     1      44.438  33.947  47.735  0.00  0.00    +0.000 N 
ATOM     24  H   UNL     1      43.951  33.948  48.643  0.00  0.00    +0.000 HD
ATOM     25  H   UNL     1      44.226  34.673  47.036  0.00  0.00    +0.000 HD
ENDBRANCH  22  23
ENDBRANCH   5  17
TORSDOF 3
