REMARK  Name = 
REMARK  3 active torsions:
REMARK  status: ('A' for Active; 'I' for Inactive)
REMARK    1  A    between atoms: C_1  and  C_8
REMARK    2  A    between atoms: C_4  and  N_20
REMARK    3  A    between atoms: C_22  and  C_28
REMARK                            x       y       z     vdW  Elec       q    Type
REMARK                         _______ _______ _______ _____ _____    ______ ____
ROOT
ATOM      1  C   UNL     1      44.579  35.847  44.451  0.00  0.00    +0.000 A 
ATOM      2  C   UNL     1      45.277  35.795  43.205  0.00  0.00    +0.000 A 
ATOM      3  C   UNL     1      46.207  34.793  43.062  0.00  0.00    +0.000 A 
ATOM      4  N   UNL     1      46.398  33.932  44.097  0.00  0.00    +0.000 NA
ATOM      5  C   UNL     1      45.720  34.010  45.262  0.00  0.00    +0.000 A 
ATOM      6  N   UNL     1      44.810  34.972  45.431  0.00  0.00    +0.000 NA
ATOM      7  N   UNL     1      46.013  33.046  46.270  0.00  0.00    +0.000 N 
ATOM      8  C   UNL     1      45.270  33.261  47.393  0.00  0.00    +0.000 A 
ATOM      9  C   UNL     1      45.384  32.446  48.512  0.00  0.00    +0.000 A 
ATOM     10  C   UNL     1      46.302  31.405  48.404  0.00  0.00    +0.000 A 
ATOM     11  N   UNL     1      46.478  30.523  49.509  0.00  0.00    +0.000 N 
ATOM     12  N   UNL     1      47.017  31.216  47.295  0.00  0.00    +0.000 NA
ATOM     13  C   UNL     1      46.883  32.026  46.224  0.00  0.00    +0.000 A 
ATOM     14  O   UNL     1      47.508  31.934  45.135  0.00  0.00    +0.000 OA
ATOM     15  H   UNL     1      47.153  29.747  49.447  0.00  0.00    +0.000 HD
ATOM     16  H   UNL     1      45.930  30.661  50.370  0.00  0.00    +0.000 HD
ENDROOT
BRANCH   3  17
ATOM     17  C   UNL     1      46.941  34.699  41.816  0.00  0.00    +0.000 A 
ATOM     18  C   UNL     1      48.195  35.250  41.553  0.00  0.00    +0.000 A 
ATOM     19  C   UNL     1      48.431  34.869  40.236  0.00  0.00    +0.000 A 
ATOM     20  C   UNL     1      47.335  34.130  39.788  0.00  0.00    +0.000 A 
ATOM     21  O   UNL     1      46.465  34.057  40.780  0.00  0.00    +0.000 OA
BRANCH  20  22
ATOM     22  N   UNL     1      47.184  33.558  38.496  0.00  0.00    +0.000 N 
ATOM     23  C   UNL     1      46.320  32.538  38.356  0.00  0.00    +0.000 A 
ATOM     24  C   UNL     1      46.142  31.953  37.124  0.00  0.00    +0.000 A 
ATOM     25  C   UNL     1      46.857  32.427  36.040  0.00  0.00    +0.000 A 
ATOM     26  O   UNL     1      46.684  31.882  34.918  0.00  0.00    +0.000 OA
ATOM     27  N   UNL     1      47.714  33.459  36.238  0.00  0.00    +0.000 N 
ATOM     28  C   UNL     1      47.873  34.019  37.462  0.00  0.00    +0.000 A 
ATOM     29  O   UNL     1      48.684  34.976  37.585  0.00  0.00    +0.000 OA
ATOM     30  C   UNL     1      45.183  30.826  37.033  0.00  0.00    +0.000 C 
ATOM     31  H   UNL     1      48.255  33.825  35.442  0.00  0.00    +0.000 HD
ENDBRANCH  20  22
ENDBRANCH   3  17
TORSDOF 2
