REMARK  Name = 
REMARK  4 active torsions:
REMARK  status: ('A' for Active; 'I' for Inactive)
REMARK    1  A    between atoms: C_1  and  C_18
REMARK    2  A    between atoms: C_5  and  C_6
REMARK    3  A    between atoms: C_20  and  C_22
REMARK    4  A    between atoms: C_25  and  C_27
REMARK                            x       y       z     vdW  Elec       q    Type
REMARK                         _______ _______ _______ _____ _____    ______ ____
ROOT
ATOM      1  C   UNL     1      40.957  35.836  41.129  0.00  0.00    +0.000 A 
ATOM      2  C   UNL     1      40.330  35.124  40.099  0.00  0.00    +0.000 A 
ATOM      3  C   UNL     1      40.887  33.894  39.681  0.00  0.00    +0.000 A 
ATOM      4  N   UNL     1      41.991  33.457  40.284  0.00  0.00    +0.000 NA
ATOM      5  C   UNL     1      42.573  34.171  41.277  0.00  0.00    +0.000 A 
ATOM      6  N   UNL     1      42.064  35.352  41.701  0.00  0.00    +0.000 NA
ENDROOT
BRANCH   3   7
ATOM      7  C   UNL     1      40.240  33.130  38.616  0.00  0.00    +0.000 C 
ATOM      8  C   UNL     1      39.748  33.896  37.464  0.00  0.00    +0.000 C 
ATOM      9  C   UNL     1      38.302  34.247  37.780  0.00  0.00    +0.000 C 
ATOM     10  C   UNL     1      37.815  33.119  38.640  0.00  0.00    +0.000 C 
ATOM     11  C   UNL     1      39.035  32.340  39.032  0.00  0.00    +0.000 C 
BRANCH  11  12
ATOM     12  C   UNL     1      38.940  31.041  38.288  0.00  0.00    +0.000 A 
ATOM     13  N   UNL     1      39.595  30.877  37.102  0.00  0.00    +0.000 NA
ATOM     14  C   UNL     1      39.547  29.737  36.388  0.00  0.00    +0.000 A 
ATOM     15  N   UNL     1      38.842  28.669  36.804  0.00  0.00    +0.000 NA
ATOM     16  C   UNL     1      38.188  28.784  37.953  0.00  0.00    +0.000 A 
ATOM     17  C   UNL     1      37.430  27.727  38.464  0.00  0.00    +0.000 A 
ATOM     18  C   UNL     1      36.734  27.794  39.650  0.00  0.00    +0.000 A 
ATOM     19  C   UNL     1      36.796  28.970  40.366  0.00  0.00    +0.000 A 
ATOM     20  C   UNL     1      37.542  30.026  39.874  0.00  0.00    +0.000 A 
ATOM     21  C   UNL     1      38.222  29.939  38.699  0.00  0.00    +0.000 A 
ENDBRANCH  11  12
ENDBRANCH   3   7
BRANCH   5  22
ATOM     22  C   UNL     1      43.795  33.705  41.963  0.00  0.00    +0.000 A 
ATOM     23  N   UNL     1      44.069  32.577  42.646  0.00  0.00    +0.000 NA
ATOM     24  O   UNL     1      45.300  32.605  43.080  0.00  0.00    +0.000 OA
ATOM     25  C   UNL     1      45.872  33.732  42.703  0.00  0.00    +0.000 A 
ATOM     26  N   UNL     1      44.930  34.432  41.998  0.00  0.00    +0.000 NA
BRANCH  25  27
ATOM     27  C   UNL     1      47.229  34.097  43.008  0.00  0.00    +0.000 C 
ATOM     28  O   UNL     1      47.894  33.577  43.869  0.00  0.00    +0.000 OA
ATOM     29  N   UNL     1      47.680  35.127  42.186  0.00  0.00    +0.000 N 
ATOM     30  C   UNL     1      49.075  35.398  42.338  0.00  0.00    +0.000 C 
ATOM     31  N   UNL     1      50.031  34.931  43.012  0.00  0.00    +0.000 NA
ATOM     32  N   UNL     1      49.778  36.420  41.635  0.00  0.00    +0.000 N 
ATOM     33  H   UNL     1      50.049  33.956  43.330  0.00  0.00    +0.000 HD
ATOM     34  H   UNL     1      47.070  35.641  41.535  0.00  0.00    +0.000 HD
ATOM     35  H   UNL     1      50.786  36.557  41.797  0.00  0.00    +0.000 HD
ATOM     36  H   UNL     1      49.278  37.022  40.965  0.00  0.00    +0.000 HD
ENDBRANCH  25  27
ENDBRANCH   5  22
TORSDOF 4
