REMARK  Name = 
REMARK  3 active torsions:
REMARK  status: ('A' for Active; 'I' for Inactive)
REMARK    1  A    between atoms: C_3  and  C_7
REMARK    2  A    between atoms: C_5  and  C_17
REMARK    3  A    between atoms: C_22  and  O_23
REMARK                            x       y       z     vdW  Elec       q    Type
REMARK                         _______ _______ _______ _____ _____    ______ ____
ROOT
ATOM      1  C   UNL     1      44.446  36.014  44.735  0.00  0.00    +0.000 A 
ATOM      2  C   UNL     1      45.080  35.983  43.501  0.00  0.00    +0.000 A 
ATOM      3  C   UNL     1      46.003  35.004  43.144  0.00  0.00    +0.000 A 
ATOM      4  N   UNL     1      46.220  34.074  44.131  0.00  0.00    +0.000 NA
ATOM      5  C   UNL     1      45.605  34.101  45.331  0.00  0.00    +0.000 A 
ATOM      6  N   UNL     1      44.738  35.057  45.614  0.00  0.00    +0.000 NA
ENDROOT
BRANCH   3   7
ATOM      7  C   UNL     1      46.748  34.823  41.930  0.00  0.00    +0.000 A 
ATOM      8  C   UNL     1      48.009  35.395  41.861  0.00  0.00    +0.000 A 
ATOM      9  C   UNL     1      48.831  35.296  40.767  0.00  0.00    +0.000 A 
ATOM     10  C   UNL     1      48.404  34.600  39.670  0.00  0.00    +0.000 A 
ATOM     11  C   UNL     1      47.159  34.003  39.666  0.00  0.00    +0.000 A 
ATOM     12  C   UNL     1      46.701  33.295  38.577  0.00  0.00    +0.000 A 
ATOM     13  C   UNL     1      45.471  32.693  38.546  0.00  0.00    +0.000 A 
ATOM     14  C   UNL     1      44.704  32.840  39.687  0.00  0.00    +0.000 A 
ATOM     15  C   UNL     1      45.161  33.538  40.756  0.00  0.00    +0.000 A 
ATOM     16  C   UNL     1      46.385  34.141  40.798  0.00  0.00    +0.000 A 
ENDBRANCH   3   7
BRANCH   5  17
ATOM     17  C   UNL     1      45.936  33.040  46.285  0.00  0.00    +0.000 A 
ATOM     18  C   UNL     1      46.836  32.047  45.947  0.00  0.00    +0.000 A 
ATOM     19  C   UNL     1      47.143  31.035  46.863  0.00  0.00    +0.000 A 
ATOM     20  C   UNL     1      46.510  31.098  48.071  0.00  0.00    +0.000 A 
ATOM     21  C   UNL     1      45.591  32.061  48.493  0.00  0.00    +0.000 A 
ATOM     22  C   UNL     1      45.341  33.023  47.535  0.00  0.00    +0.000 A 
BRANCH  22  23
ATOM     23  O   UNL     1      44.441  34.035  47.848  0.00  0.00    +0.000 OA
ATOM     24  H   UNL     1      44.000  34.049  48.734  0.00  0.00    +0.000 HD
ENDBRANCH  22  23
ENDBRANCH   5  17
TORSDOF 3
