REMARK  Name = 
REMARK  3 active torsions:
REMARK  status: ('A' for Active; 'I' for Inactive)
REMARK    1  A    between atoms: C_1  and  C_8
REMARK    2  A    between atoms: C_4  and  N_21
REMARK    3  A    between atoms: C_23  and  C_29
REMARK                            x       y       z     vdW  Elec       q    Type
REMARK                         _______ _______ _______ _____ _____    ______ ____
ROOT
ATOM      1  C   UNL     1      46.893  34.729  41.888  0.00  0.00    +0.000 A 
ATOM      2  C   UNL     1      48.196  35.178  41.675  0.00  0.00    +0.000 A 
ATOM      3  C   UNL     1      48.454  34.778  40.366  0.00  0.00    +0.000 A 
ATOM      4  C   UNL     1      47.313  34.124  39.884  0.00  0.00    +0.000 A 
ATOM      5  O   UNL     1      46.405  34.126  40.845  0.00  0.00    +0.000 OA
ENDROOT
BRANCH   1   8
ATOM      6  C   UNL     1      44.557  36.078  44.450  0.00  0.00    +0.000 A 
ATOM      7  C   UNL     1      45.283  35.970  43.222  0.00  0.00    +0.000 A 
ATOM      8  C   UNL     1      46.127  34.891  43.116  0.00  0.00    +0.000 A 
ATOM      9  N   UNL     1      46.227  34.011  44.148  0.00  0.00    +0.000 NA
ATOM     10  C   UNL     1      45.514  34.158  45.300  0.00  0.00    +0.000 A 
ATOM     11  N   UNL     1      44.681  35.196  45.441  0.00  0.00    +0.000 NA
ATOM     12  N   UNL     1      45.668  33.196  46.341  0.00  0.00    +0.000 N 
ATOM     13  C   UNL     1      45.114  33.293  47.563  0.00  0.00    +0.000 A 
ATOM     14  N   UNL     1      45.478  32.203  48.280  0.00  0.00    +0.000 NA
ATOM     15  C   UNL     1      46.262  31.427  47.501  0.00  0.00    +0.000 A 
ATOM     16  C   UNL     1      46.918  30.225  47.667  0.00  0.00    +0.000 A 
ATOM     17  N   UNL     1      47.649  29.697  46.652  0.00  0.00    +0.000 NA
ATOM     18  C   UNL     1      47.758  30.318  45.463  0.00  0.00    +0.000 A 
ATOM     19  N   UNL     1      47.124  31.484  45.299  0.00  0.00    +0.000 NA
ATOM     20  C   UNL     1      46.384  32.060  46.266  0.00  0.00    +0.000 A 
ENDBRANCH   1   8
BRANCH   4  21
ATOM     21  N   UNL     1      47.167  33.563  38.586  0.00  0.00    +0.000 N 
ATOM     22  C   UNL     1      46.317  32.531  38.433  0.00  0.00    +0.000 A 
ATOM     23  C   UNL     1      46.140  31.946  37.201  0.00  0.00    +0.000 A 
ATOM     24  C   UNL     1      46.855  32.436  36.119  0.00  0.00    +0.000 A 
ATOM     25  O   UNL     1      46.673  31.878  35.003  0.00  0.00    +0.000 OA
ATOM     26  N   UNL     1      47.687  33.465  36.337  0.00  0.00    +0.000 N 
ATOM     27  C   UNL     1      47.847  34.030  37.556  0.00  0.00    +0.000 A 
ATOM     28  O   UNL     1      48.646  34.993  37.678  0.00  0.00    +0.000 OA
ATOM     29  C   UNL     1      45.170  30.812  37.135  0.00  0.00    +0.000 C 
ATOM     30  H   UNL     1      48.226  33.841  35.544  0.00  0.00    +0.000 HD
ENDBRANCH   4  21
TORSDOF 2
