REMARK  Name = 
REMARK  6 active torsions:
REMARK  status: ('A' for Active; 'I' for Inactive)
REMARK    1  A    between atoms: C_3  and  C_21
REMARK    2  A    between atoms: C_5  and  C_7
REMARK    3  A    between atoms: C_14  and  C_15
REMARK    4  A    between atoms: C_21  and  C_22
REMARK    5  A    between atoms: C_22  and  C_23
REMARK    6  A    between atoms: C_27  and  C_29
REMARK                            x       y       z     vdW  Elec       q    Type
REMARK                         _______ _______ _______ _____ _____    ______ ____
ROOT
ATOM      1  C   UNL     1      44.723  35.449  44.782  0.00  0.00    +0.000 A 
ATOM      2  C   UNL     1      45.544  35.076  43.703  0.00  0.00    +0.000 A 
ATOM      3  C   UNL     1      46.391  34.016  43.766  0.00  0.00    +0.000 A 
ATOM      4  N   UNL     1      46.430  33.313  44.916  0.00  0.00    +0.000 NA
ATOM      5  C   UNL     1      45.625  33.685  45.964  0.00  0.00    +0.000 A 
ATOM      6  N   UNL     1      44.808  34.705  45.904  0.00  0.00    +0.000 NA
ENDROOT
BRANCH   5   7
ATOM      7  C   UNL     1      45.830  32.772  47.132  0.00  0.00    +0.000 A 
ATOM      8  C   UNL     1      44.822  32.214  48.042  0.00  0.00    +0.000 A 
ATOM      9  S   UNL     1      45.906  31.257  49.119  0.00  0.00    +0.000 S 
ATOM     10  C   UNL     1      47.490  31.749  48.196  0.00  0.00    +0.000 A 
ATOM     11  N   UNL     1      47.114  32.556  47.197  0.00  0.00    +0.000 NA
ATOM     12  N   UNL     1      48.738  31.210  48.692  0.00  0.00    +0.000 N 
ATOM     13  C   UNL     1      49.556  31.921  49.481  0.00  0.00    +0.000 A 
ATOM     14  C   UNL     1      50.729  31.332  49.909  0.00  0.00    +0.000 A 
ATOM     15  C   UNL     1      51.647  32.108  50.786  0.00  0.00    +0.000 C 
ATOM     16  C   UNL     1      51.047  30.038  49.531  0.00  0.00    +0.000 A 
ATOM     17  O   UNL     1      52.107  29.471  49.904  0.00  0.00    +0.000 OA
ATOM     18  N   UNL     1      50.162  29.409  48.739  0.00  0.00    +0.000 N 
ATOM     19  C   UNL     1      48.997  29.956  48.296  0.00  0.00    +0.000 A 
ATOM     20  O   UNL     1      48.276  29.241  47.562  0.00  0.00    +0.000 OA
ATOM     21  H   UNL     1      50.381  28.446  48.447  0.00  0.00    +0.000 HD
ENDBRANCH   5   7
BRANCH   3  22
ATOM     22  C   UNL     1      47.227  33.666  42.626  0.00  0.00    +0.000 C 
BRANCH  22  23
ATOM     23  C   UNL     1      47.569  34.753  41.682  0.00  0.00    +0.000 C 
BRANCH  23  24
ATOM     24  C   UNL     1      47.296  34.270  40.295  0.00  0.00    +0.000 A 
ATOM     25  C   UNL     1      48.228  34.344  39.280  0.00  0.00    +0.000 A 
ATOM     26  C   UNL     1      48.082  33.938  37.993  0.00  0.00    +0.000 A 
ATOM     27  N   UNL     1      46.853  33.397  37.720  0.00  0.00    +0.000 NA
ATOM     28  C   UNL     1      45.910  33.304  38.685  0.00  0.00    +0.000 A 
ATOM     29  N   UNL     1      46.095  33.723  39.959  0.00  0.00    +0.000 NA
BRANCH  28  30
ATOM     30  C   UNL     1      44.633  32.718  38.312  0.00  0.00    +0.000 A 
ATOM     31  C   UNL     1      43.438  33.308  38.721  0.00  0.00    +0.000 A 
ATOM     32  C   UNL     1      42.238  32.749  38.368  0.00  0.00    +0.000 A 
ATOM     33  N   UNL     1      42.188  31.643  37.632  0.00  0.00    +0.000 NA
ATOM     34  C   UNL     1      43.359  31.081  37.241  0.00  0.00    +0.000 A 
ATOM     35  N   UNL     1      44.577  31.598  37.567  0.00  0.00    +0.000 NA
ENDBRANCH  28  30
ENDBRANCH  23  24
ENDBRANCH  22  23
ENDBRANCH   3  22
TORSDOF 5
