REMARK  Name = 
REMARK  2 active torsions:
REMARK  status: ('A' for Active; 'I' for Inactive)
REMARK    1  A    between atoms: C_3  and  N_16
REMARK    2  A    between atoms: C_11  and  N_25
REMARK                            x       y       z     vdW  Elec       q    Type
REMARK                         _______ _______ _______ _____ _____    ______ ____
ROOT
ATOM      1  C   UNL     1      44.568  36.126  44.434  0.00  0.00    +0.000 A 
ATOM      2  C   UNL     1      45.339  36.021  43.252  0.00  0.00    +0.000 A 
ATOM      3  C   UNL     1      46.203  34.937  43.147  0.00  0.00    +0.000 A 
ATOM      4  N   UNL     1      46.269  34.037  44.175  0.00  0.00    +0.000 NA
ATOM      5  C   UNL     1      45.520  34.174  45.279  0.00  0.00    +0.000 A 
ATOM      6  N   UNL     1      44.670  35.203  45.427  0.00  0.00    +0.000 NA
ATOM      7  N   UNL     1      45.703  33.146  46.268  0.00  0.00    +0.000 N 
ATOM      8  C   UNL     1      45.211  33.021  47.526  0.00  0.00    +0.000 A 
ATOM      9  N   UNL     1      45.689  31.869  48.030  0.00  0.00    +0.000 NA
ATOM     10  C   UNL     1      46.471  31.277  47.103  0.00  0.00    +0.000 A 
ATOM     11  C   UNL     1      47.160  30.095  47.180  0.00  0.00    +0.000 A 
ATOM     12  N   UNL     1      47.861  29.760  46.081  0.00  0.00    +0.000 NA
ATOM     13  C   UNL     1      47.886  30.536  44.976  0.00  0.00    +0.000 A 
ATOM     14  N   UNL     1      47.212  31.697  44.893  0.00  0.00    +0.000 NA
ATOM     15  C   UNL     1      46.495  32.076  45.968  0.00  0.00    +0.000 A 
ENDROOT
BRANCH   3  16
ATOM     16  N   UNL     1      46.975  34.836  41.958  0.00  0.00    +0.000 N 
ATOM     17  C   UNL     1      48.200  35.384  41.770  0.00  0.00    +0.000 A 
ATOM     18  N   UNL     1      48.659  35.096  40.515  0.00  0.00    +0.000 NA
ATOM     19  C   UNL     1      47.679  34.351  39.928  0.00  0.00    +0.000 A 
ATOM     20  C   UNL     1      47.624  33.798  38.666  0.00  0.00    +0.000 A 
ATOM     21  N   UNL     1      46.497  33.091  38.347  0.00  0.00    +0.000 NA
ATOM     22  C   UNL     1      45.491  32.946  39.232  0.00  0.00    +0.000 A 
ATOM     23  N   UNL     1      45.518  33.479  40.482  0.00  0.00    +0.000 NA
ATOM     24  C   UNL     1      46.626  34.190  40.832  0.00  0.00    +0.000 A 
ENDBRANCH   3  16
BRANCH  11  25
ATOM     25  N   UNL     1      47.188  29.223  48.300  0.00  0.00    +0.000 N 
ATOM     26  H   UNL     1      47.738  28.353  48.262  0.00  0.00    +0.000 HD
ATOM     27  H   UNL     1      46.658  29.460  49.151  0.00  0.00    +0.000 HD
ENDBRANCH  11  25
TORSDOF 2
