REMARK  Name = 
REMARK  5 active torsions:
REMARK  status: ('A' for Active; 'I' for Inactive)
REMARK    1  A    between atoms: C_3  and  N_25
REMARK    2  A    between atoms: C_5  and  C_7
REMARK    3  A    between atoms: N_11  and  C_21
REMARK    4  A    between atoms: C_14  and  C_15
REMARK    5  A    between atoms: C_27  and  C_33
REMARK                            x       y       z     vdW  Elec       q    Type
REMARK                         _______ _______ _______ _____ _____    ______ ____
ROOT
ATOM      1  C   UNL     1      46.536  32.624  44.430  0.00  0.00    +0.000 A 
ATOM      2  C   UNL     1      47.401  32.013  43.519  0.00  0.00    +0.000 A 
ATOM      3  N   UNL     1      48.054  30.988  44.115  0.00  0.00    +0.000 NA
ATOM      4  C   UNL     1      47.593  30.963  45.398  0.00  0.00    +0.000 A 
ATOM      5  N   UNL     1      46.684  31.941  45.589  0.00  0.00    +0.000 N 
ATOM      6  N   UNL     1      48.058  30.005  46.342  0.00  0.00    +0.000 N 
ATOM      7  C   UNL     1      49.106  29.232  45.974  0.00  0.00    +0.000 A 
ATOM      8  C   UNL     1      49.612  28.273  46.851  0.00  0.00    +0.000 A 
ATOM      9  C   UNL     1      50.775  27.401  46.468  0.00  0.00    +0.000 C 
ATOM     10  C   UNL     1      49.034  28.119  48.097  0.00  0.00    +0.000 A 
ATOM     11  O   UNL     1      49.518  27.248  48.853  0.00  0.00    +0.000 OA
ATOM     12  N   UNL     1      47.989  28.906  48.433  0.00  0.00    +0.000 N 
ATOM     13  C   UNL     1      47.523  29.824  47.564  0.00  0.00    +0.000 A 
ATOM     14  O   UNL     1      46.549  30.541  47.905  0.00  0.00    +0.000 OA
ATOM     15  H   UNL     1      47.547  28.804  49.358  0.00  0.00    +0.000 HD
ENDROOT
BRANCH   1  20
ATOM     16  C   UNL     1      44.765  35.809  44.911  0.00  0.00    +0.000 A 
ATOM     17  C   UNL     1      43.970  35.885  43.743  0.00  0.00    +0.000 A 
ATOM     18  C   UNL     1      44.067  34.843  42.829  0.00  0.00    +0.000 A 
ATOM     19  N   UNL     1      44.890  33.803  43.055  0.00  0.00    +0.000 NA
ATOM     20  C   UNL     1      45.653  33.755  44.203  0.00  0.00    +0.000 A 
ATOM     21  N   UNL     1      45.579  34.752  45.108  0.00  0.00    +0.000 NA
BRANCH  18  22
ATOM     22  N   UNL     1      43.259  34.941  41.663  0.00  0.00    +0.000 N 
ATOM     23  C   UNL     1      41.956  35.284  41.605  0.00  0.00    +0.000 A 
ATOM     24  C   UNL     1      41.318  35.331  40.379  0.00  0.00    +0.000 A 
ATOM     25  C   UNL     1      41.988  35.032  39.207  0.00  0.00    +0.000 A 
ATOM     26  O   UNL     1      41.387  35.082  38.098  0.00  0.00    +0.000 OA
ATOM     27  N   UNL     1      43.275  34.699  39.311  0.00  0.00    +0.000 N 
ATOM     28  C   UNL     1      43.897  34.654  40.513  0.00  0.00    +0.000 A 
ATOM     29  O   UNL     1      45.126  34.318  40.447  0.00  0.00    +0.000 OA
ATOM     30  C   UNL     1      39.896  35.706  40.329  0.00  0.00    +0.000 C 
ATOM     31  H   UNL     1      43.807  34.471  38.459  0.00  0.00    +0.000 HD
ENDBRANCH  18  22
ENDBRANCH   1  20
BRANCH   5  32
ATOM     32  C   UNL     1      45.972  32.236  46.810  0.00  0.00    +0.000 C 
ATOM     33  F   UNL     1      45.259  31.130  47.309  0.00  0.00    +0.000 F 
ATOM     34  F   UNL     1      45.063  33.285  46.653  0.00  0.00    +0.000 F 
ATOM     35  F   UNL     1      46.857  32.558  47.824  0.00  0.00    +0.000 F 
ENDBRANCH   5  32
TORSDOF 3
