REMARK  Name = 
REMARK  1 active torsions:
REMARK  status: ('A' for Active; 'I' for Inactive)
REMARK    1  A    between atoms: C_1  and  C_13
REMARK                            x       y       z     vdW  Elec       q    Type
REMARK                         _______ _______ _______ _____ _____    ______ ____
ROOT
ATOM      1  C   UNL     1      44.389  36.003  44.896  0.00  0.00    +0.000 A 
ATOM      2  C   UNL     1      45.001  35.961  43.651  0.00  0.00    +0.000 A 
ATOM      3  C   UNL     1      45.917  34.977  43.297  0.00  0.00    +0.000 A 
ATOM      4  N   UNL     1      46.140  34.076  44.299  0.00  0.00    +0.000 NA
ATOM      5  C   UNL     1      45.564  34.101  45.495  0.00  0.00    +0.000 A 
ATOM      6  N   UNL     1      44.697  35.061  45.779  0.00  0.00    +0.000 NA
ATOM      7  N   UNL     1      45.894  33.092  46.442  0.00  0.00    +0.000 N 
ATOM      8  C   UNL     1      47.049  32.222  46.299  0.00  0.00    +0.000 C 
ATOM      9  C   UNL     1      46.972  31.247  47.438  0.00  0.00    +0.000 C 
ATOM     10  C   UNL     1      46.211  32.026  48.492  0.00  0.00    +0.000 C 
ATOM     11  C   UNL     1      45.181  32.762  47.656  0.00  0.00    +0.000 C 
ENDROOT
BRANCH   3  12
ATOM     12  C   UNL     1      46.639  34.774  42.070  0.00  0.00    +0.000 A 
ATOM     13  C   UNL     1      47.917  35.300  41.982  0.00  0.00    +0.000 A 
ATOM     14  C   UNL     1      48.726  35.180  40.875  0.00  0.00    +0.000 A 
ATOM     15  C   UNL     1      48.258  34.504  39.784  0.00  0.00    +0.000 A 
ATOM     16  C   UNL     1      46.993  33.954  39.800  0.00  0.00    +0.000 A 
ATOM     17  C   UNL     1      46.513  33.273  38.699  0.00  0.00    +0.000 A 
ATOM     18  C   UNL     1      45.250  32.714  38.676  0.00  0.00    +0.000 A 
ATOM     19  C   UNL     1      44.505  32.883  39.831  0.00  0.00    +0.000 A 
ATOM     20  C   UNL     1      45.005  33.557  40.898  0.00  0.00    +0.000 A 
ATOM     21  C   UNL     1      46.252  34.115  40.933  0.00  0.00    +0.000 A 
ENDBRANCH   3  12
TORSDOF 1
