REMARK  Name = 
REMARK  3 active torsions:
REMARK  status: ('A' for Active; 'I' for Inactive)
REMARK    1  A    between atoms: C_12  and  C_13
REMARK    2  A    between atoms: C_16  and  S_18
REMARK    3  A    between atoms: S_18  and  C_19
REMARK                            x       y       z     vdW  Elec       q    Type
REMARK                         _______ _______ _______ _____ _____    ______ ____
ROOT
ATOM      1  C   UNL     1      46.050  30.720  45.144  0.00  0.00    +0.000 A 
ATOM      2  N   UNL     1      45.990  30.575  43.825  0.00  0.00    +0.000 NA
ATOM      3  O   UNL     1      45.277  29.524  43.487  0.00  0.00    +0.000 OA
ATOM      4  C   UNL     1      44.863  28.971  44.617  0.00  0.00    +0.000 A 
ATOM      5  N   UNL     1      45.317  29.677  45.675  0.00  0.00    +0.000 NA
ENDROOT
BRANCH   1  17
ATOM      6  C   UNL     1      44.504  35.934  44.887  0.00  0.00    +0.000 A 
ATOM      7  C   UNL     1      45.125  35.967  43.580  0.00  0.00    +0.000 A 
ATOM      8  C   UNL     1      45.965  34.926  43.260  0.00  0.00    +0.000 A 
ATOM      9  N   UNL     1      46.159  33.938  44.184  0.00  0.00    +0.000 NA
ATOM     10  C   UNL     1      45.561  33.950  45.384  0.00  0.00    +0.000 A 
ATOM     11  N   UNL     1      44.751  34.926  45.730  0.00  0.00    +0.000 NA
ATOM     12  N   UNL     1      45.827  32.844  46.325  0.00  0.00    +0.000 N 
ATOM     13  C   UNL     1      45.170  32.837  47.615  0.00  0.00    +0.000 C 
ATOM     14  C   UNL     1      46.069  32.278  48.686  0.00  0.00    +0.000 C 
ATOM     15  C   UNL     1      47.484  32.257  48.221  0.00  0.00    +0.000 C 
ATOM     16  C   UNL     1      47.535  31.256  47.059  0.00  0.00    +0.000 C 
ATOM     17  C   UNL     1      46.757  31.774  45.925  0.00  0.00    +0.000 C 
ENDBRANCH   1  17
BRANCH   4  18
ATOM     18  S   UNL     1      43.851  27.498  44.602  0.00  0.00    +0.000 S 
BRANCH  18  19
ATOM     19  C   UNL     1      44.347  26.541  46.035  0.00  0.00    +0.000 A 
ATOM     20  N   UNL     1      45.305  25.758  46.573  0.00  0.00    +0.000 NA
ATOM     21  O   UNL     1      44.947  25.389  47.753  0.00  0.00    +0.000 OA
ATOM     22  C   UNL     1      43.773  25.872  48.084  0.00  0.00    +0.000 A 
ATOM     23  N   UNL     1      43.403  26.593  47.003  0.00  0.00    +0.000 NA
ATOM     24  N   UNL     1      43.048  25.683  49.306  0.00  0.00    +0.000 N 
ATOM     25  C   UNL     1      43.718  25.791  50.552  0.00  0.00    +0.000 C 
ATOM     26  N   UNL     1      44.930  25.373  50.672  0.00  0.00    +0.000 NA
ATOM     27  N   UNL     1      43.056  26.359  51.673  0.00  0.00    +0.000 N 
ATOM     28  H   UNL     1      45.449  24.950  49.876  0.00  0.00    +0.000 HD
ATOM     29  H   UNL     1      42.041  25.469  49.280  0.00  0.00    +0.000 HD
ATOM     30  H   UNL     1      43.546  26.436  52.576  0.00  0.00    +0.000 HD
ATOM     31  H   UNL     1      42.086  26.694  51.583  0.00  0.00    +0.000 HD
ENDBRANCH  18  19
ENDBRANCH   4  18
TORSDOF 3
