REMARK  Name = 
REMARK  4 active torsions:
REMARK  status: ('A' for Active; 'I' for Inactive)
REMARK    1  A    between atoms: C_1  and  S_21
REMARK    2  A    between atoms: C_3  and  C_7
REMARK    3  A    between atoms: C_5  and  C_17
REMARK    4  A    between atoms: S_21  and  C_26
REMARK                            x       y       z     vdW  Elec       q    Type
REMARK                         _______ _______ _______ _____ _____    ______ ____
ROOT
ATOM      1  C   UNL     1      45.409  33.882  41.207  0.00  0.00    +0.000 A 
ATOM      2  C   UNL     1      45.127  33.695  42.562  0.00  0.00    +0.000 A 
ATOM      3  C   UNL     1      46.122  34.110  43.482  0.00  0.00    +0.000 A 
ATOM      4  N   UNL     1      47.248  34.646  42.951  0.00  0.00    +0.000 NA
ATOM      5  C   UNL     1      47.483  34.810  41.654  0.00  0.00    +0.000 A 
ATOM      6  N   UNL     1      46.554  34.423  40.793  0.00  0.00    +0.000 NA
ENDROOT
BRANCH   3   7
ATOM      7  C   UNL     1      45.741  33.879  44.858  0.00  0.00    +0.000 A 
ATOM      8  N   UNL     1      44.932  34.717  45.525  0.00  0.00    +0.000 NA
ATOM      9  C   UNL     1      44.547  34.554  46.794  0.00  0.00    +0.000 A 
ATOM     10  N   UNL     1      44.950  33.506  47.534  0.00  0.00    +0.000 NA
ATOM     11  C   UNL     1      45.772  32.594  46.960  0.00  0.00    +0.000 A 
ATOM     12  C   UNL     1      46.208  31.508  47.682  0.00  0.00    +0.000 A 
ATOM     13  C   UNL     1      47.046  30.569  47.116  0.00  0.00    +0.000 A 
ATOM     14  C   UNL     1      47.416  30.778  45.804  0.00  0.00    +0.000 A 
ATOM     15  C   UNL     1      46.958  31.878  45.113  0.00  0.00    +0.000 A 
ATOM     16  C   UNL     1      46.128  32.825  45.649  0.00  0.00    +0.000 A 
ENDBRANCH   3   7
BRANCH   5  17
ATOM     17  C   UNL     1      48.749  35.414  41.192  0.00  0.00    +0.000 C 
ATOM     18  F   UNL     1      48.703  35.520  39.792  0.00  0.00    +0.000 F 
ATOM     19  F   UNL     1      49.810  34.557  41.458  0.00  0.00    +0.000 F 
ATOM     20  F   UNL     1      49.052  36.623  41.766  0.00  0.00    +0.000 F 
ENDBRANCH   5  17
BRANCH   1  21
ATOM     21  S   UNL     1      44.162  33.364  39.992  0.00  0.00    +0.000 S 
BRANCH  21  26
ATOM     22  N   UNL     1      39.775  32.911  42.207  0.00  0.00    +0.000 N 
ATOM     23  C   UNL     1      40.463  31.762  42.218  0.00  0.00    +0.000 A 
ATOM     24  N   UNL     1      41.649  32.000  41.585  0.00  0.00    +0.000 NA
ATOM     25  C   UNL     1      41.636  33.278  41.216  0.00  0.00    +0.000 A 
ATOM     26  C   UNL     1      42.588  34.000  40.551  0.00  0.00    +0.000 A 
ATOM     27  N   UNL     1      42.399  35.309  40.254  0.00  0.00    +0.000 NA
ATOM     28  C   UNL     1      41.228  35.859  40.649  0.00  0.00    +0.000 A 
ATOM     29  N   UNL     1      40.275  35.167  41.305  0.00  0.00    +0.000 NA
ATOM     30  C   UNL     1      40.465  33.883  41.593  0.00  0.00    +0.000 A 
ATOM     31  H   UNL     1      38.838  33.032  42.617  0.00  0.00    +0.000 HD
ENDBRANCH  21  26
ENDBRANCH   1  21
TORSDOF 4
