REMARK  Name = 
REMARK  3 active torsions:
REMARK  status: ('A' for Active; 'I' for Inactive)
REMARK    1  A    between atoms: C_1  and  C_8
REMARK    2  A    between atoms: C_4  and  N_20
REMARK    3  A    between atoms: C_22  and  C_28
REMARK                            x       y       z     vdW  Elec       q    Type
REMARK                         _______ _______ _______ _____ _____    ______ ____
ROOT
ATOM      1  C   UNL     1      46.958  34.703  41.710  0.00  0.00    +0.000 A 
ATOM      2  C   UNL     1      48.258  35.129  41.483  0.00  0.00    +0.000 A 
ATOM      3  C   UNL     1      48.510  34.713  40.174  0.00  0.00    +0.000 A 
ATOM      4  C   UNL     1      47.361  34.071  39.698  0.00  0.00    +0.000 A 
ATOM      5  O   UNL     1      46.462  34.095  40.664  0.00  0.00    +0.000 OA
ENDROOT
BRANCH   1   8
ATOM      6  C   UNL     1      44.514  36.010  44.196  0.00  0.00    +0.000 A 
ATOM      7  C   UNL     1      45.250  35.880  42.968  0.00  0.00    +0.000 A 
ATOM      8  C   UNL     1      46.190  34.878  42.926  0.00  0.00    +0.000 A 
ATOM      9  N   UNL     1      46.364  34.090  44.022  0.00  0.00    +0.000 NA
ATOM     10  C   UNL     1      45.656  34.239  45.157  0.00  0.00    +0.000 A 
ATOM     11  N   UNL     1      44.718  35.215  45.243  0.00  0.00    +0.000 NA
ATOM     12  N   UNL     1      45.919  33.358  46.246  0.00  0.00    +0.000 N 
ATOM     13  C   UNL     1      46.919  32.474  46.065  0.00  0.00    +0.000 A 
ATOM     14  C   UNL     1      47.163  31.615  47.144  0.00  0.00    +0.000 A 
ATOM     15  C   UNL     1      46.387  31.724  48.295  0.00  0.00    +0.000 A 
ATOM     16  O   UNL     1      46.550  30.987  49.302  0.00  0.00    +0.000 OA
ATOM     17  N   UNL     1      45.391  32.644  48.405  0.00  0.00    +0.000 N 
ATOM     18  C   UNL     1      45.173  33.460  47.353  0.00  0.00    +0.000 A 
ATOM     19  O   UNL     1      44.247  34.304  47.478  0.00  0.00    +0.000 OA
ATOM     20  H   UNL     1      44.823  32.715  49.261  0.00  0.00    +0.000 HD
ENDBRANCH   1   8
BRANCH   4  21
ATOM     21  N   UNL     1      47.205  33.500  38.409  0.00  0.00    +0.000 N 
ATOM     22  C   UNL     1      46.359  32.465  38.270  0.00  0.00    +0.000 A 
ATOM     23  C   UNL     1      46.165  31.867  37.040  0.00  0.00    +0.000 A 
ATOM     24  C   UNL     1      46.865  32.360  35.951  0.00  0.00    +0.000 A 
ATOM     25  O   UNL     1      46.675  31.801  34.837  0.00  0.00    +0.000 OA
ATOM     26  N   UNL     1      47.692  33.391  36.152  0.00  0.00    +0.000 N 
ATOM     27  C   UNL     1      47.868  33.965  37.368  0.00  0.00    +0.000 A 
ATOM     28  O   UNL     1      48.666  34.933  37.474  0.00  0.00    +0.000 OA
ATOM     29  C   UNL     1      45.210  30.734  36.983  0.00  0.00    +0.000 C 
ATOM     30  H   UNL     1      48.218  33.765  35.349  0.00  0.00    +0.000 HD
ENDBRANCH   4  21
TORSDOF 2
