REMARK  Name = 
REMARK  4 active torsions:
REMARK  status: ('A' for Active; 'I' for Inactive)
REMARK    1  A    between atoms: C_1  and  C_11
REMARK    2  A    between atoms: C_5  and  C_19
REMARK    3  A    between atoms: C_7  and  C_15
REMARK    4  A    between atoms: C_19  and  C_20
REMARK                            x       y       z     vdW  Elec       q    Type
REMARK                         _______ _______ _______ _____ _____    ______ ____
ROOT
ATOM      1  C   UNL     1      46.080  33.103  38.822  0.00  0.00    +0.000 A 
ATOM      2  C   UNL     1      46.813  32.562  37.815  0.00  0.00    +0.000 A 
ATOM      3  C   UNL     1      46.193  31.849  36.790  0.00  0.00    +0.000 A 
ATOM      4  C   UNL     1      44.809  31.764  36.917  0.00  0.00    +0.000 A 
ATOM      5  C   UNL     1      44.031  32.299  37.921  0.00  0.00    +0.000 A 
ATOM      6  N   UNL     1      44.744  32.977  38.874  0.00  0.00    +0.000 NA
ENDROOT
BRANCH   1  11
ATOM      7  C   UNL     1      46.752  34.715  42.068  0.00  0.00    +0.000 A 
ATOM      8  C   UNL     1      47.999  35.291  41.938  0.00  0.00    +0.000 A 
ATOM      9  C   UNL     1      48.593  35.108  40.712  0.00  0.00    +0.000 A 
ATOM     10  C   UNL     1      47.982  34.394  39.681  0.00  0.00    +0.000 A 
ATOM     11  C   UNL     1      46.737  33.846  39.875  0.00  0.00    +0.000 A 
ATOM     12  N   UNL     1      46.157  34.028  41.084  0.00  0.00    +0.000 NA
BRANCH   7  15
ATOM     13  C   UNL     1      44.498  35.978  44.749  0.00  0.00    +0.000 A 
ATOM     14  C   UNL     1      45.175  35.880  43.530  0.00  0.00    +0.000 A 
ATOM     15  C   UNL     1      46.034  34.845  43.315  0.00  0.00    +0.000 A 
ATOM     16  N   UNL     1      46.179  33.948  44.337  0.00  0.00    +0.000 NA
ATOM     17  C   UNL     1      45.521  34.050  45.511  0.00  0.00    +0.000 A 
ATOM     18  N   UNL     1      44.682  35.062  45.719  0.00  0.00    +0.000 NA
ENDBRANCH   7  15
ENDBRANCH   1  11
BRANCH   5  19
ATOM     19  C   UNL     1      42.581  32.144  37.924  0.00  0.00    +0.000 C 
BRANCH  19  20
ATOM     20  C   UNL     1      41.888  32.370  39.185  0.00  0.00    +0.000 A 
ATOM     21  N   UNL     1      41.817  31.284  40.012  0.00  0.00    +0.000 NA
ATOM     22  C   UNL     1      41.231  31.344  41.231  0.00  0.00    +0.000 A 
ATOM     23  N   UNL     1      40.680  32.467  41.716  0.00  0.00    +0.000 NA
ATOM     24  C   UNL     1      40.723  33.565  40.942  0.00  0.00    +0.000 A 
ATOM     25  C   UNL     1      40.182  34.774  41.325  0.00  0.00    +0.000 A 
ATOM     26  C   UNL     1      40.220  35.911  40.514  0.00  0.00    +0.000 A 
ATOM     27  C   UNL     1      40.820  35.799  39.295  0.00  0.00    +0.000 A 
ATOM     28  C   UNL     1      41.389  34.608  38.839  0.00  0.00    +0.000 A 
ATOM     29  C   UNL     1      41.322  33.523  39.681  0.00  0.00    +0.000 A 
ENDBRANCH  19  20
ENDBRANCH   5  19
TORSDOF 4
