REMARK  Name = 
REMARK  4 active torsions:
REMARK  status: ('A' for Active; 'I' for Inactive)
REMARK    1  A    between atoms: C_1  and  C_3
REMARK    2  A    between atoms: C_1  and  C_23
REMARK    3  A    between atoms: C_8  and  C_9
REMARK    4  A    between atoms: C_21  and  N_25
REMARK                            x       y       z     vdW  Elec       q    Type
REMARK                         _______ _______ _______ _____ _____    ______ ____
ROOT
ATOM      1  C   UNL     1      45.614  32.870  47.041  0.00  0.00    +0.000 C 
ATOM      2  O   UNL     1      44.715  32.883  47.926  0.00  0.00    +0.000 OA
ENDROOT
BRANCH   1   3
ATOM      3  C   UNL     1      46.652  31.892  47.288  0.00  0.00    +0.000 A 
ATOM      4  C   UNL     1      47.671  32.170  48.195  0.00  0.00    +0.000 A 
ATOM      5  C   UNL     1      48.675  31.218  48.410  0.00  0.00    +0.000 A 
ATOM      6  C   UNL     1      48.686  29.997  47.741  0.00  0.00    +0.000 A 
ATOM      7  C   UNL     1      47.649  29.748  46.839  0.00  0.00    +0.000 A 
ATOM      8  C   UNL     1      46.659  30.693  46.633  0.00  0.00    +0.000 A 
BRANCH   8   9
ATOM      9  C   UNL     1      45.740  30.075  45.693  0.00  0.00    +0.000 A 
ATOM     10  C   UNL     1      45.407  30.308  44.379  0.00  0.00    +0.000 A 
ATOM     11  C   UNL     1      44.518  29.473  43.747  0.00  0.00    +0.000 A 
ATOM     12  C   UNL     1      43.908  28.386  44.332  0.00  0.00    +0.000 A 
ATOM     13  C   UNL     1      44.233  28.144  45.646  0.00  0.00    +0.000 A 
ATOM     14  C   UNL     1      43.608  27.050  46.203  0.00  0.00    +0.000 A 
ATOM     15  C   UNL     1      43.878  26.737  47.515  0.00  0.00    +0.000 A 
ATOM     16  C   UNL     1      44.749  27.493  48.256  0.00  0.00    +0.000 A 
ATOM     17  C   UNL     1      45.333  28.568  47.627  0.00  0.00    +0.000 A 
ATOM     18  C   UNL     1      45.133  28.975  46.311  0.00  0.00    +0.000 A 
ENDBRANCH   8   9
ENDBRANCH   1   3
BRANCH   1  23
ATOM     19  C   UNL     1      44.579  35.639  44.885  0.00  0.00    +0.000 A 
ATOM     20  C   UNL     1      45.414  35.526  43.749  0.00  0.00    +0.000 A 
ATOM     21  C   UNL     1      46.338  34.466  43.762  0.00  0.00    +0.000 A 
ATOM     22  N   UNL     1      46.334  33.671  44.848  0.00  0.00    +0.000 NA
ATOM     23  C   UNL     1      45.541  33.788  45.912  0.00  0.00    +0.000 A 
ATOM     24  N   UNL     1      44.656  34.780  45.932  0.00  0.00    +0.000 NA
BRANCH  21  25
ATOM     25  N   UNL     1      47.182  34.324  42.637  0.00  0.00    +0.000 N 
ATOM     26  C   UNL     1      48.509  34.547  42.623  0.00  0.00    +0.000 A 
ATOM     27  N   UNL     1      49.026  34.317  41.375  0.00  0.00    +0.000 NA
ATOM     28  C   UNL     1      47.955  33.938  40.613  0.00  0.00    +0.000 A 
ATOM     29  C   UNL     1      47.908  33.590  39.286  0.00  0.00    +0.000 A 
ATOM     30  N   UNL     1      46.692  33.255  38.794  0.00  0.00    +0.000 NA
ATOM     31  C   UNL     1      45.597  33.265  39.566  0.00  0.00    +0.000 A 
ATOM     32  N   UNL     1      45.617  33.604  40.872  0.00  0.00    +0.000 NA
ATOM     33  C   UNL     1      46.811  33.944  41.404  0.00  0.00    +0.000 A 
ENDBRANCH  21  25
ENDBRANCH   1  23
TORSDOF 4
