REMARK  Name = 
REMARK  5 active torsions:
REMARK  status: ('A' for Active; 'I' for Inactive)
REMARK    1  A    between atoms: N_1  and  C_11
REMARK    2  A    between atoms: C_3  and  C_18
REMARK    3  A    between atoms: C_13  and  C_15
REMARK    4  A    between atoms: C_15  and  O_17
REMARK    5  A    between atoms: C_18  and  N_19
REMARK                            x       y       z     vdW  Elec       q    Type
REMARK                         _______ _______ _______ _____ _____    ______ ____
ROOT
ATOM      1  N   UNL     1      45.193  33.857  41.599  0.00  0.00    +0.000 N 
ATOM      2  C   UNL     1      44.227  33.266  40.878  0.00  0.00    +0.000 A 
ATOM      3  C   UNL     1      44.356  32.983  39.549  0.00  0.00    +0.000 A 
ATOM      4  C   UNL     1      45.574  33.353  38.993  0.00  0.00    +0.000 A 
ATOM      5  O   UNL     1      45.789  33.128  37.754  0.00  0.00    +0.000 OA
ATOM      6  N   UNL     1      46.570  33.949  39.686  0.00  0.00    +0.000 N 
ATOM      7  C   UNL     1      46.359  34.198  41.016  0.00  0.00    +0.000 A 
ATOM      8  O   UNL     1      47.318  34.751  41.600  0.00  0.00    +0.000 OA
ATOM      9  H   UNL     1      47.457  34.207  39.230  0.00  0.00    +0.000 HD
ENDROOT
BRANCH   1  12
ATOM     10  C   UNL     1      44.460  35.789  44.658  0.00  0.00    +0.000 A 
ATOM     11  C   UNL     1      44.523  35.422  43.283  0.00  0.00    +0.000 A 
ATOM     12  C   UNL     1      45.148  34.187  42.969  0.00  0.00    +0.000 A 
ATOM     13  N   UNL     1      45.627  33.461  43.988  0.00  0.00    +0.000 NA
ATOM     14  C   UNL     1      45.557  33.822  45.261  0.00  0.00    +0.000 A 
ATOM     15  N   UNL     1      44.976  34.983  45.609  0.00  0.00    +0.000 NA
BRANCH  14  16
ATOM     16  C   UNL     1      46.107  32.966  46.301  0.00  0.00    +0.000 C 
ATOM     17  O   UNL     1      45.720  31.774  46.445  0.00  0.00    +0.000 OA
BRANCH  16  18
ATOM     18  O   UNL     1      47.078  33.392  47.192  0.00  0.00    +0.000 OA
ATOM     19  H   UNL     1      47.422  32.772  47.883  0.00  0.00    +0.000 HD
ENDBRANCH  16  18
ENDBRANCH  14  16
ENDBRANCH   1  12
BRANCH   3  20
ATOM     20  C   UNL     1      43.313  32.350  38.760  0.00  0.00    +0.000 C 
BRANCH  20  21
ATOM     21  N   UNL     1      42.674  31.290  39.512  0.00  0.00    +0.000 N 
ATOM     22  C   UNL     1      41.424  31.592  40.116  0.00  0.00    +0.000 A 
ATOM     23  N   UNL     1      41.020  30.997  41.251  0.00  0.00    +0.000 NA
ATOM     24  C   UNL     1      39.845  31.258  41.850  0.00  0.00    +0.000 A 
ATOM     25  N   UNL     1      38.984  32.143  41.346  0.00  0.00    +0.000 NA
ATOM     26  C   UNL     1      39.306  32.782  40.217  0.00  0.00    +0.000 A 
ATOM     27  C   UNL     1      38.435  33.705  39.669  0.00  0.00    +0.000 A 
ATOM     28  C   UNL     1      38.742  34.383  38.498  0.00  0.00    +0.000 A 
ATOM     29  C   UNL     1      39.950  34.099  37.903  0.00  0.00    +0.000 A 
ATOM     30  C   UNL     1      40.805  33.175  38.467  0.00  0.00    +0.000 A 
ATOM     31  C   UNL     1      40.518  32.501  39.615  0.00  0.00    +0.000 A 
ATOM     32  H   UNL     1      43.106  30.360  39.605  0.00  0.00    +0.000 HD
ENDBRANCH  20  21
ENDBRANCH   3  20
TORSDOF 5
