REMARK  Name = 
REMARK  3 active torsions:
REMARK  status: ('A' for Active; 'I' for Inactive)
REMARK    1  A    between atoms: C_1  and  C_8
REMARK    2  A    between atoms: C_4  and  N_17
REMARK    3  A    between atoms: C_19  and  C_25
REMARK                            x       y       z     vdW  Elec       q    Type
REMARK                         _______ _______ _______ _____ _____    ______ ____
ROOT
ATOM      1  C   UNL     1      46.958  34.732  41.805  0.00  0.00    +0.000 A 
ATOM      2  C   UNL     1      48.260  35.172  41.576  0.00  0.00    +0.000 A 
ATOM      3  C   UNL     1      48.508  34.762  40.268  0.00  0.00    +0.000 A 
ATOM      4  C   UNL     1      47.368  34.112  39.790  0.00  0.00    +0.000 A 
ATOM      5  O   UNL     1      46.463  34.121  40.758  0.00  0.00    +0.000 OA
ENDROOT
BRANCH   1   8
ATOM      6  C   UNL     1      44.540  36.045  44.306  0.00  0.00    +0.000 A 
ATOM      7  C   UNL     1      45.271  35.916  43.088  0.00  0.00    +0.000 A 
ATOM      8  C   UNL     1      46.193  34.898  43.028  0.00  0.00    +0.000 A 
ATOM      9  N   UNL     1      46.339  34.110  44.100  0.00  0.00    +0.000 NA
ATOM     10  C   UNL     1      45.634  34.247  45.252  0.00  0.00    +0.000 A 
ATOM     11  N   UNL     1      44.730  35.226  45.346  0.00  0.00    +0.000 NA
ATOM     12  N   UNL     1      45.872  33.350  46.333  0.00  0.00    +0.000 N 
ATOM     13  C   UNL     1      44.926  33.286  47.400  0.00  0.00    +0.000 C 
ATOM     14  N   UNL     1      44.218  34.338  47.574  0.00  0.00    +0.000 NA
ATOM     15  N   UNL     1      44.848  32.085  48.171  0.00  0.00    +0.000 N 
ATOM     16  H   UNL     1      43.508  34.371  48.329  0.00  0.00    +0.000 HD
ATOM     17  H   UNL     1      46.714  32.757  46.344  0.00  0.00    +0.000 HD
ATOM     18  H   UNL     1      44.174  32.014  48.946  0.00  0.00    +0.000 HD
ATOM     19  H   UNL     1      45.466  31.291  47.951  0.00  0.00    +0.000 HD
ENDBRANCH   1   8
BRANCH   4  20
ATOM     20  N   UNL     1      47.206  33.543  38.503  0.00  0.00    +0.000 N 
ATOM     21  C   UNL     1      46.359  32.516  38.358  0.00  0.00    +0.000 A 
ATOM     22  C   UNL     1      46.166  31.931  37.133  0.00  0.00    +0.000 A 
ATOM     23  C   UNL     1      46.865  32.422  36.040  0.00  0.00    +0.000 A 
ATOM     24  O   UNL     1      46.680  31.875  34.918  0.00  0.00    +0.000 OA
ATOM     25  N   UNL     1      47.712  33.463  36.233  0.00  0.00    +0.000 N 
ATOM     26  C   UNL     1      47.877  34.016  37.459  0.00  0.00    +0.000 A 
ATOM     27  O   UNL     1      48.675  34.979  37.576  0.00  0.00    +0.000 OA
ATOM     28  C   UNL     1      45.215  30.796  37.048  0.00  0.00    +0.000 C 
ATOM     29  H   UNL     1      48.240  33.840  35.433  0.00  0.00    +0.000 HD
ENDBRANCH   4  20
TORSDOF 2
