REMARK  Name = 
REMARK  4 active torsions:
REMARK  status: ('A' for Active; 'I' for Inactive)
REMARK    1  A    between atoms: C_1  and  C_8
REMARK    2  A    between atoms: C_4  and  N_22
REMARK    3  A    between atoms: C_16  and  N_21
REMARK    4  A    between atoms: C_24  and  C_30
REMARK                            x       y       z     vdW  Elec       q    Type
REMARK                         _______ _______ _______ _____ _____    ______ ____
ROOT
ATOM      1  C   UNL     1      44.461  36.227  44.179  0.00  0.00    +0.000 A 
ATOM      2  C   UNL     1      45.227  36.062  42.981  0.00  0.00    +0.000 A 
ATOM      3  C   UNL     1      46.087  34.989  42.948  0.00  0.00    +0.000 A 
ATOM      4  N   UNL     1      46.157  34.167  44.028  0.00  0.00    +0.000 NA
ATOM      5  C   UNL     1      45.417  34.357  45.141  0.00  0.00    +0.000 A 
ATOM      6  N   UNL     1      44.567  35.388  45.218  0.00  0.00    +0.000 NA
ATOM      7  N   UNL     1      45.612  33.404  46.180  0.00  0.00    +0.000 N 
ATOM      8  C   UNL     1      45.143  33.539  47.454  0.00  0.00    +0.000 A 
ATOM      9  N   UNL     1      45.499  32.462  48.192  0.00  0.00    +0.000 NA
ATOM     10  C   UNL     1      46.188  31.669  47.365  0.00  0.00    +0.000 A 
ATOM     11  C   UNL     1      46.806  30.432  47.534  0.00  0.00    +0.000 A 
ATOM     12  N   UNL     1      47.457  29.814  46.519  0.00  0.00    +0.000 NA
ATOM     13  C   UNL     1      47.505  30.420  45.300  0.00  0.00    +0.000 A 
ATOM     14  N   UNL     1      46.913  31.631  45.092  0.00  0.00    +0.000 NA
ATOM     15  C   UNL     1      46.273  32.234  46.098  0.00  0.00    +0.000 A 
ENDROOT
BRANCH   3  16
ATOM     16  C   UNL     1      46.887  34.779  41.751  0.00  0.00    +0.000 A 
ATOM     17  C   UNL     1      48.212  35.178  41.575  0.00  0.00    +0.000 A 
ATOM     18  C   UNL     1      48.500  34.746  40.283  0.00  0.00    +0.000 A 
ATOM     19  C   UNL     1      47.356  34.128  39.771  0.00  0.00    +0.000 A 
ATOM     20  O   UNL     1      46.415  34.179  40.705  0.00  0.00    +0.000 OA
BRANCH  19  21
ATOM     21  N   UNL     1      47.236  33.552  38.480  0.00  0.00    +0.000 N 
ATOM     22  C   UNL     1      46.411  32.497  38.336  0.00  0.00    +0.000 A 
ATOM     23  C   UNL     1      46.251  31.889  37.102  0.00  0.00    +0.000 A 
ATOM     24  C   UNL     1      46.961  32.393  36.021  0.00  0.00    +0.000 A 
ATOM     25  O   UNL     1      46.804  31.827  34.908  0.00  0.00    +0.000 OA
ATOM     26  N   UNL     1      47.766  33.444  36.226  0.00  0.00    +0.000 N 
ATOM     27  C   UNL     1      47.907  34.025  37.445  0.00  0.00    +0.000 A 
ATOM     28  O   UNL     1      48.679  35.009  37.566  0.00  0.00    +0.000 OA
ATOM     29  C   UNL     1      45.319  30.736  37.041  0.00  0.00    +0.000 C 
ATOM     30  H   UNL     1      48.297  33.825  35.430  0.00  0.00    +0.000 HD
ENDBRANCH  19  21
ENDBRANCH   3  16
BRANCH  11  31
ATOM     31  N   UNL     1      46.719  29.847  48.844  0.00  0.00    +0.000 N 
ATOM     32  H   UNL     1      47.157  28.933  49.030  0.00  0.00    +0.000 HD
ATOM     33  H   UNL     1      46.219  30.341  49.597  0.00  0.00    +0.000 HD
ENDBRANCH  11  31
TORSDOF 3
