REMARK  Name = 
REMARK  5 active torsions:
REMARK  status: ('A' for Active; 'I' for Inactive)
REMARK    1  A    between atoms: C_3  and  N_26
REMARK    2  A    between atoms: C_5  and  C_7
REMARK    3  A    between atoms: N_11  and  C_21
REMARK    4  A    between atoms: C_16  and  N_25
REMARK    5  A    between atoms: C_28  and  C_34
REMARK                            x       y       z     vdW  Elec       q    Type
REMARK                         _______ _______ _______ _____ _____    ______ ____
ROOT
ATOM      1  C   UNL     1      46.394  32.224  44.483  0.00  0.00    +0.000 A 
ATOM      2  C   UNL     1      47.023  31.427  43.522  0.00  0.00    +0.000 A 
ATOM      3  N   UNL     1      47.646  30.388  44.117  0.00  0.00    +0.000 NA
ATOM      4  C   UNL     1      47.412  30.527  45.453  0.00  0.00    +0.000 A 
ATOM      5  N   UNL     1      46.656  31.637  45.669  0.00  0.00    +0.000 N 
ATOM      6  N   UNL     1      47.889  29.643  46.463  0.00  0.00    +0.000 N 
ATOM      7  C   UNL     1      48.650  30.037  47.526  0.00  0.00    +0.000 A 
ATOM      8  N   UNL     1      48.926  28.965  48.282  0.00  0.00    +0.000 NA
ATOM      9  C   UNL     1      48.369  27.864  47.750  0.00  0.00    +0.000 A 
ATOM     10  C   UNL     1      48.305  26.522  48.061  0.00  0.00    +0.000 A 
ATOM     11  N   UNL     1      47.635  25.619  47.292  0.00  0.00    +0.000 NA
ATOM     12  C   UNL     1      47.014  26.106  46.178  0.00  0.00    +0.000 A 
ATOM     13  N   UNL     1      47.053  27.426  45.838  0.00  0.00    +0.000 NA
ATOM     14  C   UNL     1      47.728  28.312  46.618  0.00  0.00    +0.000 A 
ENDROOT
BRANCH   1  19
ATOM     15  C   UNL     1      44.941  35.559  45.009  0.00  0.00    +0.000 A 
ATOM     16  C   UNL     1      44.158  35.724  43.840  0.00  0.00    +0.000 A 
ATOM     17  C   UNL     1      44.152  34.697  42.918  0.00  0.00    +0.000 A 
ATOM     18  N   UNL     1      44.870  33.573  43.124  0.00  0.00    +0.000 NA
ATOM     19  C   UNL     1      45.625  33.426  44.259  0.00  0.00    +0.000 A 
ATOM     20  N   UNL     1      45.647  34.422  45.182  0.00  0.00    +0.000 NA
BRANCH  17  21
ATOM     21  N   UNL     1      43.357  34.888  41.755  0.00  0.00    +0.000 N 
ATOM     22  C   UNL     1      42.079  35.271  41.701  0.00  0.00    +0.000 A 
ATOM     23  C   UNL     1      41.453  35.410  40.482  0.00  0.00    +0.000 A 
ATOM     24  C   UNL     1      42.098  35.167  39.292  0.00  0.00    +0.000 A 
ATOM     25  O   UNL     1      41.534  35.291  38.186  0.00  0.00    +0.000 OA
ATOM     26  N   UNL     1      43.382  34.783  39.388  0.00  0.00    +0.000 N 
ATOM     27  C   UNL     1      43.999  34.647  40.595  0.00  0.00    +0.000 A 
ATOM     28  O   UNL     1      45.220  34.276  40.509  0.00  0.00    +0.000 OA
ATOM     29  C   UNL     1      40.042  35.833  40.433  0.00  0.00    +0.000 C 
ATOM     30  H   UNL     1      43.913  34.587  38.528  0.00  0.00    +0.000 HD
ENDBRANCH  17  21
ENDBRANCH   1  19
BRANCH   5  31
ATOM     31  C   UNL     1      46.193  32.132  46.945  0.00  0.00    +0.000 C 
ATOM     32  F   UNL     1      45.970  31.087  47.870  0.00  0.00    +0.000 F 
ATOM     33  F   UNL     1      45.008  32.864  46.840  0.00  0.00    +0.000 F 
ATOM     34  F   UNL     1      47.155  32.920  47.549  0.00  0.00    +0.000 F 
ENDBRANCH   5  31
BRANCH  10  35
ATOM     35  N   UNL     1      49.015  26.179  49.269  0.00  0.00    +0.000 N 
ATOM     36  H   UNL     1      49.033  25.203  49.596  0.00  0.00    +0.000 HD
ATOM     37  H   UNL     1      49.504  26.911  49.804  0.00  0.00    +0.000 HD
ENDBRANCH  10  35
TORSDOF 4
