REMARK  Name = 
REMARK  5 active torsions:
REMARK  status: ('A' for Active; 'I' for Inactive)
REMARK    1  A    between atoms: N_13  and  C_18
REMARK    2  A    between atoms: C_18  and  C_19
REMARK    3  A    between atoms: C_18  and  C_20
REMARK    4  A    between atoms: C_20  and  N_21
REMARK    5  A    between atoms: N_21  and  C_22
REMARK                            x       y       z     vdW  Elec       q    Type
REMARK                         _______ _______ _______ _____ _____    ______ ____
ROOT
ATOM      1  C   UNL     1      44.401  35.893  42.493  0.00  0.00    +0.000 A 
ATOM      2  C   UNL     1      43.702  35.624  41.294  0.00  0.00    +0.000 A 
ATOM      3  C   UNL     1      43.670  34.310  40.858  0.00  0.00    +0.000 A 
ATOM      4  N   UNL     1      44.297  33.332  41.575  0.00  0.00    +0.000 NA
ATOM      5  C   UNL     1      44.953  33.619  42.710  0.00  0.00    +0.000 A 
ATOM      6  N   UNL     1      45.008  34.899  43.172  0.00  0.00    +0.000 NA
ATOM      7  N   UNL     1      45.576  32.548  43.393  0.00  0.00    +0.000 N 
ATOM      8  C   UNL     1      46.136  31.466  42.764  0.00  0.00    +0.000 A 
ATOM      9  N   UNL     1      46.651  30.607  43.623  0.00  0.00    +0.000 NA
ATOM     10  C   UNL     1      46.440  31.109  44.882  0.00  0.00    +0.000 A 
ATOM     11  C   UNL     1      46.767  30.628  46.104  0.00  0.00    +0.000 A 
ATOM     12  O   UNL     1      47.369  29.540  46.215  0.00  0.00    +0.000 OA
ATOM     13  N   UNL     1      46.427  31.353  47.180  0.00  0.00    +0.000 N 
ATOM     14  C   UNL     1      45.776  32.526  47.004  0.00  0.00    +0.000 A 
ATOM     15  N   UNL     1      45.441  33.253  48.188  0.00  0.00    +0.000 N 
ATOM     16  N   UNL     1      45.431  33.039  45.775  0.00  0.00    +0.000 NA
ATOM     17  C   UNL     1      45.785  32.290  44.686  0.00  0.00    +0.000 A 
ATOM     18  H   UNL     1      44.945  34.153  48.117  0.00  0.00    +0.000 HD
ATOM     19  H   UNL     1      45.696  32.877  49.112  0.00  0.00    +0.000 HD
ENDROOT
BRANCH  13  20
ATOM     20  C   UNL     1      46.746  30.890  48.488  0.00  0.00    +0.000 C 
ATOM     21  C   UNL     1      45.508  30.873  49.359  0.00  0.00    +0.000 C 
BRANCH  20  22
ATOM     22  C   UNL     1      47.903  31.571  49.137  0.00  0.00    +0.000 C 
BRANCH  22  23
ATOM     23  N   UNL     1      48.678  30.604  49.888  0.00  0.00    +0.000 N 
ATOM     24  H   UNL     1      48.295  29.682  50.143  0.00  0.00    +0.000 HD
BRANCH  23  25
ATOM     25  C   UNL     1      49.975  30.989  50.249  0.00  0.00    +0.000 A 
ATOM     26  C   UNL     1      50.499  32.231  49.959  0.00  0.00    +0.000 A 
ATOM     27  C   UNL     1      51.760  32.679  50.281  0.00  0.00    +0.000 A 
ATOM     28  C   UNL     1      52.596  31.818  50.959  0.00  0.00    +0.000 A 
ATOM     29  C   UNL     1      52.150  30.559  51.286  0.00  0.00    +0.000 A 
ATOM     30  C   UNL     1      53.013  29.724  51.963  0.00  0.00    +0.000 A 
ATOM     31  C   UNL     1      52.603  28.456  52.309  0.00  0.00    +0.000 A 
ATOM     32  C   UNL     1      51.333  28.048  51.966  0.00  0.00    +0.000 A 
ATOM     33  C   UNL     1      50.512  28.914  51.294  0.00  0.00    +0.000 A 
ATOM     34  C   UNL     1      50.873  30.192  50.926  0.00  0.00    +0.000 A 
ENDBRANCH  23  25
ENDBRANCH  22  23
ENDBRANCH  20  22
ENDBRANCH  13  20
TORSDOF 4
