REMARK  Name = 
REMARK  2 active torsions:
REMARK  status: ('A' for Active; 'I' for Inactive)
REMARK    1  A    between atoms: C_1  and  C_20
REMARK    2  A    between atoms: C_16  and  C_24
REMARK                            x       y       z     vdW  Elec       q    Type
REMARK                         _______ _______ _______ _____ _____    ______ ____
ROOT
ATOM      1  C   UNL     1      46.079  33.184  38.856  0.00  0.00    +0.000 A 
ATOM      2  C   UNL     1      46.822  32.607  37.862  0.00  0.00    +0.000 A 
ATOM      3  C   UNL     1      46.210  31.912  36.831  0.00  0.00    +0.000 A 
ATOM      4  C   UNL     1      44.830  31.865  36.913  0.00  0.00    +0.000 A 
ATOM      5  C   UNL     1      44.046  32.440  37.908  0.00  0.00    +0.000 A 
ATOM      6  N   UNL     1      44.728  33.103  38.878  0.00  0.00    +0.000 NA
ATOM      7  N   UNL     1      42.633  32.329  37.890  0.00  0.00    +0.000 N 
ATOM      8  C   UNL     1      41.885  31.297  37.425  0.00  0.00    +0.000 A 
ATOM      9  N   UNL     1      40.580  31.584  37.592  0.00  0.00    +0.000 NA
ATOM     10  C   UNL     1      40.443  32.784  38.156  0.00  0.00    +0.000 A 
ATOM     11  C   UNL     1      39.329  33.512  38.524  0.00  0.00    +0.000 A 
ATOM     12  N   UNL     1      39.548  34.718  39.083  0.00  0.00    +0.000 NA
ATOM     13  C   UNL     1      40.798  35.172  39.264  0.00  0.00    +0.000 A 
ATOM     14  N   UNL     1      41.904  34.463  38.906  0.00  0.00    +0.000 NA
ATOM     15  C   UNL     1      41.739  33.235  38.336  0.00  0.00    +0.000 A 
ATOM     16  N   UNL     1      38.008  33.011  38.322  0.00  0.00    +0.000 N 
ATOM     17  H   UNL     1      37.194  33.575  38.606  0.00  0.00    +0.000 HD
ATOM     18  H   UNL     1      37.868  32.085  37.892  0.00  0.00    +0.000 HD
ENDROOT
BRANCH   1  23
ATOM     19  C   UNL     1      46.770  34.740  42.124  0.00  0.00    +0.000 A 
ATOM     20  C   UNL     1      48.024  35.281  42.014  0.00  0.00    +0.000 A 
ATOM     21  C   UNL     1      48.629  35.101  40.789  0.00  0.00    +0.000 A 
ATOM     22  C   UNL     1      48.008  34.417  39.739  0.00  0.00    +0.000 A 
ATOM     23  C   UNL     1      46.748  33.899  39.921  0.00  0.00    +0.000 A 
ATOM     24  N   UNL     1      46.176  34.086  41.122  0.00  0.00    +0.000 NA
BRANCH  19  27
ATOM     25  C   UNL     1      44.497  35.979  44.805  0.00  0.00    +0.000 A 
ATOM     26  C   UNL     1      45.174  35.916  43.569  0.00  0.00    +0.000 A 
ATOM     27  C   UNL     1      46.038  34.868  43.374  0.00  0.00    +0.000 A 
ATOM     28  N   UNL     1      46.193  33.946  44.387  0.00  0.00    +0.000 NA
ATOM     29  C   UNL     1      45.525  34.043  45.556  0.00  0.00    +0.000 A 
ATOM     30  N   UNL     1      44.681  35.052  45.767  0.00  0.00    +0.000 NA
ENDBRANCH  19  27
ENDBRANCH   1  23
TORSDOF 2
