REMARK  Name = 
REMARK  4 active torsions:
REMARK  status: ('A' for Active; 'I' for Inactive)
REMARK    1  A    between atoms: C_1  and  S_21
REMARK    2  A    between atoms: C_5  and  C_16
REMARK    3  A    between atoms: C_11  and  N_20
REMARK    4  A    between atoms: S_21  and  C_26
REMARK                            x       y       z     vdW  Elec       q    Type
REMARK                         _______ _______ _______ _____ _____    ______ ____
ROOT
ATOM      1  C   UNL     1      45.268  33.850  41.183  0.00  0.00    +0.000 A 
ATOM      2  C   UNL     1      44.949  33.589  42.518  0.00  0.00    +0.000 A 
ATOM      3  C   UNL     1      45.919  33.937  43.461  0.00  0.00    +0.000 A 
ATOM      4  N   UNL     1      47.083  34.492  43.023  0.00  0.00    +0.000 NA
ATOM      5  C   UNL     1      47.352  34.727  41.722  0.00  0.00    +0.000 A 
ATOM      6  N   UNL     1      46.433  34.401  40.800  0.00  0.00    +0.000 NA
ATOM      7  N   UNL     1      45.729  33.728  44.856  0.00  0.00    +0.000 N 
ATOM      8  C   UNL     1      44.976  34.540  45.625  0.00  0.00    +0.000 A 
ATOM      9  N   UNL     1      44.961  34.124  46.902  0.00  0.00    +0.000 NA
ATOM     10  C   UNL     1      45.730  33.006  46.957  0.00  0.00    +0.000 A 
ATOM     11  C   UNL     1      46.090  32.145  47.972  0.00  0.00    +0.000 A 
ATOM     12  N   UNL     1      46.890  31.089  47.727  0.00  0.00    +0.000 NA
ATOM     13  C   UNL     1      47.326  30.905  46.449  0.00  0.00    +0.000 A 
ATOM     14  N   UNL     1      47.008  31.716  45.403  0.00  0.00    +0.000 NA
ATOM     15  C   UNL     1      46.199  32.777  45.677  0.00  0.00    +0.000 A 
ENDROOT
BRANCH   5  16
ATOM     16  C   UNL     1      48.629  35.334  41.295  0.00  0.00    +0.000 C 
ATOM     17  F   UNL     1      48.634  35.475  39.920  0.00  0.00    +0.000 F 
ATOM     18  F   UNL     1      49.672  34.445  41.585  0.00  0.00    +0.000 F 
ATOM     19  F   UNL     1      48.931  36.504  41.959  0.00  0.00    +0.000 F 
ENDBRANCH   5  16
BRANCH  11  20
ATOM     20  N   UNL     1      45.613  32.366  49.313  0.00  0.00    +0.000 N 
ATOM     21  H   UNL     1      45.884  31.721  50.069  0.00  0.00    +0.000 HD
ATOM     22  H   UNL     1      45.001  33.169  49.516  0.00  0.00    +0.000 HD
ENDBRANCH  11  20
BRANCH   1  23
ATOM     23  S   UNL     1      44.046  33.421  39.904  0.00  0.00    +0.000 S 
BRANCH  23  28
ATOM     24  N   UNL     1      39.697  32.963  42.172  0.00  0.00    +0.000 N 
ATOM     25  C   UNL     1      40.406  31.825  42.213  0.00  0.00    +0.000 A 
ATOM     26  N   UNL     1      41.575  32.077  41.559  0.00  0.00    +0.000 NA
ATOM     27  C   UNL     1      41.535  33.344  41.150  0.00  0.00    +0.000 A 
ATOM     28  C   UNL     1      42.477  34.053  40.452  0.00  0.00    +0.000 A 
ATOM     29  N   UNL     1      42.253  35.343  40.125  0.00  0.00    +0.000 NA
ATOM     30  C   UNL     1      41.080  35.888  40.511  0.00  0.00    +0.000 A 
ATOM     31  N   UNL     1      40.153  35.206  41.192  0.00  0.00    +0.000 NA
ATOM     32  C   UNL     1      40.367  33.923  41.522  0.00  0.00    +0.000 A 
ATOM     33  H   UNL     1      38.761  33.083  42.586  0.00  0.00    +0.000 HD
ENDBRANCH  23  28
ENDBRANCH   1  23
TORSDOF 4
