REMARK  Name = 
REMARK  5 active torsions:
REMARK  status: ('A' for Active; 'I' for Inactive)
REMARK    1  A    between atoms: C_3  and  C_21
REMARK    2  A    between atoms: C_5  and  C_7
REMARK    3  A    between atoms: C_21  and  C_22
REMARK    4  A    between atoms: C_22  and  C_23
REMARK    5  A    between atoms: C_27  and  C_29
REMARK                            x       y       z     vdW  Elec       q    Type
REMARK                         _______ _______ _______ _____ _____    ______ ____
ROOT
ATOM      1  C   UNL     1      44.618  35.640  44.828  0.00  0.00    +0.000 A 
ATOM      2  C   UNL     1      45.415  35.367  43.702  0.00  0.00    +0.000 A 
ATOM      3  C   UNL     1      46.277  34.320  43.662  0.00  0.00    +0.000 A 
ATOM      4  N   UNL     1      46.362  33.522  44.746  0.00  0.00    +0.000 NA
ATOM      5  C   UNL     1      45.575  33.801  45.845  0.00  0.00    +0.000 A 
ATOM      6  N   UNL     1      44.744  34.810  45.888  0.00  0.00    +0.000 NA
ENDROOT
BRANCH   5   7
ATOM      7  C   UNL     1      45.823  32.801  46.931  0.00  0.00    +0.000 A 
ATOM      8  C   UNL     1      45.061  32.604  48.172  0.00  0.00    +0.000 A 
ATOM      9  S   UNL     1      46.033  31.233  48.864  0.00  0.00    +0.000 S 
ATOM     10  C   UNL     1      47.252  31.169  47.410  0.00  0.00    +0.000 A 
ATOM     11  N   UNL     1      46.871  32.121  46.557  0.00  0.00    +0.000 NA
ATOM     12  N   UNL     1      48.254  30.166  47.548  0.00  0.00    +0.000 N 
ATOM     13  C   UNL     1      48.578  29.198  46.676  0.00  0.00    +0.000 A 
ATOM     14  N   UNL     1      49.582  28.461  47.196  0.00  0.00    +0.000 NA
ATOM     15  C   UNL     1      49.887  28.972  48.395  0.00  0.00    +0.000 A 
ATOM     16  C   UNL     1      50.799  28.664  49.382  0.00  0.00    +0.000 A 
ATOM     17  N   UNL     1      50.882  29.367  50.509  0.00  0.00    +0.000 NA
ATOM     18  C   UNL     1      50.068  30.433  50.753  0.00  0.00    +0.000 A 
ATOM     19  N   UNL     1      49.161  30.753  49.795  0.00  0.00    +0.000 NA
ATOM     20  C   UNL     1      49.050  30.060  48.638  0.00  0.00    +0.000 A 
ENDBRANCH   5   7
BRANCH   3  21
ATOM     21  C   UNL     1      47.089  34.070  42.476  0.00  0.00    +0.000 C 
BRANCH  21  22
ATOM     22  C   UNL     1      46.625  34.687  41.209  0.00  0.00    +0.000 C 
BRANCH  22  23
ATOM     23  C   UNL     1      45.630  33.767  40.583  0.00  0.00    +0.000 A 
ATOM     24  C   UNL     1      45.802  32.401  40.530  0.00  0.00    +0.000 A 
ATOM     25  C   UNL     1      44.957  31.486  39.985  0.00  0.00    +0.000 A 
ATOM     26  N   UNL     1      43.826  32.021  39.441  0.00  0.00    +0.000 NA
ATOM     27  C   UNL     1      43.616  33.353  39.471  0.00  0.00    +0.000 A 
ATOM     28  N   UNL     1      44.478  34.245  40.022  0.00  0.00    +0.000 NA
BRANCH  27  29
ATOM     29  C   UNL     1      42.387  33.843  38.871  0.00  0.00    +0.000 A 
ATOM     30  C   UNL     1      42.270  35.196  38.513  0.00  0.00    +0.000 A 
ATOM     31  C   UNL     1      41.110  35.654  37.947  0.00  0.00    +0.000 A 
ATOM     32  N   UNL     1      40.079  34.829  37.729  0.00  0.00    +0.000 NA
ATOM     33  C   UNL     1      40.214  33.538  38.080  0.00  0.00    +0.000 A 
ATOM     34  N   UNL     1      41.348  33.027  38.647  0.00  0.00    +0.000 NA
ENDBRANCH  27  29
ENDBRANCH  22  23
ENDBRANCH  21  22
ENDBRANCH   3  21
TORSDOF 5
