REMARK  Name = 
REMARK  4 active torsions:
REMARK  status: ('A' for Active; 'I' for Inactive)
REMARK    1  A    between atoms: C_3  and  C_7
REMARK    2  A    between atoms: C_5  and  C_21
REMARK    3  A    between atoms: C_11  and  N_12
REMARK    4  A    between atoms: C_24  and  C_26
REMARK                            x       y       z     vdW  Elec       q    Type
REMARK                         _______ _______ _______ _____ _____    ______ ____
ROOT
ATOM      1  C   UNL     1      40.732  35.900  41.138  0.00  0.00    +0.000 A 
ATOM      2  C   UNL     1      40.228  35.350  39.950  0.00  0.00    +0.000 A 
ATOM      3  C   UNL     1      40.899  34.266  39.371  0.00  0.00    +0.000 A 
ATOM      4  N   UNL     1      41.992  33.797  39.975  0.00  0.00    +0.000 NA
ATOM      5  C   UNL     1      42.457  34.344  41.117  0.00  0.00    +0.000 A 
ATOM      6  N   UNL     1      41.835  35.389  41.701  0.00  0.00    +0.000 NA
ENDROOT
BRANCH   3   7
ATOM      7  C   UNL     1      40.399  33.664  38.136  0.00  0.00    +0.000 C 
ATOM      8  C   UNL     1      39.205  34.298  37.545  0.00  0.00    +0.000 C 
ATOM      9  C   UNL     1      38.010  33.560  38.120  0.00  0.00    +0.000 C 
ATOM     10  C   UNL     1      38.509  32.162  38.374  0.00  0.00    +0.000 C 
ATOM     11  C   UNL     1      39.999  32.228  38.195  0.00  0.00    +0.000 C 
BRANCH  11  12
ATOM     12  N   UNL     1      40.760  31.375  39.040  0.00  0.00    +0.000 N 
ATOM     13  C   UNL     1      41.770  30.650  38.472  0.00  0.00    +0.000 A 
ATOM     14  N   UNL     1      42.372  29.908  39.414  0.00  0.00    +0.000 NA
ATOM     15  C   UNL     1      41.805  30.104  40.606  0.00  0.00    +0.000 A 
ATOM     16  C   UNL     1      41.927  29.686  41.904  0.00  0.00    +0.000 A 
ATOM     17  N   UNL     1      41.088  30.169  42.863  0.00  0.00    +0.000 NA
ATOM     18  C   UNL     1      40.115  31.071  42.572  0.00  0.00    +0.000 A 
ATOM     19  N   UNL     1      40.012  31.464  41.313  0.00  0.00    +0.000 NA
ATOM     20  C   UNL     1      40.816  31.015  40.334  0.00  0.00    +0.000 A 
ENDBRANCH  11  12
ENDBRANCH   3   7
BRANCH   5  21
ATOM     21  C   UNL     1      43.665  33.837  41.798  0.00  0.00    +0.000 A 
ATOM     22  N   UNL     1      43.925  32.677  42.419  0.00  0.00    +0.000 NA
ATOM     23  O   UNL     1      45.149  32.669  42.882  0.00  0.00    +0.000 OA
ATOM     24  C   UNL     1      45.729  33.817  42.581  0.00  0.00    +0.000 A 
ATOM     25  N   UNL     1      44.800  34.550  41.903  0.00  0.00    +0.000 NA
BRANCH  24  26
ATOM     26  C   UNL     1      47.082  34.168  42.931  0.00  0.00    +0.000 C 
ATOM     27  O   UNL     1      47.713  33.628  43.807  0.00  0.00    +0.000 OA
ATOM     28  N   UNL     1      47.568  35.202  42.138  0.00  0.00    +0.000 N 
ATOM     29  C   UNL     1      48.972  35.430  42.305  0.00  0.00    +0.000 C 
ATOM     30  N   UNL     1      49.895  34.952  43.013  0.00  0.00    +0.000 NA
ATOM     31  N   UNL     1      49.723  36.401  41.580  0.00  0.00    +0.000 N 
ATOM     32  H   UNL     1      49.888  33.977  43.333  0.00  0.00    +0.000 HD
ATOM     33  H   UNL     1      46.977  35.749  41.495  0.00  0.00    +0.000 HD
ATOM     34  H   UNL     1      50.732  36.507  41.755  0.00  0.00    +0.000 HD
ATOM     35  H   UNL     1      49.256  36.996  40.881  0.00  0.00    +0.000 HD
ENDBRANCH  24  26
ENDBRANCH   5  21
TORSDOF 4
