REMARK  Name = 
REMARK  3 active torsions:
REMARK  status: ('A' for Active; 'I' for Inactive)
REMARK    1  A    between atoms: C_1  and  C_20
REMARK    2  A    between atoms: C_9  and  C_10
REMARK    3  A    between atoms: C_16  and  C_24
REMARK                            x       y       z     vdW  Elec       q    Type
REMARK                         _______ _______ _______ _____ _____    ______ ____
ROOT
ATOM      1  C   UNL     1      45.854  33.145  38.901  0.00  0.00    +0.000 A 
ATOM      2  C   UNL     1      46.552  32.542  37.885  0.00  0.00    +0.000 A 
ATOM      3  C   UNL     1      45.881  31.879  36.864  0.00  0.00    +0.000 A 
ATOM      4  C   UNL     1      44.488  31.906  37.002  0.00  0.00    +0.000 A 
ATOM      5  C   UNL     1      43.760  32.497  38.000  0.00  0.00    +0.000 A 
ATOM      6  N   UNL     1      44.500  33.119  38.951  0.00  0.00    +0.000 NA
ATOM      7  N   UNL     1      42.347  32.441  38.009  0.00  0.00    +0.000 N 
ATOM      8  C   UNL     1      41.541  33.452  38.369  0.00  0.00    +0.000 A 
ATOM      9  C   UNL     1      40.154  33.317  38.349  0.00  0.00    +0.000 A 
ATOM     10  C   UNL     1      39.291  34.466  38.759  0.00  0.00    +0.000 C 
ATOM     11  C   UNL     1      39.575  32.117  37.947  0.00  0.00    +0.000 A 
ATOM     12  O   UNL     1      38.329  31.957  37.916  0.00  0.00    +0.000 OA
ATOM     13  N   UNL     1      40.439  31.147  37.600  0.00  0.00    +0.000 N 
ATOM     14  C   UNL     1      41.785  31.282  37.620  0.00  0.00    +0.000 A 
ATOM     15  O   UNL     1      42.478  30.287  37.268  0.00  0.00    +0.000 OA
ATOM     16  H   UNL     1      40.051  30.242  37.299  0.00  0.00    +0.000 HD
ENDROOT
BRANCH   1  21
ATOM     17  C   UNL     1      46.659  34.668  42.158  0.00  0.00    +0.000 A 
ATOM     18  C   UNL     1      47.924  35.178  42.024  0.00  0.00    +0.000 A 
ATOM     19  C   UNL     1      48.498  34.986  40.787  0.00  0.00    +0.000 A 
ATOM     20  C   UNL     1      47.837  34.319  39.745  0.00  0.00    +0.000 A 
ATOM     21  C   UNL     1      46.568  33.834  39.953  0.00  0.00    +0.000 A 
ATOM     22  N   UNL     1      46.024  34.034  41.177  0.00  0.00    +0.000 NA
BRANCH  17  25
ATOM     23  C   UNL     1      44.463  35.967  44.878  0.00  0.00    +0.000 A 
ATOM     24  C   UNL     1      45.109  35.871  43.636  0.00  0.00    +0.000 A 
ATOM     25  C   UNL     1      45.962  34.816  43.428  0.00  0.00    +0.000 A 
ATOM     26  N   UNL     1      46.135  33.910  44.451  0.00  0.00    +0.000 NA
ATOM     27  C   UNL     1      45.494  34.034  45.636  0.00  0.00    +0.000 A 
ATOM     28  N   UNL     1      44.664  35.059  45.841  0.00  0.00    +0.000 NA
ENDBRANCH  17  25
ENDBRANCH   1  21
TORSDOF 2
