REMARK  Name = 
REMARK  4 active torsions:
REMARK  status: ('A' for Active; 'I' for Inactive)
REMARK    1  A    between atoms: C_1  and  C_21
REMARK    2  A    between atoms: N_5  and  C_32
REMARK    3  A    between atoms: C_19  and  N_23
REMARK    4  A    between atoms: C_25  and  C_31
REMARK                            x       y       z     vdW  Elec       q    Type
REMARK                         _______ _______ _______ _____ _____    ______ ____
ROOT
ATOM      1  C   UNL     1      46.332  32.203  44.540  0.00  0.00    +0.000 A 
ATOM      2  C   UNL     1      46.882  31.344  43.593  0.00  0.00    +0.000 A 
ATOM      3  N   UNL     1      47.511  30.321  44.211  0.00  0.00    +0.000 NA
ATOM      4  C   UNL     1      47.350  30.547  45.548  0.00  0.00    +0.000 A 
ATOM      5  N   UNL     1      46.635  31.688  45.749  0.00  0.00    +0.000 N 
ATOM      6  N   UNL     1      47.873  29.684  46.552  0.00  0.00    +0.000 N 
ATOM      7  C   UNL     1      48.446  30.179  47.670  0.00  0.00    +0.000 A 
ATOM      8  N   UNL     1      48.869  29.160  48.476  0.00  0.00    +0.000 NA
ATOM      9  C   UNL     1      48.556  28.006  47.856  0.00  0.00    +0.000 A 
ATOM     10  C   UNL     1      48.699  26.653  48.115  0.00  0.00    +0.000 A 
ATOM     11  O   UNL     1      49.252  26.313  49.183  0.00  0.00    +0.000 OA
ATOM     12  N   UNL     1      48.242  25.752  47.219  0.00  0.00    +0.000 N 
ATOM     13  C   UNL     1      47.643  26.091  46.062  0.00  0.00    +0.000 A 
ATOM     14  N   UNL     1      47.206  25.047  45.201  0.00  0.00    +0.000 N 
ATOM     15  N   UNL     1      47.502  27.416  45.806  0.00  0.00    +0.000 NA
ATOM     16  C   UNL     1      47.943  28.351  46.672  0.00  0.00    +0.000 A 
ATOM     17  H   UNL     1      48.358  24.751  47.432  0.00  0.00    +0.000 HD
ATOM     18  H   UNL     1      46.744  25.274  44.309  0.00  0.00    +0.000 HD
ATOM     19  H   UNL     1      47.351  24.063  45.470  0.00  0.00    +0.000 HD
ENDROOT
BRANCH   1  24
ATOM     20  C   UNL     1      44.929  35.574  44.992  0.00  0.00    +0.000 A 
ATOM     21  C   UNL     1      44.151  35.738  43.820  0.00  0.00    +0.000 A 
ATOM     22  C   UNL     1      44.134  34.696  42.920  0.00  0.00    +0.000 A 
ATOM     23  N   UNL     1      44.833  33.556  43.146  0.00  0.00    +0.000 NA
ATOM     24  C   UNL     1      45.580  33.414  44.286  0.00  0.00    +0.000 A 
ATOM     25  N   UNL     1      45.615  34.432  45.193  0.00  0.00    +0.000 NA
BRANCH  22  26
ATOM     26  N   UNL     1      43.347  34.872  41.741  0.00  0.00    +0.000 N 
ATOM     27  C   UNL     1      42.065  35.245  41.674  0.00  0.00    +0.000 A 
ATOM     28  C   UNL     1      41.443  35.371  40.452  0.00  0.00    +0.000 A 
ATOM     29  C   UNL     1      42.116  35.119  39.273  0.00  0.00    +0.000 A 
ATOM     30  O   UNL     1      41.556  35.232  38.160  0.00  0.00    +0.000 OA
ATOM     31  N   UNL     1      43.393  34.749  39.376  0.00  0.00    +0.000 N 
ATOM     32  C   UNL     1      44.004  34.626  40.590  0.00  0.00    +0.000 A 
ATOM     33  O   UNL     1      45.224  34.265  40.524  0.00  0.00    +0.000 OA
ATOM     34  C   UNL     1      40.030  35.784  40.400  0.00  0.00    +0.000 C 
ATOM     35  H   UNL     1      43.930  34.552  38.520  0.00  0.00    +0.000 HD
ENDBRANCH  22  26
ENDBRANCH   1  24
BRANCH   5  36
ATOM     36  C   UNL     1      46.250  32.274  47.020  0.00  0.00    +0.000 C 
ATOM     37  F   UNL     1      46.095  31.273  48.012  0.00  0.00    +0.000 F 
ATOM     38  F   UNL     1      45.061  32.984  46.935  0.00  0.00    +0.000 F 
ATOM     39  F   UNL     1      47.259  33.085  47.507  0.00  0.00    +0.000 F 
ENDBRANCH   5  36
TORSDOF 3
