REMARK  Name = 
REMARK  4 active torsions:
REMARK  status: ('A' for Active; 'I' for Inactive)
REMARK    1  A    between atoms: C_3  and  C_7
REMARK    2  A    between atoms: C_5  and  C_22
REMARK    3  A    between atoms: C_11  and  C_12
REMARK    4  A    between atoms: C_25  and  C_27
REMARK                            x       y       z     vdW  Elec       q    Type
REMARK                         _______ _______ _______ _____ _____    ______ ____
ROOT
ATOM      1  C   UNL     1      40.513  35.431  41.406  0.00  0.00    +0.000 A 
ATOM      2  C   UNL     1      40.123  35.062  40.110  0.00  0.00    +0.000 A 
ATOM      3  C   UNL     1      40.950  34.194  39.374  0.00  0.00    +0.000 A 
ATOM      4  N   UNL     1      42.091  33.740  39.923  0.00  0.00    +0.000 NA
ATOM      5  C   UNL     1      42.427  34.128  41.188  0.00  0.00    +0.000 A 
ATOM      6  N   UNL     1      41.648  34.964  41.923  0.00  0.00    +0.000 NA
ENDROOT
BRANCH   3   7
ATOM      7  C   UNL     1      40.564  33.786  38.026  0.00  0.00    +0.000 C 
ATOM      8  C   UNL     1      39.456  34.538  37.412  0.00  0.00    +0.000 C 
ATOM      9  C   UNL     1      38.183  33.784  37.766  0.00  0.00    +0.000 C 
ATOM     10  C   UNL     1      38.615  32.345  37.860  0.00  0.00    +0.000 C 
ATOM     11  C   UNL     1      40.117  32.369  37.868  0.00  0.00    +0.000 C 
BRANCH  11  12
ATOM     12  C   UNL     1      40.619  31.415  38.848  0.00  0.00    +0.000 A 
ATOM     13  C   UNL     1      41.884  30.875  38.873  0.00  0.00    +0.000 A 
ATOM     14  C   UNL     1      42.363  29.980  39.804  0.00  0.00    +0.000 A 
ATOM     15  C   UNL     1      41.529  29.558  40.826  0.00  0.00    +0.000 A 
ATOM     16  C   UNL     1      40.247  30.063  40.855  0.00  0.00    +0.000 A 
ATOM     17  C   UNL     1      39.455  29.609  41.888  0.00  0.00    +0.000 A 
ATOM     18  C   UNL     1      38.155  30.056  41.997  0.00  0.00    +0.000 A 
ATOM     19  C   UNL     1      37.678  30.952  41.061  0.00  0.00    +0.000 A 
ATOM     20  C   UNL     1      38.519  31.368  40.051  0.00  0.00    +0.000 A 
ATOM     21  C   UNL     1      39.826  30.956  39.895  0.00  0.00    +0.000 A 
ENDBRANCH  11  12
ENDBRANCH   3   7
BRANCH   5  22
ATOM     22  C   UNL     1      43.662  33.656  41.840  0.00  0.00    +0.000 A 
ATOM     23  N   UNL     1      43.976  32.490  42.431  0.00  0.00    +0.000 NA
ATOM     24  O   UNL     1      45.202  32.521  42.877  0.00  0.00    +0.000 OA
ATOM     25  C   UNL     1      45.732  33.697  42.599  0.00  0.00    +0.000 A 
ATOM     26  N   UNL     1      44.768  34.408  41.950  0.00  0.00    +0.000 NA
BRANCH  25  27
ATOM     27  C   UNL     1      47.076  34.084  42.946  0.00  0.00    +0.000 C 
ATOM     28  O   UNL     1      47.717  33.582  43.836  0.00  0.00    +0.000 OA
ATOM     29  N   UNL     1      47.542  35.108  42.126  0.00  0.00    +0.000 N 
ATOM     30  C   UNL     1      48.933  35.382  42.301  0.00  0.00    +0.000 C 
ATOM     31  N   UNL     1      49.867  34.942  43.025  0.00  0.00    +0.000 NA
ATOM     32  N   UNL     1      49.661  36.366  41.568  0.00  0.00    +0.000 N 
ATOM     33  H   UNL     1      49.886  33.970  43.354  0.00  0.00    +0.000 HD
ATOM     34  H   UNL     1      46.944  35.617  41.460  0.00  0.00    +0.000 HD
ATOM     35  H   UNL     1      50.665  36.506  41.751  0.00  0.00    +0.000 HD
ATOM     36  H   UNL     1      49.183  36.936  40.856  0.00  0.00    +0.000 HD
ENDBRANCH  25  27
ENDBRANCH   5  22
TORSDOF 4
