REMARK  Name = 
REMARK  5 active torsions:
REMARK  status: ('A' for Active; 'I' for Inactive)
REMARK    1  A    between atoms: C_1  and  C_11
REMARK    2  A    between atoms: C_5  and  C_19
REMARK    3  A    between atoms: C_7  and  C_15
REMARK    4  A    between atoms: C_19  and  N_20
REMARK    5  A    between atoms: C_24  and  N_29
REMARK                            x       y       z     vdW  Elec       q    Type
REMARK                         _______ _______ _______ _____ _____    ______ ____
ROOT
ATOM      1  C   UNL     1      46.297  32.991  38.777  0.00  0.00    +0.000 A 
ATOM      2  C   UNL     1      47.091  32.333  37.894  0.00  0.00    +0.000 A 
ATOM      3  C   UNL     1      46.542  31.534  36.887  0.00  0.00    +0.000 A 
ATOM      4  C   UNL     1      45.147  31.493  36.890  0.00  0.00    +0.000 A 
ATOM      5  C   UNL     1      44.315  32.153  37.777  0.00  0.00    +0.000 A 
ATOM      6  N   UNL     1      44.934  32.910  38.729  0.00  0.00    +0.000 NA
ENDROOT
BRANCH   1  11
ATOM      7  C   UNL     1      46.799  34.752  41.963  0.00  0.00    +0.000 A 
ATOM      8  C   UNL     1      48.018  35.396  41.838  0.00  0.00    +0.000 A 
ATOM      9  C   UNL     1      48.648  35.201  40.628  0.00  0.00    +0.000 A 
ATOM     10  C   UNL     1      48.096  34.413  39.613  0.00  0.00    +0.000 A 
ATOM     11  C   UNL     1      46.884  33.805  39.805  0.00  0.00    +0.000 A 
ATOM     12  N   UNL     1      46.283  34.009  40.997  0.00  0.00    +0.000 NA
BRANCH   7  15
ATOM     13  C   UNL     1      44.503  36.006  44.606  0.00  0.00    +0.000 A 
ATOM     14  C   UNL     1      45.196  35.930  43.381  0.00  0.00    +0.000 A 
ATOM     15  C   UNL     1      46.054  34.891  43.194  0.00  0.00    +0.000 A 
ATOM     16  N   UNL     1      46.181  33.987  44.224  0.00  0.00    +0.000 NA
ATOM     17  C   UNL     1      45.509  34.081  45.381  0.00  0.00    +0.000 A 
ATOM     18  N   UNL     1      44.668  35.095  45.570  0.00  0.00    +0.000 NA
ENDBRANCH   7  15
ENDBRANCH   1  11
BRANCH   5  19
ATOM     19  C   UNL     1      42.865  32.015  37.657  0.00  0.00    +0.000 C 
BRANCH  19  20
ATOM     20  N   UNL     1      42.120  32.629  38.713  0.00  0.00    +0.000 N 
ATOM     21  C   UNL     1      41.762  33.944  38.688  0.00  0.00    +0.000 A 
ATOM     22  N   UNL     1      41.070  34.256  39.804  0.00  0.00    +0.000 NA
ATOM     23  C   UNL     1      40.969  33.159  40.563  0.00  0.00    +0.000 A 
ATOM     24  C   UNL     1      40.404  32.810  41.787  0.00  0.00    +0.000 A 
ATOM     25  N   UNL     1      40.489  31.559  42.280  0.00  0.00    +0.000 NA
ATOM     26  C   UNL     1      41.136  30.609  41.582  0.00  0.00    +0.000 A 
ATOM     27  N   UNL     1      41.705  30.905  40.377  0.00  0.00    +0.000 NA
ATOM     28  C   UNL     1      41.624  32.162  39.873  0.00  0.00    +0.000 A 
BRANCH  24  29
ATOM     29  N   UNL     1      39.724  33.820  42.516  0.00  0.00    +0.000 N 
ATOM     30  H   UNL     1      39.294  33.598  43.425  0.00  0.00    +0.000 HD
ATOM     31  H   UNL     1      39.661  34.775  42.136  0.00  0.00    +0.000 HD
ENDBRANCH  24  29
ENDBRANCH  19  20
ENDBRANCH   5  19
TORSDOF 5
