REMARK  Name = 
REMARK  5 active torsions:
REMARK  status: ('A' for Active; 'I' for Inactive)
REMARK    1  A    between atoms: C_1  and  C_10
REMARK    2  A    between atoms: C_5  and  C_12
REMARK    3  A    between atoms: C_12  and  C_13
REMARK    4  A    between atoms: C_12  and  C_14
REMARK    5  A    between atoms: C_14  and  C_15
REMARK                            x       y       z     vdW  Elec       q    Type
REMARK                         _______ _______ _______ _____ _____    ______ ____
ROOT
ATOM      1  C   UNL     1      44.231  33.697  40.422  0.00  0.00    +0.000 C 
ATOM      2  C   UNL     1      44.313  33.210  38.985  0.00  0.00    +0.000 C 
ENDROOT
BRANCH   1   7
ATOM      3  C   UNL     1      46.005  34.962  41.720  0.00  0.00    +0.000 C 
ATOM      4  C   UNL     1      47.523  34.929  41.637  0.00  0.00    +0.000 C 
ATOM      5  C   UNL     1      47.855  34.488  40.247  0.00  0.00    +0.000 C 
ATOM      6  C   UNL     1      46.669  33.636  39.834  0.00  0.00    +0.000 C 
ATOM      7  C   UNL     1      45.644  33.730  40.978  0.00  0.00    +0.000 C 
BRANCH   3  12
ATOM      8  C   UNL     1      45.513  33.879  45.219  0.00  0.00    +0.000 A 
ATOM      9  C   UNL     1      44.771  34.938  45.763  0.00  0.00    +0.000 A 
ATOM     10  C   UNL     1      44.451  36.001  44.932  0.00  0.00    +0.000 A 
ATOM     11  N   UNL     1      44.887  35.912  43.673  0.00  0.00    +0.000 NA
ATOM     12  C   UNL     1      45.592  34.917  43.138  0.00  0.00    +0.000 A 
ATOM     13  N   UNL     1      45.899  33.895  43.938  0.00  0.00    +0.000 NA
ENDBRANCH   3  12
ENDBRANCH   1   7
BRANCH   1  14
ATOM     14  C   UNL     1      43.561  35.024  40.498  0.00  0.00    +0.000 C 
BRANCH  14  15
ATOM     15  C   UNL     1      42.294  35.002  39.678  0.00  0.00    +0.000 A 
ATOM     16  C   UNL     1      42.240  35.620  38.428  0.00  0.00    +0.000 A 
ATOM     17  C   UNL     1      41.175  35.659  37.580  0.00  0.00    +0.000 A 
ATOM     18  C   UNL     1      40.034  35.018  38.005  0.00  0.00    +0.000 A 
ATOM     19  C   UNL     1      40.019  34.387  39.231  0.00  0.00    +0.000 A 
ATOM     20  C   UNL     1      38.852  33.753  39.645  0.00  0.00    +0.000 A 
ATOM     21  C   UNL     1      38.809  33.121  40.868  0.00  0.00    +0.000 A 
ATOM     22  C   UNL     1      39.932  33.123  41.682  0.00  0.00    +0.000 A 
ATOM     23  C   UNL     1      41.094  33.756  41.270  0.00  0.00    +0.000 A 
ATOM     24  C   UNL     1      41.124  34.376  40.056  0.00  0.00    +0.000 A 
ENDBRANCH  14  15
ENDBRANCH   1  14
TORSDOF 4
