REMARK  Name = 
REMARK  4 active torsions:
REMARK  status: ('A' for Active; 'I' for Inactive)
REMARK    1  A    between atoms: C_1  and  C_8
REMARK    2  A    between atoms: C_4  and  N_21
REMARK    3  A    between atoms: C_14  and  C_15
REMARK    4  A    between atoms: C_23  and  C_29
REMARK                            x       y       z     vdW  Elec       q    Type
REMARK                         _______ _______ _______ _____ _____    ______ ____
ROOT
ATOM      1  C   UNL     1      44.544  36.053  44.137  0.00  0.00    +0.000 A 
ATOM      2  C   UNL     1      45.280  35.907  42.928  0.00  0.00    +0.000 A 
ATOM      3  C   UNL     1      46.197  34.884  42.887  0.00  0.00    +0.000 A 
ATOM      4  N   UNL     1      46.348  34.091  43.970  0.00  0.00    +0.000 NA
ATOM      5  C   UNL     1      45.622  34.263  45.117  0.00  0.00    +0.000 A 
ATOM      6  N   UNL     1      44.725  35.251  45.179  0.00  0.00    +0.000 NA
ATOM      7  N   UNL     1      45.809  33.402  46.247  0.00  0.00    +0.000 N 
ATOM      8  C   UNL     1      46.777  32.457  46.092  0.00  0.00    +0.000 A 
ATOM      9  C   UNL     1      46.952  31.629  47.187  0.00  0.00    +0.000 A 
ATOM     10  C   UNL     1      48.003  30.555  47.098  0.00  0.00    +0.000 C 
ATOM     11  C   UNL     1      46.243  31.692  48.381  0.00  0.00    +0.000 A 
ATOM     12  O   UNL     1      46.484  30.888  49.313  0.00  0.00    +0.000 OA
ATOM     13  N   UNL     1      45.318  32.665  48.409  0.00  0.00    +0.000 N 
ATOM     14  C   UNL     1      45.095  33.505  47.383  0.00  0.00    +0.000 A 
ATOM     15  O   UNL     1      44.222  34.409  47.434  0.00  0.00    +0.000 OA
ATOM     16  H   UNL     1      44.749  32.774  49.261  0.00  0.00    +0.000 HD
ENDROOT
BRANCH   3  17
ATOM     17  C   UNL     1      46.971  34.695  41.668  0.00  0.00    +0.000 A 
ATOM     18  C   UNL     1      48.273  35.110  41.447  0.00  0.00    +0.000 A 
ATOM     19  C   UNL     1      48.525  34.685  40.145  0.00  0.00    +0.000 A 
ATOM     20  C   UNL     1      47.395  34.053  39.663  0.00  0.00    +0.000 A 
ATOM     21  O   UNL     1      46.471  34.081  40.624  0.00  0.00    +0.000 OA
BRANCH  20  22
ATOM     22  N   UNL     1      47.224  33.471  38.378  0.00  0.00    +0.000 N 
ATOM     23  C   UNL     1      46.384  32.429  38.235  0.00  0.00    +0.000 A 
ATOM     24  C   UNL     1      46.194  31.840  37.005  0.00  0.00    +0.000 A 
ATOM     25  C   UNL     1      46.882  32.338  35.912  0.00  0.00    +0.000 A 
ATOM     26  O   UNL     1      46.682  31.775  34.805  0.00  0.00    +0.000 OA
ATOM     27  N   UNL     1      47.703  33.376  36.110  0.00  0.00    +0.000 N 
ATOM     28  C   UNL     1      47.881  33.946  37.331  0.00  0.00    +0.000 A 
ATOM     29  O   UNL     1      48.670  34.918  37.438  0.00  0.00    +0.000 OA
ATOM     30  C   UNL     1      45.234  30.694  36.967  0.00  0.00    +0.000 C 
ATOM     31  H   UNL     1      48.220  33.758  35.306  0.00  0.00    +0.000 HD
ENDBRANCH  20  22
ENDBRANCH   3  17
TORSDOF 2
