REMARK  Name = 
REMARK  3 active torsions:
REMARK  status: ('A' for Active; 'I' for Inactive)
REMARK    1  A    between atoms: C_3  and  N_16
REMARK    2  A    between atoms: C_9  and  C_10
REMARK    3  A    between atoms: C_18  and  C_24
REMARK                            x       y       z     vdW  Elec       q    Type
REMARK                         _______ _______ _______ _____ _____    ______ ____
ROOT
ATOM      1  C   UNL     1      44.580  36.049  44.028  0.00  0.00    +0.000 A 
ATOM      2  C   UNL     1      45.190  35.759  42.783  0.00  0.00    +0.000 A 
ATOM      3  C   UNL     1      46.034  34.621  42.700  0.00  0.00    +0.000 A 
ATOM      4  N   UNL     1      46.206  33.876  43.828  0.00  0.00    +0.000 NA
ATOM      5  C   UNL     1      45.612  34.180  44.989  0.00  0.00    +0.000 A 
ATOM      6  N   UNL     1      44.804  35.256  45.097  0.00  0.00    +0.000 NA
ATOM      7  N   UNL     1      45.860  33.328  46.123  0.00  0.00    +0.000 N 
ATOM      8  C   UNL     1      46.790  32.360  45.956  0.00  0.00    +0.000 A 
ATOM      9  C   UNL     1      47.040  31.530  47.037  0.00  0.00    +0.000 A 
ATOM     10  C   UNL     1      48.033  30.422  47.008  0.00  0.00    +0.000 C 
ATOM     11  C   UNL     1      46.306  31.786  48.177  0.00  0.00    +0.000 A 
ATOM     12  O   UNL     1      46.526  31.029  49.182  0.00  0.00    +0.000 OA
ATOM     13  N   UNL     1      45.379  32.743  48.357  0.00  0.00    +0.000 N 
ATOM     14  C   UNL     1      45.179  33.519  47.268  0.00  0.00    +0.000 A 
ATOM     15  O   UNL     1      44.320  34.458  47.334  0.00  0.00    +0.000 OA
ATOM     16  H   UNL     1      44.869  32.873  49.242  0.00  0.00    +0.000 HD
ENDROOT
BRANCH   3  17
ATOM     17  N   UNL     1      46.617  34.376  41.439  0.00  0.00    +0.000 N 
ATOM     18  C   UNL     1      46.066  33.693  40.423  0.00  0.00    +0.000 A 
ATOM     19  C   UNL     1      46.735  33.514  39.224  0.00  0.00    +0.000 A 
ATOM     20  C   UNL     1      47.989  34.084  39.157  0.00  0.00    +0.000 A 
ATOM     21  O   UNL     1      48.634  33.942  38.073  0.00  0.00    +0.000 OA
ATOM     22  N   UNL     1      48.554  34.775  40.172  0.00  0.00    +0.000 N 
ATOM     23  C   UNL     1      47.842  34.913  41.323  0.00  0.00    +0.000 A 
ATOM     24  O   UNL     1      48.435  35.566  42.220  0.00  0.00    +0.000 OA
ATOM     25  C   UNL     1      46.113  32.758  38.115  0.00  0.00    +0.000 C 
ATOM     26  H   UNL     1      49.494  35.184  40.077  0.00  0.00    +0.000 HD
ENDBRANCH   3  17
TORSDOF 1
