REMARK  Name = 
REMARK  3 active torsions:
REMARK  status: ('A' for Active; 'I' for Inactive)
REMARK    1  A    between atoms: C_1  and  S_19
REMARK    2  A    between atoms: C_5  and  C_15
REMARK    3  A    between atoms: S_19  and  C_24
REMARK                            x       y       z     vdW  Elec       q    Type
REMARK                         _______ _______ _______ _____ _____    ______ ____
ROOT
ATOM      1  C   UNL     1      45.391  33.857  41.154  0.00  0.00    +0.000 A 
ATOM      2  C   UNL     1      45.124  33.534  42.491  0.00  0.00    +0.000 A 
ATOM      3  C   UNL     1      46.112  33.867  43.426  0.00  0.00    +0.000 A 
ATOM      4  N   UNL     1      47.247  34.473  42.965  0.00  0.00    +0.000 NA
ATOM      5  C   UNL     1      47.470  34.769  41.671  0.00  0.00    +0.000 A 
ATOM      6  N   UNL     1      46.529  34.454  40.768  0.00  0.00    +0.000 NA
ATOM      7  N   UNL     1      45.941  33.582  44.809  0.00  0.00    +0.000 N 
ATOM      8  C   UNL     1      45.131  34.274  45.629  0.00  0.00    +0.000 A 
ATOM      9  C   UNL     1      44.979  33.982  46.969  0.00  0.00    +0.000 A 
ATOM     10  C   UNL     1      45.701  32.913  47.513  0.00  0.00    +0.000 A 
ATOM     11  N   UNL     1      45.504  32.662  48.891  0.00  0.00    +0.000 N 
ATOM     12  N   UNL     1      46.516  32.215  46.694  0.00  0.00    +0.000 NA
ATOM     13  C   UNL     1      46.594  32.582  45.391  0.00  0.00    +0.000 A 
ATOM     14  O   UNL     1      47.402  31.832  44.746  0.00  0.00    +0.000 OA
ATOM     15  H   UNL     1      46.006  31.889  49.351  0.00  0.00    +0.000 HD
ATOM     16  H   UNL     1      44.858  33.252  49.435  0.00  0.00    +0.000 HD
ENDROOT
BRANCH   5  17
ATOM     17  C   UNL     1      48.725  35.427  41.245  0.00  0.00    +0.000 C 
ATOM     18  F   UNL     1      48.716  35.545  39.857  0.00  0.00    +0.000 F 
ATOM     19  F   UNL     1      49.804  34.611  41.560  0.00  0.00    +0.000 F 
ATOM     20  F   UNL     1      48.944  36.643  41.854  0.00  0.00    +0.000 F 
ENDBRANCH   5  17
BRANCH   1  21
ATOM     21  S   UNL     1      44.152  33.454  39.902  0.00  0.00    +0.000 S 
BRANCH  21  26
ATOM     22  N   UNL     1      39.851  32.832  42.231  0.00  0.00    +0.000 N 
ATOM     23  C   UNL     1      40.575  31.706  42.192  0.00  0.00    +0.000 A 
ATOM     24  N   UNL     1      41.729  31.997  41.532  0.00  0.00    +0.000 NA
ATOM     25  C   UNL     1      41.659  33.277  41.198  0.00  0.00    +0.000 A 
ATOM     26  C   UNL     1      42.575  34.045  40.520  0.00  0.00    +0.000 A 
ATOM     27  N   UNL     1      42.340  35.353  40.262  0.00  0.00    +0.000 NA
ATOM     28  C   UNL     1      41.164  35.867  40.702  0.00  0.00    +0.000 A 
ATOM     29  N   UNL     1      40.256  35.123  41.370  0.00  0.00    +0.000 NA
ATOM     30  C   UNL     1      40.496  33.830  41.622  0.00  0.00    +0.000 A 
ATOM     31  H   UNL     1      38.923  32.917  42.671  0.00  0.00    +0.000 HD
ENDBRANCH  21  26
ENDBRANCH   1  21
TORSDOF 3
