REMARK  Name = 
REMARK  4 active torsions:
REMARK  status: ('A' for Active; 'I' for Inactive)
REMARK    1  A    between atoms: C_3  and  N_25
REMARK    2  A    between atoms: C_5  and  C_7
REMARK    3  A    between atoms: N_11  and  C_21
REMARK    4  A    between atoms: C_27  and  C_33
REMARK                            x       y       z     vdW  Elec       q    Type
REMARK                         _______ _______ _______ _____ _____    ______ ____
ROOT
ATOM      1  C   UNL     1      46.459  32.212  44.696  0.00  0.00    +0.000 A 
ATOM      2  C   UNL     1      47.076  31.428  43.732  0.00  0.00    +0.000 A 
ATOM      3  N   UNL     1      47.744  30.398  44.333  0.00  0.00    +0.000 NA
ATOM      4  C   UNL     1      47.524  30.567  45.679  0.00  0.00    +0.000 A 
ATOM      5  N   UNL     1      46.753  31.658  45.887  0.00  0.00    +0.000 N 
ATOM      6  N   UNL     1      48.069  29.677  46.646  0.00  0.00    +0.000 N 
ATOM      7  C   UNL     1      48.192  28.318  46.709  0.00  0.00    +0.000 A 
ATOM      8  N   UNL     1      48.802  28.012  47.887  0.00  0.00    +0.000 NA
ATOM      9  C   UNL     1      49.063  29.127  48.559  0.00  0.00    +0.000 A 
ATOM     10  C   UNL     1      49.658  29.378  49.782  0.00  0.00    +0.000 A 
ATOM     11  N   UNL     1      49.812  30.640  50.263  0.00  0.00    +0.000 NA
ATOM     12  C   UNL     1      49.354  31.658  49.485  0.00  0.00    +0.000 A 
ATOM     13  N   UNL     1      48.771  31.446  48.291  0.00  0.00    +0.000 NA
ATOM     14  C   UNL     1      48.602  30.192  47.781  0.00  0.00    +0.000 A 
ENDROOT
BRANCH   1  19
ATOM     15  C   UNL     1      44.855  35.475  45.241  0.00  0.00    +0.000 A 
ATOM     16  C   UNL     1      44.121  35.651  44.041  0.00  0.00    +0.000 A 
ATOM     17  C   UNL     1      44.200  34.658  43.096  0.00  0.00    +0.000 A 
ATOM     18  N   UNL     1      44.946  33.552  43.296  0.00  0.00    +0.000 NA
ATOM     19  C   UNL     1      45.659  33.392  44.472  0.00  0.00    +0.000 A 
ATOM     20  N   UNL     1      45.594  34.363  45.421  0.00  0.00    +0.000 NA
BRANCH  17  21
ATOM     21  N   UNL     1      43.458  34.854  41.899  0.00  0.00    +0.000 N 
ATOM     22  C   UNL     1      42.158  35.172  41.791  0.00  0.00    +0.000 A 
ATOM     23  C   UNL     1      41.586  35.326  40.546  0.00  0.00    +0.000 A 
ATOM     24  C   UNL     1      42.305  35.164  39.394  0.00  0.00    +0.000 A 
ATOM     25  O   UNL     1      41.795  35.302  38.251  0.00  0.00    +0.000 OA
ATOM     26  N   UNL     1      43.611  34.844  39.534  0.00  0.00    +0.000 N 
ATOM     27  C   UNL     1      44.171  34.693  40.761  0.00  0.00    +0.000 A 
ATOM     28  O   UNL     1      45.400  34.393  40.738  0.00  0.00    +0.000 OA
ATOM     29  C   UNL     1      40.160  35.675  40.441  0.00  0.00    +0.000 C 
ATOM     30  H   UNL     1      44.192  34.712  38.694  0.00  0.00    +0.000 HD
ENDBRANCH  17  21
ENDBRANCH   1  19
BRANCH   5  31
ATOM     31  C   UNL     1      46.308  32.161  47.162  0.00  0.00    +0.000 C 
ATOM     32  F   UNL     1      46.298  31.165  48.157  0.00  0.00    +0.000 F 
ATOM     33  F   UNL     1      45.024  32.711  47.095  0.00  0.00    +0.000 F 
ATOM     34  F   UNL     1      47.186  33.116  47.653  0.00  0.00    +0.000 F 
ENDBRANCH   5  31
TORSDOF 3
