REMARK  Name = 
REMARK  4 active torsions:
REMARK  status: ('A' for Active; 'I' for Inactive)
REMARK    1  A    between atoms: C_1  and  C_17
REMARK    2  A    between atoms: C_4  and  N_6
REMARK    3  A    between atoms: C_8  and  C_14
REMARK    4  A    between atoms: C_19  and  C_21
REMARK                            x       y       z     vdW  Elec       q    Type
REMARK                         _______ _______ _______ _____ _____    ______ ____
ROOT
ATOM      1  C   UNL     1      44.533  36.126  44.428  0.00  0.00    +0.000 A 
ATOM      2  C   UNL     1      45.258  36.019  43.196  0.00  0.00    +0.000 A 
ATOM      3  C   UNL     1      46.091  34.938  43.113  0.00  0.00    +0.000 A 
ATOM      4  N   UNL     1      46.145  34.111  44.158  0.00  0.00    +0.000 NA
ATOM      5  C   UNL     1      45.468  34.209  45.311  0.00  0.00    +0.000 A 
ATOM      6  N   UNL     1      44.652  35.249  45.420  0.00  0.00    +0.000 NA
ENDROOT
BRANCH   5   7
ATOM      7  C   UNL     1      45.790  33.113  46.218  0.00  0.00    +0.000 A 
ATOM      8  C   UNL     1      45.332  33.053  47.503  0.00  0.00    +0.000 A 
ATOM      9  C   UNL     1      45.621  32.031  48.378  0.00  0.00    +0.000 A 
ATOM     10  C   UNL     1      46.412  30.980  47.996  0.00  0.00    +0.000 A 
ATOM     11  C   UNL     1      46.899  30.992  46.709  0.00  0.00    +0.000 A 
ATOM     12  C   UNL     1      47.692  29.927  46.342  0.00  0.00    +0.000 A 
ATOM     13  C   UNL     1      48.218  29.866  45.074  0.00  0.00    +0.000 A 
ATOM     14  C   UNL     1      47.907  30.916  44.210  0.00  0.00    +0.000 A 
ATOM     15  C   UNL     1      47.115  31.951  44.622  0.00  0.00    +0.000 A 
ATOM     16  C   UNL     1      46.579  32.039  45.879  0.00  0.00    +0.000 A 
ENDBRANCH   5   7
BRANCH   3  17
ATOM     17  C   UNL     1      46.875  34.745  41.891  0.00  0.00    +0.000 A 
ATOM     18  C   UNL     1      48.195  35.151  41.691  0.00  0.00    +0.000 A 
ATOM     19  C   UNL     1      48.455  34.735  40.389  0.00  0.00    +0.000 A 
ATOM     20  C   UNL     1      47.323  34.125  39.894  0.00  0.00    +0.000 A 
ATOM     21  O   UNL     1      46.391  34.157  40.848  0.00  0.00    +0.000 OA
BRANCH  20  22
ATOM     22  N   UNL     1      47.159  33.557  38.598  0.00  0.00    +0.000 N 
ATOM     23  C   UNL     1      46.304  32.531  38.448  0.00  0.00    +0.000 A 
ATOM     24  C   UNL     1      46.116  31.957  37.208  0.00  0.00    +0.000 A 
ATOM     25  C   UNL     1      46.820  32.452  36.127  0.00  0.00    +0.000 A 
ATOM     26  O   UNL     1      46.630  31.910  35.010  0.00  0.00    +0.000 OA
ATOM     27  N   UNL     1      47.658  33.477  36.349  0.00  0.00    +0.000 N 
ATOM     28  C   UNL     1      47.832  34.029  37.564  0.00  0.00    +0.000 A 
ATOM     29  O   UNL     1      48.637  34.987  37.692  0.00  0.00    +0.000 OA
ATOM     30  C   UNL     1      45.150  30.824  37.124  0.00  0.00    +0.000 C 
ATOM     31  H   UNL     1      48.191  33.858  35.554  0.00  0.00    +0.000 HD
ENDBRANCH  20  22
ENDBRANCH   3  17
TORSDOF 3
