REMARK  Name = 
REMARK  2 active torsions:
REMARK  status: ('A' for Active; 'I' for Inactive)
REMARK    1  A    between atoms: C_1  and  C_13
REMARK    2  A    between atoms: C_15  and  C_17
REMARK                            x       y       z     vdW  Elec       q    Type
REMARK                         _______ _______ _______ _____ _____    ______ ____
ROOT
ATOM      1  C   UNL     1      44.410  35.962  44.861  0.00  0.00    +0.000 A 
ATOM      2  C   UNL     1      45.049  35.958  43.623  0.00  0.00    +0.000 A 
ATOM      3  C   UNL     1      45.982  35.001  43.265  0.00  0.00    +0.000 A 
ATOM      4  N   UNL     1      46.203  34.077  44.246  0.00  0.00    +0.000 NA
ATOM      5  C   UNL     1      45.604  34.063  45.433  0.00  0.00    +0.000 A 
ATOM      6  N   UNL     1      44.718  35.000  45.728  0.00  0.00    +0.000 NA
ENDROOT
BRANCH   3   7
ATOM      7  C   UNL     1      46.728  34.833  42.050  0.00  0.00    +0.000 A 
ATOM      8  C   UNL     1      47.983  35.415  41.974  0.00  0.00    +0.000 A 
ATOM      9  C   UNL     1      48.820  35.337  40.884  0.00  0.00    +0.000 A 
ATOM     10  C   UNL     1      48.397  34.638  39.791  0.00  0.00    +0.000 A 
ATOM     11  C   UNL     1      47.167  34.030  39.783  0.00  0.00    +0.000 A 
ATOM     12  C   UNL     1      46.737  33.326  38.683  0.00  0.00    +0.000 A 
ATOM     13  C   UNL     1      45.505  32.705  38.646  0.00  0.00    +0.000 A 
ATOM     14  C   UNL     1      44.726  32.834  39.783  0.00  0.00    +0.000 A 
ATOM     15  C   UNL     1      45.174  33.533  40.851  0.00  0.00    +0.000 A 
ATOM     16  C   UNL     1      46.388  34.152  40.905  0.00  0.00    +0.000 A 
ENDBRANCH   3   7
BRANCH   5  17
ATOM     17  C   UNL     1      45.927  33.015  46.402  0.00  0.00    +0.000 A 
ATOM     18  C   UNL     1      46.936  32.115  46.128  0.00  0.00    +0.000 A 
ATOM     19  C   UNL     1      47.219  31.125  47.076  0.00  0.00    +0.000 A 
ATOM     20  N   UNL     1      46.517  31.054  48.237  0.00  0.00    +0.000 NA
ATOM     21  C   UNL     1      45.539  31.949  48.473  0.00  0.00    +0.000 A 
ATOM     22  N   UNL     1      45.260  32.904  47.566  0.00  0.00    +0.000 NA
ENDBRANCH   5  17
TORSDOF 2
