REMARK  Name = 
REMARK  3 active torsions:
REMARK  status: ('A' for Active; 'I' for Inactive)
REMARK    1  A    between atoms: C_3  and  C_7
REMARK    2  A    between atoms: C_5  and  C_17
REMARK    3  A    between atoms: C_22  and  C_23
REMARK                            x       y       z     vdW  Elec       q    Type
REMARK                         _______ _______ _______ _____ _____    ______ ____
ROOT
ATOM      1  C   UNL     1      44.876  34.958  45.223  0.00  0.00    +0.000 A 
ATOM      2  C   UNL     1      45.457  35.268  44.002  0.00  0.00    +0.000 A 
ATOM      3  C   UNL     1      46.432  34.482  43.414  0.00  0.00    +0.000 A 
ATOM      4  N   UNL     1      46.759  33.380  44.152  0.00  0.00    +0.000 NA
ATOM      5  C   UNL     1      46.203  33.066  45.337  0.00  0.00    +0.000 A 
ATOM      6  N   UNL     1      45.280  33.855  45.846  0.00  0.00    +0.000 NA
ENDROOT
BRANCH   3   7
ATOM      7  C   UNL     1      47.144  34.659  42.168  0.00  0.00    +0.000 A 
ATOM      8  C   UNL     1      48.249  35.498  42.180  0.00  0.00    +0.000 A 
ATOM      9  C   UNL     1      49.024  35.758  41.082  0.00  0.00    +0.000 A 
ATOM     10  C   UNL     1      48.698  35.154  39.885  0.00  0.00    +0.000 A 
ATOM     11  C   UNL     1      47.608  34.304  39.802  0.00  0.00    +0.000 A 
ATOM     12  C   UNL     1      47.292  33.697  38.616  0.00  0.00    +0.000 A 
ATOM     13  C   UNL     1      46.217  32.833  38.507  0.00  0.00    +0.000 A 
ATOM     14  C   UNL     1      45.485  32.628  39.681  0.00  0.00    +0.000 A 
ATOM     15  C   UNL     1      45.835  33.252  40.830  0.00  0.00    +0.000 A 
ATOM     16  C   UNL     1      46.894  34.106  40.948  0.00  0.00    +0.000 A 
ENDBRANCH   3   7
BRANCH   5  17
ATOM     17  C   UNL     1      46.657  31.860  46.010  0.00  0.00    +0.000 A 
ATOM     18  C   UNL     1      47.544  31.009  45.370  0.00  0.00    +0.000 A 
ATOM     19  C   UNL     1      48.023  29.875  46.027  0.00  0.00    +0.000 A 
ATOM     20  C   UNL     1      47.570  29.661  47.321  0.00  0.00    +0.000 A 
ATOM     21  C   UNL     1      46.686  30.473  48.005  0.00  0.00    +0.000 A 
ATOM     22  C   UNL     1      46.254  31.583  47.282  0.00  0.00    +0.000 A 
BRANCH  22  23
ATOM     23  C   UNL     1      45.337  32.437  48.082  0.00  0.00    +0.000 C 
ATOM     24  F   UNL     1      45.904  32.910  49.253  0.00  0.00    +0.000 F 
ATOM     25  F   UNL     1      44.811  33.469  47.297  0.00  0.00    +0.000 F 
ATOM     26  F   UNL     1      44.205  31.759  48.516  0.00  0.00    +0.000 F 
ENDBRANCH  22  23
ENDBRANCH   5  17
TORSDOF 3
