REMARK  Name = 
REMARK  1 active torsions:
REMARK  status: ('A' for Active; 'I' for Inactive)
REMARK    1  A    between atoms: C_3  and  N_18
REMARK                            x       y       z     vdW  Elec       q    Type
REMARK                         _______ _______ _______ _____ _____    ______ ____
ROOT
ATOM      1  C   UNL     1      44.699  35.502  45.025  0.00  0.00    +0.000 A 
ATOM      2  C   UNL     1      44.189  35.481  43.712  0.00  0.00    +0.000 A 
ATOM      3  C   UNL     1      44.459  34.344  42.931  0.00  0.00    +0.000 A 
ATOM      4  N   UNL     1      45.188  33.330  43.467  0.00  0.00    +0.000 NA
ATOM      5  C   UNL     1      45.661  33.385  44.729  0.00  0.00    +0.000 A 
ATOM      6  N   UNL     1      45.425  34.460  45.514  0.00  0.00    +0.000 NA
ATOM      7  N   UNL     1      46.410  32.283  45.200  0.00  0.00    +0.000 N 
ATOM      8  C   UNL     1      47.295  31.526  44.534  0.00  0.00    +0.000 A 
ATOM      9  N   UNL     1      47.781  30.578  45.361  0.00  0.00    +0.000 NA
ATOM     10  C   UNL     1      47.196  30.733  46.578  0.00  0.00    +0.000 A 
ATOM     11  C   UNL     1      47.335  30.040  47.765  0.00  0.00    +0.000 A 
ATOM     12  O   UNL     1      48.123  29.049  47.881  0.00  0.00    +0.000 OA
ATOM     13  N   UNL     1      46.623  30.395  48.875  0.00  0.00    +0.000 N 
ATOM     14  C   UNL     1      45.808  31.447  48.695  0.00  0.00    +0.000 A 
ATOM     15  N   UNL     1      45.035  31.874  49.809  0.00  0.00    +0.000 N 
ATOM     16  N   UNL     1      45.634  32.157  47.565  0.00  0.00    +0.000 NA
ATOM     17  C   UNL     1      46.331  31.815  46.466  0.00  0.00    +0.000 A 
ATOM     18  H   UNL     1      46.704  29.898  49.774  0.00  0.00    +0.000 HD
ATOM     19  H   UNL     1      44.397  32.677  49.715  0.00  0.00    +0.000 HD
ATOM     20  H   UNL     1      45.113  31.381  50.710  0.00  0.00    +0.000 HD
ENDROOT
BRANCH   3  21
ATOM     21  N   UNL     1      43.943  34.332  41.614  0.00  0.00    +0.000 N 
ATOM     22  C   UNL     1      44.587  33.805  40.534  0.00  0.00    +0.000 A 
ATOM     23  N   UNL     1      43.828  33.951  39.407  0.00  0.00    +0.000 NA
ATOM     24  C   UNL     1      42.693  34.584  39.819  0.00  0.00    +0.000 A 
ATOM     25  C   UNL     1      41.586  34.981  39.103  0.00  0.00    +0.000 A 
ATOM     26  N   UNL     1      40.596  35.597  39.781  0.00  0.00    +0.000 NA
ATOM     27  C   UNL     1      40.686  35.819  41.122  0.00  0.00    +0.000 A 
ATOM     28  N   UNL     1      41.754  35.445  41.854  0.00  0.00    +0.000 NA
ATOM     29  C   UNL     1      42.767  34.823  41.204  0.00  0.00    +0.000 A 
ENDBRANCH   3  21
TORSDOF 1
