REMARK  Name = 
REMARK  4 active torsions:
REMARK  status: ('A' for Active; 'I' for Inactive)
REMARK    1  A    between atoms: C_1  and  S_21
REMARK    2  A    between atoms: C_3  and  C_7
REMARK    3  A    between atoms: C_5  and  C_17
REMARK    4  A    between atoms: S_21  and  C_26
REMARK                            x       y       z     vdW  Elec       q    Type
REMARK                         _______ _______ _______ _____ _____    ______ ____
ROOT
ATOM      1  C   UNL     1      45.207  33.764  41.018  0.00  0.00    +0.000 A 
ATOM      2  C   UNL     1      44.914  33.370  42.329  0.00  0.00    +0.000 A 
ATOM      3  C   UNL     1      45.876  33.618  43.308  0.00  0.00    +0.000 A 
ATOM      4  N   UNL     1      47.031  34.236  42.890  0.00  0.00    +0.000 NA
ATOM      5  C   UNL     1      47.286  34.603  41.633  0.00  0.00    +0.000 A 
ATOM      6  N   UNL     1      46.366  34.360  40.718  0.00  0.00    +0.000 NA
ENDROOT
BRANCH   3   7
ATOM      7  C   UNL     1      45.779  33.378  44.708  0.00  0.00    +0.000 A 
ATOM      8  C   UNL     1      45.060  34.314  45.459  0.00  0.00    +0.000 A 
ATOM      9  C   UNL     1      44.860  34.275  46.806  0.00  0.00    +0.000 A 
ATOM     10  C   UNL     1      45.393  33.243  47.546  0.00  0.00    +0.000 A 
ATOM     11  C   UNL     1      46.108  32.298  46.878  0.00  0.00    +0.000 A 
ATOM     12  C   UNL     1      46.687  31.268  47.584  0.00  0.00    +0.000 A 
ATOM     13  C   UNL     1      47.466  30.284  46.963  0.00  0.00    +0.000 A 
ATOM     14  C   UNL     1      47.630  30.396  45.582  0.00  0.00    +0.000 A 
ATOM     15  C   UNL     1      47.034  31.436  44.932  0.00  0.00    +0.000 A 
ATOM     16  C   UNL     1      46.272  32.398  45.519  0.00  0.00    +0.000 A 
ENDBRANCH   3   7
BRANCH   5  17
ATOM     17  C   UNL     1      48.566  35.264  41.285  0.00  0.00    +0.000 C 
ATOM     18  F   UNL     1      48.605  35.441  39.901  0.00  0.00    +0.000 F 
ATOM     19  F   UNL     1      49.629  34.407  41.596  0.00  0.00    +0.000 F 
ATOM     20  F   UNL     1      48.807  36.422  41.980  0.00  0.00    +0.000 F 
ENDBRANCH   5  17
BRANCH   1  21
ATOM     21  S   UNL     1      43.987  33.457  39.718  0.00  0.00    +0.000 S 
BRANCH  21  26
ATOM     22  N   UNL     1      39.747  32.933  42.178  0.00  0.00    +0.000 N 
ATOM     23  C   UNL     1      40.486  31.818  42.209  0.00  0.00    +0.000 A 
ATOM     24  N   UNL     1      41.618  32.084  41.503  0.00  0.00    +0.000 NA
ATOM     25  C   UNL     1      41.529  33.329  41.077  0.00  0.00    +0.000 A 
ATOM     26  C   UNL     1      42.416  34.066  40.324  0.00  0.00    +0.000 A 
ATOM     27  N   UNL     1      42.163  35.348  39.971  0.00  0.00    +0.000 NA
ATOM     28  C   UNL     1      40.981  35.876  40.400  0.00  0.00    +0.000 A 
ATOM     29  N   UNL     1      40.105  35.162  41.140  0.00  0.00    +0.000 NA
ATOM     30  C   UNL     1      40.367  33.898  41.480  0.00  0.00    +0.000 A 
ATOM     31  H   UNL     1      38.827  33.037  42.629  0.00  0.00    +0.000 HD
ENDBRANCH  21  26
ENDBRANCH   1  21
TORSDOF 4
