REMARK  Name = 
REMARK  6 active torsions:
REMARK  status: ('A' for Active; 'I' for Inactive)
REMARK    1  A    between atoms: C_1  and  S_22
REMARK    2  A    between atoms: C_3  and  C_11
REMARK    3  A    between atoms: C_5  and  C_7
REMARK    4  A    between atoms: C_11  and  C_12
REMARK    5  A    between atoms: C_12  and  N_13
REMARK    6  A    between atoms: S_22  and  C_27
REMARK                            x       y       z     vdW  Elec       q    Type
REMARK                         _______ _______ _______ _____ _____    ______ ____
ROOT
ATOM      1  C   UNL     1      44.967  34.007  40.802  0.00  0.00    +0.000 A 
ATOM      2  C   UNL     1      44.575  34.436  42.069  0.00  0.00    +0.000 A 
ATOM      3  C   UNL     1      45.554  35.068  42.834  0.00  0.00    +0.000 A 
ATOM      4  N   UNL     1      46.800  35.224  42.310  0.00  0.00    +0.000 NA
ATOM      5  C   UNL     1      47.136  34.793  41.077  0.00  0.00    +0.000 A 
ATOM      6  N   UNL     1      46.213  34.194  40.350  0.00  0.00    +0.000 NA
ENDROOT
BRANCH   5   7
ATOM      7  C   UNL     1      48.498  34.984  40.556  0.00  0.00    +0.000 C 
ATOM      8  F   UNL     1      48.464  34.919  39.157  0.00  0.00    +0.000 F 
ATOM      9  F   UNL     1      49.313  33.956  40.986  0.00  0.00    +0.000 F 
ATOM     10  F   UNL     1      49.102  36.161  40.993  0.00  0.00    +0.000 F 
ENDBRANCH   5   7
BRANCH   3  11
ATOM     11  C   UNL     1      45.294  35.573  44.182  0.00  0.00    +0.000 C 
BRANCH  11  12
ATOM     12  C   UNL     1      44.768  34.467  45.077  0.00  0.00    +0.000 C 
BRANCH  12  13
ATOM     13  N   UNL     1      45.801  33.513  45.386  0.00  0.00    +0.000 N 
ATOM     14  C   UNL     1      46.790  33.037  44.607  0.00  0.00    +0.000 A 
ATOM     15  N   UNL     1      47.503  32.166  45.345  0.00  0.00    +0.000 NA
ATOM     16  C   UNL     1      46.963  32.103  46.569  0.00  0.00    +0.000 A 
ATOM     17  C   UNL     1      47.392  31.328  47.634  0.00  0.00    +0.000 A 
ATOM     18  N   UNL     1      46.679  31.431  48.793  0.00  0.00    +0.000 NA
ATOM     19  C   UNL     1      45.604  32.272  48.843  0.00  0.00    +0.000 A 
ATOM     20  N   UNL     1      45.207  33.016  47.790  0.00  0.00    +0.000 NA
ATOM     21  C   UNL     1      45.890  32.946  46.611  0.00  0.00    +0.000 A 
ENDBRANCH  12  13
ENDBRANCH  11  12
ENDBRANCH   3  11
BRANCH   1  22
ATOM     22  S   UNL     1      43.747  33.177  39.751  0.00  0.00    +0.000 S 
BRANCH  22  27
ATOM     23  N   UNL     1      39.277  33.243  41.844  0.00  0.00    +0.000 N 
ATOM     24  C   UNL     1      39.959  32.112  42.138  0.00  0.00    +0.000 A 
ATOM     25  N   UNL     1      41.153  32.219  41.512  0.00  0.00    +0.000 NA
ATOM     26  C   UNL     1      41.159  33.384  40.871  0.00  0.00    +0.000 A 
ATOM     27  C   UNL     1      42.162  33.922  40.100  0.00  0.00    +0.000 A 
ATOM     28  N   UNL     1      42.001  35.132  39.514  0.00  0.00    +0.000 NA
ATOM     29  C   UNL     1      40.826  35.779  39.720  0.00  0.00    +0.000 A 
ATOM     30  N   UNL     1      39.837  35.244  40.483  0.00  0.00    +0.000 NA
ATOM     31  C   UNL     1      40.004  34.052  41.056  0.00  0.00    +0.000 A 
ATOM     32  H   UNL     1      38.327  33.455  42.180  0.00  0.00    +0.000 HD
ENDBRANCH  22  27
ENDBRANCH   1  22
TORSDOF 6
