REMARK  Name = 
REMARK  6 active torsions:
REMARK  status: ('A' for Active; 'I' for Inactive)
REMARK    1  A    between atoms: C_3  and  C_22
REMARK    2  A    between atoms: C_5  and  C_7
REMARK    3  A    between atoms: C_10  and  C_12
REMARK    4  A    between atoms: C_22  and  C_23
REMARK    5  A    between atoms: C_23  and  C_24
REMARK    6  A    between atoms: C_28  and  C_30
REMARK                            x       y       z     vdW  Elec       q    Type
REMARK                         _______ _______ _______ _____ _____    ______ ____
ROOT
ATOM      1  C   UNL     1      44.870  35.369  44.596  0.00  0.00    +0.000 A 
ATOM      2  C   UNL     1      45.811  35.072  43.594  0.00  0.00    +0.000 A 
ATOM      3  C   UNL     1      46.704  34.061  43.731  0.00  0.00    +0.000 A 
ATOM      4  N   UNL     1      46.673  33.331  44.863  0.00  0.00    +0.000 NA
ATOM      5  C   UNL     1      45.752  33.625  45.837  0.00  0.00    +0.000 A 
ATOM      6  N   UNL     1      44.877  34.616  45.704  0.00  0.00    +0.000 NA
ENDROOT
BRANCH   5   7
ATOM      7  C   UNL     1      45.877  32.709  47.011  0.00  0.00    +0.000 A 
ATOM      8  C   UNL     1      45.005  32.565  48.154  0.00  0.00    +0.000 A 
ATOM      9  S   UNL     1      45.939  31.287  49.048  0.00  0.00    +0.000 S 
ATOM     10  C   UNL     1      47.305  31.175  47.755  0.00  0.00    +0.000 A 
ATOM     11  N   UNL     1      46.970  32.047  46.823  0.00  0.00    +0.000 NA
BRANCH  10  12
ATOM     12  C   UNL     1      48.394  30.179  48.062  0.00  0.00    +0.000 A 
ATOM     13  C   UNL     1      48.302  28.916  47.550  0.00  0.00    +0.000 A 
ATOM     14  C   UNL     1      49.315  28.010  47.844  0.00  0.00    +0.000 A 
ATOM     15  C   UNL     1      50.400  28.340  48.627  0.00  0.00    +0.000 A 
ATOM     16  C   UNL     1      50.481  29.615  49.137  0.00  0.00    +0.000 A 
ATOM     17  C   UNL     1      51.531  30.031  49.930  0.00  0.00    +0.000 A 
ATOM     18  C   UNL     1      51.610  31.321  50.444  0.00  0.00    +0.000 A 
ATOM     19  C   UNL     1      50.557  32.182  50.110  0.00  0.00    +0.000 A 
ATOM     20  C   UNL     1      49.505  31.776  49.319  0.00  0.00    +0.000 A 
ATOM     21  C   UNL     1      49.471  30.494  48.835  0.00  0.00    +0.000 A 
ENDBRANCH  10  12
ENDBRANCH   5   7
BRANCH   3  22
ATOM     22  C   UNL     1      47.677  33.774  42.680  0.00  0.00    +0.000 C 
BRANCH  22  23
ATOM     23  C   UNL     1      47.913  34.846  41.680  0.00  0.00    +0.000 C 
BRANCH  23  24
ATOM     24  C   UNL     1      47.497  34.336  40.343  0.00  0.00    +0.000 A 
ATOM     25  C   UNL     1      48.326  34.384  39.250  0.00  0.00    +0.000 A 
ATOM     26  C   UNL     1      48.044  33.946  37.985  0.00  0.00    +0.000 A 
ATOM     27  N   UNL     1      46.786  33.409  37.841  0.00  0.00    +0.000 NA
ATOM     28  C   UNL     1      45.947  33.349  38.905  0.00  0.00    +0.000 A 
ATOM     29  N   UNL     1      46.258  33.791  40.143  0.00  0.00    +0.000 NA
BRANCH  28  30
ATOM     30  C   UNL     1      44.635  32.765  38.671  0.00  0.00    +0.000 A 
ATOM     31  C   UNL     1      43.602  32.988  39.573  0.00  0.00    +0.000 A 
ATOM     32  C   UNL     1      42.370  32.431  39.347  0.00  0.00    +0.000 A 
ATOM     33  N   UNL     1      42.141  31.678  38.272  0.00  0.00    +0.000 NA
ATOM     34  C   UNL     1      43.151  31.479  37.420  0.00  0.00    +0.000 A 
ATOM     35  N   UNL     1      44.399  32.002  37.586  0.00  0.00    +0.000 NA
ENDBRANCH  28  30
ENDBRANCH  23  24
ENDBRANCH  22  23
ENDBRANCH   3  22
TORSDOF 6
