REMARK  Name = 
REMARK  2 active torsions:
REMARK  status: ('A' for Active; 'I' for Inactive)
REMARK    1  A    between atoms: C_3  and  C_16
REMARK    2  A    between atoms: C_9  and  C_10
REMARK                            x       y       z     vdW  Elec       q    Type
REMARK                         _______ _______ _______ _____ _____    ______ ____
ROOT
ATOM      1  C   UNL     1      44.494  35.863  44.873  0.00  0.00    +0.000 A 
ATOM      2  C   UNL     1      45.079  35.882  43.612  0.00  0.00    +0.000 A 
ATOM      3  C   UNL     1      45.978  34.929  43.189  0.00  0.00    +0.000 A 
ATOM      4  N   UNL     1      46.229  33.975  44.136  0.00  0.00    +0.000 NA
ATOM      5  C   UNL     1      45.678  33.936  45.356  0.00  0.00    +0.000 A 
ATOM      6  N   UNL     1      44.817  34.885  45.703  0.00  0.00    +0.000 NA
ATOM      7  N   UNL     1      46.028  32.883  46.246  0.00  0.00    +0.000 N 
ATOM      8  C   UNL     1      45.355  32.757  47.412  0.00  0.00    +0.000 A 
ATOM      9  C   UNL     1      45.712  31.727  48.259  0.00  0.00    +0.000 A 
ATOM     10  C   UNL     1      45.045  31.500  49.553  0.00  0.00    +0.000 C 
ATOM     11  C   UNL     1      46.745  30.883  47.858  0.00  0.00    +0.000 A 
ATOM     12  O   UNL     1      47.090  29.929  48.621  0.00  0.00    +0.000 OA
ATOM     13  N   UNL     1      47.383  31.052  46.687  0.00  0.00    +0.000 N 
ATOM     14  C   UNL     1      47.013  32.057  45.891  0.00  0.00    +0.000 A 
ATOM     15  O   UNL     1      47.641  32.169  44.808  0.00  0.00    +0.000 OA
ATOM     16  H   UNL     1      48.145  30.417  46.409  0.00  0.00    +0.000 HD
ENDROOT
BRANCH   3  17
ATOM     17  C   UNL     1      46.674  34.774  41.940  0.00  0.00    +0.000 A 
ATOM     18  C   UNL     1      47.920  35.364  41.820  0.00  0.00    +0.000 A 
ATOM     19  C   UNL     1      48.706  35.293  40.693  0.00  0.00    +0.000 A 
ATOM     20  C   UNL     1      48.246  34.600  39.609  0.00  0.00    +0.000 A 
ATOM     21  C   UNL     1      47.007  33.982  39.651  0.00  0.00    +0.000 A 
ATOM     22  C   UNL     1      46.534  33.288  38.561  0.00  0.00    +0.000 A 
ATOM     23  C   UNL     1      45.302  32.667  38.568  0.00  0.00    +0.000 A 
ATOM     24  C   UNL     1      44.580  32.790  39.743  0.00  0.00    +0.000 A 
ATOM     25  C   UNL     1      45.071  33.482  40.803  0.00  0.00    +0.000 A 
ATOM     26  C   UNL     1      46.286  34.099  40.807  0.00  0.00    +0.000 A 
ENDBRANCH   3  17
TORSDOF 1
