REMARK  Name = 
REMARK  2 active torsions:
REMARK  status: ('A' for Active; 'I' for Inactive)
REMARK    1  A    between atoms: C_1  and  C_13
REMARK    2  A    between atoms: C_15  and  C_17
REMARK                            x       y       z     vdW  Elec       q    Type
REMARK                         _______ _______ _______ _____ _____    ______ ____
ROOT
ATOM      1  C   UNL     1      44.414  35.959  44.869  0.00  0.00    +0.000 A 
ATOM      2  C   UNL     1      45.034  35.944  43.623  0.00  0.00    +0.000 A 
ATOM      3  C   UNL     1      45.957  34.984  43.259  0.00  0.00    +0.000 A 
ATOM      4  N   UNL     1      46.186  34.068  44.246  0.00  0.00    +0.000 NA
ATOM      5  C   UNL     1      45.606  34.061  45.442  0.00  0.00    +0.000 A 
ATOM      6  N   UNL     1      44.727  35.003  45.745  0.00  0.00    +0.000 NA
ENDROOT
BRANCH   3   7
ATOM      7  C   UNL     1      46.691  34.802  42.035  0.00  0.00    +0.000 A 
ATOM      8  C   UNL     1      47.951  35.369  41.949  0.00  0.00    +0.000 A 
ATOM      9  C   UNL     1      48.772  35.271  40.847  0.00  0.00    +0.000 A 
ATOM     10  C   UNL     1      48.330  34.569  39.755  0.00  0.00    +0.000 A 
ATOM     11  C   UNL     1      47.088  33.979  39.770  0.00  0.00    +0.000 A 
ATOM     12  C   UNL     1      46.638  33.281  38.674  0.00  0.00    +0.000 A 
ATOM     13  C   UNL     1      45.395  32.679  38.645  0.00  0.00    +0.000 A 
ATOM     14  C   UNL     1      44.634  32.830  39.799  0.00  0.00    +0.000 A 
ATOM     15  C   UNL     1      45.103  33.523  40.863  0.00  0.00    +0.000 A 
ATOM     16  C   UNL     1      46.333  34.123  40.902  0.00  0.00    +0.000 A 
ENDBRANCH   3   7
BRANCH   5  17
ATOM     17  C   UNL     1      45.952  33.011  46.399  0.00  0.00    +0.000 A 
ATOM     18  C   UNL     1      46.963  32.117  46.120  0.00  0.00    +0.000 A 
ATOM     19  C   UNL     1      47.197  31.169  47.104  0.00  0.00    +0.000 A 
ATOM     20  C   UNL     1      46.445  31.150  48.280  0.00  0.00    +0.000 A 
ATOM     21  C   UNL     1      45.455  32.054  48.513  0.00  0.00    +0.000 A 
ATOM     22  N   UNL     1      45.237  32.977  47.538  0.00  0.00    +0.000 NA
ENDBRANCH   5  17
TORSDOF 2
