REMARK  Name = 
REMARK  3 active torsions:
REMARK  status: ('A' for Active; 'I' for Inactive)
REMARK    1  A    between atoms: C_1  and  C_2
REMARK    2  A    between atoms: C_1  and  C_12
REMARK    3  A    between atoms: C_1  and  O_24
REMARK                            x       y       z     vdW  Elec       q    Type
REMARK                         _______ _______ _______ _____ _____    ______ ____
ROOT
ATOM      1  C   UNL     1      38.550  31.999  47.872  0.00  0.00    +0.000 C 
ENDROOT
BRANCH   1   2
ATOM      2  C   UNL     1      39.086  31.992  46.541  0.00  0.00    +0.000 A 
ATOM      3  C   UNL     1      39.780  33.181  46.270  0.00  0.00    +0.000 A 
ATOM      4  C   UNL     1      40.517  33.320  45.045  0.00  0.00    +0.000 A 
ATOM      5  N   UNL     1      40.476  32.244  44.222  0.00  0.00    +0.000 NA
ATOM      6  C   UNL     1      39.790  31.108  44.514  0.00  0.00    +0.000 A 
ATOM      7  N   UNL     1      39.112  30.982  45.643  0.00  0.00    +0.000 NA
ATOM      8  N   UNL     1      39.800  30.010  43.572  0.00  0.00    +0.000 N 
ATOM      9  C   UNL     1      40.768  29.981  42.508  0.00  0.00    +0.000 C 
ATOM     10  C   UNL     1      41.035  28.596  42.017  0.00  0.00    +0.000 C 
ATOM     11  N   UNL     1      39.780  27.865  41.786  0.00  0.00    +0.000 NA
ATOM     12  C   UNL     1      39.230  27.657  43.113  0.00  0.00    +0.000 C 
ATOM     13  C   UNL     1      38.823  28.950  43.722  0.00  0.00    +0.000 C 
ATOM     14  H   UNL     1      39.135  28.423  41.208  0.00  0.00    +0.000 HD
ENDBRANCH   1   2
BRANCH   1  15
ATOM     15  C   UNL     1      37.842  31.003  48.674  0.00  0.00    +0.000 A 
ATOM     16  N   UNL     1      38.320  30.694  49.879  0.00  0.00    +0.000 NA
ATOM     17  C   UNL     1      37.735  29.773  50.689  0.00  0.00    +0.000 A 
ATOM     18  N   UNL     1      36.635  29.112  50.334  0.00  0.00    +0.000 NA
ATOM     19  C   UNL     1      36.069  29.355  49.133  0.00  0.00    +0.000 A 
ATOM     20  C   UNL     1      34.940  28.685  48.738  0.00  0.00    +0.000 A 
ATOM     21  C   UNL     1      34.362  28.919  47.517  0.00  0.00    +0.000 A 
ATOM     22  C   UNL     1      34.973  29.858  46.720  0.00  0.00    +0.000 A 
ATOM     23  C   UNL     1      36.102  30.508  47.149  0.00  0.00    +0.000 A 
ATOM     24  C   UNL     1      36.701  30.293  48.359  0.00  0.00    +0.000 A 
ENDBRANCH   1  15
BRANCH   1  25
ATOM     25  O   UNL     1      38.201  33.144  48.459  0.00  0.00    +0.000 OA
ATOM     26  H   UNL     1      38.234  33.034  49.442  0.00  0.00    +0.000 HD
ENDBRANCH   1  25
TORSDOF 3
