REMARK  Name = 
REMARK  5 active torsions:
REMARK  status: ('A' for Active; 'I' for Inactive)
REMARK    1  A    between atoms: C_1  and  C_2
REMARK    2  A    between atoms: C_1  and  C_12
REMARK    3  A    between atoms: C_1  and  O_27
REMARK    4  A    between atoms: C_16  and  C_21
REMARK    5  A    between atoms: C_18  and  S_24
REMARK                            x       y       z     vdW  Elec       q    Type
REMARK                         _______ _______ _______ _____ _____    ______ ____
ROOT
ATOM      1  C   UNL     1      39.050  32.306  46.993  0.00  0.00    +0.000 A 
ATOM      2  C   UNL     1      39.774  33.486  46.754  0.00  0.00    +0.000 A 
ATOM      3  C   UNL     1      40.545  33.616  45.546  0.00  0.00    +0.000 A 
ATOM      4  N   UNL     1      40.504  32.550  44.712  0.00  0.00    +0.000 NA
ATOM      5  C   UNL     1      39.788  31.425  44.977  0.00  0.00    +0.000 A 
ATOM      6  N   UNL     1      39.079  31.305  46.087  0.00  0.00    +0.000 NA
ENDROOT
BRANCH   5  10
ATOM      7  C   UNL     1      39.785  28.171  42.195  0.00  0.00    +0.000 A 
ATOM      8  C   UNL     1      38.876  28.203  43.230  0.00  0.00    +0.000 A 
ATOM      9  C   UNL     1      38.881  29.261  44.129  0.00  0.00    +0.000 A 
ATOM     10  C   UNL     1      39.792  30.314  44.022  0.00  0.00    +0.000 A 
ATOM     11  C   UNL     1      40.693  30.263  42.980  0.00  0.00    +0.000 A 
ATOM     12  C   UNL     1      40.678  29.207  42.092  0.00  0.00    +0.000 A 
BRANCH   7  13
ATOM     13  S   UNL     1      39.849  26.880  41.019  0.00  0.00    +0.000 S 
ATOM     14  O   UNL     1      40.866  27.209  39.964  0.00  0.00    +0.000 OA
ATOM     15  O   UNL     1      38.478  26.646  40.447  0.00  0.00    +0.000 OA
ATOM     16  H   UNL     1      40.244  25.712  41.616  0.00  0.00    +0.000 HD
ENDBRANCH   7  13
ENDBRANCH   5  10
BRANCH   1  17
ATOM     17  C   UNL     1      38.479  32.311  48.309  0.00  0.00    +0.000 C 
BRANCH  17  18
ATOM     18  C   UNL     1      37.853  31.283  49.137  0.00  0.00    +0.000 A 
ATOM     19  N   UNL     1      38.345  31.049  50.351  0.00  0.00    +0.000 NA
ATOM     20  C   UNL     1      37.836  30.110  51.187  0.00  0.00    +0.000 A 
ATOM     21  N   UNL     1      36.797  29.347  50.852  0.00  0.00    +0.000 NA
ATOM     22  C   UNL     1      36.225  29.506  49.649  0.00  0.00    +0.000 A 
ATOM     23  C   UNL     1      35.153  28.733  49.246  0.00  0.00    +0.000 A 
ATOM     24  C   UNL     1      34.570  28.875  48.025  0.00  0.00    +0.000 A 
ATOM     25  C   UNL     1      35.108  29.838  47.205  0.00  0.00    +0.000 A 
ATOM     26  C   UNL     1      36.174  30.596  47.622  0.00  0.00    +0.000 A 
ATOM     27  C   UNL     1      36.778  30.471  48.839  0.00  0.00    +0.000 A 
ENDBRANCH  17  18
BRANCH  17  28
ATOM     28  O   UNL     1      38.003  33.437  48.839  0.00  0.00    +0.000 OA
ATOM     29  H   UNL     1      38.030  33.374  49.827  0.00  0.00    +0.000 HD
ENDBRANCH  17  28
ENDBRANCH   1  17
TORSDOF 5
