REMARK  Name = 
REMARK  1 active torsions:
REMARK  status: ('A' for Active; 'I' for Inactive)
REMARK    1  A    between atoms: C_2  and  C_18
REMARK                            x       y       z     vdW  Elec       q    Type
REMARK                         _______ _______ _______ _____ _____    ______ ____
ROOT
ATOM      1  C   UNL     1      35.033  28.877  48.960  0.00  0.00    +0.000 A 
ATOM      2  C   UNL     1      35.343  29.899  48.060  0.00  0.00    +0.000 A 
ATOM      3  C   UNL     1      34.567  29.999  46.917  0.00  0.00    +0.000 A 
ATOM      4  N   UNL     1      33.554  29.107  46.735  0.00  0.00    +0.000 NA
ATOM      5  C   UNL     1      33.280  28.127  47.630  0.00  0.00    +0.000 A 
ATOM      6  N   UNL     1      34.028  28.007  48.761  0.00  0.00    +0.000 NA
ATOM      7  N   UNL     1      32.193  27.267  47.310  0.00  0.00    +0.000 N 
ATOM      8  C   UNL     1      32.387  25.969  46.938  0.00  0.00    +0.000 A 
ATOM      9  N   UNL     1      31.186  25.400  46.698  0.00  0.00    +0.000 NA
ATOM     10  C   UNL     1      30.264  26.361  46.927  0.00  0.00    +0.000 A 
ATOM     11  C   UNL     1      28.868  26.358  46.843  0.00  0.00    +0.000 A 
ATOM     12  O   UNL     1      28.310  25.287  46.493  0.00  0.00    +0.000 OA
ATOM     13  N   UNL     1      28.207  27.498  47.142  0.00  0.00    +0.000 N 
ATOM     14  C   UNL     1      28.822  28.630  47.513  0.00  0.00    +0.000 A 
ATOM     15  N   UNL     1      27.932  29.703  47.778  0.00  0.00    +0.000 N 
ATOM     16  N   UNL     1      30.180  28.653  47.600  0.00  0.00    +0.000 NA
ATOM     17  C   UNL     1      30.874  27.526  47.309  0.00  0.00    +0.000 A 
ATOM     18  H   UNL     1      27.179  27.497  47.082  0.00  0.00    +0.000 HD
ATOM     19  H   UNL     1      28.302  30.619  48.071  0.00  0.00    +0.000 HD
ATOM     20  H   UNL     1      26.916  29.566  47.678  0.00  0.00    +0.000 HD
ENDROOT
BRANCH   2  21
ATOM     21  C   UNL     1      36.456  30.782  48.382  0.00  0.00    +0.000 A 
ATOM     22  C   UNL     1      36.600  31.373  49.611  0.00  0.00    +0.000 A 
ATOM     23  C   UNL     1      37.720  32.197  49.773  0.00  0.00    +0.000 A 
ATOM     24  N   UNL     1      38.622  32.425  48.815  0.00  0.00    +0.000 NA
ATOM     25  C   UNL     1      38.432  31.813  47.613  0.00  0.00    +0.000 A 
ATOM     26  N   UNL     1      37.360  31.003  47.407  0.00  0.00    +0.000 NA
ATOM     27  N   UNL     1      39.372  32.029  46.564  0.00  0.00    +0.000 N 
ATOM     28  C   UNL     1      39.955  33.090  45.993  0.00  0.00    +0.000 A 
ATOM     29  N   UNL     1      40.778  32.620  45.019  0.00  0.00    +0.000 NA
ATOM     30  C   UNL     1      40.676  31.271  45.020  0.00  0.00    +0.000 A 
ATOM     31  N   UNL     1      39.793  30.886  45.989  0.00  0.00    +0.000 NA
ENDBRANCH   2  21
TORSDOF 1
