REMARK  Name = 
REMARK  2 active torsions:
REMARK  status: ('A' for Active; 'I' for Inactive)
REMARK    1  A    between atoms: C_3  and  C_7
REMARK    2  A    between atoms: C_5  and  C_17
REMARK                            x       y       z     vdW  Elec       q    Type
REMARK                         _______ _______ _______ _____ _____    ______ ____
ROOT
ATOM      1  C   UNL     1      38.077  33.053  49.655  0.00  0.00    +0.000 A 
ATOM      2  C   UNL     1      38.886  33.243  48.537  0.00  0.00    +0.000 A 
ATOM      3  C   UNL     1      38.684  32.390  47.464  0.00  0.00    +0.000 A 
ATOM      4  N   UNL     1      37.735  31.445  47.563  0.00  0.00    +0.000 NA
ATOM      5  C   UNL     1      36.956  31.264  48.641  0.00  0.00    +0.000 A 
ATOM      6  N   UNL     1      37.144  32.098  49.706  0.00  0.00    +0.000 NA
ENDROOT
BRANCH   3   7
ATOM      7  C   UNL     1      39.449  32.476  46.219  0.00  0.00    +0.000 A 
ATOM      8  N   UNL     1      40.411  33.355  45.806  0.00  0.00    +0.000 NA
ATOM      9  O   UNL     1      40.807  33.032  44.610  0.00  0.00    +0.000 OA
ATOM     10  C   UNL     1      40.138  31.977  44.233  0.00  0.00    +0.000 A 
ATOM     11  N   UNL     1      39.274  31.591  45.210  0.00  0.00    +0.000 NA
ATOM     12  N   UNL     1      40.249  31.278  42.987  0.00  0.00    +0.000 N 
ATOM     13  N   UNL     1      39.877  31.813  41.824  0.00  0.00    +0.000 NA
ATOM     14  C   UNL     1      40.096  30.936  40.840  0.00  0.00    +0.000 A 
ATOM     15  C   UNL     1      40.629  29.804  41.439  0.00  0.00    +0.000 A 
ATOM     16  C   UNL     1      40.728  30.024  42.815  0.00  0.00    +0.000 A 
ENDBRANCH   3   7
BRANCH   5  17
ATOM     17  C   UNL     1      35.906  30.286  48.855  0.00  0.00    +0.000 A 
ATOM     18  N   UNL     1      35.609  29.823  50.080  0.00  0.00    +0.000 NA
ATOM     19  C   UNL     1      34.667  28.930  50.371  0.00  0.00    +0.000 A 
ATOM     20  N   UNL     1      33.892  28.392  49.385  0.00  0.00    +0.000 NA
ATOM     21  C   UNL     1      34.108  28.793  48.099  0.00  0.00    +0.000 A 
ATOM     22  C   UNL     1      33.339  28.265  47.087  0.00  0.00    +0.000 A 
ATOM     23  C   UNL     1      33.532  28.648  45.780  0.00  0.00    +0.000 A 
ATOM     24  C   UNL     1      34.535  29.587  45.543  0.00  0.00    +0.000 A 
ATOM     25  C   UNL     1      35.275  30.082  46.593  0.00  0.00    +0.000 A 
ATOM     26  C   UNL     1      35.103  29.719  47.895  0.00  0.00    +0.000 A 
ENDBRANCH   5  17
TORSDOF 2
