REMARK  Name = 
REMARK  2 active torsions:
REMARK  status: ('A' for Active; 'I' for Inactive)
REMARK    1  A    between atoms: C_1  and  C_22
REMARK    2  A    between atoms: C_5  and  C_12
REMARK                            x       y       z     vdW  Elec       q    Type
REMARK                         _______ _______ _______ _____ _____    ______ ____
ROOT
ATOM      1  C   UNL     1      36.960  29.902  49.928  0.00  0.00    +0.000 A 
ATOM      2  C   UNL     1      38.031  30.621  49.440  0.00  0.00    +0.000 A 
ATOM      3  C   UNL     1      38.005  31.029  48.112  0.00  0.00    +0.000 A 
ATOM      4  N   UNL     1      36.919  30.694  47.363  0.00  0.00    +0.000 NA
ATOM      5  C   UNL     1      35.878  29.985  47.870  0.00  0.00    +0.000 A 
ATOM      6  N   UNL     1      35.937  29.610  49.149  0.00  0.00    +0.000 NA
ATOM      7  N   UNL     1      39.067  31.772  47.544  0.00  0.00    +0.000 N 
ATOM      8  C   UNL     1      38.889  32.534  46.356  0.00  0.00    +0.000 C 
ATOM      9  N   UNL     1      37.819  32.361  45.680  0.00  0.00    +0.000 NA
ATOM     10  N   UNL     1      39.877  33.457  45.946  0.00  0.00    +0.000 N 
ATOM     11  H   UNL     1      37.748  32.797  44.729  0.00  0.00    +0.000 HD
ATOM     12  H   UNL     1      39.990  31.761  48.001  0.00  0.00    +0.000 HD
ATOM     13  H   UNL     1      39.743  34.006  45.085  0.00  0.00    +0.000 HD
ATOM     14  H   UNL     1      40.731  33.581  46.508  0.00  0.00    +0.000 HD
ENDROOT
BRANCH   5  15
ATOM     15  C   UNL     1      34.839  29.720  46.884  0.00  0.00    +0.000 A 
ATOM     16  C   UNL     1      34.944  30.186  45.593  0.00  0.00    +0.000 A 
ATOM     17  C   UNL     1      34.002  29.983  44.618  0.00  0.00    +0.000 A 
ATOM     18  C   UNL     1      32.858  29.275  44.887  0.00  0.00    +0.000 A 
ATOM     19  C   UNL     1      32.695  28.784  46.162  0.00  0.00    +0.000 A 
ATOM     20  C   UNL     1      31.552  28.079  46.446  0.00  0.00    +0.000 A 
ATOM     21  C   UNL     1      31.320  27.564  47.703  0.00  0.00    +0.000 A 
ATOM     22  C   UNL     1      32.301  27.795  48.664  0.00  0.00    +0.000 A 
ATOM     23  C   UNL     1      33.428  28.505  48.331  0.00  0.00    +0.000 A 
ATOM     24  C   UNL     1      33.680  29.024  47.092  0.00  0.00    +0.000 A 
ENDBRANCH   5  15
BRANCH   1  25
ATOM     25  C   UNL     1      36.954  29.444  51.355  0.00  0.00    +0.000 C 
ATOM     26  F   UNL     1      35.673  29.162  51.775  0.00  0.00    +0.000 F 
ATOM     27  F   UNL     1      37.836  28.409  51.477  0.00  0.00    +0.000 F 
ATOM     28  F   UNL     1      37.425  30.527  52.121  0.00  0.00    +0.000 F 
ENDBRANCH   1  25
TORSDOF 2
