REMARK  Name = 
REMARK  2 active torsions:
REMARK  status: ('A' for Active; 'I' for Inactive)
REMARK    1  A    between atoms: C_1  and  C_21
REMARK    2  A    between atoms: C_16  and  N_25
REMARK                            x       y       z     vdW  Elec       q    Type
REMARK                         _______ _______ _______ _____ _____    ______ ____
ROOT
ATOM      1  C   UNL     1      36.915  29.928  49.890  0.00  0.00    +0.000 A 
ATOM      2  C   UNL     1      37.994  30.653  49.413  0.00  0.00    +0.000 A 
ATOM      3  C   UNL     1      37.966  31.089  48.090  0.00  0.00    +0.000 A 
ATOM      4  N   UNL     1      36.875  30.777  47.334  0.00  0.00    +0.000 NA
ATOM      5  C   UNL     1      35.845  30.067  47.838  0.00  0.00    +0.000 A 
ATOM      6  N   UNL     1      35.883  29.655  49.109  0.00  0.00    +0.000 NA
ATOM      7  N   UNL     1      39.036  31.831  47.552  0.00  0.00    +0.000 N 
ATOM      8  C   UNL     1      38.903  32.553  46.348  0.00  0.00    +0.000 C 
ATOM      9  N   UNL     1      37.858  32.358  45.637  0.00  0.00    +0.000 NA
ATOM     10  N   UNL     1      39.925  33.466  45.964  0.00  0.00    +0.000 N 
ATOM     11  H   UNL     1      37.762  32.901  44.741  0.00  0.00    +0.000 HD
ATOM     12  N   UNL     1      34.711  29.747  47.040  0.00  0.00    +0.000 N 
ATOM     13  C   UNL     1      34.504  30.149  45.768  0.00  0.00    +0.000 A 
ATOM     14  N   UNL     1      33.357  29.692  45.287  0.00  0.00    +0.000 NA
ATOM     15  C   UNL     1      32.765  28.971  46.225  0.00  0.00    +0.000 A 
ATOM     16  C   UNL     1      31.572  28.255  46.316  0.00  0.00    +0.000 A 
ATOM     17  N   UNL     1      31.276  27.619  47.460  0.00  0.00    +0.000 NA
ATOM     18  C   UNL     1      32.104  27.662  48.511  0.00  0.00    +0.000 A 
ATOM     19  N   UNL     1      33.276  28.358  48.441  0.00  0.00    +0.000 NA
ATOM     20  C   UNL     1      33.618  29.012  47.316  0.00  0.00    +0.000 A 
ATOM     21  H   UNL     1      39.937  31.846  48.050  0.00  0.00    +0.000 HD
ATOM     22  H   UNL     1      39.837  33.998  45.087  0.00  0.00    +0.000 HD
ATOM     23  H   UNL     1      40.752  33.595  46.564  0.00  0.00    +0.000 HD
ENDROOT
BRANCH   1  24
ATOM     24  C   UNL     1      36.942  29.453  51.324  0.00  0.00    +0.000 C 
ATOM     25  F   UNL     1      35.644  29.152  51.727  0.00  0.00    +0.000 F 
ATOM     26  F   UNL     1      37.809  28.405  51.412  0.00  0.00    +0.000 F 
ATOM     27  F   UNL     1      37.388  30.519  52.096  0.00  0.00    +0.000 F 
ENDBRANCH   1  24
BRANCH  16  28
ATOM     28  N   UNL     1      30.779  28.288  45.125  0.00  0.00    +0.000 N 
ATOM     29  H   UNL     1      29.879  27.789  45.092  0.00  0.00    +0.000 HD
ATOM     30  H   UNL     1      31.109  28.811  44.301  0.00  0.00    +0.000 HD
ENDBRANCH  16  28
TORSDOF 2
