REMARK  Name = 
REMARK  5 active torsions:
REMARK  status: ('A' for Active; 'I' for Inactive)
REMARK    1  A    between atoms: C_1  and  C_15
REMARK    2  A    between atoms: C_4  and  O_23
REMARK    3  A    between atoms: C_12  and  S_22
REMARK    4  A    between atoms: C_13  and  N_17
REMARK    5  A    between atoms: O_23  and  C_24
REMARK                            x       y       z     vdW  Elec       q    Type
REMARK                         _______ _______ _______ _____ _____    ______ ____
ROOT
ATOM      1  C   UNL     1      36.111  31.325  42.614  0.00  0.00    +0.000 A 
ATOM      2  C   UNL     1      37.288  30.996  41.921  0.00  0.00    +0.000 A 
ATOM      3  C   UNL     1      38.357  30.587  42.661  0.00  0.00    +0.000 A 
ATOM      4  N   UNL     1      38.181  30.537  43.973  0.00  0.00    +0.000 NA
ATOM      5  C   UNL     1      37.139  30.820  44.682  0.00  0.00    +0.000 A 
ATOM      6  N   UNL     1      36.114  31.215  43.943  0.00  0.00    +0.000 NA
ENDROOT
BRANCH   5   7
ATOM      7  C   UNL     1      36.847  30.799  46.097  0.00  0.00    +0.000 A 
ATOM      8  C   UNL     1      35.823  30.034  46.659  0.00  0.00    +0.000 A 
ATOM      9  C   UNL     1      35.515  29.985  47.982  0.00  0.00    +0.000 A 
ATOM     10  C   UNL     1      36.242  30.734  48.876  0.00  0.00    +0.000 A 
ATOM     11  C   UNL     1      37.246  31.497  48.400  0.00  0.00    +0.000 A 
ATOM     12  C   UNL     1      37.970  32.244  49.305  0.00  0.00    +0.000 A 
ATOM     13  C   UNL     1      39.001  33.041  48.905  0.00  0.00    +0.000 A 
ATOM     14  C   UNL     1      39.307  33.083  47.553  0.00  0.00    +0.000 A 
ATOM     15  C   UNL     1      38.562  32.324  46.691  0.00  0.00    +0.000 A 
ATOM     16  C   UNL     1      37.544  31.533  47.051  0.00  0.00    +0.000 A 
BRANCH  10  17
ATOM     17  O   UNL     1      35.915  30.673  50.214  0.00  0.00    +0.000 OA
BRANCH  17  18
ATOM     18  C   UNL     1      36.424  29.635  51.031  0.00  0.00    +0.000 C 
ATOM     19  F   UNL     1      37.235  28.734  50.406  0.00  0.00    +0.000 F 
ATOM     20  F   UNL     1      37.198  30.220  52.020  0.00  0.00    +0.000 F 
ATOM     21  F   UNL     1      35.316  28.987  51.580  0.00  0.00    +0.000 F 
ENDBRANCH  17  18
ENDBRANCH  10  17
ENDBRANCH   5   7
BRANCH   3  22
ATOM     22  N   UNL     1      39.615  30.217  42.110  0.00  0.00    +0.000 N 
ATOM     23  C   UNL     1      40.740  29.922  42.904  0.00  0.00    +0.000 C 
ATOM     24  N   UNL     1      40.954  30.656  43.951  0.00  0.00    +0.000 NA
ATOM     25  N   UNL     1      41.603  28.859  42.566  0.00  0.00    +0.000 N 
ATOM     26  H   UNL     1      41.702  30.561  44.628  0.00  0.00    +0.000 HD
ATOM     27  H   UNL     1      39.707  30.163  41.086  0.00  0.00    +0.000 HD
ATOM     28  H   UNL     1      42.422  28.654  43.155  0.00  0.00    +0.000 HD
ATOM     29  H   UNL     1      41.414  28.288  41.730  0.00  0.00    +0.000 HD
ENDBRANCH   3  22
BRANCH   2  30
ATOM     30  S   UNL     1      37.438  31.094  40.143  0.00  0.00    +0.000 S 
ATOM     31  H   UNL     1      38.552  31.822  39.818  0.00  0.00    +0.000 HD
ENDBRANCH   2  30
TORSDOF 5
