REMARK  Name = 
REMARK  4 active torsions:
REMARK  status: ('A' for Active; 'I' for Inactive)
REMARK    1  A    between atoms: C_1  and  C_15
REMARK    2  A    between atoms: C_4  and  O_18
REMARK    3  A    between atoms: C_13  and  N_17
REMARK    4  A    between atoms: O_18  and  C_19
REMARK                            x       y       z     vdW  Elec       q    Type
REMARK                         _______ _______ _______ _____ _____    ______ ____
ROOT
ATOM      1  C   UNL     1      37.393  30.999  46.765  0.00  0.00    +0.000 A 
ATOM      2  C   UNL     1      36.268  30.561  46.046  0.00  0.00    +0.000 A 
ATOM      3  C   UNL     1      35.145  30.029  46.605  0.00  0.00    +0.000 A 
ATOM      4  C   UNL     1      35.049  29.886  47.953  0.00  0.00    +0.000 A 
ATOM      5  C   UNL     1      36.105  30.290  48.709  0.00  0.00    +0.000 A 
ATOM      6  C   UNL     1      35.999  30.141  50.074  0.00  0.00    +0.000 A 
ATOM      7  C   UNL     1      37.012  30.520  50.914  0.00  0.00    +0.000 A 
ATOM      8  C   UNL     1      38.147  31.058  50.345  0.00  0.00    +0.000 A 
ATOM      9  C   UNL     1      38.213  31.189  48.985  0.00  0.00    +0.000 A 
ATOM     10  C   UNL     1      37.240  30.829  48.139  0.00  0.00    +0.000 A 
ENDROOT
BRANCH   1  15
ATOM     11  C   UNL     1      40.716  30.933  45.445  0.00  0.00    +0.000 A 
ATOM     12  C   UNL     1      41.017  32.204  44.980  0.00  0.00    +0.000 A 
ATOM     13  C   UNL     1      40.011  33.139  45.131  0.00  0.00    +0.000 A 
ATOM     14  N   UNL     1      38.876  32.745  45.696  0.00  0.00    +0.000 NA
ATOM     15  C   UNL     1      38.564  31.556  46.143  0.00  0.00    +0.000 A 
ATOM     16  N   UNL     1      39.536  30.683  45.987  0.00  0.00    +0.000 NA
BRANCH  13  17
ATOM     17  N   UNL     1      40.061  34.505  44.742  0.00  0.00    +0.000 N 
ATOM     18  H   UNL     1      39.248  35.116  44.903  0.00  0.00    +0.000 HD
ATOM     19  H   UNL     1      40.910  34.884  44.299  0.00  0.00    +0.000 HD
ENDBRANCH  13  17
ENDBRANCH   1  15
BRANCH   4  20
ATOM     20  O   UNL     1      33.901  29.345  48.492  0.00  0.00    +0.000 OA
BRANCH  20  21
ATOM     21  C   UNL     1      33.709  27.953  48.525  0.00  0.00    +0.000 C 
ATOM     22  F   UNL     1      34.677  27.260  49.214  0.00  0.00    +0.000 F 
ATOM     23  F   UNL     1      32.513  27.721  49.199  0.00  0.00    +0.000 F 
ATOM     24  F   UNL     1      33.630  27.527  47.206  0.00  0.00    +0.000 F 
ENDBRANCH  20  21
ENDBRANCH   4  20
TORSDOF 4
