REMARK  Name = 
REMARK  3 active torsions:
REMARK  status: ('A' for Active; 'I' for Inactive)
REMARK    1  A    between atoms: C_1  and  C_11
REMARK    2  A    between atoms: C_6  and  C_17
REMARK    3  A    between atoms: C_7  and  C_13
REMARK                            x       y       z     vdW  Elec       q    Type
REMARK                         _______ _______ _______ _____ _____    ______ ____
ROOT
ATOM      1  C   UNL     1      36.455  30.528  46.590  0.00  0.00    +0.000 A 
ATOM      2  C   UNL     1      35.157  30.058  46.536  0.00  0.00    +0.000 A 
ATOM      3  C   UNL     1      34.507  29.742  45.357  0.00  0.00    +0.000 A 
ATOM      4  C   UNL     1      35.186  29.902  44.166  0.00  0.00    +0.000 A 
ATOM      5  C   UNL     1      36.495  30.374  44.202  0.00  0.00    +0.000 A 
ATOM      6  C   UNL     1      37.123  30.683  45.404  0.00  0.00    +0.000 A 
ENDROOT
BRANCH   1  11
ATOM      7  C   UNL     1      37.398  30.296  50.122  0.00  0.00    +0.000 A 
ATOM      8  C   UNL     1      38.165  31.445  50.315  0.00  0.00    +0.000 A 
ATOM      9  C   UNL     1      38.361  32.303  49.222  0.00  0.00    +0.000 A 
ATOM     10  N   UNL     1      37.793  31.959  48.050  0.00  0.00    +0.000 NA
ATOM     11  C   UNL     1      37.052  30.838  47.890  0.00  0.00    +0.000 A 
ATOM     12  N   UNL     1      36.878  30.041  48.931  0.00  0.00    +0.000 NA
BRANCH   7  13
ATOM     13  C   UNL     1      37.195  29.387  51.298  0.00  0.00    +0.000 C 
ATOM     14  F   UNL     1      35.841  29.131  51.449  0.00  0.00    +0.000 F 
ATOM     15  F   UNL     1      37.922  28.259  51.092  0.00  0.00    +0.000 F 
ATOM     16  F   UNL     1      37.632  30.057  52.438  0.00  0.00    +0.000 F 
ENDBRANCH   7  13
ENDBRANCH   1  11
BRANCH   6  17
ATOM     17  C   UNL     1      38.492  31.171  45.335  0.00  0.00    +0.000 A 
ATOM     18  C   UNL     1      38.536  32.499  44.915  0.00  0.00    +0.000 A 
ATOM     19  C   UNL     1      39.710  33.210  44.769  0.00  0.00    +0.000 A 
ATOM     20  C   UNL     1      40.903  32.595  45.046  0.00  0.00    +0.000 A 
ATOM     21  C   UNL     1      40.825  31.287  45.457  0.00  0.00    +0.000 A 
ATOM     22  N   UNL     1      39.668  30.623  45.589  0.00  0.00    +0.000 NA
ENDBRANCH   6  17
TORSDOF 3
