REMARK  Name = 
REMARK  5 active torsions:
REMARK  status: ('A' for Active; 'I' for Inactive)
REMARK    1  A    between atoms: C_1  and  C_15
REMARK    2  A    between atoms: C_4  and  O_23
REMARK    3  A    between atoms: C_12  and  C_22
REMARK    4  A    between atoms: C_13  and  N_17
REMARK    5  A    between atoms: O_23  and  C_24
REMARK                            x       y       z     vdW  Elec       q    Type
REMARK                         _______ _______ _______ _____ _____    ______ ____
ROOT
ATOM      1  C   UNL     1      36.844  30.787  46.102  0.00  0.00    +0.000 A 
ATOM      2  C   UNL     1      35.826  30.026  46.655  0.00  0.00    +0.000 A 
ATOM      3  C   UNL     1      35.520  29.984  47.979  0.00  0.00    +0.000 A 
ATOM      4  C   UNL     1      36.239  30.731  48.875  0.00  0.00    +0.000 A 
ATOM      5  C   UNL     1      37.246  31.495  48.400  0.00  0.00    +0.000 A 
ATOM      6  C   UNL     1      37.971  32.247  49.300  0.00  0.00    +0.000 A 
ATOM      7  C   UNL     1      39.000  33.041  48.898  0.00  0.00    +0.000 A 
ATOM      8  C   UNL     1      39.308  33.080  47.546  0.00  0.00    +0.000 A 
ATOM      9  C   UNL     1      38.570  32.324  46.683  0.00  0.00    +0.000 A 
ATOM     10  C   UNL     1      37.545  31.527  47.053  0.00  0.00    +0.000 A 
ENDROOT
BRANCH   1  15
ATOM     11  C   UNL     1      36.127  31.322  42.615  0.00  0.00    +0.000 A 
ATOM     12  C   UNL     1      37.292  30.997  41.913  0.00  0.00    +0.000 A 
ATOM     13  C   UNL     1      38.357  30.581  42.659  0.00  0.00    +0.000 A 
ATOM     14  N   UNL     1      38.186  30.526  43.971  0.00  0.00    +0.000 NA
ATOM     15  C   UNL     1      37.143  30.809  44.684  0.00  0.00    +0.000 A 
ATOM     16  N   UNL     1      36.113  31.213  43.939  0.00  0.00    +0.000 NA
ATOM     17  C   UNL     1      37.418  31.082  40.437  0.00  0.00    +0.000 C 
BRANCH  13  18
ATOM     18  N   UNL     1      39.616  30.209  42.107  0.00  0.00    +0.000 N 
ATOM     19  C   UNL     1      40.744  29.919  42.903  0.00  0.00    +0.000 C 
ATOM     20  N   UNL     1      40.957  30.656  43.946  0.00  0.00    +0.000 NA
ATOM     21  N   UNL     1      41.604  28.856  42.564  0.00  0.00    +0.000 N 
ATOM     22  H   UNL     1      41.706  30.562  44.623  0.00  0.00    +0.000 HD
ATOM     23  H   UNL     1      39.707  30.149  41.083  0.00  0.00    +0.000 HD
ATOM     24  H   UNL     1      42.425  28.651  43.151  0.00  0.00    +0.000 HD
ATOM     25  H   UNL     1      41.411  28.284  41.730  0.00  0.00    +0.000 HD
ENDBRANCH  13  18
ENDBRANCH   1  15
BRANCH   4  26
ATOM     26  O   UNL     1      35.915  30.675  50.211  0.00  0.00    +0.000 OA
BRANCH  26  27
ATOM     27  C   UNL     1      36.419  29.637  51.032  0.00  0.00    +0.000 C 
ATOM     28  F   UNL     1      37.235  28.736  50.409  0.00  0.00    +0.000 F 
ATOM     29  F   UNL     1      37.198  30.232  52.019  0.00  0.00    +0.000 F 
ATOM     30  F   UNL     1      35.316  28.997  51.585  0.00  0.00    +0.000 F 
ENDBRANCH  26  27
ENDBRANCH   4  26
TORSDOF 4
