REMARK  Name = 
REMARK  6 active torsions:
REMARK  status: ('A' for Active; 'I' for Inactive)
REMARK    1  A    between atoms: C_1  and  C_11
REMARK    2  A    between atoms: C_6  and  C_17
REMARK    3  A    between atoms: C_8  and  C_13
REMARK    4  A    between atoms: C_17  and  C_18
REMARK    5  A    between atoms: C_18  and  C_19
REMARK    6  A    between atoms: N_22  and  C_24
REMARK                            x       y       z     vdW  Elec       q    Type
REMARK                         _______ _______ _______ _____ _____    ______ ____
ROOT
ATOM      1  C   UNL     1      31.701  26.472  47.820  0.00  0.00    +0.000 A 
ATOM      2  C   UNL     1      31.441  25.259  47.298  0.00  0.00    +0.000 A 
ATOM      3  C   UNL     1      32.435  24.394  46.856  0.00  0.00    +0.000 A 
ATOM      4  C   UNL     1      33.734  24.850  46.981  0.00  0.00    +0.000 A 
ATOM      5  C   UNL     1      34.011  26.078  47.508  0.00  0.00    +0.000 A 
ATOM      6  C   UNL     1      33.003  26.912  47.937  0.00  0.00    +0.000 A 
ENDROOT
BRANCH   1  11
ATOM      7  C   UNL     1      29.217  28.196  49.931  0.00  0.00    +0.000 A 
ATOM      8  C   UNL     1      28.580  29.056  49.002  0.00  0.00    +0.000 A 
ATOM      9  C   UNL     1      29.027  29.015  47.679  0.00  0.00    +0.000 A 
ATOM     10  N   UNL     1      30.047  28.155  47.346  0.00  0.00    +0.000 NA
ATOM     11  C   UNL     1      30.621  27.354  48.275  0.00  0.00    +0.000 A 
ATOM     12  N   UNL     1      30.202  27.388  49.537  0.00  0.00    +0.000 NA
BRANCH   8  13
ATOM     13  C   UNL     1      27.481  29.971  49.389  0.00  0.00    +0.000 C 
ATOM     14  F   UNL     1      27.837  30.873  50.353  0.00  0.00    +0.000 F 
ATOM     15  F   UNL     1      26.378  29.279  49.854  0.00  0.00    +0.000 F 
ATOM     16  F   UNL     1      27.075  30.706  48.258  0.00  0.00    +0.000 F 
ENDBRANCH   8  13
ENDBRANCH   1  11
BRANCH   6  17
ATOM     17  C   UNL     1      33.256  28.248  48.514  0.00  0.00    +0.000 C 
BRANCH  17  18
ATOM     18  C   UNL     1      33.905  29.215  47.594  0.00  0.00    +0.000 C 
BRANCH  18  19
ATOM     19  C   UNL     1      34.984  29.930  48.276  0.00  0.00    +0.000 A 
ATOM     20  C   UNL     1      35.188  29.885  49.644  0.00  0.00    +0.000 A 
ATOM     21  C   UNL     1      36.277  30.663  49.972  0.00  0.00    +0.000 A 
ATOM     22  N   UNL     1      36.710  31.164  48.765  0.00  0.00    +0.000 N 
ATOM     23  N   UNL     1      35.949  30.732  47.775  0.00  0.00    +0.000 NA
BRANCH  22  24
ATOM     24  C   UNL     1      37.784  32.026  48.411  0.00  0.00    +0.000 A 
ATOM     25  C   UNL     1      38.139  32.957  49.362  0.00  0.00    +0.000 A 
ATOM     26  C   UNL     1      39.161  33.861  49.162  0.00  0.00    +0.000 A 
ATOM     27  C   UNL     1      39.843  33.808  47.944  0.00  0.00    +0.000 A 
ATOM     28  C   UNL     1      39.461  32.855  47.001  0.00  0.00    +0.000 A 
ATOM     29  N   UNL     1      38.446  31.981  47.241  0.00  0.00    +0.000 NA
ENDBRANCH  22  24
ENDBRANCH  18  19
ENDBRANCH  17  18
ENDBRANCH   6  17
TORSDOF 6
