REMARK  Name = 
REMARK  3 active torsions:
REMARK  status: ('A' for Active; 'I' for Inactive)
REMARK    1  A    between atoms: C_1  and  C_11
REMARK    2  A    between atoms: C_11  and  C_12
REMARK    3  A    between atoms: C_11  and  O_19
REMARK                            x       y       z     vdW  Elec       q    Type
REMARK                         _______ _______ _______ _____ _____    ______ ____
ROOT
ATOM      1  C   UNL     1      38.488  32.012  48.125  0.00  0.00    +0.000 C 
ENDROOT
BRANCH   1   2
ATOM      2  C   UNL     1      37.778  31.167  49.083  0.00  0.00    +0.000 A 
ATOM      3  N   UNL     1      38.278  31.027  50.310  0.00  0.00    +0.000 NA
ATOM      4  C   UNL     1      37.690  30.258  51.263  0.00  0.00    +0.000 A 
ATOM      5  N   UNL     1      36.561  29.586  51.038  0.00  0.00    +0.000 NA
ATOM      6  C   UNL     1      35.965  29.662  49.822  0.00  0.00    +0.000 A 
ATOM      7  C   UNL     1      34.812  28.985  49.568  0.00  0.00    +0.000 A 
ATOM      8  C   UNL     1      34.204  29.051  48.354  0.00  0.00    +0.000 A 
ATOM      9  C   UNL     1      34.820  29.842  47.395  0.00  0.00    +0.000 A 
ATOM     10  C   UNL     1      35.982  30.509  47.692  0.00  0.00    +0.000 A 
ATOM     11  C   UNL     1      36.610  30.453  48.912  0.00  0.00    +0.000 A 
ENDBRANCH   1   2
BRANCH   1  12
ATOM     12  C   UNL     1      39.014  31.778  46.809  0.00  0.00    +0.000 A 
ATOM     13  C   UNL     1      39.821  32.851  46.398  0.00  0.00    +0.000 A 
ATOM     14  C   UNL     1      40.569  32.742  45.176  0.00  0.00    +0.000 A 
ATOM     15  N   UNL     1      40.428  31.577  44.500  0.00  0.00    +0.000 NA
ATOM     16  C   UNL     1      39.631  30.563  44.933  0.00  0.00    +0.000 A 
ATOM     17  N   UNL     1      38.940  30.659  46.057  0.00  0.00    +0.000 NA
ATOM     18  N   UNL     1      39.506  29.349  44.190  0.00  0.00    +0.000 N 
ATOM     19  H   UNL     1      38.897  28.594  44.536  0.00  0.00    +0.000 HD
ATOM     20  H   UNL     1      40.025  29.229  43.308  0.00  0.00    +0.000 HD
ENDBRANCH   1  12
BRANCH   1  21
ATOM     21  O   UNL     1      38.154  33.238  48.514  0.00  0.00    +0.000 OA
ATOM     22  H   UNL     1      38.143  33.279  49.503  0.00  0.00    +0.000 HD
ENDBRANCH   1  21
TORSDOF 3
