REMARK  Name = 
REMARK  3 active torsions:
REMARK  status: ('A' for Active; 'I' for Inactive)
REMARK    1  A    between atoms: C_1  and  C_2
REMARK    2  A    between atoms: C_1  and  C_16
REMARK    3  A    between atoms: C_1  and  O_26
REMARK                            x       y       z     vdW  Elec       q    Type
REMARK                         _______ _______ _______ _____ _____    ______ ____
ROOT
ATOM      1  C   UNL     1      38.915  31.999  46.674  0.00  0.00    +0.000 A 
ATOM      2  C   UNL     1      39.883  32.966  46.368  0.00  0.00    +0.000 A 
ATOM      3  C   UNL     1      40.573  32.898  45.112  0.00  0.00    +0.000 A 
ATOM      4  N   UNL     1      40.226  31.874  44.294  0.00  0.00    +0.000 NA
ATOM      5  C   UNL     1      39.278  30.962  44.632  0.00  0.00    +0.000 A 
ATOM      6  N   UNL     1      38.636  31.018  45.788  0.00  0.00    +0.000 NA
ATOM      7  N   UNL     1      38.964  29.908  43.710  0.00  0.00    +0.000 N 
ATOM      8  C   UNL     1      37.790  29.286  43.640  0.00  0.00    +0.000 A 
ATOM      9  C   UNL     1      37.573  28.274  42.713  0.00  0.00    +0.000 A 
ATOM     10  C   UNL     1      38.612  27.924  41.861  0.00  0.00    +0.000 A 
ATOM     11  O   UNL     1      38.437  27.010  41.016  0.00  0.00    +0.000 OA
ATOM     12  N   UNL     1      39.771  28.588  41.981  0.00  0.00    +0.000 N 
ATOM     13  C   UNL     1      39.984  29.570  42.878  0.00  0.00    +0.000 A 
ATOM     14  O   UNL     1      41.139  30.107  42.872  0.00  0.00    +0.000 OA
ATOM     15  H   UNL     1      40.544  28.332  41.350  0.00  0.00    +0.000 HD
ENDROOT
BRANCH   1  16
ATOM     16  C   UNL     1      38.451  32.147  48.025  0.00  0.00    +0.000 C 
BRANCH  16  17
ATOM     17  C   UNL     1      37.816  31.228  48.970  0.00  0.00    +0.000 A 
ATOM     18  N   UNL     1      38.358  31.070  50.174  0.00  0.00    +0.000 NA
ATOM     19  C   UNL     1      37.843  30.240  51.116  0.00  0.00    +0.000 A 
ATOM     20  N   UNL     1      36.745  29.518  50.899  0.00  0.00    +0.000 NA
ATOM     21  C   UNL     1      36.107  29.605  49.704  0.00  0.00    +0.000 A 
ATOM     22  C   UNL     1      34.980  28.878  49.449  0.00  0.00    +0.000 A 
ATOM     23  C   UNL     1      34.335  28.957  48.255  0.00  0.00    +0.000 A 
ATOM     24  C   UNL     1      34.882  29.811  47.318  0.00  0.00    +0.000 A 
ATOM     25  C   UNL     1      36.016  30.528  47.606  0.00  0.00    +0.000 A 
ATOM     26  C   UNL     1      36.679  30.462  48.799  0.00  0.00    +0.000 A 
ENDBRANCH  16  17
BRANCH  16  27
ATOM     27  O   UNL     1      38.103  33.340  48.501  0.00  0.00    +0.000 OA
ATOM     28  H   UNL     1      38.110  33.315  49.491  0.00  0.00    +0.000 HD
ENDBRANCH  16  27
ENDBRANCH   1  16
TORSDOF 3
