REMARK  Name = 
REMARK  6 active torsions:
REMARK  status: ('A' for Active; 'I' for Inactive)
REMARK    1  A    between atoms: C_1  and  C_5
REMARK    2  A    between atoms: C_1  and  O_13
REMARK    3  A    between atoms: C_3  and  C_6
REMARK    4  A    between atoms: C_6  and  C_11
REMARK    5  A    between atoms: O_13  and  C_14
REMARK    6  A    between atoms: C_17  and  C_19
REMARK                            x       y       z     vdW  Elec       q    Type
REMARK                         _______ _______ _______ _____ _____    ______ ____
ROOT
ATOM      1  C   UNL     1      31.513  28.063  47.825  0.00  0.00    +0.000 A 
ATOM      2  C   UNL     1      31.109  27.538  49.155  0.00  0.00    +0.000 A 
ATOM      3  C   UNL     1      29.799  27.586  49.478  0.00  0.00    +0.000 A 
ATOM      4  C   UNL     1      28.839  28.116  48.593  0.00  0.00    +0.000 A 
ATOM      5  S   UNL     1      29.843  28.615  47.117  0.00  0.00    +0.000 S 
ENDROOT
BRANCH   4   6
ATOM      6  C   UNL     1      27.494  28.256  48.722  0.00  0.00    +0.000 A 
ATOM      7  C   UNL     1      26.543  27.252  48.855  0.00  0.00    +0.000 A 
ATOM      8  N   UNL     1      25.312  27.793  48.959  0.00  0.00    +0.000 N 
ATOM      9  C   UNL     1      25.422  29.136  48.897  0.00  0.00    +0.000 A 
ATOM     10  C   UNL     1      24.430  30.091  48.961  0.00  0.00    +0.000 A 
ATOM     11  C   UNL     1      24.786  31.421  48.876  0.00  0.00    +0.000 A 
ATOM     12  C   UNL     1      26.095  31.772  48.731  0.00  0.00    +0.000 A 
ATOM     13  C   UNL     1      27.045  30.774  48.673  0.00  0.00    +0.000 A 
ATOM     14  C   UNL     1      26.778  29.433  48.750  0.00  0.00    +0.000 A 
ATOM     15  H   UNL     1      24.433  27.267  49.068  0.00  0.00    +0.000 HD
ENDBRANCH   4   6
BRANCH   1  16
ATOM     16  O   UNL     1      32.795  28.088  47.345  0.00  0.00    +0.000 OA
BRANCH  16  17
ATOM     17  C   UNL     1      33.875  27.496  47.996  0.00  0.00    +0.000 C 
ATOM     18  O   UNL     1      34.234  26.293  47.696  0.00  0.00    +0.000 OA
BRANCH  17  21
ATOM     19  C   UNL     1      35.519  29.406  48.669  0.00  0.00    +0.000 C 
ATOM     20  C   UNL     1      34.324  29.429  49.507  0.00  0.00    +0.000 C 
ATOM     21  C   UNL     1      34.726  28.121  49.084  0.00  0.00    +0.000 C 
BRANCH  19  22
ATOM     22  C   UNL     1      36.868  29.456  49.403  0.00  0.00    +0.000 C 
BRANCH  22  27
ATOM     23  C   UNL     1      38.112  32.889  49.426  0.00  0.00    +0.000 A 
ATOM     24  C   UNL     1      38.841  32.963  48.222  0.00  0.00    +0.000 A 
ATOM     25  C   UNL     1      38.888  31.802  47.414  0.00  0.00    +0.000 A 
ATOM     26  N   UNL     1      38.226  30.683  47.848  0.00  0.00    +0.000 NA
ATOM     27  C   UNL     1      37.552  30.673  48.999  0.00  0.00    +0.000 A 
ATOM     28  N   UNL     1      37.502  31.787  49.782  0.00  0.00    +0.000 NA
ENDBRANCH  22  27
ENDBRANCH  19  22
ENDBRANCH  17  21
ENDBRANCH  16  17
ENDBRANCH   1  16
TORSDOF 6
