REMARK  Name = 
REMARK  4 active torsions:
REMARK  status: ('A' for Active; 'I' for Inactive)
REMARK    1  A    between atoms: C_1  and  C_2
REMARK    2  A    between atoms: C_1  and  C_17
REMARK    3  A    between atoms: C_1  and  O_27
REMARK    4  A    between atoms: C_10  and  C_11
REMARK                            x       y       z     vdW  Elec       q    Type
REMARK                         _______ _______ _______ _____ _____    ______ ____
ROOT
ATOM      1  C   UNL     1      38.999  32.336  46.973  0.00  0.00    +0.000 A 
ATOM      2  C   UNL     1      39.774  33.485  46.740  0.00  0.00    +0.000 A 
ATOM      3  C   UNL     1      40.522  33.600  45.516  0.00  0.00    +0.000 A 
ATOM      4  N   UNL     1      40.412  32.555  44.665  0.00  0.00    +0.000 NA
ATOM      5  C   UNL     1      39.647  31.460  44.926  0.00  0.00    +0.000 A 
ATOM      6  N   UNL     1      38.963  31.356  46.047  0.00  0.00    +0.000 NA
ATOM      7  N   UNL     1      39.602  30.411  43.947  0.00  0.00    +0.000 N 
ATOM      8  C   UNL     1      40.684  30.182  43.161  0.00  0.00    +0.000 A 
ATOM      9  C   UNL     1      40.533  29.137  42.241  0.00  0.00    +0.000 A 
ATOM     10  C   UNL     1      41.661  28.810  41.337  0.00  0.00    +0.000 C 
ATOM     11  C   UNL     1      39.374  28.395  42.138  0.00  0.00    +0.000 A 
ATOM     12  O   UNL     1      39.283  27.464  41.297  0.00  0.00    +0.000 OA
ATOM     13  N   UNL     1      38.331  28.666  42.945  0.00  0.00    +0.000 N 
ATOM     14  C   UNL     1      38.481  29.676  43.831  0.00  0.00    +0.000 A 
ATOM     15  O   UNL     1      37.485  29.924  44.591  0.00  0.00    +0.000 OA
ATOM     16  H   UNL     1      37.455  28.126  42.890  0.00  0.00    +0.000 HD
ENDROOT
BRANCH   1  17
ATOM     17  C   UNL     1      38.465  32.348  48.304  0.00  0.00    +0.000 C 
BRANCH  17  18
ATOM     18  C   UNL     1      37.879  31.316  49.158  0.00  0.00    +0.000 A 
ATOM     19  N   UNL     1      38.418  31.087  50.353  0.00  0.00    +0.000 NA
ATOM     20  C   UNL     1      37.949  30.143  51.206  0.00  0.00    +0.000 A 
ATOM     21  N   UNL     1      36.904  29.369  50.913  0.00  0.00    +0.000 NA
ATOM     22  C   UNL     1      36.288  29.523  49.733  0.00  0.00    +0.000 A 
ATOM     23  C   UNL     1      35.208  28.741  49.368  0.00  0.00    +0.000 A 
ATOM     24  C   UNL     1      34.578  28.877  48.170  0.00  0.00    +0.000 A 
ATOM     25  C   UNL     1      35.076  29.844  47.330  0.00  0.00    +0.000 A 
ATOM     26  C   UNL     1      36.150  30.611  47.708  0.00  0.00    +0.000 A 
ATOM     27  C   UNL     1      36.800  30.495  48.900  0.00  0.00    +0.000 A 
ENDBRANCH  17  18
BRANCH  17  28
ATOM     28  O   UNL     1      37.982  33.469  48.837  0.00  0.00    +0.000 OA
ATOM     29  H   UNL     1      38.010  33.404  49.824  0.00  0.00    +0.000 HD
ENDBRANCH  17  28
ENDBRANCH   1  17
TORSDOF 3
