REMARK  Name = 
REMARK  3 active torsions:
REMARK  status: ('A' for Active; 'I' for Inactive)
REMARK    1  A    between atoms: C_3  and  C_16
REMARK    2  A    between atoms: C_5  and  C_7
REMARK    3  A    between atoms: C_20  and  C_22
REMARK                            x       y       z     vdW  Elec       q    Type
REMARK                         _______ _______ _______ _____ _____    ______ ____
ROOT
ATOM      1  C   UNL     1      31.919  29.421  46.235  0.00  0.00    +0.000 A 
ATOM      2  C   UNL     1      31.736  28.036  46.260  0.00  0.00    +0.000 A 
ATOM      3  C   UNL     1      32.802  27.255  46.763  0.00  0.00    +0.000 A 
ATOM      4  N   UNL     1      33.929  27.861  47.190  0.00  0.00    +0.000 NA
ATOM      5  C   UNL     1      34.063  29.210  47.149  0.00  0.00    +0.000 A 
ATOM      6  N   UNL     1      33.073  29.984  46.678  0.00  0.00    +0.000 NA
ENDROOT
BRANCH   5   7
ATOM      7  C   UNL     1      35.319  29.762  47.635  0.00  0.00    +0.000 A 
ATOM      8  C   UNL     1      36.241  30.419  46.841  0.00  0.00    +0.000 A 
ATOM      9  N   UNL     1      37.289  30.809  47.570  0.00  0.00    +0.000 N 
ATOM     10  C   UNL     1      37.071  30.415  48.852  0.00  0.00    +0.000 A 
ATOM     11  C   UNL     1      37.830  30.558  50.014  0.00  0.00    +0.000 A 
ATOM     12  C   UNL     1      37.343  30.042  51.200  0.00  0.00    +0.000 A 
ATOM     13  C   UNL     1      36.125  29.402  51.214  0.00  0.00    +0.000 A 
ATOM     14  C   UNL     1      35.342  29.242  50.069  0.00  0.00    +0.000 A 
ATOM     15  C   UNL     1      35.857  29.768  48.899  0.00  0.00    +0.000 A 
ATOM     16  H   UNL     1      38.115  31.317  47.223  0.00  0.00    +0.000 HD
ENDBRANCH   5   7
BRANCH   3  17
ATOM     17  C   UNL     1      32.659  25.798  46.812  0.00  0.00    +0.000 A 
ATOM     18  C   UNL     1      33.609  25.052  47.448  0.00  0.00    +0.000 A 
ATOM     19  C   UNL     1      33.381  23.698  47.442  0.00  0.00    +0.000 A 
ATOM     20  N   UNL     1      32.309  23.135  46.860  0.00  0.00    +0.000 NA
ATOM     21  C   UNL     1      31.381  23.890  46.237  0.00  0.00    +0.000 A 
ATOM     22  N   UNL     1      31.601  25.220  46.240  0.00  0.00    +0.000 NA
BRANCH  21  23
ATOM     23  C   UNL     1      30.137  23.551  45.524  0.00  0.00    +0.000 A 
ATOM     24  N   UNL     1      29.552  24.376  44.609  0.00  0.00    +0.000 NA
ATOM     25  C   UNL     1      28.427  24.084  43.957  0.00  0.00    +0.000 A 
ATOM     26  N   UNL     1      27.776  22.928  44.161  0.00  0.00    +0.000 NA
ATOM     27  C   UNL     1      28.276  22.043  45.050  0.00  0.00    +0.000 A 
ATOM     28  C   UNL     1      27.596  20.862  45.248  0.00  0.00    +0.000 A 
ATOM     29  C   UNL     1      28.076  19.936  46.147  0.00  0.00    +0.000 A 
ATOM     30  C   UNL     1      29.257  20.259  46.821  0.00  0.00    +0.000 A 
ATOM     31  C   UNL     1      29.882  21.452  46.577  0.00  0.00    +0.000 A 
ATOM     32  C   UNL     1      29.433  22.382  45.698  0.00  0.00    +0.000 A 
ENDBRANCH  21  23
ENDBRANCH   3  17
TORSDOF 3
