REMARK  Name = 
REMARK  3 active torsions:
REMARK  status: ('A' for Active; 'I' for Inactive)
REMARK    1  A    between atoms: C_2  and  C_7
REMARK    2  A    between atoms: C_5  and  C_17
REMARK    3  A    between atoms: C_19  and  C_20
REMARK                            x       y       z     vdW  Elec       q    Type
REMARK                         _______ _______ _______ _____ _____    ______ ____
ROOT
ATOM      1  C   UNL     1      34.335  30.163  47.410  0.00  0.00    +0.000 A 
ATOM      2  C   UNL     1      35.458  30.081  48.216  0.00  0.00    +0.000 A 
ATOM      3  C   UNL     1      35.495  28.931  49.067  0.00  0.00    +0.000 A 
ATOM      4  N   UNL     1      34.475  28.031  49.038  0.00  0.00    +0.000 NA
ATOM      5  C   UNL     1      33.428  28.185  48.232  0.00  0.00    +0.000 A 
ATOM      6  N   UNL     1      33.356  29.245  47.421  0.00  0.00    +0.000 NA
ENDROOT
BRANCH   2   7
ATOM      7  C   UNL     1      36.589  30.976  48.325  0.00  0.00    +0.000 A 
ATOM      8  C   UNL     1      36.619  31.591  49.548  0.00  0.00    +0.000 A 
ATOM      9  C   UNL     1      37.634  32.505  49.872  0.00  0.00    +0.000 A 
ATOM     10  C   UNL     1      38.614  32.784  48.942  0.00  0.00    +0.000 A 
ATOM     11  C   UNL     1      38.564  32.156  47.722  0.00  0.00    +0.000 A 
ATOM     12  C   UNL     1      39.511  32.369  46.705  0.00  0.00    +0.000 A 
ATOM     13  C   UNL     1      39.405  31.708  45.500  0.00  0.00    +0.000 A 
ATOM     14  C   UNL     1      38.387  30.820  45.238  0.00  0.00    +0.000 A 
ATOM     15  C   UNL     1      37.447  30.602  46.235  0.00  0.00    +0.000 A 
ATOM     16  C   UNL     1      37.573  31.270  47.420  0.00  0.00    +0.000 A 
ENDBRANCH   2   7
BRANCH   5  17
ATOM     17  C   UNL     1      32.340  27.161  48.257  0.00  0.00    +0.000 C 
ATOM     18  C   UNL     1      31.083  27.459  48.995  0.00  0.00    +0.000 C 
ATOM     19  C   UNL     1      31.074  27.414  47.489  0.00  0.00    +0.000 C 
BRANCH  19  20
ATOM     20  C   UNL     1      30.487  26.225  46.823  0.00  0.00    +0.000 A 
ATOM     21  C   UNL     1      29.129  26.256  46.535  0.00  0.00    +0.000 A 
ATOM     22  C   UNL     1      28.507  25.192  45.918  0.00  0.00    +0.000 A 
ATOM     23  C   UNL     1      29.222  24.064  45.567  0.00  0.00    +0.000 A 
ATOM     24  C   UNL     1      30.589  24.065  45.870  0.00  0.00    +0.000 A 
ATOM     25  N   UNL     1      31.145  25.112  46.466  0.00  0.00    +0.000 NA
ENDBRANCH  19  20
ENDBRANCH   5  17
TORSDOF 3
