REMARK  Name = 
REMARK  3 active torsions:
REMARK  status: ('A' for Active; 'I' for Inactive)
REMARK    1  A    between atoms: C_1  and  C_2
REMARK    2  A    between atoms: C_1  and  C_12
REMARK    3  A    between atoms: C_1  and  O_23
REMARK                            x       y       z     vdW  Elec       q    Type
REMARK                         _______ _______ _______ _____ _____    ______ ____
ROOT
ATOM      1  C   UNL     1      38.587  32.196  48.015  0.00  0.00    +0.000 C 
ENDROOT
BRANCH   1   2
ATOM      2  C   UNL     1      39.118  32.073  46.688  0.00  0.00    +0.000 A 
ATOM      3  C   UNL     1      39.869  33.210  46.344  0.00  0.00    +0.000 A 
ATOM      4  C   UNL     1      40.608  33.210  45.103  0.00  0.00    +0.000 A 
ATOM      5  N   UNL     1      40.514  32.085  44.354  0.00  0.00    +0.000 NA
ATOM      6  C   UNL     1      39.768  31.012  44.733  0.00  0.00    +0.000 A 
ATOM      7  N   UNL     1      39.086  31.000  45.866  0.00  0.00    +0.000 NA
ATOM      8  N   UNL     1      39.713  29.863  43.893  0.00  0.00    +0.000 N 
ATOM      9  C   UNL     1      40.526  29.809  42.799  0.00  0.00    +0.000 A 
ATOM     10  N   UNL     1      40.296  28.643  42.172  0.00  0.00    +0.000 NA
ATOM     11  C   UNL     1      39.347  27.967  42.860  0.00  0.00    +0.000 A 
ATOM     12  N   UNL     1      38.997  28.735  43.923  0.00  0.00    +0.000 NA
ENDBRANCH   1   2
BRANCH   1  13
ATOM     13  C   UNL     1      37.922  31.264  48.922  0.00  0.00    +0.000 A 
ATOM     14  N   UNL     1      38.415  31.094  50.146  0.00  0.00    +0.000 NA
ATOM     15  C   UNL     1      37.872  30.243  51.056  0.00  0.00    +0.000 A 
ATOM     16  N   UNL     1      36.795  29.510  50.783  0.00  0.00    +0.000 NA
ATOM     17  C   UNL     1      36.219  29.609  49.578  0.00  0.00    +0.000 A 
ATOM     18  C   UNL     1      35.104  28.868  49.236  0.00  0.00    +0.000 A 
ATOM     19  C   UNL     1      34.509  28.950  48.020  0.00  0.00    +0.000 A 
ATOM     20  C   UNL     1      35.083  29.825  47.129  0.00  0.00    +0.000 A 
ATOM     21  C   UNL     1      36.190  30.555  47.479  0.00  0.00    +0.000 A 
ATOM     22  C   UNL     1      36.807  30.488  48.693  0.00  0.00    +0.000 A 
ENDBRANCH   1  13
BRANCH   1  23
ATOM     23  O   UNL     1      38.212  33.382  48.489  0.00  0.00    +0.000 OA
ATOM     24  H   UNL     1      38.219  33.359  49.479  0.00  0.00    +0.000 HD
ENDBRANCH   1  23
TORSDOF 3
