REMARK  Name = 
REMARK  4 active torsions:
REMARK  status: ('A' for Active; 'I' for Inactive)
REMARK    1  A    between atoms: C_1  and  C_2
REMARK    2  A    between atoms: C_1  and  C_12
REMARK    3  A    between atoms: C_1  and  O_24
REMARK    4  A    between atoms: C_16  and  C_18
REMARK                            x       y       z     vdW  Elec       q    Type
REMARK                         _______ _______ _______ _____ _____    ______ ____
ROOT
ATOM      1  C   UNL     1      38.605  32.213  48.017  0.00  0.00    +0.000 C 
ENDROOT
BRANCH   1   2
ATOM      2  C   UNL     1      37.938  31.265  48.907  0.00  0.00    +0.000 A 
ATOM      3  N   UNL     1      38.427  31.082  50.133  0.00  0.00    +0.000 NA
ATOM      4  C   UNL     1      37.880  30.218  51.024  0.00  0.00    +0.000 A 
ATOM      5  N   UNL     1      36.806  29.482  50.738  0.00  0.00    +0.000 NA
ATOM      6  C   UNL     1      36.229  29.594  49.515  0.00  0.00    +0.000 A 
ATOM      7  C   UNL     1      35.130  28.849  49.181  0.00  0.00    +0.000 A 
ATOM      8  C   UNL     1      34.546  28.943  47.957  0.00  0.00    +0.000 A 
ATOM      9  C   UNL     1      35.122  29.831  47.073  0.00  0.00    +0.000 A 
ATOM     10  C   UNL     1      36.223  30.563  47.439  0.00  0.00    +0.000 A 
ATOM     11  C   UNL     1      36.827  30.485  48.661  0.00  0.00    +0.000 A 
ENDBRANCH   1   2
BRANCH   1  12
ATOM     12  C   UNL     1      39.115  32.120  46.680  0.00  0.00    +0.000 A 
ATOM     13  C   UNL     1      39.755  33.311  46.303  0.00  0.00    +0.000 A 
ATOM     14  C   UNL     1      40.463  33.382  45.060  0.00  0.00    +0.000 A 
ATOM     15  N   UNL     1      40.453  32.245  44.324  0.00  0.00    +0.000 NA
ATOM     16  C   UNL     1      39.819  31.105  44.715  0.00  0.00    +0.000 A 
ATOM     17  N   UNL     1      39.167  31.047  45.863  0.00  0.00    +0.000 NA
BRANCH  16  18
ATOM     18  C   UNL     1      39.882  29.947  43.822  0.00  0.00    +0.000 A 
ATOM     19  C   UNL     1      40.833  29.911  42.821  0.00  0.00    +0.000 A 
ATOM     20  C   UNL     1      40.879  28.811  41.987  0.00  0.00    +0.000 A 
ATOM     21  N   UNL     1      40.012  27.797  42.156  0.00  0.00    +0.000 NA
ATOM     22  C   UNL     1      39.070  27.829  43.145  0.00  0.00    +0.000 A 
ATOM     23  N   UNL     1      39.026  28.916  43.967  0.00  0.00    +0.000 NA
ENDBRANCH  16  18
ENDBRANCH   1  12
BRANCH   1  24
ATOM     24  O   UNL     1      38.243  33.389  48.526  0.00  0.00    +0.000 OA
ATOM     25  H   UNL     1      38.258  33.339  49.515  0.00  0.00    +0.000 HD
ENDBRANCH   1  24
TORSDOF 4
