REMARK  Name = 
REMARK  3 active torsions:
REMARK  status: ('A' for Active; 'I' for Inactive)
REMARK    1  A    between atoms: C_1  and  C_18
REMARK    2  A    between atoms: C_18  and  C_19
REMARK    3  A    between atoms: C_18  and  O_29
REMARK                            x       y       z     vdW  Elec       q    Type
REMARK                         _______ _______ _______ _____ _____    ______ ____
ROOT
ATOM      1  C   UNL     1      39.112  31.946  46.547  0.00  0.00    +0.000 A 
ATOM      2  C   UNL     1      39.902  33.041  46.162  0.00  0.00    +0.000 A 
ATOM      3  C   UNL     1      40.620  32.978  44.917  0.00  0.00    +0.000 A 
ATOM      4  N   UNL     1      40.472  31.841  44.197  0.00  0.00    +0.000 NA
ATOM      5  C   UNL     1      39.691  30.808  44.611  0.00  0.00    +0.000 A 
ATOM      6  N   UNL     1      39.030  30.860  45.752  0.00  0.00    +0.000 NA
ATOM      7  N   UNL     1      39.574  29.637  43.807  0.00  0.00    +0.000 N 
ATOM      8  C   UNL     1      38.772  28.581  44.037  0.00  0.00    +0.000 A 
ATOM      9  N   UNL     1      38.882  27.642  43.111  0.00  0.00    +0.000 NA
ATOM     10  C   UNL     1      39.787  28.066  42.218  0.00  0.00    +0.000 A 
ATOM     11  C   UNL     1      40.286  27.497  41.065  0.00  0.00    +0.000 A 
ATOM     12  O   UNL     1      39.857  26.368  40.721  0.00  0.00    +0.000 OA
ATOM     13  N   UNL     1      41.212  28.202  40.375  0.00  0.00    +0.000 N 
ATOM     14  C   UNL     1      41.629  29.426  40.811  0.00  0.00    +0.000 A 
ATOM     15  N   UNL     1      42.607  30.006  39.948  0.00  0.00    +0.000 N 
ATOM     16  N   UNL     1      41.130  29.968  41.943  0.00  0.00    +0.000 NA
ATOM     17  C   UNL     1      40.210  29.313  42.667  0.00  0.00    +0.000 A 
ATOM     18  H   UNL     1      41.608  27.809  39.509  0.00  0.00    +0.000 HD
ATOM     19  H   UNL     1      43.003  30.931  40.167  0.00  0.00    +0.000 HD
ATOM     20  H   UNL     1      42.917  29.499  39.106  0.00  0.00    +0.000 HD
ENDROOT
BRANCH   1  21
ATOM     21  C   UNL     1      38.603  32.127  47.876  0.00  0.00    +0.000 C 
BRANCH  21  22
ATOM     22  C   UNL     1      37.928  31.241  48.822  0.00  0.00    +0.000 A 
ATOM     23  N   UNL     1      38.430  31.109  50.050  0.00  0.00    +0.000 NA
ATOM     24  C   UNL     1      37.876  30.302  50.988  0.00  0.00    +0.000 A 
ATOM     25  N   UNL     1      36.781  29.576  50.756  0.00  0.00    +0.000 NA
ATOM     26  C   UNL     1      36.190  29.641  49.538  0.00  0.00    +0.000 A 
ATOM     27  C   UNL     1      35.074  28.900  49.256  0.00  0.00    +0.000 A 
ATOM     28  C   UNL     1      34.478  28.950  48.020  0.00  0.00    +0.000 A 
ATOM     29  C   UNL     1      35.059  29.776  47.097  0.00  0.00    +0.000 A 
ATOM     30  C   UNL     1      36.179  30.504  47.415  0.00  0.00    +0.000 A 
ATOM     31  C   UNL     1      36.795  30.477  48.628  0.00  0.00    +0.000 A 
ENDBRANCH  21  22
BRANCH  21  32
ATOM     32  O   UNL     1      38.259  33.336  48.318  0.00  0.00    +0.000 OA
ATOM     33  H   UNL     1      38.258  33.338  49.308  0.00  0.00    +0.000 HD
ENDBRANCH  21  32
ENDBRANCH   1  21
TORSDOF 3
