REMARK  Name = 
REMARK  2 active torsions:
REMARK  status: ('A' for Active; 'I' for Inactive)
REMARK    1  A    between atoms: C_3  and  C_17
REMARK    2  A    between atoms: C_5  and  C_7
REMARK                            x       y       z     vdW  Elec       q    Type
REMARK                         _______ _______ _______ _____ _____    ______ ____
ROOT
ATOM      1  C   UNL     1      33.570  26.870  47.709  0.00  0.00    +0.000 A 
ATOM      2  C   UNL     1      32.736  27.479  46.784  0.00  0.00    +0.000 A 
ATOM      3  C   UNL     1      32.852  28.841  46.664  0.00  0.00    +0.000 A 
ATOM      4  N   UNL     1      33.749  29.440  47.450  0.00  0.00    +0.000 NA
ATOM      5  C   UNL     1      34.556  28.906  48.335  0.00  0.00    +0.000 A 
ATOM      6  N   UNL     1      34.414  27.603  48.416  0.00  0.00    +0.000 NA
ENDROOT
BRANCH   5   7
ATOM      7  C   UNL     1      35.551  29.444  49.232  0.00  0.00    +0.000 A 
ATOM      8  C   UNL     1      35.579  29.146  50.610  0.00  0.00    +0.000 A 
ATOM      9  C   UNL     1      36.516  29.651  51.473  0.00  0.00    +0.000 A 
ATOM     10  C   UNL     1      37.492  30.492  51.019  0.00  0.00    +0.000 A 
ATOM     11  C   UNL     1      37.517  30.817  49.700  0.00  0.00    +0.000 A 
ATOM     12  C   UNL     1      38.521  31.664  49.293  0.00  0.00    +0.000 A 
ATOM     13  C   UNL     1      38.612  32.032  47.983  0.00  0.00    +0.000 A 
ATOM     14  C   UNL     1      37.673  31.531  47.092  0.00  0.00    +0.000 A 
ATOM     15  C   UNL     1      36.691  30.687  47.560  0.00  0.00    +0.000 A 
ATOM     16  C   UNL     1      36.565  30.296  48.850  0.00  0.00    +0.000 A 
ENDBRANCH   5   7
BRANCH   3  17
ATOM     17  C   UNL     1      32.084  29.751  45.853  0.00  0.00    +0.000 A 
ATOM     18  C   UNL     1      32.760  30.580  44.943  0.00  0.00    +0.000 A 
ATOM     19  C   UNL     1      32.167  31.484  44.094  0.00  0.00    +0.000 A 
ATOM     20  C   UNL     1      30.798  31.622  44.103  0.00  0.00    +0.000 A 
ATOM     21  C   UNL     1      30.075  30.842  44.965  0.00  0.00    +0.000 A 
ATOM     22  C   UNL     1      28.704  30.944  44.958  0.00  0.00    +0.000 A 
ATOM     23  C   UNL     1      27.897  30.154  45.780  0.00  0.00    +0.000 A 
ATOM     24  C   UNL     1      28.567  29.263  46.599  0.00  0.00    +0.000 A 
ATOM     25  C   UNL     1      29.939  29.189  46.581  0.00  0.00    +0.000 A 
ATOM     26  C   UNL     1      30.734  29.966  45.778  0.00  0.00    +0.000 A 
ENDBRANCH   3  17
TORSDOF 2
