REMARK  Name = 
REMARK  3 active torsions:
REMARK  status: ('A' for Active; 'I' for Inactive)
REMARK    1  A    between atoms: C_1  and  C_18
REMARK    2  A    between atoms: C_18  and  O_20
REMARK    3  A    between atoms: O_20  and  C_21
REMARK                            x       y       z     vdW  Elec       q    Type
REMARK                         _______ _______ _______ _____ _____    ______ ____
ROOT
ATOM      1  C   UNL     1      37.687  32.019  48.865  0.00  0.00    +0.000 A 
ATOM      2  C   UNL     1      38.206  33.152  49.472  0.00  0.00    +0.000 A 
ATOM      3  C   UNL     1      39.203  33.859  48.773  0.00  0.00    +0.000 A 
ATOM      4  N   UNL     1      39.603  33.403  47.553  0.00  0.00    +0.000 NA
ATOM      5  C   UNL     1      39.064  32.294  47.009  0.00  0.00    +0.000 A 
ATOM      6  N   UNL     1      38.107  31.598  47.657  0.00  0.00    +0.000 NA
ATOM      7  N   UNL     1      39.560  31.912  45.730  0.00  0.00    +0.000 N 
ATOM      8  C   UNL     1      40.714  31.242  45.546  0.00  0.00    +0.000 A 
ATOM      9  N   UNL     1      40.927  31.019  44.234  0.00  0.00    +0.000 NA
ATOM     10  C   UNL     1      39.895  31.552  43.547  0.00  0.00    +0.000 A 
ATOM     11  C   UNL     1      39.627  31.599  42.196  0.00  0.00    +0.000 A 
ATOM     12  O   UNL     1      40.403  31.092  41.350  0.00  0.00    +0.000 OA
ATOM     13  N   UNL     1      38.488  32.218  41.832  0.00  0.00    +0.000 N 
ATOM     14  C   UNL     1      37.664  32.760  42.775  0.00  0.00    +0.000 A 
ATOM     15  N   UNL     1      36.496  33.383  42.253  0.00  0.00    +0.000 N 
ATOM     16  N   UNL     1      37.924  32.717  44.109  0.00  0.00    +0.000 NA
ATOM     17  C   UNL     1      39.057  32.102  44.496  0.00  0.00    +0.000 A 
ATOM     18  H   UNL     1      38.237  32.283  40.835  0.00  0.00    +0.000 HD
ATOM     19  H   UNL     1      35.816  33.819  42.892  0.00  0.00    +0.000 HD
ATOM     20  H   UNL     1      36.331  33.398  41.236  0.00  0.00    +0.000 HD
ENDROOT
BRANCH   1  21
ATOM     21  C   UNL     1      36.660  31.284  49.574  0.00  0.00    +0.000 C 
ATOM     22  O   UNL     1      35.661  30.807  48.967  0.00  0.00    +0.000 OA
BRANCH  21  23
ATOM     23  O   UNL     1      36.754  31.086  50.944  0.00  0.00    +0.000 OA
BRANCH  23  24
ATOM     24  C   UNL     1      36.961  29.737  51.372  0.00  0.00    +0.000 C 
ATOM     25  F   UNL     1      35.764  29.098  51.596  0.00  0.00    +0.000 F 
ATOM     26  F   UNL     1      37.726  29.774  52.538  0.00  0.00    +0.000 F 
ATOM     27  F   UNL     1      37.677  29.018  50.433  0.00  0.00    +0.000 F 
ENDBRANCH  23  24
ENDBRANCH  21  23
ENDBRANCH   1  21
TORSDOF 3
