REMARK  Name = 
REMARK  4 active torsions:
REMARK  status: ('A' for Active; 'I' for Inactive)
REMARK    1  A    between atoms: C_1  and  C_15
REMARK    2  A    between atoms: C_4  and  O_22
REMARK    3  A    between atoms: C_13  and  N_17
REMARK    4  A    between atoms: O_22  and  C_23
REMARK                            x       y       z     vdW  Elec       q    Type
REMARK                         _______ _______ _______ _____ _____    ______ ____
ROOT
ATOM      1  C   UNL     1      36.839  30.791  46.091  0.00  0.00    +0.000 A 
ATOM      2  C   UNL     1      35.824  30.031  46.660  0.00  0.00    +0.000 A 
ATOM      3  C   UNL     1      35.519  29.984  47.983  0.00  0.00    +0.000 A 
ATOM      4  C   UNL     1      36.243  30.728  48.875  0.00  0.00    +0.000 A 
ATOM      5  C   UNL     1      37.247  31.492  48.395  0.00  0.00    +0.000 A 
ATOM      6  C   UNL     1      37.974  32.242  49.303  0.00  0.00    +0.000 A 
ATOM      7  C   UNL     1      39.004  33.040  48.902  0.00  0.00    +0.000 A 
ATOM      8  C   UNL     1      39.307  33.082  47.552  0.00  0.00    +0.000 A 
ATOM      9  C   UNL     1      38.564  32.326  46.689  0.00  0.00    +0.000 A 
ATOM     10  C   UNL     1      37.539  31.526  47.047  0.00  0.00    +0.000 A 
ENDROOT
BRANCH   1  15
ATOM     11  C   UNL     1      36.094  31.298  42.614  0.00  0.00    +0.000 A 
ATOM     12  C   UNL     1      37.274  30.997  41.910  0.00  0.00    +0.000 A 
ATOM     13  C   UNL     1      38.351  30.611  42.646  0.00  0.00    +0.000 A 
ATOM     14  N   UNL     1      38.173  30.559  43.957  0.00  0.00    +0.000 NA
ATOM     15  C   UNL     1      37.133  30.816  44.681  0.00  0.00    +0.000 A 
ATOM     16  N   UNL     1      36.099  31.189  43.944  0.00  0.00    +0.000 NA
BRANCH  13  17
ATOM     17  N   UNL     1      39.617  30.261  42.105  0.00  0.00    +0.000 N 
ATOM     18  C   UNL     1      40.742  29.930  42.898  0.00  0.00    +0.000 C 
ATOM     19  N   UNL     1      40.936  30.662  43.940  0.00  0.00    +0.000 NA
ATOM     20  N   UNL     1      41.603  28.859  42.561  0.00  0.00    +0.000 N 
ATOM     21  H   UNL     1      41.692  30.574  44.625  0.00  0.00    +0.000 HD
ATOM     22  H   UNL     1      39.722  30.247  41.081  0.00  0.00    +0.000 HD
ATOM     23  H   UNL     1      42.414  28.643  43.158  0.00  0.00    +0.000 HD
ATOM     24  H   UNL     1      41.419  28.296  41.718  0.00  0.00    +0.000 HD
ENDBRANCH  13  17
ENDBRANCH   1  15
BRANCH   4  25
ATOM     25  O   UNL     1      35.918  30.666  50.211  0.00  0.00    +0.000 OA
BRANCH  25  26
ATOM     26  C   UNL     1      36.420  29.631  51.030  0.00  0.00    +0.000 C 
ATOM     27  F   UNL     1      37.233  28.736  50.406  0.00  0.00    +0.000 F 
ATOM     28  F   UNL     1      37.192  30.242  52.018  0.00  0.00    +0.000 F 
ATOM     29  F   UNL     1      35.313  29.000  51.584  0.00  0.00    +0.000 F 
ENDBRANCH  25  26
ENDBRANCH   4  25
TORSDOF 4
