REMARK  Name = 
REMARK  6 active torsions:
REMARK  status: ('A' for Active; 'I' for Inactive)
REMARK    1  A    between atoms: C_1  and  C_11
REMARK    2  A    between atoms: C_6  and  C_17
REMARK    3  A    between atoms: C_8  and  C_13
REMARK    4  A    between atoms: C_17  and  C_18
REMARK    5  A    between atoms: C_18  and  C_19
REMARK    6  A    between atoms: N_22  and  C_28
REMARK                            x       y       z     vdW  Elec       q    Type
REMARK                         _______ _______ _______ _____ _____    ______ ____
ROOT
ATOM      1  C   UNL     1      31.579  26.514  47.773  0.00  0.00    +0.000 A 
ATOM      2  C   UNL     1      31.332  25.330  47.179  0.00  0.00    +0.000 A 
ATOM      3  C   UNL     1      32.332  24.471  46.745  0.00  0.00    +0.000 A 
ATOM      4  C   UNL     1      33.630  24.896  46.954  0.00  0.00    +0.000 A 
ATOM      5  C   UNL     1      33.901  26.100  47.558  0.00  0.00    +0.000 A 
ATOM      6  C   UNL     1      32.880  26.924  47.975  0.00  0.00    +0.000 A 
ENDROOT
BRANCH   1  11
ATOM      7  C   UNL     1      29.065  28.226  49.856  0.00  0.00    +0.000 A 
ATOM      8  C   UNL     1      28.440  29.091  48.920  0.00  0.00    +0.000 A 
ATOM      9  C   UNL     1      28.907  29.055  47.602  0.00  0.00    +0.000 A 
ATOM     10  N   UNL     1      29.933  28.194  47.284  0.00  0.00    +0.000 NA
ATOM     11  C   UNL     1      30.493  27.391  48.217  0.00  0.00    +0.000 A 
ATOM     12  N   UNL     1      30.053  27.423  49.471  0.00  0.00    +0.000 NA
BRANCH   8  13
ATOM     13  C   UNL     1      27.336  30.006  49.292  0.00  0.00    +0.000 C 
ATOM     14  F   UNL     1      27.716  30.996  50.154  0.00  0.00    +0.000 F 
ATOM     15  F   UNL     1      26.283  29.323  49.874  0.00  0.00    +0.000 F 
ATOM     16  F   UNL     1      26.846  30.635  48.131  0.00  0.00    +0.000 F 
ENDBRANCH   8  13
ENDBRANCH   1  11
BRANCH   6  17
ATOM     17  C   UNL     1      33.127  28.223  48.628  0.00  0.00    +0.000 C 
BRANCH  17  18
ATOM     18  C   UNL     1      33.950  29.175  47.835  0.00  0.00    +0.000 C 
BRANCH  18  19
ATOM     19  C   UNL     1      35.184  29.506  48.547  0.00  0.00    +0.000 A 
ATOM     20  C   UNL     1      35.636  28.809  49.654  0.00  0.00    +0.000 A 
ATOM     21  C   UNL     1      36.819  29.364  50.094  0.00  0.00    +0.000 A 
ATOM     22  N   UNL     1      37.052  30.401  49.220  0.00  0.00    +0.000 N 
ATOM     23  N   UNL     1      36.092  30.481  48.315  0.00  0.00    +0.000 NA
BRANCH  22  28
ATOM     24  N   UNL     1      38.963  31.295  48.065  0.00  0.00    +0.000 NA
ATOM     25  C   UNL     1      39.079  32.661  47.616  0.00  0.00    +0.000 C 
ATOM     26  C   UNL     1      38.909  33.478  48.876  0.00  0.00    +0.000 C 
ATOM     27  C   UNL     1      37.842  32.700  49.609  0.00  0.00    +0.000 C 
ATOM     28  C   UNL     1      38.215  31.289  49.299  0.00  0.00    +0.000 C 
ATOM     29  H   UNL     1      39.901  30.899  48.224  0.00  0.00    +0.000 HD
ENDBRANCH  22  28
ENDBRANCH  18  19
ENDBRANCH  17  18
ENDBRANCH   6  17
TORSDOF 6
