REMARK  Name = 
REMARK  2 active torsions:
REMARK  status: ('A' for Active; 'I' for Inactive)
REMARK    1  A    between atoms: C_1  and  C_17
REMARK    2  A    between atoms: C_3  and  C_7
REMARK                            x       y       z     vdW  Elec       q    Type
REMARK                         _______ _______ _______ _____ _____    ______ ____
ROOT
ATOM      1  C   UNL     1      36.697  29.917  49.514  0.00  0.00    +0.000 A 
ATOM      2  C   UNL     1      37.793  30.378  48.802  0.00  0.00    +0.000 A 
ATOM      3  C   UNL     1      37.687  30.759  47.483  0.00  0.00    +0.000 A 
ATOM      4  N   UNL     1      36.430  30.653  46.938  0.00  0.00    +0.000 NA
ATOM      5  C   UNL     1      35.361  30.206  47.633  0.00  0.00    +0.000 A 
ATOM      6  N   UNL     1      35.523  29.850  48.899  0.00  0.00    +0.000 NA
ENDROOT
BRANCH   3   7
ATOM      7  C   UNL     1      38.666  31.321  46.591  0.00  0.00    +0.000 A 
ATOM      8  C   UNL     1      39.218  32.561  46.957  0.00  0.00    +0.000 A 
ATOM      9  C   UNL     1      40.156  33.248  46.220  0.00  0.00    +0.000 A 
ATOM     10  C   UNL     1      40.604  32.710  45.037  0.00  0.00    +0.000 A 
ATOM     11  C   UNL     1      40.110  31.500  44.608  0.00  0.00    +0.000 A 
ATOM     12  C   UNL     1      40.520  30.971  43.418  0.00  0.00    +0.000 A 
ATOM     13  C   UNL     1      40.017  29.767  42.923  0.00  0.00    +0.000 A 
ATOM     14  C   UNL     1      39.061  29.139  43.730  0.00  0.00    +0.000 A 
ATOM     15  C   UNL     1      38.678  29.704  44.920  0.00  0.00    +0.000 A 
ATOM     16  C   UNL     1      39.179  30.884  45.402  0.00  0.00    +0.000 A 
ENDBRANCH   3   7
BRANCH   1  17
ATOM     17  C   UNL     1      36.875  29.500  50.937  0.00  0.00    +0.000 C 
ATOM     18  F   UNL     1      35.663  29.121  51.470  0.00  0.00    +0.000 F 
ATOM     19  F   UNL     1      37.814  28.498  50.968  0.00  0.00    +0.000 F 
ATOM     20  F   UNL     1      37.347  30.591  51.642  0.00  0.00    +0.000 F 
ENDBRANCH   1  17
TORSDOF 2
