REMARK  Name = 
REMARK  1 active torsions:
REMARK  status: ('A' for Active; 'I' for Inactive)
REMARK    1  A    between atoms: C_1  and  C_23
REMARK                            x       y       z     vdW  Elec       q    Type
REMARK                         _______ _______ _______ _____ _____    ______ ____
ROOT
ATOM      1  C   UNL     1      36.922  29.926  49.805  0.00  0.00    +0.000 A 
ATOM      2  C   UNL     1      38.011  30.715  49.420  0.00  0.00    +0.000 A 
ATOM      3  C   UNL     1      38.047  31.164  48.087  0.00  0.00    +0.000 A 
ATOM      4  N   UNL     1      37.029  30.807  47.253  0.00  0.00    +0.000 NA
ATOM      5  C   UNL     1      36.010  30.044  47.687  0.00  0.00    +0.000 A 
ATOM      6  N   UNL     1      35.969  29.618  48.944  0.00  0.00    +0.000 NA
ATOM      7  N   UNL     1      39.115  31.961  47.636  0.00  0.00    +0.000 N 
ATOM      8  C   UNL     1      39.044  32.682  46.433  0.00  0.00    +0.000 C 
ATOM      9  N   UNL     1      38.025  32.514  45.681  0.00  0.00    +0.000 NA
ATOM     10  N   UNL     1      40.087  33.575  46.072  0.00  0.00    +0.000 N 
ATOM     11  H   UNL     1      37.953  33.061  44.782  0.00  0.00    +0.000 HD
ATOM     12  N   UNL     1      34.963  29.689  46.792  0.00  0.00    +0.000 N 
ATOM     13  C   UNL     1      34.959  29.831  45.457  0.00  0.00    +0.000 A 
ATOM     14  N   UNL     1      33.813  29.398  44.895  0.00  0.00    +0.000 NA
ATOM     15  C   UNL     1      33.033  28.956  45.896  0.00  0.00    +0.000 A 
ATOM     16  C   UNL     1      31.772  28.417  45.877  0.00  0.00    +0.000 A 
ATOM     17  O   UNL     1      31.184  28.279  44.789  0.00  0.00    +0.000 OA
ATOM     18  N   UNL     1      31.226  28.054  47.064  0.00  0.00    +0.000 N 
ATOM     19  C   UNL     1      31.943  28.241  48.205  0.00  0.00    +0.000 A 
ATOM     20  N   UNL     1      31.237  27.811  49.385  0.00  0.00    +0.000 N 
ATOM     21  N   UNL     1      33.181  28.772  48.208  0.00  0.00    +0.000 NA
ATOM     22  C   UNL     1      33.760  29.145  47.053  0.00  0.00    +0.000 A 
ATOM     23  H   UNL     1      39.973  32.017  48.204  0.00  0.00    +0.000 HD
ATOM     24  H   UNL     1      40.031  34.102  45.189  0.00  0.00    +0.000 HD
ATOM     25  H   UNL     1      40.900  33.696  46.693  0.00  0.00    +0.000 HD
ATOM     26  H   UNL     1      30.282  27.643  47.101  0.00  0.00    +0.000 HD
ATOM     27  H   UNL     1      31.678  27.902  50.311  0.00  0.00    +0.000 HD
ATOM     28  H   UNL     1      30.291  27.412  49.303  0.00  0.00    +0.000 HD
ENDROOT
BRANCH   1  29
ATOM     29  C   UNL     1      36.865  29.435  51.228  0.00  0.00    +0.000 C 
ATOM     30  F   UNL     1      35.555  29.135  51.557  0.00  0.00    +0.000 F 
ATOM     31  F   UNL     1      37.740  28.398  51.356  0.00  0.00    +0.000 F 
ATOM     32  F   UNL     1      37.270  30.499  52.039  0.00  0.00    +0.000 F 
ENDBRANCH   1  29
TORSDOF 1
