REMARK  Name = 
REMARK  2 active torsions:
REMARK  status: ('A' for Active; 'I' for Inactive)
REMARK    1  A    between atoms: C_3  and  C_16
REMARK    2  A    between atoms: C_11  and  N_26
REMARK                            x       y       z     vdW  Elec       q    Type
REMARK                         _______ _______ _______ _____ _____    ______ ____
ROOT
ATOM      1  C   UNL     1      37.576  33.063  49.838  0.00  0.00    +0.000 A 
ATOM      2  C   UNL     1      38.415  33.280  48.742  0.00  0.00    +0.000 A 
ATOM      3  C   UNL     1      38.416  32.311  47.742  0.00  0.00    +0.000 A 
ATOM      4  N   UNL     1      37.619  31.223  47.870  0.00  0.00    +0.000 NA
ATOM      5  C   UNL     1      36.828  31.056  48.942  0.00  0.00    +0.000 A 
ATOM      6  N   UNL     1      36.799  31.977  49.937  0.00  0.00    +0.000 NA
ATOM      7  N   UNL     1      36.002  29.883  49.031  0.00  0.00    +0.000 N 
ATOM      8  C   UNL     1      36.021  28.771  49.789  0.00  0.00    +0.000 A 
ATOM      9  N   UNL     1      34.972  28.009  49.416  0.00  0.00    +0.000 NA
ATOM     10  C   UNL     1      34.303  28.639  48.433  0.00  0.00    +0.000 A 
ATOM     11  C   UNL     1      33.172  28.231  47.755  0.00  0.00    +0.000 A 
ATOM     12  N   UNL     1      32.683  29.033  46.808  0.00  0.00    +0.000 NA
ATOM     13  C   UNL     1      33.295  30.206  46.540  0.00  0.00    +0.000 A 
ATOM     14  N   UNL     1      34.398  30.602  47.201  0.00  0.00    +0.000 NA
ATOM     15  C   UNL     1      34.947  29.839  48.172  0.00  0.00    +0.000 A 
ENDROOT
BRANCH   3  16
ATOM     16  C   UNL     1      39.269  32.458  46.552  0.00  0.00    +0.000 A 
ATOM     17  N   UNL     1      40.233  33.322  46.199  0.00  0.00    +0.000 NA
ATOM     18  O   UNL     1      40.692  33.019  45.018  0.00  0.00    +0.000 OA
ATOM     19  C   UNL     1      40.045  31.967  44.589  0.00  0.00    +0.000 A 
ATOM     20  N   UNL     1      39.131  31.567  45.518  0.00  0.00    +0.000 NA
ATOM     21  N   UNL     1      40.215  31.284  43.342  0.00  0.00    +0.000 N 
ATOM     22  N   UNL     1      39.894  31.856  42.168  0.00  0.00    +0.000 NA
ATOM     23  C   UNL     1      40.167  30.971  41.185  0.00  0.00    +0.000 A 
ATOM     24  C   UNL     1      40.670  29.824  41.793  0.00  0.00    +0.000 A 
ATOM     25  C   UNL     1      40.697  30.034  43.170  0.00  0.00    +0.000 A 
ENDBRANCH   3  16
BRANCH  11  26
ATOM     26  N   UNL     1      32.488  27.015  47.990  0.00  0.00    +0.000 N 
ATOM     27  H   UNL     1      31.649  26.782  47.441  0.00  0.00    +0.000 HD
ATOM     28  H   UNL     1      32.829  26.363  48.711  0.00  0.00    +0.000 HD
ENDBRANCH  11  26
TORSDOF 2
