REMARK  Name = 
REMARK  1 active torsions:
REMARK  status: ('A' for Active; 'I' for Inactive)
REMARK    1  A    between atoms: C_3  and  C_15
REMARK                            x       y       z     vdW  Elec       q    Type
REMARK                         _______ _______ _______ _____ _____    ______ ____
ROOT
ATOM      1  C   UNL     1      37.680  32.474  49.586  0.00  0.00    +0.000 A 
ATOM      2  C   UNL     1      38.563  32.735  48.524  0.00  0.00    +0.000 A 
ATOM      3  C   UNL     1      38.364  32.028  47.342  0.00  0.00    +0.000 A 
ATOM      4  N   UNL     1      37.344  31.118  47.240  0.00  0.00    +0.000 NA
ATOM      5  C   UNL     1      36.525  30.914  48.307  0.00  0.00    +0.000 A 
ATOM      6  N   UNL     1      36.690  31.587  49.474  0.00  0.00    +0.000 NA
ATOM      7  N   UNL     1      35.441  29.975  48.260  0.00  0.00    +0.000 N 
ATOM      8  C   UNL     1      34.421  30.156  47.408  0.00  0.00    +0.000 A 
ATOM      9  C   UNL     1      33.403  29.222  47.405  0.00  0.00    +0.000 A 
ATOM     10  C   UNL     1      33.543  28.180  48.295  0.00  0.00    +0.000 A 
ATOM     11  N   UNL     1      32.559  27.158  48.382  0.00  0.00    +0.000 N 
ATOM     12  N   UNL     1      34.580  28.028  49.137  0.00  0.00    +0.000 NA
ATOM     13  C   UNL     1      35.562  28.951  49.123  0.00  0.00    +0.000 A 
ATOM     14  O   UNL     1      36.539  28.823  49.906  0.00  0.00    +0.000 OA
ATOM     15  H   UNL     1      32.677  26.385  49.052  0.00  0.00    +0.000 HD
ATOM     16  H   UNL     1      31.728  27.190  47.775  0.00  0.00    +0.000 HD
ENDROOT
BRANCH   3  17
ATOM     17  C   UNL     1      39.225  32.220  46.168  0.00  0.00    +0.000 A 
ATOM     18  N   UNL     1      40.160  33.162  45.865  0.00  0.00    +0.000 NA
ATOM     19  O   UNL     1      40.668  32.911  44.690  0.00  0.00    +0.000 OA
ATOM     20  C   UNL     1      40.096  31.839  44.222  0.00  0.00    +0.000 A 
ATOM     21  N   UNL     1      39.175  31.364  45.122  0.00  0.00    +0.000 NA
ATOM     22  N   UNL     1      40.333  31.183  42.964  0.00  0.00    +0.000 N 
ATOM     23  N   UNL     1      40.024  31.775  41.802  0.00  0.00    +0.000 NA
ATOM     24  C   UNL     1      40.351  30.938  40.789  0.00  0.00    +0.000 A 
ATOM     25  C   UNL     1      40.878  29.796  41.393  0.00  0.00    +0.000 A 
ATOM     26  C   UNL     1      40.859  29.970  42.764  0.00  0.00    +0.000 A 
ENDBRANCH   3  17
TORSDOF 1
