REMARK  Name = 
REMARK  3 active torsions:
REMARK  status: ('A' for Active; 'I' for Inactive)
REMARK    1  A    between atoms: C_1  and  C_19
REMARK    2  A    between atoms: C_3  and  N_4
REMARK    3  A    between atoms: C_16  and  N_21
REMARK                            x       y       z     vdW  Elec       q    Type
REMARK                         _______ _______ _______ _____ _____    ______ ____
ROOT
ATOM      1  C   UNL     1      32.973  27.999  48.912  0.00  0.00    +0.000 C 
ATOM      2  C   UNL     1      32.746  26.846  47.876  0.00  0.00    +0.000 C 
ATOM      3  C   UNL     1      31.811  27.968  48.008  0.00  0.00    +0.000 C 
ENDROOT
BRANCH   3   4
ATOM      4  N   UNL     1      30.462  27.822  48.489  0.00  0.00    +0.000 N 
ATOM      5  C   UNL     1      29.994  27.046  49.509  0.00  0.00    +0.000 A 
ATOM      6  N   UNL     1      28.689  27.156  49.677  0.00  0.00    +0.000 NA
ATOM      7  C   UNL     1      28.240  28.020  48.764  0.00  0.00    +0.000 A 
ATOM      8  C   UNL     1      26.953  28.452  48.549  0.00  0.00    +0.000 A 
ATOM      9  O   UNL     1      26.007  28.026  49.266  0.00  0.00    +0.000 OA
ATOM     10  N   UNL     1      26.786  29.343  47.539  0.00  0.00    +0.000 N 
ATOM     11  C   UNL     1      27.862  29.753  46.809  0.00  0.00    +0.000 A 
ATOM     12  N   UNL     1      27.510  30.689  45.789  0.00  0.00    +0.000 N 
ATOM     13  N   UNL     1      29.107  29.303  47.055  0.00  0.00    +0.000 NA
ATOM     14  C   UNL     1      29.346  28.418  48.042  0.00  0.00    +0.000 A 
ATOM     15  H   UNL     1      25.848  29.709  47.324  0.00  0.00    +0.000 HD
ATOM     16  H   UNL     1      26.528  30.978  45.672  0.00  0.00    +0.000 HD
ATOM     17  H   UNL     1      28.238  31.075  45.170  0.00  0.00    +0.000 HD
ENDBRANCH   3   4
BRANCH   1  22
ATOM     18  C   UNL     1      35.241  30.445  47.281  0.00  0.00    +0.000 A 
ATOM     19  C   UNL     1      36.409  30.330  48.043  0.00  0.00    +0.000 A 
ATOM     20  C   UNL     1      36.414  29.433  49.085  0.00  0.00    +0.000 A 
ATOM     21  N   UNL     1      35.267  28.702  49.317  0.00  0.00    +0.000 NA
ATOM     22  C   UNL     1      34.175  28.832  48.579  0.00  0.00    +0.000 A 
ATOM     23  N   UNL     1      34.158  29.700  47.564  0.00  0.00    +0.000 NA
BRANCH  19  24
ATOM     24  N   UNL     1      37.519  31.109  47.736  0.00  0.00    +0.000 N 
ATOM     25  C   UNL     1      37.988  32.142  48.481  0.00  0.00    +0.000 A 
ATOM     26  N   UNL     1      39.071  32.705  47.938  0.00  0.00    +0.000 NA
ATOM     27  C   UNL     1      39.327  32.026  46.801  0.00  0.00    +0.000 A 
ATOM     28  C   UNL     1      40.268  32.102  45.814  0.00  0.00    +0.000 A 
ATOM     29  N   UNL     1      40.309  31.283  44.749  0.00  0.00    +0.000 NA
ATOM     30  C   UNL     1      39.340  30.327  44.675  0.00  0.00    +0.000 A 
ATOM     31  N   UNL     1      38.419  30.248  45.634  0.00  0.00    +0.000 NA
ATOM     32  C   UNL     1      38.341  31.035  46.700  0.00  0.00    +0.000 A 
ENDBRANCH  19  24
ENDBRANCH   1  22
TORSDOF 3
