REMARK  Name = 
REMARK  5 active torsions:
REMARK  status: ('A' for Active; 'I' for Inactive)
REMARK    1  A    between atoms: C_1  and  C_15
REMARK    2  A    between atoms: C_4  and  O_23
REMARK    3  A    between atoms: C_12  and  O_22
REMARK    4  A    between atoms: C_13  and  N_17
REMARK    5  A    between atoms: O_23  and  C_24
REMARK                            x       y       z     vdW  Elec       q    Type
REMARK                         _______ _______ _______ _____ _____    ______ ____
ROOT
ATOM      1  C   UNL     1      36.103  31.314  42.606  0.00  0.00    +0.000 A 
ATOM      2  C   UNL     1      37.279  30.988  41.908  0.00  0.00    +0.000 A 
ATOM      3  C   UNL     1      38.351  30.582  42.648  0.00  0.00    +0.000 A 
ATOM      4  N   UNL     1      38.175  30.536  43.962  0.00  0.00    +0.000 NA
ATOM      5  C   UNL     1      37.136  30.817  44.678  0.00  0.00    +0.000 A 
ATOM      6  N   UNL     1      36.101  31.210  43.935  0.00  0.00    +0.000 NA
ENDROOT
BRANCH   5   7
ATOM      7  C   UNL     1      36.847  30.799  46.090  0.00  0.00    +0.000 A 
ATOM      8  C   UNL     1      35.826  30.039  46.656  0.00  0.00    +0.000 A 
ATOM      9  C   UNL     1      35.521  29.995  47.979  0.00  0.00    +0.000 A 
ATOM     10  C   UNL     1      36.242  30.735  48.869  0.00  0.00    +0.000 A 
ATOM     11  C   UNL     1      37.239  31.490  48.384  0.00  0.00    +0.000 A 
ATOM     12  C   UNL     1      37.972  32.244  49.294  0.00  0.00    +0.000 A 
ATOM     13  C   UNL     1      39.005  33.041  48.892  0.00  0.00    +0.000 A 
ATOM     14  C   UNL     1      39.311  33.081  47.540  0.00  0.00    +0.000 A 
ATOM     15  C   UNL     1      38.568  32.326  46.678  0.00  0.00    +0.000 A 
ATOM     16  C   UNL     1      37.545  31.532  47.042  0.00  0.00    +0.000 A 
BRANCH  10  17
ATOM     17  O   UNL     1      35.905  30.666  50.199  0.00  0.00    +0.000 OA
BRANCH  17  18
ATOM     18  C   UNL     1      36.422  29.630  51.025  0.00  0.00    +0.000 C 
ATOM     19  F   UNL     1      37.237  28.735  50.403  0.00  0.00    +0.000 F 
ATOM     20  F   UNL     1      37.195  30.236  52.004  0.00  0.00    +0.000 F 
ATOM     21  F   UNL     1      35.321  28.993  51.584  0.00  0.00    +0.000 F 
ENDBRANCH  17  18
ENDBRANCH  10  17
ENDBRANCH   5   7
BRANCH   3  22
ATOM     22  N   UNL     1      39.608  30.210  42.093  0.00  0.00    +0.000 N 
ATOM     23  C   UNL     1      40.735  29.923  42.896  0.00  0.00    +0.000 C 
ATOM     24  N   UNL     1      40.942  30.660  43.937  0.00  0.00    +0.000 NA
ATOM     25  N   UNL     1      41.609  28.859  42.568  0.00  0.00    +0.000 N 
ATOM     26  H   UNL     1      41.702  30.591  44.604  0.00  0.00    +0.000 HD
ATOM     27  H   UNL     1      39.700  30.148  41.069  0.00  0.00    +0.000 HD
ATOM     28  H   UNL     1      42.426  28.662  43.163  0.00  0.00    +0.000 HD
ATOM     29  H   UNL     1      41.428  28.282  41.734  0.00  0.00    +0.000 HD
ENDBRANCH   3  22
BRANCH   2  30
ATOM     30  O   UNL     1      37.389  31.061  40.525  0.00  0.00    +0.000 OA
ATOM     31  H   UNL     1      38.241  30.820  40.083  0.00  0.00    +0.000 HD
ENDBRANCH   2  30
TORSDOF 5
