REMARK  Name = 
REMARK  1 active torsions:
REMARK  status: ('A' for Active; 'I' for Inactive)
REMARK    1  A    between atoms: C_2  and  C_16
REMARK                            x       y       z     vdW  Elec       q    Type
REMARK                         _______ _______ _______ _____ _____    ______ ____
ROOT
ATOM      1  C   UNL     1      35.297  28.930  48.948  0.00  0.00    +0.000 A 
ATOM      2  C   UNL     1      35.447  30.055  48.156  0.00  0.00    +0.000 A 
ATOM      3  C   UNL     1      34.509  30.267  47.154  0.00  0.00    +0.000 A 
ATOM      4  N   UNL     1      33.500  29.365  47.005  0.00  0.00    +0.000 NA
ATOM      5  C   UNL     1      33.384  28.281  47.795  0.00  0.00    +0.000 A 
ATOM      6  N   UNL     1      34.294  28.053  48.784  0.00  0.00    +0.000 NA
ATOM      7  N   UNL     1      32.319  27.362  47.610  0.00  0.00    +0.000 N 
ATOM      8  C   UNL     1      32.409  26.019  47.673  0.00  0.00    +0.000 A 
ATOM      9  N   UNL     1      31.193  25.448  47.445  0.00  0.00    +0.000 NA
ATOM     10  C   UNL     1      30.330  26.462  47.237  0.00  0.00    +0.000 A 
ATOM     11  C   UNL     1      28.984  26.369  46.967  0.00  0.00    +0.000 A 
ATOM     12  N   UNL     1      28.341  27.555  46.798  0.00  0.00    +0.000 NA
ATOM     13  C   UNL     1      29.010  28.734  46.894  0.00  0.00    +0.000 A 
ATOM     14  N   UNL     1      30.345  28.785  47.163  0.00  0.00    +0.000 NA
ATOM     15  C   UNL     1      31.045  27.635  47.343  0.00  0.00    +0.000 A 
ENDROOT
BRANCH   2  16
ATOM     16  C   UNL     1      36.573  30.937  48.425  0.00  0.00    +0.000 A 
ATOM     17  C   UNL     1      36.751  31.566  49.629  0.00  0.00    +0.000 A 
ATOM     18  C   UNL     1      37.879  32.388  49.750  0.00  0.00    +0.000 A 
ATOM     19  N   UNL     1      38.766  32.574  48.762  0.00  0.00    +0.000 NA
ATOM     20  C   UNL     1      38.543  31.930  47.595  0.00  0.00    +0.000 A 
ATOM     21  N   UNL     1      37.460  31.123  47.433  0.00  0.00    +0.000 NA
ATOM     22  N   UNL     1      39.463  32.103  46.515  0.00  0.00    +0.000 N 
ATOM     23  C   UNL     1      40.045  33.150  45.901  0.00  0.00    +0.000 A 
ATOM     24  N   UNL     1      40.836  32.649  44.928  0.00  0.00    +0.000 NA
ATOM     25  C   UNL     1      40.725  31.294  44.961  0.00  0.00    +0.000 A 
ATOM     26  N   UNL     1      39.861  30.944  45.960  0.00  0.00    +0.000 NA
ENDBRANCH   2  16
TORSDOF 1
