REMARK  Name = 
REMARK  5 active torsions:
REMARK  status: ('A' for Active; 'I' for Inactive)
REMARK    1  A    between atoms: C_1  and  C_15
REMARK    2  A    between atoms: C_4  and  O_25
REMARK    3  A    between atoms: C_12  and  C_22
REMARK    4  A    between atoms: C_13  and  N_17
REMARK    5  A    between atoms: O_25  and  C_26
REMARK                            x       y       z     vdW  Elec       q    Type
REMARK                         _______ _______ _______ _____ _____    ______ ____
ROOT
ATOM      1  C   UNL     1      36.213  31.175  42.583  0.00  0.00    +0.000 A 
ATOM      2  C   UNL     1      37.426  30.954  41.909  0.00  0.00    +0.000 A 
ATOM      3  C   UNL     1      38.517  30.680  42.673  0.00  0.00    +0.000 A 
ATOM      4  N   UNL     1      38.324  30.646  43.972  0.00  0.00    +0.000 NA
ATOM      5  C   UNL     1      37.244  30.837  44.668  0.00  0.00    +0.000 A 
ATOM      6  N   UNL     1      36.198  31.102  43.908  0.00  0.00    +0.000 NA
ENDROOT
BRANCH   5   7
ATOM      7  C   UNL     1      36.931  30.816  46.074  0.00  0.00    +0.000 A 
ATOM      8  C   UNL     1      35.907  30.043  46.632  0.00  0.00    +0.000 A 
ATOM      9  C   UNL     1      35.581  29.995  47.949  0.00  0.00    +0.000 A 
ATOM     10  C   UNL     1      36.280  30.749  48.851  0.00  0.00    +0.000 A 
ATOM     11  C   UNL     1      37.277  31.516  48.382  0.00  0.00    +0.000 A 
ATOM     12  C   UNL     1      37.983  32.276  49.300  0.00  0.00    +0.000 A 
ATOM     13  C   UNL     1      39.011  33.083  48.919  0.00  0.00    +0.000 A 
ATOM     14  C   UNL     1      39.340  33.128  47.573  0.00  0.00    +0.000 A 
ATOM     15  C   UNL     1      38.618  32.360  46.697  0.00  0.00    +0.000 A 
ATOM     16  C   UNL     1      37.595  31.551  47.042  0.00  0.00    +0.000 A 
BRANCH  10  17
ATOM     17  O   UNL     1      35.920  30.674  50.175  0.00  0.00    +0.000 OA
BRANCH  17  18
ATOM     18  C   UNL     1      36.436  29.643  51.008  0.00  0.00    +0.000 C 
ATOM     19  F   UNL     1      37.244  28.740  50.394  0.00  0.00    +0.000 F 
ATOM     20  F   UNL     1      37.216  30.261  51.980  0.00  0.00    +0.000 F 
ATOM     21  F   UNL     1      35.334  29.019  51.579  0.00  0.00    +0.000 F 
ENDBRANCH  17  18
ENDBRANCH  10  17
ENDBRANCH   5   7
BRANCH   3  22
ATOM     22  N   UNL     1      39.803  30.463  42.140  0.00  0.00    +0.000 N 
ATOM     23  C   UNL     1      40.884  29.965  42.924  0.00  0.00    +0.000 C 
ATOM     24  N   UNL     1      41.025  30.487  44.109  0.00  0.00    +0.000 NA
ATOM     25  N   UNL     1      41.768  28.956  42.461  0.00  0.00    +0.000 N 
ATOM     26  H   UNL     1      41.733  30.270  44.803  0.00  0.00    +0.000 HD
ATOM     27  H   UNL     1      39.968  30.672  41.145  0.00  0.00    +0.000 HD
ATOM     28  H   UNL     1      42.536  28.628  43.064  0.00  0.00    +0.000 HD
ATOM     29  H   UNL     1      41.642  28.552  41.522  0.00  0.00    +0.000 HD
ENDBRANCH   3  22
BRANCH   2  30
ATOM     30  C   UNL     1      37.460  30.987  40.425  0.00  0.00    +0.000 C 
ATOM     31  C   UNL     1      38.164  32.052  39.671  0.00  0.00    +0.000 C 
ATOM     32  C   UNL     1      36.725  32.240  39.837  0.00  0.00    +0.000 C 
ENDBRANCH   2  30
TORSDOF 5
