REMARK  Name = 
REMARK  6 active torsions:
REMARK  status: ('A' for Active; 'I' for Inactive)
REMARK    1  A    between atoms: C_1  and  C_2
REMARK    2  A    between atoms: C_1  and  C_12
REMARK    3  A    between atoms: C_1  and  O_27
REMARK    4  A    between atoms: C_16  and  C_18
REMARK    5  A    between atoms: C_18  and  N_19
REMARK    6  A    between atoms: O_27  and  C_28
REMARK                            x       y       z     vdW  Elec       q    Type
REMARK                         _______ _______ _______ _____ _____    ______ ____
ROOT
ATOM      1  C   UNL     1      38.723  31.781  48.083  0.00  0.00    +0.000 C 
ENDROOT
BRANCH   1   2
ATOM      2  C   UNL     1      37.900  31.002  48.994  0.00  0.00    +0.000 A 
ATOM      3  N   UNL     1      38.308  30.801  50.240  0.00  0.00    +0.000 NA
ATOM      4  C   UNL     1      37.590  30.078  51.122  0.00  0.00    +0.000 A 
ATOM      5  N   UNL     1      36.434  29.511  50.833  0.00  0.00    +0.000 NA
ATOM      6  C   UNL     1      35.898  29.638  49.595  0.00  0.00    +0.000 A 
ATOM      7  C   UNL     1      34.722  29.062  49.271  0.00  0.00    +0.000 A 
ATOM      8  C   UNL     1      34.196  29.188  48.028  0.00  0.00    +0.000 A 
ATOM      9  C   UNL     1      34.931  29.938  47.124  0.00  0.00    +0.000 A 
ATOM     10  C   UNL     1      36.125  30.509  47.498  0.00  0.00    +0.000 A 
ATOM     11  C   UNL     1      36.665  30.387  48.729  0.00  0.00    +0.000 A 
ENDBRANCH   1   2
BRANCH   1  12
ATOM     12  C   UNL     1      39.115  31.600  46.718  0.00  0.00    +0.000 A 
ATOM     13  C   UNL     1      39.919  32.689  46.293  0.00  0.00    +0.000 A 
ATOM     14  C   UNL     1      40.515  32.653  44.989  0.00  0.00    +0.000 A 
ATOM     15  N   UNL     1      40.264  31.582  44.264  0.00  0.00    +0.000 NA
ATOM     16  C   UNL     1      39.477  30.542  44.703  0.00  0.00    +0.000 A 
ATOM     17  N   UNL     1      38.929  30.572  45.897  0.00  0.00    +0.000 NA
BRANCH  16  18
ATOM     18  C   UNL     1      39.191  29.344  43.852  0.00  0.00    +0.000 C 
BRANCH  18  19
ATOM     19  N   UNL     1      39.751  29.475  42.520  0.00  0.00    +0.000 N 
ATOM     20  C   UNL     1      41.020  29.020  42.354  0.00  0.00    +0.000 A 
ATOM     21  C   UNL     1      41.623  29.111  41.115  0.00  0.00    +0.000 A 
ATOM     22  C   UNL     1      40.918  29.666  40.064  0.00  0.00    +0.000 A 
ATOM     23  O   UNL     1      41.396  29.785  38.903  0.00  0.00    +0.000 OA
ATOM     24  N   UNL     1      39.674  30.104  40.264  0.00  0.00    +0.000 N 
ATOM     25  C   UNL     1      39.105  30.008  41.471  0.00  0.00    +0.000 A 
ATOM     26  O   UNL     1      37.952  30.405  41.692  0.00  0.00    +0.000 OA
ATOM     27  H   UNL     1      39.147  30.520  39.483  0.00  0.00    +0.000 HD
ENDBRANCH  18  19
ENDBRANCH  16  18
ENDBRANCH   1  12
BRANCH   1  28
ATOM     28  O   UNL     1      38.426  33.064  48.505  0.00  0.00    +0.000 OA
BRANCH  28  29
ATOM     29  C   UNL     1      39.228  34.002  49.118  0.00  0.00    +0.000 C 
ATOM     30  N   UNL     1      39.709  35.186  48.412  0.00  0.00    +0.000 N 
ATOM     31  O   UNL     1      39.581  33.878  50.318  0.00  0.00    +0.000 OA
ATOM     32  H   UNL     1      40.307  35.868  48.899  0.00  0.00    +0.000 HD
ATOM     33  H   UNL     1      39.450  35.339  47.427  0.00  0.00    +0.000 HD
ENDBRANCH  28  29
ENDBRANCH   1  28
TORSDOF 6
