REMARK  Name = 
REMARK  4 active torsions:
REMARK  status: ('A' for Active; 'I' for Inactive)
REMARK    1  A    between atoms: C_1  and  C_2
REMARK    2  A    between atoms: C_1  and  C_12
REMARK    3  A    between atoms: C_1  and  O_24
REMARK    4  A    between atoms: C_16  and  C_18
REMARK                            x       y       z     vdW  Elec       q    Type
REMARK                         _______ _______ _______ _____ _____    ______ ____
ROOT
ATOM      1  C   UNL     1      38.534  32.067  48.053  0.00  0.00    +0.000 C 
ENDROOT
BRANCH   1   2
ATOM      2  C   UNL     1      37.833  31.203  49.000  0.00  0.00    +0.000 A 
ATOM      3  N   UNL     1      38.324  31.066  50.232  0.00  0.00    +0.000 NA
ATOM      4  C   UNL     1      37.753  30.274  51.171  0.00  0.00    +0.000 A 
ATOM      5  N   UNL     1      36.648  29.567  50.934  0.00  0.00    +0.000 NA
ATOM      6  C   UNL     1      36.073  29.638  49.727  0.00  0.00    +0.000 A 
ATOM      7  C   UNL     1      34.931  28.926  49.418  0.00  0.00    +0.000 A 
ATOM      8  C   UNL     1      34.334  28.981  48.203  0.00  0.00    +0.000 A 
ATOM      9  C   UNL     1      34.935  29.797  47.274  0.00  0.00    +0.000 A 
ATOM     10  C   UNL     1      36.072  30.500  47.589  0.00  0.00    +0.000 A 
ATOM     11  C   UNL     1      36.689  30.459  48.802  0.00  0.00    +0.000 A 
ENDBRANCH   1   2
BRANCH   1  12
ATOM     12  C   UNL     1      39.042  31.865  46.725  0.00  0.00    +0.000 A 
ATOM     13  C   UNL     1      39.821  32.960  46.317  0.00  0.00    +0.000 A 
ATOM     14  C   UNL     1      40.537  32.894  45.067  0.00  0.00    +0.000 A 
ATOM     15  N   UNL     1      40.391  31.742  44.370  0.00  0.00    +0.000 NA
ATOM     16  C   UNL     1      39.623  30.705  44.802  0.00  0.00    +0.000 A 
ATOM     17  N   UNL     1      38.968  30.766  45.945  0.00  0.00    +0.000 NA
BRANCH  16  18
ATOM     18  C   UNL     1      39.584  29.525  43.897  0.00  0.00    +0.000 C 
ATOM     19  C   UNL     1      38.172  29.182  43.445  0.00  0.00    +0.000 C 
ATOM     20  C   UNL     1      38.207  27.808  42.838  0.00  0.00    +0.000 C 
ATOM     21  C   UNL     1      39.590  27.313  42.571  0.00  0.00    +0.000 C 
ATOM     22  C   UNL     1      40.487  28.345  41.974  0.00  0.00    +0.000 C 
ATOM     23  C   UNL     1      40.507  29.655  42.711  0.00  0.00    +0.000 C 
ENDBRANCH  16  18
ENDBRANCH   1  12
BRANCH   1  24
ATOM     24  O   UNL     1      38.216  33.286  48.482  0.00  0.00    +0.000 OA
ATOM     25  H   UNL     1      38.213  33.297  49.472  0.00  0.00    +0.000 HD
ENDBRANCH   1  24
TORSDOF 4
