REMARK  Name = 
REMARK  1 active torsions:
REMARK  status: ('A' for Active; 'I' for Inactive)
REMARK    1  A    between atoms: C_2  and  C_12
REMARK                            x       y       z     vdW  Elec       q    Type
REMARK                         _______ _______ _______ _____ _____    ______ ____
ROOT
ATOM      1  C   UNL     1      35.617  29.043  49.358  0.00  0.00    +0.000 A 
ATOM      2  C   UNL     1      35.686  30.060  48.429  0.00  0.00    +0.000 A 
ATOM      3  C   UNL     1      34.729  30.076  47.414  0.00  0.00    +0.000 A 
ATOM      4  N   UNL     1      33.785  29.101  47.386  0.00  0.00    +0.000 NA
ATOM      5  C   UNL     1      33.744  28.106  48.322  0.00  0.00    +0.000 A 
ATOM      6  N   UNL     1      34.663  28.086  49.302  0.00  0.00    +0.000 NA
ATOM      7  N   UNL     1      32.732  27.109  48.245  0.00  0.00    +0.000 N 
ATOM      8  C   UNL     1      31.400  27.410  48.622  0.00  0.00    +0.000 C 
ATOM      9  N   UNL     1      31.187  28.287  49.546  0.00  0.00    +0.000 NA
ATOM     10  N   UNL     1      30.310  26.751  47.988  0.00  0.00    +0.000 N 
ATOM     11  H   UNL     1      30.206  28.509  49.825  0.00  0.00    +0.000 HD
ATOM     12  H   UNL     1      32.969  26.163  47.913  0.00  0.00    +0.000 HD
ATOM     13  H   UNL     1      29.343  26.972  48.265  0.00  0.00    +0.000 HD
ATOM     14  H   UNL     1      30.488  26.052  47.252  0.00  0.00    +0.000 HD
ENDROOT
BRANCH   2  15
ATOM     15  C   UNL     1      36.732  31.050  48.549  0.00  0.00    +0.000 A 
ATOM     16  C   UNL     1      36.861  31.837  49.678  0.00  0.00    +0.000 A 
ATOM     17  C   UNL     1      37.916  32.760  49.672  0.00  0.00    +0.000 A 
ATOM     18  N   UNL     1      38.773  32.903  48.647  0.00  0.00    +0.000 NA
ATOM     19  C   UNL     1      38.595  32.109  47.577  0.00  0.00    +0.000 A 
ATOM     20  N   UNL     1      37.582  31.192  47.531  0.00  0.00    +0.000 NA
ATOM     21  N   UNL     1      39.482  32.225  46.463  0.00  0.00    +0.000 N 
ATOM     22  C   UNL     1      39.963  33.229  45.721  0.00  0.00    +0.000 A 
ATOM     23  N   UNL     1      40.781  32.700  44.784  0.00  0.00    +0.000 NA
ATOM     24  C   UNL     1      40.777  31.342  44.985  0.00  0.00    +0.000 A 
ATOM     25  N   UNL     1      39.961  31.052  46.038  0.00  0.00    +0.000 NA
ENDBRANCH   2  15
TORSDOF 1
