REMARK  Name = 
REMARK  5 active torsions:
REMARK  status: ('A' for Active; 'I' for Inactive)
REMARK    1  A    between atoms: C_1  and  C_2
REMARK    2  A    between atoms: C_1  and  C_12
REMARK    3  A    between atoms: C_1  and  O_19
REMARK    4  A    between atoms: C_16  and  C_18
REMARK    5  A    between atoms: O_19  and  C_20
REMARK                            x       y       z     vdW  Elec       q    Type
REMARK                         _______ _______ _______ _____ _____    ______ ____
ROOT
ATOM      1  C   UNL     1      38.721  31.997  48.066  0.00  0.00    +0.000 C 
ENDROOT
BRANCH   1   2
ATOM      2  C   UNL     1      37.973  31.196  49.063  0.00  0.00    +0.000 A 
ATOM      3  N   UNL     1      38.465  31.026  50.285  0.00  0.00    +0.000 NA
ATOM      4  C   UNL     1      37.851  30.333  51.255  0.00  0.00    +0.000 A 
ATOM      5  N   UNL     1      36.681  29.751  51.067  0.00  0.00    +0.000 NA
ATOM      6  C   UNL     1      36.065  29.842  49.872  0.00  0.00    +0.000 A 
ATOM      7  C   UNL     1      34.863  29.236  49.653  0.00  0.00    +0.000 A 
ATOM      8  C   UNL     1      34.241  29.315  48.436  0.00  0.00    +0.000 A 
ATOM      9  C   UNL     1      34.898  30.038  47.460  0.00  0.00    +0.000 A 
ATOM     10  C   UNL     1      36.108  30.636  47.721  0.00  0.00    +0.000 A 
ATOM     11  C   UNL     1      36.740  30.565  48.923  0.00  0.00    +0.000 A 
ENDBRANCH   1   2
BRANCH   1  12
ATOM     12  C   UNL     1      39.077  31.699  46.706  0.00  0.00    +0.000 A 
ATOM     13  C   UNL     1      39.862  32.751  46.187  0.00  0.00    +0.000 A 
ATOM     14  C   UNL     1      40.436  32.618  44.881  0.00  0.00    +0.000 A 
ATOM     15  N   UNL     1      40.178  31.476  44.232  0.00  0.00    +0.000 NA
ATOM     16  C   UNL     1      39.413  30.486  44.767  0.00  0.00    +0.000 A 
ATOM     17  N   UNL     1      38.883  30.599  45.966  0.00  0.00    +0.000 NA
ATOM     18  C   UNL     1      39.123  29.235  44.001  0.00  0.00    +0.000 C 
ENDBRANCH   1  12
BRANCH   1  19
ATOM     19  O   UNL     1      38.494  33.232  48.485  0.00  0.00    +0.000 OA
BRANCH  19  20
ATOM     20  C   UNL     1      39.328  34.061  49.092  0.00  0.00    +0.000 C 
ATOM     21  F   UNL     1      38.727  35.338  49.192  0.00  0.00    +0.000 F 
ATOM     22  F   UNL     1      39.797  33.826  50.339  0.00  0.00    +0.000 F 
ATOM     23  F   UNL     1      40.472  34.355  48.311  0.00  0.00    +0.000 F 
ENDBRANCH  19  20
ENDBRANCH   1  19
TORSDOF 4
