REMARK  Name = 
REMARK  1 active torsions:
REMARK  status: ('A' for Active; 'I' for Inactive)
REMARK    1  A    between atoms: C_1  and  C_20
REMARK                            x       y       z     vdW  Elec       q    Type
REMARK                         _______ _______ _______ _____ _____    ______ ____
ROOT
ATOM      1  C   UNL     1      36.929  29.931  49.895  0.00  0.00    +0.000 A 
ATOM      2  C   UNL     1      38.009  30.677  49.447  0.00  0.00    +0.000 A 
ATOM      3  C   UNL     1      38.015  31.127  48.129  0.00  0.00    +0.000 A 
ATOM      4  N   UNL     1      36.946  30.802  47.349  0.00  0.00    +0.000 NA
ATOM      5  C   UNL     1      35.913  30.076  47.818  0.00  0.00    +0.000 A 
ATOM      6  N   UNL     1      35.905  29.643  49.081  0.00  0.00    +0.000 NA
ATOM      7  N   UNL     1      39.085  31.886  47.627  0.00  0.00    +0.000 N 
ATOM      8  C   UNL     1      38.974  32.590  46.409  0.00  0.00    +0.000 C 
ATOM      9  N   UNL     1      37.894  32.464  45.701  0.00  0.00    +0.000 NA
ATOM     10  N   UNL     1      40.044  33.426  45.973  0.00  0.00    +0.000 N 
ATOM     11  H   UNL     1      37.897  32.848  44.727  0.00  0.00    +0.000 HD
ATOM     12  N   UNL     1      34.885  29.831  46.867  0.00  0.00    +0.000 N 
ATOM     13  C   UNL     1      33.666  29.417  47.265  0.00  0.00    +0.000 A 
ATOM     14  C   UNL     1      32.713  29.197  46.301  0.00  0.00    +0.000 A 
ATOM     15  C   UNL     1      33.018  29.401  44.974  0.00  0.00    +0.000 A 
ATOM     16  O   UNL     1      32.091  29.180  44.138  0.00  0.00    +0.000 OA
ATOM     17  N   UNL     1      34.239  29.816  44.590  0.00  0.00    +0.000 N 
ATOM     18  C   UNL     1      35.166  30.028  45.547  0.00  0.00    +0.000 A 
ATOM     19  O   UNL     1      36.321  30.419  45.201  0.00  0.00    +0.000 OA
ATOM     20  H   UNL     1      39.967  31.930  48.158  0.00  0.00    +0.000 HD
ATOM     21  H   UNL     1      39.966  33.941  45.084  0.00  0.00    +0.000 HD
ATOM     22  H   UNL     1      40.895  33.515  46.547  0.00  0.00    +0.000 HD
ATOM     23  H   UNL     1      34.459  29.967  43.595  0.00  0.00    +0.000 HD
ENDROOT
BRANCH   1  24
ATOM     24  C   UNL     1      36.911  29.442  51.311  0.00  0.00    +0.000 C 
ATOM     25  F   UNL     1      35.616  29.167  51.710  0.00  0.00    +0.000 F 
ATOM     26  F   UNL     1      37.784  28.406  51.431  0.00  0.00    +0.000 F 
ATOM     27  F   UNL     1      37.348  30.521  52.106  0.00  0.00    +0.000 F 
ENDBRANCH   1  24
TORSDOF 1
