REMARK  Name = 
REMARK  1 active torsions:
REMARK  status: ('A' for Active; 'I' for Inactive)
REMARK    1  A    between atoms: C_1  and  C_19
REMARK                            x       y       z     vdW  Elec       q    Type
REMARK                         _______ _______ _______ _____ _____    ______ ____
ROOT
ATOM      1  C   UNL     1      36.968  31.266  48.687  0.00  0.00    +0.000 A 
ATOM      2  C   UNL     1      37.366  32.172  49.624  0.00  0.00    +0.000 A 
ATOM      3  C   UNL     1      38.466  32.971  49.315  0.00  0.00    +0.000 A 
ATOM      4  N   UNL     1      39.140  32.884  48.146  0.00  0.00    +0.000 NA
ATOM      5  C   UNL     1      38.707  31.970  47.247  0.00  0.00    +0.000 A 
ATOM      6  N   UNL     1      37.637  31.177  47.521  0.00  0.00    +0.000 NA
ATOM      7  N   UNL     1      39.339  31.789  45.979  0.00  0.00    +0.000 N 
ATOM      8  C   UNL     1      40.589  31.346  45.769  0.00  0.00    +0.000 A 
ATOM      9  N   UNL     1      40.843  31.304  44.446  0.00  0.00    +0.000 NA
ATOM     10  C   UNL     1      39.702  31.738  43.849  0.00  0.00    +0.000 A 
ATOM     11  C   UNL     1      39.474  31.870  42.515  0.00  0.00    +0.000 A 
ATOM     12  O   UNL     1      40.240  31.629  41.559  0.00  0.00    +0.000 OA
ATOM     13  N   UNL     1      38.249  32.326  42.149  0.00  0.00    +0.000 N 
ATOM     14  C   UNL     1      37.279  32.642  43.054  0.00  0.00    +0.000 A 
ATOM     15  N   UNL     1      36.002  33.118  42.637  0.00  0.00    +0.000 N 
ATOM     16  N   UNL     1      37.575  32.486  44.359  0.00  0.00    +0.000 NA
ATOM     17  C   UNL     1      38.760  32.042  44.809  0.00  0.00    +0.000 A 
ATOM     18  H   UNL     1      38.044  32.438  41.146  0.00  0.00    +0.000 HD
ATOM     19  H   UNL     1      35.285  33.350  43.339  0.00  0.00    +0.000 HD
ATOM     20  H   UNL     1      35.796  33.230  41.634  0.00  0.00    +0.000 HD
ENDROOT
BRANCH   1  22
ATOM     21  C   UNL     1      35.670  29.790  50.140  0.00  0.00    +0.000 A 
ATOM     22  C   UNL     1      35.833  30.368  48.883  0.00  0.00    +0.000 A 
ATOM     23  C   UNL     1      34.918  30.068  47.882  0.00  0.00    +0.000 A 
ATOM     24  N   UNL     1      33.896  29.215  48.177  0.00  0.00    +0.000 NA
ATOM     25  C   UNL     1      33.763  28.666  49.416  0.00  0.00    +0.000 A 
ATOM     26  N   UNL     1      34.637  28.949  50.382  0.00  0.00    +0.000 NA
ENDBRANCH   1  22
TORSDOF 1
