REMARK  Name = 
REMARK  3 active torsions:
REMARK  status: ('A' for Active; 'I' for Inactive)
REMARK    1  A    between atoms: C_2  and  C_7
REMARK    2  A    between atoms: C_5  and  C_17
REMARK    3  A    between atoms: C_19  and  N_20
REMARK                            x       y       z     vdW  Elec       q    Type
REMARK                         _______ _______ _______ _____ _____    ______ ____
ROOT
ATOM      1  C   UNL     1      34.762  30.216  47.370  0.00  0.00    +0.000 A 
ATOM      2  C   UNL     1      35.871  30.251  48.196  0.00  0.00    +0.000 A 
ATOM      3  C   UNL     1      35.964  29.150  49.108  0.00  0.00    +0.000 A 
ATOM      4  N   UNL     1      35.005  28.180  49.111  0.00  0.00    +0.000 NA
ATOM      5  C   UNL     1      33.969  28.227  48.278  0.00  0.00    +0.000 A 
ATOM      6  N   UNL     1      33.841  29.238  47.408  0.00  0.00    +0.000 NA
ENDROOT
BRANCH   2   7
ATOM      7  C   UNL     1      36.941  31.216  48.285  0.00  0.00    +0.000 A 
ATOM      8  C   UNL     1      36.914  31.892  49.484  0.00  0.00    +0.000 A 
ATOM      9  C   UNL     1      37.859  32.874  49.786  0.00  0.00    +0.000 A 
ATOM     10  C   UNL     1      38.840  33.174  48.863  0.00  0.00    +0.000 A 
ATOM     11  C   UNL     1      38.856  32.488  47.661  0.00  0.00    +0.000 A 
ATOM     12  C   UNL     1      39.807  32.721  46.664  0.00  0.00    +0.000 A 
ATOM     13  C   UNL     1      39.766  32.002  45.491  0.00  0.00    +0.000 A 
ATOM     14  C   UNL     1      38.809  31.047  45.255  0.00  0.00    +0.000 A 
ATOM     15  C   UNL     1      37.863  30.808  46.234  0.00  0.00    +0.000 A 
ATOM     16  C   UNL     1      37.920  31.529  47.387  0.00  0.00    +0.000 A 
ENDBRANCH   2   7
BRANCH   5  17
ATOM     17  C   UNL     1      32.947  27.140  48.338  0.00  0.00    +0.000 C 
ATOM     18  C   UNL     1      31.518  27.492  48.552  0.00  0.00    +0.000 C 
ATOM     19  C   UNL     1      31.972  26.981  47.207  0.00  0.00    +0.000 C 
BRANCH  19  20
ATOM     20  N   UNL     1      31.678  25.611  46.837  0.00  0.00    +0.000 N 
ATOM     21  C   UNL     1      32.525  24.561  47.039  0.00  0.00    +0.000 A 
ATOM     22  N   UNL     1      31.948  23.416  46.580  0.00  0.00    +0.000 NA
ATOM     23  C   UNL     1      30.735  23.711  46.081  0.00  0.00    +0.000 A 
ATOM     24  C   UNL     1      29.708  23.002  45.494  0.00  0.00    +0.000 A 
ATOM     25  N   UNL     1      28.566  23.613  45.082  0.00  0.00    +0.000 NA
ATOM     26  C   UNL     1      28.451  24.959  45.262  0.00  0.00    +0.000 A 
ATOM     27  N   UNL     1      29.457  25.641  45.836  0.00  0.00    +0.000 NA
ATOM     28  C   UNL     1      30.591  25.075  46.252  0.00  0.00    +0.000 A 
ENDBRANCH  19  20
ENDBRANCH   5  17
TORSDOF 3
