REMARK  Name = 
REMARK  4 active torsions:
REMARK  status: ('A' for Active; 'I' for Inactive)
REMARK    1  A    between atoms: C_1  and  C_2
REMARK    2  A    between atoms: C_1  and  C_12
REMARK    3  A    between atoms: C_1  and  O_23
REMARK    4  A    between atoms: C_16  and  C_18
REMARK                            x       y       z     vdW  Elec       q    Type
REMARK                         _______ _______ _______ _____ _____    ______ ____
ROOT
ATOM      1  C   UNL     1      38.609  32.224  48.030  0.00  0.00    +0.000 C 
ENDROOT
BRANCH   1   2
ATOM      2  C   UNL     1      37.940  31.281  48.926  0.00  0.00    +0.000 A 
ATOM      3  N   UNL     1      38.423  31.108  50.156  0.00  0.00    +0.000 NA
ATOM      4  C   UNL     1      37.875  30.245  51.048  0.00  0.00    +0.000 A 
ATOM      5  N   UNL     1      36.808  29.502  50.759  0.00  0.00    +0.000 NA
ATOM      6  C   UNL     1      36.235  29.602  49.535  0.00  0.00    +0.000 A 
ATOM      7  C   UNL     1      35.141  28.852  49.205  0.00  0.00    +0.000 A 
ATOM      8  C   UNL     1      34.559  28.946  47.972  0.00  0.00    +0.000 A 
ATOM      9  C   UNL     1      35.130  29.830  47.091  0.00  0.00    +0.000 A 
ATOM     10  C   UNL     1      36.232  30.568  47.456  0.00  0.00    +0.000 A 
ATOM     11  C   UNL     1      36.832  30.492  48.678  0.00  0.00    +0.000 A 
ENDBRANCH   1   2
BRANCH   1  12
ATOM     12  C   UNL     1      39.121  32.115  46.694  0.00  0.00    +0.000 A 
ATOM     13  C   UNL     1      39.786  33.297  46.320  0.00  0.00    +0.000 A 
ATOM     14  C   UNL     1      40.491  33.347  45.069  0.00  0.00    +0.000 A 
ATOM     15  N   UNL     1      40.453  32.213  44.331  0.00  0.00    +0.000 NA
ATOM     16  C   UNL     1      39.795  31.090  44.726  0.00  0.00    +0.000 A 
ATOM     17  N   UNL     1      39.148  31.044  45.874  0.00  0.00    +0.000 NA
BRANCH  16  18
ATOM     18  C   UNL     1      39.772  29.884  43.901  0.00  0.00    +0.000 A 
ATOM     19  C   UNL     1      38.865  28.819  43.851  0.00  0.00    +0.000 A 
ATOM     20  C   UNL     1      39.352  27.951  42.874  0.00  0.00    +0.000 A 
ATOM     21  N   UNL     1      40.486  28.463  42.366  0.00  0.00    +0.000 N 
ATOM     22  N   UNL     1      40.730  29.600  42.973  0.00  0.00    +0.000 NA
ATOM     23  H   UNL     1      41.064  28.036  41.628  0.00  0.00    +0.000 HD
ENDBRANCH  16  18
ENDBRANCH   1  12
BRANCH   1  24
ATOM     24  O   UNL     1      38.244  33.403  48.531  0.00  0.00    +0.000 OA
ATOM     25  H   UNL     1      38.257  33.360  49.520  0.00  0.00    +0.000 HD
ENDBRANCH   1  24
TORSDOF 4
