REMARK  Name = 
REMARK  3 active torsions:
REMARK  status: ('A' for Active; 'I' for Inactive)
REMARK    1  A    between atoms: C_1  and  C_2
REMARK    2  A    between atoms: C_1  and  C_12
REMARK    3  A    between atoms: C_1  and  O_23
REMARK                            x       y       z     vdW  Elec       q    Type
REMARK                         _______ _______ _______ _____ _____    ______ ____
ROOT
ATOM      1  C   UNL     1      38.596  32.200  48.016  0.00  0.00    +0.000 C 
ENDROOT
BRANCH   1   2
ATOM      2  C   UNL     1      39.091  32.079  46.674  0.00  0.00    +0.000 A 
ATOM      3  C   UNL     1      39.794  33.237  46.298  0.00  0.00    +0.000 A 
ATOM      4  C   UNL     1      40.495  33.269  45.043  0.00  0.00    +0.000 A 
ATOM      5  N   UNL     1      40.412  32.137  44.305  0.00  0.00    +0.000 NA
ATOM      6  C   UNL     1      39.718  31.036  44.702  0.00  0.00    +0.000 A 
ATOM      7  N   UNL     1      39.076  31.007  45.853  0.00  0.00    +0.000 NA
ATOM      8  N   UNL     1      39.673  29.875  43.865  0.00  0.00    +0.000 N 
ATOM      9  N   UNL     1      40.650  29.917  42.945  0.00  0.00    +0.000 NA
ATOM     10  C   UNL     1      40.577  28.804  42.171  0.00  0.00    +0.000 A 
ATOM     11  C   UNL     1      39.498  28.068  42.665  0.00  0.00    +0.000 A 
ATOM     12  C   UNL     1      38.941  28.766  43.737  0.00  0.00    +0.000 A 
ENDBRANCH   1   2
BRANCH   1  13
ATOM     13  C   UNL     1      37.926  31.270  48.925  0.00  0.00    +0.000 A 
ATOM     14  N   UNL     1      38.419  31.104  50.152  0.00  0.00    +0.000 NA
ATOM     15  C   UNL     1      37.870  30.257  51.060  0.00  0.00    +0.000 A 
ATOM     16  N   UNL     1      36.792  29.525  50.787  0.00  0.00    +0.000 NA
ATOM     17  C   UNL     1      36.219  29.620  49.581  0.00  0.00    +0.000 A 
ATOM     18  C   UNL     1      35.104  28.875  49.250  0.00  0.00    +0.000 A 
ATOM     19  C   UNL     1      34.515  28.957  48.023  0.00  0.00    +0.000 A 
ATOM     20  C   UNL     1      35.090  29.827  47.127  0.00  0.00    +0.000 A 
ATOM     21  C   UNL     1      36.199  30.558  47.476  0.00  0.00    +0.000 A 
ATOM     22  C   UNL     1      36.808  30.492  48.695  0.00  0.00    +0.000 A 
ENDBRANCH   1  13
BRANCH   1  23
ATOM     23  O   UNL     1      38.250  33.386  48.513  0.00  0.00    +0.000 OA
ATOM     24  H   UNL     1      38.262  33.346  49.502  0.00  0.00    +0.000 HD
ENDBRANCH   1  23
TORSDOF 3
