REMARK  Name = 
REMARK  1 active torsions:
REMARK  status: ('A' for Active; 'I' for Inactive)
REMARK    1  A    between atoms: C_3  and  C_18
REMARK                            x       y       z     vdW  Elec       q    Type
REMARK                         _______ _______ _______ _____ _____    ______ ____
ROOT
ATOM      1  C   UNL     1      37.489  30.487  50.758  0.00  0.00    +0.000 A 
ATOM      2  C   UNL     1      38.275  31.179  49.831  0.00  0.00    +0.000 A 
ATOM      3  C   UNL     1      37.850  31.149  48.490  0.00  0.00    +0.000 A 
ATOM      4  N   UNL     1      36.725  30.466  48.149  0.00  0.00    +0.000 NA
ATOM      5  C   UNL     1      36.000  29.814  49.082  0.00  0.00    +0.000 A 
ATOM      6  N   UNL     1      36.386  29.826  50.386  0.00  0.00    +0.000 NA
ATOM      7  N   UNL     1      34.819  29.093  48.751  0.00  0.00    +0.000 N 
ATOM      8  C   UNL     1      34.423  27.921  49.280  0.00  0.00    +0.000 A 
ATOM      9  N   UNL     1      33.246  27.532  48.724  0.00  0.00    +0.000 NA
ATOM     10  C   UNL     1      32.891  28.474  47.827  0.00  0.00    +0.000 A 
ATOM     11  C   UNL     1      31.808  28.557  47.011  0.00  0.00    +0.000 A 
ATOM     12  O   UNL     1      30.923  27.655  47.013  0.00  0.00    +0.000 OA
ATOM     13  N   UNL     1      31.668  29.621  46.181  0.00  0.00    +0.000 N 
ATOM     14  C   UNL     1      32.645  30.545  46.229  0.00  0.00    +0.000 A 
ATOM     15  N   UNL     1      32.485  31.654  45.354  0.00  0.00    +0.000 N 
ATOM     16  N   UNL     1      33.738  30.514  47.016  0.00  0.00    +0.000 NA
ATOM     17  C   UNL     1      33.892  29.452  47.854  0.00  0.00    +0.000 A 
ATOM     18  H   UNL     1      30.860  29.716  45.550  0.00  0.00    +0.000 HD
ATOM     19  H   UNL     1      33.193  32.402  45.335  0.00  0.00    +0.000 HD
ATOM     20  H   UNL     1      31.661  31.710  44.739  0.00  0.00    +0.000 HD
ENDROOT
BRANCH   3  21
ATOM     21  C   UNL     1      38.615  31.848  47.447  0.00  0.00    +0.000 A 
ATOM     22  N   UNL     1      39.448  32.913  47.463  0.00  0.00    +0.000 NA
ATOM     23  O   UNL     1      39.883  33.151  46.262  0.00  0.00    +0.000 OA
ATOM     24  C   UNL     1      39.356  32.272  45.463  0.00  0.00    +0.000 A 
ATOM     25  N   UNL     1      38.545  31.420  46.151  0.00  0.00    +0.000 NA
ATOM     26  N   UNL     1      39.545  32.142  44.045  0.00  0.00    +0.000 N 
ATOM     27  N   UNL     1      39.122  33.064  43.190  0.00  0.00    +0.000 NA
ATOM     28  C   UNL     1      39.419  32.705  41.932  0.00  0.00    +0.000 A 
ATOM     29  C   UNL     1      40.067  31.480  42.044  0.00  0.00    +0.000 A 
ATOM     30  C   UNL     1      40.136  31.143  43.381  0.00  0.00    +0.000 A 
ENDBRANCH   3  21
TORSDOF 1
