REMARK  Name = 
REMARK  6 active torsions:
REMARK  status: ('A' for Active; 'I' for Inactive)
REMARK    1  A    between atoms: C_1  and  C_7
REMARK    2  A    between atoms: C_1  and  C_18
REMARK    3  A    between atoms: C_2  and  C_12
REMARK    4  A    between atoms: C_9  and  C_14
REMARK    5  A    between atoms: C_18  and  C_19
REMARK    6  A    between atoms: N_22  and  C_24
REMARK                            x       y       z     vdW  Elec       q    Type
REMARK                         _______ _______ _______ _____ _____    ______ ____
ROOT
ATOM      1  C   UNL     1      33.300  27.785  48.596  0.00  0.00    +0.000 C 
ENDROOT
BRANCH   1   7
ATOM      2  C   UNL     1      31.687  26.236  47.574  0.00  0.00    +0.000 A 
ATOM      3  C   UNL     1      31.395  25.152  46.826  0.00  0.00    +0.000 A 
ATOM      4  C   UNL     1      32.358  24.351  46.227  0.00  0.00    +0.000 A 
ATOM      5  C   UNL     1      33.672  24.729  46.441  0.00  0.00    +0.000 A 
ATOM      6  C   UNL     1      33.992  25.825  47.197  0.00  0.00    +0.000 A 
ATOM      7  C   UNL     1      33.006  26.594  47.773  0.00  0.00    +0.000 A 
BRANCH   2  12
ATOM      8  C   UNL     1      29.307  27.644  50.009  0.00  0.00    +0.000 A 
ATOM      9  C   UNL     1      28.645  28.640  49.242  0.00  0.00    +0.000 A 
ATOM     10  C   UNL     1      29.045  28.791  47.911  0.00  0.00    +0.000 A 
ATOM     11  N   UNL     1      30.043  27.978  47.421  0.00  0.00    +0.000 NA
ATOM     12  C   UNL     1      30.640  27.049  48.185  0.00  0.00    +0.000 A 
ATOM     13  N   UNL     1      30.260  26.905  49.452  0.00  0.00    +0.000 NA
BRANCH   9  14
ATOM     14  C   UNL     1      27.574  29.496  49.801  0.00  0.00    +0.000 C 
ATOM     15  F   UNL     1      28.047  30.602  50.454  0.00  0.00    +0.000 F 
ATOM     16  F   UNL     1      26.774  28.803  50.689  0.00  0.00    +0.000 F 
ATOM     17  F   UNL     1      26.753  29.949  48.747  0.00  0.00    +0.000 F 
ENDBRANCH   9  14
ENDBRANCH   2  12
ENDBRANCH   1   7
BRANCH   1  18
ATOM     18  C   UNL     1      33.653  29.004  47.823  0.00  0.00    +0.000 C 
BRANCH  18  19
ATOM     19  C   UNL     1      34.974  29.498  48.211  0.00  0.00    +0.000 A 
ATOM     20  C   UNL     1      35.690  28.992  49.281  0.00  0.00    +0.000 A 
ATOM     21  C   UNL     1      36.888  29.666  49.388  0.00  0.00    +0.000 A 
ATOM     22  N   UNL     1      36.856  30.576  48.356  0.00  0.00    +0.000 N 
ATOM     23  N   UNL     1      35.734  30.478  47.665  0.00  0.00    +0.000 NA
BRANCH  22  24
ATOM     24  C   UNL     1      37.830  31.545  47.976  0.00  0.00    +0.000 A 
ATOM     25  C   UNL     1      38.140  32.726  48.628  0.00  0.00    +0.000 A 
ATOM     26  N   UNL     1      39.116  33.379  47.966  0.00  0.00    +0.000 N 
ATOM     27  C   UNL     1      39.477  32.672  46.880  0.00  0.00    +0.000 A 
ATOM     28  C   UNL     1      40.415  32.913  45.901  0.00  0.00    +0.000 A 
ATOM     29  C   UNL     1      40.596  32.003  44.869  0.00  0.00    +0.000 A 
ATOM     30  C   UNL     1      39.795  30.861  44.876  0.00  0.00    +0.000 A 
ATOM     31  C   UNL     1      38.865  30.647  45.866  0.00  0.00    +0.000 A 
ATOM     32  C   UNL     1      38.683  31.540  46.889  0.00  0.00    +0.000 A 
ATOM     33  H   UNL     1      39.523  34.282  48.249  0.00  0.00    +0.000 HD
ENDBRANCH  22  24
ENDBRANCH  18  19
ENDBRANCH   1  18
TORSDOF 6
