REMARK  Name = 
REMARK  4 active torsions:
REMARK  status: ('A' for Active; 'I' for Inactive)
REMARK    1  A    between atoms: C_1  and  C_2
REMARK    2  A    between atoms: C_1  and  C_12
REMARK    3  A    between atoms: C_1  and  O_24
REMARK    4  A    between atoms: C_16  and  C_18
REMARK                            x       y       z     vdW  Elec       q    Type
REMARK                         _______ _______ _______ _____ _____    ______ ____
ROOT
ATOM      1  C   UNL     1      38.607  32.243  48.012  0.00  0.00    +0.000 C 
ENDROOT
BRANCH   1   2
ATOM      2  C   UNL     1      37.949  31.287  48.899  0.00  0.00    +0.000 A 
ATOM      3  N   UNL     1      38.437  31.105  50.126  0.00  0.00    +0.000 NA
ATOM      4  C   UNL     1      37.891  30.237  51.015  0.00  0.00    +0.000 A 
ATOM      5  N   UNL     1      36.820  29.500  50.727  0.00  0.00    +0.000 NA
ATOM      6  C   UNL     1      36.250  29.612  49.515  0.00  0.00    +0.000 A 
ATOM      7  C   UNL     1      35.151  28.856  49.176  0.00  0.00    +0.000 A 
ATOM      8  C   UNL     1      34.570  28.948  47.941  0.00  0.00    +0.000 A 
ATOM      9  C   UNL     1      35.141  29.837  47.055  0.00  0.00    +0.000 A 
ATOM     10  C   UNL     1      36.238  30.576  47.428  0.00  0.00    +0.000 A 
ATOM     11  C   UNL     1      36.841  30.503  48.654  0.00  0.00    +0.000 A 
ENDBRANCH   1   2
BRANCH   1  12
ATOM     12  C   UNL     1      39.094  32.167  46.667  0.00  0.00    +0.000 A 
ATOM     13  C   UNL     1      39.685  33.379  46.278  0.00  0.00    +0.000 A 
ATOM     14  C   UNL     1      40.366  33.472  45.015  0.00  0.00    +0.000 A 
ATOM     15  N   UNL     1      40.376  32.333  44.283  0.00  0.00    +0.000 NA
ATOM     16  C   UNL     1      39.790  31.177  44.689  0.00  0.00    +0.000 A 
ATOM     17  N   UNL     1      39.162  31.092  45.854  0.00  0.00    +0.000 NA
BRANCH  16  18
ATOM     18  C   UNL     1      39.859  30.006  43.815  0.00  0.00    +0.000 A 
ATOM     19  C   UNL     1      38.971  28.978  43.951  0.00  0.00    +0.000 A 
ATOM     20  C   UNL     1      39.048  27.879  43.119  0.00  0.00    +0.000 A 
ATOM     21  C   UNL     1      40.001  27.759  42.131  0.00  0.00    +0.000 A 
ATOM     22  C   UNL     1      40.901  28.792  41.987  0.00  0.00    +0.000 A 
ATOM     23  C   UNL     1      40.815  29.889  42.826  0.00  0.00    +0.000 A 
ENDBRANCH  16  18
ENDBRANCH   1  12
BRANCH   1  24
ATOM     24  O   UNL     1      38.260  33.416  48.545  0.00  0.00    +0.000 OA
ATOM     25  H   UNL     1      38.280  33.349  49.532  0.00  0.00    +0.000 HD
ENDBRANCH   1  24
TORSDOF 4
