REMARK  Name = 
REMARK  6 active torsions:
REMARK  status: ('A' for Active; 'I' for Inactive)
REMARK    1  A    between atoms: C_1  and  C_2
REMARK    2  A    between atoms: C_1  and  C_12
REMARK    3  A    between atoms: C_1  and  O_28
REMARK    4  A    between atoms: C_16  and  C_18
REMARK    5  A    between atoms: C_18  and  N_19
REMARK    6  A    between atoms: O_28  and  C_29
REMARK                            x       y       z     vdW  Elec       q    Type
REMARK                         _______ _______ _______ _____ _____    ______ ____
ROOT
ATOM      1  C   UNL     1      38.623  31.560  48.003  0.00  0.00    +0.000 C 
ENDROOT
BRANCH   1   2
ATOM      2  C   UNL     1      37.838  30.895  49.031  0.00  0.00    +0.000 A 
ATOM      3  N   UNL     1      38.332  30.769  50.257  0.00  0.00    +0.000 NA
ATOM      4  C   UNL     1      37.663  30.150  51.248  0.00  0.00    +0.000 A 
ATOM      5  N   UNL     1      36.460  29.618  51.084  0.00  0.00    +0.000 NA
ATOM      6  C   UNL     1      35.839  29.677  49.888  0.00  0.00    +0.000 A 
ATOM      7  C   UNL     1      34.614  29.137  49.698  0.00  0.00    +0.000 A 
ATOM      8  C   UNL     1      33.995  29.199  48.486  0.00  0.00    +0.000 A 
ATOM      9  C   UNL     1      34.688  29.844  47.477  0.00  0.00    +0.000 A 
ATOM     10  C   UNL     1      35.932  30.380  47.716  0.00  0.00    +0.000 A 
ATOM     11  C   UNL     1      36.562  30.323  48.905  0.00  0.00    +0.000 A 
ENDBRANCH   1   2
BRANCH   1  12
ATOM     12  C   UNL     1      38.932  31.236  46.644  0.00  0.00    +0.000 A 
ATOM     13  C   UNL     1      40.198  31.769  46.291  0.00  0.00    +0.000 A 
ATOM     14  C   UNL     1      40.756  31.465  45.005  0.00  0.00    +0.000 A 
ATOM     15  N   UNL     1      40.024  30.687  44.224  0.00  0.00    +0.000 NA
ATOM     16  C   UNL     1      38.801  30.190  44.594  0.00  0.00    +0.000 A 
ATOM     17  N   UNL     1      38.290  30.469  45.774  0.00  0.00    +0.000 NA
BRANCH  16  18
ATOM     18  C   UNL     1      37.989  29.341  43.679  0.00  0.00    +0.000 C 
BRANCH  18  19
ATOM     19  N   UNL     1      36.689  29.962  43.554  0.00  0.00    +0.000 N 
ATOM     20  C   UNL     1      35.554  29.312  43.965  0.00  0.00    +0.000 A 
ATOM     21  N   UNL     1      34.450  30.051  43.758  0.00  0.00    +0.000 NA
ATOM     22  C   UNL     1      34.852  31.204  43.206  0.00  0.00    +0.000 A 
ATOM     23  C   UNL     1      34.150  32.300  42.804  0.00  0.00    +0.000 A 
ATOM     24  N   UNL     1      34.843  33.318  42.284  0.00  0.00    +0.000 NA
ATOM     25  C   UNL     1      36.189  33.221  42.182  0.00  0.00    +0.000 A 
ATOM     26  N   UNL     1      36.924  32.137  42.574  0.00  0.00    +0.000 NA
ATOM     27  C   UNL     1      36.215  31.111  43.099  0.00  0.00    +0.000 A 
ENDBRANCH  18  19
ENDBRANCH  16  18
ENDBRANCH   1  12
BRANCH   1  28
ATOM     28  O   UNL     1      38.373  32.886  48.312  0.00  0.00    +0.000 OA
BRANCH  28  29
ATOM     29  C   UNL     1      39.212  33.838  48.848  0.00  0.00    +0.000 C 
ATOM     30  N   UNL     1      39.949  34.778  48.007  0.00  0.00    +0.000 N 
ATOM     31  O   UNL     1      39.380  33.942  50.090  0.00  0.00    +0.000 OA
ATOM     32  H   UNL     1      40.569  35.478  48.438  0.00  0.00    +0.000 HD
ATOM     33  H   UNL     1      39.849  34.740  46.983  0.00  0.00    +0.000 HD
ENDBRANCH  28  29
ENDBRANCH   1  28
TORSDOF 6
