REMARK  Name = 
REMARK  1 active torsions:
REMARK  status: ('A' for Active; 'I' for Inactive)
REMARK    1  A    between atoms: C_1  and  C_13
REMARK                            x       y       z     vdW  Elec       q    Type
REMARK                         _______ _______ _______ _____ _____    ______ ____
ROOT
ATOM      1  C   UNL     1      35.445  29.171  49.393  0.00  0.00    +0.000 A 
ATOM      2  C   UNL     1      35.589  30.162  48.440  0.00  0.00    +0.000 A 
ATOM      3  C   UNL     1      34.651  30.224  47.424  0.00  0.00    +0.000 A 
ATOM      4  N   UNL     1      33.634  29.317  47.401  0.00  0.00    +0.000 NA
ATOM      5  C   UNL     1      33.527  28.356  48.357  0.00  0.00    +0.000 A 
ATOM      6  N   UNL     1      34.431  28.287  49.347  0.00  0.00    +0.000 NA
ATOM      7  N   UNL     1      32.482  27.394  48.365  0.00  0.00    +0.000 N 
ATOM      8  C   UNL     1      31.224  27.604  49.041  0.00  0.00    +0.000 C 
ATOM      9  C   UNL     1      30.200  27.926  47.952  0.00  0.00    +0.000 C 
ATOM     10  C   UNL     1      30.668  27.354  46.638  0.00  0.00    +0.000 C 
ATOM     11  C   UNL     1      31.355  26.012  46.796  0.00  0.00    +0.000 C 
ATOM     12  C   UNL     1      32.589  26.109  47.691  0.00  0.00    +0.000 C 
ENDROOT
BRANCH   2  13
ATOM     13  C   UNL     1      36.710  31.078  48.560  0.00  0.00    +0.000 A 
ATOM     14  C   UNL     1      36.950  31.806  49.701  0.00  0.00    +0.000 A 
ATOM     15  C   UNL     1      38.066  32.649  49.680  0.00  0.00    +0.000 A 
ATOM     16  N   UNL     1      38.883  32.770  48.623  0.00  0.00    +0.000 NA
ATOM     17  C   UNL     1      38.604  32.034  47.531  0.00  0.00    +0.000 A 
ATOM     18  N   UNL     1      37.526  31.196  47.499  0.00  0.00    +0.000 NA
ATOM     19  N   UNL     1      39.449  32.129  46.376  0.00  0.00    +0.000 N 
ATOM     20  C   UNL     1      39.963  33.123  45.644  0.00  0.00    +0.000 A 
ATOM     21  N   UNL     1      40.701  32.555  44.656  0.00  0.00    +0.000 NA
ATOM     22  C   UNL     1      40.619  31.206  44.810  0.00  0.00    +0.000 A 
ATOM     23  N   UNL     1      39.829  30.934  45.894  0.00  0.00    +0.000 NA
ENDBRANCH   2  13
TORSDOF 1
