REMARK  Name = 
REMARK  5 active torsions:
REMARK  status: ('A' for Active; 'I' for Inactive)
REMARK    1  A    between atoms: C_1  and  C_15
REMARK    2  A    between atoms: C_4  and  O_27
REMARK    3  A    between atoms: C_12  and  N_22
REMARK    4  A    between atoms: C_13  and  N_17
REMARK    5  A    between atoms: O_27  and  C_28
REMARK                            x       y       z     vdW  Elec       q    Type
REMARK                         _______ _______ _______ _____ _____    ______ ____
ROOT
ATOM      1  C   UNL     1      36.123  31.333  42.616  0.00  0.00    +0.000 A 
ATOM      2  C   UNL     1      37.310  31.016  41.926  0.00  0.00    +0.000 A 
ATOM      3  C   UNL     1      38.368  30.609  42.661  0.00  0.00    +0.000 A 
ATOM      4  N   UNL     1      38.192  30.545  43.972  0.00  0.00    +0.000 NA
ATOM      5  C   UNL     1      37.151  30.814  44.686  0.00  0.00    +0.000 A 
ATOM      6  N   UNL     1      36.124  31.211  43.944  0.00  0.00    +0.000 NA
ENDROOT
BRANCH   5   7
ATOM      7  C   UNL     1      36.843  30.786  46.102  0.00  0.00    +0.000 A 
ATOM      8  C   UNL     1      35.826  30.026  46.661  0.00  0.00    +0.000 A 
ATOM      9  C   UNL     1      35.519  29.984  47.984  0.00  0.00    +0.000 A 
ATOM     10  C   UNL     1      36.238  30.730  48.878  0.00  0.00    +0.000 A 
ATOM     11  C   UNL     1      37.245  31.495  48.397  0.00  0.00    +0.000 A 
ATOM     12  C   UNL     1      37.968  32.249  49.306  0.00  0.00    +0.000 A 
ATOM     13  C   UNL     1      39.003  33.049  48.907  0.00  0.00    +0.000 A 
ATOM     14  C   UNL     1      39.312  33.088  47.558  0.00  0.00    +0.000 A 
ATOM     15  C   UNL     1      38.572  32.329  46.694  0.00  0.00    +0.000 A 
ATOM     16  C   UNL     1      37.542  31.524  47.049  0.00  0.00    +0.000 A 
BRANCH  10  17
ATOM     17  O   UNL     1      35.913  30.676  50.215  0.00  0.00    +0.000 OA
BRANCH  17  18
ATOM     18  C   UNL     1      36.423  29.632  51.034  0.00  0.00    +0.000 C 
ATOM     19  F   UNL     1      37.237  28.740  50.413  0.00  0.00    +0.000 F 
ATOM     20  F   UNL     1      37.202  30.235  52.020  0.00  0.00    +0.000 F 
ATOM     21  F   UNL     1      35.316  28.998  51.588  0.00  0.00    +0.000 F 
ENDBRANCH  17  18
ENDBRANCH  10  17
ENDBRANCH   5   7
BRANCH   3  22
ATOM     22  N   UNL     1      39.627  30.246  42.106  0.00  0.00    +0.000 N 
ATOM     23  C   UNL     1      40.752  29.927  42.910  0.00  0.00    +0.000 C 
ATOM     24  N   UNL     1      40.957  30.647  43.965  0.00  0.00    +0.000 NA
ATOM     25  N   UNL     1      41.615  28.860  42.566  0.00  0.00    +0.000 N 
ATOM     26  H   UNL     1      41.702  30.544  44.643  0.00  0.00    +0.000 HD
ATOM     27  H   UNL     1      39.726  30.213  41.081  0.00  0.00    +0.000 HD
ATOM     28  H   UNL     1      42.427  28.642  43.161  0.00  0.00    +0.000 HD
ATOM     29  H   UNL     1      41.431  28.301  41.721  0.00  0.00    +0.000 HD
ENDBRANCH   3  22
BRANCH   2  30
ATOM     30  N   UNL     1      37.419  31.113  40.504  0.00  0.00    +0.000 N 
ATOM     31  C   UNL     1      37.256  30.178  39.541  0.00  0.00    +0.000 A 
ATOM     32  C   UNL     1      37.482  30.822  38.337  0.00  0.00    +0.000 A 
ATOM     33  N   UNL     1      37.777  32.115  38.555  0.00  0.00    +0.000 NA
ATOM     34  C   UNL     1      37.735  32.287  39.890  0.00  0.00    +0.000 A 
ENDBRANCH   2  30
TORSDOF 5
