REMARK  Name = 
REMARK  3 active torsions:
REMARK  status: ('A' for Active; 'I' for Inactive)
REMARK    1  A    between atoms: C_1  and  C_2
REMARK    2  A    between atoms: C_1  and  C_16
REMARK    3  A    between atoms: C_1  and  O_26
REMARK                            x       y       z     vdW  Elec       q    Type
REMARK                         _______ _______ _______ _____ _____    ______ ____
ROOT
ATOM      1  C   UNL     1      38.934  32.065  46.620  0.00  0.00    +0.000 A 
ATOM      2  C   UNL     1      39.893  33.045  46.304  0.00  0.00    +0.000 A 
ATOM      3  C   UNL     1      40.557  33.004  45.029  0.00  0.00    +0.000 A 
ATOM      4  N   UNL     1      40.187  31.989  44.211  0.00  0.00    +0.000 NA
ATOM      5  C   UNL     1      39.254  31.064  44.554  0.00  0.00    +0.000 A 
ATOM      6  N   UNL     1      38.640  31.097  45.726  0.00  0.00    +0.000 NA
ATOM      7  N   UNL     1      38.883  30.008  43.672  0.00  0.00    +0.000 N 
ATOM      8  C   UNL     1      37.635  29.506  43.633  0.00  0.00    +0.000 A 
ATOM      9  C   UNL     1      37.368  28.486  42.749  0.00  0.00    +0.000 A 
ATOM     10  C   UNL     1      38.367  28.023  41.948  0.00  0.00    +0.000 A 
ATOM     11  N   UNL     1      38.196  26.963  40.989  0.00  0.00    +0.000 N 
ATOM     12  N   UNL     1      39.578  28.550  42.022  0.00  0.00    +0.000 NA
ATOM     13  C   UNL     1      39.887  29.547  42.870  0.00  0.00    +0.000 A 
ATOM     14  O   UNL     1      41.054  30.044  42.932  0.00  0.00    +0.000 OA
ATOM     15  H   UNL     1      37.278  26.509  40.881  0.00  0.00    +0.000 HD
ATOM     16  H   UNL     1      38.992  26.658  40.411  0.00  0.00    +0.000 HD
ENDROOT
BRANCH   1  17
ATOM     17  C   UNL     1      38.514  32.189  47.987  0.00  0.00    +0.000 C 
BRANCH  17  18
ATOM     18  C   UNL     1      37.889  31.262  48.930  0.00  0.00    +0.000 A 
ATOM     19  N   UNL     1      38.418  31.126  50.145  0.00  0.00    +0.000 NA
ATOM     20  C   UNL     1      37.910  30.283  51.080  0.00  0.00    +0.000 A 
ATOM     21  N   UNL     1      36.839  29.526  50.850  0.00  0.00    +0.000 NA
ATOM     22  C   UNL     1      36.228  29.592  49.652  0.00  0.00    +0.000 A 
ATOM     23  C   UNL     1      35.122  28.822  49.369  0.00  0.00    +0.000 A 
ATOM     24  C   UNL     1      34.497  28.872  48.162  0.00  0.00    +0.000 A 
ATOM     25  C   UNL     1      35.032  29.739  47.231  0.00  0.00    +0.000 A 
ATOM     26  C   UNL     1      36.137  30.494  47.540  0.00  0.00    +0.000 A 
ATOM     27  C   UNL     1      36.782  30.460  48.745  0.00  0.00    +0.000 A 
ENDBRANCH  17  18
BRANCH  17  28
ATOM     28  O   UNL     1      38.206  33.377  48.504  0.00  0.00    +0.000 OA
ATOM     29  H   UNL     1      38.221  33.321  49.492  0.00  0.00    +0.000 HD
ENDBRANCH  17  28
ENDBRANCH   1  17
TORSDOF 3
