REMARK  Name = 
REMARK  4 active torsions:
REMARK  status: ('A' for Active; 'I' for Inactive)
REMARK    1  A    between atoms: C_1  and  C_2
REMARK    2  A    between atoms: C_1  and  C_12
REMARK    3  A    between atoms: C_1  and  O_28
REMARK    4  A    between atoms: C_16  and  C_18
REMARK                            x       y       z     vdW  Elec       q    Type
REMARK                         _______ _______ _______ _____ _____    ______ ____
ROOT
ATOM      1  C   UNL     1      38.908  32.205  46.724  0.00  0.00    +0.000 A 
ATOM      2  C   UNL     1      39.895  33.164  46.456  0.00  0.00    +0.000 A 
ATOM      3  C   UNL     1      40.559  33.139  45.184  0.00  0.00    +0.000 A 
ATOM      4  N   UNL     1      40.181  32.179  44.324  0.00  0.00    +0.000 NA
ATOM      5  C   UNL     1      39.216  31.264  44.613  0.00  0.00    +0.000 A 
ATOM      6  N   UNL     1      38.607  31.293  45.788  0.00  0.00    +0.000 NA
ENDROOT
BRANCH   5   7
ATOM      7  C   UNL     1      38.707  30.174  43.788  0.00  0.00    +0.000 A 
ATOM      8  C   UNL     1      37.401  29.686  43.867  0.00  0.00    +0.000 A 
ATOM      9  C   UNL     1      36.896  28.666  43.108  0.00  0.00    +0.000 A 
ATOM     10  C   UNL     1      37.696  28.043  42.183  0.00  0.00    +0.000 A 
ATOM     11  C   UNL     1      38.996  28.460  42.040  0.00  0.00    +0.000 A 
ATOM     12  C   UNL     1      39.754  27.813  41.114  0.00  0.00    +0.000 A 
ATOM     13  C   UNL     1      41.065  28.181  40.921  0.00  0.00    +0.000 A 
ATOM     14  C   UNL     1      41.576  29.218  41.695  0.00  0.00    +0.000 A 
ATOM     15  C   UNL     1      40.742  29.819  42.610  0.00  0.00    +0.000 A 
ATOM     16  C   UNL     1      39.430  29.491  42.839  0.00  0.00    +0.000 A 
ENDBRANCH   5   7
BRANCH   1  17
ATOM     17  C   UNL     1      38.473  32.282  48.086  0.00  0.00    +0.000 C 
BRANCH  17  18
ATOM     18  C   UNL     1      37.864  31.318  49.001  0.00  0.00    +0.000 A 
ATOM     19  N   UNL     1      38.384  31.168  50.220  0.00  0.00    +0.000 NA
ATOM     20  C   UNL     1      37.892  30.291  51.129  0.00  0.00    +0.000 A 
ATOM     21  N   UNL     1      36.844  29.509  50.874  0.00  0.00    +0.000 NA
ATOM     22  C   UNL     1      36.247  29.589  49.670  0.00  0.00    +0.000 A 
ATOM     23  C   UNL     1      35.164  28.792  49.353  0.00  0.00    +0.000 A 
ATOM     24  C   UNL     1      34.551  28.849  48.142  0.00  0.00    +0.000 A 
ATOM     25  C   UNL     1      35.070  29.751  47.242  0.00  0.00    +0.000 A 
ATOM     26  C   UNL     1      36.147  30.531  47.579  0.00  0.00    +0.000 A 
ATOM     27  C   UNL     1      36.782  30.493  48.783  0.00  0.00    +0.000 A 
ENDBRANCH  17  18
BRANCH  17  28
ATOM     28  O   UNL     1      38.138  33.450  48.630  0.00  0.00    +0.000 OA
ATOM     29  H   UNL     1      38.160  33.373  49.617  0.00  0.00    +0.000 HD
ENDBRANCH  17  28
ENDBRANCH   1  17
TORSDOF 4
