REMARK  Name = 
REMARK  2 active torsions:
REMARK  status: ('A' for Active; 'I' for Inactive)
REMARK    1  A    between atoms: C_1  and  C_21
REMARK    2  A    between atoms: C_14  and  C_15
REMARK                            x       y       z     vdW  Elec       q    Type
REMARK                         _______ _______ _______ _____ _____    ______ ____
ROOT
ATOM      1  C   UNL     1      36.904  29.942  49.891  0.00  0.00    +0.000 A 
ATOM      2  C   UNL     1      38.007  30.634  49.407  0.00  0.00    +0.000 A 
ATOM      3  C   UNL     1      37.982  31.087  48.085  0.00  0.00    +0.000 A 
ATOM      4  N   UNL     1      36.882  30.826  47.348  0.00  0.00    +0.000 NA
ATOM      5  C   UNL     1      35.824  30.144  47.862  0.00  0.00    +0.000 A 
ATOM      6  N   UNL     1      35.850  29.715  49.117  0.00  0.00    +0.000 NA
ATOM      7  N   UNL     1      39.063  31.793  47.534  0.00  0.00    +0.000 N 
ATOM      8  C   UNL     1      38.952  32.529  46.345  0.00  0.00    +0.000 C 
ATOM      9  N   UNL     1      37.853  32.454  45.690  0.00  0.00    +0.000 NA
ATOM     10  N   UNL     1      40.034  33.328  45.895  0.00  0.00    +0.000 N 
ATOM     11  H   UNL     1      37.785  32.936  44.754  0.00  0.00    +0.000 HD
ATOM     12  N   UNL     1      34.647  29.847  47.123  0.00  0.00    +0.000 N 
ATOM     13  C   UNL     1      34.359  30.139  45.843  0.00  0.00    +0.000 A 
ATOM     14  C   UNL     1      33.148  29.762  45.299  0.00  0.00    +0.000 A 
ATOM     15  C   UNL     1      32.872  30.105  43.880  0.00  0.00    +0.000 C 
ATOM     16  C   UNL     1      32.241  29.086  46.075  0.00  0.00    +0.000 A 
ATOM     17  O   UNL     1      31.129  28.733  45.595  0.00  0.00    +0.000 OA
ATOM     18  N   UNL     1      32.546  28.801  47.357  0.00  0.00    +0.000 N 
ATOM     19  C   UNL     1      33.728  29.174  47.874  0.00  0.00    +0.000 A 
ATOM     20  O   UNL     1      33.888  28.844  49.092  0.00  0.00    +0.000 OA
ATOM     21  H   UNL     1      39.971  31.770  48.020  0.00  0.00    +0.000 HD
ATOM     22  H   UNL     1      39.948  33.867  45.021  0.00  0.00    +0.000 HD
ATOM     23  H   UNL     1      40.906  33.370  46.442  0.00  0.00    +0.000 HD
ATOM     24  H   UNL     1      31.868  28.294  47.944  0.00  0.00    +0.000 HD
ENDROOT
BRANCH   1  25
ATOM     25  C   UNL     1      36.930  29.451  51.320  0.00  0.00    +0.000 C 
ATOM     26  F   UNL     1      35.639  29.151  51.719  0.00  0.00    +0.000 F 
ATOM     27  F   UNL     1      37.799  28.404  51.390  0.00  0.00    +0.000 F 
ATOM     28  F   UNL     1      37.391  30.510  52.098  0.00  0.00    +0.000 F 
ENDBRANCH   1  25
TORSDOF 1
