REMARK  Name = 
REMARK  4 active torsions:
REMARK  status: ('A' for Active; 'I' for Inactive)
REMARK    1  A    between atoms: C_2  and  C_7
REMARK    2  A    between atoms: C_5  and  C_17
REMARK    3  A    between atoms: C_19  and  S_20
REMARK    4  A    between atoms: S_20  and  C_21
REMARK                            x       y       z     vdW  Elec       q    Type
REMARK                         _______ _______ _______ _____ _____    ______ ____
ROOT
ATOM      1  C   UNL     1      35.085  30.103  47.165  0.00  0.00    +0.000 A 
ATOM      2  C   UNL     1      36.112  30.252  48.094  0.00  0.00    +0.000 A 
ATOM      3  C   UNL     1      36.128  29.281  49.142  0.00  0.00    +0.000 A 
ATOM      4  N   UNL     1      35.175  28.314  49.162  0.00  0.00    +0.000 NA
ATOM      5  C   UNL     1      34.213  28.224  48.240  0.00  0.00    +0.000 A 
ATOM      6  N   UNL     1      34.182  29.115  47.259  0.00  0.00    +0.000 NA
ENDROOT
BRANCH   2   7
ATOM      7  C   UNL     1      37.165  31.251  48.156  0.00  0.00    +0.000 A 
ATOM      8  C   UNL     1      37.074  31.999  49.287  0.00  0.00    +0.000 A 
ATOM      9  C   UNL     1      37.990  33.027  49.554  0.00  0.00    +0.000 A 
ATOM     10  C   UNL     1      39.000  33.286  48.658  0.00  0.00    +0.000 A 
ATOM     11  C   UNL     1      39.067  32.514  47.523  0.00  0.00    +0.000 A 
ATOM     12  C   UNL     1      40.058  32.688  46.532  0.00  0.00    +0.000 A 
ATOM     13  C   UNL     1      40.077  31.885  45.415  0.00  0.00    +0.000 A 
ATOM     14  C   UNL     1      39.156  30.904  45.219  0.00  0.00    +0.000 A 
ATOM     15  C   UNL     1      38.178  30.716  46.172  0.00  0.00    +0.000 A 
ATOM     16  C   UNL     1      38.169  31.516  47.275  0.00  0.00    +0.000 A 
ENDBRANCH   2   7
BRANCH   5  17
ATOM     17  C   UNL     1      33.217  27.136  48.334  0.00  0.00    +0.000 C 
ATOM     18  C   UNL     1      31.783  27.491  48.590  0.00  0.00    +0.000 C 
ATOM     19  C   UNL     1      32.206  26.950  47.256  0.00  0.00    +0.000 C 
BRANCH  19  20
ATOM     20  S   UNL     1      31.813  25.259  46.756  0.00  0.00    +0.000 S 
BRANCH  20  21
ATOM     21  C   UNL     1      33.343  24.312  46.860  0.00  0.00    +0.000 A 
ATOM     22  C   UNL     1      33.846  23.399  47.772  0.00  0.00    +0.000 A 
ATOM     23  N   UNL     1      35.059  23.007  47.330  0.00  0.00    +0.000 N 
ATOM     24  C   UNL     1      35.376  23.619  46.172  0.00  0.00    +0.000 A 
ATOM     25  C   UNL     1      36.482  23.548  45.349  0.00  0.00    +0.000 A 
ATOM     26  C   UNL     1      36.571  24.292  44.187  0.00  0.00    +0.000 A 
ATOM     27  C   UNL     1      35.508  25.121  43.867  0.00  0.00    +0.000 A 
ATOM     28  C   UNL     1      34.412  25.182  44.696  0.00  0.00    +0.000 A 
ATOM     29  C   UNL     1      34.305  24.436  45.875  0.00  0.00    +0.000 A 
ATOM     30  H   UNL     1      35.664  22.328  47.815  0.00  0.00    +0.000 HD
ENDBRANCH  20  21
ENDBRANCH  19  20
ENDBRANCH   5  17
TORSDOF 4
