REMARK  Name = 
REMARK  7 active torsions:
REMARK  status: ('A' for Active; 'I' for Inactive)
REMARK    1  A    between atoms: C_1  and  C_5
REMARK    2  A    between atoms: C_1  and  C_13
REMARK    3  A    between atoms: C_1  and  C_14
REMARK    4  A    between atoms: C_2  and  C_11
REMARK    5  A    between atoms: C_14  and  O_15
REMARK    6  A    between atoms: O_15  and  C_16
REMARK    7  A    between atoms: C_19  and  N_21
REMARK                            x       y       z     vdW  Elec       q    Type
REMARK                         _______ _______ _______ _____ _____    ______ ____
ROOT
ATOM      1  O   UNL     1      30.193  26.840  48.877  0.00  0.00    +0.000 OA
ENDROOT
BRANCH   1   2
ATOM      2  C   UNL     1      28.891  27.265  48.694  0.00  0.00    +0.000 A 
ATOM      3  C   UNL     1      27.605  26.748  48.644  0.00  0.00    +0.000 A 
ATOM      4  C   UNL     1      26.789  27.841  48.413  0.00  0.00    +0.000 A 
ATOM      5  C   UNL     1      27.584  28.954  48.334  0.00  0.00    +0.000 A 
ATOM      6  O   UNL     1      28.817  28.552  48.507  0.00  0.00    +0.000 OA
BRANCH   5   7
ATOM      7  N   UNL     1      27.023  30.244  48.100  0.00  0.00    +0.000 N 
ATOM      8  C   UNL     1      26.590  31.139  49.007  0.00  0.00    +0.000 A 
ATOM      9  N   UNL     1      26.150  32.207  48.283  0.00  0.00    +0.000 NA
ATOM     10  C   UNL     1      26.311  31.973  46.962  0.00  0.00    +0.000 A 
ATOM     11  C   UNL     1      26.065  32.647  45.784  0.00  0.00    +0.000 A 
ATOM     12  N   UNL     1      26.347  32.125  44.575  0.00  0.00    +0.000 NA
ATOM     13  C   UNL     1      26.889  30.905  44.492  0.00  0.00    +0.000 A 
ATOM     14  N   UNL     1      27.147  30.211  45.612  0.00  0.00    +0.000 NA
ATOM     15  C   UNL     1      26.873  30.710  46.846  0.00  0.00    +0.000 A 
ENDBRANCH   5   7
ENDBRANCH   1   2
BRANCH   1  16
ATOM     16  C   UNL     1      31.222  27.695  48.976  0.00  0.00    +0.000 C 
BRANCH  16  17
ATOM     17  C   UNL     1      32.242  27.569  47.848  0.00  0.00    +0.000 C 
ATOM     18  C   UNL     1      31.819  28.041  46.550  0.00  0.00    +0.000 C 
BRANCH  17  22
ATOM     19  C   UNL     1      35.524  29.904  48.522  0.00  0.00    +0.000 A 
ATOM     20  C   UNL     1      35.395  28.835  49.395  0.00  0.00    +0.000 A 
ATOM     21  C   UNL     1      34.329  28.019  49.246  0.00  0.00    +0.000 A 
ATOM     22  C   UNL     1      33.477  28.282  48.285  0.00  0.00    +0.000 A 
ATOM     23  S   UNL     1      34.077  29.776  47.420  0.00  0.00    +0.000 S 
BRANCH  19  28
ATOM     24  C   UNL     1      37.818  32.579  49.525  0.00  0.00    +0.000 A 
ATOM     25  C   UNL     1      38.598  32.782  48.372  0.00  0.00    +0.000 A 
ATOM     26  C   UNL     1      38.326  32.004  47.272  0.00  0.00    +0.000 A 
ATOM     27  N   UNL     1      37.327  31.083  47.346  0.00  0.00    +0.000 NA
ATOM     28  C   UNL     1      36.616  30.936  48.475  0.00  0.00    +0.000 A 
ATOM     29  N   UNL     1      36.806  31.661  49.628  0.00  0.00    +0.000 NA
ENDBRANCH  19  28
ENDBRANCH  17  22
ENDBRANCH  16  17
ENDBRANCH   1  16
TORSDOF 6
