REMARK  Name = 
REMARK  5 active torsions:
REMARK  status: ('A' for Active; 'I' for Inactive)
REMARK    1  A    between atoms: C_1  and  C_11
REMARK    2  A    between atoms: C_6  and  C_17
REMARK    3  A    between atoms: C_8  and  C_13
REMARK    4  A    between atoms: C_17  and  C_18
REMARK    5  A    between atoms: C_18  and  C_19
REMARK                            x       y       z     vdW  Elec       q    Type
REMARK                         _______ _______ _______ _____ _____    ______ ____
ROOT
ATOM      1  C   UNL     1      31.712  26.271  47.611  0.00  0.00    +0.000 A 
ATOM      2  C   UNL     1      31.458  25.134  46.927  0.00  0.00    +0.000 A 
ATOM      3  C   UNL     1      32.440  24.363  46.342  0.00  0.00    +0.000 A 
ATOM      4  C   UNL     1      33.740  24.818  46.490  0.00  0.00    +0.000 A 
ATOM      5  C   UNL     1      34.017  25.970  47.181  0.00  0.00    +0.000 A 
ATOM      6  C   UNL     1      33.009  26.714  47.751  0.00  0.00    +0.000 A 
ENDROOT
BRANCH   1  11
ATOM      7  C   UNL     1      29.269  27.629  50.011  0.00  0.00    +0.000 A 
ATOM      8  C   UNL     1      28.597  28.609  49.236  0.00  0.00    +0.000 A 
ATOM      9  C   UNL     1      29.007  28.765  47.923  0.00  0.00    +0.000 A 
ATOM     10  N   UNL     1      30.029  27.980  47.438  0.00  0.00    +0.000 NA
ATOM     11  C   UNL     1      30.635  27.062  48.217  0.00  0.00    +0.000 A 
ATOM     12  N   UNL     1      30.252  26.899  49.483  0.00  0.00    +0.000 NA
BRANCH   8  13
ATOM     13  C   UNL     1      27.500  29.439  49.783  0.00  0.00    +0.000 C 
ATOM     14  F   UNL     1      27.921  30.637  50.284  0.00  0.00    +0.000 F 
ATOM     15  F   UNL     1      26.834  28.788  50.817  0.00  0.00    +0.000 F 
ATOM     16  F   UNL     1      26.566  29.696  48.772  0.00  0.00    +0.000 F 
ENDBRANCH   8  13
ENDBRANCH   1  11
BRANCH   6  17
ATOM     17  C   UNL     1      33.265  27.957  48.502  0.00  0.00    +0.000 C 
BRANCH  17  18
ATOM     18  C   UNL     1      33.864  29.058  47.700  0.00  0.00    +0.000 C 
BRANCH  18  19
ATOM     19  C   UNL     1      35.091  29.544  48.330  0.00  0.00    +0.000 A 
ATOM     20  C   UNL     1      35.741  28.875  49.353  0.00  0.00    +0.000 A 
ATOM     21  C   UNL     1      36.858  29.583  49.730  0.00  0.00    +0.000 A 
ATOM     22  N   UNL     1      36.857  30.688  48.909  0.00  0.00    +0.000 N 
ATOM     23  N   UNL     1      35.811  30.657  48.086  0.00  0.00    +0.000 NA
ATOM     24  C   UNL     1      37.741  31.799  48.797  0.00  0.00    +0.000 A 
ATOM     25  N   UNL     1      38.615  31.932  47.766  0.00  0.00    +0.000 NA
ATOM     26  O   UNL     1      39.297  33.022  47.902  0.00  0.00    +0.000 OA
ATOM     27  C   UNL     1      38.907  33.639  49.008  0.00  0.00    +0.000 A 
ATOM     28  N   UNL     1      37.939  32.883  49.569  0.00  0.00    +0.000 NA
ENDBRANCH  18  19
ENDBRANCH  17  18
ENDBRANCH   6  17
TORSDOF 5
