REMARK  Name = 
REMARK  3 active torsions:
REMARK  status: ('A' for Active; 'I' for Inactive)
REMARK    1  A    between atoms: C_2  and  N_7
REMARK    2  A    between atoms: C_5  and  C_16
REMARK    3  A    between atoms: C_18  and  C_19
REMARK                            x       y       z     vdW  Elec       q    Type
REMARK                         _______ _______ _______ _____ _____    ______ ____
ROOT
ATOM      1  C   UNL     1      35.099  30.513  47.637  0.00  0.00    +0.000 A 
ATOM      2  C   UNL     1      36.214  30.347  48.434  0.00  0.00    +0.000 A 
ATOM      3  C   UNL     1      36.225  29.277  49.314  0.00  0.00    +0.000 A 
ATOM      4  N   UNL     1      35.117  28.458  49.328  0.00  0.00    +0.000 NA
ATOM      5  C   UNL     1      34.065  28.648  48.549  0.00  0.00    +0.000 A 
ATOM      6  N   UNL     1      34.045  29.682  47.692  0.00  0.00    +0.000 NA
ENDROOT
BRANCH   2   7
ATOM      7  N   UNL     1      37.294  31.225  48.356  0.00  0.00    +0.000 N 
ATOM      8  C   UNL     1      37.936  31.790  49.392  0.00  0.00    +0.000 A 
ATOM      9  N   UNL     1      38.935  32.589  48.992  0.00  0.00    +0.000 NA
ATOM     10  C   UNL     1      38.947  32.543  47.634  0.00  0.00    +0.000 A 
ATOM     11  C   UNL     1      39.704  33.121  46.667  0.00  0.00    +0.000 A 
ATOM     12  N   UNL     1      39.522  32.918  45.347  0.00  0.00    +0.000 NA
ATOM     13  C   UNL     1      38.509  32.079  45.013  0.00  0.00    +0.000 A 
ATOM     14  N   UNL     1      37.764  31.510  45.966  0.00  0.00    +0.000 NA
ATOM     15  C   UNL     1      37.911  31.684  47.269  0.00  0.00    +0.000 A 
ENDBRANCH   2   7
BRANCH   5  16
ATOM     16  C   UNL     1      32.898  27.699  48.648  0.00  0.00    +0.000 C 
ATOM     17  C   UNL     1      32.972  26.582  47.557  0.00  0.00    +0.000 C 
ATOM     18  C   UNL     1      31.911  27.615  47.566  0.00  0.00    +0.000 C 
BRANCH  18  19
ATOM     19  C   UNL     1      30.494  27.305  47.703  0.00  0.00    +0.000 A 
ATOM     20  C   UNL     1      29.797  26.991  46.524  0.00  0.00    +0.000 A 
ATOM     21  N   UNL     1      28.530  26.718  46.830  0.00  0.00    +0.000 N 
ATOM     22  C   UNL     1      28.297  26.822  48.148  0.00  0.00    +0.000 A 
ATOM     23  C   UNL     1      27.254  26.680  49.049  0.00  0.00    +0.000 A 
ATOM     24  C   UNL     1      27.470  26.901  50.413  0.00  0.00    +0.000 A 
ATOM     25  C   UNL     1      28.709  27.264  50.901  0.00  0.00    +0.000 A 
ATOM     26  C   UNL     1      29.752  27.408  50.010  0.00  0.00    +0.000 A 
ATOM     27  C   UNL     1      29.519  27.185  48.670  0.00  0.00    +0.000 A 
ATOM     28  H   UNL     1      27.814  26.458  46.137  0.00  0.00    +0.000 HD
ENDBRANCH  18  19
ENDBRANCH   5  16
TORSDOF 3
