REMARK  Name = 
REMARK  1 active torsions:
REMARK  status: ('A' for Active; 'I' for Inactive)
REMARK    1  A    between atoms: C_2  and  C_15
REMARK                            x       y       z     vdW  Elec       q    Type
REMARK                         _______ _______ _______ _____ _____    ______ ____
ROOT
ATOM      1  C   UNL     1      34.992  28.959  49.132  0.00  0.00    +0.000 A 
ATOM      2  C   UNL     1      35.272  29.998  48.269  0.00  0.00    +0.000 A 
ATOM      3  C   UNL     1      34.417  30.198  47.189  0.00  0.00    +0.000 A 
ATOM      4  N   UNL     1      33.349  29.355  47.045  0.00  0.00    +0.000 NA
ATOM      5  C   UNL     1      33.111  28.350  47.913  0.00  0.00    +0.000 A 
ATOM      6  N   UNL     1      33.935  28.138  48.974  0.00  0.00    +0.000 NA
ATOM      7  N   UNL     1      31.944  27.639  47.522  0.00  0.00    +0.000 N 
ATOM      8  C   UNL     1      31.803  27.108  46.290  0.00  0.00    +0.000 A 
ATOM      9  C   UNL     1      30.642  26.415  45.939  0.00  0.00    +0.000 A 
ATOM     10  C   UNL     1      29.703  26.337  46.942  0.00  0.00    +0.000 A 
ATOM     11  O   UNL     1      28.637  25.705  46.631  0.00  0.00    +0.000 OA
ATOM     12  N   UNL     1      29.833  26.863  48.173  0.00  0.00    +0.000 N 
ATOM     13  C   UNL     1      30.982  27.529  48.468  0.00  0.00    +0.000 A 
ATOM     14  O   UNL     1      31.079  28.008  49.620  0.00  0.00    +0.000 OA
ATOM     15  H   UNL     1      29.084  26.764  48.873  0.00  0.00    +0.000 HD
ENDROOT
BRANCH   2  16
ATOM     16  C   UNL     1      36.439  30.824  48.533  0.00  0.00    +0.000 A 
ATOM     17  C   UNL     1      36.679  31.394  49.754  0.00  0.00    +0.000 A 
ATOM     18  C   UNL     1      37.840  32.165  49.867  0.00  0.00    +0.000 A 
ATOM     19  N   UNL     1      38.705  32.364  48.858  0.00  0.00    +0.000 NA
ATOM     20  C   UNL     1      38.411  31.773  47.675  0.00  0.00    +0.000 A 
ATOM     21  N   UNL     1      37.298  31.017  47.513  0.00  0.00    +0.000 NA
ATOM     22  N   UNL     1      39.305  31.958  46.568  0.00  0.00    +0.000 N 
ATOM     23  C   UNL     1      39.914  33.017  45.984  0.00  0.00    +0.000 A 
ATOM     24  N   UNL     1      40.648  32.517  44.957  0.00  0.00    +0.000 NA
ATOM     25  C   UNL     1      40.473  31.172  44.935  0.00  0.00    +0.000 A 
ATOM     26  N   UNL     1      39.629  30.828  45.950  0.00  0.00    +0.000 NA
ENDBRANCH   2  16
TORSDOF 1
