REMARK  Name = 
REMARK  2 active torsions:
REMARK  status: ('A' for Active; 'I' for Inactive)
REMARK    1  A    between atoms: C_1  and  N_20
REMARK    2  A    between atoms: C_3  and  N_4
REMARK                            x       y       z     vdW  Elec       q    Type
REMARK                         _______ _______ _______ _____ _____    ______ ____
ROOT
ATOM      1  C   UNL     1      37.686  31.637  48.403  0.00  0.00    +0.000 C 
ATOM      2  C   UNL     1      38.056  31.379  49.800  0.00  0.00    +0.000 C 
ATOM      3  C   UNL     1      37.660  30.235  48.816  0.00  0.00    +0.000 C 
ENDROOT
BRANCH   3   4
ATOM      4  N   UNL     1      36.387  29.611  49.006  0.00  0.00    +0.000 N 
ATOM      5  C   UNL     1      36.241  28.844  50.112  0.00  0.00    +0.000 A 
ATOM      6  N   UNL     1      34.973  28.351  50.099  0.00  0.00    +0.000 NA
ATOM      7  C   UNL     1      34.344  28.808  48.997  0.00  0.00    +0.000 A 
ATOM      8  C   UNL     1      33.097  28.649  48.476  0.00  0.00    +0.000 A 
ATOM      9  O   UNL     1      32.280  27.935  49.085  0.00  0.00    +0.000 OA
ATOM     10  N   UNL     1      32.767  29.258  47.319  0.00  0.00    +0.000 N 
ATOM     11  C   UNL     1      33.698  30.030  46.690  0.00  0.00    +0.000 A 
ATOM     12  N   UNL     1      33.287  30.644  45.476  0.00  0.00    +0.000 N 
ATOM     13  N   UNL     1      34.963  30.226  47.165  0.00  0.00    +0.000 NA
ATOM     14  C   UNL     1      35.247  29.602  48.315  0.00  0.00    +0.000 A 
ATOM     15  H   UNL     1      31.826  29.142  46.917  0.00  0.00    +0.000 HD
ATOM     16  H   UNL     1      32.332  30.494  45.121  0.00  0.00    +0.000 HD
ATOM     17  H   UNL     1      33.944  31.239  44.952  0.00  0.00    +0.000 HD
ENDBRANCH   3   4
BRANCH   1  23
ATOM     18  N   UNL     1      39.548  32.153  45.320  0.00  0.00    +0.000 N 
ATOM     19  C   UNL     1      40.308  33.241  45.666  0.00  0.00    +0.000 A 
ATOM     20  C   UNL     1      40.211  33.819  46.935  0.00  0.00    +0.000 A 
ATOM     21  C   UNL     1      39.313  33.250  47.839  0.00  0.00    +0.000 A 
ATOM     22  O   UNL     1      39.219  33.758  48.963  0.00  0.00    +0.000 OA
ATOM     23  N   UNL     1      38.592  32.178  47.437  0.00  0.00    +0.000 N 
ATOM     24  C   UNL     1      38.717  31.661  46.220  0.00  0.00    +0.000 A 
ATOM     25  O   UNL     1      38.076  30.685  45.810  0.00  0.00    +0.000 OA
ATOM     26  C   UNL     1      40.875  30.263  42.475  0.00  0.00    +0.000 A 
ATOM     27  C   UNL     1      40.628  30.660  43.808  0.00  0.00    +0.000 A 
ATOM     28  C   UNL     1      39.809  31.743  43.997  0.00  0.00    +0.000 A 
ATOM     29  N   UNL     1      39.264  32.397  42.906  0.00  0.00    +0.000 NA
ATOM     30  C   UNL     1      39.529  31.980  41.646  0.00  0.00    +0.000 A 
ATOM     31  N   UNL     1      40.331  30.918  41.422  0.00  0.00    +0.000 NA
ENDBRANCH   1  23
TORSDOF 2
