REMARK  Name = 
REMARK  4 active torsions:
REMARK  status: ('A' for Active; 'I' for Inactive)
REMARK    1  A    between atoms: C_1  and  O_21
REMARK    2  A    between atoms: C_3  and  C_7
REMARK    3  A    between atoms: C_5  and  C_17
REMARK    4  A    between atoms: O_21  and  C_22
REMARK                            x       y       z     vdW  Elec       q    Type
REMARK                         _______ _______ _______ _____ _____    ______ ____
ROOT
ATOM      1  C   UNL     1      37.118  30.879  44.753  0.00  0.00    +0.000 A 
ATOM      2  C   UNL     1      36.835  30.678  46.127  0.00  0.00    +0.000 A 
ATOM      3  C   UNL     1      37.889  30.735  47.036  0.00  0.00    +0.000 A 
ATOM      4  N   UNL     1      39.109  30.982  46.519  0.00  0.00    +0.000 NA
ATOM      5  C   UNL     1      39.357  31.168  45.224  0.00  0.00    +0.000 A 
ATOM      6  N   UNL     1      38.364  31.115  44.361  0.00  0.00    +0.000 NA
ENDROOT
BRANCH   3   7
ATOM      7  C   UNL     1      37.533  30.540  48.427  0.00  0.00    +0.000 A 
ATOM      8  C   UNL     1      38.365  30.937  49.450  0.00  0.00    +0.000 A 
ATOM      9  C   UNL     1      38.092  30.773  50.778  0.00  0.00    +0.000 A 
ATOM     10  C   UNL     1      36.920  30.176  51.195  0.00  0.00    +0.000 A 
ATOM     11  C   UNL     1      36.053  29.759  50.223  0.00  0.00    +0.000 A 
ATOM     12  C   UNL     1      34.880  29.155  50.622  0.00  0.00    +0.000 A 
ATOM     13  C   UNL     1      33.964  28.705  49.707  0.00  0.00    +0.000 A 
ATOM     14  C   UNL     1      34.276  28.888  48.357  0.00  0.00    +0.000 A 
ATOM     15  C   UNL     1      35.450  29.491  48.017  0.00  0.00    +0.000 A 
ATOM     16  C   UNL     1      36.383  29.952  48.905  0.00  0.00    +0.000 A 
ENDBRANCH   3   7
BRANCH   5  17
ATOM     17  C   UNL     1      40.779  31.431  44.878  0.00  0.00    +0.000 C 
ATOM     18  F   UNL     1      41.624  30.923  45.879  0.00  0.00    +0.000 F 
ATOM     19  F   UNL     1      41.124  30.794  43.719  0.00  0.00    +0.000 F 
ATOM     20  F   UNL     1      41.034  32.789  44.708  0.00  0.00    +0.000 F 
ENDBRANCH   5  17
BRANCH   1  21
ATOM     21  O   UNL     1      36.069  30.823  43.843  0.00  0.00    +0.000 OA
BRANCH  21  22
ATOM     22  C   UNL     1      35.669  31.856  43.019  0.00  0.00    +0.000 C 
ATOM     23  F   UNL     1      34.294  32.041  42.948  0.00  0.00    +0.000 F 
ATOM     24  F   UNL     1      36.297  33.059  43.296  0.00  0.00    +0.000 F 
ATOM     25  F   UNL     1      36.091  31.485  41.735  0.00  0.00    +0.000 F 
ENDBRANCH  21  22
ENDBRANCH   1  21
TORSDOF 4
