REMARK  Name = 
REMARK  2 active torsions:
REMARK  status: ('A' for Active; 'I' for Inactive)
REMARK    1  A    between atoms: C_3  and  C_17
REMARK    2  A    between atoms: C_5  and  C_7
REMARK                            x       y       z     vdW  Elec       q    Type
REMARK                         _______ _______ _______ _____ _____    ______ ____
ROOT
ATOM      1  C   UNL     1      33.597  26.850  47.674  0.00  0.00    +0.000 A 
ATOM      2  C   UNL     1      32.689  27.469  46.817  0.00  0.00    +0.000 A 
ATOM      3  C   UNL     1      32.748  28.844  46.775  0.00  0.00    +0.000 A 
ATOM      4  N   UNL     1      33.650  29.484  47.541  0.00  0.00    +0.000 NA
ATOM      5  C   UNL     1      34.515  28.908  48.356  0.00  0.00    +0.000 A 
ATOM      6  N   UNL     1      34.443  27.584  48.382  0.00  0.00    +0.000 NA
ENDROOT
BRANCH   5   7
ATOM      7  C   UNL     1      35.529  29.447  49.231  0.00  0.00    +0.000 A 
ATOM      8  C   UNL     1      35.583  29.162  50.609  0.00  0.00    +0.000 A 
ATOM      9  C   UNL     1      36.528  29.653  51.470  0.00  0.00    +0.000 A 
ATOM     10  C   UNL     1      37.507  30.481  50.999  0.00  0.00    +0.000 A 
ATOM     11  C   UNL     1      37.521  30.801  49.679  0.00  0.00    +0.000 A 
ATOM     12  C   UNL     1      38.524  31.638  49.244  0.00  0.00    +0.000 A 
ATOM     13  C   UNL     1      38.596  32.002  47.923  0.00  0.00    +0.000 A 
ATOM     14  C   UNL     1      37.637  31.502  47.054  0.00  0.00    +0.000 A 
ATOM     15  C   UNL     1      36.659  30.669  47.551  0.00  0.00    +0.000 A 
ATOM     16  C   UNL     1      36.549  30.283  48.849  0.00  0.00    +0.000 A 
ENDBRANCH   5   7
BRANCH   3  17
ATOM     17  C   UNL     1      31.852  29.618  45.920  0.00  0.00    +0.000 A 
ATOM     18  C   UNL     1      32.261  30.388  44.844  0.00  0.00    +0.000 A 
ATOM     19  N   UNL     1      31.170  30.952  44.294  0.00  0.00    +0.000 N 
ATOM     20  C   UNL     1      30.085  30.547  45.010  0.00  0.00    +0.000 A 
ATOM     21  C   UNL     1      28.739  30.848  44.850  0.00  0.00    +0.000 A 
ATOM     22  C   UNL     1      27.802  30.311  45.711  0.00  0.00    +0.000 A 
ATOM     23  C   UNL     1      28.189  29.463  46.753  0.00  0.00    +0.000 A 
ATOM     24  C   UNL     1      29.546  29.170  46.901  0.00  0.00    +0.000 A 
ATOM     25  C   UNL     1      30.481  29.704  46.043  0.00  0.00    +0.000 A 
ATOM     26  H   UNL     1      31.158  31.579  43.477  0.00  0.00    +0.000 HD
ENDBRANCH   3  17
TORSDOF 2
