REMARK  Name = 
REMARK  2 active torsions:
REMARK  status: ('A' for Active; 'I' for Inactive)
REMARK    1  A    between atoms: C_3  and  N_17
REMARK    2  A    between atoms: C_5  and  C_7
REMARK                            x       y       z     vdW  Elec       q    Type
REMARK                         _______ _______ _______ _____ _____    ______ ____
ROOT
ATOM      1  C   UNL     1      33.711  27.179  47.101  0.00  0.00    +0.000 A 
ATOM      2  C   UNL     1      32.860  27.892  46.259  0.00  0.00    +0.000 A 
ATOM      3  C   UNL     1      32.897  29.269  46.395  0.00  0.00    +0.000 A 
ATOM      4  N   UNL     1      33.725  29.806  47.298  0.00  0.00    +0.000 NA
ATOM      5  C   UNL     1      34.539  29.141  48.106  0.00  0.00    +0.000 A 
ATOM      6  N   UNL     1      34.491  27.821  47.963  0.00  0.00    +0.000 NA
ENDROOT
BRANCH   3   7
ATOM      7  N   UNL     1      32.104  30.170  45.626  0.00  0.00    +0.000 N 
ATOM      8  C   UNL     1      32.560  31.076  44.745  0.00  0.00    +0.000 A 
ATOM      9  N   UNL     1      31.467  31.714  44.246  0.00  0.00    +0.000 NA
ATOM     10  C   UNL     1      30.358  31.208  44.810  0.00  0.00    +0.000 A 
ATOM     11  C   UNL     1      28.996  31.422  44.727  0.00  0.00    +0.000 A 
ATOM     12  N   UNL     1      28.118  30.705  45.466  0.00  0.00    +0.000 NA
ATOM     13  C   UNL     1      28.536  29.746  46.321  0.00  0.00    +0.000 A 
ATOM     14  N   UNL     1      29.855  29.522  46.416  0.00  0.00    +0.000 NA
ATOM     15  C   UNL     1      30.757  30.213  45.699  0.00  0.00    +0.000 A 
ATOM     16  N   UNL     1      28.556  32.432  43.826  0.00  0.00    +0.000 N 
ATOM     17  H   UNL     1      27.550  32.631  43.727  0.00  0.00    +0.000 HD
ATOM     18  H   UNL     1      29.243  32.964  43.273  0.00  0.00    +0.000 HD
ENDBRANCH   3   7
BRANCH   5  19
ATOM     19  C   UNL     1      35.481  29.558  49.122  0.00  0.00    +0.000 A 
ATOM     20  C   UNL     1      35.400  29.143  50.465  0.00  0.00    +0.000 A 
ATOM     21  C   UNL     1      36.278  29.523  51.445  0.00  0.00    +0.000 A 
ATOM     22  C   UNL     1      37.311  30.357  51.139  0.00  0.00    +0.000 A 
ATOM     23  C   UNL     1      37.453  30.798  49.862  0.00  0.00    +0.000 A 
ATOM     24  C   UNL     1      38.512  31.640  49.597  0.00  0.00    +0.000 A 
ATOM     25  C   UNL     1      38.716  32.121  48.340  0.00  0.00    +0.000 A 
ATOM     26  C   UNL     1      37.829  31.740  47.342  0.00  0.00    +0.000 A 
ATOM     27  C   UNL     1      36.791  30.899  47.659  0.00  0.00    +0.000 A 
ATOM     28  C   UNL     1      36.552  30.397  48.899  0.00  0.00    +0.000 A 
ENDBRANCH   5  19
TORSDOF 2
