REMARK  Name = 
REMARK  1 active torsions:
REMARK  status: ('A' for Active; 'I' for Inactive)
REMARK    1  A    between atoms: C_1  and  C_20
REMARK                            x       y       z     vdW  Elec       q    Type
REMARK                         _______ _______ _______ _____ _____    ______ ____
ROOT
ATOM      1  C   UNL     1      36.941  29.932  49.899  0.00  0.00    +0.000 A 
ATOM      2  C   UNL     1      38.034  30.656  49.462  0.00  0.00    +0.000 A 
ATOM      3  C   UNL     1      38.050  31.102  48.131  0.00  0.00    +0.000 A 
ATOM      4  N   UNL     1      36.986  30.796  47.346  0.00  0.00    +0.000 NA
ATOM      5  C   UNL     1      35.938  30.086  47.810  0.00  0.00    +0.000 A 
ATOM      6  N   UNL     1      35.917  29.658  49.083  0.00  0.00    +0.000 NA
ATOM      7  N   UNL     1      39.133  31.841  47.631  0.00  0.00    +0.000 N 
ATOM      8  C   UNL     1      39.015  32.592  46.429  0.00  0.00    +0.000 C 
ATOM      9  N   UNL     1      37.932  32.512  45.751  0.00  0.00    +0.000 NA
ATOM     10  N   UNL     1      40.106  33.413  46.013  0.00  0.00    +0.000 N 
ATOM     11  H   UNL     1      37.919  32.953  44.794  0.00  0.00    +0.000 HD
ATOM     12  N   UNL     1      34.911  29.856  46.852  0.00  0.00    +0.000 N 
ATOM     13  C   UNL     1      33.661  29.470  47.194  0.00  0.00    +0.000 A 
ATOM     14  C   UNL     1      32.709  29.263  46.212  0.00  0.00    +0.000 A 
ATOM     15  C   UNL     1      33.060  29.458  44.883  0.00  0.00    +0.000 A 
ATOM     16  N   UNL     1      32.100  29.254  43.828  0.00  0.00    +0.000 N 
ATOM     17  N   UNL     1      34.303  29.843  44.540  0.00  0.00    +0.000 NA
ATOM     18  C   UNL     1      35.202  30.034  45.533  0.00  0.00    +0.000 A 
ATOM     19  O   UNL     1      36.360  30.394  45.183  0.00  0.00    +0.000 OA
ATOM     20  H   UNL     1      40.027  31.840  48.142  0.00  0.00    +0.000 HD
ATOM     21  H   UNL     1      40.035  33.963  45.145  0.00  0.00    +0.000 HD
ATOM     22  H   UNL     1      40.964  33.456  46.581  0.00  0.00    +0.000 HD
ATOM     23  H   UNL     1      32.374  29.402  42.846  0.00  0.00    +0.000 HD
ATOM     24  H   UNL     1      31.140  28.960  44.056  0.00  0.00    +0.000 HD
ENDROOT
BRANCH   1  25
ATOM     25  C   UNL     1      36.892  29.442  51.314  0.00  0.00    +0.000 C 
ATOM     26  F   UNL     1      35.596  29.175  51.699  0.00  0.00    +0.000 F 
ATOM     27  F   UNL     1      37.769  28.413  51.452  0.00  0.00    +0.000 F 
ATOM     28  F   UNL     1      37.328  30.514  52.118  0.00  0.00    +0.000 F 
ENDBRANCH   1  25
TORSDOF 1
