REMARK  Name = 
REMARK  4 active torsions:
REMARK  status: ('A' for Active; 'I' for Inactive)
REMARK    1  A    between atoms: C_1  and  C_17
REMARK    2  A    between atoms: C_5  and  C_7
REMARK    3  A    between atoms: C_17  and  C_18
REMARK    4  A    between atoms: C_17  and  O_28
REMARK                            x       y       z     vdW  Elec       q    Type
REMARK                         _______ _______ _______ _____ _____    ______ ____
ROOT
ATOM      1  C   UNL     1      38.908  32.206  46.708  0.00  0.00    +0.000 A 
ATOM      2  C   UNL     1      39.898  33.164  46.449  0.00  0.00    +0.000 A 
ATOM      3  C   UNL     1      40.576  33.138  45.185  0.00  0.00    +0.000 A 
ATOM      4  N   UNL     1      40.209  32.180  44.322  0.00  0.00    +0.000 NA
ATOM      5  C   UNL     1      39.242  31.265  44.599  0.00  0.00    +0.000 A 
ATOM      6  N   UNL     1      38.615  31.291  45.771  0.00  0.00    +0.000 NA
ENDROOT
BRANCH   5   7
ATOM      7  C   UNL     1      38.705  30.146  43.785  0.00  0.00    +0.000 A 
ATOM      8  N   UNL     1      37.456  29.668  43.885  0.00  0.00    +0.000 NA
ATOM      9  C   UNL     1      37.023  28.662  43.133  0.00  0.00    +0.000 A 
ATOM     10  N   UNL     1      37.757  28.022  42.212  0.00  0.00    +0.000 NA
ATOM     11  C   UNL     1      39.021  28.449  42.056  0.00  0.00    +0.000 A 
ATOM     12  C   UNL     1      39.775  27.800  41.120  0.00  0.00    +0.000 A 
ATOM     13  C   UNL     1      41.081  28.185  40.910  0.00  0.00    +0.000 A 
ATOM     14  C   UNL     1      41.588  29.232  41.668  0.00  0.00    +0.000 A 
ATOM     15  C   UNL     1      40.762  29.833  42.591  0.00  0.00    +0.000 A 
ATOM     16  C   UNL     1      39.455  29.492  42.844  0.00  0.00    +0.000 A 
ENDBRANCH   5   7
BRANCH   1  17
ATOM     17  C   UNL     1      38.467  32.285  48.071  0.00  0.00    +0.000 C 
BRANCH  17  18
ATOM     18  C   UNL     1      37.867  31.315  48.987  0.00  0.00    +0.000 A 
ATOM     19  N   UNL     1      38.400  31.156  50.197  0.00  0.00    +0.000 NA
ATOM     20  C   UNL     1      37.923  30.266  51.108  0.00  0.00    +0.000 A 
ATOM     21  N   UNL     1      36.874  29.474  50.854  0.00  0.00    +0.000 NA
ATOM     22  C   UNL     1      36.270  29.565  49.659  0.00  0.00    +0.000 A 
ATOM     23  C   UNL     1      35.186  28.777  49.333  0.00  0.00    +0.000 A 
ATOM     24  C   UNL     1      34.552  28.844  48.139  0.00  0.00    +0.000 A 
ATOM     25  C   UNL     1      35.056  29.759  47.252  0.00  0.00    +0.000 A 
ATOM     26  C   UNL     1      36.135  30.536  47.581  0.00  0.00    +0.000 A 
ATOM     27  C   UNL     1      36.790  30.483  48.774  0.00  0.00    +0.000 A 
ENDBRANCH  17  18
BRANCH  17  28
ATOM     28  O   UNL     1      38.115  33.448  48.608  0.00  0.00    +0.000 OA
ATOM     29  H   UNL     1      38.137  33.376  49.595  0.00  0.00    +0.000 HD
ENDBRANCH  17  28
ENDBRANCH   1  17
TORSDOF 4
