REMARK  Name = 
REMARK  6 active torsions:
REMARK  status: ('A' for Active; 'I' for Inactive)
REMARK    1  A    between atoms: C_1  and  C_2
REMARK    2  A    between atoms: C_1  and  C_12
REMARK    3  A    between atoms: C_1  and  O_19
REMARK    4  A    between atoms: C_16  and  C_18
REMARK    5  A    between atoms: O_19  and  C_20
REMARK    6  A    between atoms: C_20  and  O_22
REMARK                            x       y       z     vdW  Elec       q    Type
REMARK                         _______ _______ _______ _____ _____    ______ ____
ROOT
ATOM      1  C   UNL     1      38.624  31.857  48.145  0.00  0.00    +0.000 C 
ENDROOT
BRANCH   1   2
ATOM      2  C   UNL     1      37.850  31.061  49.106  0.00  0.00    +0.000 A 
ATOM      3  N   UNL     1      38.317  30.896  50.342  0.00  0.00    +0.000 NA
ATOM      4  C   UNL     1      37.656  30.178  51.279  0.00  0.00    +0.000 A 
ATOM      5  N   UNL     1      36.497  29.587  51.045  0.00  0.00    +0.000 NA
ATOM      6  C   UNL     1      35.910  29.684  49.815  0.00  0.00    +0.000 A 
ATOM      7  C   UNL     1      34.729  29.082  49.569  0.00  0.00    +0.000 A 
ATOM      8  C   UNL     1      34.146  29.176  48.347  0.00  0.00    +0.000 A 
ATOM      9  C   UNL     1      34.828  29.917  47.389  0.00  0.00    +0.000 A 
ATOM     10  C   UNL     1      36.028  30.510  47.696  0.00  0.00    +0.000 A 
ATOM     11  C   UNL     1      36.627  30.422  48.915  0.00  0.00    +0.000 A 
ENDBRANCH   1   2
BRANCH   1  12
ATOM     12  C   UNL     1      39.024  31.600  46.790  0.00  0.00    +0.000 A 
ATOM     13  C   UNL     1      39.898  32.619  46.347  0.00  0.00    +0.000 A 
ATOM     14  C   UNL     1      40.529  32.508  45.063  0.00  0.00    +0.000 A 
ATOM     15  N   UNL     1      40.226  31.412  44.370  0.00  0.00    +0.000 NA
ATOM     16  C   UNL     1      39.370  30.440  44.824  0.00  0.00    +0.000 A 
ATOM     17  N   UNL     1      38.790  30.542  46.003  0.00  0.00    +0.000 NA
ATOM     18  C   UNL     1      39.043  29.234  44.001  0.00  0.00    +0.000 C 
ENDBRANCH   1  12
BRANCH   1  19
ATOM     19  O   UNL     1      38.335  33.110  48.545  0.00  0.00    +0.000 OA
BRANCH  19  20
ATOM     20  C   UNL     1      39.178  34.041  49.058  0.00  0.00    +0.000 C 
ATOM     21  O   UNL     1      39.638  33.943  50.208  0.00  0.00    +0.000 OA
BRANCH  20  22
ATOM     22  O   UNL     1      39.625  35.187  48.393  0.00  0.00    +0.000 OA
ATOM     23  H   UNL     1      40.242  35.814  48.847  0.00  0.00    +0.000 HD
ENDBRANCH  20  22
ENDBRANCH  19  20
ENDBRANCH   1  19
TORSDOF 5
