REMARK  Name = 
REMARK  3 active torsions:
REMARK  status: ('A' for Active; 'I' for Inactive)
REMARK    1  A    between atoms: C_1  and  C_2
REMARK    2  A    between atoms: C_1  and  C_12
REMARK    3  A    between atoms: C_1  and  O_23
REMARK                            x       y       z     vdW  Elec       q    Type
REMARK                         _______ _______ _______ _____ _____    ______ ____
ROOT
ATOM      1  C   UNL     1      38.607  32.224  48.016  0.00  0.00    +0.000 C 
ENDROOT
BRANCH   1   2
ATOM      2  C   UNL     1      39.109  32.125  46.676  0.00  0.00    +0.000 A 
ATOM      3  C   UNL     1      39.802  33.295  46.317  0.00  0.00    +0.000 A 
ATOM      4  C   UNL     1      40.507  33.338  45.059  0.00  0.00    +0.000 A 
ATOM      5  N   UNL     1      40.438  32.212  44.308  0.00  0.00    +0.000 NA
ATOM      6  C   UNL     1      39.752  31.105  44.696  0.00  0.00    +0.000 A 
ATOM      7  N   UNL     1      39.104  31.060  45.847  0.00  0.00    +0.000 NA
ATOM      8  N   UNL     1      39.694  29.934  43.885  0.00  0.00    +0.000 N 
ATOM      9  C   UNL     1      38.901  28.845  43.878  0.00  0.00    +0.000 A 
ATOM     10  C   UNL     1      39.293  28.002  42.853  0.00  0.00    +0.000 A 
ATOM     11  N   UNL     1      40.322  28.598  42.251  0.00  0.00    +0.000 NA
ATOM     12  C   UNL     1      40.583  29.786  42.870  0.00  0.00    +0.000 A 
ENDBRANCH   1   2
BRANCH   1  13
ATOM     13  C   UNL     1      37.943  31.276  48.909  0.00  0.00    +0.000 A 
ATOM     14  N   UNL     1      38.432  31.098  50.136  0.00  0.00    +0.000 NA
ATOM     15  C   UNL     1      37.887  30.233  51.029  0.00  0.00    +0.000 A 
ATOM     16  N   UNL     1      36.816  29.495  50.741  0.00  0.00    +0.000 NA
ATOM     17  C   UNL     1      36.236  29.601  49.519  0.00  0.00    +0.000 A 
ATOM     18  C   UNL     1      35.141  28.852  49.199  0.00  0.00    +0.000 A 
ATOM     19  C   UNL     1      34.554  28.947  47.970  0.00  0.00    +0.000 A 
ATOM     20  C   UNL     1      35.124  29.834  47.082  0.00  0.00    +0.000 A 
ATOM     21  C   UNL     1      36.227  30.569  47.442  0.00  0.00    +0.000 A 
ATOM     22  C   UNL     1      36.835  30.491  48.667  0.00  0.00    +0.000 A 
ENDBRANCH   1  13
BRANCH   1  23
ATOM     23  O   UNL     1      38.243  33.401  48.524  0.00  0.00    +0.000 OA
ATOM     24  H   UNL     1      38.258  33.352  49.513  0.00  0.00    +0.000 HD
ENDBRANCH   1  23
TORSDOF 3
