REMARK  Name = 
REMARK  5 active torsions:
REMARK  status: ('A' for Active; 'I' for Inactive)
REMARK    1  A    between atoms: C_1  and  C_15
REMARK    2  A    between atoms: C_4  and  O_27
REMARK    3  A    between atoms: C_12  and  C_22
REMARK    4  A    between atoms: C_13  and  N_17
REMARK    5  A    between atoms: O_27  and  C_28
REMARK                            x       y       z     vdW  Elec       q    Type
REMARK                         _______ _______ _______ _____ _____    ______ ____
ROOT
ATOM      1  C   UNL     1      36.222  31.285  42.585  0.00  0.00    +0.000 A 
ATOM      2  C   UNL     1      37.428  31.016  41.901  0.00  0.00    +0.000 A 
ATOM      3  C   UNL     1      38.506  30.667  42.667  0.00  0.00    +0.000 A 
ATOM      4  N   UNL     1      38.301  30.619  43.968  0.00  0.00    +0.000 NA
ATOM      5  C   UNL     1      37.236  30.847  44.665  0.00  0.00    +0.000 A 
ATOM      6  N   UNL     1      36.205  31.183  43.902  0.00  0.00    +0.000 NA
ENDROOT
BRANCH   5   7
ATOM      7  C   UNL     1      36.919  30.818  46.072  0.00  0.00    +0.000 A 
ATOM      8  C   UNL     1      35.896  30.044  46.619  0.00  0.00    +0.000 A 
ATOM      9  C   UNL     1      35.564  29.986  47.934  0.00  0.00    +0.000 A 
ATOM     10  C   UNL     1      36.259  30.728  48.836  0.00  0.00    +0.000 A 
ATOM     11  C   UNL     1      37.259  31.499  48.385  0.00  0.00    +0.000 A 
ATOM     12  C   UNL     1      37.966  32.256  49.310  0.00  0.00    +0.000 A 
ATOM     13  C   UNL     1      38.997  33.064  48.936  0.00  0.00    +0.000 A 
ATOM     14  C   UNL     1      39.330  33.118  47.591  0.00  0.00    +0.000 A 
ATOM     15  C   UNL     1      38.612  32.360  46.710  0.00  0.00    +0.000 A 
ATOM     16  C   UNL     1      37.589  31.552  47.047  0.00  0.00    +0.000 A 
BRANCH  10  17
ATOM     17  O   UNL     1      35.909  30.658  50.166  0.00  0.00    +0.000 OA
BRANCH  17  18
ATOM     18  C   UNL     1      36.419  29.639  51.001  0.00  0.00    +0.000 C 
ATOM     19  F   UNL     1      37.238  28.734  50.386  0.00  0.00    +0.000 F 
ATOM     20  F   UNL     1      37.196  30.248  51.976  0.00  0.00    +0.000 F 
ATOM     21  F   UNL     1      35.318  28.996  51.565  0.00  0.00    +0.000 F 
ENDBRANCH  17  18
ENDBRANCH  10  17
ENDBRANCH   5   7
BRANCH   3  22
ATOM     22  N   UNL     1      39.779  30.358  42.145  0.00  0.00    +0.000 N 
ATOM     23  C   UNL     1      40.870  29.974  42.957  0.00  0.00    +0.000 C 
ATOM     24  N   UNL     1      41.027  30.581  44.096  0.00  0.00    +0.000 NA
ATOM     25  N   UNL     1      41.763  28.954  42.548  0.00  0.00    +0.000 N 
ATOM     26  H   UNL     1      41.734  30.401  44.797  0.00  0.00    +0.000 HD
ATOM     27  H   UNL     1      39.920  30.415  41.126  0.00  0.00    +0.000 HD
ATOM     28  H   UNL     1      42.553  28.688  43.153  0.00  0.00    +0.000 HD
ATOM     29  H   UNL     1      41.623  28.478  41.645  0.00  0.00    +0.000 HD
ENDBRANCH   3  22
BRANCH   2  30
ATOM     30  C   UNL     1      37.543  31.103  40.451  0.00  0.00    +0.000 A 
ATOM     31  C   UNL     1      36.422  30.942  39.644  0.00  0.00    +0.000 A 
ATOM     32  C   UNL     1      36.745  31.061  38.307  0.00  0.00    +0.000 A 
ATOM     33  C   UNL     1      38.103  31.300  38.361  0.00  0.00    +0.000 A 
ATOM     34  O   UNL     1      38.491  31.311  39.607  0.00  0.00    +0.000 OA
ENDBRANCH   2  30
TORSDOF 5
