REMARK  Name = 
REMARK  4 active torsions:
REMARK  status: ('A' for Active; 'I' for Inactive)
REMARK    1  A    between atoms: C_2  and  C_7
REMARK    2  A    between atoms: C_5  and  C_17
REMARK    3  A    between atoms: C_19  and  S_20
REMARK    4  A    between atoms: S_20  and  C_21
REMARK                            x       y       z     vdW  Elec       q    Type
REMARK                         _______ _______ _______ _____ _____    ______ ____
ROOT
ATOM      1  C   UNL     1      34.055  30.101  47.256  0.00  0.00    +0.000 A 
ATOM      2  C   UNL     1      35.093  29.959  48.167  0.00  0.00    +0.000 A 
ATOM      3  C   UNL     1      34.922  28.890  49.106  0.00  0.00    +0.000 A 
ATOM      4  N   UNL     1      33.801  28.117  49.044  0.00  0.00    +0.000 NA
ATOM      5  C   UNL     1      32.841  28.322  48.127  0.00  0.00    +0.000 A 
ATOM      6  N   UNL     1      32.977  29.303  47.252  0.00  0.00    +0.000 NA
ENDROOT
BRANCH   2   7
ATOM      7  C   UNL     1      36.314  30.720  48.317  0.00  0.00    +0.000 A 
ATOM      8  C   UNL     1      36.437  31.243  49.565  0.00  0.00    +0.000 A 
ATOM      9  C   UNL     1      37.544  32.016  49.928  0.00  0.00    +0.000 A 
ATOM     10  C   UNL     1      38.529  32.255  49.008  0.00  0.00    +0.000 A 
ATOM     11  C   UNL     1      38.395  31.719  47.740  0.00  0.00    +0.000 A 
ATOM     12  C   UNL     1      39.347  31.902  46.713  0.00  0.00    +0.000 A 
ATOM     13  C   UNL     1      39.150  31.344  45.478  0.00  0.00    +0.000 A 
ATOM     14  C   UNL     1      38.046  30.602  45.194  0.00  0.00    +0.000 A 
ATOM     15  C   UNL     1      37.100  30.409  46.184  0.00  0.00    +0.000 A 
ATOM     16  C   UNL     1      37.305  30.972  47.417  0.00  0.00    +0.000 A 
ENDBRANCH   2   7
BRANCH   5  17
ATOM     17  C   UNL     1      31.647  27.429  48.117  0.00  0.00    +0.000 C 
ATOM     18  C   UNL     1      30.673  27.540  49.252  0.00  0.00    +0.000 C 
ATOM     19  C   UNL     1      30.293  27.997  47.879  0.00  0.00    +0.000 C 
BRANCH  19  20
ATOM     20  S   UNL     1      29.177  27.018  46.847  0.00  0.00    +0.000 S 
BRANCH  20  21
ATOM     21  C   UNL     1      27.437  27.468  47.114  0.00  0.00    +0.000 C 
ATOM     22  C   UNL     1      26.964  26.941  48.420  0.00  0.00    +0.000 C 
ATOM     23  C   UNL     1      27.085  27.846  49.592  0.00  0.00    +0.000 C 
ATOM     24  C   UNL     1      26.276  29.103  49.250  0.00  0.00    +0.000 C 
ATOM     25  C   UNL     1      27.030  29.755  48.130  0.00  0.00    +0.000 C 
ATOM     26  C   UNL     1      27.203  28.938  46.905  0.00  0.00    +0.000 C 
ENDBRANCH  20  21
ENDBRANCH  19  20
ENDBRANCH   5  17
TORSDOF 4
