REMARK  Name = 
REMARK  3 active torsions:
REMARK  status: ('A' for Active; 'I' for Inactive)
REMARK    1  A    between atoms: C_1  and  C_2
REMARK    2  A    between atoms: C_1  and  C_17
REMARK    3  A    between atoms: C_1  and  O_27
REMARK                            x       y       z     vdW  Elec       q    Type
REMARK                         _______ _______ _______ _____ _____    ______ ____
ROOT
ATOM      1  C   UNL     1      38.926  32.117  46.666  0.00  0.00    +0.000 A 
ATOM      2  C   UNL     1      39.837  33.130  46.336  0.00  0.00    +0.000 A 
ATOM      3  C   UNL     1      40.487  33.107  45.059  0.00  0.00    +0.000 A 
ATOM      4  N   UNL     1      40.161  32.078  44.246  0.00  0.00    +0.000 NA
ATOM      5  C   UNL     1      39.269  31.114  44.603  0.00  0.00    +0.000 A 
ATOM      6  N   UNL     1      38.667  31.131  45.779  0.00  0.00    +0.000 NA
ATOM      7  N   UNL     1      38.996  30.075  43.669  0.00  0.00    +0.000 N 
ATOM      8  C   UNL     1      37.816  29.455  43.486  0.00  0.00    +0.000 A 
ATOM      9  N   UNL     1      37.861  28.517  42.535  0.00  0.00    +0.000 NA
ATOM     10  C   UNL     1      39.139  28.523  42.067  0.00  0.00    +0.000 A 
ATOM     11  C   UNL     1      39.721  27.754  41.085  0.00  0.00    +0.000 A 
ATOM     12  N   UNL     1      41.027  27.986  40.833  0.00  0.00    +0.000 NA
ATOM     13  C   UNL     1      41.699  28.932  41.528  0.00  0.00    +0.000 A 
ATOM     14  N   UNL     1      41.114  29.690  42.500  0.00  0.00    +0.000 NA
ATOM     15  C   UNL     1      39.825  29.495  42.783  0.00  0.00    +0.000 A 
ENDROOT
BRANCH   1  16
ATOM     16  C   UNL     1      38.514  32.225  48.037  0.00  0.00    +0.000 C 
BRANCH  16  17
ATOM     17  C   UNL     1      37.893  31.290  48.975  0.00  0.00    +0.000 A 
ATOM     18  N   UNL     1      38.424  31.145  50.186  0.00  0.00    +0.000 NA
ATOM     19  C   UNL     1      37.926  30.290  51.115  0.00  0.00    +0.000 A 
ATOM     20  N   UNL     1      36.858  29.521  50.882  0.00  0.00    +0.000 NA
ATOM     21  C   UNL     1      36.250  29.596  49.691  0.00  0.00    +0.000 A 
ATOM     22  C   UNL     1      35.147  28.827  49.385  0.00  0.00    +0.000 A 
ATOM     23  C   UNL     1      34.516  28.882  48.187  0.00  0.00    +0.000 A 
ATOM     24  C   UNL     1      35.043  29.764  47.272  0.00  0.00    +0.000 A 
ATOM     25  C   UNL     1      36.142  30.524  47.584  0.00  0.00    +0.000 A 
ATOM     26  C   UNL     1      36.792  30.483  48.778  0.00  0.00    +0.000 A 
ENDBRANCH  16  17
BRANCH  16  27
ATOM     27  O   UNL     1      38.216  33.407  48.567  0.00  0.00    +0.000 OA
ATOM     28  H   UNL     1      38.233  33.340  49.555  0.00  0.00    +0.000 HD
ENDBRANCH  16  27
ENDBRANCH   1  16
TORSDOF 3
