REMARK  Name = 
REMARK  6 active torsions:
REMARK  status: ('A' for Active; 'I' for Inactive)
REMARK    1  A    between atoms: C_1  and  C_15
REMARK    2  A    between atoms: C_4  and  O_24
REMARK    3  A    between atoms: C_12  and  C_22
REMARK    4  A    between atoms: C_13  and  N_17
REMARK    5  A    between atoms: C_22  and  C_23
REMARK    6  A    between atoms: O_24  and  C_25
REMARK                            x       y       z     vdW  Elec       q    Type
REMARK                         _______ _______ _______ _____ _____    ______ ____
ROOT
ATOM      1  C   UNL     1      36.109  31.293  42.611  0.00  0.00    +0.000 A 
ATOM      2  C   UNL     1      37.293  30.992  41.916  0.00  0.00    +0.000 A 
ATOM      3  C   UNL     1      38.357  30.607  42.651  0.00  0.00    +0.000 A 
ATOM      4  N   UNL     1      38.174  30.552  43.958  0.00  0.00    +0.000 NA
ATOM      5  C   UNL     1      37.135  30.808  44.678  0.00  0.00    +0.000 A 
ATOM      6  N   UNL     1      36.102  31.184  43.938  0.00  0.00    +0.000 NA
ENDROOT
BRANCH   5   7
ATOM      7  C   UNL     1      36.839  30.787  46.084  0.00  0.00    +0.000 A 
ATOM      8  C   UNL     1      35.817  30.028  46.662  0.00  0.00    +0.000 A 
ATOM      9  C   UNL     1      35.523  29.993  47.990  0.00  0.00    +0.000 A 
ATOM     10  C   UNL     1      36.250  30.739  48.879  0.00  0.00    +0.000 A 
ATOM     11  C   UNL     1      37.246  31.491  48.389  0.00  0.00    +0.000 A 
ATOM     12  C   UNL     1      37.980  32.250  49.297  0.00  0.00    +0.000 A 
ATOM     13  C   UNL     1      39.010  33.048  48.894  0.00  0.00    +0.000 A 
ATOM     14  C   UNL     1      39.308  33.083  47.540  0.00  0.00    +0.000 A 
ATOM     15  C   UNL     1      38.568  32.325  46.679  0.00  0.00    +0.000 A 
ATOM     16  C   UNL     1      37.544  31.525  47.039  0.00  0.00    +0.000 A 
BRANCH  10  17
ATOM     17  O   UNL     1      35.917  30.672  50.213  0.00  0.00    +0.000 OA
BRANCH  17  18
ATOM     18  C   UNL     1      36.417  29.638  51.033  0.00  0.00    +0.000 C 
ATOM     19  F   UNL     1      37.236  28.736  50.409  0.00  0.00    +0.000 F 
ATOM     20  F   UNL     1      37.193  30.245  52.011  0.00  0.00    +0.000 F 
ATOM     21  F   UNL     1      35.319  29.004  51.591  0.00  0.00    +0.000 F 
ENDBRANCH  17  18
ENDBRANCH  10  17
ENDBRANCH   5   7
BRANCH   3  22
ATOM     22  N   UNL     1      39.614  30.260  42.100  0.00  0.00    +0.000 N 
ATOM     23  C   UNL     1      40.743  29.931  42.900  0.00  0.00    +0.000 C 
ATOM     24  N   UNL     1      40.944  30.658  43.955  0.00  0.00    +0.000 NA
ATOM     25  N   UNL     1      41.613  28.856  42.562  0.00  0.00    +0.000 N 
ATOM     26  H   UNL     1      41.697  30.547  44.634  0.00  0.00    +0.000 HD
ATOM     27  H   UNL     1      39.715  30.245  41.075  0.00  0.00    +0.000 HD
ATOM     28  H   UNL     1      42.423  28.641  43.161  0.00  0.00    +0.000 HD
ATOM     29  H   UNL     1      41.432  28.293  41.719  0.00  0.00    +0.000 HD
ENDBRANCH   3  22
BRANCH   2  30
ATOM     30  C   UNL     1      37.404  31.097  40.421  0.00  0.00    +0.000 C 
ATOM     31  C   UNL     1      36.475  32.239  39.980  0.00  0.00    +0.000 C 
ENDBRANCH   2  30
TORSDOF 5
