REMARK  Name = 
REMARK  3 active torsions:
REMARK  status: ('A' for Active; 'I' for Inactive)
REMARK    1  A    between atoms: C_1  and  C_2
REMARK    2  A    between atoms: C_1  and  C_12
REMARK    3  A    between atoms: C_1  and  O_24
REMARK                            x       y       z     vdW  Elec       q    Type
REMARK                         _______ _______ _______ _____ _____    ______ ____
ROOT
ATOM      1  C   UNL     1      38.583  32.018  47.865  0.00  0.00    +0.000 C 
ENDROOT
BRANCH   1   2
ATOM      2  C   UNL     1      39.099  31.913  46.530  0.00  0.00    +0.000 A 
ATOM      3  C   UNL     1      39.836  33.059  46.187  0.00  0.00    +0.000 A 
ATOM      4  C   UNL     1      40.550  33.098  44.942  0.00  0.00    +0.000 A 
ATOM      5  N   UNL     1      40.446  31.986  44.173  0.00  0.00    +0.000 NA
ATOM      6  C   UNL     1      39.719  30.896  44.539  0.00  0.00    +0.000 A 
ATOM      7  N   UNL     1      39.066  30.864  45.684  0.00  0.00    +0.000 NA
ATOM      8  N   UNL     1      39.716  29.813  43.613  0.00  0.00    +0.000 N 
ATOM      9  C   UNL     1      40.865  29.588  42.756  0.00  0.00    +0.000 C 
ATOM     10  C   UNL     1      40.457  28.673  41.631  0.00  0.00    +0.000 C 
ATOM     11  O   UNL     1      39.985  27.450  42.079  0.00  0.00    +0.000 OA
ATOM     12  C   UNL     1      39.189  27.521  43.203  0.00  0.00    +0.000 C 
ATOM     13  C   UNL     1      38.627  28.899  43.457  0.00  0.00    +0.000 C 
ENDBRANCH   1   2
BRANCH   1  14
ATOM     14  C   UNL     1      37.887  31.086  48.750  0.00  0.00    +0.000 A 
ATOM     15  N   UNL     1      38.391  30.858  49.963  0.00  0.00    +0.000 NA
ATOM     16  C   UNL     1      37.821  30.001  50.847  0.00  0.00    +0.000 A 
ATOM     17  N   UNL     1      36.709  29.321  50.568  0.00  0.00    +0.000 NA
ATOM     18  C   UNL     1      36.125  29.483  49.376  0.00  0.00    +0.000 A 
ATOM     19  C   UNL     1      34.983  28.789  49.041  0.00  0.00    +0.000 A 
ATOM     20  C   UNL     1      34.381  28.938  47.811  0.00  0.00    +0.000 A 
ATOM     21  C   UNL     1      34.976  29.813  46.940  0.00  0.00    +0.000 A 
ATOM     22  C   UNL     1      36.114  30.490  47.303  0.00  0.00    +0.000 A 
ATOM     23  C   UNL     1      36.737  30.362  48.510  0.00  0.00    +0.000 A 
ENDBRANCH   1  14
BRANCH   1  24
ATOM     24  O   UNL     1      38.242  33.203  48.372  0.00  0.00    +0.000 OA
ATOM     25  H   UNL     1      38.256  33.155  49.361  0.00  0.00    +0.000 HD
ENDBRANCH   1  24
TORSDOF 3
