REMARK  Name = 
REMARK  3 active torsions:
REMARK  status: ('A' for Active; 'I' for Inactive)
REMARK    1  A    between atoms: C_1  and  C_2
REMARK    2  A    between atoms: C_1  and  C_12
REMARK    3  A    between atoms: C_1  and  O_23
REMARK                            x       y       z     vdW  Elec       q    Type
REMARK                         _______ _______ _______ _____ _____    ______ ____
ROOT
ATOM      1  C   UNL     1      38.486  32.185  47.939  0.00  0.00    +0.000 C 
ENDROOT
BRANCH   1   2
ATOM      2  C   UNL     1      38.925  32.074  46.575  0.00  0.00    +0.000 A 
ATOM      3  C   UNL     1      39.905  33.039  46.292  0.00  0.00    +0.000 A 
ATOM      4  C   UNL     1      40.588  32.997  45.031  0.00  0.00    +0.000 A 
ATOM      5  N   UNL     1      40.223  32.000  44.189  0.00  0.00    +0.000 NA
ATOM      6  C   UNL     1      39.266  31.089  44.504  0.00  0.00    +0.000 A 
ATOM      7  N   UNL     1      38.629  31.120  45.666  0.00  0.00    +0.000 NA
ATOM      8  N   UNL     1      38.944  30.077  43.555  0.00  0.00    +0.000 N 
ATOM      9  C   UNL     1      37.676  29.794  42.911  0.00  0.00    +0.000 C 
ATOM     10  C   UNL     1      37.592  28.265  42.853  0.00  0.00    +0.000 C 
ATOM     11  C   UNL     1      38.986  27.810  43.304  0.00  0.00    +0.000 C 
ATOM     12  C   UNL     1      39.800  29.056  42.978  0.00  0.00    +0.000 C 
ENDBRANCH   1   2
BRANCH   1  13
ATOM     13  C   UNL     1      37.878  31.230  48.870  0.00  0.00    +0.000 A 
ATOM     14  N   UNL     1      38.425  31.071  50.076  0.00  0.00    +0.000 NA
ATOM     15  C   UNL     1      37.931  30.207  50.999  0.00  0.00    +0.000 A 
ATOM     16  N   UNL     1      36.858  29.452  50.768  0.00  0.00    +0.000 NA
ATOM     17  C   UNL     1      36.234  29.540  49.589  0.00  0.00    +0.000 A 
ATOM     18  C   UNL     1      35.124  28.771  49.299  0.00  0.00    +0.000 A 
ATOM     19  C   UNL     1      34.485  28.845  48.099  0.00  0.00    +0.000 A 
ATOM     20  C   UNL     1      35.006  29.731  47.181  0.00  0.00    +0.000 A 
ATOM     21  C   UNL     1      36.112  30.486  47.488  0.00  0.00    +0.000 A 
ATOM     22  C   UNL     1      36.771  30.430  48.682  0.00  0.00    +0.000 A 
ENDBRANCH   1  13
BRANCH   1  23
ATOM     23  O   UNL     1      38.144  33.354  48.457  0.00  0.00    +0.000 OA
ATOM     24  H   UNL     1      38.161  33.295  49.445  0.00  0.00    +0.000 HD
ENDBRANCH   1  23
TORSDOF 3
