REMARK  Name = 
REMARK  2 active torsions:
REMARK  status: ('A' for Active; 'I' for Inactive)
REMARK    1  A    between atoms: C_2  and  C_7
REMARK    2  A    between atoms: C_5  and  C_18
REMARK                            x       y       z     vdW  Elec       q    Type
REMARK                         _______ _______ _______ _____ _____    ______ ____
ROOT
ATOM      1  C   UNL     1      34.608  28.824  49.299  0.00  0.00    +0.000 A 
ATOM      2  C   UNL     1      35.057  29.794  48.412  0.00  0.00    +0.000 A 
ATOM      3  C   UNL     1      34.272  30.066  47.288  0.00  0.00    +0.000 A 
ATOM      4  N   UNL     1      33.113  29.371  47.118  0.00  0.00    +0.000 NA
ATOM      5  C   UNL     1      32.703  28.435  47.996  0.00  0.00    +0.000 A 
ATOM      6  N   UNL     1      33.445  28.162  49.081  0.00  0.00    +0.000 NA
ENDROOT
BRANCH   2   7
ATOM      7  C   UNL     1      36.305  30.475  48.687  0.00  0.00    +0.000 A 
ATOM      8  C   UNL     1      36.682  30.813  49.973  0.00  0.00    +0.000 A 
ATOM      9  C   UNL     1      37.912  31.470  50.111  0.00  0.00    +0.000 A 
ATOM     10  N   UNL     1      38.709  31.770  49.074  0.00  0.00    +0.000 NA
ATOM     11  C   UNL     1      38.289  31.415  47.848  0.00  0.00    +0.000 A 
ATOM     12  N   UNL     1      37.098  30.774  47.656  0.00  0.00    +0.000 NA
ATOM     13  N   UNL     1      39.105  31.714  46.714  0.00  0.00    +0.000 N 
ATOM     14  C   UNL     1      39.758  32.807  46.259  0.00  0.00    +0.000 A 
ATOM     15  N   UNL     1      40.365  32.452  45.109  0.00  0.00    +0.000 NA
ATOM     16  C   UNL     1      40.076  31.144  44.876  0.00  0.00    +0.000 A 
ATOM     17  N   UNL     1      39.279  30.678  45.889  0.00  0.00    +0.000 NA
ENDBRANCH   2   7
BRANCH   5  18
ATOM     18  C   UNL     1      31.446  27.746  47.724  0.00  0.00    +0.000 A 
ATOM     19  C   UNL     1      31.160  27.120  46.529  0.00  0.00    +0.000 A 
ATOM     20  N   UNL     1      29.909  26.594  46.645  0.00  0.00    +0.000 N 
ATOM     21  C   UNL     1      29.391  26.869  47.878  0.00  0.00    +0.000 A 
ATOM     22  C   UNL     1      28.163  26.521  48.400  0.00  0.00    +0.000 A 
ATOM     23  C   UNL     1      27.881  26.933  49.705  0.00  0.00    +0.000 A 
ATOM     24  C   UNL     1      28.869  27.661  50.370  0.00  0.00    +0.000 A 
ATOM     25  C   UNL     1      30.094  28.002  49.837  0.00  0.00    +0.000 A 
ATOM     26  C   UNL     1      30.354  27.588  48.551  0.00  0.00    +0.000 A 
ATOM     27  H   UNL     1      29.423  26.064  45.907  0.00  0.00    +0.000 HD
ENDBRANCH   5  18
TORSDOF 2
