REMARK  Name = 
REMARK  5 active torsions:
REMARK  status: ('A' for Active; 'I' for Inactive)
REMARK    1  A    between atoms: C_1  and  C_15
REMARK    2  A    between atoms: C_4  and  O_27
REMARK    3  A    between atoms: C_12  and  N_22
REMARK    4  A    between atoms: C_13  and  N_17
REMARK    5  A    between atoms: O_27  and  C_28
REMARK                            x       y       z     vdW  Elec       q    Type
REMARK                         _______ _______ _______ _____ _____    ______ ____
ROOT
ATOM      1  C   UNL     1      36.209  31.180  42.577  0.00  0.00    +0.000 A 
ATOM      2  C   UNL     1      37.425  30.953  41.908  0.00  0.00    +0.000 A 
ATOM      3  C   UNL     1      38.515  30.667  42.673  0.00  0.00    +0.000 A 
ATOM      4  N   UNL     1      38.317  30.633  43.971  0.00  0.00    +0.000 NA
ATOM      5  C   UNL     1      37.245  30.826  44.672  0.00  0.00    +0.000 A 
ATOM      6  N   UNL     1      36.196  31.102  43.908  0.00  0.00    +0.000 NA
ENDROOT
BRANCH   5   7
ATOM      7  C   UNL     1      36.933  30.809  46.077  0.00  0.00    +0.000 A 
ATOM      8  C   UNL     1      35.909  30.036  46.635  0.00  0.00    +0.000 A 
ATOM      9  C   UNL     1      35.585  29.993  47.953  0.00  0.00    +0.000 A 
ATOM     10  C   UNL     1      36.283  30.747  48.849  0.00  0.00    +0.000 A 
ATOM     11  C   UNL     1      37.280  31.513  48.378  0.00  0.00    +0.000 A 
ATOM     12  C   UNL     1      37.989  32.281  49.292  0.00  0.00    +0.000 A 
ATOM     13  C   UNL     1      39.017  33.090  48.907  0.00  0.00    +0.000 A 
ATOM     14  C   UNL     1      39.344  33.129  47.559  0.00  0.00    +0.000 A 
ATOM     15  C   UNL     1      38.624  32.360  46.688  0.00  0.00    +0.000 A 
ATOM     16  C   UNL     1      37.604  31.551  47.034  0.00  0.00    +0.000 A 
BRANCH  10  17
ATOM     17  O   UNL     1      35.934  30.686  50.179  0.00  0.00    +0.000 OA
BRANCH  17  18
ATOM     18  C   UNL     1      36.441  29.655  51.014  0.00  0.00    +0.000 C 
ATOM     19  F   UNL     1      37.248  28.745  50.400  0.00  0.00    +0.000 F 
ATOM     20  F   UNL     1      37.218  30.260  51.990  0.00  0.00    +0.000 F 
ATOM     21  F   UNL     1      35.332  29.033  51.577  0.00  0.00    +0.000 F 
ENDBRANCH  17  18
ENDBRANCH  10  17
ENDBRANCH   5   7
BRANCH   3  22
ATOM     22  N   UNL     1      39.794  30.414  42.137  0.00  0.00    +0.000 N 
ATOM     23  C   UNL     1      40.880  29.963  42.946  0.00  0.00    +0.000 C 
ATOM     24  N   UNL     1      41.011  30.498  44.120  0.00  0.00    +0.000 NA
ATOM     25  N   UNL     1      41.785  28.962  42.485  0.00  0.00    +0.000 N 
ATOM     26  H   UNL     1      41.714  30.267  44.812  0.00  0.00    +0.000 HD
ATOM     27  H   UNL     1      39.950  30.559  41.129  0.00  0.00    +0.000 HD
ATOM     28  H   UNL     1      42.561  28.653  43.087  0.00  0.00    +0.000 HD
ATOM     29  H   UNL     1      41.662  28.548  41.550  0.00  0.00    +0.000 HD
ENDBRANCH   3  22
BRANCH   2  30
ATOM     30  N   UNL     1      37.484  31.017  40.495  0.00  0.00    +0.000 N 
ATOM     31  C   UNL     1      37.504  30.109  39.363  0.00  0.00    +0.000 C 
ATOM     32  C   UNL     1      36.959  30.973  38.201  0.00  0.00    +0.000 C 
ATOM     33  C   UNL     1      37.804  32.221  38.503  0.00  0.00    +0.000 C 
ATOM     34  C   UNL     1      37.531  32.368  39.973  0.00  0.00    +0.000 C 
ENDBRANCH   2  30
TORSDOF 5
