
 OpenBabel03262521013D

 31 32  0  0  1  0  0  0  0  0999 V2000
   38.1930   24.3460   36.1280 N   0  0  0  0  0  0  0  0  0  0  0  0
   39.2050   23.7510   35.3130 C   0  0  1  0  0  0  0  0  0  0  0  0
   40.3480   23.2840   36.1820 C   0  0  0  0  0  0  0  0  0  0  0  0
   39.8080   22.3320   37.1380 N   0  0  0  0  0  0  0  0  0  0  0  0
   38.9510   23.1060   38.0390 C   0  0  0  0  0  0  0  0  0  0  0  0
   37.7610   23.5250   37.2130 C   0  0  2  0  0  0  0  0  0  0  0  0
   37.4530   24.8460   35.6320 H   0  0  0  0  0  0  0  0  0  0  0  0
   39.5560   24.4860   34.5700 H   0  0  0  0  0  0  0  0  0  0  0  0
   41.1240   22.7690   35.5630 H   0  0  0  0  0  0  0  0  0  0  0  0
   40.7260   24.1480   36.7400 H   0  0  0  0  0  0  0  0  0  0  0  0
   39.3470   21.5240   36.7180 H   0  0  0  0  0  0  0  0  0  0  0  0
   39.4960   24.0090   38.3230 H   0  0  0  0  0  0  0  0  0  0  0  0
   38.6390   22.5020   38.9180 H   0  0  0  0  0  0  0  0  0  0  0  0
   37.1240   24.1580   37.8830 H   0  0  0  0  0  0  0  0  0  0  0  0
   37.0370   22.3870   36.8200 N   0  0  0  0  0  0  0  0  0  0  0  0
   36.2210   22.5230   36.2170 H   0  0  0  0  0  0  0  0  0  0  0  0
   37.3420   21.4720   37.0860 H   0  0  0  0  0  0  0  0  0  0  0  0
   38.5880   22.2540   34.4490 S   0  0  0  0  0  0  0  0  0  0  0  0
   35.8320   22.2770   31.4860 C   0  0  0  0  0  0  0  0  0  0  0  0
   36.6920   21.8150   32.4600 C   0  0  0  0  0  0  0  0  0  0  0  0
   37.4470   22.7180   33.1730 C   0  0  0  0  0  0  0  0  0  0  0  0
   37.3120   24.0650   32.8830 N   0  0  0  0  0  0  0  0  0  0  0  0
   36.4640   24.4470   31.9310 C   0  0  0  0  0  0  0  0  0  0  0  0
   35.7230   23.5780   31.2280 N   0  0  0  0  0  0  0  0  0  0  0  0
   35.2270   21.5970   30.9090 H   0  0  0  0  0  0  0  0  0  0  0  0
   36.7810   20.7750   32.6660 H   0  0  0  0  0  0  0  0  0  0  0  0
   36.3290   25.8750   31.6340 C   0  0  0  0  0  0  0  0  0  0  0  0
   36.7320   26.7670   32.4330 O   0  0  0  0  0  0  0  0  0  0  0  0
   35.7180   26.2490   30.3880 N   0  0  0  0  0  0  0  0  0  0  0  0
   36.3770   26.5500   29.6140 H   0  0  0  0  0  0  0  0  0  0  0  0
   34.6580   26.1900   30.3520 H   0  0  0  0  0  0  0  0  0  0  0  0
  1  6  1  0  0  0  0
  2  8  1  6  0  0  0
  2  1  1  0  0  0  0
  2  3  1  0  0  0  0
  3 10  1  0  0  0  0
  3  4  1  0  0  0  0
  4  5  1  0  0  0  0
  5 12  1  0  0  0  0
  5 13  1  0  0  0  0
  6 14  1  1  0  0  0
  6  5  1  0  0  0  0
  7  1  1  0  0  0  0
  9  3  1  0  0  0  0
 11  4  1  0  0  0  0
 15 17  1  0  0  0  0
 15  6  1  0  0  0  0
 16 15  1  0  0  0  0
 18  2  1  0  0  0  0
 19 20  1  0  0  0  0
 20 26  1  0  0  0  0
 20 21  2  0  0  0  0
 21 18  1  0  0  0  0
 22 21  1  0  0  0  0
 23 22  2  0  0  0  0
 24 19  2  0  0  0  0
 24 23  1  0  0  0  0
 25 19  1  0  0  0  0
 27 23  1  0  0  0  0
 27 28  2  0  0  0  0
 29 27  1  0  0  0  0
 30 29  1  0  0  0  0
 31 29  1  0  0  0  0
M  END
>  <minimizedAffinity>
-4.77424049

$$$$

 OpenBabel03262521013D

 31 32  0  0  1  0  0  0  0  0999 V2000
   38.2140   24.3060   36.5690 N   0  0  0  0  0  0  0  0  0  0  0  0
   39.2250   23.5800   35.8670 C   0  0  1  0  0  0  0  0  0  0  0  0
   40.3430   23.2190   36.8170 C   0  0  0  0  0  0  0  0  0  0  0  0
   39.7650   22.4240   37.8870 N   0  0  0  0  0  0  0  0  0  0  0  0
   38.9110   23.3360   38.6520 C   0  0  0  0  0  0  0  0  0  0  0  0
   37.7450   23.6570   37.7520 C   0  0  2  0  0  0  0  0  0  0  0  0
   37.4940   24.7450   35.9930 H   0  0  0  0  0  0  0  0  0  0  0  0
   39.6050   24.1940   35.0350 H   0  0  0  0  0  0  0  0  0  0  0  0
   41.1160   22.6040   36.2920 H   0  0  0  0  0  0  0  0  0  0  0  0
   40.7320   24.1460   37.2530 H   0  0  0  0  0  0  0  0  0  0  0  0
   39.2920   21.5740   37.5770 H   0  0  0  0  0  0  0  0  0  0  0  0
   39.4730   24.2590   38.8160 H   0  0  0  0  0  0  0  0  0  0  0  0
   38.5710   22.8700   39.6010 H   0  0  0  0  0  0  0  0  0  0  0  0
   37.1120   24.3920   38.3120 H   0  0  0  0  0  0  0  0  0  0  0  0
   37.0020   22.4900   37.5110 N   0  0  0  0  0  0  0  0  0  0  0  0
   36.1980   22.5550   36.8790 H   0  0  0  0  0  0  0  0  0  0  0  0
   37.2810   21.6160   37.9100 H   0  0  0  0  0  0  0  0  0  0  0  0
   38.5880   21.9880   35.2130 S   0  0  0  0  0  0  0  0  0  0  0  0
   36.8690   23.5880   31.9170 C   0  0  0  0  0  0  0  0  0  0  0  0
   37.6430   23.4650   33.0510 C   0  0  0  0  0  0  0  0  0  0  0  0
   37.6390   22.2750   33.7420 C   0  0  0  0  0  0  0  0  0  0  0  0
   36.8540   21.2390   33.2660 N   0  0  0  0  0  0  0  0  0  0  0  0
   36.1290   21.4210   32.1650 C   0  0  0  0  0  0  0  0  0  0  0  0
   36.1230   22.5750   31.4830 N   0  0  0  0  0  0  0  0  0  0  0  0
   36.8500   24.5070   31.3540 H   0  0  0  0  0  0  0  0  0  0  0  0
   38.2400   24.2750   33.4010 H   0  0  0  0  0  0  0  0  0  0  0  0
   35.3020   20.3180   31.6710 C   0  0  0  0  0  0  0  0  0  0  0  0
   34.0990   20.1710   32.0260 O   0  0  0  0  0  0  0  0  0  0  0  0
   35.9010   19.3860   30.7540 N   0  0  0  0  0  0  0  0  0  0  0  0
   35.6540   19.5120   29.7300 H   0  0  0  0  0  0  0  0  0  0  0  0
   36.5390   18.6530   31.1830 H   0  0  0  0  0  0  0  0  0  0  0  0
  1  6  1  0  0  0  0
  2  8  1  6  0  0  0
  2  1  1  0  0  0  0
  2  3  1  0  0  0  0
  3 10  1  0  0  0  0
  3  4  1  0  0  0  0
  4  5  1  0  0  0  0
  5 12  1  0  0  0  0
  5 13  1  0  0  0  0
  6 14  1  1  0  0  0
  6  5  1  0  0  0  0
  7  1  1  0  0  0  0
  9  3  1  0  0  0  0
 11  4  1  0  0  0  0
 15  6  1  0  0  0  0
 15 17  1  0  0  0  0
 16 15  1  0  0  0  0
 18  2  1  0  0  0  0
 19 20  1  0  0  0  0
 20 26  1  0  0  0  0
 20 21  2  0  0  0  0
 21 18  1  0  0  0  0
 22 21  1  0  0  0  0
 23 22  2  0  0  0  0
 24 19  2  0  0  0  0
 24 23  1  0  0  0  0
 25 19  1  0  0  0  0
 27 28  2  0  0  0  0
 27 23  1  0  0  0  0
 29 31  1  0  0  0  0
 29 27  1  0  0  0  0
 30 29  1  0  0  0  0
M  END
>  <minimizedAffinity>
-4.73835278

$$$$

 OpenBabel03262521013D

 31 32  0  0  1  0  0  0  0  0999 V2000
   36.0010   26.1900   31.6540 N   0  0  0  0  0  0  0  0  0  0  0  0
   37.3400   25.7050   31.7710 C   0  0  1  0  0  0  0  0  0  0  0  0
   38.2320   26.4340   30.7940 C   0  0  0  0  0  0  0  0  0  0  0  0
   38.1520   27.8510   31.1050 N   0  0  0  0  0  0  0  0  0  0  0  0
   36.7940   28.2670   30.7470 C   0  0  0  0  0  0  0  0  0  0  0  0
   35.8850   27.6100   31.7550 C   0  0  2  0  0  0  0  0  0  0  0  0
   35.2850   25.6540   32.1450 H   0  0  0  0  0  0  0  0  0  0  0  0
   37.3540   24.6200   31.5760 H   0  0  0  0  0  0  0  0  0  0  0  0
   39.2930   26.1010   30.9110 H   0  0  0  0  0  0  0  0  0  0  0  0
   37.8280   26.2840   29.7860 H   0  0  0  0  0  0  0  0  0  0  0  0
   38.4230   28.0920   32.0590 H   0  0  0  0  0  0  0  0  0  0  0  0
   36.5650   27.8470   29.7650 H   0  0  0  0  0  0  0  0  0  0  0  0
   36.6910   29.3730   30.7720 H   0  0  0  0  0  0  0  0  0  0  0  0
   34.8400   27.8850   31.4580 H   0  0  0  0  0  0  0  0  0  0  0  0
   36.1560   28.1200   33.0350 N   0  0  0  0  0  0  0  0  0  0  0  0
   35.6350   27.7300   33.8260 H   0  0  0  0  0  0  0  0  0  0  0  0
   36.8690   28.8080   33.1690 H   0  0  0  0  0  0  0  0  0  0  0  0
   38.0410   26.0370   33.4340 S   0  0  0  0  0  0  0  0  0  0  0  0
   38.0780   22.1730   34.6360 C   0  0  0  0  0  0  0  0  0  0  0  0
   38.0190   23.2810   33.8170 C   0  0  0  0  0  0  0  0  0  0  0  0
   38.1040   24.5360   34.3760 C   0  0  0  0  0  0  0  0  0  0  0  0
   38.2480   24.6380   35.7480 N   0  0  0  0  0  0  0  0  0  0  0  0
   38.2980   23.5300   36.4840 C   0  0  0  0  0  0  0  0  0  0  0  0
   38.2160   22.3020   35.9540 N   0  0  0  0  0  0  0  0  0  0  0  0
   38.0140   21.1770   34.2310 H   0  0  0  0  0  0  0  0  0  0  0  0
   37.9070   23.1800   32.7630 H   0  0  0  0  0  0  0  0  0  0  0  0
   38.4520   23.6510   37.9360 C   0  0  0  0  0  0  0  0  0  0  0  0
   37.9030   24.5800   38.5930 O   0  0  0  0  0  0  0  0  0  0  0  0
   39.2550   22.6690   38.6120 N   0  0  0  0  0  0  0  0  0  0  0  0
   38.7290   21.9040   39.1250 H   0  0  0  0  0  0  0  0  0  0  0  0
   40.3080   22.7960   38.5380 H   0  0  0  0  0  0  0  0  0  0  0  0
  1  6  1  0  0  0  0
  1  2  1  0  0  0  0
  1  7  1  0  0  0  0
  2  8  1  6  0  0  0
  2 18  1  0  0  0  0
  3  9  1  0  0  0  0
  3  4  1  0  0  0  0
  3  2  1  0  0  0  0
  4 11  1  0  0  0  0
  5 13  1  0  0  0  0
  5  4  1  0  0  0  0
  5  6  1  0  0  0  0
  6 14  1  6  0  0  0
  6 15  1  0  0  0  0
 10  3  1  0  0  0  0
 12  5  1  0  0  0  0
 15 17  1  0  0  0  0
 15 16  1  0  0  0  0
 18 21  1  0  0  0  0
 19 24  1  0  0  0  0
 20 21  1  0  0  0  0
 20 19  2  0  0  0  0
 21 22  2  0  0  0  0
 22 23  1  0  0  0  0
 23 27  1  0  0  0  0
 24 23  2  0  0  0  0
 25 19  1  0  0  0  0
 26 20  1  0  0  0  0
 27 28  2  0  0  0  0
 27 29  1  0  0  0  0
 29 30  1  0  0  0  0
 31 29  1  0  0  0  0
M  END
>  <minimizedAffinity>
-4.52729225

$$$$

 OpenBabel03262521013D

 31 32  0  0  1  0  0  0  0  0999 V2000
   34.7080   33.2320   34.5250 N   0  0  0  0  0  0  0  0  0  0  0  0
   35.5010   32.0440   34.4990 C   0  0  1  0  0  0  0  0  0  0  0  0
   36.2230   31.8850   35.8160 C   0  0  0  0  0  0  0  0  0  0  0  0
   35.2150   31.8280   36.8610 N   0  0  0  0  0  0  0  0  0  0  0  0
   34.6220   33.1650   36.9240 C   0  0  0  0  0  0  0  0  0  0  0  0
   33.8320   33.3240   35.6490 C   0  0  2  0  0  0  0  0  0  0  0  0
   34.3110   33.5270   33.6310 H   0  0  0  0  0  0  0  0  0  0  0  0
   36.2200   32.1020   33.6660 H   0  0  0  0  0  0  0  0  0  0  0  0
   36.8070   30.9310   35.8290 H   0  0  0  0  0  0  0  0  0  0  0  0
   36.8330   32.7820   35.9800 H   0  0  0  0  0  0  0  0  0  0  0  0
   34.5340   31.0760   36.7530 H   0  0  0  0  0  0  0  0  0  0  0  0
   35.4370   33.8930   36.9050 H   0  0  0  0  0  0  0  0  0  0  0  0
   33.9710   33.2770   37.8170 H   0  0  0  0  0  0  0  0  0  0  0  0
   33.4140   34.3620   35.6680 H   0  0  0  0  0  0  0  0  0  0  0  0
   32.7770   32.3960   35.6320 N   0  0  0  0  0  0  0  0  0  0  0  0
   32.1790   32.3660   34.8010 H   0  0  0  0  0  0  0  0  0  0  0  0
   32.6470   31.7580   36.3910 H   0  0  0  0  0  0  0  0  0  0  0  0
   34.4660   30.5400   34.3100 S   0  0  0  0  0  0  0  0  0  0  0  0
   36.3440   27.6580   32.1790 C   0  0  0  0  0  0  0  0  0  0  0  0
   35.5320   28.7280   32.4860 C   0  0  0  0  0  0  0  0  0  0  0  0
   35.4710   29.1750   33.7860 C   0  0  0  0  0  0  0  0  0  0  0  0
   36.2350   28.5290   34.7420 N   0  0  0  0  0  0  0  0  0  0  0  0
   37.0000   27.5010   34.3820 C   0  0  0  0  0  0  0  0  0  0  0  0
   37.0680   27.0550   33.1200 N   0  0  0  0  0  0  0  0  0  0  0  0
   36.4140   27.2820   31.1720 H   0  0  0  0  0  0  0  0  0  0  0  0
   34.9510   29.2110   31.7350 H   0  0  0  0  0  0  0  0  0  0  0  0
   37.8050   26.8260   35.4030 C   0  0  0  0  0  0  0  0  0  0  0  0
   37.7590   25.5750   35.5730 O   0  0  0  0  0  0  0  0  0  0  0  0
   38.6660   27.6330   36.2230 N   0  0  0  0  0  0  0  0  0  0  0  0
   39.6960   27.6280   35.9680 H   0  0  0  0  0  0  0  0  0  0  0  0
   38.1950   28.1630   37.0140 H   0  0  0  0  0  0  0  0  0  0  0  0
  1  6  1  0  0  0  0
  2  8  1  6  0  0  0
  2  1  1  0  0  0  0
  2  3  1  0  0  0  0
  3  9  1  0  0  0  0
  3 10  1  0  0  0  0
  3  4  1  0  0  0  0
  4  5  1  0  0  0  0
  5 13  1  0  0  0  0
  6 14  1  1  0  0  0
  6  5  1  0  0  0  0
  7  1  1  0  0  0  0
 11  4  1  0  0  0  0
 12  5  1  0  0  0  0
 15  6  1  0  0  0  0
 15 17  1  0  0  0  0
 16 15  1  0  0  0  0
 18  2  1  0  0  0  0
 19 20  2  0  0  0  0
 19 24  1  0  0  0  0
 20 21  1  0  0  0  0
 21 18  1  0  0  0  0
 21 22  2  0  0  0  0
 23 22  1  0  0  0  0
 23 27  1  0  0  0  0
 24 23  2  0  0  0  0
 25 19  1  0  0  0  0
 26 20  1  0  0  0  0
 27 28  2  0  0  0  0
 27 29  1  0  0  0  0
 29 31  1  0  0  0  0
 30 29  1  0  0  0  0
M  END
>  <minimizedAffinity>
-4.37302589

$$$$

 OpenBabel03262521013D

 31 32  0  0  1  0  0  0  0  0999 V2000
   38.1600   22.8470   35.6190 N   0  0  0  0  0  0  0  0  0  0  0  0
   37.6720   23.7720   36.5930 C   0  0  1  0  0  0  0  0  0  0  0  0
   38.1540   23.3670   37.9650 C   0  0  0  0  0  0  0  0  0  0  0  0
   39.6070   23.3510   37.9300 N   0  0  0  0  0  0  0  0  0  0  0  0
   39.9770   22.2300   37.0620 C   0  0  0  0  0  0  0  0  0  0  0  0
   39.5720   22.6390   35.6680 C   0  0  2  0  0  0  0  0  0  0  0  0
   37.7590   22.9270   34.6830 H   0  0  0  0  0  0  0  0  0  0  0  0
   36.5700   23.7930   36.5570 H   0  0  0  0  0  0  0  0  0  0  0  0
   37.8230   24.1130   38.7310 H   0  0  0  0  0  0  0  0  0  0  0  0
   37.8070   22.3460   38.1600 H   0  0  0  0  0  0  0  0  0  0  0  0
   40.0340   24.2390   37.6660 H   0  0  0  0  0  0  0  0  0  0  0  0
   39.3660   21.3710   37.3500 H   0  0  0  0  0  0  0  0  0  0  0  0
   41.0660   22.0170   37.1200 H   0  0  0  0  0  0  0  0  0  0  0  0
   39.8080   21.7670   35.0070 H   0  0  0  0  0  0  0  0  0  0  0  0
   40.3310   23.7500   35.2660 N   0  0  0  0  0  0  0  0  0  0  0  0
   40.1310   24.1600   34.3480 H   0  0  0  0  0  0  0  0  0  0  0  0
   41.0120   24.1510   35.8780 H   0  0  0  0  0  0  0  0  0  0  0  0
   38.3260   25.4630   36.3100 S   0  0  0  0  0  0  0  0  0  0  0  0
   36.6800   27.9290   33.5550 C   0  0  0  0  0  0  0  0  0  0  0  0
   37.2420   27.4840   34.7330 C   0  0  0  0  0  0  0  0  0  0  0  0
   37.5960   26.1590   34.8510 C   0  0  0  0  0  0  0  0  0  0  0  0
   37.3750   25.3190   33.7740 N   0  0  0  0  0  0  0  0  0  0  0  0
   36.8280   25.8100   32.6640 C   0  0  0  0  0  0  0  0  0  0  0  0
   36.4780   27.0980   32.5350 N   0  0  0  0  0  0  0  0  0  0  0  0
   36.3910   28.9590   33.4300 H   0  0  0  0  0  0  0  0  0  0  0  0
   37.4030   28.1470   35.5500 H   0  0  0  0  0  0  0  0  0  0  0  0
   36.5990   24.9110   31.5300 C   0  0  0  0  0  0  0  0  0  0  0  0
   35.6490   24.0780   31.5160 O   0  0  0  0  0  0  0  0  0  0  0  0
   37.4960   24.9980   30.4100 N   0  0  0  0  0  0  0  0  0  0  0  0
   37.1380   25.5240   29.5620 H   0  0  0  0  0  0  0  0  0  0  0  0
   38.4410   24.5280   30.5310 H   0  0  0  0  0  0  0  0  0  0  0  0
  1  6  1  0  0  0  0
  1  2  1  0  0  0  0
  2  8  1  6  0  0  0
  2  3  1  0  0  0  0
  3 10  1  0  0  0  0
  3  9  1  0  0  0  0
  4  3  1  0  0  0  0
  5 13  1  0  0  0  0
  5 12  1  0  0  0  0
  5  4  1  0  0  0  0
  6 14  1  6  0  0  0
  6  5  1  0  0  0  0
  7  1  1  0  0  0  0
 11  4  1  0  0  0  0
 15  6  1  0  0  0  0
 15 17  1  0  0  0  0
 16 15  1  0  0  0  0
 18  2  1  0  0  0  0
 19 20  1  0  0  0  0
 20 21  2  0  0  0  0
 20 26  1  0  0  0  0
 21 18  1  0  0  0  0
 22 21  1  0  0  0  0
 23 22  2  0  0  0  0
 24 23  1  0  0  0  0
 24 19  2  0  0  0  0
 25 19  1  0  0  0  0
 27 23  1  0  0  0  0
 28 27  2  0  0  0  0
 29 31  1  0  0  0  0
 29 27  1  0  0  0  0
 30 29  1  0  0  0  0
M  END
>  <minimizedAffinity>
-4.30876398

$$$$

 OpenBabel03262521013D

 31 32  0  0  1  0  0  0  0  0999 V2000
   39.2950   27.2160   32.6720 N   0  0  0  0  0  0  0  0  0  0  0  0
   38.6370   26.8380   33.8830 C   0  0  1  0  0  0  0  0  0  0  0  0
   37.3280   27.5830   34.0040 C   0  0  0  0  0  0  0  0  0  0  0  0
   36.5280   27.2490   32.8380 N   0  0  0  0  0  0  0  0  0  0  0  0
   37.2010   27.8680   31.6950 C   0  0  0  0  0  0  0  0  0  0  0  0
   38.4820   27.0950   31.5050 C   0  0  2  0  0  0  0  0  0  0  0  0
   40.2620   26.9030   32.5700 H   0  0  0  0  0  0  0  0  0  0  0  0
   39.2920   27.0620   34.7410 H   0  0  0  0  0  0  0  0  0  0  0  0
   36.7780   27.2580   34.9210 H   0  0  0  0  0  0  0  0  0  0  0  0
   37.5440   28.6570   33.9720 H   0  0  0  0  0  0  0  0  0  0  0  0
   36.3440   26.2520   32.7220 H   0  0  0  0  0  0  0  0  0  0  0  0
   37.4650   28.8900   31.9770 H   0  0  0  0  0  0  0  0  0  0  0  0
   36.5670   27.8290   30.7830 H   0  0  0  0  0  0  0  0  0  0  0  0
   39.0250   27.5930   30.6610 H   0  0  0  0  0  0  0  0  0  0  0  0
   38.1820   25.7700   31.1480 N   0  0  0  0  0  0  0  0  0  0  0  0
   38.9630   25.1180   31.0250 H   0  0  0  0  0  0  0  0  0  0  0  0
   37.2320   25.4670   31.0630 H   0  0  0  0  0  0  0  0  0  0  0  0
   38.2020   25.0560   33.8930 S   0  0  0  0  0  0  0  0  0  0  0  0
   37.9720   23.9290   37.7730 C   0  0  0  0  0  0  0  0  0  0  0  0
   37.6450   24.5030   36.5630 C   0  0  0  0  0  0  0  0  0  0  0  0
   38.5070   24.3670   35.4990 C   0  0  0  0  0  0  0  0  0  0  0  0
   39.6780   23.6530   35.6860 N   0  0  0  0  0  0  0  0  0  0  0  0
   39.9360   23.1230   36.8790 C   0  0  0  0  0  0  0  0  0  0  0  0
   39.1060   23.2480   37.9240 N   0  0  0  0  0  0  0  0  0  0  0  0
   37.3200   24.0170   38.6260 H   0  0  0  0  0  0  0  0  0  0  0  0
   36.7390   25.0480   36.4400 H   0  0  0  0  0  0  0  0  0  0  0  0
   41.1790   22.3690   37.0650 C   0  0  0  0  0  0  0  0  0  0  0  0
   42.2690   22.7340   36.5410 O   0  0  0  0  0  0  0  0  0  0  0  0
   41.1310   21.1820   37.8730 N   0  0  0  0  0  0  0  0  0  0  0  0
   41.4990   21.2740   38.8640 H   0  0  0  0  0  0  0  0  0  0  0  0
   40.7310   20.3150   37.4070 H   0  0  0  0  0  0  0  0  0  0  0  0
  1  2  1  0  0  0  0
  2 18  1  0  0  0  0
  2  3  1  0  0  0  0
  2  8  1  1  0  0  0
  3  9  1  0  0  0  0
  4  3  1  0  0  0  0
  5 12  1  0  0  0  0
  5  4  1  0  0  0  0
  6 14  1  6  0  0  0
  6  5  1  0  0  0  0
  6  1  1  0  0  0  0
  7  1  1  0  0  0  0
 10  3  1  0  0  0  0
 11  4  1  0  0  0  0
 13  5  1  0  0  0  0
 15  6  1  0  0  0  0
 16 15  1  0  0  0  0
 17 15  1  0  0  0  0
 18 21  1  0  0  0  0
 19 24  1  0  0  0  0
 19 25  1  0  0  0  0
 20 19  2  0  0  0  0
 21 22  2  0  0  0  0
 21 20  1  0  0  0  0
 22 23  1  0  0  0  0
 23 27  1  0  0  0  0
 23 24  2  0  0  0  0
 26 20  1  0  0  0  0
 27 29  1  0  0  0  0
 28 27  2  0  0  0  0
 29 30  1  0  0  0  0
 31 29  1  0  0  0  0
M  END
>  <minimizedAffinity>
-4.30637312

$$$$

 OpenBabel03262521013D

 31 32  0  0  1  0  0  0  0  0999 V2000
   36.8720   21.4460   31.0100 N   0  0  0  0  0  0  0  0  0  0  0  0
   36.5480   22.0410   32.2680 C   0  0  1  0  0  0  0  0  0  0  0  0
   35.3390   21.3560   32.8590 C   0  0  0  0  0  0  0  0  0  0  0  0
   35.6660   19.9470   33.0070 N   0  0  0  0  0  0  0  0  0  0  0  0
   35.7670   19.4110   31.6470 C   0  0  0  0  0  0  0  0  0  0  0  0
   37.0110   20.0250   31.0560 C   0  0  2  0  0  0  0  0  0  0  0  0
   37.5650   21.9390   30.4450 H   0  0  0  0  0  0  0  0  0  0  0  0
   36.3540   23.1170   32.1240 H   0  0  0  0  0  0  0  0  0  0  0  0
   35.1060   21.7760   33.8680 H   0  0  0  0  0  0  0  0  0  0  0  0
   34.5150   21.4400   32.1410 H   0  0  0  0  0  0  0  0  0  0  0  0
   36.4830   19.7600   33.5890 H   0  0  0  0  0  0  0  0  0  0  0  0
   34.9090   19.7800   31.0790 H   0  0  0  0  0  0  0  0  0  0  0  0
   35.8290   18.3020   31.6540 H   0  0  0  0  0  0  0  0  0  0  0  0
   37.0690   19.6570   30.0000 H   0  0  0  0  0  0  0  0  0  0  0  0
   38.1380   19.5810   31.7670 N   0  0  0  0  0  0  0  0  0  0  0  0
   39.0530   19.9530   31.4960 H   0  0  0  0  0  0  0  0  0  0  0  0
   38.0380   18.9570   32.5420 H   0  0  0  0  0  0  0  0  0  0  0  0
   37.8980   21.8210   33.4920 S   0  0  0  0  0  0  0  0  0  0  0  0
   38.1620   25.5400   35.0650 C   0  0  0  0  0  0  0  0  0  0  0  0
   38.1200   24.5180   34.1400 C   0  0  0  0  0  0  0  0  0  0  0  0
   37.9660   23.2220   34.5770 C   0  0  0  0  0  0  0  0  0  0  0  0
   37.8560   22.9930   35.9380 N   0  0  0  0  0  0  0  0  0  0  0  0
   37.9040   24.0230   36.7790 C   0  0  0  0  0  0  0  0  0  0  0  0
   38.0540   25.2900   36.3680 N   0  0  0  0  0  0  0  0  0  0  0  0
   38.2810   26.5650   34.7570 H   0  0  0  0  0  0  0  0  0  0  0  0
   38.2070   24.7160   33.0980 H   0  0  0  0  0  0  0  0  0  0  0  0
   37.7860   23.7680   38.2170 C   0  0  0  0  0  0  0  0  0  0  0  0
   38.1900   24.5980   39.0800 O   0  0  0  0  0  0  0  0  0  0  0  0
   37.1880   22.5290   38.6340 N   0  0  0  0  0  0  0  0  0  0  0  0
   36.1790   22.5810   38.9580 H   0  0  0  0  0  0  0  0  0  0  0  0
   37.8100   21.6690   38.5810 H   0  0  0  0  0  0  0  0  0  0  0  0
  1  6  1  0  0  0  0
  1  2  1  0  0  0  0
  2  8  1  6  0  0  0
  2  3  1  0  0  0  0
  2 18  1  0  0  0  0
  3  4  1  0  0  0  0
  3  9  1  0  0  0  0
  4 11  1  0  0  0  0
  5 13  1  0  0  0  0
  5  4  1  0  0  0  0
  6 14  1  6  0  0  0
  6  5  1  0  0  0  0
  6 15  1  0  0  0  0
  7  1  1  0  0  0  0
 10  3  1  0  0  0  0
 12  5  1  0  0  0  0
 15 17  1  0  0  0  0
 16 15  1  0  0  0  0
 18 21  1  0  0  0  0
 19 24  1  0  0  0  0
 20 21  1  0  0  0  0
 20 19  2  0  0  0  0
 21 22  2  0  0  0  0
 22 23  1  0  0  0  0
 23 27  1  0  0  0  0
 24 23  2  0  0  0  0
 25 19  1  0  0  0  0
 26 20  1  0  0  0  0
 27 29  1  0  0  0  0
 27 28  2  0  0  0  0
 29 30  1  0  0  0  0
 31 29  1  0  0  0  0
M  END
>  <minimizedAffinity>
-4.30095768

$$$$

 OpenBabel03262521013D

 31 32  0  0  1  0  0  0  0  0999 V2000
   33.9610   33.2810   34.9760 N   0  0  0  0  0  0  0  0  0  0  0  0
   34.9810   32.2930   34.8070 C   0  0  1  0  0  0  0  0  0  0  0  0
   35.8900   32.2890   36.0130 C   0  0  0  0  0  0  0  0  0  0  0  0
   35.0670   32.0080   37.1770 N   0  0  0  0  0  0  0  0  0  0  0  0
   34.2130   33.1840   37.3620 C   0  0  0  0  0  0  0  0  0  0  0  0
   33.2440   33.1730   36.2060 C   0  0  2  0  0  0  0  0  0  0  0  0
   33.3940   33.4860   34.1520 H   0  0  0  0  0  0  0  0  0  0  0  0
   35.5520   32.5110   33.8900 H   0  0  0  0  0  0  0  0  0  0  0  0
   36.6610   31.4850   35.9170 H   0  0  0  0  0  0  0  0  0  0  0  0
   36.3080   33.2950   36.1270 H   0  0  0  0  0  0  0  0  0  0  0  0
   34.5550   31.1260   37.1320 H   0  0  0  0  0  0  0  0  0  0  0  0
   34.8430   34.0710   37.2630 H   0  0  0  0  0  0  0  0  0  0  0  0
   33.6800   33.1460   38.3360 H   0  0  0  0  0  0  0  0  0  0  0  0
   32.6190   34.0960   36.3150 H   0  0  0  0  0  0  0  0  0  0  0  0
   32.4210   32.0390   36.2940 N   0  0  0  0  0  0  0  0  0  0  0  0
   31.7380   31.8830   35.5470 H   0  0  0  0  0  0  0  0  0  0  0  0
   32.5340   31.3830   37.0410 H   0  0  0  0  0  0  0  0  0  0  0  0
   34.2780   30.6020   34.7020 S   0  0  0  0  0  0  0  0  0  0  0  0
   36.9820   27.7520   33.7330 C   0  0  0  0  0  0  0  0  0  0  0  0
   36.1290   28.5350   34.4800 C   0  0  0  0  0  0  0  0  0  0  0  0
   35.4070   29.5270   33.8560 C   0  0  0  0  0  0  0  0  0  0  0  0
   35.5670   29.7000   32.4920 N   0  0  0  0  0  0  0  0  0  0  0  0
   36.4070   28.9100   31.8280 C   0  0  0  0  0  0  0  0  0  0  0  0
   37.1160   27.9400   32.4220 N   0  0  0  0  0  0  0  0  0  0  0  0
   37.5620   26.9670   34.1910 H   0  0  0  0  0  0  0  0  0  0  0  0
   36.0210   28.3860   35.5290 H   0  0  0  0  0  0  0  0  0  0  0  0
   36.5670   29.1020   30.3840 C   0  0  0  0  0  0  0  0  0  0  0  0
   36.6150   30.2520   29.8620 O   0  0  0  0  0  0  0  0  0  0  0  0
   36.6710   27.9310   29.5570 N   0  0  0  0  0  0  0  0  0  0  0  0
   37.6470   27.6700   29.2340 H   0  0  0  0  0  0  0  0  0  0  0  0
   35.7600   27.4290   29.3410 H   0  0  0  0  0  0  0  0  0  0  0  0
  1  6  1  0  0  0  0
  2  8  1  6  0  0  0
  2  1  1  0  0  0  0
  2  3  1  0  0  0  0
  3 10  1  0  0  0  0
  3  4  1  0  0  0  0
  4  5  1  0  0  0  0
  5 13  1  0  0  0  0
  6 15  1  0  0  0  0
  6 14  1  1  0  0  0
  6  5  1  0  0  0  0
  7  1  1  0  0  0  0
  9  3  1  0  0  0  0
 11  4  1  0  0  0  0
 12  5  1  0  0  0  0
 15 17  1  0  0  0  0
 16 15  1  0  0  0  0
 18  2  1  0  0  0  0
 19 25  1  0  0  0  0
 19 20  1  0  0  0  0
 20 26  1  0  0  0  0
 21 20  2  0  0  0  0
 21 18  1  0  0  0  0
 22 21  1  0  0  0  0
 23 24  1  0  0  0  0
 23 22  2  0  0  0  0
 24 19  2  0  0  0  0
 27 23  1  0  0  0  0
 28 27  2  0  0  0  0
 29 27  1  0  0  0  0
 30 29  1  0  0  0  0
 31 29  1  0  0  0  0
M  END
>  <minimizedAffinity>
-4.29852343

$$$$

 OpenBabel03262521013D

 31 32  0  0  1  0  0  0  0  0999 V2000
   39.8750   24.9090   31.1470 N   0  0  0  0  0  0  0  0  0  0  0  0
   39.9020   25.7760   32.2830 C   0  0  1  0  0  0  0  0  0  0  0  0
   40.1180   27.2010   31.8300 C   0  0  0  0  0  0  0  0  0  0  0  0
   39.0310   27.5410   30.9280 N   0  0  0  0  0  0  0  0  0  0  0  0
   39.2380   26.7350   29.7230 C   0  0  0  0  0  0  0  0  0  0  0  0
   38.9570   25.3100   30.1290 C   0  0  2  0  0  0  0  0  0  0  0  0
   39.9040   23.9080   31.3460 H   0  0  0  0  0  0  0  0  0  0  0  0
   40.7070   25.4590   32.9660 H   0  0  0  0  0  0  0  0  0  0  0  0
   40.0890   27.8970   32.7050 H   0  0  0  0  0  0  0  0  0  0  0  0
   41.0550   27.2390   31.2630 H   0  0  0  0  0  0  0  0  0  0  0  0
   38.0990   27.4500   31.3340 H   0  0  0  0  0  0  0  0  0  0  0  0
   40.2950   26.8040   29.4540 H   0  0  0  0  0  0  0  0  0  0  0  0
   38.5670   27.0590   28.9000 H   0  0  0  0  0  0  0  0  0  0  0  0
   39.1600   24.6820   29.2250 H   0  0  0  0  0  0  0  0  0  0  0  0
   37.6060   25.1830   30.4920 N   0  0  0  0  0  0  0  0  0  0  0  0
   37.2840   24.2710   30.8290 H   0  0  0  0  0  0  0  0  0  0  0  0
   36.9940   25.9730   30.4630 H   0  0  0  0  0  0  0  0  0  0  0  0
   38.3010   25.7720   33.1790 S   0  0  0  0  0  0  0  0  0  0  0  0
   37.8250   21.9960   34.5550 C   0  0  0  0  0  0  0  0  0  0  0  0
   37.9030   23.0650   33.6880 C   0  0  0  0  0  0  0  0  0  0  0  0
   38.1740   24.3180   34.1870 C   0  0  0  0  0  0  0  0  0  0  0  0
   38.3620   24.4580   35.5510 N   0  0  0  0  0  0  0  0  0  0  0  0
   38.2740   23.3870   36.3360 C   0  0  0  0  0  0  0  0  0  0  0  0
   38.0100   22.1600   35.8630 N   0  0  0  0  0  0  0  0  0  0  0  0
   37.6130   21.0020   34.1970 H   0  0  0  0  0  0  0  0  0  0  0  0
   37.7540   22.9360   32.6410 H   0  0  0  0  0  0  0  0  0  0  0  0
   38.4760   23.5470   37.7780 C   0  0  0  0  0  0  0  0  0  0  0  0
   37.8840   24.4440   38.4420 O   0  0  0  0  0  0  0  0  0  0  0  0
   39.3790   22.6430   38.4360 N   0  0  0  0  0  0  0  0  0  0  0  0
   38.9340   21.8510   38.9830 H   0  0  0  0  0  0  0  0  0  0  0  0
   40.4150   22.8490   38.3170 H   0  0  0  0  0  0  0  0  0  0  0  0
  1  7  1  0  0  0  0
  1  2  1  0  0  0  0
  2  8  1  1  0  0  0
  2 18  1  0  0  0  0
  3  2  1  0  0  0  0
  3  9  1  0  0  0  0
  4 11  1  0  0  0  0
  4  3  1  0  0  0  0
  5  6  1  0  0  0  0
  5  4  1  0  0  0  0
  6 14  1  6  0  0  0
  6 15  1  0  0  0  0
  6  1  1  0  0  0  0
 10  3  1  0  0  0  0
 12  5  1  0  0  0  0
 13  5  1  0  0  0  0
 15 16  1  0  0  0  0
 17 15  1  0  0  0  0
 18 21  1  0  0  0  0
 19 24  1  0  0  0  0
 20 21  1  0  0  0  0
 20 19  2  0  0  0  0
 21 22  2  0  0  0  0
 22 23  1  0  0  0  0
 23 27  1  0  0  0  0
 24 23  2  0  0  0  0
 25 19  1  0  0  0  0
 26 20  1  0  0  0  0
 27 29  1  0  0  0  0
 27 28  2  0  0  0  0
 29 30  1  0  0  0  0
 31 29  1  0  0  0  0
M  END
>  <minimizedAffinity>
-4.28724003

$$$$
