
     RDKit          3D

 31 32  0  0  0  0  0  0  0  0999 V2000
   39.5945   32.8680   46.2876 N   0  0  0  0  0  0  0  0  0  0  0  0
   38.2718   32.3656   46.0802 C   0  0  1  0  0  0  0  0  0  0  0  0
   37.9370   32.4103   44.6085 C   0  0  0  0  0  0  0  0  0  0  0  0
   38.9259   31.6040   43.9121 N   0  0  0  0  0  0  0  0  0  0  0  0
   40.1923   32.3322   44.0247 C   0  0  0  0  0  0  0  0  0  0  0  0
   40.5892   32.2419   45.4775 C   0  0  2  0  0  0  0  0  0  0  0  0
   40.8438   30.9017   45.8121 N   0  0  0  0  0  0  0  0  0  0  0  0
   38.1281   30.6050   46.5747 S   0  0  0  0  0  0  0  0  0  0  0  0
   37.8957   30.9296   50.6016 C   0  0  0  0  0  0  0  0  0  0  0  0
   38.3514   31.0756   49.3087 C   0  0  0  0  0  0  0  0  0  0  0  0
   37.6490   30.4925   48.2787 C   0  0  0  0  0  0  0  0  0  0  0  0
   36.5038   29.7770   48.5840 N   0  0  0  0  0  0  0  0  0  0  0  0
   36.1168   29.6733   49.8529 C   0  0  0  0  0  0  0  0  0  0  0  0
   36.7912   30.2361   50.8661 N   0  0  0  0  0  0  0  0  0  0  0  0
   34.9034   28.9137   50.1627 C   0  0  0  0  0  0  0  0  0  0  0  0
   34.5152   27.9484   49.4469 O   0  0  0  0  0  0  0  0  0  0  0  0
   39.8605   33.0411   47.2577 H   0  0  0  0  0  0  0  0  0  0  0  0
   37.5555   32.9715   46.6602 H   0  0  0  0  0  0  0  0  0  0  0  0
   36.9251   31.9712   44.4245 H   0  0  0  0  0  0  0  0  0  0  0  0
   38.0409   33.4458   44.2661 H   0  0  0  0  0  0  0  0  0  0  0  0
   38.9760   30.6327   44.2216 H   0  0  0  0  0  0  0  0  0  0  0  0
   39.9936   33.3821   43.7963 H   0  0  0  0  0  0  0  0  0  0  0  0
   40.9707   31.8916   43.3660 H   0  0  0  0  0  0  0  0  0  0  0  0
   41.5325   32.8365   45.5803 H   0  0  0  0  0  0  0  0  0  0  0  0
   41.0868   30.6886   46.7836 H   0  0  0  0  0  0  0  0  0  0  0  0
   40.7455   30.1779   45.1292 H   0  0  0  0  0  0  0  0  0  0  0  0
   38.4224   31.3737   51.4314 H   0  0  0  0  0  0  0  0  0  0  0  0
   39.2352   31.6304   49.0959 H   0  0  0  0  0  0  0  0  0  0  0  0
   34.1470   29.2981   51.3240 N   0  0  0  0  0  0  0  0  0  0  0  0
   33.8654   28.5148   51.9803 H   0  0  0  0  0  0  0  0  0  0  0  0
   33.9369   30.3351   51.4218 H   0  0  0  0  0  0  0  0  0  0  0  0
  2  1  1  0
  2  8  1  0
  3  2  1  0
  4  5  1  0
  4  3  1  0
  5  6  1  0
  6  7  1  0
  6  1  1  0
  8 11  1  0
  9 14  2  0
 10  9  1  0
 11 12  1  0
 11 10  2  0
 12 13  2  0
 13 15  1  0
 13 14  1  0
 16 15  2  0
  1 17  1  0
  2 18  1  1
  3 19  1  0
  3 20  1  0
  4 21  1  0
  5 22  1  0
  5 23  1  0
  6 24  1  6
  7 25  1  0
  7 26  1  0
  9 27  1  0
 10 28  1  0
 29 30  1  0
 29 31  1  0
 15 29  1  0
M  ISO  8  17   5  18  13  19  13  20  13  21   5  22  13  23  13  24  13
M  ISO  6  25   5  26   5  27  14  28  14  30   5  31   5
M  END
>  <DihAtoms>  (1) 
12,14,28,29

>  <DihDeg>  (1) 
-101.7061549797969

$$$$
