REMARK  Name = 
REMARK  3 active torsions:
REMARK  status: ('A' for Active; 'I' for Inactive)
REMARK    1  A    between atoms: C_3  and  C_7
REMARK    2  A    between atoms: C_5  and  C_17
REMARK    3  A    between atoms: C_22  and  N_31
REMARK                            x       y       z     vdW  Elec       q    Type
REMARK                         _______ _______ _______ _____ _____    ______ ____
ROOT
ATOM      1  C   UNL     1      38.006  32.608  49.498  0.00  0.00    +0.000 A 
ATOM      2  C   UNL     1      38.740  32.866  48.336  0.00  0.00    +0.000 A 
ATOM      3  C   UNL     1      38.374  32.149  47.194  0.00  0.00    +0.000 A 
ATOM      4  N   UNL     1      37.351  31.263  47.271  0.00  0.00    +0.000 NA
ATOM      5  C   UNL     1      36.667  31.041  48.408  0.00  0.00    +0.000 A 
ATOM      6  N   UNL     1      37.014  31.727  49.507  0.00  0.00    +0.000 NA
ATOM      7  H   UNL     1      38.281  33.162  50.401  0.00  0.00    +0.000 HD
ATOM      8  H   UNL     1      39.557  33.579  48.289  0.00  0.00    +0.000 HD
ENDROOT
BRANCH   3   9
ATOM      9  C   UNL     1      39.063  32.327  45.919  0.00  0.00    +0.000 A 
ATOM     10  C   UNL     1      40.386  32.007  45.686  0.00  0.00    +0.000 A 
ATOM     11  N   UNL     1      40.731  32.287  44.411  0.00  0.00    +0.000 N 
ATOM     12  C   UNL     1      39.638  32.784  43.827  0.00  0.00    +0.000 A 
ATOM     13  N   UNL     1      38.662  32.800  44.736  0.00  0.00    +0.000 NA
ATOM     14  C   UNL     1      38.087  33.115  41.986  0.00  0.00    +0.000 C 
ATOM     15  O   UNL     1      37.189  32.614  42.682  0.00  0.00    +0.000 OA
ATOM     16  N   UNL     1      39.412  33.246  42.506  0.00  0.00    +0.000 N 
ATOM     17  H   UNL     1      41.121  31.583  46.379  0.00  0.00    +0.000 HD
ATOM     18  H   UNL     1      41.635  32.172  43.902  0.00  0.00    +0.000 HD
ATOM     19  H   UNL     1      37.916  33.482  40.941  0.00  0.00    +0.000 HD
ATOM     20  H   UNL     1      40.225  33.653  41.993  0.00  0.00    +0.000 HD
ENDBRANCH   3   9
BRANCH   5  23
ATOM     21 CL   UNL     1      36.909  28.933  50.456  0.00  0.00    +0.000 Cl
ATOM     22  C   UNL     1      35.601  29.043  49.345  0.00  0.00    +0.000 A 
ATOM     23  C   UNL     1      35.580  30.075  48.417  0.00  0.00    +0.000 A 
ATOM     24  C   UNL     1      34.560  30.199  47.517  0.00  0.00    +0.000 A 
ATOM     25  C   UNL     1      33.508  29.297  47.497  0.00  0.00    +0.000 A 
ATOM     26  C   UNL     1      33.504  28.262  48.407  0.00  0.00    +0.000 A 
ATOM     27 CL   UNL     1      32.229  27.062  48.478  0.00  0.00    +0.000 Cl
ATOM     28  C   UNL     1      34.547  28.172  49.295  0.00  0.00    +0.000 A 
ATOM     29  H   UNL     1      34.552  31.000  46.804  0.00  0.00    +0.000 HD
ATOM     30  H   UNL     1      32.690  29.382  46.788  0.00  0.00    +0.000 HD
BRANCH  28  31
ATOM     31  N   UNL     1      34.566  27.106  50.250  0.00  0.00    +0.000 N 
ATOM     32  H   UNL     1      34.814  26.099  50.166  0.00  0.00    +0.000 HD
ATOM     33  H   UNL     1      34.264  27.443  51.213  0.00  0.00    +0.000 HD
ENDBRANCH  28  31
ENDBRANCH   5  23
TORSDOF 3
