
 OpenBabel03272508593D

 34 36  0  0  1  0  0  0  0  0999 V2000
   38.1640   26.1270   34.3970 C   0  0  0  0  0  0  0  0  0  0  0  0
   38.8760   27.0380   34.8620 O   0  0  0  0  0  0  0  0  0  0  0  0
   37.1290   26.4280   33.4230 N   0  0  0  0  0  0  0  0  0  0  0  0
   36.3790   25.7630   33.1680 H   0  0  0  0  0  0  0  0  0  0  0  0
   38.3280   24.7140   34.8010 C   0  0  0  0  0  0  0  0  0  0  0  0
   38.0430   23.7280   33.9010 C   0  0  0  0  0  0  0  0  0  0  0  0
   38.2060   22.4220   34.3230 C   0  0  0  0  0  0  0  0  0  0  0  0
   38.6420   22.1930   35.6160 C   0  0  0  0  0  0  0  0  0  0  0  0
   38.9290   23.1960   36.5240 C   0  0  0  0  0  0  0  0  0  0  0  0
   38.7540   24.4480   36.0610 N   0  0  0  0  0  0  0  0  0  0  0  0
   37.7050   23.9310   32.8960 H   0  0  0  0  0  0  0  0  0  0  0  0
   37.9920   21.6050   33.6430 H   0  0  0  0  0  0  0  0  0  0  0  0
   38.7600   21.1590   35.9190 H   0  0  0  0  0  0  0  0  0  0  0  0
   39.3900   22.9110   37.8740 C   0  0  0  0  0  0  0  0  0  0  0  0
   38.8830   23.5390   38.8340 O   0  0  0  0  0  0  0  0  0  0  0  0
   40.4100   21.9080   37.9510 N   0  0  0  0  0  0  0  0  0  0  0  0
   39.8340   21.0860   38.2510 H   0  0  0  0  0  0  0  0  0  0  0  0
   41.2620   22.4740   37.6670 H   0  0  0  0  0  0  0  0  0  0  0  0
   36.2470   28.0350   31.7420 C   0  0  2  0  0  0  0  0  0  0  0  0
   35.8940   28.5700   33.0850 C   0  0  0  0  0  0  0  0  0  0  0  0
   37.1630   27.7240   32.7880 C   0  0  1  0  0  0  0  0  0  0  0  0
   35.4810   27.2860   31.3920 H   0  0  0  0  0  0  0  0  0  0  0  0
   35.1080   28.1240   33.7000 H   0  0  0  0  0  0  0  0  0  0  0  0
   36.0930   29.6520   33.2160 H   0  0  0  0  0  0  0  0  0  0  0  0
   38.1290   28.2910   32.8590 H   0  0  0  0  0  0  0  0  0  0  0  0
   36.7280   31.1600   29.8110 C   0  0  0  0  0  0  0  0  0  0  0  0
   37.4280   30.6890   28.6440 C   0  0  0  0  0  0  0  0  0  0  0  0
   37.7100   29.2650   28.5610 C   0  0  0  0  0  0  0  0  0  0  0  0
   37.3080   28.4440   29.5750 N   0  0  0  0  0  0  0  0  0  0  0  0
   36.6560   28.9600   30.6380 C   0  0  0  0  0  0  0  0  0  0  0  0
   36.3550   30.3100   30.7790 N   0  0  0  0  0  0  0  0  0  0  0  0
   36.5580   32.2180   29.8000 H   0  0  0  0  0  0  0  0  0  0  0  0
   37.7420   31.3460   27.8470 H   0  0  0  0  0  0  0  0  0  0  0  0
   38.2300   28.9190   27.6940 H   0  0  0  0  0  0  0  0  0  0  0  0
  1  5  1  0  0  0  0
  1  2  2  0  0  0  0
  3  1  1  0  0  0  0
  4  3  1  0  0  0  0
  5 10  1  0  0  0  0
  6  7  1  0  0  0  0
  6  5  2  0  0  0  0
  7  8  2  0  0  0  0
  8 13  1  0  0  0  0
  8  9  1  0  0  0  0
  9 14  1  0  0  0  0
 10  9  2  0  0  0  0
 11  6  1  0  0  0  0
 12  7  1  0  0  0  0
 14 16  1  0  0  0  0
 14 15  2  0  0  0  0
 16 17  1  0  0  0  0
 18 16  1  0  0  0  0
 19 22  1  6  0  0  0
 19 21  1  0  0  0  0
 19 20  1  0  0  0  0
 20 24  1  0  0  0  0
 20 23  1  0  0  0  0
 21 25  1  6  0  0  0
 21 20  1  0  0  0  0
 21  3  1  0  0  0  0
 26 31  1  0  0  0  0
 27 26  2  0  0  0  0
 28 27  1  0  0  0  0
 28 29  2  0  0  0  0
 29 30  1  0  0  0  0
 30 31  2  0  0  0  0
 30 19  1  0  0  0  0
 32 26  1  0  0  0  0
 33 27  1  0  0  0  0
 34 28  1  0  0  0  0
M  END
>  <minimizedAffinity>
-5.2473321

$$$$

 OpenBabel03272508593D

 34 36  0  0  1  0  0  0  0  0999 V2000
   37.7700   25.1410   35.1220 C   0  0  0  0  0  0  0  0  0  0  0  0
   37.2190   26.2490   35.2730 O   0  0  0  0  0  0  0  0  0  0  0  0
   37.8670   24.5410   33.8030 N   0  0  0  0  0  0  0  0  0  0  0  0
   38.1140   23.5490   33.6480 H   0  0  0  0  0  0  0  0  0  0  0  0
   38.3460   24.3880   36.2570 C   0  0  0  0  0  0  0  0  0  0  0  0
   37.8280   24.5720   37.5070 C   0  0  0  0  0  0  0  0  0  0  0  0
   38.3980   23.8520   38.5390 C   0  0  0  0  0  0  0  0  0  0  0  0
   39.4490   22.9980   38.2490 C   0  0  0  0  0  0  0  0  0  0  0  0
   39.9700   22.8160   36.9810 C   0  0  0  0  0  0  0  0  0  0  0  0
   39.3770   23.5410   36.0140 N   0  0  0  0  0  0  0  0  0  0  0  0
   37.0060   25.2440   37.7090 H   0  0  0  0  0  0  0  0  0  0  0  0
   38.0210   23.9640   39.5500 H   0  0  0  0  0  0  0  0  0  0  0  0
   39.8770   22.4470   39.0790 H   0  0  0  0  0  0  0  0  0  0  0  0
   41.0720   21.9030   36.7200 C   0  0  0  0  0  0  0  0  0  0  0  0
   41.5710   21.8680   35.5700 O   0  0  0  0  0  0  0  0  0  0  0  0
   41.4730   21.1210   37.8510 N   0  0  0  0  0  0  0  0  0  0  0  0
   42.3250   21.6550   38.1480 H   0  0  0  0  0  0  0  0  0  0  0  0
   40.7180   20.3750   37.8500 H   0  0  0  0  0  0  0  0  0  0  0  0
   38.4330   26.5130   32.3970 C   0  0  2  0  0  0  0  0  0  0  0  0
   38.7200   25.3000   31.5840 C   0  0  0  0  0  0  0  0  0  0  0  0
   37.6040   25.3860   32.6620 C   0  0  1  0  0  0  0  0  0  0  0  0
   39.3060   26.7680   33.0630 H   0  0  0  0  0  0  0  0  0  0  0  0
   39.5820   24.6570   31.7830 H   0  0  0  0  0  0  0  0  0  0  0  0
   38.3460   25.3450   30.5420 H   0  0  0  0  0  0  0  0  0  0  0  0
   36.5580   25.3640   32.2540 H   0  0  0  0  0  0  0  0  0  0  0  0
   37.8060   29.1800   29.9030 C   0  0  0  0  0  0  0  0  0  0  0  0
   36.7790   29.9580   30.5450 C   0  0  0  0  0  0  0  0  0  0  0  0
   36.3320   29.5240   31.8590 C   0  0  0  0  0  0  0  0  0  0  0  0
   36.8930   28.4160   32.4230 N   0  0  0  0  0  0  0  0  0  0  0  0
   37.8520   27.7370   31.7590 C   0  0  0  0  0  0  0  0  0  0  0  0
   38.3240   28.0980   30.5020 N   0  0  0  0  0  0  0  0  0  0  0  0
   38.0820   29.5610   28.9400 H   0  0  0  0  0  0  0  0  0  0  0  0
   36.3400   30.8340   30.0920 H   0  0  0  0  0  0  0  0  0  0  0  0
   35.5690   30.1040   32.3330 H   0  0  0  0  0  0  0  0  0  0  0  0
  1  2  2  0  0  0  0
  1  5  1  0  0  0  0
  3  1  1  0  0  0  0
  4  3  1  0  0  0  0
  5  6  1  0  0  0  0
  6 11  1  0  0  0  0
  6  7  2  0  0  0  0
  7 12  1  0  0  0  0
  8  7  1  0  0  0  0
  8 13  1  0  0  0  0
  9  8  2  0  0  0  0
 10  5  2  0  0  0  0
 10  9  1  0  0  0  0
 14  9  1  0  0  0  0
 14 16  1  0  0  0  0
 15 14  2  0  0  0  0
 16 17  1  0  0  0  0
 18 16  1  0  0  0  0
 19 21  1  0  0  0  0
 19 22  1  1  0  0  0
 20 23  1  0  0  0  0
 20 19  1  0  0  0  0
 20 21  1  0  0  0  0
 21 25  1  6  0  0  0
 21  3  1  0  0  0  0
 24 20  1  0  0  0  0
 26 31  2  0  0  0  0
 26 27  1  0  0  0  0
 27 28  2  0  0  0  0
 28 34  1  0  0  0  0
 28 29  1  0  0  0  0
 30 19  1  0  0  0  0
 30 29  2  0  0  0  0
 31 30  1  0  0  0  0
 32 26  1  0  0  0  0
 33 27  1  0  0  0  0
M  END
>  <minimizedAffinity>
-5.19978046

$$$$

 OpenBabel03272508593D

 34 36  0  0  1  0  0  0  0  0999 V2000
   35.6320   25.1110   31.1760 C   0  0  0  0  0  0  0  0  0  0  0  0
   34.4770   25.3090   30.7520 O   0  0  0  0  0  0  0  0  0  0  0  0
   36.4640   26.2260   31.5920 N   0  0  0  0  0  0  0  0  0  0  0  0
   37.4840   26.1480   31.7460 H   0  0  0  0  0  0  0  0  0  0  0  0
   36.2120   23.7540   31.2760 C   0  0  0  0  0  0  0  0  0  0  0  0
   37.4550   23.5230   30.7610 C   0  0  0  0  0  0  0  0  0  0  0  0
   37.9570   22.2410   30.8720 C   0  0  0  0  0  0  0  0  0  0  0  0
   37.1790   21.2770   31.4910 C   0  0  0  0  0  0  0  0  0  0  0  0
   35.9210   21.5170   32.0120 C   0  0  0  0  0  0  0  0  0  0  0  0
   35.4810   22.7820   31.8770 N   0  0  0  0  0  0  0  0  0  0  0  0
   38.0440   24.2920   30.2820 H   0  0  0  0  0  0  0  0  0  0  0  0
   38.9400   22.0090   30.4770 H   0  0  0  0  0  0  0  0  0  0  0  0
   37.5980   20.2790   31.5640 H   0  0  0  0  0  0  0  0  0  0  0  0
   35.1390   20.4740   32.6600 C   0  0  0  0  0  0  0  0  0  0  0  0
   34.2890   19.8450   31.9850 O   0  0  0  0  0  0  0  0  0  0  0  0
   35.4420   20.2840   34.0460 N   0  0  0  0  0  0  0  0  0  0  0  0
   36.0490   19.4310   33.9840 H   0  0  0  0  0  0  0  0  0  0  0  0
   34.9100   21.0960   34.4760 H   0  0  0  0  0  0  0  0  0  0  0  0
   36.2360   28.3510   32.8670 C   0  0  2  0  0  0  0  0  0  0  0  0
   36.7650   28.7020   31.5200 C   0  0  0  0  0  0  0  0  0  0  0  0
   35.8200   27.5020   31.8010 C   0  0  1  0  0  0  0  0  0  0  0  0
   37.0710   28.0520   33.5620 H   0  0  0  0  0  0  0  0  0  0  0  0
   37.7960   28.4910   31.2270 H   0  0  0  0  0  0  0  0  0  0  0  0
   36.2650   29.5680   31.0410 H   0  0  0  0  0  0  0  0  0  0  0  0
   34.7850   27.6140   31.3810 H   0  0  0  0  0  0  0  0  0  0  0  0
   34.8270   30.8510   35.2090 C   0  0  0  0  0  0  0  0  0  0  0  0
   33.4480   30.9050   34.7990 C   0  0  0  0  0  0  0  0  0  0  0  0
   33.0420   30.0450   33.6990 C   0  0  0  0  0  0  0  0  0  0  0  0
   33.9670   29.2340   33.1100 N   0  0  0  0  0  0  0  0  0  0  0  0
   35.2420   29.2380   33.5490 C   0  0  0  0  0  0  0  0  0  0  0  0
   35.6960   30.0350   34.5940 N   0  0  0  0  0  0  0  0  0  0  0  0
   35.0500   31.5120   36.0220 H   0  0  0  0  0  0  0  0  0  0  0  0
   32.7230   31.5510   35.2720 H   0  0  0  0  0  0  0  0  0  0  0  0
   32.0170   30.0880   33.3980 H   0  0  0  0  0  0  0  0  0  0  0  0
  1  5  1  0  0  0  0
  1  3  1  0  0  0  0
  2  1  2  0  0  0  0
  3  4  1  0  0  0  0
  3 21  1  0  0  0  0
  5 10  1  0  0  0  0
  6  7  1  0  0  0  0
  6  5  2  0  0  0  0
  7  8  2  0  0  0  0
  8 13  1  0  0  0  0
  8  9  1  0  0  0  0
  9 14  1  0  0  0  0
 10  9  2  0  0  0  0
 11  6  1  0  0  0  0
 12  7  1  0  0  0  0
 14 16  1  0  0  0  0
 15 14  2  0  0  0  0
 16 18  1  0  0  0  0
 17 16  1  0  0  0  0
 19 30  1  0  0  0  0
 19 22  1  1  0  0  0
 20 21  1  0  0  0  0
 20 19  1  0  0  0  0
 21 25  1  6  0  0  0
 21 19  1  0  0  0  0
 23 20  1  0  0  0  0
 24 20  1  0  0  0  0
 26 32  1  0  0  0  0
 27 26  1  0  0  0  0
 27 33  1  0  0  0  0
 28 27  2  0  0  0  0
 29 30  2  0  0  0  0
 29 28  1  0  0  0  0
 30 31  1  0  0  0  0
 31 26  2  0  0  0  0
 34 28  1  0  0  0  0
M  END
>  <minimizedAffinity>
-5.08659744

$$$$

 OpenBabel03272508593D

 34 36  0  0  1  0  0  0  0  0999 V2000
   38.1310   24.2760   34.6420 C   0  0  0  0  0  0  0  0  0  0  0  0
   38.4220   23.4050   33.7980 O   0  0  0  0  0  0  0  0  0  0  0  0
   38.3070   24.0130   36.0600 N   0  0  0  0  0  0  0  0  0  0  0  0
   37.8910   24.6000   36.8020 H   0  0  0  0  0  0  0  0  0  0  0  0
   37.6000   25.6000   34.2560 C   0  0  0  0  0  0  0  0  0  0  0  0
   37.5670   26.6000   35.1860 C   0  0  0  0  0  0  0  0  0  0  0  0
   37.0580   27.8200   34.7840 C   0  0  0  0  0  0  0  0  0  0  0  0
   36.6180   27.9560   33.4780 C   0  0  0  0  0  0  0  0  0  0  0  0
   36.6540   26.9400   32.5410 C   0  0  0  0  0  0  0  0  0  0  0  0
   37.1590   25.7750   32.9850 N   0  0  0  0  0  0  0  0  0  0  0  0
   37.9170   26.4690   36.1990 H   0  0  0  0  0  0  0  0  0  0  0  0
   37.0110   28.6440   35.4880 H   0  0  0  0  0  0  0  0  0  0  0  0
   36.2230   28.9240   33.1910 H   0  0  0  0  0  0  0  0  0  0  0  0
   36.1850   27.1290   31.1760 C   0  0  0  0  0  0  0  0  0  0  0  0
   36.2400   28.2750   30.6680 O   0  0  0  0  0  0  0  0  0  0  0  0
   35.6970   25.9380   30.5490 N   0  0  0  0  0  0  0  0  0  0  0  0
   36.5250   25.6920   29.9560 H   0  0  0  0  0  0  0  0  0  0  0  0
   34.7300   25.8710   30.9830 H   0  0  0  0  0  0  0  0  0  0  0  0
   40.5010   23.0230   36.6860 C   0  0  2  0  0  0  0  0  0  0  0  0
   39.6340   22.9630   37.8940 C   0  0  0  0  0  0  0  0  0  0  0  0
   39.1070   22.8710   36.4360 C   0  0  1  0  0  0  0  0  0  0  0  0
   41.0060   24.0270   36.6000 H   0  0  0  0  0  0  0  0  0  0  0  0
   39.3880   23.8550   38.4770 H   0  0  0  0  0  0  0  0  0  0  0  0
   39.6560   21.9930   38.4290 H   0  0  0  0  0  0  0  0  0  0  0  0
   38.7070   21.8630   36.1470 H   0  0  0  0  0  0  0  0  0  0  0  0
   42.6570   20.7250   34.7370 C   0  0  0  0  0  0  0  0  0  0  0  0
   43.2060   19.8810   35.7660 C   0  0  0  0  0  0  0  0  0  0  0  0
   42.7930   20.1390   37.1360 C   0  0  0  0  0  0  0  0  0  0  0  0
   41.9170   21.1540   37.3890 N   0  0  0  0  0  0  0  0  0  0  0  0
   41.4450   21.9040   36.3710 C   0  0  0  0  0  0  0  0  0  0  0  0
   41.7990   21.7110   35.0400 N   0  0  0  0  0  0  0  0  0  0  0  0
   43.0080   20.4750   33.7560 H   0  0  0  0  0  0  0  0  0  0  0  0
   43.8980   19.0790   35.5560 H   0  0  0  0  0  0  0  0  0  0  0  0
   43.2020   19.5100   37.8970 H   0  0  0  0  0  0  0  0  0  0  0  0
  1  3  1  0  0  0  0
  2  1  2  0  0  0  0
  3 21  1  0  0  0  0
  3  4  1  0  0  0  0
  5  1  1  0  0  0  0
  5  6  1  0  0  0  0
  6 11  1  0  0  0  0
  7  6  2  0  0  0  0
  7 12  1  0  0  0  0
  8  7  1  0  0  0  0
  9 10  1  0  0  0  0
  9  8  2  0  0  0  0
 10  5  2  0  0  0  0
 13  8  1  0  0  0  0
 14  9  1  0  0  0  0
 15 14  2  0  0  0  0
 16 18  1  0  0  0  0
 16 14  1  0  0  0  0
 17 16  1  0  0  0  0
 19 22  1  6  0  0  0
 19 20  1  0  0  0  0
 20 24  1  0  0  0  0
 20 23  1  0  0  0  0
 21 25  1  6  0  0  0
 21 19  1  0  0  0  0
 21 20  1  0  0  0  0
 26 31  2  0  0  0  0
 26 27  1  0  0  0  0
 27 28  2  0  0  0  0
 28 29  1  0  0  0  0
 28 34  1  0  0  0  0
 30 19  1  0  0  0  0
 30 29  2  0  0  0  0
 31 30  1  0  0  0  0
 32 26  1  0  0  0  0
 33 27  1  0  0  0  0
M  END
>  <minimizedAffinity>
-5.07448006

$$$$

 OpenBabel03272508593D

 34 36  0  0  1  0  0  0  0  0999 V2000
   37.2050   26.0610   33.2060 C   0  0  0  0  0  0  0  0  0  0  0  0
   37.7680   25.5470   34.1920 O   0  0  0  0  0  0  0  0  0  0  0  0
   37.0220   25.2990   31.9830 N   0  0  0  0  0  0  0  0  0  0  0  0
   36.7620   25.7290   31.0790 H   0  0  0  0  0  0  0  0  0  0  0  0
   36.7010   27.4510   33.2230 C   0  0  0  0  0  0  0  0  0  0  0  0
   36.3890   28.0290   34.4210 C   0  0  0  0  0  0  0  0  0  0  0  0
   35.9170   29.3280   34.3910 C   0  0  0  0  0  0  0  0  0  0  0  0
   35.7900   29.9580   33.1650 C   0  0  0  0  0  0  0  0  0  0  0  0
   36.1070   29.3680   31.9550 C   0  0  0  0  0  0  0  0  0  0  0  0
   36.5620   28.1040   32.0420 N   0  0  0  0  0  0  0  0  0  0  0  0
   36.4970   27.5170   35.3650 H   0  0  0  0  0  0  0  0  0  0  0  0
   35.6560   29.8290   35.3160 H   0  0  0  0  0  0  0  0  0  0  0  0
   35.4160   30.9760   33.1720 H   0  0  0  0  0  0  0  0  0  0  0  0
   35.9630   30.0690   30.6890 C   0  0  0  0  0  0  0  0  0  0  0  0
   36.7650   29.8130   29.7580 O   0  0  0  0  0  0  0  0  0  0  0  0
   34.8820   31.0070   30.6520 N   0  0  0  0  0  0  0  0  0  0  0  0
   34.1710   30.4450   30.1260 H   0  0  0  0  0  0  0  0  0  0  0  0
   35.3140   31.8240   31.1750 H   0  0  0  0  0  0  0  0  0  0  0  0
   36.3750   22.9970   31.2980 C   0  0  2  0  0  0  0  0  0  0  0  0
   37.7140   23.2690   30.7070 C   0  0  0  0  0  0  0  0  0  0  0  0
   37.2130   23.8690   32.0500 C   0  0  1  0  0  0  0  0  0  0  0  0
   35.5540   23.3970   30.6380 H   0  0  0  0  0  0  0  0  0  0  0  0
   37.8480   23.9440   29.8580 H   0  0  0  0  0  0  0  0  0  0  0  0
   38.4450   22.4450   30.8250 H   0  0  0  0  0  0  0  0  0  0  0  0
   37.7380   23.4760   32.9610 H   0  0  0  0  0  0  0  0  0  0  0  0
   35.6980   19.3550   31.3790 C   0  0  0  0  0  0  0  0  0  0  0  0
   35.4630   19.1230   32.7800 C   0  0  0  0  0  0  0  0  0  0  0  0
   35.5430   20.2690   33.6720 C   0  0  0  0  0  0  0  0  0  0  0  0
   35.8310   21.4980   33.1550 N   0  0  0  0  0  0  0  0  0  0  0  0
   36.0400   21.6370   31.8290 C   0  0  0  0  0  0  0  0  0  0  0  0
   35.9790   20.5850   30.9230 N   0  0  0  0  0  0  0  0  0  0  0  0
   35.6240   18.4650   30.7870 H   0  0  0  0  0  0  0  0  0  0  0  0
   35.2350   18.1460   33.1800 H   0  0  0  0  0  0  0  0  0  0  0  0
   35.3670   20.0920   34.7110 H   0  0  0  0  0  0  0  0  0  0  0  0
  1  5  1  0  0  0  0
  1  2  2  0  0  0  0
  3 21  1  0  0  0  0
  3  1  1  0  0  0  0
  4  3  1  0  0  0  0
  5  6  1  0  0  0  0
  6 11  1  0  0  0  0
  7  6  2  0  0  0  0
  7 12  1  0  0  0  0
  8 13  1  0  0  0  0
  8  7  1  0  0  0  0
  9 10  1  0  0  0  0
  9  8  2  0  0  0  0
 10  5  2  0  0  0  0
 14  9  1  0  0  0  0
 15 14  2  0  0  0  0
 16 14  1  0  0  0  0
 16 18  1  0  0  0  0
 17 16  1  0  0  0  0
 19 22  1  6  0  0  0
 19 30  1  0  0  0  0
 19 21  1  0  0  0  0
 20 24  1  0  0  0  0
 20 19  1  0  0  0  0
 20 21  1  0  0  0  0
 21 25  1  1  0  0  0
 23 20  1  0  0  0  0
 26 27  1  0  0  0  0
 27 33  1  0  0  0  0
 27 28  2  0  0  0  0
 28 34  1  0  0  0  0
 29 28  1  0  0  0  0
 30 29  2  0  0  0  0
 31 26  2  0  0  0  0
 31 30  1  0  0  0  0
 32 26  1  0  0  0  0
M  END
>  <minimizedAffinity>
-5.0336175

$$$$

 OpenBabel03272508593D

 34 36  0  0  1  0  0  0  0  0999 V2000
   36.7790   27.3140   32.8380 C   0  0  0  0  0  0  0  0  0  0  0  0
   36.6030   26.1220   32.5160 O   0  0  0  0  0  0  0  0  0  0  0  0
   37.0670   27.6680   34.2170 N   0  0  0  0  0  0  0  0  0  0  0  0
   37.0100   28.6360   34.5780 H   0  0  0  0  0  0  0  0  0  0  0  0
   36.7050   28.4140   31.8530 C   0  0  0  0  0  0  0  0  0  0  0  0
   36.0090   29.5450   32.1720 C   0  0  0  0  0  0  0  0  0  0  0  0
   35.9610   30.5460   31.2200 C   0  0  0  0  0  0  0  0  0  0  0  0
   36.6130   30.3460   30.0160 C   0  0  0  0  0  0  0  0  0  0  0  0
   37.3170   29.1990   29.6980 C   0  0  0  0  0  0  0  0  0  0  0  0
   37.3310   28.2570   30.6600 N   0  0  0  0  0  0  0  0  0  0  0  0
   35.5080   29.6780   33.1190 H   0  0  0  0  0  0  0  0  0  0  0  0
   35.4200   31.4630   31.4280 H   0  0  0  0  0  0  0  0  0  0  0  0
   36.5580   31.1480   29.2880 H   0  0  0  0  0  0  0  0  0  0  0  0
   37.9920   29.0320   28.4210 C   0  0  0  0  0  0  0  0  0  0  0  0
   38.0140   29.9950   27.6160 O   0  0  0  0  0  0  0  0  0  0  0  0
   38.5750   27.7400   28.2240 N   0  0  0  0  0  0  0  0  0  0  0  0
   39.5790   27.9590   28.4330 H   0  0  0  0  0  0  0  0  0  0  0  0
   37.7150   27.1750   27.9610 H   0  0  0  0  0  0  0  0  0  0  0  0
   38.8150   26.1980   35.2020 C   0  0  2  0  0  0  0  0  0  0  0  0
   38.3450   27.1060   36.2850 C   0  0  0  0  0  0  0  0  0  0  0  0
   37.4520   26.6060   35.1160 C   0  0  1  0  0  0  0  0  0  0  0  0
   39.6150   26.6910   34.5800 H   0  0  0  0  0  0  0  0  0  0  0  0
   38.6150   28.1640   36.3130 H   0  0  0  0  0  0  0  0  0  0  0  0
   38.1460   26.6030   37.2520 H   0  0  0  0  0  0  0  0  0  0  0  0
   36.6440   25.8890   35.4190 H   0  0  0  0  0  0  0  0  0  0  0  0
   38.5370   22.7590   36.5510 C   0  0  0  0  0  0  0  0  0  0  0  0
   39.7250   22.1340   36.0310 C   0  0  0  0  0  0  0  0  0  0  0  0
   40.6090   22.9500   35.2150 C   0  0  0  0  0  0  0  0  0  0  0  0
   40.2840   24.2530   34.9770 N   0  0  0  0  0  0  0  0  0  0  0  0
   39.1520   24.7700   35.4990 C   0  0  0  0  0  0  0  0  0  0  0  0
   38.2640   24.0450   36.2860 N   0  0  0  0  0  0  0  0  0  0  0  0
   37.9360   22.0960   37.1410 H   0  0  0  0  0  0  0  0  0  0  0  0
   39.9740   21.1010   36.2250 H   0  0  0  0  0  0  0  0  0  0  0  0
   41.4900   22.4820   34.8310 H   0  0  0  0  0  0  0  0  0  0  0  0
  1  3  1  0  0  0  0
  2  1  2  0  0  0  0
  3  4  1  0  0  0  0
  3 21  1  0  0  0  0
  5  6  1  0  0  0  0
  5  1  1  0  0  0  0
  6 11  1  0  0  0  0
  7 12  1  0  0  0  0
  7  6  2  0  0  0  0
  8  7  1  0  0  0  0
  9  8  2  0  0  0  0
  9 10  1  0  0  0  0
 10  5  2  0  0  0  0
 13  8  1  0  0  0  0
 14  9  1  0  0  0  0
 15 14  2  0  0  0  0
 16 14  1  0  0  0  0
 16 17  1  0  0  0  0
 18 16  1  0  0  0  0
 19 22  1  6  0  0  0
 19 30  1  0  0  0  0
 19 20  1  0  0  0  0
 20 23  1  0  0  0  0
 20 24  1  0  0  0  0
 21 19  1  0  0  0  0
 21 25  1  1  0  0  0
 21 20  1  0  0  0  0
 26 32  1  0  0  0  0
 27 33  1  0  0  0  0
 27 26  2  0  0  0  0
 28 27  1  0  0  0  0
 29 28  2  0  0  0  0
 29 30  1  0  0  0  0
 30 31  2  0  0  0  0
 31 26  1  0  0  0  0
 34 28  1  0  0  0  0
M  END
>  <minimizedAffinity>
-4.97469997

$$$$

 OpenBabel03272508593D

 34 36  0  0  1  0  0  0  0  0999 V2000
   37.5170   25.7560   33.5210 C   0  0  0  0  0  0  0  0  0  0  0  0
   36.7510   25.1590   32.7390 O   0  0  0  0  0  0  0  0  0  0  0  0
   37.4010   27.1910   33.7130 N   0  0  0  0  0  0  0  0  0  0  0  0
   38.1300   27.7630   34.1730 H   0  0  0  0  0  0  0  0  0  0  0  0
   38.5680   25.0490   34.2850 C   0  0  0  0  0  0  0  0  0  0  0  0
   39.8240   24.9550   33.7560 C   0  0  0  0  0  0  0  0  0  0  0  0
   40.7740   24.2830   34.5000 C   0  0  0  0  0  0  0  0  0  0  0  0
   40.4020   23.7510   35.7230 C   0  0  0  0  0  0  0  0  0  0  0  0
   39.1290   23.8490   36.2540 C   0  0  0  0  0  0  0  0  0  0  0  0
   38.2440   24.5140   35.4880 N   0  0  0  0  0  0  0  0  0  0  0  0
   40.0900   25.3800   32.7990 H   0  0  0  0  0  0  0  0  0  0  0  0
   41.7850   24.1830   34.1210 H   0  0  0  0  0  0  0  0  0  0  0  0
   41.1690   23.2280   36.2850 H   0  0  0  0  0  0  0  0  0  0  0  0
   38.7830   23.2790   37.5470 C   0  0  0  0  0  0  0  0  0  0  0  0
   37.6590   23.5350   38.0420 O   0  0  0  0  0  0  0  0  0  0  0  0
   39.8060   22.4620   38.1260 N   0  0  0  0  0  0  0  0  0  0  0  0
   39.4310   21.5100   37.8950 H   0  0  0  0  0  0  0  0  0  0  0  0
   40.4570   23.2070   38.5120 H   0  0  0  0  0  0  0  0  0  0  0  0
   35.8510   29.1360   33.6990 C   0  0  2  0  0  0  0  0  0  0  0  0
   36.5030   29.0860   32.3610 C   0  0  0  0  0  0  0  0  0  0  0  0
   36.2020   27.8360   33.2330 C   0  0  1  0  0  0  0  0  0  0  0  0
   36.4950   29.6860   34.4420 H   0  0  0  0  0  0  0  0  0  0  0  0
   37.5470   29.3740   32.2130 H   0  0  0  0  0  0  0  0  0  0  0  0
   35.8100   29.2190   31.5070 H   0  0  0  0  0  0  0  0  0  0  0  0
   35.4010   27.1640   32.8240 H   0  0  0  0  0  0  0  0  0  0  0  0
   32.2430   29.4530   32.9180 C   0  0  0  0  0  0  0  0  0  0  0  0
   31.7510   30.1810   34.0580 C   0  0  0  0  0  0  0  0  0  0  0  0
   32.7130   30.5540   35.0820 C   0  0  0  0  0  0  0  0  0  0  0  0
   34.0230   30.2040   34.9260 N   0  0  0  0  0  0  0  0  0  0  0  0
   34.4100   29.5210   33.8290 C   0  0  0  0  0  0  0  0  0  0  0  0
   33.5420   29.1340   32.8140 N   0  0  0  0  0  0  0  0  0  0  0  0
   31.4770   29.2140   32.2080 H   0  0  0  0  0  0  0  0  0  0  0  0
   30.7120   30.4530   34.1720 H   0  0  0  0  0  0  0  0  0  0  0  0
   32.3430   31.0950   35.9270 H   0  0  0  0  0  0  0  0  0  0  0  0
  1  3  1  0  0  0  0
  1  5  1  0  0  0  0
  2  1  2  0  0  0  0
  3  4  1  0  0  0  0
  5 10  1  0  0  0  0
  6  5  2  0  0  0  0
  6  7  1  0  0  0  0
  7  8  2  0  0  0  0
  8  9  1  0  0  0  0
  8 13  1  0  0  0  0
  9 14  1  0  0  0  0
 10  9  2  0  0  0  0
 11  6  1  0  0  0  0
 12  7  1  0  0  0  0
 14 15  2  0  0  0  0
 14 16  1  0  0  0  0
 16 18  1  0  0  0  0
 17 16  1  0  0  0  0
 19 30  1  0  0  0  0
 19 22  1  1  0  0  0
 20 21  1  0  0  0  0
 20 19  1  0  0  0  0
 21 25  1  6  0  0  0
 21 19  1  0  0  0  0
 21  3  1  0  0  0  0
 23 20  1  0  0  0  0
 24 20  1  0  0  0  0
 26 27  1  0  0  0  0
 27 33  1  0  0  0  0
 27 28  2  0  0  0  0
 28 34  1  0  0  0  0
 29 28  1  0  0  0  0
 30 29  2  0  0  0  0
 31 26  2  0  0  0  0
 31 30  1  0  0  0  0
 32 26  1  0  0  0  0
M  END
>  <minimizedAffinity>
-4.9358387

$$$$

 OpenBabel03272508593D

 34 36  0  0  1  0  0  0  0  0999 V2000
   36.8690   27.8640   33.8550 C   0  0  0  0  0  0  0  0  0  0  0  0
   37.6340   27.8660   32.8710 O   0  0  0  0  0  0  0  0  0  0  0  0
   36.9300   26.7900   34.8310 N   0  0  0  0  0  0  0  0  0  0  0  0
   36.1930   26.6210   35.5370 H   0  0  0  0  0  0  0  0  0  0  0  0
   35.8750   28.9350   34.0820 C   0  0  0  0  0  0  0  0  0  0  0  0
   34.6910   28.8960   33.4020 C   0  0  0  0  0  0  0  0  0  0  0  0
   33.7930   29.9190   33.6410 C   0  0  0  0  0  0  0  0  0  0  0  0
   34.1410   30.9090   34.5430 C   0  0  0  0  0  0  0  0  0  0  0  0
   35.3410   30.9430   35.2290 C   0  0  0  0  0  0  0  0  0  0  0  0
   36.1780   29.9240   34.9590 N   0  0  0  0  0  0  0  0  0  0  0  0
   34.4420   28.1120   32.7030 H   0  0  0  0  0  0  0  0  0  0  0  0
   32.8390   29.9310   33.1240 H   0  0  0  0  0  0  0  0  0  0  0  0
   33.4160   31.6990   34.7090 H   0  0  0  0  0  0  0  0  0  0  0  0
   35.6640   32.0010   36.1730 C   0  0  0  0  0  0  0  0  0  0  0  0
   36.5680   32.8210   35.8800 O   0  0  0  0  0  0  0  0  0  0  0  0
   34.8840   31.9810   37.3740 N   0  0  0  0  0  0  0  0  0  0  0  0
   34.1950   32.7400   37.1550 H   0  0  0  0  0  0  0  0  0  0  0  0
   35.3730   31.2080   37.9120 H   0  0  0  0  0  0  0  0  0  0  0  0
   37.9880   24.5830   35.2790 C   0  0  2  0  0  0  0  0  0  0  0  0
   37.9240   24.7460   33.8000 C   0  0  0  0  0  0  0  0  0  0  0  0
   38.0840   25.9220   34.8020 C   0  0  1  0  0  0  0  0  0  0  0  0
   37.0190   24.1730   35.6820 H   0  0  0  0  0  0  0  0  0  0  0  0
   36.9850   24.6620   33.2470 H   0  0  0  0  0  0  0  0  0  0  0  0
   38.8570   24.4760   33.2670 H   0  0  0  0  0  0  0  0  0  0  0  0
   39.0870   26.4250   34.7750 H   0  0  0  0  0  0  0  0  0  0  0  0
   41.4770   23.4720   35.8430 C   0  0  0  0  0  0  0  0  0  0  0  0
   41.3720   22.7730   37.0970 C   0  0  0  0  0  0  0  0  0  0  0  0
   40.0590   22.7030   37.7170 C   0  0  0  0  0  0  0  0  0  0  0  0
   38.9950   23.2920   37.0970 N   0  0  0  0  0  0  0  0  0  0  0  0
   39.1720   23.9300   35.9220 C   0  0  0  0  0  0  0  0  0  0  0  0
   40.3990   24.0340   35.2760 N   0  0  0  0  0  0  0  0  0  0  0  0
   42.4730   23.4820   35.4490 H   0  0  0  0  0  0  0  0  0  0  0  0
   42.2190   22.3100   37.5800 H   0  0  0  0  0  0  0  0  0  0  0  0
   39.9850   22.1830   38.6480 H   0  0  0  0  0  0  0  0  0  0  0  0
  1  5  1  0  0  0  0
  1  3  1  0  0  0  0
  2  1  2  0  0  0  0
  3  4  1  0  0  0  0
  5 10  1  0  0  0  0
  6  7  1  0  0  0  0
  6  5  2  0  0  0  0
  7  8  2  0  0  0  0
  8 13  1  0  0  0  0
  8  9  1  0  0  0  0
  9 14  1  0  0  0  0
 10  9  2  0  0  0  0
 11  6  1  0  0  0  0
 12  7  1  0  0  0  0
 14 16  1  0  0  0  0
 15 14  2  0  0  0  0
 16 18  1  0  0  0  0
 17 16  1  0  0  0  0
 19 22  1  1  0  0  0
 19 30  1  0  0  0  0
 20 21  1  0  0  0  0
 20 19  1  0  0  0  0
 21 25  1  1  0  0  0
 21  3  1  0  0  0  0
 21 19  1  0  0  0  0
 23 20  1  0  0  0  0
 24 20  1  0  0  0  0
 26 27  1  0  0  0  0
 27 33  1  0  0  0  0
 27 28  2  0  0  0  0
 28 34  1  0  0  0  0
 29 28  1  0  0  0  0
 30 29  2  0  0  0  0
 31 26  2  0  0  0  0
 31 30  1  0  0  0  0
 32 26  1  0  0  0  0
M  END
>  <minimizedAffinity>
-4.92361212

$$$$

 OpenBabel03272508593D

 34 36  0  0  1  0  0  0  0  0999 V2000
   36.3290   28.1990   33.9700 C   0  0  0  0  0  0  0  0  0  0  0  0
   37.0440   27.7710   34.8980 O   0  0  0  0  0  0  0  0  0  0  0  0
   36.3300   27.5390   32.6760 N   0  0  0  0  0  0  0  0  0  0  0  0
   35.9330   27.9640   31.8220 H   0  0  0  0  0  0  0  0  0  0  0  0
   35.4550   29.3810   34.1310 C   0  0  0  0  0  0  0  0  0  0  0  0
   34.3360   29.4910   33.3560 C   0  0  0  0  0  0  0  0  0  0  0  0
   33.5510   30.6130   33.5360 C   0  0  0  0  0  0  0  0  0  0  0  0
   33.9410   31.5500   34.4780 C   0  0  0  0  0  0  0  0  0  0  0  0
   35.0750   31.4340   35.2600 C   0  0  0  0  0  0  0  0  0  0  0  0
   35.8020   30.3220   35.0450 N   0  0  0  0  0  0  0  0  0  0  0  0
   34.0530   28.7460   32.6270 H   0  0  0  0  0  0  0  0  0  0  0  0
   32.6530   30.7440   32.9430 H   0  0  0  0  0  0  0  0  0  0  0  0
   33.3060   32.4210   34.5960 H   0  0  0  0  0  0  0  0  0  0  0  0
   35.4450   32.4410   36.2430 C   0  0  0  0  0  0  0  0  0  0  0  0
   36.2300   33.3590   35.9060 O   0  0  0  0  0  0  0  0  0  0  0  0
   34.8470   32.2570   37.5310 N   0  0  0  0  0  0  0  0  0  0  0  0
   34.0760   32.9650   37.4770 H   0  0  0  0  0  0  0  0  0  0  0  0
   35.4670   31.4910   37.9270 H   0  0  0  0  0  0  0  0  0  0  0  0
   36.5110   25.3160   31.5750 C   0  0  2  0  0  0  0  0  0  0  0  0
   37.7920   26.0340   31.3250 C   0  0  0  0  0  0  0  0  0  0  0  0
   36.9180   26.2230   32.5960 C   0  0  1  0  0  0  0  0  0  0  0  0
   35.7320   25.6030   30.8130 H   0  0  0  0  0  0  0  0  0  0  0  0
   37.8630   26.8650   30.6190 H   0  0  0  0  0  0  0  0  0  0  0  0
   38.7010   25.4220   31.4890 H   0  0  0  0  0  0  0  0  0  0  0  0
   37.3730   25.8190   33.5400 H   0  0  0  0  0  0  0  0  0  0  0  0
   37.3400   22.0460   33.1060 C   0  0  0  0  0  0  0  0  0  0  0  0
   36.4860   21.1460   32.3770 C   0  0  0  0  0  0  0  0  0  0  0  0
   35.6340   21.7180   31.3470 C   0  0  0  0  0  0  0  0  0  0  0  0
   35.6760   23.0620   31.1150 N   0  0  0  0  0  0  0  0  0  0  0  0
   36.5040   23.8430   31.8410 C   0  0  0  0  0  0  0  0  0  0  0  0
   37.3430   23.3610   32.8390 N   0  0  0  0  0  0  0  0  0  0  0  0
   37.9370   21.5520   33.8470 H   0  0  0  0  0  0  0  0  0  0  0  0
   36.4590   20.0830   32.5670 H   0  0  0  0  0  0  0  0  0  0  0  0
   35.0010   21.0460   30.8080 H   0  0  0  0  0  0  0  0  0  0  0  0
  1  5  1  0  0  0  0
  1  2  2  0  0  0  0
  3  1  1  0  0  0  0
  4  3  1  0  0  0  0
  5 10  1  0  0  0  0
  6  7  1  0  0  0  0
  6  5  2  0  0  0  0
  7  8  2  0  0  0  0
  8 13  1  0  0  0  0
  8  9  1  0  0  0  0
  9 14  1  0  0  0  0
 10  9  2  0  0  0  0
 11  6  1  0  0  0  0
 12  7  1  0  0  0  0
 14 16  1  0  0  0  0
 15 14  2  0  0  0  0
 16 18  1  0  0  0  0
 17 16  1  0  0  0  0
 19 22  1  6  0  0  0
 19 30  1  0  0  0  0
 19 21  1  0  0  0  0
 20 24  1  0  0  0  0
 20 19  1  0  0  0  0
 20 21  1  0  0  0  0
 21  3  1  0  0  0  0
 21 25  1  1  0  0  0
 23 20  1  0  0  0  0
 26 32  1  0  0  0  0
 27 33  1  0  0  0  0
 27 26  2  0  0  0  0
 28 27  1  0  0  0  0
 29 28  2  0  0  0  0
 29 30  1  0  0  0  0
 30 31  2  0  0  0  0
 31 26  1  0  0  0  0
 34 28  1  0  0  0  0
M  END
>  <minimizedAffinity>
-4.89937687

$$$$
