
 OpenBabel03272509323D

 32 33  0  0  1  0  0  0  0  0999 V2000
   36.8430   27.8490   32.1480 C   0  0  2  0  0  0  0  0  0  0  0  0
   36.4190   28.2900   33.5170 C   0  0  0  0  0  0  0  0  0  0  0  0
   35.2780   29.2860   33.4880 C   0  0  0  0  0  0  0  0  0  0  0  0
   35.6640   30.5070   32.6530 C   0  0  0  0  0  0  0  0  0  0  0  0
   36.4750   30.1730   31.4260 C   0  0  0  0  0  0  0  0  0  0  0  0
   36.2480   28.6930   31.0750 C   0  0  1  0  0  0  0  0  0  0  0  0
   37.9580   27.8880   31.9870 H   0  0  0  0  0  0  0  0  0  0  0  0
   37.2980   28.9110   33.8990 H   0  0  0  0  0  0  0  0  0  0  0  0
   36.2780   27.5310   34.2630 H   0  0  0  0  0  0  0  0  0  0  0  0
   35.1050   29.6180   34.5110 H   0  0  0  0  0  0  0  0  0  0  0  0
   34.3800   28.8560   32.9990 H   0  0  0  0  0  0  0  0  0  0  0  0
   34.7070   31.0080   32.3890 H   0  0  0  0  0  0  0  0  0  0  0  0
   36.2220   31.2380   33.2730 H   0  0  0  0  0  0  0  0  0  0  0  0
   36.1460   30.7470   30.5380 H   0  0  0  0  0  0  0  0  0  0  0  0
   37.5490   30.3020   31.6460 H   0  0  0  0  0  0  0  0  0  0  0  0
   35.1880   28.6530   31.0810 H   0  0  0  0  0  0  0  0  0  0  0  0
   36.4730   26.4290   31.9070 C   0  0  0  0  0  0  0  0  0  0  0  0
   37.3340   25.4730   32.4670 C   0  0  0  0  0  0  0  0  0  0  0  0
   37.0020   24.1310   32.2530 C   0  0  0  0  0  0  0  0  0  0  0  0
   35.8740   23.8320   31.5200 N   0  0  0  0  0  0  0  0  0  0  0  0
   35.0660   24.8080   30.9940 C   0  0  0  0  0  0  0  0  0  0  0  0
   35.3830   26.1000   31.1980 N   0  0  0  0  0  0  0  0  0  0  0  0
   38.2230   25.5710   33.0560 H   0  0  0  0  0  0  0  0  0  0  0  0
   37.5530   23.2940   32.6110 H   0  0  0  0  0  0  0  0  0  0  0  0
   34.1930   24.5060   30.4270 H   0  0  0  0  0  0  0  0  0  0  0  0
   37.8620   28.5100   29.1330 C   0  0  0  0  0  0  0  0  0  0  0  0
   38.9630   28.9510   29.5570 O   0  0  0  0  0  0  0  0  0  0  0  0
   36.6000   28.3310   29.7510 N   0  0  0  0  0  0  0  0  0  0  0  0
   35.9620   27.8700   29.0290 H   0  0  0  0  0  0  0  0  0  0  0  0
   38.2290   28.2150   27.7870 N   0  0  0  0  0  0  0  0  0  0  0  0
   38.2820   28.9710   27.0680 H   0  0  0  0  0  0  0  0  0  0  0  0
   38.4600   27.2540   27.4540 H   0  0  0  0  0  0  0  0  0  0  0  0
  1  7  1  6  0  0  0
  1  2  1  0  0  0  0
  2  8  1  0  0  0  0
  2  9  1  0  0  0  0
  3  2  1  0  0  0  0
  3 10  1  0  0  0  0
  4 13  1  0  0  0  0
  4  3  1  0  0  0  0
  5 15  1  0  0  0  0
  5  4  1  0  0  0  0
  6 16  1  1  0  0  0
  6  5  1  0  0  0  0
  6  1  1  0  0  0  0
 11  3  1  0  0  0  0
 12  4  1  0  0  0  0
 14  5  1  0  0  0  0
 17  1  1  0  0  0  0
 17 18  1  0  0  0  0
 18 23  1  0  0  0  0
 19 18  2  0  0  0  0
 19 24  1  0  0  0  0
 20 19  1  0  0  0  0
 21 22  1  0  0  0  0
 21 20  2  0  0  0  0
 22 17  2  0  0  0  0
 25 21  1  0  0  0  0
 26 27  2  0  0  0  0
 26 28  1  0  0  0  0
 28  6  1  0  0  0  0
 29 28  1  0  0  0  0
 30 26  1  0  0  0  0
 31 30  1  0  0  0  0
 32 30  1  0  0  0  0
M  END
>  <minimizedAffinity>
-4.5990448

$$$$

 OpenBabel03272509323D

 32 33  0  0  1  0  0  0  0  0999 V2000
   39.9040   24.2700   34.9350 C   0  0  2  0  0  0  0  0  0  0  0  0
   40.4830   25.4450   34.2060 C   0  0  0  0  0  0  0  0  0  0  0  0
   40.1970   26.7640   34.8930 C   0  0  0  0  0  0  0  0  0  0  0  0
   38.6900   26.9570   35.0590 C   0  0  0  0  0  0  0  0  0  0  0  0
   37.9490   25.6900   35.4050 C   0  0  0  0  0  0  0  0  0  0  0  0
   38.9480   24.6830   36.0000 C   0  0  1  0  0  0  0  0  0  0  0  0
   39.3330   23.5620   34.2680 H   0  0  0  0  0  0  0  0  0  0  0  0
   39.8700   25.5130   33.2450 H   0  0  0  0  0  0  0  0  0  0  0  0
   41.5020   25.3710   33.8740 H   0  0  0  0  0  0  0  0  0  0  0  0
   40.5710   27.5590   34.2480 H   0  0  0  0  0  0  0  0  0  0  0  0
   40.6210   26.7840   35.9180 H   0  0  0  0  0  0  0  0  0  0  0  0
   38.5690   27.7320   35.8480 H   0  0  0  0  0  0  0  0  0  0  0  0
   38.2540   27.3980   34.1390 H   0  0  0  0  0  0  0  0  0  0  0  0
   37.1840   25.8530   36.1880 H   0  0  0  0  0  0  0  0  0  0  0  0
   37.5330   25.2430   34.4860 H   0  0  0  0  0  0  0  0  0  0  0  0
   39.4140   25.2860   36.7380 H   0  0  0  0  0  0  0  0  0  0  0  0
   40.9750   23.4380   35.5440 C   0  0  0  0  0  0  0  0  0  0  0  0
   42.2260   24.0610   35.6770 C   0  0  0  0  0  0  0  0  0  0  0  0
   43.2480   23.2950   36.2490 C   0  0  0  0  0  0  0  0  0  0  0  0
   42.9730   22.0030   36.6410 N   0  0  0  0  0  0  0  0  0  0  0  0
   41.7300   21.4440   36.4880 C   0  0  0  0  0  0  0  0  0  0  0  0
   40.7450   22.1770   35.9370 N   0  0  0  0  0  0  0  0  0  0  0  0
   42.5640   25.0460   35.4250 H   0  0  0  0  0  0  0  0  0  0  0  0
   44.2460   23.6240   36.4160 H   0  0  0  0  0  0  0  0  0  0  0  0
   41.5790   20.4220   36.8170 H   0  0  0  0  0  0  0  0  0  0  0  0
   38.0130   23.6410   38.1090 C   0  0  0  0  0  0  0  0  0  0  0  0
   38.0620   24.5410   38.9880 O   0  0  0  0  0  0  0  0  0  0  0  0
   38.3630   23.6240   36.7360 N   0  0  0  0  0  0  0  0  0  0  0  0
   38.1010   22.6590   36.3600 H   0  0  0  0  0  0  0  0  0  0  0  0
   37.4830   22.5740   38.8930 N   0  0  0  0  0  0  0  0  0  0  0  0
   38.0980   22.0170   39.5270 H   0  0  0  0  0  0  0  0  0  0  0  0
   36.4780   22.2970   38.8760 H   0  0  0  0  0  0  0  0  0  0  0  0
  1  7  1  6  0  0  0
  1 17  1  0  0  0  0
  1  6  1  0  0  0  0
  2  3  1  0  0  0  0
  2  1  1  0  0  0  0
  3  4  1  0  0  0  0
  3 11  1  0  0  0  0
  4  5  1  0  0  0  0
  4 12  1  0  0  0  0
  5  6  1  0  0  0  0
  5 14  1  0  0  0  0
  6 28  1  0  0  0  0
  6 16  1  1  0  0  0
  8  2  1  0  0  0  0
  9  2  1  0  0  0  0
 10  3  1  0  0  0  0
 13  4  1  0  0  0  0
 15  5  1  0  0  0  0
 17 18  2  0  0  0  0
 17 22  1  0  0  0  0
 18 19  1  0  0  0  0
 19 24  1  0  0  0  0
 19 20  2  0  0  0  0
 21 20  1  0  0  0  0
 21 25  1  0  0  0  0
 22 21  2  0  0  0  0
 23 18  1  0  0  0  0
 26 30  1  0  0  0  0
 26 27  2  0  0  0  0
 28 26  1  0  0  0  0
 29 28  1  0  0  0  0
 30 31  1  0  0  0  0
 32 30  1  0  0  0  0
M  END
>  <minimizedAffinity>
-4.5840168

$$$$

 OpenBabel03272509323D

 32 33  0  0  1  0  0  0  0  0999 V2000
   38.8450   25.8090   34.7530 C   0  0  2  0  0  0  0  0  0  0  0  0
   38.5560   27.1850   35.2750 C   0  0  0  0  0  0  0  0  0  0  0  0
   37.1790   27.6830   34.8930 C   0  0  0  0  0  0  0  0  0  0  0  0
   37.0140   27.6680   33.3740 C   0  0  0  0  0  0  0  0  0  0  0  0
   37.6560   26.4790   32.7040 C   0  0  0  0  0  0  0  0  0  0  0  0
   37.8380   25.3650   33.7490 C   0  0  1  0  0  0  0  0  0  0  0  0
   39.8460   25.7210   34.2420 H   0  0  0  0  0  0  0  0  0  0  0  0
   39.2540   27.8650   34.6820 H   0  0  0  0  0  0  0  0  0  0  0  0
   38.7910   27.3850   36.3040 H   0  0  0  0  0  0  0  0  0  0  0  0
   37.0970   28.7160   35.2320 H   0  0  0  0  0  0  0  0  0  0  0  0
   36.3850   27.0180   35.2910 H   0  0  0  0  0  0  0  0  0  0  0  0
   35.9180   27.7030   33.1870 H   0  0  0  0  0  0  0  0  0  0  0  0
   37.4200   28.6020   32.9320 H   0  0  0  0  0  0  0  0  0  0  0  0
   37.0140   26.0480   31.9130 H   0  0  0  0  0  0  0  0  0  0  0  0
   38.6590   26.7590   32.3380 H   0  0  0  0  0  0  0  0  0  0  0  0
   36.8600   25.3250   34.1600 H   0  0  0  0  0  0  0  0  0  0  0  0
   38.8930   24.8170   35.8590 C   0  0  0  0  0  0  0  0  0  0  0  0
   38.0050   25.0470   36.9210 C   0  0  0  0  0  0  0  0  0  0  0  0
   38.0340   24.1230   37.9710 C   0  0  0  0  0  0  0  0  0  0  0  0
   38.9130   23.0640   37.9040 N   0  0  0  0  0  0  0  0  0  0  0  0
   39.7610   22.8880   36.8400 C   0  0  0  0  0  0  0  0  0  0  0  0
   39.7360   23.7740   35.8280 N   0  0  0  0  0  0  0  0  0  0  0  0
   37.2760   25.8130   37.0890 H   0  0  0  0  0  0  0  0  0  0  0  0
   37.4250   24.1600   38.8430 H   0  0  0  0  0  0  0  0  0  0  0  0
   40.4280   22.0340   36.8480 H   0  0  0  0  0  0  0  0  0  0  0  0
   37.1380   23.3350   32.4090 C   0  0  0  0  0  0  0  0  0  0  0  0
   36.0080   23.6140   31.9270 O   0  0  0  0  0  0  0  0  0  0  0  0
   38.0420   24.0700   33.2130 N   0  0  0  0  0  0  0  0  0  0  0  0
   38.9110   23.4620   33.3400 H   0  0  0  0  0  0  0  0  0  0  0  0
   37.2870   22.0080   31.9080 N   0  0  0  0  0  0  0  0  0  0  0  0
   36.8130   21.2030   32.3730 H   0  0  0  0  0  0  0  0  0  0  0  0
   37.8630   21.7750   31.0700 H   0  0  0  0  0  0  0  0  0  0  0  0
  1  7  1  6  0  0  0
  1  2  1  0  0  0  0
  1 17  1  0  0  0  0
  2  9  1  0  0  0  0
  3 10  1  0  0  0  0
  3  2  1  0  0  0  0
  3 11  1  0  0  0  0
  4  3  1  0  0  0  0
  5  4  1  0  0  0  0
  5  6  1  0  0  0  0
  6 16  1  1  0  0  0
  6  1  1  0  0  0  0
  8  2  1  0  0  0  0
 12  4  1  0  0  0  0
 13  4  1  0  0  0  0
 14  5  1  0  0  0  0
 15  5  1  0  0  0  0
 17 18  1  0  0  0  0
 18 23  1  0  0  0  0
 18 19  2  0  0  0  0
 19 24  1  0  0  0  0
 20 19  1  0  0  0  0
 21 25  1  0  0  0  0
 21 20  2  0  0  0  0
 22 17  2  0  0  0  0
 22 21  1  0  0  0  0
 26 28  1  0  0  0  0
 27 26  2  0  0  0  0
 28 29  1  0  0  0  0
 28  6  1  0  0  0  0
 30 31  1  0  0  0  0
 30 26  1  0  0  0  0
 32 30  1  0  0  0  0
M  END
>  <minimizedAffinity>
-4.55012894

$$$$

 OpenBabel03272509323D

 32 33  0  0  1  0  0  0  0  0999 V2000
   38.1320   24.6320   34.4610 C   0  0  2  0  0  0  0  0  0  0  0  0
   38.5030   25.8240   33.6310 C   0  0  0  0  0  0  0  0  0  0  0  0
   39.4710   26.7530   34.3340 C   0  0  0  0  0  0  0  0  0  0  0  0
   38.8830   27.2190   35.6650 C   0  0  0  0  0  0  0  0  0  0  0  0
   38.1150   26.1490   36.4000 C   0  0  0  0  0  0  0  0  0  0  0  0
   38.5680   24.7740   35.8780 C   0  0  1  0  0  0  0  0  0  0  0  0
   37.0220   24.4360   34.5000 H   0  0  0  0  0  0  0  0  0  0  0  0
   37.5430   26.4400   33.5760 H   0  0  0  0  0  0  0  0  0  0  0  0
   38.7740   25.6520   32.6070 H   0  0  0  0  0  0  0  0  0  0  0  0
   39.6050   27.6290   33.6990 H   0  0  0  0  0  0  0  0  0  0  0  0
   40.4170   26.2330   34.5850 H   0  0  0  0  0  0  0  0  0  0  0  0
   39.7440   27.5910   36.2630 H   0  0  0  0  0  0  0  0  0  0  0  0
   38.2270   28.1000   35.5100 H   0  0  0  0  0  0  0  0  0  0  0  0
   38.3350   26.1460   37.4850 H   0  0  0  0  0  0  0  0  0  0  0  0
   37.0390   26.2500   36.1810 H   0  0  0  0  0  0  0  0  0  0  0  0
   39.6220   24.8740   35.9600 H   0  0  0  0  0  0  0  0  0  0  0  0
   38.7180   23.3870   33.8990 C   0  0  0  0  0  0  0  0  0  0  0  0
   37.8650   22.6300   33.0800 C   0  0  0  0  0  0  0  0  0  0  0  0
   38.3980   21.4550   32.5390 C   0  0  0  0  0  0  0  0  0  0  0  0
   39.7010   21.1160   32.8340 N   0  0  0  0  0  0  0  0  0  0  0  0
   40.4910   21.8940   33.6420 C   0  0  0  0  0  0  0  0  0  0  0  0
   39.9810   23.0240   34.1640 N   0  0  0  0  0  0  0  0  0  0  0  0
   36.8520   22.7830   32.7690 H   0  0  0  0  0  0  0  0  0  0  0  0
   37.8800   20.7770   31.9030 H   0  0  0  0  0  0  0  0  0  0  0  0
   41.5080   21.5720   33.8350 H   0  0  0  0  0  0  0  0  0  0  0  0
   38.1580   23.7060   38.1360 C   0  0  0  0  0  0  0  0  0  0  0  0
   38.2540   24.6370   38.9800 O   0  0  0  0  0  0  0  0  0  0  0  0
   38.2560   23.6810   36.7240 N   0  0  0  0  0  0  0  0  0  0  0  0
   38.0500   22.6800   36.4150 H   0  0  0  0  0  0  0  0  0  0  0  0
   37.9100   22.6130   39.0180 N   0  0  0  0  0  0  0  0  0  0  0  0
   38.6910   22.1550   39.5380 H   0  0  0  0  0  0  0  0  0  0  0  0
   36.9580   22.2210   39.1890 H   0  0  0  0  0  0  0  0  0  0  0  0
  1  7  1  6  0  0  0
  1  6  1  0  0  0  0
  2  3  1  0  0  0  0
  2  1  1  0  0  0  0
  3 11  1  0  0  0  0
  3  4  1  0  0  0  0
  4 12  1  0  0  0  0
  4  5  1  0  0  0  0
  5 14  1  0  0  0  0
  6 16  1  6  0  0  0
  6  5  1  0  0  0  0
  6 28  1  0  0  0  0
  8  2  1  0  0  0  0
  9  2  1  0  0  0  0
 10  3  1  0  0  0  0
 13  4  1  0  0  0  0
 15  5  1  0  0  0  0
 17 22  1  0  0  0  0
 17  1  1  0  0  0  0
 18 17  2  0  0  0  0
 19 20  2  0  0  0  0
 19 18  1  0  0  0  0
 20 21  1  0  0  0  0
 21 25  1  0  0  0  0
 21 22  2  0  0  0  0
 23 18  1  0  0  0  0
 24 19  1  0  0  0  0
 26 27  2  0  0  0  0
 26 30  1  0  0  0  0
 28 26  1  0  0  0  0
 29 28  1  0  0  0  0
 30 32  1  0  0  0  0
 30 31  1  0  0  0  0
M  END
>  <minimizedAffinity>
-4.48522854

$$$$

 OpenBabel03272509323D

 32 33  0  0  1  0  0  0  0  0999 V2000
   38.0320   26.5270   33.2410 C   0  0  2  0  0  0  0  0  0  0  0  0
   39.0000   27.1730   32.2940 C   0  0  0  0  0  0  0  0  0  0  0  0
   40.4360   26.7730   32.5570 C   0  0  0  0  0  0  0  0  0  0  0  0
   40.8240   27.1130   33.9960 C   0  0  0  0  0  0  0  0  0  0  0  0
   39.7220   26.8680   34.9970 C   0  0  0  0  0  0  0  0  0  0  0  0
   38.7190   25.8730   34.3890 C   0  0  1  0  0  0  0  0  0  0  0  0
   37.2940   27.2500   33.6950 H   0  0  0  0  0  0  0  0  0  0  0  0
   38.9790   28.2780   32.5790 H   0  0  0  0  0  0  0  0  0  0  0  0
   38.7570   27.1570   31.2490 H   0  0  0  0  0  0  0  0  0  0  0  0
   41.0680   27.3590   31.8900 H   0  0  0  0  0  0  0  0  0  0  0  0
   40.5750   25.6780   32.4560 H   0  0  0  0  0  0  0  0  0  0  0  0
   41.7260   26.5010   34.2200 H   0  0  0  0  0  0  0  0  0  0  0  0
   41.1560   28.1690   34.0680 H   0  0  0  0  0  0  0  0  0  0  0  0
   40.0970   26.3900   35.9230 H   0  0  0  0  0  0  0  0  0  0  0  0
   39.1820   27.8100   35.1900 H   0  0  0  0  0  0  0  0  0  0  0  0
   39.3770   25.1040   34.0710 H   0  0  0  0  0  0  0  0  0  0  0  0
   37.1940   25.5170   32.5410 C   0  0  0  0  0  0  0  0  0  0  0  0
   36.1340   26.0310   31.7770 C   0  0  0  0  0  0  0  0  0  0  0  0
   35.3350   25.0970   31.1100 C   0  0  0  0  0  0  0  0  0  0  0  0
   35.6280   23.7570   31.2370 N   0  0  0  0  0  0  0  0  0  0  0  0
   36.6770   23.3090   31.9990 C   0  0  0  0  0  0  0  0  0  0  0  0
   37.4480   24.2050   32.6430 N   0  0  0  0  0  0  0  0  0  0  0  0
   35.8100   27.0340   31.5910 H   0  0  0  0  0  0  0  0  0  0  0  0
   34.4980   25.3290   30.4950 H   0  0  0  0  0  0  0  0  0  0  0  0
   36.8550   22.2420   32.0580 H   0  0  0  0  0  0  0  0  0  0  0  0
   38.2280   24.2150   36.2380 C   0  0  0  0  0  0  0  0  0  0  0  0
   39.3270   23.6600   36.5040 O   0  0  0  0  0  0  0  0  0  0  0  0
   37.8670   25.2360   35.3250 N   0  0  0  0  0  0  0  0  0  0  0  0
   36.8290   25.4360   35.4760 H   0  0  0  0  0  0  0  0  0  0  0  0
   37.3830   23.5110   37.1450 N   0  0  0  0  0  0  0  0  0  0  0  0
   37.0330   22.5530   36.9200 H   0  0  0  0  0  0  0  0  0  0  0  0
   37.0750   23.9030   38.0620 H   0  0  0  0  0  0  0  0  0  0  0  0
  1  7  1  1  0  0  0
  1  6  1  0  0  0  0
  2  3  1  0  0  0  0
  2  8  1  0  0  0  0
  2  1  1  0  0  0  0
  3  4  1  0  0  0  0
  4 13  1  0  0  0  0
  4 12  1  0  0  0  0
  4  5  1  0  0  0  0
  5 15  1  0  0  0  0
  5 14  1  0  0  0  0
  6 16  1  6  0  0  0
  6  5  1  0  0  0  0
  6 28  1  0  0  0  0
  9  2  1  0  0  0  0
 10  3  1  0  0  0  0
 11  3  1  0  0  0  0
 17 22  1  0  0  0  0
 17  1  1  0  0  0  0
 18 17  2  0  0  0  0
 19 20  2  0  0  0  0
 19 18  1  0  0  0  0
 20 21  1  0  0  0  0
 21 25  1  0  0  0  0
 21 22  2  0  0  0  0
 23 18  1  0  0  0  0
 24 19  1  0  0  0  0
 26 27  2  0  0  0  0
 26 30  1  0  0  0  0
 28 29  1  0  0  0  0
 28 26  1  0  0  0  0
 30 32  1  0  0  0  0
 31 30  1  0  0  0  0
M  END
>  <minimizedAffinity>
-4.44549179

$$$$

 OpenBabel03272509323D

 32 33  0  0  1  0  0  0  0  0999 V2000
   36.3680   21.6000   33.4850 C   0  0  2  0  0  0  0  0  0  0  0  0
   35.7180   20.4060   34.1170 C   0  0  0  0  0  0  0  0  0  0  0  0
   35.5360   19.2540   33.1510 C   0  0  0  0  0  0  0  0  0  0  0  0
   34.7160   19.7040   31.9420 C   0  0  0  0  0  0  0  0  0  0  0  0
   35.0330   21.1040   31.4780 C   0  0  0  0  0  0  0  0  0  0  0  0
   36.4270   21.4900   32.0010 C   0  0  1  0  0  0  0  0  0  0  0  0
   35.8360   22.5710   33.7000 H   0  0  0  0  0  0  0  0  0  0  0  0
   34.6470   20.7440   34.3260 H   0  0  0  0  0  0  0  0  0  0  0  0
   36.0910   20.0830   35.0710 H   0  0  0  0  0  0  0  0  0  0  0  0
   34.9750   18.4770   33.6690 H   0  0  0  0  0  0  0  0  0  0  0  0
   36.5090   18.9100   32.7470 H   0  0  0  0  0  0  0  0  0  0  0  0
   34.9120   18.9520   31.1460 H   0  0  0  0  0  0  0  0  0  0  0  0
   33.6300   19.6270   32.1610 H   0  0  0  0  0  0  0  0  0  0  0  0
   35.0950   21.1750   30.3750 H   0  0  0  0  0  0  0  0  0  0  0  0
   34.3060   21.8110   31.9130 H   0  0  0  0  0  0  0  0  0  0  0  0
   36.9910   20.6480   31.6890 H   0  0  0  0  0  0  0  0  0  0  0  0
   37.7460   21.7970   34.0090 C   0  0  0  0  0  0  0  0  0  0  0  0
   37.8330   22.3280   35.3060 C   0  0  0  0  0  0  0  0  0  0  0  0
   39.1200   22.5200   35.8180 C   0  0  0  0  0  0  0  0  0  0  0  0
   40.2050   22.1840   35.0380 N   0  0  0  0  0  0  0  0  0  0  0  0
   40.0620   21.6680   33.7750 C   0  0  0  0  0  0  0  0  0  0  0  0
   38.8250   21.4820   33.2790 N   0  0  0  0  0  0  0  0  0  0  0  0
   37.0800   22.6180   36.0110 H   0  0  0  0  0  0  0  0  0  0  0  0
   39.3490   22.9120   36.7800 H   0  0  0  0  0  0  0  0  0  0  0  0
   40.9560   21.4230   33.2130 H   0  0  0  0  0  0  0  0  0  0  0  0
   36.4950   23.8810   31.1730 C   0  0  0  0  0  0  0  0  0  0  0  0
   35.4340   24.4190   31.5870 O   0  0  0  0  0  0  0  0  0  0  0  0
   37.0350   22.5820   31.3340 N   0  0  0  0  0  0  0  0  0  0  0  0
   37.9900   22.5800   30.8560 H   0  0  0  0  0  0  0  0  0  0  0  0
   37.0520   24.9800   30.4540 N   0  0  0  0  0  0  0  0  0  0  0  0
   36.7160   25.2190   29.4940 H   0  0  0  0  0  0  0  0  0  0  0  0
   37.8060   25.5910   30.8370 H   0  0  0  0  0  0  0  0  0  0  0  0
  1  7  1  1  0  0  0
  1 17  1  0  0  0  0
  1  2  1  0  0  0  0
  2  8  1  0  0  0  0
  2  9  1  0  0  0  0
  3 10  1  0  0  0  0
  3  2  1  0  0  0  0
  4 13  1  0  0  0  0
  4  3  1  0  0  0  0
  5 15  1  0  0  0  0
  5  4  1  0  0  0  0
  5  6  1  0  0  0  0
  6 16  1  6  0  0  0
  6  1  1  0  0  0  0
 11  3  1  0  0  0  0
 12  4  1  0  0  0  0
 14  5  1  0  0  0  0
 17 18  1  0  0  0  0
 18 19  2  0  0  0  0
 18 23  1  0  0  0  0
 19 24  1  0  0  0  0
 20 19  1  0  0  0  0
 21 20  2  0  0  0  0
 22 21  1  0  0  0  0
 22 17  2  0  0  0  0
 25 21  1  0  0  0  0
 26 28  1  0  0  0  0
 26 27  2  0  0  0  0
 28  6  1  0  0  0  0
 29 28  1  0  0  0  0
 30 32  1  0  0  0  0
 30 26  1  0  0  0  0
 31 30  1  0  0  0  0
M  END
>  <minimizedAffinity>
-4.44344616

$$$$

 OpenBabel03272509323D

 32 33  0  0  1  0  0  0  0  0999 V2000
   38.6390   24.0850   33.9150 C   0  0  2  0  0  0  0  0  0  0  0  0
   38.2520   24.0230   32.4680 C   0  0  0  0  0  0  0  0  0  0  0  0
   37.0510   23.1360   32.2170 C   0  0  0  0  0  0  0  0  0  0  0  0
   37.3210   21.7230   32.7350 C   0  0  0  0  0  0  0  0  0  0  0  0
   38.0940   21.6880   34.0300 C   0  0  0  0  0  0  0  0  0  0  0  0
   37.9440   23.0500   34.7290 C   0  0  1  0  0  0  0  0  0  0  0  0
   39.7410   23.9280   34.0950 H   0  0  0  0  0  0  0  0  0  0  0  0
   39.1070   23.4530   31.9700 H   0  0  0  0  0  0  0  0  0  0  0  0
   38.1930   24.9500   31.9290 H   0  0  0  0  0  0  0  0  0  0  0  0
   36.9050   23.0770   31.1380 H   0  0  0  0  0  0  0  0  0  0  0  0
   36.1600   23.4970   32.7700 H   0  0  0  0  0  0  0  0  0  0  0  0
   36.3230   21.2430   32.8390 H   0  0  0  0  0  0  0  0  0  0  0  0
   37.8600   21.1270   31.9700 H   0  0  0  0  0  0  0  0  0  0  0  0
   37.6890   20.9400   34.7380 H   0  0  0  0  0  0  0  0  0  0  0  0
   39.1660   21.5400   33.8160 H   0  0  0  0  0  0  0  0  0  0  0  0
   36.8890   23.1660   34.7010 H   0  0  0  0  0  0  0  0  0  0  0  0
   38.3480   25.4260   34.4890 C   0  0  0  0  0  0  0  0  0  0  0  0
   37.2550   26.1040   33.9260 C   0  0  0  0  0  0  0  0  0  0  0  0
   36.9640   27.3660   34.4530 C   0  0  0  0  0  0  0  0  0  0  0  0
   37.7480   27.8600   35.4720 N   0  0  0  0  0  0  0  0  0  0  0  0
   38.8060   27.1540   35.9860 C   0  0  0  0  0  0  0  0  0  0  0  0
   39.0900   25.9400   35.4800 N   0  0  0  0  0  0  0  0  0  0  0  0
   36.5700   25.8320   33.1490 H   0  0  0  0  0  0  0  0  0  0  0  0
   36.1710   28.0010   34.1330 H   0  0  0  0  0  0  0  0  0  0  0  0
   39.3830   27.5990   36.7870 H   0  0  0  0  0  0  0  0  0  0  0  0
   39.4660   22.6140   36.7040 C   0  0  0  0  0  0  0  0  0  0  0  0
   40.5470   22.1880   36.2180 O   0  0  0  0  0  0  0  0  0  0  0  0
   38.2570   23.0510   36.1110 N   0  0  0  0  0  0  0  0  0  0  0  0
   37.6220   23.3820   36.9040 H   0  0  0  0  0  0  0  0  0  0  0  0
   39.7870   22.5430   38.0920 N   0  0  0  0  0  0  0  0  0  0  0  0
   39.7410   21.6360   38.6080 H   0  0  0  0  0  0  0  0  0  0  0  0
   40.0780   23.3720   38.6550 H   0  0  0  0  0  0  0  0  0  0  0  0
  1  7  1  1  0  0  0
  1 17  1  0  0  0  0
  1  6  1  0  0  0  0
  2  1  1  0  0  0  0
  3  2  1  0  0  0  0
  3  4  1  0  0  0  0
  3 11  1  0  0  0  0
  4 12  1  0  0  0  0
  4  5  1  0  0  0  0
  5  6  1  0  0  0  0
  5 14  1  0  0  0  0
  6 16  1  6  0  0  0
  6 28  1  0  0  0  0
  8  2  1  0  0  0  0
  9  2  1  0  0  0  0
 10  3  1  0  0  0  0
 13  4  1  0  0  0  0
 15  5  1  0  0  0  0
 17 22  1  0  0  0  0
 18 19  1  0  0  0  0
 18 17  2  0  0  0  0
 19 20  2  0  0  0  0
 20 21  1  0  0  0  0
 21 25  1  0  0  0  0
 22 21  2  0  0  0  0
 23 18  1  0  0  0  0
 24 19  1  0  0  0  0
 26 30  1  0  0  0  0
 27 26  2  0  0  0  0
 28 26  1  0  0  0  0
 28 29  1  0  0  0  0
 30 31  1  0  0  0  0
 30 32  1  0  0  0  0
M  END
>  <minimizedAffinity>
-4.27470684

$$$$

 OpenBabel03272509323D

 32 33  0  0  1  0  0  0  0  0999 V2000
   39.0050   25.7500   34.3010 C   0  0  2  0  0  0  0  0  0  0  0  0
   38.9530   26.9530   35.1950 C   0  0  0  0  0  0  0  0  0  0  0  0
   37.5650   27.5480   35.3020 C   0  0  0  0  0  0  0  0  0  0  0  0
   37.0400   27.9180   33.9150 C   0  0  0  0  0  0  0  0  0  0  0  0
   37.4130   26.9280   32.8400 C   0  0  0  0  0  0  0  0  0  0  0  0
   37.7570   25.5850   33.5060 C   0  0  1  0  0  0  0  0  0  0  0  0
   39.8450   25.7810   33.5500 H   0  0  0  0  0  0  0  0  0  0  0  0
   39.5370   27.7530   34.6260 H   0  0  0  0  0  0  0  0  0  0  0  0
   39.4420   26.8860   36.1480 H   0  0  0  0  0  0  0  0  0  0  0  0
   37.6440   28.4630   35.8880 H   0  0  0  0  0  0  0  0  0  0  0  0
   36.8430   26.8140   35.7140 H   0  0  0  0  0  0  0  0  0  0  0  0
   35.9370   28.0110   34.0230 H   0  0  0  0  0  0  0  0  0  0  0  0
   37.3970   28.9270   33.6230 H   0  0  0  0  0  0  0  0  0  0  0  0
   36.5690   26.7170   32.1550 H   0  0  0  0  0  0  0  0  0  0  0  0
   38.3160   27.2780   32.3120 H   0  0  0  0  0  0  0  0  0  0  0  0
   36.9060   25.4540   34.1270 H   0  0  0  0  0  0  0  0  0  0  0  0
   39.2440   24.5110   35.0880 C   0  0  0  0  0  0  0  0  0  0  0  0
   40.5900   24.1880   35.3200 C   0  0  0  0  0  0  0  0  0  0  0  0
   40.8360   23.0270   36.0600 C   0  0  0  0  0  0  0  0  0  0  0  0
   39.7660   22.2830   36.5080 N   0  0  0  0  0  0  0  0  0  0  0  0
   38.4680   22.6450   36.2510 C   0  0  0  0  0  0  0  0  0  0  0  0
   38.2280   23.7610   35.5400 N   0  0  0  0  0  0  0  0  0  0  0  0
   41.5000   24.6790   35.0390 H   0  0  0  0  0  0  0  0  0  0  0  0
   41.7980   22.6510   36.3170 H   0  0  0  0  0  0  0  0  0  0  0  0
   37.6720   22.0170   36.6330 H   0  0  0  0  0  0  0  0  0  0  0  0
   36.6260   24.0100   31.8780 C   0  0  0  0  0  0  0  0  0  0  0  0
   35.4620   24.4620   31.7140 O   0  0  0  0  0  0  0  0  0  0  0  0
   37.7300   24.4630   32.6410 N   0  0  0  0  0  0  0  0  0  0  0  0
   38.5410   23.7990   32.4400 H   0  0  0  0  0  0  0  0  0  0  0  0
   36.5490   22.8520   31.0490 N   0  0  0  0  0  0  0  0  0  0  0  0
   36.0870   21.9790   31.3890 H   0  0  0  0  0  0  0  0  0  0  0  0
   36.9380   22.8130   30.0820 H   0  0  0  0  0  0  0  0  0  0  0  0
  1  7  1  6  0  0  0
  1 17  1  0  0  0  0
  1  2  1  0  0  0  0
  2  3  1  0  0  0  0
  2  9  1  0  0  0  0
  3 11  1  0  0  0  0
  3 10  1  0  0  0  0
  4 12  1  0  0  0  0
  4  3  1  0  0  0  0
  5  6  1  0  0  0  0
  5  4  1  0  0  0  0
  6 16  1  1  0  0  0
  6  1  1  0  0  0  0
  8  2  1  0  0  0  0
 13  4  1  0  0  0  0
 14  5  1  0  0  0  0
 15  5  1  0  0  0  0
 17 18  2  0  0  0  0
 17 22  1  0  0  0  0
 18 19  1  0  0  0  0
 19 24  1  0  0  0  0
 19 20  2  0  0  0  0
 21 20  1  0  0  0  0
 21 25  1  0  0  0  0
 22 21  2  0  0  0  0
 23 18  1  0  0  0  0
 26 28  1  0  0  0  0
 27 26  2  0  0  0  0
 28  6  1  0  0  0  0
 29 28  1  0  0  0  0
 30 31  1  0  0  0  0
 30 26  1  0  0  0  0
 32 30  1  0  0  0  0
M  END
>  <minimizedAffinity>
-4.25760078

$$$$

 OpenBabel03272509323D

 32 33  0  0  1  0  0  0  0  0999 V2000
   36.7760   22.4320   31.5670 C   0  0  2  0  0  0  0  0  0  0  0  0
   35.6070   21.6270   31.0840 C   0  0  0  0  0  0  0  0  0  0  0  0
   34.8030   21.0210   32.2150 C   0  0  0  0  0  0  0  0  0  0  0  0
   35.6990   20.1460   33.0910 C   0  0  0  0  0  0  0  0  0  0  0  0
   37.0830   20.7090   33.2970 C   0  0  0  0  0  0  0  0  0  0  0  0
   37.0460   22.2200   33.0160 C   0  0  1  0  0  0  0  0  0  0  0  0
   37.7420   22.1890   31.0360 H   0  0  0  0  0  0  0  0  0  0  0  0
   36.0780   20.7160   30.5820 H   0  0  0  0  0  0  0  0  0  0  0  0
   34.9820   22.0620   30.3280 H   0  0  0  0  0  0  0  0  0  0  0  0
   34.0390   20.3820   31.7700 H   0  0  0  0  0  0  0  0  0  0  0  0
   34.3950   21.8050   32.8850 H   0  0  0  0  0  0  0  0  0  0  0  0
   35.1560   20.0260   34.0550 H   0  0  0  0  0  0  0  0  0  0  0  0
   35.7780   19.1250   32.6650 H   0  0  0  0  0  0  0  0  0  0  0  0
   37.4250   20.6060   34.3450 H   0  0  0  0  0  0  0  0  0  0  0  0
   37.7790   20.2520   32.5730 H   0  0  0  0  0  0  0  0  0  0  0  0
   36.2220   22.5090   33.6190 H   0  0  0  0  0  0  0  0  0  0  0  0
   36.5630   23.8830   31.3220 C   0  0  0  0  0  0  0  0  0  0  0  0
   35.2260   24.2850   31.1800 C   0  0  0  0  0  0  0  0  0  0  0  0
   35.0030   25.6470   30.9510 C   0  0  0  0  0  0  0  0  0  0  0  0
   36.0860   26.4960   30.8800 N   0  0  0  0  0  0  0  0  0  0  0  0
   37.3740   26.0490   31.0260 C   0  0  0  0  0  0  0  0  0  0  0  0
   37.5920   24.7390   31.2460 N   0  0  0  0  0  0  0  0  0  0  0  0
   34.3070   23.7360   31.2220 H   0  0  0  0  0  0  0  0  0  0  0  0
   34.0510   26.1040   30.8220 H   0  0  0  0  0  0  0  0  0  0  0  0
   38.1820   26.7690   30.9600 H   0  0  0  0  0  0  0  0  0  0  0  0
   38.3640   23.2650   34.9090 C   0  0  0  0  0  0  0  0  0  0  0  0
   37.7490   22.9590   35.9650 O   0  0  0  0  0  0  0  0  0  0  0  0
   38.1360   22.9540   33.5460 N   0  0  0  0  0  0  0  0  0  0  0  0
   38.9440   23.3780   32.9910 H   0  0  0  0  0  0  0  0  0  0  0  0
   39.4130   24.0530   35.4660 N   0  0  0  0  0  0  0  0  0  0  0  0
   39.2500   25.0470   35.7400 H   0  0  0  0  0  0  0  0  0  0  0  0
   40.3780   23.6900   35.6260 H   0  0  0  0  0  0  0  0  0  0  0  0
  1  7  1  6  0  0  0
  1  6  1  0  0  0  0
  2  1  1  0  0  0  0
  2  3  1  0  0  0  0
  3 11  1  0  0  0  0
  3  4  1  0  0  0  0
  4  5  1  0  0  0  0
  4 12  1  0  0  0  0
  5 14  1  0  0  0  0
  6  5  1  0  0  0  0
  6 28  1  0  0  0  0
  6 16  1  1  0  0  0
  8  2  1  0  0  0  0
  9  2  1  0  0  0  0
 10  3  1  0  0  0  0
 13  4  1  0  0  0  0
 15  5  1  0  0  0  0
 17  1  1  0  0  0  0
 18 23  1  0  0  0  0
 18 17  2  0  0  0  0
 19 18  1  0  0  0  0
 20 19  2  0  0  0  0
 20 21  1  0  0  0  0
 21 22  2  0  0  0  0
 22 17  1  0  0  0  0
 24 19  1  0  0  0  0
 25 21  1  0  0  0  0
 26 30  1  0  0  0  0
 26 27  2  0  0  0  0
 28 26  1  0  0  0  0
 29 28  1  0  0  0  0
 30 32  1  0  0  0  0
 30 31  1  0  0  0  0
M  END
>  <minimizedAffinity>
-4.23181534

$$$$
