
 OpenBabel03272503063D

 26 27  0  0  0  0  0  0  0  0999 V2000
   39.8510   23.0210   34.7500 F   0  0  0  0  0  0  0  0  0  0  0  0
   39.2460   23.5630   35.8310 C   0  0  0  0  0  0  0  0  0  0  0  0
   38.6270   24.7920   35.7300 C   0  0  0  0  0  0  0  0  0  0  0  0
   38.0300   25.2910   36.8640 C   0  0  0  0  0  0  0  0  0  0  0  0
   38.0400   24.6050   38.0570 C   0  0  0  0  0  0  0  0  0  0  0  0
   38.6590   23.3830   38.1490 C   0  0  0  0  0  0  0  0  0  0  0  0
   39.2710   22.8540   37.0190 C   0  0  0  0  0  0  0  0  0  0  0  0
   37.5450   26.2550   36.7840 H   0  0  0  0  0  0  0  0  0  0  0  0
   37.5700   25.0150   38.9220 H   0  0  0  0  0  0  0  0  0  0  0  0
   38.6640   22.8490   39.0910 H   0  0  0  0  0  0  0  0  0  0  0  0
   39.5630   27.0830   32.8730 C   0  0  0  0  0  0  0  0  0  0  0  0
   39.5610   26.4530   34.1190 C   0  0  0  0  0  0  0  0  0  0  0  0
   38.6520   25.4650   34.4400 C   0  0  0  0  0  0  0  0  0  0  0  0
   37.7450   25.1320   33.4630 N   0  0  0  0  0  0  0  0  0  0  0  0
   37.7480   25.7400   32.2630 C   0  0  0  0  0  0  0  0  0  0  0  0
   38.6290   26.6870   31.9730 N   0  0  0  0  0  0  0  0  0  0  0  0
   40.2930   27.8590   32.6520 H   0  0  0  0  0  0  0  0  0  0  0  0
   40.2960   26.7440   34.8720 H   0  0  0  0  0  0  0  0  0  0  0  0
   36.9810   25.3790   31.5910 H   0  0  0  0  0  0  0  0  0  0  0  0
   41.3450   21.6680   37.2500 C   0  0  0  0  0  0  0  0  0  0  0  0
   41.7920   22.8560   37.3610 O   0  0  0  0  0  0  0  0  0  0  0  0
   39.9300   21.5820   37.0610 N   0  0  0  0  0  0  0  0  0  0  0  0
   39.5090   20.6390   36.9710 H   0  0  0  0  0  0  0  0  0  0  0  0
   42.2030   20.5630   37.3150 N   0  0  0  0  0  0  0  0  0  0  0  0
   41.8560   19.6020   37.3900 H   0  0  0  0  0  0  0  0  0  0  0  0
   43.2150   20.7060   37.2860 H   0  0  0  0  0  0  0  0  0  0  0  0
  1  2  1  0  0  0  0
  2  7  1  0  0  0  0
  3  2  2  0  0  0  0
  3  4  1  0  0  0  0
  4  5  2  0  0  0  0
  5  6  1  0  0  0  0
  5  9  1  0  0  0  0
  6 10  1  0  0  0  0
  7 22  1  0  0  0  0
  7  6  2  0  0  0  0
  8  4  1  0  0  0  0
 11 12  1  0  0  0  0
 12 13  2  0  0  0  0
 12 18  1  0  0  0  0
 13  3  1  0  0  0  0
 14 13  1  0  0  0  0
 15 14  2  0  0  0  0
 16 15  1  0  0  0  0
 16 11  2  0  0  0  0
 17 11  1  0  0  0  0
 19 15  1  0  0  0  0
 20 24  1  0  0  0  0
 20 21  2  0  0  0  0
 22 20  1  0  0  0  0
 23 22  1  0  0  0  0
 24 25  1  0  0  0  0
 26 24  1  0  0  0  0
M  END
>  <minimizedAffinity>
-4.8279562

$$$$

 OpenBabel03272503063D

 26 27  0  0  0  0  0  0  0  0999 V2000
   37.6960   26.5910   31.6390 F   0  0  0  0  0  0  0  0  0  0  0  0
   36.9230   27.6510   31.9710 C   0  0  0  0  0  0  0  0  0  0  0  0
   36.7070   27.9570   33.2990 C   0  0  0  0  0  0  0  0  0  0  0  0
   35.9120   29.0450   33.5720 C   0  0  0  0  0  0  0  0  0  0  0  0
   35.3500   29.8080   32.5740 C   0  0  0  0  0  0  0  0  0  0  0  0
   35.5700   29.4960   31.2550 C   0  0  0  0  0  0  0  0  0  0  0  0
   36.3690   28.4010   30.9490 C   0  0  0  0  0  0  0  0  0  0  0  0
   35.7430   29.2850   34.6130 H   0  0  0  0  0  0  0  0  0  0  0  0
   34.7370   30.6470   32.8140 H   0  0  0  0  0  0  0  0  0  0  0  0
   35.1240   30.0990   30.4750 H   0  0  0  0  0  0  0  0  0  0  0  0
   38.5160   26.7710   36.3980 C   0  0  0  0  0  0  0  0  0  0  0  0
   37.9240   27.6060   35.4480 C   0  0  0  0  0  0  0  0  0  0  0  0
   37.3310   27.1100   34.3050 C   0  0  0  0  0  0  0  0  0  0  0  0
   37.3560   25.7450   34.1490 N   0  0  0  0  0  0  0  0  0  0  0  0
   37.9270   24.9430   35.0650 C   0  0  0  0  0  0  0  0  0  0  0  0
   38.4910   25.4370   36.1580 N   0  0  0  0  0  0  0  0  0  0  0  0
   38.9750   27.1940   37.2900 H   0  0  0  0  0  0  0  0  0  0  0  0
   37.9230   28.6870   35.6050 H   0  0  0  0  0  0  0  0  0  0  0  0
   37.8730   23.8920   34.8150 H   0  0  0  0  0  0  0  0  0  0  0  0
   37.7660   28.6880   29.0180 C   0  0  0  0  0  0  0  0  0  0  0  0
   38.3690   29.4850   29.8080 O   0  0  0  0  0  0  0  0  0  0  0  0
   36.6300   28.0320   29.5880 N   0  0  0  0  0  0  0  0  0  0  0  0
   36.1050   27.3670   28.9930 H   0  0  0  0  0  0  0  0  0  0  0  0
   38.2120   28.4980   27.7030 N   0  0  0  0  0  0  0  0  0  0  0  0
   37.8480   27.7520   27.1040 H   0  0  0  0  0  0  0  0  0  0  0  0
   38.9250   29.1200   27.3170 H   0  0  0  0  0  0  0  0  0  0  0  0
  1  2  1  0  0  0  0
  2  3  1  0  0  0  0
  3  4  2  0  0  0  0
  3 13  1  0  0  0  0
  4  8  1  0  0  0  0
  5  9  1  0  0  0  0
  5  4  1  0  0  0  0
  6  5  2  0  0  0  0
  7  6  1  0  0  0  0
  7  2  2  0  0  0  0
 10  6  1  0  0  0  0
 11 17  1  0  0  0  0
 12 18  1  0  0  0  0
 12 11  2  0  0  0  0
 13 12  1  0  0  0  0
 14 13  2  0  0  0  0
 14 15  1  0  0  0  0
 15 16  2  0  0  0  0
 16 11  1  0  0  0  0
 19 15  1  0  0  0  0
 20 22  1  0  0  0  0
 20 21  2  0  0  0  0
 22  7  1  0  0  0  0
 23 22  1  0  0  0  0
 24 20  1  0  0  0  0
 25 24  1  0  0  0  0
 26 24  1  0  0  0  0
M  END
>  <minimizedAffinity>
-4.82336664

$$$$

 OpenBabel03272503063D

 26 27  0  0  0  0  0  0  0  0999 V2000
   37.5500   24.1300   33.7410 F   0  0  0  0  0  0  0  0  0  0  0  0
   38.4420   25.1450   33.6700 C   0  0  0  0  0  0  0  0  0  0  0  0
   39.2240   25.4530   34.7640 C   0  0  0  0  0  0  0  0  0  0  0  0
   40.1110   26.4950   34.6300 C   0  0  0  0  0  0  0  0  0  0  0  0
   40.2260   27.2100   33.4600 C   0  0  0  0  0  0  0  0  0  0  0  0
   39.4450   26.8960   32.3760 C   0  0  0  0  0  0  0  0  0  0  0  0
   38.5390   25.8480   32.4820 C   0  0  0  0  0  0  0  0  0  0  0  0
   40.7230   26.7360   35.4890 H   0  0  0  0  0  0  0  0  0  0  0  0
   40.9230   28.0140   33.3830 H   0  0  0  0  0  0  0  0  0  0  0  0
   39.5400   27.4630   31.4580 H   0  0  0  0  0  0  0  0  0  0  0  0
   37.9380   24.1390   38.0670 C   0  0  0  0  0  0  0  0  0  0  0  0
   38.0810   24.9190   36.9170 C   0  0  0  0  0  0  0  0  0  0  0  0
   39.0520   24.6570   35.9710 C   0  0  0  0  0  0  0  0  0  0  0  0
   39.8740   23.5860   36.2220 N   0  0  0  0  0  0  0  0  0  0  0  0
   39.7350   22.8360   37.3300 C   0  0  0  0  0  0  0  0  0  0  0  0
   38.7970   23.1020   38.2280 N   0  0  0  0  0  0  0  0  0  0  0  0
   37.1630   24.3720   38.7940 H   0  0  0  0  0  0  0  0  0  0  0  0
   37.4100   25.7630   36.7510 H   0  0  0  0  0  0  0  0  0  0  0  0
   40.4480   22.0260   37.3980 H   0  0  0  0  0  0  0  0  0  0  0  0
   36.4710   26.2100   31.3180 C   0  0  0  0  0  0  0  0  0  0  0  0
   36.3220   27.0750   32.2420 O   0  0  0  0  0  0  0  0  0  0  0  0
   37.6990   25.4800   31.3800 N   0  0  0  0  0  0  0  0  0  0  0  0
   37.8770   24.7670   30.6490 H   0  0  0  0  0  0  0  0  0  0  0  0
   35.4860   26.0210   30.3390 N   0  0  0  0  0  0  0  0  0  0  0  0
   35.6470   25.4540   29.5020 H   0  0  0  0  0  0  0  0  0  0  0  0
   34.5700   26.4590   30.4530 H   0  0  0  0  0  0  0  0  0  0  0  0
  2  1  1  0  0  0  0
  2  3  1  0  0  0  0
  3 13  1  0  0  0  0
  4  3  2  0  0  0  0
  4  8  1  0  0  0  0
  5  4  1  0  0  0  0
  6  7  1  0  0  0  0
  6  5  2  0  0  0  0
  7  2  2  0  0  0  0
  9  5  1  0  0  0  0
 10  6  1  0  0  0  0
 11 16  1  0  0  0  0
 11 17  1  0  0  0  0
 12 11  2  0  0  0  0
 13 14  2  0  0  0  0
 13 12  1  0  0  0  0
 14 15  1  0  0  0  0
 15 19  1  0  0  0  0
 15 16  2  0  0  0  0
 18 12  1  0  0  0  0
 20 22  1  0  0  0  0
 20 21  2  0  0  0  0
 22  7  1  0  0  0  0
 23 22  1  0  0  0  0
 24 26  1  0  0  0  0
 24 20  1  0  0  0  0
 25 24  1  0  0  0  0
M  END
>  <minimizedAffinity>
-4.80328655

$$$$

 OpenBabel03272503063D

 26 27  0  0  0  0  0  0  0  0999 V2000
   34.9540   28.8180   34.6540 F   0  0  0  0  0  0  0  0  0  0  0  0
   35.3640   29.7000   33.7140 C   0  0  0  0  0  0  0  0  0  0  0  0
   36.0270   29.2510   32.5910 C   0  0  0  0  0  0  0  0  0  0  0  0
   36.4190   30.1960   31.6720 C   0  0  0  0  0  0  0  0  0  0  0  0
   36.1660   31.5370   31.8510 C   0  0  0  0  0  0  0  0  0  0  0  0
   35.5060   31.9750   32.9720 C   0  0  0  0  0  0  0  0  0  0  0  0
   35.0980   31.0420   33.9180 C   0  0  0  0  0  0  0  0  0  0  0  0
   36.9390   29.8440   30.7910 H   0  0  0  0  0  0  0  0  0  0  0  0
   36.4810   32.2500   31.1220 H   0  0  0  0  0  0  0  0  0  0  0  0
   35.3110   33.0310   33.1070 H   0  0  0  0  0  0  0  0  0  0  0  0
   37.3740   25.7560   33.0980 C   0  0  0  0  0  0  0  0  0  0  0  0
   37.1680   27.1300   33.2420 C   0  0  0  0  0  0  0  0  0  0  0  0
   36.2620   27.8200   32.4630 C   0  0  0  0  0  0  0  0  0  0  0  0
   35.5710   27.0810   31.5330 N   0  0  0  0  0  0  0  0  0  0  0  0
   35.7710   25.7580   31.3960 C   0  0  0  0  0  0  0  0  0  0  0  0
   36.6450   25.1120   32.1540 N   0  0  0  0  0  0  0  0  0  0  0  0
   38.0960   25.2410   33.7290 H   0  0  0  0  0  0  0  0  0  0  0  0
   37.7350   27.6850   33.9910 H   0  0  0  0  0  0  0  0  0  0  0  0
   35.1600   25.3040   30.6280 H   0  0  0  0  0  0  0  0  0  0  0  0
   35.2680   31.7700   36.1990 C   0  0  0  0  0  0  0  0  0  0  0  0
   36.5110   31.6580   35.9430 O   0  0  0  0  0  0  0  0  0  0  0  0
   34.4050   31.4460   35.1060 N   0  0  0  0  0  0  0  0  0  0  0  0
   33.3820   31.5260   35.2550 H   0  0  0  0  0  0  0  0  0  0  0  0
   34.8240   32.1810   37.4630 N   0  0  0  0  0  0  0  0  0  0  0  0
   33.8480   32.4320   37.6460 H   0  0  0  0  0  0  0  0  0  0  0  0
   35.4870   32.2350   38.2380 H   0  0  0  0  0  0  0  0  0  0  0  0
  2  7  1  0  0  0  0
  2  1  1  0  0  0  0
  3  2  2  0  0  0  0
  4  5  2  0  0  0  0
  4  3  1  0  0  0  0
  5  6  1  0  0  0  0
  6 10  1  0  0  0  0
  6  7  2  0  0  0  0
  7 22  1  0  0  0  0
  8  4  1  0  0  0  0
  9  5  1  0  0  0  0
 11 12  1  0  0  0  0
 11 17  1  0  0  0  0
 12 18  1  0  0  0  0
 13  3  1  0  0  0  0
 13 12  2  0  0  0  0
 14 13  1  0  0  0  0
 15 14  2  0  0  0  0
 15 16  1  0  0  0  0
 16 11  2  0  0  0  0
 19 15  1  0  0  0  0
 20 24  1  0  0  0  0
 21 20  2  0  0  0  0
 22 23  1  0  0  0  0
 22 20  1  0  0  0  0
 24 25  1  0  0  0  0
 24 26  1  0  0  0  0
M  END
>  <minimizedAffinity>
-4.79774332

$$$$

 OpenBabel03272503063D

 26 27  0  0  0  0  0  0  0  0999 V2000
   35.2310   29.6360   31.7360 F   0  0  0  0  0  0  0  0  0  0  0  0
   35.9290   28.6490   32.3440 C   0  0  0  0  0  0  0  0  0  0  0  0
   36.0020   28.6040   33.7210 C   0  0  0  0  0  0  0  0  0  0  0  0
   36.7270   27.5770   34.2790 C   0  0  0  0  0  0  0  0  0  0  0  0
   37.3580   26.6270   33.5090 C   0  0  0  0  0  0  0  0  0  0  0  0
   37.2810   26.6800   32.1400 C   0  0  0  0  0  0  0  0  0  0  0  0
   36.5550   27.7070   31.5480 C   0  0  0  0  0  0  0  0  0  0  0  0
   36.7830   27.5420   35.3590 H   0  0  0  0  0  0  0  0  0  0  0  0
   37.9140   25.8400   33.9680 H   0  0  0  0  0  0  0  0  0  0  0  0
   37.7810   25.9300   31.5400 H   0  0  0  0  0  0  0  0  0  0  0  0
   35.2780   31.6500   35.8390 C   0  0  0  0  0  0  0  0  0  0  0  0
   35.9660   30.6690   35.1210 C   0  0  0  0  0  0  0  0  0  0  0  0
   35.3110   29.6390   34.4750 C   0  0  0  0  0  0  0  0  0  0  0  0
   33.9410   29.6290   34.5770 N   0  0  0  0  0  0  0  0  0  0  0  0
   33.2810   30.5760   35.2690 C   0  0  0  0  0  0  0  0  0  0  0  0
   33.9260   31.5570   35.8820 N   0  0  0  0  0  0  0  0  0  0  0  0
   35.8240   32.4490   36.3360 H   0  0  0  0  0  0  0  0  0  0  0  0
   37.0550   30.7070   35.0610 H   0  0  0  0  0  0  0  0  0  0  0  0
   32.2070   30.4460   35.2650 H   0  0  0  0  0  0  0  0  0  0  0  0
   37.5770   28.4100   29.4920 C   0  0  0  0  0  0  0  0  0  0  0  0
   38.5080   28.7510   30.2930 O   0  0  0  0  0  0  0  0  0  0  0  0
   36.4430   27.8080   30.1220 N   0  0  0  0  0  0  0  0  0  0  0  0
   35.6580   27.5040   29.5180 H   0  0  0  0  0  0  0  0  0  0  0  0
   37.6950   28.6250   28.1130 N   0  0  0  0  0  0  0  0  0  0  0  0
   37.0410   28.2200   27.4370 H   0  0  0  0  0  0  0  0  0  0  0  0
   38.4560   29.2060   27.7560 H   0  0  0  0  0  0  0  0  0  0  0  0
  1  2  1  0  0  0  0
  2  3  1  0  0  0  0
  3  4  2  0  0  0  0
  3 13  1  0  0  0  0
  4  8  1  0  0  0  0
  5  9  1  0  0  0  0
  5  4  1  0  0  0  0
  6  5  2  0  0  0  0
  7  6  1  0  0  0  0
  7  2  2  0  0  0  0
 10  6  1  0  0  0  0
 11 16  1  0  0  0  0
 11 17  1  0  0  0  0
 12 11  2  0  0  0  0
 13 14  2  0  0  0  0
 13 12  1  0  0  0  0
 14 15  1  0  0  0  0
 15 16  2  0  0  0  0
 18 12  1  0  0  0  0
 19 15  1  0  0  0  0
 20 22  1  0  0  0  0
 20 21  2  0  0  0  0
 22  7  1  0  0  0  0
 23 22  1  0  0  0  0
 24 20  1  0  0  0  0
 25 24  1  0  0  0  0
 26 24  1  0  0  0  0
M  END
>  <minimizedAffinity>
-4.7346344

$$$$

 OpenBabel03272503063D

 26 27  0  0  0  0  0  0  0  0999 V2000
   39.5960   26.5950   32.0520 F   0  0  0  0  0  0  0  0  0  0  0  0
   38.9980   26.9250   33.2200 C   0  0  0  0  0  0  0  0  0  0  0  0
   39.7170   26.8840   34.3970 C   0  0  0  0  0  0  0  0  0  0  0  0
   39.0540   27.2300   35.5500 C   0  0  0  0  0  0  0  0  0  0  0  0
   37.7300   27.6050   35.5480 C   0  0  0  0  0  0  0  0  0  0  0  0
   37.0220   27.6430   34.3720 C   0  0  0  0  0  0  0  0  0  0  0  0
   37.6670   27.2980   33.1900 C   0  0  0  0  0  0  0  0  0  0  0  0
   39.6180   27.1980   36.4730 H   0  0  0  0  0  0  0  0  0  0  0  0
   37.2390   27.8680   36.4570 H   0  0  0  0  0  0  0  0  0  0  0  0
   35.9810   27.9380   34.3760 H   0  0  0  0  0  0  0  0  0  0  0  0
   43.4310   26.8400   33.6960 C   0  0  0  0  0  0  0  0  0  0  0  0
   42.0970   27.2520   33.7460 C   0  0  0  0  0  0  0  0  0  0  0  0
   41.1140   26.4800   34.3300 C   0  0  0  0  0  0  0  0  0  0  0  0
   41.5170   25.2780   34.8610 N   0  0  0  0  0  0  0  0  0  0  0  0
   42.8020   24.8840   34.8110 C   0  0  0  0  0  0  0  0  0  0  0  0
   43.7330   25.6390   34.2470 N   0  0  0  0  0  0  0  0  0  0  0  0
   44.1830   27.4730   33.2280 H   0  0  0  0  0  0  0  0  0  0  0  0
   41.8130   28.2130   33.3140 H   0  0  0  0  0  0  0  0  0  0  0  0
   42.9770   23.9190   35.2680 H   0  0  0  0  0  0  0  0  0  0  0  0
   36.3550   26.0780   31.5910 C   0  0  0  0  0  0  0  0  0  0  0  0
   36.5080   25.1540   32.4550 O   0  0  0  0  0  0  0  0  0  0  0  0
   36.9730   27.3210   31.9350 N   0  0  0  0  0  0  0  0  0  0  0  0
   36.8760   28.1110   31.2720 H   0  0  0  0  0  0  0  0  0  0  0  0
   35.6310   25.8540   30.4130 N   0  0  0  0  0  0  0  0  0  0  0  0
   35.3580   26.6140   29.7840 H   0  0  0  0  0  0  0  0  0  0  0  0
   35.3600   24.9010   30.1600 H   0  0  0  0  0  0  0  0  0  0  0  0
  1  2  1  0  0  0  0
  2  3  1  0  0  0  0
  3  4  2  0  0  0  0
  4  8  1  0  0  0  0
  5  4  1  0  0  0  0
  5  9  1  0  0  0  0
  6 10  1  0  0  0  0
  6  5  2  0  0  0  0
  7  2  2  0  0  0  0
  7  6  1  0  0  0  0
 11 12  2  0  0  0  0
 11 16  1  0  0  0  0
 12 13  1  0  0  0  0
 13  3  1  0  0  0  0
 13 14  2  0  0  0  0
 15 14  1  0  0  0  0
 15 19  1  0  0  0  0
 16 15  2  0  0  0  0
 17 11  1  0  0  0  0
 18 12  1  0  0  0  0
 20 22  1  0  0  0  0
 20 21  2  0  0  0  0
 22  7  1  0  0  0  0
 23 22  1  0  0  0  0
 24 20  1  0  0  0  0
 25 24  1  0  0  0  0
 26 24  1  0  0  0  0
M  END
>  <minimizedAffinity>
-4.71249294

$$$$

 OpenBabel03272503063D

 26 27  0  0  0  0  0  0  0  0999 V2000
   38.1810   24.0670   33.2760 F   0  0  0  0  0  0  0  0  0  0  0  0
   37.3460   24.8830   32.5930 C   0  0  0  0  0  0  0  0  0  0  0  0
   36.4000   24.3450   31.7440 C   0  0  0  0  0  0  0  0  0  0  0  0
   35.5810   25.2260   31.0770 C   0  0  0  0  0  0  0  0  0  0  0  0
   35.6870   26.5880   31.2400 C   0  0  0  0  0  0  0  0  0  0  0  0
   36.6310   27.1140   32.0860 C   0  0  0  0  0  0  0  0  0  0  0  0
   37.4730   26.2480   32.7730 C   0  0  0  0  0  0  0  0  0  0  0  0
   34.8400   24.8040   30.4110 H   0  0  0  0  0  0  0  0  0  0  0  0
   35.0390   27.2490   30.7100 H   0  0  0  0  0  0  0  0  0  0  0  0
   36.7100   28.1870   32.2090 H   0  0  0  0  0  0  0  0  0  0  0  0
   35.3010   20.7400   32.0340 C   0  0  0  0  0  0  0  0  0  0  0  0
   35.3340   22.1300   32.1710 C   0  0  0  0  0  0  0  0  0  0  0  0
   36.3400   22.8970   31.6180 C   0  0  0  0  0  0  0  0  0  0  0  0
   37.3120   22.2170   30.9230 N   0  0  0  0  0  0  0  0  0  0  0  0
   37.2780   20.8790   30.7940 C   0  0  0  0  0  0  0  0  0  0  0  0
   36.3040   20.1590   31.3310 N   0  0  0  0  0  0  0  0  0  0  0  0
   34.4940   20.1650   32.4830 H   0  0  0  0  0  0  0  0  0  0  0  0
   34.5450   22.6370   32.7300 H   0  0  0  0  0  0  0  0  0  0  0  0
   38.1040   20.4770   30.2220 H   0  0  0  0  0  0  0  0  0  0  0  0
   37.9890   27.0300   34.9840 C   0  0  0  0  0  0  0  0  0  0  0  0
   36.7500   26.7880   35.1530 O   0  0  0  0  0  0  0  0  0  0  0  0
   38.4760   26.7460   33.6700 N   0  0  0  0  0  0  0  0  0  0  0  0
   39.4790   26.9170   33.4760 H   0  0  0  0  0  0  0  0  0  0  0  0
   38.7770   27.5340   36.0270 N   0  0  0  0  0  0  0  0  0  0  0  0
   39.7980   27.5850   35.9680 H   0  0  0  0  0  0  0  0  0  0  0  0
   38.3290   27.8660   36.8840 H   0  0  0  0  0  0  0  0  0  0  0  0
  2  7  1  0  0  0  0
  2  1  1  0  0  0  0
  3  2  2  0  0  0  0
  4  5  2  0  0  0  0
  4  3  1  0  0  0  0
  5  6  1  0  0  0  0
  6 10  1  0  0  0  0
  6  7  2  0  0  0  0
  7 22  1  0  0  0  0
  8  4  1  0  0  0  0
  9  5  1  0  0  0  0
 11 12  1  0  0  0  0
 11 17  1  0  0  0  0
 12 18  1  0  0  0  0
 13  3  1  0  0  0  0
 13 12  2  0  0  0  0
 14 13  1  0  0  0  0
 15 14  2  0  0  0  0
 15 16  1  0  0  0  0
 16 11  2  0  0  0  0
 19 15  1  0  0  0  0
 20 21  2  0  0  0  0
 20 24  1  0  0  0  0
 22 20  1  0  0  0  0
 23 22  1  0  0  0  0
 24 26  1  0  0  0  0
 25 24  1  0  0  0  0
M  END
>  <minimizedAffinity>
-4.70384741

$$$$

 OpenBabel03272503063D

 26 27  0  0  0  0  0  0  0  0999 V2000
   37.9230   24.5170   33.1370 F   0  0  0  0  0  0  0  0  0  0  0  0
   37.8800   25.5920   33.9570 C   0  0  0  0  0  0  0  0  0  0  0  0
   38.6250   25.6030   35.1180 C   0  0  0  0  0  0  0  0  0  0  0  0
   38.5380   26.7240   35.9090 C   0  0  0  0  0  0  0  0  0  0  0  0
   37.7470   27.7980   35.5710 C   0  0  0  0  0  0  0  0  0  0  0  0
   37.0090   27.7780   34.4140 C   0  0  0  0  0  0  0  0  0  0  0  0
   37.0760   26.6580   33.5940 C   0  0  0  0  0  0  0  0  0  0  0  0
   39.1230   26.7330   36.8200 H   0  0  0  0  0  0  0  0  0  0  0  0
   37.6980   28.6560   36.2030 H   0  0  0  0  0  0  0  0  0  0  0  0
   36.3880   28.6260   34.1530 H   0  0  0  0  0  0  0  0  0  0  0  0
   39.7620   22.2170   36.3540 C   0  0  0  0  0  0  0  0  0  0  0  0
   38.9570   23.3250   36.0790 C   0  0  0  0  0  0  0  0  0  0  0  0
   39.4400   24.4350   35.4170 C   0  0  0  0  0  0  0  0  0  0  0  0
   40.7610   24.3940   35.0410 N   0  0  0  0  0  0  0  0  0  0  0  0
   41.5350   23.3250   35.3070 C   0  0  0  0  0  0  0  0  0  0  0  0
   41.0540   22.2680   35.9430 N   0  0  0  0  0  0  0  0  0  0  0  0
   39.3500   21.3570   36.8780 H   0  0  0  0  0  0  0  0  0  0  0  0
   37.9120   23.3240   36.3940 H   0  0  0  0  0  0  0  0  0  0  0  0
   42.5520   23.4280   34.9530 H   0  0  0  0  0  0  0  0  0  0  0  0
   36.9450   27.2530   31.2720 C   0  0  0  0  0  0  0  0  0  0  0  0
   38.0660   27.7950   31.5430 O   0  0  0  0  0  0  0  0  0  0  0  0
   36.3260   26.5860   32.3750 N   0  0  0  0  0  0  0  0  0  0  0  0
   35.4140   26.1220   32.2100 H   0  0  0  0  0  0  0  0  0  0  0  0
   36.3990   27.3280   29.9840 N   0  0  0  0  0  0  0  0  0  0  0  0
   35.5880   26.7720   29.6990 H   0  0  0  0  0  0  0  0  0  0  0  0
   36.8150   27.9570   29.2940 H   0  0  0  0  0  0  0  0  0  0  0  0
  1  2  1  0  0  0  0
  2  3  1  0  0  0  0
  3 13  1  0  0  0  0
  3  4  2  0  0  0  0
  4  8  1  0  0  0  0
  5  4  1  0  0  0  0
  5  9  1  0  0  0  0
  6  5  2  0  0  0  0
  7  2  2  0  0  0  0
  7  6  1  0  0  0  0
 10  6  1  0  0  0  0
 11 17  1  0  0  0  0
 12 11  1  0  0  0  0
 12 18  1  0  0  0  0
 13 12  2  0  0  0  0
 14 15  2  0  0  0  0
 14 13  1  0  0  0  0
 15 16  1  0  0  0  0
 16 11  2  0  0  0  0
 19 15  1  0  0  0  0
 20 21  2  0  0  0  0
 20 22  1  0  0  0  0
 22  7  1  0  0  0  0
 23 22  1  0  0  0  0
 24 20  1  0  0  0  0
 25 24  1  0  0  0  0
 26 24  1  0  0  0  0
M  END
>  <minimizedAffinity>
-4.62166691

$$$$

 OpenBabel03272503063D

 26 27  0  0  0  0  0  0  0  0999 V2000
   37.3850   22.4490   35.0820 F   0  0  0  0  0  0  0  0  0  0  0  0
   38.5190   23.1390   34.8270 C   0  0  0  0  0  0  0  0  0  0  0  0
   38.6500   23.8360   33.6430 C   0  0  0  0  0  0  0  0  0  0  0  0
   39.8280   24.5170   33.4420 C   0  0  0  0  0  0  0  0  0  0  0  0
   40.8420   24.5140   34.3720 C   0  0  0  0  0  0  0  0  0  0  0  0
   40.7030   23.8180   35.5470 C   0  0  0  0  0  0  0  0  0  0  0  0
   39.5240   23.1200   35.7780 C   0  0  0  0  0  0  0  0  0  0  0  0
   39.9300   25.0630   32.5130 H   0  0  0  0  0  0  0  0  0  0  0  0
   41.7450   25.0510   34.1910 H   0  0  0  0  0  0  0  0  0  0  0  0
   41.5050   23.8190   36.2750 H   0  0  0  0  0  0  0  0  0  0  0  0
   36.0520   22.6330   31.1760 C   0  0  0  0  0  0  0  0  0  0  0  0
   37.1200   22.6420   32.0760 C   0  0  0  0  0  0  0  0  0  0  0  0
   37.5410   23.7970   32.7020 C   0  0  0  0  0  0  0  0  0  0  0  0
   36.8500   24.9440   32.3930 N   0  0  0  0  0  0  0  0  0  0  0  0
   35.8220   24.9330   31.5260 C   0  0  0  0  0  0  0  0  0  0  0  0
   35.4310   23.8140   30.9340 N   0  0  0  0  0  0  0  0  0  0  0  0
   35.7450   21.7050   30.6990 H   0  0  0  0  0  0  0  0  0  0  0  0
   37.6460   21.7110   32.2980 H   0  0  0  0  0  0  0  0  0  0  0  0
   35.3700   25.9050   31.3770 H   0  0  0  0  0  0  0  0  0  0  0  0
   38.6400   23.1030   38.0100 C   0  0  0  0  0  0  0  0  0  0  0  0
   38.3020   24.2870   37.6810 O   0  0  0  0  0  0  0  0  0  0  0  0
   39.3280   22.3770   36.9880 N   0  0  0  0  0  0  0  0  0  0  0  0
   39.6220   21.4050   37.1980 H   0  0  0  0  0  0  0  0  0  0  0  0
   38.3420   22.5930   39.2800 N   0  0  0  0  0  0  0  0  0  0  0  0
   38.4570   21.6020   39.5140 H   0  0  0  0  0  0  0  0  0  0  0  0
   37.9970   23.2200   40.0090 H   0  0  0  0  0  0  0  0  0  0  0  0
  2  1  1  0  0  0  0
  2  7  1  0  0  0  0
  3  2  2  0  0  0  0
  4  3  1  0  0  0  0
  4  5  2  0  0  0  0
  5  6  1  0  0  0  0
  6  7  2  0  0  0  0
  6 10  1  0  0  0  0
  7 22  1  0  0  0  0
  8  4  1  0  0  0  0
  9  5  1  0  0  0  0
 11 12  1  0  0  0  0
 12 18  1  0  0  0  0
 12 13  2  0  0  0  0
 13  3  1  0  0  0  0
 14 13  1  0  0  0  0
 15 14  2  0  0  0  0
 16 11  2  0  0  0  0
 16 15  1  0  0  0  0
 17 11  1  0  0  0  0
 19 15  1  0  0  0  0
 20 24  1  0  0  0  0
 21 20  2  0  0  0  0
 22 23  1  0  0  0  0
 22 20  1  0  0  0  0
 24 25  1  0  0  0  0
 24 26  1  0  0  0  0
M  END
>  <minimizedAffinity>
-4.59816313

$$$$
