
     RDKit          3D

 26 27  0  0  0  0  0  0  0  0999 V2000
   38.4613   30.4374   47.3078 F   0  0  0  0  0  0  0  0  0  0  0  0
   38.7557   31.6673   47.7874 C   0  0  0  0  0  0  0  0  0  0  0  0
   38.2358   32.0780   48.9972 C   0  0  0  0  0  0  0  0  0  0  0  0
   38.5724   33.3394   49.4304 C   0  0  0  0  0  0  0  0  0  0  0  0
   39.3920   34.1681   48.6988 C   0  0  0  0  0  0  0  0  0  0  0  0
   39.9047   33.7512   47.4965 C   0  0  0  0  0  0  0  0  0  0  0  0
   39.5816   32.4811   47.0335 C   0  0  0  0  0  0  0  0  0  0  0  0
   36.9297   29.5967   51.5321 C   0  0  0  0  0  0  0  0  0  0  0  0
   37.7761   30.4804   50.8566 C   0  0  0  0  0  0  0  0  0  0  0  0
   37.3761   31.1530   49.7201 C   0  0  0  0  0  0  0  0  0  0  0  0
   36.0965   30.9074   49.2852 N   0  0  0  0  0  0  0  0  0  0  0  0
   35.2832   30.0560   49.9373 C   0  0  0  0  0  0  0  0  0  0  0  0
   35.6845   29.4190   51.0272 N   0  0  0  0  0  0  0  0  0  0  0  0
   39.1868   32.1582   44.6872 C   0  0  0  0  0  0  0  0  0  0  0  0
   38.0811   32.7132   44.9914 O   0  0  0  0  0  0  0  0  0  0  0  0
   40.0907   31.9966   45.7834 N   0  0  0  0  0  0  0  0  0  0  0  0
   38.1643   33.6609   50.3791 H   0  0  0  0  0  0  0  0  0  0  0  0
   39.6372   35.1419   49.0582 H   0  0  0  0  0  0  0  0  0  0  0  0
   40.5494   34.4082   46.9251 H   0  0  0  0  0  0  0  0  0  0  0  0
   37.2765   29.0824   52.4257 H   0  0  0  0  0  0  0  0  0  0  0  0
   38.7868   30.6512   51.2311 H   0  0  0  0  0  0  0  0  0  0  0  0
   34.3052   29.9585   49.4846 H   0  0  0  0  0  0  0  0  0  0  0  0
   41.0096   31.5573   45.5925 H   0  0  0  0  0  0  0  0  0  0  0  0
   39.4559   31.7537   43.3731 N   0  0  0  0  0  0  0  0  0  0  0  0
   38.9815   30.9579   42.9360 H   0  0  0  0  0  0  0  0  0  0  0  0
   40.1482   32.2616   42.8190 H   0  0  0  0  0  0  0  0  0  0  0  0
  1  2  1  0
  2  3  2  0
  3  4  1  0
  3 10  1  0
  5  4  2  0
  6  5  1  0
  7  6  2  0
  7  2  1  0
  9  8  2  0
 10  9  1  0
 11 10  2  0
 11 12  1  0
 12 13  2  0
 13  8  1  0
 14 15  2  0
 14 16  1  0
 16  7  1  0
  4 17  1  0
  5 18  1  0
  6 19  1  0
  8 20  1  0
  9 21  1  0
 12 22  1  0
 16 23  1  0
 24 25  1  0
 24 26  1  0
 14 24  1  0
M  ISO  8  17  14  18  14  19  14  20  14  21  14  22  14  25   5  26   5
M  END
>  <DihAtoms>  (1) 
14,13,23,24

>  <DihDeg>  (1) 
169.23260084712655

$$$$
