REMARK  Name = 
REMARK  2 active torsions:
REMARK  status: ('A' for Active; 'I' for Inactive)
REMARK    1  A    between atoms: C_2  and  C_7
REMARK    2  A    between atoms: C_10  and  N_19
REMARK                            x       y       z     vdW  Elec       q    Type
REMARK                         _______ _______ _______ _____ _____    ______ ____
ROOT
ATOM      1  C   UNL     1      38.080  31.969  49.010  0.00  0.00    +0.000 A 
ATOM      2  C   UNL     1      38.540  33.145  49.587  0.00  0.00    +0.000 A 
ATOM      3  C   UNL     1      39.380  34.042  48.939  0.00  0.00    +0.000 A 
ATOM      4  C   UNL     1      39.791  33.761  47.641  0.00  0.00    +0.000 A 
ATOM      5  C   UNL     1      39.320  32.593  47.101  0.00  0.00    +0.000 A 
ATOM      6  N   UNL     1      38.510  31.752  47.758  0.00  0.00    +0.000 NA
ATOM      7  H   UNL     1      38.256  33.412  50.585  0.00  0.00    +0.000 HD
ATOM      8  H   UNL     1      39.728  34.951  49.404  0.00  0.00    +0.000 HD
ATOM      9  H   UNL     1      39.575  32.278  46.103  0.00  0.00    +0.000 HD
ENDROOT
BRANCH   1  11
ATOM     10  C   UNL     1      37.520  30.428  50.928  0.00  0.00    +0.000 A 
ATOM     11  C   UNL     1      37.208  31.057  49.710  0.00  0.00    +0.000 A 
ATOM     12  C   UNL     1      35.968  30.781  49.134  0.00  0.00    +0.000 A 
ATOM     13  N   UNL     1      35.122  29.917  49.782  0.00  0.00    +0.000 NA
ATOM     14  C   UNL     1      35.477  29.338  50.958  0.00  0.00    +0.000 A 
ATOM     15  N   UNL     1      36.658  29.587  51.526  0.00  0.00    +0.000 NA
ATOM     16  H   UNL     1      38.494  30.669  51.341  0.00  0.00    +0.000 HD
ATOM     17  H   UNL     1      35.605  31.202  48.196  0.00  0.00    +0.000 HD
ATOM     18  H   UNL     1      34.707  28.687  51.338  0.00  0.00    +0.000 HD
ENDBRANCH   1  11
BRANCH   4  19
ATOM     19  N   UNL     1      40.642  34.593  46.881  0.00  0.00    +0.000 N 
ATOM     20  H   UNL     1      40.610  35.622  47.070  0.00  0.00    +0.000 HD
ATOM     21  H   UNL     1      41.203  34.010  46.209  0.00  0.00    +0.000 HD
ENDBRANCH   4  19
TORSDOF 2
