
 OpenBabel03272505353D

 29 30  0  0  1  0  0  0  0  0999 V2000
   37.3200   25.8090   33.2930 C   0  0  0  0  0  0  0  0  0  0  0  0
   37.0070   24.8440   32.3400 C   0  0  0  0  0  0  0  0  0  0  0  0
   37.3080   23.5110   32.6320 C   0  0  0  0  0  0  0  0  0  0  0  0
   37.8920   23.2340   33.8410 N   0  0  0  0  0  0  0  0  0  0  0  0
   38.1730   24.1980   34.7260 C   0  0  0  0  0  0  0  0  0  0  0  0
   37.8980   25.4670   34.4700 N   0  0  0  0  0  0  0  0  0  0  0  0
   38.7800   23.7980   35.9510 N   0  0  0  0  0  0  0  0  0  0  0  0
   40.2180   23.7230   36.0530 C   0  0  0  0  0  0  0  0  0  0  0  0
   40.6840   22.4800   36.7690 C   0  0  0  0  0  0  0  0  0  0  0  0
   39.9660   22.2700   37.9850 N   0  0  0  0  0  0  0  0  0  0  0  0
   38.9570   23.2460   38.2780 C   0  0  0  0  0  0  0  0  0  0  0  0
   37.9900   23.4540   37.1360 C   0  0  2  0  0  0  0  0  0  0  0  0
   36.5440   25.1230   31.3970 H   0  0  0  0  0  0  0  0  0  0  0  0
   37.0780   22.7490   31.9180 H   0  0  0  0  0  0  0  0  0  0  0  0
   40.6930   23.7970   35.0580 H   0  0  0  0  0  0  0  0  0  0  0  0
   40.5160   24.5940   36.6940 H   0  0  0  0  0  0  0  0  0  0  0  0
   41.7710   22.5120   36.8620 H   0  0  0  0  0  0  0  0  0  0  0  0
   40.4710   21.6100   36.0820 H   0  0  0  0  0  0  0  0  0  0  0  0
   40.6760   22.3210   38.7580 H   0  0  0  0  0  0  0  0  0  0  0  0
   39.3860   24.2560   38.5120 H   0  0  0  0  0  0  0  0  0  0  0  0
   38.4170   22.9190   39.1820 H   0  0  0  0  0  0  0  0  0  0  0  0
   37.4180   24.3980   37.3740 H   0  0  0  0  0  0  0  0  0  0  0  0
   37.0040   27.2460   32.9960 C   0  0  0  0  0  0  0  0  0  0  0  0
   38.1250   27.8410   32.4060 F   0  0  0  0  0  0  0  0  0  0  0  0
   35.8880   27.2870   32.2330 F   0  0  0  0  0  0  0  0  0  0  0  0
   36.8240   27.8750   34.2200 F   0  0  0  0  0  0  0  0  0  0  0  0
   37.0880   22.3700   36.9370 N   0  0  0  0  0  0  0  0  0  0  0  0
   37.2850   21.5200   37.4710 H   0  0  0  0  0  0  0  0  0  0  0  0
   36.9780   22.2120   35.8950 H   0  0  0  0  0  0  0  0  0  0  0  0
  1  6  1  0  0  0  0
  2  3  1  0  0  0  0
  2  1  2  0  0  0  0
  3  4  2  0  0  0  0
  4  5  1  0  0  0  0
  5  7  1  0  0  0  0
  6  5  2  0  0  0  0
  7  8  1  0  0  0  0
  7 12  1  0  0  0  0
  8 16  1  0  0  0  0
  8  9  1  0  0  0  0
  9 17  1  0  0  0  0
  9 10  1  0  0  0  0
 10 11  1  0  0  0  0
 10 19  1  0  0  0  0
 11 20  1  0  0  0  0
 11 21  1  0  0  0  0
 12 22  1  1  0  0  0
 12 11  1  0  0  0  0
 13  2  1  0  0  0  0
 14  3  1  0  0  0  0
 15  8  1  0  0  0  0
 18  9  1  0  0  0  0
 23  1  1  0  0  0  0
 23 26  1  0  0  0  0
 24 23  1  0  0  0  0
 25 23  1  0  0  0  0
 27 12  1  0  0  0  0
 27 28  1  0  0  0  0
 29 27  1  0  0  0  0
M  END
>  <minimizedAffinity>
-5.3342123

$$$$

 OpenBabel03272505353D

 29 30  0  0  1  0  0  0  0  0999 V2000
   37.1540   23.5450   32.2980 C   0  0  0  0  0  0  0  0  0  0  0  0
   37.0050   22.2410   31.8350 C   0  0  0  0  0  0  0  0  0  0  0  0
   37.3560   21.1950   32.6920 C   0  0  0  0  0  0  0  0  0  0  0  0
   37.8250   21.5180   33.9400 N   0  0  0  0  0  0  0  0  0  0  0  0
   37.9500   22.7880   34.3400 C   0  0  0  0  0  0  0  0  0  0  0  0
   37.6240   23.7940   33.5440 N   0  0  0  0  0  0  0  0  0  0  0  0
   38.4480   23.0090   35.6560 N   0  0  0  0  0  0  0  0  0  0  0  0
   39.8690   23.1310   35.8790 C   0  0  0  0  0  0  0  0  0  0  0  0
   40.3330   22.3630   37.0910 C   0  0  0  0  0  0  0  0  0  0  0  0
   39.5050   22.6160   38.2260 N   0  0  0  0  0  0  0  0  0  0  0  0
   38.4110   23.5160   38.0000 C   0  0  0  0  0  0  0  0  0  0  0  0
   37.5600   23.1210   36.8160 C   0  0  2  0  0  0  0  0  0  0  0  0
   36.6270   22.0450   30.8340 H   0  0  0  0  0  0  0  0  0  0  0  0
   37.2510   20.1830   32.3630 H   0  0  0  0  0  0  0  0  0  0  0  0
   40.4410   22.8250   34.9840 H   0  0  0  0  0  0  0  0  0  0  0  0
   40.0410   24.2180   36.1010 H   0  0  0  0  0  0  0  0  0  0  0  0
   41.4000   22.5420   37.2360 H   0  0  0  0  0  0  0  0  0  0  0  0
   40.2490   21.2670   36.8330 H   0  0  0  0  0  0  0  0  0  0  0  0
   40.1240   23.0610   38.9490 H   0  0  0  0  0  0  0  0  0  0  0  0
   38.7490   24.5680   37.8040 H   0  0  0  0  0  0  0  0  0  0  0  0
   37.8010   23.5490   38.9170 H   0  0  0  0  0  0  0  0  0  0  0  0
   36.9080   24.0130   36.5840 H   0  0  0  0  0  0  0  0  0  0  0  0
   36.7820   24.6800   31.3890 C   0  0  0  0  0  0  0  0  0  0  0  0
   36.5410   25.8180   32.1650 F   0  0  0  0  0  0  0  0  0  0  0  0
   37.7660   24.8310   30.4730 F   0  0  0  0  0  0  0  0  0  0  0  0
   35.5700   24.3390   30.8030 F   0  0  0  0  0  0  0  0  0  0  0  0
   36.7540   21.9690   37.0420 N   0  0  0  0  0  0  0  0  0  0  0  0
   36.9460   21.4500   37.9030 H   0  0  0  0  0  0  0  0  0  0  0  0
   36.7640   21.3740   36.1660 H   0  0  0  0  0  0  0  0  0  0  0  0
  1  6  1  0  0  0  0
  2  1  2  0  0  0  0
  2  3  1  0  0  0  0
  3  4  2  0  0  0  0
  4  5  1  0  0  0  0
  5  7  1  0  0  0  0
  6  5  2  0  0  0  0
  7  8  1  0  0  0  0
  7 12  1  0  0  0  0
  8 16  1  0  0  0  0
  8  9  1  0  0  0  0
  9 17  1  0  0  0  0
  9 10  1  0  0  0  0
 10 19  1  0  0  0  0
 11 10  1  0  0  0  0
 11 21  1  0  0  0  0
 12 22  1  6  0  0  0
 12 27  1  0  0  0  0
 12 11  1  0  0  0  0
 13  2  1  0  0  0  0
 14  3  1  0  0  0  0
 15  8  1  0  0  0  0
 18  9  1  0  0  0  0
 20 11  1  0  0  0  0
 23 24  1  0  0  0  0
 23  1  1  0  0  0  0
 25 23  1  0  0  0  0
 26 23  1  0  0  0  0
 27 28  1  0  0  0  0
 29 27  1  0  0  0  0
M  END
>  <minimizedAffinity>
-5.15036535

$$$$

 OpenBabel03272505353D

 29 30  0  0  1  0  0  0  0  0999 V2000
   38.8440   23.1290   37.2190 C   0  0  0  0  0  0  0  0  0  0  0  0
   40.1530   22.6560   37.1850 C   0  0  0  0  0  0  0  0  0  0  0  0
   40.6380   22.1540   35.9750 C   0  0  0  0  0  0  0  0  0  0  0  0
   39.7950   22.1580   34.8930 N   0  0  0  0  0  0  0  0  0  0  0  0
   38.5440   22.6240   34.9760 C   0  0  0  0  0  0  0  0  0  0  0  0
   38.0630   23.1040   36.1120 N   0  0  0  0  0  0  0  0  0  0  0  0
   37.7550   22.5810   33.7910 N   0  0  0  0  0  0  0  0  0  0  0  0
   36.9620   21.4120   33.4940 C   0  0  0  0  0  0  0  0  0  0  0  0
   37.0590   20.9990   32.0460 C   0  0  0  0  0  0  0  0  0  0  0  0
   36.8780   22.1090   31.1670 N   0  0  0  0  0  0  0  0  0  0  0  0
   36.6590   23.3720   31.8100 C   0  0  0  0  0  0  0  0  0  0  0  0
   37.7120   23.6970   32.8420 C   0  0  2  0  0  0  0  0  0  0  0  0
   40.7760   22.6770   38.0760 H   0  0  0  0  0  0  0  0  0  0  0  0
   41.6410   21.7840   35.9200 H   0  0  0  0  0  0  0  0  0  0  0  0
   37.2320   20.5680   34.1550 H   0  0  0  0  0  0  0  0  0  0  0  0
   35.8980   21.7220   33.6690 H   0  0  0  0  0  0  0  0  0  0  0  0
   36.3960   20.1480   31.8760 H   0  0  0  0  0  0  0  0  0  0  0  0
   38.1030   20.5960   31.8920 H   0  0  0  0  0  0  0  0  0  0  0  0
   36.0170   21.8980   30.6020 H   0  0  0  0  0  0  0  0  0  0  0  0
   35.6730   23.4210   32.3430 H   0  0  0  0  0  0  0  0  0  0  0  0
   36.6320   24.1510   31.0310 H   0  0  0  0  0  0  0  0  0  0  0  0
   37.3080   24.5610   33.4460 H   0  0  0  0  0  0  0  0  0  0  0  0
   38.3060   23.6710   38.5120 C   0  0  0  0  0  0  0  0  0  0  0  0
   37.9330   25.0060   38.3190 F   0  0  0  0  0  0  0  0  0  0  0  0
   37.2990   22.8680   38.9240 F   0  0  0  0  0  0  0  0  0  0  0  0
   39.3660   23.6840   39.4080 F   0  0  0  0  0  0  0  0  0  0  0  0
   38.9800   24.0350   32.2880 N   0  0  0  0  0  0  0  0  0  0  0  0
   39.0870   23.8750   31.2830 H   0  0  0  0  0  0  0  0  0  0  0  0
   39.7360   23.5880   32.8810 H   0  0  0  0  0  0  0  0  0  0  0  0
  1 23  1  0  0  0  0
  2  1  1  0  0  0  0
  2 13  1  0  0  0  0
  3  2  2  0  0  0  0
  4  5  2  0  0  0  0
  4  3  1  0  0  0  0
  5  6  1  0  0  0  0
  6  1  2  0  0  0  0
  7  5  1  0  0  0  0
  8 16  1  0  0  0  0
  8  7  1  0  0  0  0
  8 15  1  0  0  0  0
  9  8  1  0  0  0  0
 10 11  1  0  0  0  0
 10  9  1  0  0  0  0
 11 20  1  0  0  0  0
 11 12  1  0  0  0  0
 12 22  1  1  0  0  0
 12  7  1  0  0  0  0
 14  3  1  0  0  0  0
 17  9  1  0  0  0  0
 18  9  1  0  0  0  0
 19 10  1  0  0  0  0
 21 11  1  0  0  0  0
 23 25  1  0  0  0  0
 23 26  1  0  0  0  0
 24 23  1  0  0  0  0
 27 12  1  0  0  0  0
 27 29  1  0  0  0  0
 28 27  1  0  0  0  0
M  END
>  <minimizedAffinity>
-5.03817701

$$$$

 OpenBabel03272505353D

 29 30  0  0  1  0  0  0  0  0999 V2000
   38.1860   25.1030   36.3270 C   0  0  0  0  0  0  0  0  0  0  0  0
   38.3360   26.4750   36.5020 C   0  0  0  0  0  0  0  0  0  0  0  0
   38.4130   27.2780   35.3620 C   0  0  0  0  0  0  0  0  0  0  0  0
   38.3340   26.6650   34.1380 N   0  0  0  0  0  0  0  0  0  0  0  0
   38.1900   25.3410   34.0210 C   0  0  0  0  0  0  0  0  0  0  0  0
   38.1150   24.5600   35.0870 N   0  0  0  0  0  0  0  0  0  0  0  0
   38.1190   24.8090   32.7010 N   0  0  0  0  0  0  0  0  0  0  0  0
   39.3280   24.4180   32.0150 C   0  0  0  0  0  0  0  0  0  0  0  0
   39.3490   24.8710   30.5760 C   0  0  0  0  0  0  0  0  0  0  0  0
   38.1280   24.5560   29.9060 N   0  0  0  0  0  0  0  0  0  0  0  0
   37.1380   23.9020   30.7100 C   0  0  0  0  0  0  0  0  0  0  0  0
   36.8460   24.6360   31.9970 C   0  0  2  0  0  0  0  0  0  0  0  0
   38.3930   26.9070   37.4990 H   0  0  0  0  0  0  0  0  0  0  0  0
   38.5280   28.3370   35.4670 H   0  0  0  0  0  0  0  0  0  0  0  0
   40.2250   24.7840   32.5480 H   0  0  0  0  0  0  0  0  0  0  0  0
   39.3110   23.2970   32.0000 H   0  0  0  0  0  0  0  0  0  0  0  0
   40.2590   24.4970   30.1010 H   0  0  0  0  0  0  0  0  0  0  0  0
   39.4620   25.9940   30.5900 H   0  0  0  0  0  0  0  0  0  0  0  0
   38.3810   23.8930   29.1300 H   0  0  0  0  0  0  0  0  0  0  0  0
   37.4370   22.8610   31.0050 H   0  0  0  0  0  0  0  0  0  0  0  0
   36.2190   23.8040   30.1080 H   0  0  0  0  0  0  0  0  0  0  0  0
   36.2630   23.9180   32.6460 H   0  0  0  0  0  0  0  0  0  0  0  0
   38.1030   24.2250   37.5420 C   0  0  0  0  0  0  0  0  0  0  0  0
   38.0040   25.0360   38.6770 F   0  0  0  0  0  0  0  0  0  0  0  0
   37.0670   23.3700   37.3790 F   0  0  0  0  0  0  0  0  0  0  0  0
   39.3180   23.5610   37.6370 F   0  0  0  0  0  0  0  0  0  0  0  0
   36.1130   25.8440   31.8210 N   0  0  0  0  0  0  0  0  0  0  0  0
   35.9990   26.1620   30.8550 H   0  0  0  0  0  0  0  0  0  0  0  0
   36.5110   26.5770   32.4740 H   0  0  0  0  0  0  0  0  0  0  0  0
  1  2  1  0  0  0  0
  1 23  1  0  0  0  0
  2 13  1  0  0  0  0
  3 14  1  0  0  0  0
  3  2  2  0  0  0  0
  4  3  1  0  0  0  0
  5  4  2  0  0  0  0
  5  6  1  0  0  0  0
  6  1  2  0  0  0  0
  7  5  1  0  0  0  0
  8 15  1  0  0  0  0
  8  7  1  0  0  0  0
  9 18  1  0  0  0  0
  9  8  1  0  0  0  0
 10  9  1  0  0  0  0
 10 11  1  0  0  0  0
 11 20  1  0  0  0  0
 11 12  1  0  0  0  0
 12 22  1  1  0  0  0
 12  7  1  0  0  0  0
 16  8  1  0  0  0  0
 17  9  1  0  0  0  0
 19 10  1  0  0  0  0
 21 11  1  0  0  0  0
 23 26  1  0  0  0  0
 23 24  1  0  0  0  0
 25 23  1  0  0  0  0
 27 12  1  0  0  0  0
 27 29  1  0  0  0  0
 28 27  1  0  0  0  0
M  END
>  <minimizedAffinity>
-4.95172453

$$$$

 OpenBabel03272505353D

 29 30  0  0  1  0  0  0  0  0999 V2000
   38.8510   23.8050   36.4690 C   0  0  0  0  0  0  0  0  0  0  0  0
   40.1980   23.5480   36.2290 C   0  0  0  0  0  0  0  0  0  0  0  0
   40.6610   23.6490   34.9140 C   0  0  0  0  0  0  0  0  0  0  0  0
   39.7600   23.9960   33.9400 N   0  0  0  0  0  0  0  0  0  0  0  0
   38.4740   24.2340   34.2220 C   0  0  0  0  0  0  0  0  0  0  0  0
   38.0130   24.1440   35.4600 N   0  0  0  0  0  0  0  0  0  0  0  0
   37.6250   24.5870   33.1340 N   0  0  0  0  0  0  0  0  0  0  0  0
   36.9430   23.5570   32.3870 C   0  0  0  0  0  0  0  0  0  0  0  0
   36.9970   23.7900   30.8980 C   0  0  0  0  0  0  0  0  0  0  0  0
   36.6480   25.1320   30.5600 N   0  0  0  0  0  0  0  0  0  0  0  0
   36.3360   25.9830   31.6710 C   0  0  0  0  0  0  0  0  0  0  0  0
   37.4090   25.9800   32.7340 C   0  0  2  0  0  0  0  0  0  0  0  0
   40.8670   23.2760   37.0410 H   0  0  0  0  0  0  0  0  0  0  0  0
   41.6920   23.4580   34.7000 H   0  0  0  0  0  0  0  0  0  0  0  0
   37.3380   22.5550   32.6370 H   0  0  0  0  0  0  0  0  0  0  0  0
   35.8650   23.6380   32.6870 H   0  0  0  0  0  0  0  0  0  0  0  0
   36.4170   23.0110   30.3970 H   0  0  0  0  0  0  0  0  0  0  0  0
   38.0660   23.6140   30.5800 H   0  0  0  0  0  0  0  0  0  0  0  0
   35.7820   25.0710   29.9680 H   0  0  0  0  0  0  0  0  0  0  0  0
   35.3840   25.6910   32.1870 H   0  0  0  0  0  0  0  0  0  0  0  0
   36.1820   27.0050   31.2860 H   0  0  0  0  0  0  0  0  0  0  0  0
   36.9530   26.4650   33.6460 H   0  0  0  0  0  0  0  0  0  0  0  0
   38.3370   23.7000   37.8760 C   0  0  0  0  0  0  0  0  0  0  0  0
   38.0540   24.9850   38.3490 F   0  0  0  0  0  0  0  0  0  0  0  0
   37.2760   22.8610   37.8790 F   0  0  0  0  0  0  0  0  0  0  0  0
   39.3860   23.2190   38.6470 F   0  0  0  0  0  0  0  0  0  0  0  0
   38.6000   26.6650   32.3570 N   0  0  0  0  0  0  0  0  0  0  0  0
   38.6630   26.9460   31.3750 H   0  0  0  0  0  0  0  0  0  0  0  0
   39.4320   26.1080   32.7040 H   0  0  0  0  0  0  0  0  0  0  0  0
  1 23  1  0  0  0  0
  2  1  1  0  0  0  0
  2 13  1  0  0  0  0
  3  2  2  0  0  0  0
  4  5  2  0  0  0  0
  4  3  1  0  0  0  0
  5  6  1  0  0  0  0
  6  1  2  0  0  0  0
  7  5  1  0  0  0  0
  8 15  1  0  0  0  0
  8 16  1  0  0  0  0
  8  7  1  0  0  0  0
  9  8  1  0  0  0  0
 10  9  1  0  0  0  0
 10 11  1  0  0  0  0
 11 20  1  0  0  0  0
 11 12  1  0  0  0  0
 12  7  1  0  0  0  0
 12 22  1  1  0  0  0
 14  3  1  0  0  0  0
 17  9  1  0  0  0  0
 18  9  1  0  0  0  0
 19 10  1  0  0  0  0
 21 11  1  0  0  0  0
 23 25  1  0  0  0  0
 23 24  1  0  0  0  0
 23 26  1  0  0  0  0
 27 29  1  0  0  0  0
 27 12  1  0  0  0  0
 28 27  1  0  0  0  0
M  END
>  <minimizedAffinity>
-4.93931818

$$$$

 OpenBabel03272505353D

 29 30  0  0  1  0  0  0  0  0999 V2000
   37.1740   25.0210   32.6860 C   0  0  0  0  0  0  0  0  0  0  0  0
   37.4090   26.3850   32.8370 C   0  0  0  0  0  0  0  0  0  0  0  0
   38.1120   26.8080   33.9680 C   0  0  0  0  0  0  0  0  0  0  0  0
   38.5290   25.8540   34.8600 N   0  0  0  0  0  0  0  0  0  0  0  0
   38.2790   24.5540   34.6700 C   0  0  0  0  0  0  0  0  0  0  0  0
   37.6140   24.1300   33.6070 N   0  0  0  0  0  0  0  0  0  0  0  0
   38.7570   23.6480   35.6600 N   0  0  0  0  0  0  0  0  0  0  0  0
   37.9300   23.3170   36.7960 C   0  0  0  0  0  0  0  0  0  0  0  0
   38.7000   23.3130   38.0920 C   0  0  0  0  0  0  0  0  0  0  0  0
   39.9190   22.5780   37.9800 N   0  0  0  0  0  0  0  0  0  0  0  0
   40.1780   22.0130   36.6880 C   0  0  0  0  0  0  0  0  0  0  0  0
   40.0810   23.0260   35.5720 C   0  0  2  0  0  0  0  0  0  0  0  0
   37.0540   27.0970   32.0960 H   0  0  0  0  0  0  0  0  0  0  0  0
   38.3070   27.8510   34.1100 H   0  0  0  0  0  0  0  0  0  0  0  0
   37.0590   23.9940   36.8660 H   0  0  0  0  0  0  0  0  0  0  0  0
   37.5920   22.2620   36.6190 H   0  0  0  0  0  0  0  0  0  0  0  0
   38.0330   23.0010   38.8990 H   0  0  0  0  0  0  0  0  0  0  0  0
   38.9580   24.3880   38.3210 H   0  0  0  0  0  0  0  0  0  0  0  0
   39.8430   21.7770   38.6560 H   0  0  0  0  0  0  0  0  0  0  0  0
   39.4640   21.1880   36.4250 H   0  0  0  0  0  0  0  0  0  0  0  0
   41.1830   21.5610   36.7090 H   0  0  0  0  0  0  0  0  0  0  0  0
   40.0480   22.4350   34.6100 H   0  0  0  0  0  0  0  0  0  0  0  0
   36.4200   24.5490   31.4770 C   0  0  0  0  0  0  0  0  0  0  0  0
   35.4910   25.5290   31.1140 F   0  0  0  0  0  0  0  0  0  0  0  0
   37.3150   24.2460   30.5090 F   0  0  0  0  0  0  0  0  0  0  0  0
   35.6860   23.4400   31.8750 F   0  0  0  0  0  0  0  0  0  0  0  0
   41.1580   23.9570   35.5410 N   0  0  0  0  0  0  0  0  0  0  0  0
   41.7870   23.9420   36.3480 H   0  0  0  0  0  0  0  0  0  0  0  0
   40.7670   24.9150   35.3130 H   0  0  0  0  0  0  0  0  0  0  0  0
  1  2  2  0  0  0  0
  1  6  1  0  0  0  0
  2  3  1  0  0  0  0
  3 14  1  0  0  0  0
  3  4  2  0  0  0  0
  5  4  1  0  0  0  0
  5  7  1  0  0  0  0
  6  5  2  0  0  0  0
  7  8  1  0  0  0  0
  8 15  1  0  0  0  0
  8  9  1  0  0  0  0
  9 18  1  0  0  0  0
  9 17  1  0  0  0  0
 10  9  1  0  0  0  0
 10 19  1  0  0  0  0
 11 21  1  0  0  0  0
 11 10  1  0  0  0  0
 12 22  1  6  0  0  0
 12  7  1  0  0  0  0
 12 11  1  0  0  0  0
 13  2  1  0  0  0  0
 16  8  1  0  0  0  0
 20 11  1  0  0  0  0
 23 26  1  0  0  0  0
 23  1  1  0  0  0  0
 24 23  1  0  0  0  0
 25 23  1  0  0  0  0
 27 12  1  0  0  0  0
 27 28  1  0  0  0  0
 29 27  1  0  0  0  0
M  END
>  <minimizedAffinity>
-4.85886335

$$$$

 OpenBabel03272505353D

 29 30  0  0  1  0  0  0  0  0999 V2000
   38.1150   23.9420   36.8160 C   0  0  0  0  0  0  0  0  0  0  0  0
   38.1490   25.2600   36.3670 C   0  0  0  0  0  0  0  0  0  0  0  0
   38.1840   25.4820   34.9880 C   0  0  0  0  0  0  0  0  0  0  0  0
   38.1830   24.3880   34.1600 N   0  0  0  0  0  0  0  0  0  0  0  0
   38.1490   23.1410   34.6410 C   0  0  0  0  0  0  0  0  0  0  0  0
   38.1150   22.9060   35.9430 N   0  0  0  0  0  0  0  0  0  0  0  0
   38.1510   22.0780   33.6920 N   0  0  0  0  0  0  0  0  0  0  0  0
   39.4020   21.5270   33.2280 C   0  0  0  0  0  0  0  0  0  0  0  0
   39.4160   21.3000   31.7370 C   0  0  0  0  0  0  0  0  0  0  0  0
   38.2410   20.6230   31.2940 N   0  0  0  0  0  0  0  0  0  0  0  0
   37.2890   20.3100   32.3200 C   0  0  0  0  0  0  0  0  0  0  0  0
   36.9110   21.5090   33.1570 C   0  0  2  0  0  0  0  0  0  0  0  0
   38.1490   26.0880   37.0700 H   0  0  0  0  0  0  0  0  0  0  0  0
   38.2110   26.4840   34.6140 H   0  0  0  0  0  0  0  0  0  0  0  0
   40.2540   22.1620   33.5300 H   0  0  0  0  0  0  0  0  0  0  0  0
   39.4770   20.5160   33.7080 H   0  0  0  0  0  0  0  0  0  0  0  0
   40.3640   20.8320   31.4600 H   0  0  0  0  0  0  0  0  0  0  0  0
   39.4380   22.3200   31.2530 H   0  0  0  0  0  0  0  0  0  0  0  0
   38.5630   19.7100   30.8850 H   0  0  0  0  0  0  0  0  0  0  0  0
   37.6650   19.5340   33.0370 H   0  0  0  0  0  0  0  0  0  0  0  0
   36.3950   19.8820   31.8370 H   0  0  0  0  0  0  0  0  0  0  0  0
   36.3750   21.1050   34.0650 H   0  0  0  0  0  0  0  0  0  0  0  0
   38.0770   23.6860   38.2950 C   0  0  0  0  0  0  0  0  0  0  0  0
   37.7830   24.8840   38.9530 F   0  0  0  0  0  0  0  0  0  0  0  0
   37.1910   22.6910   38.5310 F   0  0  0  0  0  0  0  0  0  0  0  0
   39.3670   23.3360   38.6700 F   0  0  0  0  0  0  0  0  0  0  0  0
   36.0860   22.4520   32.4790 N   0  0  0  0  0  0  0  0  0  0  0  0
   35.9680   22.3010   31.4730 H   0  0  0  0  0  0  0  0  0  0  0  0
   36.4090   23.4270   32.7360 H   0  0  0  0  0  0  0  0  0  0  0  0
  1 23  1  0  0  0  0
  2  1  1  0  0  0  0
  2 13  1  0  0  0  0
  3  2  2  0  0  0  0
  4  5  2  0  0  0  0
  4  3  1  0  0  0  0
  5  6  1  0  0  0  0
  6  1  2  0  0  0  0
  7  5  1  0  0  0  0
  8 15  1  0  0  0  0
  8  7  1  0  0  0  0
  8 16  1  0  0  0  0
  9  8  1  0  0  0  0
 10  9  1  0  0  0  0
 10 11  1  0  0  0  0
 11 20  1  0  0  0  0
 11 12  1  0  0  0  0
 12  7  1  0  0  0  0
 12 22  1  1  0  0  0
 14  3  1  0  0  0  0
 17  9  1  0  0  0  0
 18  9  1  0  0  0  0
 19 10  1  0  0  0  0
 21 11  1  0  0  0  0
 23 25  1  0  0  0  0
 23 26  1  0  0  0  0
 23 24  1  0  0  0  0
 27 29  1  0  0  0  0
 27 12  1  0  0  0  0
 28 27  1  0  0  0  0
M  END
>  <minimizedAffinity>
-4.84293365

$$$$

 OpenBabel03272505353D

 29 30  0  0  1  0  0  0  0  0999 V2000
   37.0510   23.3450   32.4830 C   0  0  0  0  0  0  0  0  0  0  0  0
   37.0450   24.7240   32.2930 C   0  0  0  0  0  0  0  0  0  0  0  0
   37.6130   25.5250   33.2880 C   0  0  0  0  0  0  0  0  0  0  0  0
   38.1420   24.9030   34.3890 N   0  0  0  0  0  0  0  0  0  0  0  0
   38.1240   23.5730   34.5250 C   0  0  0  0  0  0  0  0  0  0  0  0
   37.5910   22.7940   33.5970 N   0  0  0  0  0  0  0  0  0  0  0  0
   38.7010   23.0320   35.7100 N   0  0  0  0  0  0  0  0  0  0  0  0
   37.8890   22.8460   36.8890 C   0  0  0  0  0  0  0  0  0  0  0  0
   38.5880   23.2910   38.1490 C   0  0  0  0  0  0  0  0  0  0  0  0
   39.9160   22.7760   38.2270 N   0  0  0  0  0  0  0  0  0  0  0  0
   40.3270   21.9680   37.1150 C   0  0  0  0  0  0  0  0  0  0  0  0
   40.1130   22.6480   35.7830 C   0  0  2  0  0  0  0  0  0  0  0  0
   36.6110   25.1620   31.3980 H   0  0  0  0  0  0  0  0  0  0  0  0
   37.6230   26.5880   33.1680 H   0  0  0  0  0  0  0  0  0  0  0  0
   36.9140   23.3570   36.7860 H   0  0  0  0  0  0  0  0  0  0  0  0
   37.7420   21.7370   36.9760 H   0  0  0  0  0  0  0  0  0  0  0  0
   37.9450   23.0720   39.0050 H   0  0  0  0  0  0  0  0  0  0  0  0
   38.6500   24.4180   38.1060 H   0  0  0  0  0  0  0  0  0  0  0  0
   39.9450   22.1620   39.0790 H   0  0  0  0  0  0  0  0  0  0  0  0
   39.7750   20.9930   37.0610 H   0  0  0  0  0  0  0  0  0  0  0  0
   41.3920   21.7180   37.2510 H   0  0  0  0  0  0  0  0  0  0  0  0
   40.2250   21.8450   34.9970 H   0  0  0  0  0  0  0  0  0  0  0  0
   36.4440   22.4690   31.4240 C   0  0  0  0  0  0  0  0  0  0  0  0
   37.4470   22.0860   30.5280 F   0  0  0  0  0  0  0  0  0  0  0  0
   35.8200   21.4360   32.0340 F   0  0  0  0  0  0  0  0  0  0  0  0
   35.5600   23.2650   30.7090 F   0  0  0  0  0  0  0  0  0  0  0  0
   41.0180   23.7170   35.5270 N   0  0  0  0  0  0  0  0  0  0  0  0
   41.6020   24.0080   36.3160 H   0  0  0  0  0  0  0  0  0  0  0  0
   40.4830   24.5080   35.0680 H   0  0  0  0  0  0  0  0  0  0  0  0
  1  6  1  0  0  0  0
  2  1  2  0  0  0  0
  2  3  1  0  0  0  0
  3  4  2  0  0  0  0
  4  5  1  0  0  0  0
  5  7  1  0  0  0  0
  6  5  2  0  0  0  0
  7 12  1  0  0  0  0
  7  8  1  0  0  0  0
  8 16  1  0  0  0  0
  8  9  1  0  0  0  0
  9 10  1  0  0  0  0
  9 17  1  0  0  0  0
 10 19  1  0  0  0  0
 11 21  1  0  0  0  0
 11 10  1  0  0  0  0
 12 22  1  6  0  0  0
 12 11  1  0  0  0  0
 13  2  1  0  0  0  0
 14  3  1  0  0  0  0
 15  8  1  0  0  0  0
 18  9  1  0  0  0  0
 20 11  1  0  0  0  0
 23 25  1  0  0  0  0
 23  1  1  0  0  0  0
 24 23  1  0  0  0  0
 26 23  1  0  0  0  0
 27 12  1  0  0  0  0
 27 28  1  0  0  0  0
 29 27  1  0  0  0  0
M  END
>  <minimizedAffinity>
-4.80394602

$$$$

 OpenBabel03272505353D

 29 30  0  0  1  0  0  0  0  0999 V2000
   36.1160   23.4680   31.8180 C   0  0  0  0  0  0  0  0  0  0  0  0
   35.3850   24.4150   31.1060 C   0  0  0  0  0  0  0  0  0  0  0  0
   35.6990   25.7630   31.2930 C   0  0  0  0  0  0  0  0  0  0  0  0
   36.7100   26.0720   32.1660 N   0  0  0  0  0  0  0  0  0  0  0  0
   37.3850   25.1250   32.8270 C   0  0  0  0  0  0  0  0  0  0  0  0
   37.1040   23.8420   32.6670 N   0  0  0  0  0  0  0  0  0  0  0  0
   38.4160   25.5580   33.7100 N   0  0  0  0  0  0  0  0  0  0  0  0
   38.1080   25.8560   35.0890 C   0  0  0  0  0  0  0  0  0  0  0  0
   38.7710   27.1220   35.5700 C   0  0  0  0  0  0  0  0  0  0  0  0
   40.1550   27.1580   35.2240 N   0  0  0  0  0  0  0  0  0  0  0  0
   40.6350   26.0210   34.4930 C   0  0  0  0  0  0  0  0  0  0  0  0
   39.8040   25.7160   33.2680 C   0  0  2  0  0  0  0  0  0  0  0  0
   34.5920   24.1110   30.4270 H   0  0  0  0  0  0  0  0  0  0  0  0
   35.1530   26.5120   30.7580 H   0  0  0  0  0  0  0  0  0  0  0  0
   37.0160   25.9050   35.2520 H   0  0  0  0  0  0  0  0  0  0  0  0
   38.5540   25.0140   35.6810 H   0  0  0  0  0  0  0  0  0  0  0  0
   38.5450   27.2590   36.6300 H   0  0  0  0  0  0  0  0  0  0  0  0
   38.2560   27.9790   35.0440 H   0  0  0  0  0  0  0  0  0  0  0  0
   40.6850   27.1840   36.1310 H   0  0  0  0  0  0  0  0  0  0  0  0
   40.6430   25.0830   35.1070 H   0  0  0  0  0  0  0  0  0  0  0  0
   41.6810   26.2160   34.2060 H   0  0  0  0  0  0  0  0  0  0  0  0
   40.1080   24.6830   32.9290 H   0  0  0  0  0  0  0  0  0  0  0  0
   35.7910   22.0140   31.6300 C   0  0  0  0  0  0  0  0  0  0  0  0
   35.0780   21.5640   32.7450 F   0  0  0  0  0  0  0  0  0  0  0  0
   35.1330   21.8750   30.4560 F   0  0  0  0  0  0  0  0  0  0  0  0
   37.0000   21.3330   31.6350 F   0  0  0  0  0  0  0  0  0  0  0  0
   39.9710   26.6510   32.2080 N   0  0  0  0  0  0  0  0  0  0  0  0
   40.5030   27.4960   32.4350 H   0  0  0  0  0  0  0  0  0  0  0  0
   39.0240   26.8390   31.7720 H   0  0  0  0  0  0  0  0  0  0  0  0
  1  6  1  0  0  0  0
  2  3  1  0  0  0  0
  2  1  2  0  0  0  0
  3  4  2  0  0  0  0
  4  5  1  0  0  0  0
  5  7  1  0  0  0  0
  6  5  2  0  0  0  0
  7  8  1  0  0  0  0
  8 15  1  0  0  0  0
  8  9  1  0  0  0  0
  8 16  1  0  0  0  0
  9 17  1  0  0  0  0
 10  9  1  0  0  0  0
 10 19  1  0  0  0  0
 11 20  1  0  0  0  0
 11 10  1  0  0  0  0
 12 22  1  6  0  0  0
 12  7  1  0  0  0  0
 12 11  1  0  0  0  0
 13  2  1  0  0  0  0
 14  3  1  0  0  0  0
 18  9  1  0  0  0  0
 21 11  1  0  0  0  0
 23 26  1  0  0  0  0
 23  1  1  0  0  0  0
 23 24  1  0  0  0  0
 25 23  1  0  0  0  0
 27 28  1  0  0  0  0
 27 12  1  0  0  0  0
 29 27  1  0  0  0  0
M  END
>  <minimizedAffinity>
-4.63546085

$$$$
