
 OpenBabel03272505033D

 39 41  0  0  1  0  0  0  0  0999 V2000
   39.1130   32.0980   45.8420 O   0  0  0  0  0  0  0  0  0  0  0  0
   38.6530   32.7240   44.7150 C   0  0  2  0  0  0  0  0  0  0  0  0
   37.8410   31.6000   43.9770 C   0  0  0  0  0  0  0  0  0  0  0  0
   38.8360   30.5680   43.4880 C   0  0  0  0  0  0  0  0  0  0  0  0
   39.4920   31.1160   42.2580 C   0  0  0  0  0  0  0  0  0  0  0  0
   39.5350   32.6080   42.3630 C   0  0  0  0  0  0  0  0  0  0  0  0
   39.8090   33.0230   43.8020 C   0  0  1  0  0  0  0  0  0  0  0  0
   37.9400   33.5640   44.8700 H   0  0  0  0  0  0  0  0  0  0  0  0
   37.3370   32.1330   43.1590 H   0  0  0  0  0  0  0  0  0  0  0  0
   37.0970   31.1950   44.6720 H   0  0  0  0  0  0  0  0  0  0  0  0
   39.7310   30.6380   44.1860 H   0  0  0  0  0  0  0  0  0  0  0  0
   38.4390   29.5570   43.3960 H   0  0  0  0  0  0  0  0  0  0  0  0
   38.8570   30.8520   41.3680 H   0  0  0  0  0  0  0  0  0  0  0  0
   40.4850   30.6660   42.0560 H   0  0  0  0  0  0  0  0  0  0  0  0
   40.4150   32.9710   41.7820 H   0  0  0  0  0  0  0  0  0  0  0  0
   38.6460   33.1230   41.9450 H   0  0  0  0  0  0  0  0  0  0  0  0
   40.7350   32.4760   44.1070 H   0  0  0  0  0  0  0  0  0  0  0  0
   40.1710   34.4390   43.8410 N   0  0  0  0  0  0  0  0  0  0  0  0
   41.2130   34.5450   43.8290 H   0  0  0  0  0  0  0  0  0  0  0  0
   39.7430   34.9760   43.0610 H   0  0  0  0  0  0  0  0  0  0  0  0
   37.2280   30.1940   46.9640 Cl  0  0  0  0  0  0  0  0  0  0  0  0
   37.9100   31.5450   47.8380 C   0  0  0  0  0  0  0  0  0  0  0  0
   37.5360   31.7310   49.1400 C   0  0  0  0  0  0  0  0  0  0  0  0
   38.0990   32.8100   49.7820 C   0  0  0  0  0  0  0  0  0  0  0  0
   38.9860   33.6350   49.1170 C   0  0  0  0  0  0  0  0  0  0  0  0
   39.3340   33.4150   47.8130 C   0  0  0  0  0  0  0  0  0  0  0  0
   38.7850   32.3510   47.1620 C   0  0  0  0  0  0  0  0  0  0  0  0
   37.8740   33.0560   50.8240 H   0  0  0  0  0  0  0  0  0  0  0  0
   39.4340   34.4950   49.6290 H   0  0  0  0  0  0  0  0  0  0  0  0
   40.0230   34.0600   47.3020 H   0  0  0  0  0  0  0  0  0  0  0  0
   37.0010   30.1100   50.9670 C   0  0  0  0  0  0  0  0  0  0  0  0
   36.5940   30.8580   49.8590 C   0  0  0  0  0  0  0  0  0  0  0  0
   35.2690   30.7500   49.4580 C   0  0  0  0  0  0  0  0  0  0  0  0
   34.4500   29.9280   50.1610 N   0  0  0  0  0  0  0  0  0  0  0  0
   34.8710   29.2280   51.2130 C   0  0  0  0  0  0  0  0  0  0  0  0
   36.1490   29.3080   51.6320 N   0  0  0  0  0  0  0  0  0  0  0  0
   38.0210   30.1710   51.3050 H   0  0  0  0  0  0  0  0  0  0  0  0
   34.9050   31.3070   48.6090 H   0  0  0  0  0  0  0  0  0  0  0  0
   34.2490   28.5600   51.8030 H   0  0  0  0  0  0  0  0  0  0  0  0
  1 27  1  0  0  0  0
  2  8  1  1  0  0  0
  2  1  1  0  0  0  0
  3 10  1  0  0  0  0
  3  2  1  0  0  0  0
  4  3  1  0  0  0  0
  4 11  1  0  0  0  0
  5  6  1  0  0  0  0
  5  4  1  0  0  0  0
  6  7  1  0  0  0  0
  7 18  1  0  0  0  0
  7 17  1  1  0  0  0
  7  2  1  0  0  0  0
  9  3  1  0  0  0  0
 12  4  1  0  0  0  0
 13  5  1  0  0  0  0
 14  5  1  0  0  0  0
 15  6  1  0  0  0  0
 16  6  1  0  0  0  0
 19 18  1  0  0  0  0
 20 18  1  0  0  0  0
 21 22  1  0  0  0  0
 22 23  1  0  0  0  0
 23 24  2  0  0  0  0
 23 32  1  0  0  0  0
 24 28  1  0  0  0  0
 25 29  1  0  0  0  0
 25 24  1  0  0  0  0
 26 25  2  0  0  0  0
 27 26  1  0  0  0  0
 27 22  2  0  0  0  0
 30 26  1  0  0  0  0
 31 37  1  0  0  0  0
 31 36  1  0  0  0  0
 32 31  2  0  0  0  0
 33 32  1  0  0  0  0
 33 34  2  0  0  0  0
 34 35  1  0  0  0  0
 35 36  2  0  0  0  0
 35 39  1  0  0  0  0
 38 33  1  0  0  0  0
M  END
>  <minimizedAffinity>
-5.54500246

>  <minimizedRMSD>
0.670040965

$$$$
