REMARK  Name = 
REMARK  2 active torsions:
REMARK  status: ('A' for Active; 'I' for Inactive)
REMARK    1  A    between atoms: C_5  and  C_7
REMARK    2  A    between atoms: C_12  and  N_20
REMARK                            x       y       z     vdW  Elec       q    Type
REMARK                         _______ _______ _______ _____ _____    ______ ____
ROOT
ATOM      1  C   UNL     1      36.093  30.127  48.604  0.00  0.00    +0.000 A 
ATOM      2  C   UNL     1      35.281  29.959  47.505  0.00  0.00    +0.000 A 
ATOM      3  C   UNL     1      34.294  28.984  47.511  0.00  0.00    +0.000 A 
ATOM      4  C   UNL     1      34.154  28.200  48.635  0.00  0.00    +0.000 A 
ATOM      5  C   UNL     1      34.960  28.357  49.740  0.00  0.00    +0.000 A 
ATOM      6  C   UNL     1      35.941  29.331  49.727  0.00  0.00    +0.000 A 
ATOM      7  H   UNL     1      35.408  30.592  46.624  0.00  0.00    +0.000 HD
ATOM      8  H   UNL     1      33.644  28.828  46.671  0.00  0.00    +0.000 HD
ATOM      9  H   UNL     1      33.406  27.419  48.711  0.00  0.00    +0.000 HD
ATOM     10  H   UNL     1      34.911  27.779  50.660  0.00  0.00    +0.000 HD
ENDROOT
BRANCH   1  15
ATOM     11  C   UNL     1      38.003  33.112  49.486  0.00  0.00    +0.000 A 
ATOM     12  C   UNL     1      38.971  33.209  48.466  0.00  0.00    +0.000 A 
ATOM     13  C   UNL     1      38.955  32.220  47.462  0.00  0.00    +0.000 A 
ATOM     14  N   UNL     1      38.019  31.236  47.526  0.00  0.00    +0.000 NA
ATOM     15  C   UNL     1      37.112  31.181  48.516  0.00  0.00    +0.000 A 
ATOM     16  N   UNL     1      37.103  32.119  49.497  0.00  0.00    +0.000 NA
ATOM     17  H   UNL     1      38.037  33.879  50.239  0.00  0.00    +0.000 HD
ATOM     18  H   UNL     1      39.725  33.969  48.381  0.00  0.00    +0.000 HD
ATOM     19  H   UNL     1      39.636  32.170  46.623  0.00  0.00    +0.000 HD
ENDBRANCH   1  15
BRANCH   6  20
ATOM     20  N   UNL     1      36.816  29.561  50.824  0.00  0.00    +0.000 N 
ATOM     21  H   UNL     1      36.922  28.678  51.398  0.00  0.00    +0.000 HD
ATOM     22  H   UNL     1      37.306  30.429  51.081  0.00  0.00    +0.000 HD
ENDBRANCH   6  20
TORSDOF 2
