
 OpenBabel03262523533D

 28 29  0  0  1  0  0  0  0  0999 V2000
   38.0420   30.8120   48.1400 C   0  0  1  0  0  0  0  0  0  0  0  0
   37.8530   30.4660   46.7170 C   0  0  0  0  0  0  0  0  0  0  0  0
   39.1190   30.7190   45.9700 C   0  0  0  0  0  0  0  0  0  0  0  0
   39.8690   31.8810   46.5160 C   0  0  0  0  0  0  0  0  0  0  0  0
   38.9680   32.9210   47.1320 C   0  0  0  0  0  0  0  0  0  0  0  0
   38.1460   32.3240   48.2640 C   0  0  2  0  0  0  0  0  0  0  0  0
   39.0320   30.4290   48.5130 H   0  0  0  0  0  0  0  0  0  0  0  0
   36.9640   30.9290   46.2800 H   0  0  0  0  0  0  0  0  0  0  0  0
   37.6670   29.3520   46.6790 H   0  0  0  0  0  0  0  0  0  0  0  0
   38.8150   30.9960   44.9330 H   0  0  0  0  0  0  0  0  0  0  0  0
   39.7290   29.8180   45.8520 H   0  0  0  0  0  0  0  0  0  0  0  0
   40.5010   32.3430   45.7640 H   0  0  0  0  0  0  0  0  0  0  0  0
   40.5060   31.4800   47.3400 H   0  0  0  0  0  0  0  0  0  0  0  0
   39.5600   33.7960   47.4210 H   0  0  0  0  0  0  0  0  0  0  0  0
   38.2580   33.2280   46.3380 H   0  0  0  0  0  0  0  0  0  0  0  0
   37.1300   32.7550   48.3420 H   0  0  0  0  0  0  0  0  0  0  0  0
   36.2600   29.3240   51.0400 C   0  0  0  0  0  0  0  0  0  0  0  0
   37.2930   29.7480   50.1930 C   0  0  0  0  0  0  0  0  0  0  0  0
   36.9340   30.3820   49.0140 C   0  0  0  0  0  0  0  0  0  0  0  0
   35.5990   30.5660   48.7300 N   0  0  0  0  0  0  0  0  0  0  0  0
   34.6370   30.1470   49.5620 C   0  0  0  0  0  0  0  0  0  0  0  0
   34.9630   29.5310   50.7100 N   0  0  0  0  0  0  0  0  0  0  0  0
   36.3640   28.8180   51.9880 H   0  0  0  0  0  0  0  0  0  0  0  0
   38.2270   29.4800   50.6410 H   0  0  0  0  0  0  0  0  0  0  0  0
   33.5960   30.3060   49.3120 H   0  0  0  0  0  0  0  0  0  0  0  0
   38.8840   32.7560   49.4440 N   0  0  0  0  0  0  0  0  0  0  0  0
   38.1610   33.0220   50.1500 H   0  0  0  0  0  0  0  0  0  0  0  0
   39.4870   33.5520   49.2110 H   0  0  0  0  0  0  0  0  0  0  0  0
  1  6  1  0  0  0  0
  1  7  1  1  0  0  0
  1 19  1  0  0  0  0
  2  1  1  0  0  0  0
  3  4  1  0  0  0  0
  3  2  1  0  0  0  0
  4  5  1  0  0  0  0
  4 13  1  0  0  0  0
  5 14  1  0  0  0  0
  5  6  1  0  0  0  0
  6 16  1  1  0  0  0
  6 26  1  0  0  0  0
  8  2  1  0  0  0  0
  9  2  1  0  0  0  0
 10  3  1  0  0  0  0
 11  3  1  0  0  0  0
 12  4  1  0  0  0  0
 15  5  1  0  0  0  0
 17 23  1  0  0  0  0
 18 24  1  0  0  0  0
 18 17  2  0  0  0  0
 19 18  1  0  0  0  0
 20 19  2  0  0  0  0
 20 21  1  0  0  0  0
 21 22  2  0  0  0  0
 22 17  1  0  0  0  0
 25 21  1  0  0  0  0
 26 27  1  0  0  0  0
 28 26  1  0  0  0  0
M  END
>  <minimizedAffinity>
-4.59775925

>  <minimizedRMSD>
1.00805116

$$$$
