
 OpenBabel03272502443D

 29 31  0  0  0  0  0  0  0  0999 V2000
   38.1420   32.5500   49.5100 C   0  0  0  0  0  0  0  0  0  0  0  0
   38.8030   32.9000   48.3310 C   0  0  0  0  0  0  0  0  0  0  0  0
   38.3620   32.2600   47.1540 C   0  0  0  0  0  0  0  0  0  0  0  0
   37.3460   31.3600   47.2230 N   0  0  0  0  0  0  0  0  0  0  0  0
   36.7380   31.0570   48.4070 C   0  0  0  0  0  0  0  0  0  0  0  0
   37.1540   31.6630   49.5210 N   0  0  0  0  0  0  0  0  0  0  0  0
   38.5270   33.0760   50.3750 H   0  0  0  0  0  0  0  0  0  0  0  0
   39.6120   33.6030   48.2050 H   0  0  0  0  0  0  0  0  0  0  0  0
   37.0080   28.9220   50.4350 Cl  0  0  0  0  0  0  0  0  0  0  0  0
   35.6920   29.0420   49.3320 C   0  0  0  0  0  0  0  0  0  0  0  0
   35.6590   30.0880   48.4130 C   0  0  0  0  0  0  0  0  0  0  0  0
   34.6370   30.2210   47.5230 C   0  0  0  0  0  0  0  0  0  0  0  0
   33.5930   29.3090   47.5050 C   0  0  0  0  0  0  0  0  0  0  0  0
   33.5940   28.2600   48.4010 C   0  0  0  0  0  0  0  0  0  0  0  0
   32.3350   27.0340   48.4880 Cl  0  0  0  0  0  0  0  0  0  0  0  0
   34.6460   28.1590   49.2870 C   0  0  0  0  0  0  0  0  0  0  0  0
   34.6000   31.0200   46.8130 H   0  0  0  0  0  0  0  0  0  0  0  0
   32.7530   29.3450   46.8360 H   0  0  0  0  0  0  0  0  0  0  0  0
   34.7060   27.3560   50.0180 H   0  0  0  0  0  0  0  0  0  0  0  0
   38.9780   32.5480   45.8740 C   0  0  0  0  0  0  0  0  0  0  0  0
   40.3560   32.6940   45.6950 C   0  0  0  0  0  0  0  0  0  0  0  0
   40.6590   32.9600   44.3980 N   0  0  0  0  0  0  0  0  0  0  0  0
   39.4620   32.9790   43.7600 C   0  0  0  0  0  0  0  0  0  0  0  0
   38.5010   32.7360   44.6470 N   0  0  0  0  0  0  0  0  0  0  0  0
   41.1440   32.6170   46.4590 H   0  0  0  0  0  0  0  0  0  0  0  0
   41.6130   33.1090   44.0170 H   0  0  0  0  0  0  0  0  0  0  0  0
   39.3670   33.2320   42.3610 N   0  0  0  0  0  0  0  0  0  0  0  0
   40.3010   33.5630   42.0220 H   0  0  0  0  0  0  0  0  0  0  0  0
   38.5510   33.1280   41.7240 H   0  0  0  0  0  0  0  0  0  0  0  0
  1  6  1  0  0  0  0
  1  7  1  0  0  0  0
  2  1  2  0  0  0  0
  3  4  2  0  0  0  0
  3  2  1  0  0  0  0
  4  5  1  0  0  0  0
  5 11  1  0  0  0  0
  5  6  2  0  0  0  0
  8  2  1  0  0  0  0
 10  9  1  0  0  0  0
 11 10  2  0  0  0  0
 12 11  1  0  0  0  0
 13 12  2  0  0  0  0
 13 14  1  0  0  0  0
 14 15  1  0  0  0  0
 14 16  2  0  0  0  0
 16 10  1  0  0  0  0
 16 19  1  0  0  0  0
 17 12  1  0  0  0  0
 18 13  1  0  0  0  0
 20  3  1  0  0  0  0
 21 20  2  0  0  0  0
 21 25  1  0  0  0  0
 22 21  1  0  0  0  0
 23 22  1  0  0  0  0
 23 24  2  0  0  0  0
 24 20  1  0  0  0  0
 26 22  1  0  0  0  0
 27 23  1  0  0  0  0
 28 27  1  0  0  0  0
 29 27  1  0  0  0  0
M  END
>  <minimizedAffinity>
-6.58359623

>  <minimizedRMSD>
1.12832749

$$$$
