
 OpenBabel03272510323D

 22 23  0  0  0  0  0  0  0  0999 V2000
   36.0790   30.0940   48.6220 C   0  0  0  0  0  0  0  0  0  0  0  0
   35.2280   29.9590   47.5490 C   0  0  0  0  0  0  0  0  0  0  0  0
   34.2250   29.0000   47.5720 C   0  0  0  0  0  0  0  0  0  0  0  0
   34.1100   28.1990   48.6870 C   0  0  0  0  0  0  0  0  0  0  0  0
   34.9560   28.3240   49.7660 C   0  0  0  0  0  0  0  0  0  0  0  0
   35.9520   29.2820   49.7360 C   0  0  0  0  0  0  0  0  0  0  0  0
   35.3350   30.6050   46.6750 H   0  0  0  0  0  0  0  0  0  0  0  0
   33.5440   28.8690   46.7530 H   0  0  0  0  0  0  0  0  0  0  0  0
   33.3520   27.4290   48.7760 H   0  0  0  0  0  0  0  0  0  0  0  0
   34.9280   27.7310   50.6780 H   0  0  0  0  0  0  0  0  0  0  0  0
   38.0030   33.0920   49.4300 C   0  0  0  0  0  0  0  0  0  0  0  0
   38.9960   33.1370   48.4310 C   0  0  0  0  0  0  0  0  0  0  0  0
   38.9920   32.1090   47.4670 C   0  0  0  0  0  0  0  0  0  0  0  0
   38.0430   31.1380   47.5470 N   0  0  0  0  0  0  0  0  0  0  0  0
   37.1120   31.1330   48.5170 C   0  0  0  0  0  0  0  0  0  0  0  0
   37.0910   32.1100   49.4590 N   0  0  0  0  0  0  0  0  0  0  0  0
   38.0280   33.8880   50.1530 H   0  0  0  0  0  0  0  0  0  0  0  0
   39.7600   33.8850   48.3340 H   0  0  0  0  0  0  0  0  0  0  0  0
   39.6920   32.0180   46.6470 H   0  0  0  0  0  0  0  0  0  0  0  0
   36.8670   29.4780   50.8060 N   0  0  0  0  0  0  0  0  0  0  0  0
   36.8350   30.4850   51.1340 H   0  0  0  0  0  0  0  0  0  0  0  0
   37.4970   28.7920   51.2450 H   0  0  0  0  0  0  0  0  0  0  0  0
  1  6  1  0  0  0  0
  2  3  1  0  0  0  0
  2  1  2  0  0  0  0
  3  4  2  0  0  0  0
  4  9  1  0  0  0  0
  4  5  1  0  0  0  0
  5 10  1  0  0  0  0
  6  5  2  0  0  0  0
  6 20  1  0  0  0  0
  7  2  1  0  0  0  0
  8  3  1  0  0  0  0
 11 16  1  0  0  0  0
 11 17  1  0  0  0  0
 12 11  2  0  0  0  0
 13 14  2  0  0  0  0
 13 12  1  0  0  0  0
 14 15  1  0  0  0  0
 15  1  1  0  0  0  0
 15 16  2  0  0  0  0
 18 12  1  0  0  0  0
 19 13  1  0  0  0  0
 20 21  1  0  0  0  0
 20 22  1  0  0  0  0
M  END
>  <minimizedAffinity>
-5.15820599

>  <minimizedRMSD>
0.0748983398

$$$$
