REMARK  Name = 
REMARK  2 active torsions:
REMARK  status: ('A' for Active; 'I' for Inactive)
REMARK    1  A    between atoms: C_5  and  C_9
REMARK    2  A    between atoms: C_11  and  N_20
REMARK                            x       y       z     vdW  Elec       q    Type
REMARK                         _______ _______ _______ _____ _____    ______ ____
ROOT
ATOM      1 BR   UNL     1      37.260  29.355  51.049  0.00  0.00    +0.000 Br
ATOM      2  C   UNL     1      35.955  29.313  49.668  0.00  0.00    +0.000 A 
ATOM      3  C   UNL     1      36.007  30.218  48.618  0.00  0.00    +0.000 A 
ATOM      4  C   UNL     1      35.019  30.119  47.657  0.00  0.00    +0.000 A 
ATOM      5  C   UNL     1      34.003  29.181  47.690  0.00  0.00    +0.000 A 
ATOM      6  C   UNL     1      33.990  28.307  48.746  0.00  0.00    +0.000 A 
ATOM      7  C   UNL     1      34.968  28.381  49.728  0.00  0.00    +0.000 A 
ATOM      8  H   UNL     1      35.102  30.853  46.850  0.00  0.00    +0.000 HD
ATOM      9  H   UNL     1      33.183  27.587  48.743  0.00  0.00    +0.000 HD
ATOM     10  H   UNL     1      34.889  27.656  50.528  0.00  0.00    +0.000 HD
ENDROOT
BRANCH   3  15
ATOM     11  C   UNL     1      37.976  33.169  49.442  0.00  0.00    +0.000 A 
ATOM     12  C   UNL     1      39.018  33.162  48.462  0.00  0.00    +0.000 A 
ATOM     13  C   UNL     1      39.009  32.127  47.534  0.00  0.00    +0.000 A 
ATOM     14  N   UNL     1      38.025  31.181  47.601  0.00  0.00    +0.000 NA
ATOM     15  C   UNL     1      37.058  31.222  48.542  0.00  0.00    +0.000 A 
ATOM     16  N   UNL     1      37.049  32.215  49.446  0.00  0.00    +0.000 NA
ATOM     17  H   UNL     1      37.961  33.964  50.173  0.00  0.00    +0.000 HD
ATOM     18  H   UNL     1      39.781  33.944  48.454  0.00  0.00    +0.000 HD
ATOM     19  H   UNL     1      39.776  32.072  46.768  0.00  0.00    +0.000 HD
ENDBRANCH   3  15
BRANCH   5  20
ATOM     20  N   UNL     1      33.085  29.246  46.605  0.00  0.00    +0.000 N 
ATOM     21  H   UNL     1      32.203  29.648  46.991  0.00  0.00    +0.000 HD
ATOM     22  H   UNL     1      33.175  28.979  45.612  0.00  0.00    +0.000 HD
ENDBRANCH   5  20
TORSDOF 2
