
     RDKit          3D

 22 23  0  0  0  0  0  0  0  0999 V2000
   37.9764   33.1693   49.4416 C   0  0  0  0  0  0  0  0  0  0  0  0
   39.0176   33.1621   48.4616 C   0  0  0  0  0  0  0  0  0  0  0  0
   39.0091   32.1267   47.5344 C   0  0  0  0  0  0  0  0  0  0  0  0
   38.0248   31.1812   47.6008 N   0  0  0  0  0  0  0  0  0  0  0  0
   37.0582   31.2224   48.5419 C   0  0  0  0  0  0  0  0  0  0  0  0
   37.0492   32.2145   49.4463 N   0  0  0  0  0  0  0  0  0  0  0  0
   37.2601   29.3545   51.0489 Br  0  0  0  0  0  0  0  0  0  0  0  0
   35.9545   29.3130   49.6684 C   0  0  0  0  0  0  0  0  0  0  0  0
   36.0071   30.2185   48.6181 C   0  0  0  0  0  0  0  0  0  0  0  0
   35.0193   30.1195   47.6565 C   0  0  0  0  0  0  0  0  0  0  0  0
   34.0031   29.1815   47.6902 C   0  0  0  0  0  0  0  0  0  0  0  0
   33.9902   28.3073   48.7457 C   0  0  0  0  0  0  0  0  0  0  0  0
   34.9684   28.3805   49.7285 C   0  0  0  0  0  0  0  0  0  0  0  0
   37.9613   33.9635   50.1729 H   0  0  0  0  0  0  0  0  0  0  0  0
   39.7809   33.9441   48.4541 H   0  0  0  0  0  0  0  0  0  0  0  0
   39.7760   32.0718   46.7677 H   0  0  0  0  0  0  0  0  0  0  0  0
   35.1022   30.8531   46.8497 H   0  0  0  0  0  0  0  0  0  0  0  0
   33.1834   27.5870   48.7427 H   0  0  0  0  0  0  0  0  0  0  0  0
   34.8892   27.6562   50.5279 H   0  0  0  0  0  0  0  0  0  0  0  0
   33.0853   29.2460   46.6052 N   0  0  0  0  0  0  0  0  0  0  0  0
   32.1339   29.1346   47.0191 H   0  0  0  0  0  0  0  0  0  0  0  0
   33.2282   29.3733   45.5905 H   0  0  0  0  0  0  0  0  0  0  0  0
  1  6  2  0
  2  1  1  0
  3  4  1  0
  3  2  2  0
  4  5  2  0
  5  9  1  0
  5  6  1  0
  8 13  2  0
  8  7  1  0
  9  8  1  0
 10 11  1  0
 10  9  2  0
 11 12  2  0
 12 13  1  0
  1 14  1  0
  2 15  1  0
  3 16  1  0
 10 17  1  0
 12 18  1  0
 13 19  1  0
 20 21  1  0
 20 22  1  0
 11 20  1  0
M  ISO  8  14  14  15  14  16  14  17  14  18  14  19  14  21   5  22   5
M  END
>  <DihAtoms>  (1) 
9,10,19,20

>  <DihDeg>  (1) 
88.28572193333224

$$$$
