REMARK  Name = 
REMARK  5 active torsions:
REMARK  status: ('A' for Active; 'I' for Inactive)
REMARK    1  A    between atoms: C_1  and  C_8
REMARK    2  A    between atoms: C_3  and  N_12
REMARK    3  A    between atoms: C_10  and  C_13
REMARK    4  A    between atoms: C_17  and  C_19
REMARK    5  A    between atoms: C_19  and  C_32
REMARK                            x       y       z     vdW  Elec       q    Type
REMARK                         _______ _______ _______ _____ _____    ______ ____
ROOT
ATOM      1  C   UNL     1      38.343  31.908  44.487  0.00  0.00    +0.000 C 
ATOM      2  O   UNL     1      37.244  32.446  44.382  0.00  0.00    +0.000 OA
ATOM      3  N   UNL     1      38.937  31.639  45.783  0.00  0.00    +0.000 N 
ATOM      4  H   UNL     1      39.913  31.384  45.943  0.00  0.00    +0.000 HD
ENDROOT
BRANCH   1   5
ATOM      5  C   UNL     1      39.124  31.504  43.285  0.00  0.00    +0.000 A 
ATOM      6  C   UNL     1      40.158  30.603  43.441  0.00  0.00    +0.000 A 
ATOM      7  C   UNL     1      40.882  30.255  42.315  0.00  0.00    +0.000 A 
ATOM      8  C   UNL     1      40.523  30.829  41.114  0.00  0.00    +0.000 A 
ATOM      9  C   UNL     1      39.488  31.729  40.955  0.00  0.00    +0.000 A 
ATOM     10  N   UNL     1      38.828  32.024  42.087  0.00  0.00    +0.000 NA
ATOM     11  H   UNL     1      40.400  30.171  44.410  0.00  0.00    +0.000 HD
ATOM     12  H   UNL     1      41.671  29.552  42.469  0.00  0.00    +0.000 HD
ATOM     13  H   UNL     1      41.179  30.493  40.339  0.00  0.00    +0.000 HD
BRANCH   9  14
ATOM     14  C   UNL     1      39.125  32.305  39.660  0.00  0.00    +0.000 C 
ATOM     15  O   UNL     1      38.881  33.569  39.647  0.00  0.00    +0.000 OA
BRANCH  14  16
ATOM     16  C   UNL     1      38.968  31.756  38.325  0.00  0.00    +0.000 A 
ATOM     17  C   UNL     1      38.931  32.451  37.136  0.00  0.00    +0.000 A 
ATOM     18  H   UNL     1      38.990  33.519  37.092  0.00  0.00    +0.000 HD
ATOM     19  C   UNL     1      38.814  31.879  35.892  0.00  0.00    +0.000 A 
ATOM     20  C   UNL     1      38.729  30.511  35.804  0.00  0.00    +0.000 A 
ATOM     21  H   UNL     1      38.637  30.037  34.813  0.00  0.00    +0.000 HD
ATOM     22  C   UNL     1      38.757  29.739  36.938  0.00  0.00    +0.000 A 
ATOM     23  H   UNL     1      38.701  28.643  36.901  0.00  0.00    +0.000 HD
ATOM     24  C   UNL     1      38.874  30.358  38.165  0.00  0.00    +0.000 A 
ENDBRANCH  14  16
ENDBRANCH   9  14
ENDBRANCH   1   5
BRANCH   3  27
ATOM     25  C   UNL     1      38.442  31.110  48.166  0.00  0.00    +0.000 C 
ATOM     26  C   UNL     1      38.710  32.574  48.093  0.00  0.00    +0.000 C 
ATOM     27  C   UNL     1      38.084  31.743  46.939  0.00  0.00    +0.000 C 
ATOM     28  H   UNL     1      39.404  30.522  48.242  0.00  0.00    +0.000 HD
ATOM     29  H   UNL     1      39.731  32.944  47.969  0.00  0.00    +0.000 HD
ATOM     30  H   UNL     1      38.010  33.178  48.715  0.00  0.00    +0.000 HD
ATOM     31  H   UNL     1      37.008  31.996  46.759  0.00  0.00    +0.000 HD
BRANCH  25  36
ATOM     32  C   UNL     1      35.099  30.269  49.509  0.00  0.00    +0.000 A 
ATOM     33  C   UNL     1      35.408  29.565  50.700  0.00  0.00    +0.000 A 
ATOM     34  C   UNL     1      36.793  29.401  51.018  0.00  0.00    +0.000 A 
ATOM     35  N   UNL     1      37.766  29.915  50.186  0.00  0.00    +0.000 NA
ATOM     36  C   UNL     1      37.363  30.579  49.063  0.00  0.00    +0.000 A 
ATOM     37  N   UNL     1      36.053  30.769  48.704  0.00  0.00    +0.000 NA
ATOM     38  H   UNL     1      34.080  30.441  49.183  0.00  0.00    +0.000 HD
ATOM     39  H   UNL     1      34.626  29.193  51.309  0.00  0.00    +0.000 HD
ATOM     40  H   UNL     1      37.041  28.861  51.937  0.00  0.00    +0.000 HD
ENDBRANCH  25  36
ENDBRANCH   3  27
TORSDOF 5
