
 OpenBabel03272508593D

 40 43  0  0  1  0  0  0  0  0999 V2000
   35.8440   24.8830   31.2570 C   0  0  0  0  0  0  0  0  0  0  0  0
   34.7930   25.0350   30.6410 O   0  0  0  0  0  0  0  0  0  0  0  0
   36.7800   25.9760   31.4460 N   0  0  0  0  0  0  0  0  0  0  0  0
   37.7450   25.8780   31.7660 H   0  0  0  0  0  0  0  0  0  0  0  0
   36.2140   23.5650   31.8430 C   0  0  0  0  0  0  0  0  0  0  0  0
   35.4940   22.4490   31.4650 C   0  0  0  0  0  0  0  0  0  0  0  0
   35.8420   21.2370   32.0340 C   0  0  0  0  0  0  0  0  0  0  0  0
   36.8830   21.2240   32.9380 C   0  0  0  0  0  0  0  0  0  0  0  0
   37.6060   22.3380   33.3160 C   0  0  0  0  0  0  0  0  0  0  0  0
   37.2160   23.4810   32.7280 N   0  0  0  0  0  0  0  0  0  0  0  0
   34.6840   22.5080   30.7420 H   0  0  0  0  0  0  0  0  0  0  0  0
   35.2700   20.3940   31.7170 H   0  0  0  0  0  0  0  0  0  0  0  0
   37.0250   20.2340   33.3160 H   0  0  0  0  0  0  0  0  0  0  0  0
   38.7160   22.2830   34.2670 C   0  0  2  0  0  3  0  0  0  0  0  0
   39.8440   21.8710   33.8020 O   0  0  0  0  0  1  0  0  0  0  0  0
   38.8470   22.5980   35.6780 C   0  0  0  0  0  0  0  0  0  0  0  0
   39.9320   22.3510   36.4920 C   0  0  0  0  0  0  0  0  0  0  0  0
   40.8110   21.8500   36.1410 H   0  0  0  0  0  0  0  0  0  0  0  0
   40.0190   22.7020   37.8170 C   0  0  0  0  0  3  0  0  0  0  0  0
   38.9570   23.3540   38.3940 C   0  0  0  0  0  0  0  0  0  0  0  0
   39.0140   23.6450   39.4560 H   0  0  0  0  0  0  0  0  0  0  0  0
   37.8340   23.6410   37.6590 C   0  0  0  0  0  0  0  0  0  0  0  0
   36.9730   24.1690   38.0880 H   0  0  0  0  0  0  0  0  0  0  0  0
   37.7920   23.2660   36.3320 C   0  0  0  0  0  3  0  0  0  0  0  0
   36.1150   28.2530   32.2060 C   0  0  2  0  0  0  0  0  0  0  0  0
   37.3770   28.4060   31.4290 C   0  0  0  0  0  0  0  0  0  0  0  0
   36.3120   27.3080   31.1570 C   0  0  1  0  0  0  0  0  0  0  0  0
   36.3270   27.9650   33.2780 H   0  0  0  0  0  0  0  0  0  0  0  0
   38.3330   28.1040   31.8620 H   0  0  0  0  0  0  0  0  0  0  0  0
   37.3690   29.2930   30.7530 H   0  0  0  0  0  0  0  0  0  0  0  0
   35.7720   27.4600   30.1870 H   0  0  0  0  0  0  0  0  0  0  0  0
   34.2220   31.2580   31.1700 C   0  0  0  0  0  0  0  0  0  0  0  0
   32.9860   31.0980   31.8460 C   0  0  0  0  0  0  0  0  0  0  0  0
   32.8380   29.9340   32.6640 C   0  0  0  0  0  0  0  0  0  0  0  0
   33.8670   29.0230   32.7750 N   0  0  0  0  0  0  0  0  0  0  0  0
   35.0190   29.2710   32.0840 C   0  0  0  0  0  0  0  0  0  0  0  0
   35.2210   30.3670   31.2840 N   0  0  0  0  0  0  0  0  0  0  0  0
   34.4270   32.1050   30.5260 H   0  0  0  0  0  0  0  0  0  0  0  0
   32.2260   31.8280   31.7340 H   0  0  0  0  0  0  0  0  0  0  0  0
   31.8880   29.8040   33.1920 H   0  0  0  0  0  0  0  0  0  0  0  0
  1  3  1  0  0  0  0
  1  5  1  0  0  0  0
  2  1  2  0  0  0  0
  3  4  1  0  0  0  0
  5 10  1  0  0  0  0
  6  5  2  0  0  0  0
  6  7  1  0  0  0  0
  7  8  2  0  0  0  0
  8 13  1  0  0  0  0
  8  9  1  0  0  0  0
  9 14  1  0  0  0  0
 10  9  2  0  0  0  0
 11  6  1  0  0  0  0
 12  7  1  0  0  0  0
 14 15  1  1  0  0  0
 14 16  1  0  0  0  0
 16 24  2  0  0  0  0
 16 17  1  0  0  0  0
 17 19  2  0  0  0  0
 18 17  1  0  0  0  0
 19 20  1  0  0  0  0
 20 21  1  0  0  0  0
 22 23  1  0  0  0  0
 22 20  2  0  0  0  0
 24 22  1  0  0  0  0
 25 28  1  1  0  0  0
 26 29  1  0  0  0  0
 26 25  1  0  0  0  0
 27 31  1  6  0  0  0
 27 26  1  0  0  0  0
 27  3  1  0  0  0  0
 27 25  1  0  0  0  0
 30 26  1  0  0  0  0
 32 37  2  0  0  0  0
 32 33  1  0  0  0  0
 33 34  2  0  0  0  0
 34 35  1  0  0  0  0
 34 40  1  0  0  0  0
 36 25  1  0  0  0  0
 36 35  2  0  0  0  0
 37 36  1  0  0  0  0
 38 32  1  0  0  0  0
 39 33  1  0  0  0  0
M  END
>  <minimizedAffinity>
-6.16017294

$$$$

 OpenBabel03272508593D

 40 43  0  0  1  0  0  0  0  0999 V2000
   38.3250   26.7960   32.7960 C   0  0  0  0  0  0  0  0  0  0  0  0
   39.3660   27.1360   33.3520 O   0  0  0  0  0  0  0  0  0  0  0  0
   37.9820   25.3990   32.6120 N   0  0  0  0  0  0  0  0  0  0  0  0
   37.2480   25.0480   31.9950 H   0  0  0  0  0  0  0  0  0  0  0  0
   37.3590   27.8060   32.2800 C   0  0  0  0  0  0  0  0  0  0  0  0
   37.4850   28.2330   30.9730 C   0  0  0  0  0  0  0  0  0  0  0  0
   36.5890   29.1840   30.5190 C   0  0  0  0  0  0  0  0  0  0  0  0
   35.6320   29.6410   31.4000 C   0  0  0  0  0  0  0  0  0  0  0  0
   35.5030   29.2140   32.7070 C   0  0  0  0  0  0  0  0  0  0  0  0
   36.4040   28.2920   33.0830 N   0  0  0  0  0  0  0  0  0  0  0  0
   38.2540   27.8370   30.3130 H   0  0  0  0  0  0  0  0  0  0  0  0
   36.7100   29.4880   29.5030 H   0  0  0  0  0  0  0  0  0  0  0  0
   35.0280   30.3870   30.9270 H   0  0  0  0  0  0  0  0  0  0  0  0
   34.4620   29.7100   33.6080 C   0  0  2  0  0  3  0  0  0  0  0  0
   33.2600   29.3250   33.3560 O   0  0  0  0  0  1  0  0  0  0  0  0
   34.4720   30.5770   34.7730 C   0  0  0  0  0  0  0  0  0  0  0  0
   33.4770   30.7200   35.7160 C   0  0  0  0  0  0  0  0  0  0  0  0
   32.5450   30.1960   35.6520 H   0  0  0  0  0  0  0  0  0  0  0  0
   33.5510   31.5300   36.8230 C   0  0  0  0  0  3  0  0  0  0  0  0
   34.6960   32.2590   37.0270 C   0  0  0  0  0  0  0  0  0  0  0  0
   34.7710   32.9120   37.9130 H   0  0  0  0  0  0  0  0  0  0  0  0
   35.7390   32.1790   36.1390 C   0  0  0  0  0  0  0  0  0  0  0  0
   36.6720   32.7410   36.2790 H   0  0  0  0  0  0  0  0  0  0  0  0
   35.6180   31.3540   35.0400 C   0  0  0  0  0  3  0  0  0  0  0  0
   38.1170   23.6470   34.3780 C   0  0  2  0  0  0  0  0  0  0  0  0
   38.3100   22.9600   33.0700 C   0  0  0  0  0  0  0  0  0  0  0  0
   38.7390   24.4260   33.3570 C   0  0  1  0  0  0  0  0  0  0  0  0
   37.0190   23.7860   34.6080 H   0  0  0  0  0  0  0  0  0  0  0  0
   37.4600   22.7920   32.4030 H   0  0  0  0  0  0  0  0  0  0  0  0
   39.1120   22.1870   33.0960 H   0  0  0  0  0  0  0  0  0  0  0  0
   39.8510   24.5530   33.3820 H   0  0  0  0  0  0  0  0  0  0  0  0
   40.8210   22.2360   36.4720 C   0  0  0  0  0  0  0  0  0  0  0  0
   40.3780   22.5200   37.7880 C   0  0  0  0  0  0  0  0  0  0  0  0
   39.1270   23.2010   37.9210 C   0  0  0  0  0  0  0  0  0  0  0  0
   38.4020   23.5540   36.8020 N   0  0  0  0  0  0  0  0  0  0  0  0
   38.9160   23.2330   35.5780 C   0  0  0  0  0  0  0  0  0  0  0  0
   40.1080   22.5820   35.3860 N   0  0  0  0  0  0  0  0  0  0  0  0
   41.7560   21.7270   36.2700 H   0  0  0  0  0  0  0  0  0  0  0  0
   40.9670   22.2240   38.6170 H   0  0  0  0  0  0  0  0  0  0  0  0
   38.7760   23.4220   38.9340 H   0  0  0  0  0  0  0  0  0  0  0  0
  1  2  2  0  0  0  0
  3  1  1  0  0  0  0
  3 27  1  0  0  0  0
  4  3  1  0  0  0  0
  5  1  1  0  0  0  0
  5 10  1  0  0  0  0
  6  5  2  0  0  0  0
  7  6  1  0  0  0  0
  7  8  2  0  0  0  0
  8  9  1  0  0  0  0
  9 10  2  0  0  0  0
  9 14  1  0  0  0  0
 11  6  1  0  0  0  0
 12  7  1  0  0  0  0
 13  8  1  0  0  0  0
 14 15  1  6  0  0  0
 14 16  1  0  0  0  0
 16 24  2  0  0  0  0
 16 17  1  0  0  0  0
 17 19  2  0  0  0  0
 18 17  1  0  0  0  0
 19 20  1  0  0  0  0
 20 21  1  0  0  0  0
 22 23  1  0  0  0  0
 22 20  2  0  0  0  0
 24 22  1  0  0  0  0
 25 28  1  1  0  0  0
 25 36  1  0  0  0  0
 26 30  1  0  0  0  0
 26 27  1  0  0  0  0
 26 25  1  0  0  0  0
 27 31  1  1  0  0  0
 27 25  1  0  0  0  0
 29 26  1  0  0  0  0
 32 33  1  0  0  0  0
 33 34  2  0  0  0  0
 33 39  1  0  0  0  0
 34 40  1  0  0  0  0
 35 34  1  0  0  0  0
 36 35  2  0  0  0  0
 37 36  1  0  0  0  0
 37 32  2  0  0  0  0
 38 32  1  0  0  0  0
M  END
>  <minimizedAffinity>
-6.01206017

$$$$

 OpenBabel03272508593D

 40 43  0  0  1  0  0  0  0  0999 V2000
   36.9260   26.1410   32.2830 C   0  0  0  0  0  0  0  0  0  0  0  0
   37.0110   25.8520   33.4730 O   0  0  0  0  0  0  0  0  0  0  0  0
   37.2570   25.1860   31.2430 N   0  0  0  0  0  0  0  0  0  0  0  0
   37.4010   25.4130   30.2570 H   0  0  0  0  0  0  0  0  0  0  0  0
   36.4790   27.4930   31.8460 C   0  0  0  0  0  0  0  0  0  0  0  0
   36.9710   28.0000   30.6600 C   0  0  0  0  0  0  0  0  0  0  0  0
   36.5560   29.2650   30.2810 C   0  0  0  0  0  0  0  0  0  0  0  0
   35.6810   29.9320   31.1110 C   0  0  0  0  0  0  0  0  0  0  0  0
   35.1860   29.4260   32.2970 C   0  0  0  0  0  0  0  0  0  0  0  0
   35.6290   28.1960   32.6050 N   0  0  0  0  0  0  0  0  0  0  0  0
   37.6560   27.4320   30.0340 H   0  0  0  0  0  0  0  0  0  0  0  0
   36.9500   29.6250   29.3570 H   0  0  0  0  0  0  0  0  0  0  0  0
   35.4670   30.9010   30.7120 H   0  0  0  0  0  0  0  0  0  0  0  0
   34.2440   30.1580   33.1440 C   0  0  1  0  0  3  0  0  0  0  0  0
   33.0450   30.2760   32.6920 O   0  0  0  0  0  1  0  0  0  0  0  0
   34.3540   30.8120   34.4360 C   0  0  0  0  0  0  0  0  0  0  0  0
   33.3460   31.0280   35.3510 C   0  0  0  0  0  0  0  0  0  0  0  0
   32.3320   30.7420   35.1660 H   0  0  0  0  0  0  0  0  0  0  0  0
   33.5110   31.6230   36.5780 C   0  0  0  0  0  3  0  0  0  0  0  0
   34.7680   32.0390   36.9430 C   0  0  0  0  0  0  0  0  0  0  0  0
   34.9160   32.5150   37.9260 H   0  0  0  0  0  0  0  0  0  0  0  0
   35.8310   31.8650   36.0930 C   0  0  0  0  0  0  0  0  0  0  0  0
   36.8500   32.1760   36.3590 H   0  0  0  0  0  0  0  0  0  0  0  0
   35.6170   31.2640   34.8700 C   0  0  0  0  0  3  0  0  0  0  0  0
   36.7180   22.7760   30.9130 C   0  0  2  0  0  0  0  0  0  0  0  0
   38.1610   22.9480   30.5820 C   0  0  0  0  0  0  0  0  0  0  0  0
   37.3980   23.8050   31.6290 C   0  0  1  0  0  0  0  0  0  0  0  0
   36.0630   23.0370   30.0300 H   0  0  0  0  0  0  0  0  0  0  0  0
   38.4610   23.4220   29.6450 H   0  0  0  0  0  0  0  0  0  0  0  0
   38.8000   22.1240   30.9760 H   0  0  0  0  0  0  0  0  0  0  0  0
   37.7290   23.6000   32.6790 H   0  0  0  0  0  0  0  0  0  0  0  0
   35.5940   19.3210   31.6100 C   0  0  0  0  0  0  0  0  0  0  0  0
   35.4220   19.3260   33.0170 C   0  0  0  0  0  0  0  0  0  0  0  0
   35.6990   20.5500   33.7020 C   0  0  0  0  0  0  0  0  0  0  0  0
   36.1140   21.6640   33.0020 N   0  0  0  0  0  0  0  0  0  0  0  0
   36.2470   21.5560   31.6470 C   0  0  0  0  0  0  0  0  0  0  0  0
   35.9970   20.4120   30.9330 N   0  0  0  0  0  0  0  0  0  0  0  0
   35.4120   18.4410   31.0040 H   0  0  0  0  0  0  0  0  0  0  0  0
   35.0970   18.4470   33.5100 H   0  0  0  0  0  0  0  0  0  0  0  0
   35.5660   20.5640   34.7880 H   0  0  0  0  0  0  0  0  0  0  0  0
  1  2  2  0  0  0  0
  3 27  1  0  0  0  0
  3  1  1  0  0  0  0
  4  3  1  0  0  0  0
  5  1  1  0  0  0  0
  5 10  1  0  0  0  0
  6  5  2  0  0  0  0
  7  6  1  0  0  0  0
  7  8  2  0  0  0  0
  8  9  1  0  0  0  0
  9 10  2  0  0  0  0
  9 14  1  0  0  0  0
 11  6  1  0  0  0  0
 12  7  1  0  0  0  0
 13  8  1  0  0  0  0
 14 15  1  1  0  0  0
 14 16  1  0  0  0  0
 16 24  2  0  0  0  0
 16 17  1  0  0  0  0
 17 19  2  0  0  0  0
 18 17  1  0  0  0  0
 19 20  1  0  0  0  0
 20 21  1  0  0  0  0
 22 23  1  0  0  0  0
 22 20  2  0  0  0  0
 24 22  1  0  0  0  0
 25 28  1  6  0  0  0
 25 27  1  0  0  0  0
 25 36  1  0  0  0  0
 26 25  1  0  0  0  0
 26 30  1  0  0  0  0
 26 27  1  0  0  0  0
 27 31  1  1  0  0  0
 29 26  1  0  0  0  0
 32 33  1  0  0  0  0
 33 39  1  0  0  0  0
 33 34  2  0  0  0  0
 34 40  1  0  0  0  0
 35 34  1  0  0  0  0
 36 35  2  0  0  0  0
 37 32  2  0  0  0  0
 37 36  1  0  0  0  0
 38 32  1  0  0  0  0
M  END
>  <minimizedAffinity>
-5.95552683

$$$$

 OpenBabel03272508593D

 40 43  0  0  1  0  0  0  0  0999 V2000
   38.2440   26.8840   34.6730 C   0  0  0  0  0  0  0  0  0  0  0  0
   37.8200   26.2380   35.6280 O   0  0  0  0  0  0  0  0  0  0  0  0
   39.6650   27.0030   34.4070 N   0  0  0  0  0  0  0  0  0  0  0  0
   40.0910   27.6740   33.7650 H   0  0  0  0  0  0  0  0  0  0  0  0
   37.3170   27.5790   33.7370 C   0  0  0  0  0  0  0  0  0  0  0  0
   37.5690   27.5060   32.3820 C   0  0  0  0  0  0  0  0  0  0  0  0
   36.7060   28.1740   31.5320 C   0  0  0  0  0  0  0  0  0  0  0  0
   35.6540   28.8660   32.0930 C   0  0  0  0  0  0  0  0  0  0  0  0
   35.4000   28.9400   33.4480 C   0  0  0  0  0  0  0  0  0  0  0  0
   36.2750   28.2710   34.2160 N   0  0  0  0  0  0  0  0  0  0  0  0
   38.4100   26.9400   31.9850 H   0  0  0  0  0  0  0  0  0  0  0  0
   36.9260   28.0920   30.4900 H   0  0  0  0  0  0  0  0  0  0  0  0
   35.0880   29.3530   31.3270 H   0  0  0  0  0  0  0  0  0  0  0  0
   34.2620   29.6710   34.0060 C   0  0  2  0  0  3  0  0  0  0  0  0
   33.1360   29.5200   33.4010 O   0  0  0  0  0  1  0  0  0  0  0  0
   34.1020   30.5690   35.1350 C   0  0  0  0  0  0  0  0  0  0  0  0
   32.9880   30.7170   35.9330 C   0  0  0  0  0  0  0  0  0  0  0  0
   32.0830   30.1730   35.7630 H   0  0  0  0  0  0  0  0  0  0  0  0
   32.9010   31.5590   37.0160 C   0  0  0  0  0  3  0  0  0  0  0  0
   33.9960   32.3180   37.3470 C   0  0  0  0  0  0  0  0  0  0  0  0
   33.9420   32.9960   38.2150 H   0  0  0  0  0  0  0  0  0  0  0  0
   35.1490   32.2360   36.6080 C   0  0  0  0  0  0  0  0  0  0  0  0
   36.0450   32.8210   36.8520 H   0  0  0  0  0  0  0  0  0  0  0  0
   35.1890   31.3780   35.5280 C   0  0  0  0  0  3  0  0  0  0  0  0
   40.8080   24.7990   34.6030 C   0  0  2  0  0  0  0  0  0  0  0  0
   41.8660   25.8140   34.3360 C   0  0  0  0  0  0  0  0  0  0  0  0
   40.5500   26.1080   35.1080 C   0  0  1  0  0  0  0  0  0  0  0  0
   40.3220   24.4540   33.6430 H   0  0  0  0  0  0  0  0  0  0  0  0
   41.9850   26.2390   33.3360 H   0  0  0  0  0  0  0  0  0  0  0  0
   42.7840   25.6600   34.9480 H   0  0  0  0  0  0  0  0  0  0  0  0
   40.7220   26.3070   36.1960 H   0  0  0  0  0  0  0  0  0  0  0  0
   40.3350   22.3600   37.3440 C   0  0  0  0  0  0  0  0  0  0  0  0
   41.5240   21.5900   37.2860 C   0  0  0  0  0  0  0  0  0  0  0  0
   42.4810   21.9450   36.2840 C   0  0  0  0  0  0  0  0  0  0  0  0
   42.2350   22.9950   35.4240 N   0  0  0  0  0  0  0  0  0  0  0  0
   41.0590   23.6750   35.5640 C   0  0  0  0  0  0  0  0  0  0  0  0
   40.1030   23.3840   36.5030 N   0  0  0  0  0  0  0  0  0  0  0  0
   39.5510   22.1660   38.0660 H   0  0  0  0  0  0  0  0  0  0  0  0
   41.6700   20.7960   37.9710 H   0  0  0  0  0  0  0  0  0  0  0  0
   43.4030   21.3570   36.2340 H   0  0  0  0  0  0  0  0  0  0  0  0
  1  2  2  0  0  0  0
  3  1  1  0  0  0  0
  3 27  1  0  0  0  0
  4  3  1  0  0  0  0
  5 10  1  0  0  0  0
  5  1  1  0  0  0  0
  6  5  2  0  0  0  0
  7  8  2  0  0  0  0
  7  6  1  0  0  0  0
  8  9  1  0  0  0  0
  9 14  1  0  0  0  0
  9 10  2  0  0  0  0
 11  6  1  0  0  0  0
 12  7  1  0  0  0  0
 13  8  1  0  0  0  0
 14 15  1  6  0  0  0
 14 16  1  0  0  0  0
 16 24  2  0  0  0  0
 16 17  1  0  0  0  0
 17 19  2  0  0  0  0
 18 17  1  0  0  0  0
 19 20  1  0  0  0  0
 20 21  1  0  0  0  0
 22 23  1  0  0  0  0
 22 20  2  0  0  0  0
 24 22  1  0  0  0  0
 25 28  1  6  0  0  0
 25 27  1  0  0  0  0
 25 36  1  0  0  0  0
 26 25  1  0  0  0  0
 26 30  1  0  0  0  0
 26 27  1  0  0  0  0
 27 31  1  1  0  0  0
 29 26  1  0  0  0  0
 32 38  1  0  0  0  0
 33 32  1  0  0  0  0
 33 39  1  0  0  0  0
 34 33  2  0  0  0  0
 35 36  2  0  0  0  0
 35 34  1  0  0  0  0
 36 37  1  0  0  0  0
 37 32  2  0  0  0  0
 40 34  1  0  0  0  0
M  END
>  <minimizedAffinity>
-5.888381

$$$$

 OpenBabel03272508593D

 40 43  0  0  1  0  0  0  0  0999 V2000
   35.7990   25.6960   31.5330 C   0  0  0  0  0  0  0  0  0  0  0  0
   34.7970   25.6870   30.8230 O   0  0  0  0  0  0  0  0  0  0  0  0
   36.3290   26.9280   32.0850 N   0  0  0  0  0  0  0  0  0  0  0  0
   37.2530   27.0350   32.5080 H   0  0  0  0  0  0  0  0  0  0  0  0
   36.5220   24.4370   31.8640 C   0  0  0  0  0  0  0  0  0  0  0  0
   36.2510   23.3040   31.1220 C   0  0  0  0  0  0  0  0  0  0  0  0
   36.9210   22.1420   31.4580 C   0  0  0  0  0  0  0  0  0  0  0  0
   37.8130   22.1900   32.5080 C   0  0  0  0  0  0  0  0  0  0  0  0
   38.0860   23.3220   33.2510 C   0  0  0  0  0  0  0  0  0  0  0  0
   37.4020   24.4140   32.8730 N   0  0  0  0  0  0  0  0  0  0  0  0
   35.5430   23.3170   30.2970 H   0  0  0  0  0  0  0  0  0  0  0  0
   36.6930   21.2860   30.8610 H   0  0  0  0  0  0  0  0  0  0  0  0
   38.2350   21.2220   32.6730 H   0  0  0  0  0  0  0  0  0  0  0  0
   39.0530   23.3390   34.3490 C   0  0  1  0  0  3  0  0  0  0  0  0
   40.2930   23.2440   34.0170 O   0  0  0  0  0  1  0  0  0  0  0  0
   38.9320   23.4440   35.7920 C   0  0  0  0  0  0  0  0  0  0  0  0
   37.9390   24.0840   36.5020 C   0  0  0  0  0  0  0  0  0  0  0  0
   37.1410   24.6140   36.0250 H   0  0  0  0  0  0  0  0  0  0  0  0
   37.8520   24.1230   37.8730 C   0  0  0  0  0  3  0  0  0  0  0  0
   38.8150   23.4790   38.6110 C   0  0  0  0  0  0  0  0  0  0  0  0
   38.7560   23.4990   39.7120 H   0  0  0  0  0  0  0  0  0  0  0  0
   39.8420   22.8170   37.9870 C   0  0  0  0  0  0  0  0  0  0  0  0
   40.6210   22.2840   38.5470 H   0  0  0  0  0  0  0  0  0  0  0  0
   39.8890   22.8060   36.6080 C   0  0  0  0  0  3  0  0  0  0  0  0
   35.4390   29.0090   33.1240 C   0  0  2  0  0  0  0  0  0  0  0  0
   36.2890   29.4280   31.9740 C   0  0  0  0  0  0  0  0  0  0  0  0
   35.4890   28.0970   32.0290 C   0  0  1  0  0  0  0  0  0  0  0  0
   36.0640   28.8230   34.0470 H   0  0  0  0  0  0  0  0  0  0  0  0
   37.3790   29.3790   32.0450 H   0  0  0  0  0  0  0  0  0  0  0  0
   35.8430   30.2580   31.3800 H   0  0  0  0  0  0  0  0  0  0  0  0
   34.6340   28.0770   31.3060 H   0  0  0  0  0  0  0  0  0  0  0  0
   33.0220   31.4030   34.5780 C   0  0  0  0  0  0  0  0  0  0  0  0
   31.8110   31.0600   33.9260 C   0  0  0  0  0  0  0  0  0  0  0  0
   31.8610   29.9830   32.9850 C   0  0  0  0  0  0  0  0  0  0  0  0
   33.0480   29.3240   32.7410 N   0  0  0  0  0  0  0  0  0  0  0  0
   34.1580   29.7310   33.4230 C   0  0  0  0  0  0  0  0  0  0  0  0
   34.1750   30.7540   34.3360 N   0  0  0  0  0  0  0  0  0  0  0  0
   33.0850   32.2050   35.3030 H   0  0  0  0  0  0  0  0  0  0  0  0
   30.9240   31.5920   34.1500 H   0  0  0  0  0  0  0  0  0  0  0  0
   30.9300   29.7100   32.4790 H   0  0  0  0  0  0  0  0  0  0  0  0
  1  5  1  0  0  0  0
  1  3  1  0  0  0  0
  2  1  2  0  0  0  0
  3  4  1  0  0  0  0
  5 10  1  0  0  0  0
  6  7  1  0  0  0  0
  6  5  2  0  0  0  0
  7  8  2  0  0  0  0
  8 13  1  0  0  0  0
  8  9  1  0  0  0  0
  9 14  1  0  0  0  0
 10  9  2  0  0  0  0
 11  6  1  0  0  0  0
 12  7  1  0  0  0  0
 14 15  1  6  0  0  0
 14 16  1  0  0  0  0
 16 17  2  0  0  0  0
 16 24  1  0  0  0  0
 17 19  1  0  0  0  0
 18 17  1  0  0  0  0
 19 20  2  0  0  0  0
 20 21  1  0  0  0  0
 22 23  1  0  0  0  0
 22 20  1  0  0  0  0
 24 22  2  0  0  0  0
 25 36  1  0  0  0  0
 25 28  1  1  0  0  0
 26 27  1  0  0  0  0
 26 29  1  0  0  0  0
 26 25  1  0  0  0  0
 27 31  1  6  0  0  0
 27  3  1  0  0  0  0
 27 25  1  0  0  0  0
 30 26  1  0  0  0  0
 32 38  1  0  0  0  0
 33 39  1  0  0  0  0
 33 32  2  0  0  0  0
 34 33  1  0  0  0  0
 35 34  2  0  0  0  0
 35 36  1  0  0  0  0
 36 37  2  0  0  0  0
 37 32  1  0  0  0  0
 40 34  1  0  0  0  0
M  END
>  <minimizedAffinity>
-5.83873749

$$$$

 OpenBabel03272508593D

 40 43  0  0  1  0  0  0  0  0999 V2000
   36.2490   28.1940   32.6320 C   0  0  0  0  0  0  0  0  0  0  0  0
   35.6370   28.3410   31.5770 O   0  0  0  0  0  0  0  0  0  0  0  0
   35.8750   28.9140   33.8340 N   0  0  0  0  0  0  0  0  0  0  0  0
   36.4480   28.9940   34.6760 H   0  0  0  0  0  0  0  0  0  0  0  0
   37.4100   27.2660   32.7290 C   0  0  0  0  0  0  0  0  0  0  0  0
   38.5330   27.5310   31.9710 C   0  0  0  0  0  0  0  0  0  0  0  0
   39.5930   26.6470   32.0630 C   0  0  0  0  0  0  0  0  0  0  0  0
   39.4580   25.5630   32.9040 C   0  0  0  0  0  0  0  0  0  0  0  0
   38.3360   25.2970   33.6650 C   0  0  0  0  0  0  0  0  0  0  0  0
   37.3450   26.1930   33.5280 N   0  0  0  0  0  0  0  0  0  0  0  0
   38.5950   28.4040   31.3260 H   0  0  0  0  0  0  0  0  0  0  0  0
   40.4480   26.8830   31.4690 H   0  0  0  0  0  0  0  0  0  0  0  0
   40.3360   24.9530   32.8570 H   0  0  0  0  0  0  0  0  0  0  0  0
   38.2360   24.1440   34.5600 C   0  0  2  0  0  3  0  0  0  0  0  0
   37.8850   23.0300   34.0180 O   0  0  0  0  0  1  0  0  0  0  0  0
   38.4500   23.9560   35.9840 C   0  0  0  0  0  0  0  0  0  0  0  0
   37.7060   24.4850   37.0170 C   0  0  0  0  0  0  0  0  0  0  0  0
   36.8760   25.1400   36.8500 H   0  0  0  0  0  0  0  0  0  0  0  0
   37.9300   24.2470   38.3510 C   0  0  0  0  0  3  0  0  0  0  0  0
   38.9670   23.4190   38.7050 C   0  0  0  0  0  0  0  0  0  0  0  0
   39.1570   23.2160   39.7720 H   0  0  0  0  0  0  0  0  0  0  0  0
   39.7610   22.8490   37.7430 C   0  0  0  0  0  0  0  0  0  0  0  0
   40.5910   22.1750   37.9920 H   0  0  0  0  0  0  0  0  0  0  0  0
   39.4990   23.1190   36.4150 C   0  0  0  0  0  3  0  0  0  0  0  0
   33.8250   29.6520   35.0400 C   0  0  2  0  0  0  0  0  0  0  0  0
   34.5820   30.8830   34.6790 C   0  0  0  0  0  0  0  0  0  0  0  0
   34.5950   29.5740   33.8420 C   0  0  1  0  0  0  0  0  0  0  0  0
   34.2160   29.1970   35.9980 H   0  0  0  0  0  0  0  0  0  0  0  0
   35.4880   31.1560   35.2270 H   0  0  0  0  0  0  0  0  0  0  0  0
   33.9280   31.7080   34.3140 H   0  0  0  0  0  0  0  0  0  0  0  0
   34.0710   29.6850   32.8590 H   0  0  0  0  0  0  0  0  0  0  0  0
   30.2900   28.7710   35.6880 C   0  0  0  0  0  0  0  0  0  0  0  0
   29.5870   29.6340   34.8100 C   0  0  0  0  0  0  0  0  0  0  0  0
   30.3690   30.5120   33.9960 C   0  0  0  0  0  0  0  0  0  0  0  0
   31.7460   30.5000   34.0790 N   0  0  0  0  0  0  0  0  0  0  0  0
   32.3270   29.6290   34.9560 C   0  0  0  0  0  0  0  0  0  0  0  0
   31.6330   28.7640   35.7620 N   0  0  0  0  0  0  0  0  0  0  0  0
   29.7860   28.0740   36.3460 H   0  0  0  0  0  0  0  0  0  0  0  0
   28.5290   29.6030   34.7790 H   0  0  0  0  0  0  0  0  0  0  0  0
   29.8340   31.1790   33.3130 H   0  0  0  0  0  0  0  0  0  0  0  0
  1  5  1  0  0  0  0
  1  3  1  0  0  0  0
  2  1  2  0  0  0  0
  3 27  1  0  0  0  0
  3  4  1  0  0  0  0
  5 10  1  0  0  0  0
  6  7  1  0  0  0  0
  6  5  2  0  0  0  0
  7  8  2  0  0  0  0
  8  9  1  0  0  0  0
  9 14  1  0  0  0  0
 10  9  2  0  0  0  0
 11  6  1  0  0  0  0
 12  7  1  0  0  0  0
 13  8  1  0  0  0  0
 14 15  1  1  0  0  0
 14 16  1  0  0  0  0
 16 24  2  0  0  0  0
 16 17  1  0  0  0  0
 17 19  2  0  0  0  0
 18 17  1  0  0  0  0
 19 20  1  0  0  0  0
 20 21  1  0  0  0  0
 22 23  1  0  0  0  0
 22 20  2  0  0  0  0
 24 22  1  0  0  0  0
 25 28  1  1  0  0  0
 26 25  1  0  0  0  0
 26 29  1  0  0  0  0
 27 31  1  6  0  0  0
 27 26  1  0  0  0  0
 27 25  1  0  0  0  0
 30 26  1  0  0  0  0
 32 37  1  0  0  0  0
 32 38  1  0  0  0  0
 33 32  2  0  0  0  0
 34 35  2  0  0  0  0
 34 33  1  0  0  0  0
 35 36  1  0  0  0  0
 36 25  1  0  0  0  0
 36 37  2  0  0  0  0
 39 33  1  0  0  0  0
 40 34  1  0  0  0  0
M  END
>  <minimizedAffinity>
-5.77520227

$$$$

 OpenBabel03272508593D

 40 43  0  0  1  0  0  0  0  0999 V2000
   36.1370   27.9510   32.4620 C   0  0  0  0  0  0  0  0  0  0  0  0
   35.9140   28.5440   31.4090 O   0  0  0  0  0  0  0  0  0  0  0  0
   36.0040   28.6090   33.7480 N   0  0  0  0  0  0  0  0  0  0  0  0
   36.3590   28.2470   34.6350 H   0  0  0  0  0  0  0  0  0  0  0  0
   36.5550   26.5220   32.4700 C   0  0  0  0  0  0  0  0  0  0  0  0
   35.9870   25.6610   31.5520 C   0  0  0  0  0  0  0  0  0  0  0  0
   36.3760   24.3350   31.5890 C   0  0  0  0  0  0  0  0  0  0  0  0
   37.3060   23.9610   32.5360 C   0  0  0  0  0  0  0  0  0  0  0  0
   37.8770   24.8200   33.4540 C   0  0  0  0  0  0  0  0  0  0  0  0
   37.4540   26.0920   33.3640 N   0  0  0  0  0  0  0  0  0  0  0  0
   35.2610   26.0050   30.8180 H   0  0  0  0  0  0  0  0  0  0  0  0
   35.9220   23.6970   30.8630 H   0  0  0  0  0  0  0  0  0  0  0  0
   37.4930   22.9100   32.4680 H   0  0  0  0  0  0  0  0  0  0  0  0
   38.8740   24.3900   34.4340 C   0  0  2  0  0  3  0  0  0  0  0  0
   40.0670   24.2030   33.9890 O   0  0  0  0  0  1  0  0  0  0  0  0
   38.8270   24.1110   35.8590 C   0  0  0  0  0  0  0  0  0  0  0  0
   37.9210   24.6000   36.7760 C   0  0  0  0  0  0  0  0  0  0  0  0
   37.1470   25.2890   36.5080 H   0  0  0  0  0  0  0  0  0  0  0  0
   37.8990   24.2750   38.1110 C   0  0  0  0  0  3  0  0  0  0  0  0
   38.8400   23.3960   38.5880 C   0  0  0  0  0  0  0  0  0  0  0  0
   38.8330   23.1250   39.6570 H   0  0  0  0  0  0  0  0  0  0  0  0
   39.7820   22.8610   37.7460 C   0  0  0  0  0  0  0  0  0  0  0  0
   40.5410   22.1480   38.0950 H   0  0  0  0  0  0  0  0  0  0  0  0
   39.7660   23.2170   36.4140 C   0  0  0  0  0  3  0  0  0  0  0  0
   34.2890   30.1240   34.7310 C   0  0  2  0  0  0  0  0  0  0  0  0
   35.6210   30.7070   35.0570 C   0  0  0  0  0  0  0  0  0  0  0  0
   35.3210   29.8770   33.7780 C   0  0  1  0  0  0  0  0  0  0  0  0
   33.9990   29.3240   35.4750 H   0  0  0  0  0  0  0  0  0  0  0  0
   36.2470   30.2560   35.8310 H   0  0  0  0  0  0  0  0  0  0  0  0
   35.6530   31.8150   34.9420 H   0  0  0  0  0  0  0  0  0  0  0  0
   35.3510   30.4950   32.8450 H   0  0  0  0  0  0  0  0  0  0  0  0
   32.3420   33.1310   33.8050 C   0  0  0  0  0  0  0  0  0  0  0  0
   31.0320   32.6160   33.6390 C   0  0  0  0  0  0  0  0  0  0  0  0
   30.8500   31.2150   33.8610 C   0  0  0  0  0  0  0  0  0  0  0  0
   31.9190   30.4210   34.2210 N   0  0  0  0  0  0  0  0  0  0  0  0
   33.1400   31.0140   34.3580 C   0  0  0  0  0  0  0  0  0  0  0  0
   33.3790   32.3500   34.1590 N   0  0  0  0  0  0  0  0  0  0  0  0
   32.5790   34.1770   33.6560 H   0  0  0  0  0  0  0  0  0  0  0  0
   30.2420   33.2660   33.3660 H   0  0  0  0  0  0  0  0  0  0  0  0
   29.8410   30.8090   33.7370 H   0  0  0  0  0  0  0  0  0  0  0  0
  1  5  1  0  0  0  0
  1  3  1  0  0  0  0
  2  1  2  0  0  0  0
  3 27  1  0  0  0  0
  3  4  1  0  0  0  0
  5 10  1  0  0  0  0
  6  7  1  0  0  0  0
  6  5  2  0  0  0  0
  7  8  2  0  0  0  0
  8  9  1  0  0  0  0
  9 14  1  0  0  0  0
 10  9  2  0  0  0  0
 11  6  1  0  0  0  0
 12  7  1  0  0  0  0
 13  8  1  0  0  0  0
 14 15  1  6  0  0  0
 14 16  1  0  0  0  0
 16 24  2  0  0  0  0
 16 17  1  0  0  0  0
 17 19  2  0  0  0  0
 18 17  1  0  0  0  0
 19 20  1  0  0  0  0
 20 21  1  0  0  0  0
 22 23  1  0  0  0  0
 22 20  2  0  0  0  0
 24 22  1  0  0  0  0
 25 26  1  0  0  0  0
 25 28  1  1  0  0  0
 26 29  1  0  0  0  0
 27 31  1  6  0  0  0
 27 25  1  0  0  0  0
 27 26  1  0  0  0  0
 30 26  1  0  0  0  0
 32 37  1  0  0  0  0
 33 32  2  0  0  0  0
 33 34  1  0  0  0  0
 34 35  2  0  0  0  0
 35 36  1  0  0  0  0
 36 25  1  0  0  0  0
 37 36  2  0  0  0  0
 38 32  1  0  0  0  0
 39 33  1  0  0  0  0
 40 34  1  0  0  0  0
M  END
>  <minimizedAffinity>
-5.71715307

$$$$

 OpenBabel03272508593D

 40 43  0  0  1  0  0  0  0  0999 V2000
   37.8930   25.3880   32.8420 C   0  0  0  0  0  0  0  0  0  0  0  0
   38.4650   24.4750   32.2520 O   0  0  0  0  0  0  0  0  0  0  0  0
   37.5620   25.2920   34.2510 N   0  0  0  0  0  0  0  0  0  0  0  0
   36.9220   25.9120   34.7500 H   0  0  0  0  0  0  0  0  0  0  0  0
   37.5090   26.6420   32.1370 C   0  0  0  0  0  0  0  0  0  0  0  0
   38.0100   26.8690   30.8710 C   0  0  0  0  0  0  0  0  0  0  0  0
   37.6550   28.0490   30.2420 C   0  0  0  0  0  0  0  0  0  0  0  0
   36.8260   28.9170   30.9200 C   0  0  0  0  0  0  0  0  0  0  0  0
   36.3220   28.6920   32.1850 C   0  0  0  0  0  0  0  0  0  0  0  0
   36.7060   27.5300   32.7380 N   0  0  0  0  0  0  0  0  0  0  0  0
   38.6570   26.1500   30.3740 H   0  0  0  0  0  0  0  0  0  0  0  0
   38.0540   28.1910   29.2620 H   0  0  0  0  0  0  0  0  0  0  0  0
   36.6560   29.7940   30.3300 H   0  0  0  0  0  0  0  0  0  0  0  0
   35.4300   29.6300   32.8660 C   0  0  2  0  0  3  0  0  0  0  0  0
   34.1710   29.4860   32.6390 O   0  0  0  0  0  1  0  0  0  0  0  0
   35.6450   30.7380   33.7800 C   0  0  0  0  0  0  0  0  0  0  0  0
   35.6760   30.6900   35.1580 C   0  0  0  0  0  0  0  0  0  0  0  0
   35.5050   29.7860   35.7050 H   0  0  0  0  0  0  0  0  0  0  0  0
   35.9190   31.7650   35.9780 C   0  0  0  0  0  3  0  0  0  0  0  0
   36.1570   32.9890   35.4020 C   0  0  0  0  0  0  0  0  0  0  0  0
   36.3570   33.8600   36.0480 H   0  0  0  0  0  0  0  0  0  0  0  0
   36.1450   33.1300   34.0380 C   0  0  0  0  0  0  0  0  0  0  0  0
   36.3400   34.0920   33.5460 H   0  0  0  0  0  0  0  0  0  0  0  0
   35.8930   32.0230   33.2540 C   0  0  0  0  0  3  0  0  0  0  0  0
   39.2350   24.5200   35.9270 C   0  0  2  0  0  0  0  0  0  0  0  0
   37.8880   24.3170   36.5320 C   0  0  0  0  0  0  0  0  0  0  0  0
   38.1810   24.2350   35.0090 C   0  0  1  0  0  0  0  0  0  0  0  0
   39.5910   25.5830   36.0700 H   0  0  0  0  0  0  0  0  0  0  0  0
   37.3140   25.1700   36.9030 H   0  0  0  0  0  0  0  0  0  0  0  0
   37.7960   23.3510   37.0790 H   0  0  0  0  0  0  0  0  0  0  0  0
   38.0870   23.1940   34.6060 H   0  0  0  0  0  0  0  0  0  0  0  0
   41.1620   21.6820   37.3120 C   0  0  0  0  0  0  0  0  0  0  0  0
   42.3070   21.6440   36.4770 C   0  0  0  0  0  0  0  0  0  0  0  0
   42.3870   22.6240   35.4380 C   0  0  0  0  0  0  0  0  0  0  0  0
   41.3830   23.5550   35.2770 N   0  0  0  0  0  0  0  0  0  0  0  0
   40.3230   23.5080   36.1370 C   0  0  0  0  0  0  0  0  0  0  0  0
   40.1880   22.5950   37.1510 N   0  0  0  0  0  0  0  0  0  0  0  0
   41.0110   20.9800   38.1230 H   0  0  0  0  0  0  0  0  0  0  0  0
   43.0540   20.9130   36.6420 H   0  0  0  0  0  0  0  0  0  0  0  0
   43.2690   22.6030   34.7900 H   0  0  0  0  0  0  0  0  0  0  0  0
  1  3  1  0  0  0  0
  2  1  2  0  0  0  0
  3  4  1  0  0  0  0
  3 27  1  0  0  0  0
  5 10  1  0  0  0  0
  5  1  1  0  0  0  0
  6  5  2  0  0  0  0
  7  6  1  0  0  0  0
  7  8  2  0  0  0  0
  8  9  1  0  0  0  0
  9 10  2  0  0  0  0
  9 14  1  0  0  0  0
 11  6  1  0  0  0  0
 12  7  1  0  0  0  0
 13  8  1  0  0  0  0
 14 15  1  6  0  0  0
 14 16  1  0  0  0  0
 16 17  1  0  0  0  0
 17 18  1  0  0  0  0
 17 19  2  0  0  0  0
 20 19  1  0  0  0  0
 20 21  1  0  0  0  0
 22 20  2  0  0  0  0
 23 22  1  0  0  0  0
 24 16  2  0  0  0  0
 24 22  1  0  0  0  0
 25 28  1  6  0  0  0
 25 36  1  0  0  0  0
 25 26  1  0  0  0  0
 26 29  1  0  0  0  0
 26 30  1  0  0  0  0
 27 31  1  6  0  0  0
 27 25  1  0  0  0  0
 27 26  1  0  0  0  0
 32 38  1  0  0  0  0
 33 39  1  0  0  0  0
 33 32  2  0  0  0  0
 34 33  1  0  0  0  0
 35 34  2  0  0  0  0
 35 36  1  0  0  0  0
 36 37  2  0  0  0  0
 37 32  1  0  0  0  0
 40 34  1  0  0  0  0
M  END
>  <minimizedAffinity>
-5.69418764

$$$$

 OpenBabel03272508593D

 40 43  0  0  1  0  0  0  0  0999 V2000
   37.6860   27.3740   34.0810 C   0  0  0  0  0  0  0  0  0  0  0  0
   37.9860   27.4690   35.2680 O   0  0  0  0  0  0  0  0  0  0  0  0
   38.3830   26.4660   33.1900 N   0  0  0  0  0  0  0  0  0  0  0  0
   38.3250   26.4790   32.1710 H   0  0  0  0  0  0  0  0  0  0  0  0
   36.5870   28.1910   33.4940 C   0  0  0  0  0  0  0  0  0  0  0  0
   36.5950   28.4300   32.1350 C   0  0  0  0  0  0  0  0  0  0  0  0
   35.5760   29.2050   31.6130 C   0  0  0  0  0  0  0  0  0  0  0  0
   34.6210   29.6870   32.4830 C   0  0  0  0  0  0  0  0  0  0  0  0
   34.6100   29.4480   33.8430 C   0  0  0  0  0  0  0  0  0  0  0  0
   35.6270   28.6900   34.2830 N   0  0  0  0  0  0  0  0  0  0  0  0
   37.3680   28.0220   31.4860 H   0  0  0  0  0  0  0  0  0  0  0  0
   35.6080   29.3660   30.5580 H   0  0  0  0  0  0  0  0  0  0  0  0
   33.9140   30.2880   31.9520 H   0  0  0  0  0  0  0  0  0  0  0  0
   33.5690   29.9630   34.7340 C   0  0  2  0  0  3  0  0  0  0  0  0
   32.4570   29.3140   34.7450 O   0  0  0  0  0  1  0  0  0  0  0  0
   33.4970   31.0870   35.6490 C   0  0  0  0  0  0  0  0  0  0  0  0
   32.3620   31.7350   36.0870 C   0  0  0  0  0  0  0  0  0  0  0  0
   31.3820   31.4700   35.7490 H   0  0  0  0  0  0  0  0  0  0  0  0
   32.3460   32.7750   36.9850 C   0  0  0  0  0  3  0  0  0  0  0  0
   33.5400   33.2160   37.5010 C   0  0  0  0  0  0  0  0  0  0  0  0
   33.5420   34.0480   38.2240 H   0  0  0  0  0  0  0  0  0  0  0  0
   34.7200   32.6290   37.1200 C   0  0  0  0  0  0  0  0  0  0  0  0
   35.6910   32.9510   37.5210 H   0  0  0  0  0  0  0  0  0  0  0  0
   34.6870   31.5890   36.2140 C   0  0  0  0  0  3  0  0  0  0  0  0
   38.6690   24.2780   34.3470 C   0  0  2  0  0  0  0  0  0  0  0  0
   39.2700   24.1340   32.9910 C   0  0  0  0  0  0  0  0  0  0  0  0
   39.2290   25.4660   33.7910 C   0  0  1  0  0  0  0  0  0  0  0  0
   37.5520   24.1100   34.3190 H   0  0  0  0  0  0  0  0  0  0  0  0
   38.6310   24.0400   32.1100 H   0  0  0  0  0  0  0  0  0  0  0  0
   40.2330   23.5730   32.9980 H   0  0  0  0  0  0  0  0  0  0  0  0
   40.2430   25.7950   34.1350 H   0  0  0  0  0  0  0  0  0  0  0  0
   39.2380   23.0390   37.7860 C   0  0  0  0  0  0  0  0  0  0  0  0
   40.5220   22.4450   37.6960 C   0  0  0  0  0  0  0  0  0  0  0  0
   41.1750   22.4960   36.4240 C   0  0  0  0  0  0  0  0  0  0  0  0
   40.5600   23.1010   35.3480 N   0  0  0  0  0  0  0  0  0  0  0  0
   39.3220   23.6450   35.5400 C   0  0  0  0  0  0  0  0  0  0  0  0
   38.6460   23.6290   36.7330 N   0  0  0  0  0  0  0  0  0  0  0  0
   38.6650   23.0480   38.7050 H   0  0  0  0  0  0  0  0  0  0  0  0
   40.9550   21.9960   38.5520 H   0  0  0  0  0  0  0  0  0  0  0  0
   42.1680   22.0420   36.3460 H   0  0  0  0  0  0  0  0  0  0  0  0
  1  2  2  0  0  0  0
  3 27  1  0  0  0  0
  3  1  1  0  0  0  0
  4  3  1  0  0  0  0
  5  1  1  0  0  0  0
  5 10  1  0  0  0  0
  6  5  2  0  0  0  0
  7  6  1  0  0  0  0
  7  8  2  0  0  0  0
  8  9  1  0  0  0  0
  9 10  2  0  0  0  0
  9 14  1  0  0  0  0
 11  6  1  0  0  0  0
 12  7  1  0  0  0  0
 13  8  1  0  0  0  0
 14 15  1  6  0  0  0
 14 16  1  0  0  0  0
 16 17  2  0  0  0  0
 16 24  1  0  0  0  0
 17 19  1  0  0  0  0
 18 17  1  0  0  0  0
 19 20  2  0  0  0  0
 20 21  1  0  0  0  0
 22 20  1  0  0  0  0
 22 23  1  0  0  0  0
 24 22  2  0  0  0  0
 25 28  1  1  0  0  0
 25 36  1  0  0  0  0
 26 30  1  0  0  0  0
 26 27  1  0  0  0  0
 26 25  1  0  0  0  0
 27 31  1  1  0  0  0
 27 25  1  0  0  0  0
 29 26  1  0  0  0  0
 32 38  1  0  0  0  0
 33 32  1  0  0  0  0
 33 39  1  0  0  0  0
 34 33  2  0  0  0  0
 35 36  2  0  0  0  0
 35 34  1  0  0  0  0
 36 37  1  0  0  0  0
 37 32  2  0  0  0  0
 40 34  1  0  0  0  0
M  END
>  <minimizedAffinity>
-5.59998608

$$$$
