
 OpenBabel03272507423D

 41 44  0  0  0  0  0  0  0  0999 V2000
   36.6320   31.1780   50.0760 C   0  0  0  0  0  0  0  0  0  0  0  0
   35.5610   30.3140   49.8510 C   0  0  0  0  0  0  0  0  0  0  0  0
   35.3560   29.1980   50.6450 C   0  0  0  0  0  0  0  0  0  0  0  0
   36.2440   28.9810   51.6530 N   0  0  0  0  0  0  0  0  0  0  0  0
   37.2880   29.8340   51.8620 C   0  0  0  0  0  0  0  0  0  0  0  0
   37.4570   30.8940   51.0850 N   0  0  0  0  0  0  0  0  0  0  0  0
   34.5520   28.4860   50.5330 H   0  0  0  0  0  0  0  0  0  0  0  0
   38.0120   29.6830   52.6600 H   0  0  0  0  0  0  0  0  0  0  0  0
   34.2370   29.3420   48.0190 C   0  0  0  0  0  0  0  0  0  0  0  0
   34.7350   28.1570   47.9100 O   0  0  0  0  0  0  0  0  0  0  0  0
   34.5980   30.4320   48.8430 N   0  0  0  0  0  0  0  0  0  0  0  0
   34.2320   31.3980   48.8180 H   0  0  0  0  0  0  0  0  0  0  0  0
   33.1050   29.5380   47.1120 C   0  0  0  0  0  0  0  0  0  0  0  0
   32.0790   28.6310   46.9470 C   0  0  0  0  0  0  0  0  0  0  0  0
   32.0700   27.7040   47.5020 H   0  0  0  0  0  0  0  0  0  0  0  0
   31.0070   28.7920   46.1020 C   0  0  0  0  0  3  0  0  0  0  0  0
   30.9240   29.9370   45.3510 C   0  0  0  0  0  0  0  0  0  0  0  0
   30.1050   30.1150   44.6730 H   0  0  0  0  0  0  0  0  0  0  0  0
   31.9070   30.8940   45.4550 C   0  0  0  0  0  0  0  0  0  0  0  0
   31.8490   31.8000   44.8650 H   0  0  0  0  0  0  0  0  0  0  0  0
   32.9320   30.6520   46.3160 C   0  0  0  0  0  3  0  0  0  0  0  0
   36.6630   32.2040   49.2030 O   0  0  0  0  0  0  0  0  0  0  0  0
   38.1740   32.1810   47.2480 C   0  0  0  0  0  0  0  0  0  0  0  0
   37.7820   32.6150   48.5100 C   0  0  0  0  0  0  0  0  0  0  0  0
   38.5430   33.5490   49.1840 C   0  0  0  0  0  0  0  0  0  0  0  0
   39.6980   34.0540   48.6090 C   0  0  0  0  0  0  0  0  0  0  0  0
   40.0840   33.6150   47.3490 C   0  0  0  0  0  0  0  0  0  0  0  0
   39.3060   32.6880   46.7060 C   0  0  0  0  0  0  0  0  0  0  0  0
   38.2970   33.9300   50.1660 H   0  0  0  0  0  0  0  0  0  0  0  0
   40.3150   34.7890   49.1170 H   0  0  0  0  0  0  0  0  0  0  0  0
   40.9830   33.9970   46.8810 H   0  0  0  0  0  0  0  0  0  0  0  0
   39.7290   32.2270   45.3600 C   0  0  0  0  0  0  0  0  0  0  0  0
   40.5740   31.1950   45.0120 C   0  0  0  0  0  0  0  0  0  0  0  0
   40.6460   31.1720   43.6230 C   0  0  0  0  0  0  0  0  0  0  0  0
   39.8290   32.2070   43.2030 C   0  0  0  0  0  0  0  0  0  0  0  0
   39.2990   32.8150   44.2520 O   0  0  0  0  0  0  0  0  0  0  0  0
   41.0400   30.5790   45.7640 H   0  0  0  0  0  0  0  0  0  0  0  0
   41.2450   30.4530   43.1010 H   0  0  0  0  0  0  0  0  0  0  0  0
   39.6790   32.4470   42.1480 H   0  0  0  0  0  0  0  0  0  0  0  0
   36.6750   30.4400   46.0830 N   0  0  0  0  0  0  0  0  0  0  0  0
   37.3390   31.2170   46.6130 C   0  0  0  0  0  0  0  0  0  0  0  0
  1  6  1  0  0  0  0
  2  1  2  0  0  0  0
  2  3  1  0  0  0  0
  3  4  2  0  0  0  0
  4  5  1  0  0  0  0
  5  8  1  0  0  0  0
  6  5  2  0  0  0  0
  7  3  1  0  0  0  0
  9 11  1  0  0  0  0
 10  9  2  0  0  0  0
 11  2  1  0  0  0  0
 12 11  1  0  0  0  0
 13  9  1  0  0  0  0
 14 13  1  0  0  0  0
 14 15  1  0  0  0  0
 16 14  2  0  0  0  0
 17 19  2  0  0  0  0
 17 16  1  0  0  0  0
 18 17  1  0  0  0  0
 19 21  1  0  0  0  0
 20 19  1  0  0  0  0
 21 13  2  0  0  0  0
 22  1  1  0  0  0  0
 23 24  1  0  0  0  0
 24 25  2  0  0  0  0
 24 22  1  0  0  0  0
 25 29  1  0  0  0  0
 26 30  1  0  0  0  0
 26 25  1  0  0  0  0
 27 26  2  0  0  0  0
 28 23  2  0  0  0  0
 28 27  1  0  0  0  0
 31 27  1  0  0  0  0
 32 28  1  0  0  0  0
 33 32  2  0  0  0  0
 33 37  1  0  0  0  0
 34 33  1  0  0  0  0
 35 34  2  0  0  0  0
 35 36  1  0  0  0  0
 36 32  1  0  0  0  0
 38 34  1  0  0  0  0
 39 35  1  0  0  0  0
 40 41  3  0  0  0  0
 41 23  1  0  0  0  0
M  END
>  <minimizedAffinity>
-6.05136156

>  <minimizedRMSD>
0.585030019

$$$$
