
 OpenBabel03272507423D

 41 44  0  0  0  0  0  0  0  0999 V2000
   36.7590   31.2010   50.0950 C   0  0  0  0  0  0  0  0  0  0  0  0
   35.7240   30.2990   49.8540 C   0  0  0  0  0  0  0  0  0  0  0  0
   35.5490   29.1740   50.6410 C   0  0  0  0  0  0  0  0  0  0  0  0
   36.4310   28.9870   51.6620 N   0  0  0  0  0  0  0  0  0  0  0  0
   37.4400   29.8760   51.8860 C   0  0  0  0  0  0  0  0  0  0  0  0
   37.5810   30.9450   51.1150 N   0  0  0  0  0  0  0  0  0  0  0  0
   34.7740   28.4330   50.5170 H   0  0  0  0  0  0  0  0  0  0  0  0
   38.1580   29.7490   52.6940 H   0  0  0  0  0  0  0  0  0  0  0  0
   34.3190   29.2450   48.1300 C   0  0  0  0  0  0  0  0  0  0  0  0
   34.7190   28.0190   48.1530 O   0  0  0  0  0  0  0  0  0  0  0  0
   34.7710   30.3850   48.8330 N   0  0  0  0  0  0  0  0  0  0  0  0
   34.4860   31.3700   48.7000 H   0  0  0  0  0  0  0  0  0  0  0  0
   33.2050   29.4330   47.2000 C   0  0  0  0  0  0  0  0  0  0  0  0
   33.0630   30.5260   46.3730 C   0  0  0  0  0  0  0  0  0  0  0  0
   33.7960   31.3200   46.3790 H   0  0  0  0  0  0  0  0  0  0  0  0
   32.0260   30.7240   45.4920 C   0  0  0  0  0  3  0  0  0  0  0  0
   31.0400   29.7750   45.4070 C   0  0  0  0  0  0  0  0  0  0  0  0
   30.2040   29.8780   44.7340 H   0  0  0  0  0  0  0  0  0  0  0  0
   31.1060   28.6510   46.1990 C   0  0  0  0  0  0  0  0  0  0  0  0
   30.3310   27.8960   46.1390 H   0  0  0  0  0  0  0  0  0  0  0  0
   32.1670   28.5370   47.0420 C   0  0  0  0  0  3  0  0  0  0  0  0
   36.7640   32.2310   49.2260 O   0  0  0  0  0  0  0  0  0  0  0  0
   38.2370   32.2260   47.2410 C   0  0  0  0  0  0  0  0  0  0  0  0
   37.8660   32.6530   48.5120 C   0  0  0  0  0  0  0  0  0  0  0  0
   38.6330   33.5910   49.1740 C   0  0  0  0  0  0  0  0  0  0  0  0
   39.7720   34.1080   48.5770 C   0  0  0  0  0  0  0  0  0  0  0  0
   40.1360   33.6760   47.3080 C   0  0  0  0  0  0  0  0  0  0  0  0
   39.3530   32.7440   46.6780 C   0  0  0  0  0  0  0  0  0  0  0  0
   38.4030   33.9680   50.1610 H   0  0  0  0  0  0  0  0  0  0  0  0
   40.3930   34.8470   49.0750 H   0  0  0  0  0  0  0  0  0  0  0  0
   41.0220   34.0670   46.8240 H   0  0  0  0  0  0  0  0  0  0  0  0
   39.7530   32.2910   45.3220 C   0  0  0  0  0  0  0  0  0  0  0  0
   40.5850   31.2550   44.9550 C   0  0  0  0  0  0  0  0  0  0  0  0
   40.6370   31.2420   43.5640 C   0  0  0  0  0  0  0  0  0  0  0  0
   39.8220   32.2860   43.1650 C   0  0  0  0  0  0  0  0  0  0  0  0
   39.3110   32.8900   44.2250 O   0  0  0  0  0  0  0  0  0  0  0  0
   41.0580   30.6300   45.6950 H   0  0  0  0  0  0  0  0  0  0  0  0
   41.2230   30.5230   43.0280 H   0  0  0  0  0  0  0  0  0  0  0  0
   39.6570   32.5360   42.1140 H   0  0  0  0  0  0  0  0  0  0  0  0
   36.7290   30.4760   46.1010 N   0  0  0  0  0  0  0  0  0  0  0  0
   37.3970   31.2570   46.6200 C   0  0  0  0  0  0  0  0  0  0  0  0
  1  6  1  0  0  0  0
  2  1  2  0  0  0  0
  2  3  1  0  0  0  0
  3  4  2  0  0  0  0
  4  5  1  0  0  0  0
  5  8  1  0  0  0  0
  6  5  2  0  0  0  0
  7  3  1  0  0  0  0
  9 10  2  0  0  0  0
  9 11  1  0  0  0  0
 11  2  1  0  0  0  0
 12 11  1  0  0  0  0
 13  9  1  0  0  0  0
 14 15  1  0  0  0  0
 14 13  2  0  0  0  0
 16 14  1  0  0  0  0
 17 16  2  0  0  0  0
 17 19  1  0  0  0  0
 18 17  1  0  0  0  0
 19 21  2  0  0  0  0
 20 19  1  0  0  0  0
 21 13  1  0  0  0  0
 22  1  1  0  0  0  0
 23 24  1  0  0  0  0
 24 25  2  0  0  0  0
 24 22  1  0  0  0  0
 25 29  1  0  0  0  0
 26 30  1  0  0  0  0
 26 25  1  0  0  0  0
 27 26  2  0  0  0  0
 28 23  2  0  0  0  0
 28 27  1  0  0  0  0
 31 27  1  0  0  0  0
 32 28  1  0  0  0  0
 33 32  2  0  0  0  0
 33 37  1  0  0  0  0
 34 33  1  0  0  0  0
 35 34  2  0  0  0  0
 35 36  1  0  0  0  0
 36 32  1  0  0  0  0
 38 34  1  0  0  0  0
 39 35  1  0  0  0  0
 40 41  3  0  0  0  0
 41 23  1  0  0  0  0
M  END
>  <minimizedAffinity>
-6.1263938

>  <minimizedRMSD>
0.471782714

$$$$
