
 OpenBabel03272507423D

 41 44  0  0  0  0  0  0  0  0999 V2000
   36.7720   31.2070   50.0890 C   0  0  0  0  0  0  0  0  0  0  0  0
   35.7320   30.3090   49.8490 C   0  0  0  0  0  0  0  0  0  0  0  0
   35.5570   29.1820   50.6330 C   0  0  0  0  0  0  0  0  0  0  0  0
   36.4410   28.9880   51.6490 N   0  0  0  0  0  0  0  0  0  0  0  0
   37.4550   29.8730   51.8730 C   0  0  0  0  0  0  0  0  0  0  0  0
   37.5970   30.9440   51.1050 N   0  0  0  0  0  0  0  0  0  0  0  0
   34.7780   28.4450   50.5090 H   0  0  0  0  0  0  0  0  0  0  0  0
   38.1750   29.7410   52.6780 H   0  0  0  0  0  0  0  0  0  0  0  0
   34.3240   29.2680   48.1200 C   0  0  0  0  0  0  0  0  0  0  0  0
   34.7250   28.0420   48.1320 O   0  0  0  0  0  0  0  0  0  0  0  0
   34.7770   30.4020   48.8320 N   0  0  0  0  0  0  0  0  0  0  0  0
   34.4890   31.3880   48.7080 H   0  0  0  0  0  0  0  0  0  0  0  0
   33.2060   29.4620   47.1960 C   0  0  0  0  0  0  0  0  0  0  0  0
   32.1730   28.5620   47.0320 C   0  0  0  0  0  0  0  0  0  0  0  0
   32.1470   27.6450   47.6010 H   0  0  0  0  0  0  0  0  0  0  0  0
   31.1130   28.7220   46.1710 C   0  0  0  0  0  3  0  0  0  0  0  0
   31.0520   29.8560   45.4010 C   0  0  0  0  0  0  0  0  0  0  0  0
   30.2440   30.0320   44.7100 H   0  0  0  0  0  0  0  0  0  0  0  0
   32.0440   30.8050   45.5040 C   0  0  0  0  0  0  0  0  0  0  0  0
   32.0030   31.7020   44.8990 H   0  0  0  0  0  0  0  0  0  0  0  0
   33.0550   30.5650   46.3810 C   0  0  0  0  0  3  0  0  0  0  0  0
   36.7780   32.2390   49.2240 O   0  0  0  0  0  0  0  0  0  0  0  0
   38.2450   32.2310   47.2350 C   0  0  0  0  0  0  0  0  0  0  0  0
   37.8790   32.6600   48.5060 C   0  0  0  0  0  0  0  0  0  0  0  0
   38.6490   33.5970   49.1660 C   0  0  0  0  0  0  0  0  0  0  0  0
   39.7870   34.1110   48.5660 C   0  0  0  0  0  0  0  0  0  0  0  0
   40.1480   33.6780   47.2960 C   0  0  0  0  0  0  0  0  0  0  0  0
   39.3610   32.7470   46.6680 C   0  0  0  0  0  0  0  0  0  0  0  0
   38.4230   33.9740   50.1540 H   0  0  0  0  0  0  0  0  0  0  0  0
   40.4110   34.8490   49.0620 H   0  0  0  0  0  0  0  0  0  0  0  0
   41.0330   34.0670   46.8090 H   0  0  0  0  0  0  0  0  0  0  0  0
   39.7570   32.2930   45.3120 C   0  0  0  0  0  0  0  0  0  0  0  0
   40.5880   31.2570   44.9420 C   0  0  0  0  0  0  0  0  0  0  0  0
   40.6350   31.2430   43.5510 C   0  0  0  0  0  0  0  0  0  0  0  0
   39.8180   32.2860   43.1540 C   0  0  0  0  0  0  0  0  0  0  0  0
   39.3110   32.8910   44.2160 O   0  0  0  0  0  0  0  0  0  0  0  0
   41.0630   30.6320   45.6810 H   0  0  0  0  0  0  0  0  0  0  0  0
   41.2190   30.5230   43.0140 H   0  0  0  0  0  0  0  0  0  0  0  0
   39.6500   32.5350   42.1040 H   0  0  0  0  0  0  0  0  0  0  0  0
   36.7320   30.4830   46.0990 N   0  0  0  0  0  0  0  0  0  0  0  0
   37.4030   31.2630   46.6160 C   0  0  0  0  0  0  0  0  0  0  0  0
  1  6  1  0  0  0  0
  2  1  2  0  0  0  0
  2  3  1  0  0  0  0
  3  4  2  0  0  0  0
  4  5  1  0  0  0  0
  5  8  1  0  0  0  0
  6  5  2  0  0  0  0
  7  3  1  0  0  0  0
  9 10  2  0  0  0  0
  9 11  1  0  0  0  0
 11  2  1  0  0  0  0
 12 11  1  0  0  0  0
 13  9  1  0  0  0  0
 14 13  1  0  0  0  0
 14 15  1  0  0  0  0
 16 14  2  0  0  0  0
 17 19  2  0  0  0  0
 17 16  1  0  0  0  0
 18 17  1  0  0  0  0
 19 21  1  0  0  0  0
 20 19  1  0  0  0  0
 21 13  2  0  0  0  0
 22  1  1  0  0  0  0
 23 24  1  0  0  0  0
 24 25  2  0  0  0  0
 24 22  1  0  0  0  0
 25 29  1  0  0  0  0
 26 30  1  0  0  0  0
 26 25  1  0  0  0  0
 27 26  2  0  0  0  0
 28 23  2  0  0  0  0
 28 27  1  0  0  0  0
 31 27  1  0  0  0  0
 32 28  1  0  0  0  0
 33 32  2  0  0  0  0
 33 37  1  0  0  0  0
 34 33  1  0  0  0  0
 35 34  2  0  0  0  0
 35 36  1  0  0  0  0
 36 32  1  0  0  0  0
 38 34  1  0  0  0  0
 39 35  1  0  0  0  0
 40 41  3  0  0  0  0
 41 23  1  0  0  0  0
M  END
>  <minimizedAffinity>
-6.13942575

>  <minimizedRMSD>
0.479462653

$$$$
