
 OpenBabel03272507423D

 41 44  0  0  0  0  0  0  0  0999 V2000
   36.7690   31.2030   50.1030 C   0  0  0  0  0  0  0  0  0  0  0  0
   35.7310   30.3050   49.8600 C   0  0  0  0  0  0  0  0  0  0  0  0
   35.5560   29.1760   50.6420 C   0  0  0  0  0  0  0  0  0  0  0  0
   36.4410   28.9800   51.6580 N   0  0  0  0  0  0  0  0  0  0  0  0
   37.4530   29.8660   51.8850 C   0  0  0  0  0  0  0  0  0  0  0  0
   37.5940   30.9390   51.1190 N   0  0  0  0  0  0  0  0  0  0  0  0
   34.7790   28.4380   50.5150 H   0  0  0  0  0  0  0  0  0  0  0  0
   38.1730   29.7330   52.6900 H   0  0  0  0  0  0  0  0  0  0  0  0
   34.3240   29.2650   48.1290 C   0  0  0  0  0  0  0  0  0  0  0  0
   34.7260   28.0400   48.1400 O   0  0  0  0  0  0  0  0  0  0  0  0
   34.7760   30.3990   48.8430 N   0  0  0  0  0  0  0  0  0  0  0  0
   34.4880   31.3850   48.7210 H   0  0  0  0  0  0  0  0  0  0  0  0
   33.2070   29.4600   47.2050 C   0  0  0  0  0  0  0  0  0  0  0  0
   32.1700   28.5650   47.0450 C   0  0  0  0  0  0  0  0  0  0  0  0
   32.1400   27.6500   47.6160 H   0  0  0  0  0  0  0  0  0  0  0  0
   31.1090   28.7260   46.1830 C   0  0  0  0  0  3  0  0  0  0  0  0
   31.0530   29.8560   45.4100 C   0  0  0  0  0  0  0  0  0  0  0  0
   30.2450   30.0340   44.7180 H   0  0  0  0  0  0  0  0  0  0  0  0
   32.0490   30.8020   45.5080 C   0  0  0  0  0  0  0  0  0  0  0  0
   32.0110   31.6970   44.9000 H   0  0  0  0  0  0  0  0  0  0  0  0
   33.0600   30.5610   46.3850 C   0  0  0  0  0  3  0  0  0  0  0  0
   36.7750   32.2380   49.2400 O   0  0  0  0  0  0  0  0  0  0  0  0
   38.2430   32.2320   47.2530 C   0  0  0  0  0  0  0  0  0  0  0  0
   37.8750   32.6610   48.5240 C   0  0  0  0  0  0  0  0  0  0  0  0
   38.6420   33.6000   49.1830 C   0  0  0  0  0  0  0  0  0  0  0  0
   39.7790   34.1170   48.5840 C   0  0  0  0  0  0  0  0  0  0  0  0
   40.1420   33.6840   47.3150 C   0  0  0  0  0  0  0  0  0  0  0  0
   39.3580   32.7510   46.6870 C   0  0  0  0  0  0  0  0  0  0  0  0
   38.4140   33.9770   50.1710 H   0  0  0  0  0  0  0  0  0  0  0  0
   40.4000   34.8570   49.0810 H   0  0  0  0  0  0  0  0  0  0  0  0
   41.0260   34.0750   46.8290 H   0  0  0  0  0  0  0  0  0  0  0  0
   39.7570   32.2970   45.3310 C   0  0  0  0  0  0  0  0  0  0  0  0
   40.5890   31.2620   44.9630 C   0  0  0  0  0  0  0  0  0  0  0  0
   40.6380   31.2480   43.5720 C   0  0  0  0  0  0  0  0  0  0  0  0
   39.8210   32.2910   43.1740 C   0  0  0  0  0  0  0  0  0  0  0  0
   39.3120   32.8950   44.2340 O   0  0  0  0  0  0  0  0  0  0  0  0
   41.0630   30.6370   45.7030 H   0  0  0  0  0  0  0  0  0  0  0  0
   41.2240   30.5280   43.0360 H   0  0  0  0  0  0  0  0  0  0  0  0
   39.6550   32.5390   42.1230 H   0  0  0  0  0  0  0  0  0  0  0  0
   36.7350   30.4800   46.1170 N   0  0  0  0  0  0  0  0  0  0  0  0
   37.4040   31.2620   46.6340 C   0  0  0  0  0  0  0  0  0  0  0  0
  1  6  1  0  0  0  0
  2  1  2  0  0  0  0
  2  3  1  0  0  0  0
  3  4  2  0  0  0  0
  4  5  1  0  0  0  0
  5  8  1  0  0  0  0
  6  5  2  0  0  0  0
  7  3  1  0  0  0  0
  9 10  2  0  0  0  0
  9 11  1  0  0  0  0
 11  2  1  0  0  0  0
 12 11  1  0  0  0  0
 13  9  1  0  0  0  0
 14 13  1  0  0  0  0
 14 15  1  0  0  0  0
 16 14  2  0  0  0  0
 17 19  2  0  0  0  0
 17 16  1  0  0  0  0
 18 17  1  0  0  0  0
 19 21  1  0  0  0  0
 20 19  1  0  0  0  0
 21 13  2  0  0  0  0
 22  1  1  0  0  0  0
 23 24  1  0  0  0  0
 24 25  2  0  0  0  0
 24 22  1  0  0  0  0
 25 29  1  0  0  0  0
 26 30  1  0  0  0  0
 26 25  1  0  0  0  0
 27 26  2  0  0  0  0
 28 23  2  0  0  0  0
 28 27  1  0  0  0  0
 31 27  1  0  0  0  0
 32 28  1  0  0  0  0
 33 32  2  0  0  0  0
 33 37  1  0  0  0  0
 34 33  1  0  0  0  0
 35 34  2  0  0  0  0
 35 36  1  0  0  0  0
 36 32  1  0  0  0  0
 38 34  1  0  0  0  0
 39 35  1  0  0  0  0
 40 41  3  0  0  0  0
 41 23  1  0  0  0  0
M  END
>  <minimizedAffinity>
-6.12903595

>  <minimizedRMSD>
0.648238659

$$$$
