
 OpenBabel03272507423D

 41 44  0  0  0  0  0  0  0  0999 V2000
   36.6340   31.1760   50.0820 C   0  0  0  0  0  0  0  0  0  0  0  0
   35.5620   30.3110   49.8590 C   0  0  0  0  0  0  0  0  0  0  0  0
   35.3600   29.1950   50.6530 C   0  0  0  0  0  0  0  0  0  0  0  0
   36.2500   28.9790   51.6600 N   0  0  0  0  0  0  0  0  0  0  0  0
   37.2940   29.8310   51.8660 C   0  0  0  0  0  0  0  0  0  0  0  0
   37.4620   30.8920   51.0890 N   0  0  0  0  0  0  0  0  0  0  0  0
   34.5560   28.4830   50.5430 H   0  0  0  0  0  0  0  0  0  0  0  0
   38.0200   29.6810   52.6630 H   0  0  0  0  0  0  0  0  0  0  0  0
   34.2380   29.3400   48.0270 C   0  0  0  0  0  0  0  0  0  0  0  0
   34.7390   28.1570   47.9140 O   0  0  0  0  0  0  0  0  0  0  0  0
   34.5980   30.4290   48.8530 N   0  0  0  0  0  0  0  0  0  0  0  0
   34.2290   31.3950   48.8310 H   0  0  0  0  0  0  0  0  0  0  0  0
   33.1040   29.5350   47.1230 C   0  0  0  0  0  0  0  0  0  0  0  0
   32.9290   30.6500   46.3290 C   0  0  0  0  0  0  0  0  0  0  0  0
   33.6490   31.4540   46.3450 H   0  0  0  0  0  0  0  0  0  0  0  0
   31.8730   30.8530   45.4720 C   0  0  0  0  0  3  0  0  0  0  0  0
   30.9020   29.8900   45.3780 C   0  0  0  0  0  0  0  0  0  0  0  0
   30.0530   29.9990   44.7220 H   0  0  0  0  0  0  0  0  0  0  0  0
   31.0000   28.7450   46.1360 C   0  0  0  0  0  0  0  0  0  0  0  0
   30.2380   27.9790   46.0680 H   0  0  0  0  0  0  0  0  0  0  0  0
   32.0780   28.6250   46.9570 C   0  0  0  0  0  3  0  0  0  0  0  0
   36.6630   32.2020   49.2090 O   0  0  0  0  0  0  0  0  0  0  0  0
   38.1740   32.1850   47.2540 C   0  0  0  0  0  0  0  0  0  0  0  0
   37.7810   32.6170   48.5170 C   0  0  0  0  0  0  0  0  0  0  0  0
   38.5410   33.5500   49.1930 C   0  0  0  0  0  0  0  0  0  0  0  0
   39.6950   34.0580   48.6180 C   0  0  0  0  0  0  0  0  0  0  0  0
   40.0810   33.6220   47.3570 C   0  0  0  0  0  0  0  0  0  0  0  0
   39.3050   32.6960   46.7130 C   0  0  0  0  0  0  0  0  0  0  0  0
   38.2940   33.9290   50.1750 H   0  0  0  0  0  0  0  0  0  0  0  0
   40.3110   34.7930   49.1280 H   0  0  0  0  0  0  0  0  0  0  0  0
   40.9790   34.0070   46.8900 H   0  0  0  0  0  0  0  0  0  0  0  0
   39.7280   32.2380   45.3650 C   0  0  0  0  0  0  0  0  0  0  0  0
   40.5650   31.2000   45.0150 C   0  0  0  0  0  0  0  0  0  0  0  0
   40.6420   31.1840   43.6260 C   0  0  0  0  0  0  0  0  0  0  0  0
   39.8360   32.2280   43.2090 C   0  0  0  0  0  0  0  0  0  0  0  0
   39.3070   32.8350   44.2590 O   0  0  0  0  0  0  0  0  0  0  0  0
   41.0230   30.5760   45.7650 H   0  0  0  0  0  0  0  0  0  0  0  0
   41.2360   30.4620   43.1020 H   0  0  0  0  0  0  0  0  0  0  0  0
   39.6900   32.4750   42.1550 H   0  0  0  0  0  0  0  0  0  0  0  0
   36.6770   30.4450   46.0860 N   0  0  0  0  0  0  0  0  0  0  0  0
   37.3400   31.2220   46.6170 C   0  0  0  0  0  0  0  0  0  0  0  0
  1  6  1  0  0  0  0
  2  1  2  0  0  0  0
  2  3  1  0  0  0  0
  3  4  2  0  0  0  0
  4  5  1  0  0  0  0
  5  8  1  0  0  0  0
  6  5  2  0  0  0  0
  7  3  1  0  0  0  0
  9 11  1  0  0  0  0
 10  9  2  0  0  0  0
 11  2  1  0  0  0  0
 12 11  1  0  0  0  0
 13  9  1  0  0  0  0
 14 15  1  0  0  0  0
 14 13  2  0  0  0  0
 16 14  1  0  0  0  0
 17 16  2  0  0  0  0
 17 19  1  0  0  0  0
 18 17  1  0  0  0  0
 19 21  2  0  0  0  0
 20 19  1  0  0  0  0
 21 13  1  0  0  0  0
 22  1  1  0  0  0  0
 23 24  1  0  0  0  0
 24 25  2  0  0  0  0
 24 22  1  0  0  0  0
 25 29  1  0  0  0  0
 26 30  1  0  0  0  0
 26 25  1  0  0  0  0
 27 26  2  0  0  0  0
 28 23  2  0  0  0  0
 28 27  1  0  0  0  0
 31 27  1  0  0  0  0
 32 28  1  0  0  0  0
 33 32  2  0  0  0  0
 33 37  1  0  0  0  0
 34 33  1  0  0  0  0
 35 34  2  0  0  0  0
 35 36  1  0  0  0  0
 36 32  1  0  0  0  0
 38 34  1  0  0  0  0
 39 35  1  0  0  0  0
 40 41  3  0  0  0  0
 41 23  1  0  0  0  0
M  END
>  <minimizedAffinity>
-6.05561829

>  <minimizedRMSD>
0.429400593

$$$$
