
 OpenBabel03272507313D

 29 31  0  0  0  0  0  0  0  0999 V2000
   35.8800   29.2560   49.7540 C   0  0  0  0  0  0  0  0  0  0  0  0
   34.8880   29.8290   50.4780 C   0  0  0  0  0  0  0  0  0  0  0  0
   33.6750   29.2690   50.0500 C   0  0  0  0  0  0  0  0  0  0  0  0
   34.0260   28.3560   49.0520 C   0  0  0  0  0  0  0  0  0  0  0  0
   35.3100   28.4180   48.9540 O   0  0  0  0  0  0  0  0  0  0  0  0
   34.8440   30.5780   51.2630 H   0  0  0  0  0  0  0  0  0  0  0  0
   32.6760   29.4580   50.3730 H   0  0  0  0  0  0  0  0  0  0  0  0
   37.2780   29.5920   49.9270 C   0  0  0  0  0  0  0  0  0  0  0  0
   37.9330   29.0190   50.8010 O   0  0  0  0  0  0  0  0  0  0  0  0
   37.8270   30.6080   49.0370 C   0  0  0  0  0  0  0  0  0  0  0  0
   38.1770   31.8250   49.6150 C   0  0  0  0  0  0  0  0  0  0  0  0
   38.7030   32.8200   48.8080 C   0  0  0  0  0  0  0  0  0  0  0  0
   38.8530   32.5600   47.4780 N   0  0  0  0  0  0  0  0  0  0  0  0
   38.5080   31.3790   46.9450 C   0  0  0  0  0  0  0  0  0  0  0  0
   38.0000   30.4140   47.7200 N   0  0  0  0  0  0  0  0  0  0  0  0
   38.0690   32.0590   50.6720 H   0  0  0  0  0  0  0  0  0  0  0  0
   38.9980   33.7920   49.1820 H   0  0  0  0  0  0  0  0  0  0  0  0
   38.6010   31.1120   45.9000 H   0  0  0  0  0  0  0  0  0  0  0  0
   33.0810   27.5150   48.2970 C   0  0  0  0  0  0  0  0  0  0  0  0
   31.8670   27.5160   48.6360 O   0  0  0  0  0  0  0  0  0  0  0  0
   33.5380   26.7110   47.1960 C   0  0  0  0  0  0  0  0  0  0  0  0
   33.6870   27.2310   45.9220 C   0  0  0  0  0  0  0  0  0  0  0  0
   33.4620   28.2650   45.7130 H   0  0  0  0  0  0  0  0  0  0  0  0
   34.1280   26.4370   44.8900 C   0  0  0  0  0  3  0  0  0  0  0  0
   34.4430   25.1050   45.0470 C   0  0  0  0  0  0  0  0  0  0  0  0
   34.7920   24.4600   44.2470 H   0  0  0  0  0  0  0  0  0  0  0  0
   34.3040   24.5560   46.3090 C   0  0  0  0  0  0  0  0  0  0  0  0
   34.5460   23.5200   46.4440 H   0  0  0  0  0  0  0  0  0  0  0  0
   33.8620   25.3630   47.3310 C   0  0  0  0  0  3  0  0  0  0  0  0
  1  8  1  0  0  0  0
  1  2  2  0  0  0  0
  2  6  1  0  0  0  0
  3  7  1  0  0  0  0
  3  2  1  0  0  0  0
  4  3  2  0  0  0  0
  5  4  1  0  0  0  0
  5  1  1  0  0  0  0
  8  9  2  0  0  0  0
 10 11  1  0  0  0  0
 10  8  1  0  0  0  0
 11 16  1  0  0  0  0
 12 17  1  0  0  0  0
 12 11  2  0  0  0  0
 13 12  1  0  0  0  0
 14 13  2  0  0  0  0
 14 15  1  0  0  0  0
 15 10  2  0  0  0  0
 18 14  1  0  0  0  0
 19 20  2  0  0  0  0
 19  4  1  0  0  0  0
 21 29  1  0  0  0  0
 21 19  1  0  0  0  0
 22 21  2  0  0  0  0
 23 22  1  0  0  0  0
 24 25  2  0  0  0  0
 24 22  1  0  0  0  0
 25 27  1  0  0  0  0
 26 25  1  0  0  0  0
 27 28  1  0  0  0  0
 27 29  2  0  0  0  0
M  END
>  <minimizedAffinity>
-5.46322584

>  <minimizedRMSD>
1.11622679

$$$$
