
     RDKit          3D

 43 46  0  0  0  0  0  0  0  0999 V2000
   38.2672   32.2910   47.3951 C   0  0  0  0  0  0  0  0  0  0  0  0
   37.9079   32.7335   48.6637 C   0  0  0  0  0  0  0  0  0  0  0  0
   38.6748   33.6858   49.3043 C   0  0  0  0  0  0  0  0  0  0  0  0
   39.8035   34.2031   48.6867 C   0  0  0  0  0  0  0  0  0  0  0  0
   40.1556   33.7561   47.4199 C   0  0  0  0  0  0  0  0  0  0  0  0
   39.3728   32.8102   46.8119 C   0  0  0  0  0  0  0  0  0  0  0  0
   39.7608   32.3412   45.4582 C   0  0  0  0  0  0  0  0  0  0  0  0
   40.6198   31.3255   45.0953 C   0  0  0  0  0  0  0  0  0  0  0  0
   40.6444   31.2845   43.7039 C   0  0  0  0  0  0  0  0  0  0  0  0
   39.7864   32.2923   43.3005 C   0  0  0  0  0  0  0  0  0  0  0  0
   39.2774   32.9015   44.3584 O   0  0  0  0  0  0  0  0  0  0  0  0
   36.7602   30.5143   46.2974 N   0  0  0  0  0  0  0  0  0  0  0  0
   37.4275   31.3072   46.7971 C   0  0  0  0  0  0  0  0  0  0  0  0
   36.8183   32.3117   49.3970 O   0  0  0  0  0  0  0  0  0  0  0  0
   36.7876   31.2057   50.1663 C   0  0  0  0  0  0  0  0  0  0  0  0
   35.6514   30.4288   49.9471 C   0  0  0  0  0  0  0  0  0  0  0  0
   35.4367   29.2522   50.6430 C   0  0  0  0  0  0  0  0  0  0  0  0
   36.3832   28.8855   51.5506 N   0  0  0  0  0  0  0  0  0  0  0  0
   37.4908   29.6543   51.7554 C   0  0  0  0  0  0  0  0  0  0  0  0
   37.6677   30.7767   51.0731 N   0  0  0  0  0  0  0  0  0  0  0  0
   34.1352   29.7220   48.1425 C   0  0  0  0  0  0  0  0  0  0  0  0
   34.5486   28.5294   47.8786 O   0  0  0  0  0  0  0  0  0  0  0  0
   34.6250   30.7014   49.0360 N   0  0  0  0  0  0  0  0  0  0  0  0
   38.4537   34.0739   50.2893 H   0  0  0  0  0  0  0  0  0  0  0  0
   40.4241   34.9525   49.1677 H   0  0  0  0  0  0  0  0  0  0  0  0
   41.0333   34.1474   46.9201 H   0  0  0  0  0  0  0  0  0  0  0  0
   41.1282   30.7326   45.8379 H   0  0  0  0  0  0  0  0  0  0  0  0
   41.2432   30.5741   43.1706 H   0  0  0  0  0  0  0  0  0  0  0  0
   39.5917   32.5128   42.2482 H   0  0  0  0  0  0  0  0  0  0  0  0
   34.5840   28.6000   50.5286 H   0  0  0  0  0  0  0  0  0  0  0  0
   38.2618   29.3844   52.4738 H   0  0  0  0  0  0  0  0  0  0  0  0
   34.3185   31.6841   49.1339 H   0  0  0  0  0  0  0  0  0  0  0  0
   32.9529   30.0698   47.3531 C   0  0  0  0  0  0  0  0  0  0  0  0
   32.9857   30.3986   46.0139 C   0  0  0  0  0  0  0  0  0  0  0  0
   33.9208   30.4139   45.4743 H   0  0  0  0  0  0  0  0  0  0  0  0
   31.8889   30.7281   45.2522 C   0  0  0  0  0  0  0  0  0  0  0  0
   30.6523   30.7389   45.8438 C   0  0  0  0  0  0  0  0  0  0  0  0
   29.7595   30.9897   45.2938 H   0  0  0  0  0  0  0  0  0  0  0  0
   30.5309   30.4226   47.1785 C   0  0  0  0  0  0  0  0  0  0  0  0
   29.5579   30.4289   47.6530 H   0  0  0  0  0  0  0  0  0  0  0  0
   31.6679   30.1089   47.8557 C   0  0  0  0  0  0  0  0  0  0  0  0
   31.9553   30.9796   44.2065 H   0  0  0  0  0  0  0  0  0  0  0  0
   31.5192   29.8634   48.9196 H   0  0  0  0  0  0  0  0  0  0  0  0
  1  2  2  0
  2  3  1  0
  2 14  1  0
  4  3  2  0
  5  4  1  0
  6  1  1  0
  6  5  2  0
  7  6  1  0
  8  7  2  0
  9  8  1  0
 10  9  2  0
 10 11  1  0
 11  7  1  0
 12 13  3  0
 13  1  1  0
 14 15  1  0
 15 20  2  0
 16 15  1  0
 16 17  2  0
 17 18  1  0
 18 19  2  0
 20 19  1  0
 21 23  1  0
 22 21  2  0
 23 16  1  0
  3 24  1  0
  4 25  1  0
  5 26  1  0
  8 27  1  0
  9 28  1  0
 10 29  1  0
 17 30  1  0
 19 31  1  0
 23 32  1  0
 33 34  2  0
 34 35  1  0
 34 36  1  0
 36 37  2  0
 37 38  1  0
 37 39  1  0
 39 40  1  0
 39 41  2  0
 41 33  1  0
 36 42  1  0
 41 43  1  0
 21 33  1  0
M  ISO  8  24  14  25  14  26  14  27  14  28  14  29  14  30  14  31  14
M  ISO  3  35  16  38  16  40  16
M  END
>  <DihAtoms>  (1) 
22,20,32,33

>  <DihDeg>  (1) 
-0.5050461882265687

$$$$
