
     RDKit          3D

 25 26  0  0  0  0  0  0  0  0999 V2000
   37.7633   30.5126   49.3349 C   0  0  0  0  0  0  0  0  0  0  0  0
   38.2344   31.7297   49.8462 C   0  0  0  0  0  0  0  0  0  0  0  0
   38.6204   32.6953   48.9145 C   0  0  0  0  0  0  0  0  0  0  0  0
   38.5290   32.4305   47.5768 N   0  0  0  0  0  0  0  0  0  0  0  0
   38.0635   31.2302   47.1563 C   0  0  0  0  0  0  0  0  0  0  0  0
   37.6900   30.2948   48.0211 N   0  0  0  0  0  0  0  0  0  0  0  0
   37.2926   29.3380   50.5914 S   0  0  0  0  0  0  0  0  0  0  0  0
   35.4987   29.3397   50.7391 C   0  0  0  0  0  0  0  0  0  0  0  0
   34.6920   28.4133   49.3917 S   0  0  0  0  0  0  0  0  0  0  0  0
   38.3115   31.9523   50.9035 H   0  0  0  0  0  0  0  0  0  0  0  0
   38.9862   33.6397   49.2939 H   0  0  0  0  0  0  0  0  0  0  0  0
   37.9670   30.9586   46.1134 H   0  0  0  0  0  0  0  0  0  0  0  0
   35.0573   30.3492   50.8194 H   0  0  0  0  0  0  0  0  0  0  0  0
   35.2589   28.7873   51.6734 H   0  0  0  0  0  0  0  0  0  0  0  0
   35.0763   26.6764   49.4901 C   0  0  0  0  0  0  0  0  0  0  0  0
   34.3242   25.7786   48.7622 C   0  0  0  0  0  0  0  0  0  0  0  0
   33.5169   26.1305   48.1453 H   0  0  0  0  0  0  0  0  0  0  0  0
   34.6910   24.4637   48.8977 C   0  0  0  0  0  0  0  0  0  0  0  0
   35.7021   23.9648   49.6629 C   0  0  0  0  0  0  0  0  0  0  0  0
   35.9609   22.9294   49.7455 H   0  0  0  0  0  0  0  0  0  0  0  0
   36.3928   24.9580   50.3524 C   0  0  0  0  0  0  0  0  0  0  0  0
   37.2319   24.6604   51.0024 H   0  0  0  0  0  0  0  0  0  0  0  0
   36.1394   26.3132   50.3146 C   0  0  0  0  0  0  0  0  0  0  0  0
   34.0871   23.7621   48.3170 H   0  0  0  0  0  0  0  0  0  0  0  0
   36.7359   27.0057   50.8893 H   0  0  0  0  0  0  0  0  0  0  0  0
  1  2  2  0
  1  7  1  0
  3  2  1  0
  4  3  2  0
  5  4  1  0
  5  6  2  0
  6  1  1  0
  7  8  1  0
  9  8  1  0
  2 10  1  0
  3 11  1  0
  5 12  1  0
  8 13  1  0
  8 14  1  0
 15 16  2  0
 16 17  1  0
 16 18  1  0
 18 19  2  0
 19 20  1  0
 19 21  1  0
 21 22  1  0
 21 23  2  0
 23 15  1  0
 18 24  1  0
 23 25  1  0
  9 15  1  0
M  ISO  8  10  14  11  14  12  14  13   8  14   8  17  16  20  16  22  16
M  END
>  <DihAtoms>  (1) 
7,8,14,15

>  <DihDeg>  (1) 
0.020918111722812657

$$$$
