REMARK  Name = 
REMARK  4 active torsions:
REMARK  status: ('A' for Active; 'I' for Inactive)
REMARK    1  A    between atoms: C_1  and  S_7
REMARK    2  A    between atoms: S_7  and  C_8
REMARK    3  A    between atoms: C_8  and  S_9
REMARK    4  A    between atoms: S_9  and  C_15
REMARK                            x       y       z     vdW  Elec       q    Type
REMARK                         _______ _______ _______ _____ _____    ______ ____
ROOT
ATOM      1  C   UNL     1      35.499  29.340  50.739  0.00  0.00    +0.000 C 
ATOM      2  H   UNL     1      35.057  30.349  50.819  0.00  0.00    +0.000 HD
ATOM      3  H   UNL     1      35.259  28.787  51.673  0.00  0.00    +0.000 HD
ENDROOT
BRANCH   1   4
ATOM      4  S   UNL     1      37.293  29.338  50.591  0.00  0.00    +0.000 S 
BRANCH   4   5
ATOM      5  C   UNL     1      37.763  30.513  49.335  0.00  0.00    +0.000 A 
ATOM      6  C   UNL     1      38.234  31.730  49.846  0.00  0.00    +0.000 A 
ATOM      7  C   UNL     1      38.620  32.695  48.914  0.00  0.00    +0.000 A 
ATOM      8  N   UNL     1      38.529  32.431  47.577  0.00  0.00    +0.000 NA
ATOM      9  C   UNL     1      38.063  31.230  47.156  0.00  0.00    +0.000 A 
ATOM     10  N   UNL     1      37.690  30.295  48.021  0.00  0.00    +0.000 NA
ATOM     11  H   UNL     1      38.312  31.952  50.904  0.00  0.00    +0.000 HD
ATOM     12  H   UNL     1      38.986  33.640  49.294  0.00  0.00    +0.000 HD
ATOM     13  H   UNL     1      37.967  30.959  46.113  0.00  0.00    +0.000 HD
ENDBRANCH   4   5
ENDBRANCH   1   4
BRANCH   1  14
ATOM     14  S   UNL     1      34.692  28.413  49.392  0.00  0.00    +0.000 S 
BRANCH  14  15
ATOM     15  C   UNL     1      35.076  26.676  49.490  0.00  0.00    +0.000 A 
ATOM     16  C   UNL     1      34.324  25.779  48.762  0.00  0.00    +0.000 A 
ATOM     17  H   UNL     1      33.517  26.131  48.145  0.00  0.00    +0.000 HD
ATOM     18  C   UNL     1      34.691  24.464  48.898  0.00  0.00    +0.000 A 
ATOM     19  C   UNL     1      35.702  23.965  49.663  0.00  0.00    +0.000 A 
ATOM     20  H   UNL     1      35.961  22.929  49.745  0.00  0.00    +0.000 HD
ATOM     21  C   UNL     1      36.393  24.958  50.352  0.00  0.00    +0.000 A 
ATOM     22  H   UNL     1      37.232  24.660  51.002  0.00  0.00    +0.000 HD
ATOM     23  C   UNL     1      36.139  26.313  50.315  0.00  0.00    +0.000 A 
ENDBRANCH  14  15
ENDBRANCH   1  14
TORSDOF 4
