
 OpenBabel03262521533D

 23 24  0  0  0  0  0  0  0  0999 V2000
   35.4930   29.4890   32.2940 C   0  0  0  0  0  0  0  0  0  0  0  0
   36.2920   30.1620   32.6520 H   0  0  0  0  0  0  0  0  0  0  0  0
   35.2490   29.7760   31.2480 H   0  0  0  0  0  0  0  0  0  0  0  0
   33.9600   29.6150   33.2280 S   0  0  0  0  0  0  0  0  0  0  0  0
   34.2730   30.5470   34.7150 C   0  0  0  0  0  0  0  0  0  0  0  0
   35.6000   30.9780   34.8450 C   0  0  0  0  0  0  0  0  0  0  0  0
   35.9120   31.7150   35.9880 C   0  0  0  0  0  0  0  0  0  0  0  0
   34.9450   31.9850   36.9150 N   0  0  0  0  0  0  0  0  0  0  0  0
   33.6820   31.5350   36.7220 C   0  0  0  0  0  0  0  0  0  0  0  0
   33.3580   30.8320   35.6440 N   0  0  0  0  0  0  0  0  0  0  0  0
   36.3760   30.7720   34.1170 H   0  0  0  0  0  0  0  0  0  0  0  0
   36.9340   32.0550   36.1020 H   0  0  0  0  0  0  0  0  0  0  0  0
   32.8720   31.7140   37.4170 H   0  0  0  0  0  0  0  0  0  0  0  0
   36.1140   27.7770   32.2080 S   0  0  0  0  0  0  0  0  0  0  0  0
   37.3740   27.4900   33.4340 C   0  0  0  0  0  0  0  0  0  0  0  0
   37.0550   27.6190   34.7690 C   0  0  0  0  0  0  0  0  0  0  0  0
   36.0560   27.8900   35.0590 H   0  0  0  0  0  0  0  0  0  0  0  0
   38.0850   27.3780   35.6420 C   0  0  0  0  0  3  0  0  0  0  0  0
   39.3670   27.0330   35.3300 C   0  0  0  0  0  0  0  0  0  0  0  0
   40.1480   26.8530   36.0390 H   0  0  0  0  0  0  0  0  0  0  0  0
   39.5750   26.9320   33.9570 C   0  0  0  0  0  0  0  0  0  0  0  0
   40.5800   26.6570   33.5960 H   0  0  0  0  0  0  0  0  0  0  0  0
   38.6400   27.1430   32.9660 C   0  0  0  0  0  3  0  0  0  0  0  0
  1  2  1  0  0  0  0
  1  4  1  0  0  0  0
  3  1  1  0  0  0  0
  4  5  1  0  0  0  0
  5  6  2  0  0  0  0
  5 10  1  0  0  0  0
  6  7  1  0  0  0  0
  7 12  1  0  0  0  0
  7  8  2  0  0  0  0
  9  8  1  0  0  0  0
  9 13  1  0  0  0  0
 10  9  2  0  0  0  0
 11  6  1  0  0  0  0
 14  1  1  0  0  0  0
 14 15  1  0  0  0  0
 15 16  1  0  0  0  0
 16 17  1  0  0  0  0
 16 18  2  0  0  0  0
 19 18  1  0  0  0  0
 19 20  1  0  0  0  0
 21 19  2  0  0  0  0
 22 21  1  0  0  0  0
 23 15  2  0  0  0  0
 23 21  1  0  0  0  0
M  END
>  <minimizedAffinity>
-4.2844162

$$$$

 OpenBabel03262521533D

 23 24  0  0  0  0  0  0  0  0999 V2000
   38.4590   23.4470   33.0770 C   0  0  0  0  0  0  0  0  0  0  0  0
   38.7760   22.4780   33.5010 H   0  0  0  0  0  0  0  0  0  0  0  0
   39.2550   23.7940   32.3830 H   0  0  0  0  0  0  0  0  0  0  0  0
   38.2500   24.7470   34.3050 S   0  0  0  0  0  0  0  0  0  0  0  0
   38.6490   24.0840   35.9110 C   0  0  0  0  0  0  0  0  0  0  0  0
   37.7930   24.5190   36.9320 C   0  0  0  0  0  0  0  0  0  0  0  0
   38.0500   24.0360   38.2160 C   0  0  0  0  0  0  0  0  0  0  0  0
   39.0950   23.1820   38.4300 N   0  0  0  0  0  0  0  0  0  0  0  0
   39.8820   22.8050   37.3930 C   0  0  0  0  0  0  0  0  0  0  0  0
   39.6590   23.2490   36.1620 N   0  0  0  0  0  0  0  0  0  0  0  0
   36.9600   25.1950   36.7760 H   0  0  0  0  0  0  0  0  0  0  0  0
   37.3970   24.3630   39.0150 H   0  0  0  0  0  0  0  0  0  0  0  0
   40.7230   22.1320   37.4960 H   0  0  0  0  0  0  0  0  0  0  0  0
   36.9690   23.2200   32.0500 S   0  0  0  0  0  0  0  0  0  0  0  0
   36.3460   21.5560   32.1850 C   0  0  0  0  0  0  0  0  0  0  0  0
   35.9490   21.0840   33.4180 C   0  0  0  0  0  0  0  0  0  0  0  0
   36.0180   21.7180   34.2830 H   0  0  0  0  0  0  0  0  0  0  0  0
   35.4830   19.7940   33.4270 C   0  0  0  0  0  3  0  0  0  0  0  0
   35.3750   18.9480   32.3640 C   0  0  0  0  0  0  0  0  0  0  0  0
   35.0060   17.9440   32.4080 H   0  0  0  0  0  0  0  0  0  0  0  0
   35.8030   19.5280   31.1720 C   0  0  0  0  0  0  0  0  0  0  0  0
   35.7570   18.9280   30.2490 H   0  0  0  0  0  0  0  0  0  0  0  0
   36.2930   20.8070   31.0100 C   0  0  0  0  0  3  0  0  0  0  0  0
  1  2  1  0  0  0  0
  1  4  1  0  0  0  0
  3  1  1  0  0  0  0
  4  5  1  0  0  0  0
  5 10  2  0  0  0  0
  5  6  1  0  0  0  0
  6  7  2  0  0  0  0
  7  8  1  0  0  0  0
  7 12  1  0  0  0  0
  9 13  1  0  0  0  0
  9  8  2  0  0  0  0
 10  9  1  0  0  0  0
 11  6  1  0  0  0  0
 14 15  1  0  0  0  0
 14  1  1  0  0  0  0
 15 16  1  0  0  0  0
 16 18  2  0  0  0  0
 16 17  1  0  0  0  0
 19 20  1  0  0  0  0
 19 18  1  0  0  0  0
 21 19  2  0  0  0  0
 22 21  1  0  0  0  0
 23 21  1  0  0  0  0
 23 15  2  0  0  0  0
M  END
>  <minimizedAffinity>
-4.228302

$$$$

 OpenBabel03262521533D

 23 24  0  0  0  0  0  0  0  0999 V2000
   38.5770   23.3770   33.1560 C   0  0  0  0  0  0  0  0  0  0  0  0
   39.5090   23.2490   32.5770 H   0  0  0  0  0  0  0  0  0  0  0  0
   38.4420   22.4730   33.7890 H   0  0  0  0  0  0  0  0  0  0  0  0
   37.0980   23.5130   32.1380 S   0  0  0  0  0  0  0  0  0  0  0  0
   36.5260   21.8720   31.7400 C   0  0  0  0  0  0  0  0  0  0  0  0
   35.3880   21.4800   32.4570 C   0  0  0  0  0  0  0  0  0  0  0  0
   34.8870   20.2040   32.1920 C   0  0  0  0  0  0  0  0  0  0  0  0
   35.5040   19.4040   31.2720 N   0  0  0  0  0  0  0  0  0  0  0  0
   36.6020   19.8510   30.6160 C   0  0  0  0  0  0  0  0  0  0  0  0
   37.0980   21.0600   30.8500 N   0  0  0  0  0  0  0  0  0  0  0  0
   34.8890   22.1040   33.1890 H   0  0  0  0  0  0  0  0  0  0  0  0
   34.0080   19.8870   32.7380 H   0  0  0  0  0  0  0  0  0  0  0  0
   37.1350   19.2680   29.8770 H   0  0  0  0  0  0  0  0  0  0  0  0
   38.7520   24.7740   34.3140 S   0  0  0  0  0  0  0  0  0  0  0  0
   38.8110   24.2040   36.0010 C   0  0  0  0  0  0  0  0  0  0  0  0
   39.7540   23.2650   36.3610 C   0  0  0  0  0  0  0  0  0  0  0  0
   40.4420   22.8860   35.6280 H   0  0  0  0  0  0  0  0  0  0  0  0
   39.7260   22.8850   37.6790 C   0  0  0  0  0  3  0  0  0  0  0  0
   38.8790   23.3320   38.6490 C   0  0  0  0  0  0  0  0  0  0  0  0
   38.8860   23.0120   39.6700 H   0  0  0  0  0  0  0  0  0  0  0  0
   37.9710   24.2750   38.1740 C   0  0  0  0  0  0  0  0  0  0  0  0
   37.2390   24.7020   38.8790 H   0  0  0  0  0  0  0  0  0  0  0  0
   37.8800   24.7510   36.8830 C   0  0  0  0  0  3  0  0  0  0  0  0
  1  3  1  0  0  0  0
  1 14  1  0  0  0  0
  2  1  1  0  0  0  0
  4  1  1  0  0  0  0
  5  4  1  0  0  0  0
  5  6  1  0  0  0  0
  6 11  1  0  0  0  0
  7  6  2  0  0  0  0
  7 12  1  0  0  0  0
  8  7  1  0  0  0  0
  9 10  1  0  0  0  0
  9  8  2  0  0  0  0
 10  5  2  0  0  0  0
 13  9  1  0  0  0  0
 14 15  1  0  0  0  0
 15 16  2  0  0  0  0
 15 23  1  0  0  0  0
 16 18  1  0  0  0  0
 17 16  1  0  0  0  0
 18 19  2  0  0  0  0
 19 20  1  0  0  0  0
 21 19  1  0  0  0  0
 21 22  1  0  0  0  0
 23 21  2  0  0  0  0
M  END
>  <minimizedAffinity>
-4.20504808

$$$$

 OpenBabel03262521533D

 23 24  0  0  0  0  0  0  0  0999 V2000
   39.1010   22.6320   33.1640 C   0  0  0  0  0  0  0  0  0  0  0  0
   39.2090   21.8730   32.3690 H   0  0  0  0  0  0  0  0  0  0  0  0
   40.0680   22.6970   33.7080 H   0  0  0  0  0  0  0  0  0  0  0  0
   37.8490   22.2290   34.3930 S   0  0  0  0  0  0  0  0  0  0  0  0
   38.4890   22.6250   36.0100 C   0  0  0  0  0  0  0  0  0  0  0  0
   37.5970   23.3540   36.8080 C   0  0  0  0  0  0  0  0  0  0  0  0
   38.0370   23.6970   38.0880 C   0  0  0  0  0  0  0  0  0  0  0  0
   39.2820   23.3240   38.5080 N   0  0  0  0  0  0  0  0  0  0  0  0
   40.0900   22.6190   37.6790 C   0  0  0  0  0  0  0  0  0  0  0  0
   39.6970   22.2800   36.4580 N   0  0  0  0  0  0  0  0  0  0  0  0
   36.6070   23.6560   36.4880 H   0  0  0  0  0  0  0  0  0  0  0  0
   37.3590   24.2600   38.7160 H   0  0  0  0  0  0  0  0  0  0  0  0
   41.0860   22.2940   37.9510 H   0  0  0  0  0  0  0  0  0  0  0  0
   38.8370   24.2760   32.4210 S   0  0  0  0  0  0  0  0  0  0  0  0
   38.5720   25.5110   33.6770 C   0  0  0  0  0  0  0  0  0  0  0  0
   37.3020   26.0140   33.8690 C   0  0  0  0  0  0  0  0  0  0  0  0
   36.4880   25.6600   33.2640 H   0  0  0  0  0  0  0  0  0  0  0  0
   37.1910   26.9590   34.8570 C   0  0  0  0  0  3  0  0  0  0  0  0
   38.1880   27.4430   35.6510 C   0  0  0  0  0  0  0  0  0  0  0  0
   38.0650   28.1830   36.4140 H   0  0  0  0  0  0  0  0  0  0  0  0
   39.4240   26.8660   35.3710 C   0  0  0  0  0  0  0  0  0  0  0  0
   40.2990   27.1880   35.9580 H   0  0  0  0  0  0  0  0  0  0  0  0
   39.6870   25.9100   34.4130 C   0  0  0  0  0  3  0  0  0  0  0  0
  1  3  1  0  0  0  0
  1  4  1  0  0  0  0
  2  1  1  0  0  0  0
  4  5  1  0  0  0  0
  5 10  2  0  0  0  0
  5  6  1  0  0  0  0
  6  7  2  0  0  0  0
  7  8  1  0  0  0  0
  7 12  1  0  0  0  0
  9 13  1  0  0  0  0
  9  8  2  0  0  0  0
 10  9  1  0  0  0  0
 11  6  1  0  0  0  0
 14  1  1  0  0  0  0
 14 15  1  0  0  0  0
 15 16  2  0  0  0  0
 15 23  1  0  0  0  0
 16 18  1  0  0  0  0
 17 16  1  0  0  0  0
 18 19  2  0  0  0  0
 19 20  1  0  0  0  0
 21 19  1  0  0  0  0
 21 22  1  0  0  0  0
 23 21  2  0  0  0  0
M  END
>  <minimizedAffinity>
-4.18472242

$$$$

 OpenBabel03262521533D

 23 24  0  0  0  0  0  0  0  0999 V2000
   39.6160   22.8700   33.0730 C   0  0  0  0  0  0  0  0  0  0  0  0
   39.9610   22.2150   32.2540 H   0  0  0  0  0  0  0  0  0  0  0  0
   40.4840   23.0690   33.7390 H   0  0  0  0  0  0  0  0  0  0  0  0
   38.3360   22.1380   34.1050 S   0  0  0  0  0  0  0  0  0  0  0  0
   38.5860   22.6720   35.7880 C   0  0  0  0  0  0  0  0  0  0  0  0
   39.7980   22.2430   36.3450 C   0  0  0  0  0  0  0  0  0  0  0  0
   40.0560   22.6280   37.6620 C   0  0  0  0  0  0  0  0  0  0  0  0
   39.1470   23.3870   38.3430 N   0  0  0  0  0  0  0  0  0  0  0  0
   37.9940   23.7650   37.7400 C   0  0  0  0  0  0  0  0  0  0  0  0
   37.7250   23.4130   36.4890 N   0  0  0  0  0  0  0  0  0  0  0  0
   40.5280   21.6420   35.8150 H   0  0  0  0  0  0  0  0  0  0  0  0
   40.9880   22.3040   38.1050 H   0  0  0  0  0  0  0  0  0  0  0  0
   37.2360   24.3650   38.2240 H   0  0  0  0  0  0  0  0  0  0  0  0
   39.1220   24.4930   32.4040 S   0  0  0  0  0  0  0  0  0  0  0  0
   38.7250   25.6330   33.7150 C   0  0  0  0  0  0  0  0  0  0  0  0
   39.7340   26.0970   34.5310 C   0  0  0  0  0  0  0  0  0  0  0  0
   40.7460   25.7710   34.3730 H   0  0  0  0  0  0  0  0  0  0  0  0
   39.3380   26.9700   35.5120 C   0  0  0  0  0  3  0  0  0  0  0  0
   38.0730   27.4150   35.7570 C   0  0  0  0  0  0  0  0  0  0  0  0
   37.7980   28.0990   36.5340 H   0  0  0  0  0  0  0  0  0  0  0  0
   37.1360   26.8830   34.8750 C   0  0  0  0  0  0  0  0  0  0  0  0
   36.0810   27.1800   34.9860 H   0  0  0  0  0  0  0  0  0  0  0  0
   37.3860   26.0000   33.8450 C   0  0  0  0  0  3  0  0  0  0  0  0
  1  3  1  0  0  0  0
  1  4  1  0  0  0  0
  2  1  1  0  0  0  0
  4  5  1  0  0  0  0
  5  6  2  0  0  0  0
  5 10  1  0  0  0  0
  6  7  1  0  0  0  0
  7 12  1  0  0  0  0
  7  8  2  0  0  0  0
  9 13  1  0  0  0  0
  9  8  1  0  0  0  0
 10  9  2  0  0  0  0
 11  6  1  0  0  0  0
 14  1  1  0  0  0  0
 14 15  1  0  0  0  0
 15 23  2  0  0  0  0
 15 16  1  0  0  0  0
 16 18  2  0  0  0  0
 17 16  1  0  0  0  0
 18 19  1  0  0  0  0
 19 20  1  0  0  0  0
 21 22  1  0  0  0  0
 21 19  2  0  0  0  0
 23 21  1  0  0  0  0
M  END
>  <minimizedAffinity>
-4.13066769

$$$$

 OpenBabel03262521533D

 23 24  0  0  0  0  0  0  0  0999 V2000
   41.2100   24.5950   33.8720 C   0  0  0  0  0  0  0  0  0  0  0  0
   42.0640   24.0160   34.2650 H   0  0  0  0  0  0  0  0  0  0  0  0
   41.3310   24.6770   32.7700 H   0  0  0  0  0  0  0  0  0  0  0  0
   41.1170   26.2790   34.5020 S   0  0  0  0  0  0  0  0  0  0  0  0
   39.4610   26.8910   34.2520 C   0  0  0  0  0  0  0  0  0  0  0  0
   38.8110   27.2660   35.4360 C   0  0  0  0  0  0  0  0  0  0  0  0
   37.5100   27.7550   35.3100 C   0  0  0  0  0  0  0  0  0  0  0  0
   36.9300   27.8500   34.0770 N   0  0  0  0  0  0  0  0  0  0  0  0
   37.6200   27.4680   32.9750 C   0  0  0  0  0  0  0  0  0  0  0  0
   38.8590   27.0000   33.0670 N   0  0  0  0  0  0  0  0  0  0  0  0
   39.2600   27.1960   36.4200 H   0  0  0  0  0  0  0  0  0  0  0  0
   36.9950   28.0480   36.2160 H   0  0  0  0  0  0  0  0  0  0  0  0
   37.2190   27.5190   31.9710 H   0  0  0  0  0  0  0  0  0  0  0  0
   39.6590   23.6720   34.1340 S   0  0  0  0  0  0  0  0  0  0  0  0
   39.2780   23.5390   35.8690 C   0  0  0  0  0  0  0  0  0  0  0  0
   40.2070   22.9810   36.7210 C   0  0  0  0  0  0  0  0  0  0  0  0
   41.1490   22.6330   36.3360 H   0  0  0  0  0  0  0  0  0  0  0  0
   39.8300   22.9200   38.0390 C   0  0  0  0  0  3  0  0  0  0  0  0
   38.6530   23.3450   38.5800 C   0  0  0  0  0  0  0  0  0  0  0  0
   38.3910   23.2810   39.6160 H   0  0  0  0  0  0  0  0  0  0  0  0
   37.7920   23.8890   37.6300 C   0  0  0  0  0  0  0  0  0  0  0  0
   36.8110   24.2650   37.9640 H   0  0  0  0  0  0  0  0  0  0  0  0
   38.0340   24.0170   36.2780 C   0  0  0  0  0  3  0  0  0  0  0  0
  1 14  1  0  0  0  0
  1  2  1  0  0  0  0
  1  4  1  0  0  0  0
  3  1  1  0  0  0  0
  5  4  1  0  0  0  0
  5  6  1  0  0  0  0
  6 11  1  0  0  0  0
  7  6  2  0  0  0  0
  7 12  1  0  0  0  0
  8  7  1  0  0  0  0
  9 10  1  0  0  0  0
  9  8  2  0  0  0  0
 10  5  2  0  0  0  0
 13  9  1  0  0  0  0
 14 15  1  0  0  0  0
 15 23  2  0  0  0  0
 15 16  1  0  0  0  0
 16 18  2  0  0  0  0
 17 16  1  0  0  0  0
 18 19  1  0  0  0  0
 19 20  1  0  0  0  0
 21 22  1  0  0  0  0
 21 19  2  0  0  0  0
 23 21  1  0  0  0  0
M  END
>  <minimizedAffinity>
-4.1210475

$$$$

 OpenBabel03262521533D

 23 24  0  0  0  0  0  0  0  0999 V2000
   37.0670   27.5200   34.7600 C   0  0  0  0  0  0  0  0  0  0  0  0
   36.6160   28.4980   35.0060 H   0  0  0  0  0  0  0  0  0  0  0  0
   36.3040   26.7350   34.9520 H   0  0  0  0  0  0  0  0  0  0  0  0
   38.4970   27.1010   35.7700 S   0  0  0  0  0  0  0  0  0  0  0  0
   38.5400   25.3320   35.9920 C   0  0  0  0  0  0  0  0  0  0  0  0
   39.6250   24.7090   35.3630 C   0  0  0  0  0  0  0  0  0  0  0  0
   39.7180   23.3220   35.4980 C   0  0  0  0  0  0  0  0  0  0  0  0
   38.7780   22.6400   36.2170 N   0  0  0  0  0  0  0  0  0  0  0  0
   37.7540   23.3110   36.7980 C   0  0  0  0  0  0  0  0  0  0  0  0
   37.6430   24.6290   36.6850 N   0  0  0  0  0  0  0  0  0  0  0  0
   40.3780   25.2380   34.7900 H   0  0  0  0  0  0  0  0  0  0  0  0
   40.5520   22.8270   35.0170 H   0  0  0  0  0  0  0  0  0  0  0  0
   36.9790   22.8300   37.3800 H   0  0  0  0  0  0  0  0  0  0  0  0
   37.4300   27.4340   32.9760 S   0  0  0  0  0  0  0  0  0  0  0  0
   36.6790   25.9960   32.2380 C   0  0  0  0  0  0  0  0  0  0  0  0
   35.5990   26.1580   31.3970 C   0  0  0  0  0  0  0  0  0  0  0  0
   35.2190   27.1430   31.1940 H   0  0  0  0  0  0  0  0  0  0  0  0
   35.0860   24.9980   30.8750 C   0  0  0  0  0  3  0  0  0  0  0  0
   35.5260   23.7280   31.0980 C   0  0  0  0  0  0  0  0  0  0  0  0
   35.1010   22.8420   30.6720 H   0  0  0  0  0  0  0  0  0  0  0  0
   36.6190   23.6830   31.9610 C   0  0  0  0  0  0  0  0  0  0  0  0
   37.0540   22.7010   32.2080 H   0  0  0  0  0  0  0  0  0  0  0  0
   37.2390   24.7600   32.5590 C   0  0  0  0  0  3  0  0  0  0  0  0
  1  3  1  0  0  0  0
  1  2  1  0  0  0  0
  1  4  1  0  0  0  0
  4  5  1  0  0  0  0
  5 10  1  0  0  0  0
  6  7  1  0  0  0  0
  6  5  2  0  0  0  0
  7  8  2  0  0  0  0
  8  9  1  0  0  0  0
  9 13  1  0  0  0  0
 10  9  2  0  0  0  0
 11  6  1  0  0  0  0
 12  7  1  0  0  0  0
 14  1  1  0  0  0  0
 15 23  1  0  0  0  0
 15 14  1  0  0  0  0
 16 15  2  0  0  0  0
 17 16  1  0  0  0  0
 18 19  2  0  0  0  0
 18 16  1  0  0  0  0
 19 21  1  0  0  0  0
 20 19  1  0  0  0  0
 21 22  1  0  0  0  0
 21 23  2  0  0  0  0
M  END
>  <minimizedAffinity>
-4.08822823

$$$$

 OpenBabel03262521533D

 23 24  0  0  0  0  0  0  0  0999 V2000
   36.1440   29.3340   31.5030 C   0  0  0  0  0  0  0  0  0  0  0  0
   37.1230   29.8360   31.6010 H   0  0  0  0  0  0  0  0  0  0  0  0
   35.8710   29.3270   30.4250 H   0  0  0  0  0  0  0  0  0  0  0  0
   34.8040   30.1700   32.3650 S   0  0  0  0  0  0  0  0  0  0  0  0
   35.5060   31.2740   33.5770 C   0  0  0  0  0  0  0  0  0  0  0  0
   35.4480   30.7850   34.8890 C   0  0  0  0  0  0  0  0  0  0  0  0
   35.9820   31.6010   35.8870 C   0  0  0  0  0  0  0  0  0  0  0  0
   36.5260   32.8120   35.5640 N   0  0  0  0  0  0  0  0  0  0  0  0
   36.5470   33.2190   34.2720 C   0  0  0  0  0  0  0  0  0  0  0  0
   36.0460   32.4620   33.3030 N   0  0  0  0  0  0  0  0  0  0  0  0
   35.0200   29.8260   35.1590 H   0  0  0  0  0  0  0  0  0  0  0  0
   35.9440   31.2370   36.9050 H   0  0  0  0  0  0  0  0  0  0  0  0
   36.9630   34.1650   33.9500 H   0  0  0  0  0  0  0  0  0  0  0  0
   36.2940   27.5820   31.9870 S   0  0  0  0  0  0  0  0  0  0  0  0
   37.4750   27.3810   33.3060 C   0  0  0  0  0  0  0  0  0  0  0  0
   38.7840   27.0790   32.9960 C   0  0  0  0  0  0  0  0  0  0  0  0
   39.0810   26.9680   31.9690 H   0  0  0  0  0  0  0  0  0  0  0  0
   39.6230   26.9430   34.0720 C   0  0  0  0  0  3  0  0  0  0  0  0
   39.3010   27.0730   35.3900 C   0  0  0  0  0  0  0  0  0  0  0  0
   39.9840   26.9590   36.2070 H   0  0  0  0  0  0  0  0  0  0  0  0
   37.9560   27.3780   35.5860 C   0  0  0  0  0  0  0  0  0  0  0  0
   37.5900   27.5050   36.6180 H   0  0  0  0  0  0  0  0  0  0  0  0
   37.0000   27.5440   34.6060 C   0  0  0  0  0  3  0  0  0  0  0  0
  1  2  1  0  0  0  0
  1 14  1  0  0  0  0
  1  4  1  0  0  0  0
  3  1  1  0  0  0  0
  4  5  1  0  0  0  0
  5  6  1  0  0  0  0
  6 11  1  0  0  0  0
  6  7  2  0  0  0  0
  7 12  1  0  0  0  0
  8  7  1  0  0  0  0
  9  8  2  0  0  0  0
 10  5  2  0  0  0  0
 10  9  1  0  0  0  0
 13  9  1  0  0  0  0
 14 15  1  0  0  0  0
 15 23  1  0  0  0  0
 16 15  2  0  0  0  0
 16 18  1  0  0  0  0
 17 16  1  0  0  0  0
 18 19  2  0  0  0  0
 19 21  1  0  0  0  0
 19 20  1  0  0  0  0
 21 22  1  0  0  0  0
 23 21  2  0  0  0  0
M  END
>  <minimizedAffinity>
-4.06144333

$$$$

 OpenBabel03262521533D

 23 24  0  0  0  0  0  0  0  0999 V2000
   37.4010   25.8640   33.8410 C   0  0  0  0  0  0  0  0  0  0  0  0
   37.2910   25.7260   32.7510 H   0  0  0  0  0  0  0  0  0  0  0  0
   36.6790   25.1870   34.3460 H   0  0  0  0  0  0  0  0  0  0  0  0
   37.0220   27.5300   34.4080 S   0  0  0  0  0  0  0  0  0  0  0  0
   36.4410   28.4870   33.0200 C   0  0  0  0  0  0  0  0  0  0  0  0
   35.2940   29.2440   33.2940 C   0  0  0  0  0  0  0  0  0  0  0  0
   34.7880   30.0180   32.2480 C   0  0  0  0  0  0  0  0  0  0  0  0
   35.4060   30.0120   31.0300 N   0  0  0  0  0  0  0  0  0  0  0  0
   36.5130   29.2530   30.8380 C   0  0  0  0  0  0  0  0  0  0  0  0
   37.0150   28.5090   31.8160 N   0  0  0  0  0  0  0  0  0  0  0  0
   34.7950   29.2590   34.2560 H   0  0  0  0  0  0  0  0  0  0  0  0
   33.9030   30.6080   32.4450 H   0  0  0  0  0  0  0  0  0  0  0  0
   37.0480   29.2050   29.8990 H   0  0  0  0  0  0  0  0  0  0  0  0
   39.0550   25.3120   34.3740 S   0  0  0  0  0  0  0  0  0  0  0  0
   38.9800   24.4960   35.9560 C   0  0  0  0  0  0  0  0  0  0  0  0
   39.8560   23.4660   36.2250 C   0  0  0  0  0  0  0  0  0  0  0  0
   40.5740   23.1650   35.4830 H   0  0  0  0  0  0  0  0  0  0  0  0
   39.7270   22.8980   37.4660 C   0  0  0  0  0  3  0  0  0  0  0  0
   38.8370   23.2390   38.4410 C   0  0  0  0  0  0  0  0  0  0  0  0
   38.7640   22.7720   39.4010 H   0  0  0  0  0  0  0  0  0  0  0  0
   38.0030   24.2880   38.0620 C   0  0  0  0  0  0  0  0  0  0  0  0
   37.2460   24.6430   38.7790 H   0  0  0  0  0  0  0  0  0  0  0  0
   38.0170   24.9540   36.8540 C   0  0  0  0  0  3  0  0  0  0  0  0
  1  3  1  0  0  0  0
  1 14  1  0  0  0  0
  1  4  1  0  0  0  0
  2  1  1  0  0  0  0
  5  6  1  0  0  0  0
  5  4  1  0  0  0  0
  6 11  1  0  0  0  0
  7 12  1  0  0  0  0
  7  6  2  0  0  0  0
  8  7  1  0  0  0  0
  9  8  2  0  0  0  0
  9 10  1  0  0  0  0
 10  5  2  0  0  0  0
 13  9  1  0  0  0  0
 14 15  1  0  0  0  0
 15 16  2  0  0  0  0
 15 23  1  0  0  0  0
 16 18  1  0  0  0  0
 17 16  1  0  0  0  0
 18 19  2  0  0  0  0
 19 20  1  0  0  0  0
 21 19  1  0  0  0  0
 21 22  1  0  0  0  0
 23 21  2  0  0  0  0
M  END
>  <minimizedAffinity>
-4.05483389

$$$$
