
     RDKit          3D

 30 32  0  0  0  0  0  0  0  0999 V2000
   37.5585   31.6612   48.9400 C   0  0  0  0  0  0  0  0  0  0  0  0
   38.1912   32.7389   49.5015 C   0  0  0  0  0  0  0  0  0  0  0  0
   39.0635   33.5645   48.8354 C   0  0  0  0  0  0  0  0  0  0  0  0
   39.3515   33.3295   47.5085 C   0  0  0  0  0  0  0  0  0  0  0  0
   38.7025   32.2296   46.9447 C   0  0  0  0  0  0  0  0  0  0  0  0
   37.8520   31.4447   47.6380 N   0  0  0  0  0  0  0  0  0  0  0  0
   36.9559   30.1655   50.8719 C   0  0  0  0  0  0  0  0  0  0  0  0
   36.6436   30.7990   49.6465 C   0  0  0  0  0  0  0  0  0  0  0  0
   35.3823   30.5749   49.0959 C   0  0  0  0  0  0  0  0  0  0  0  0
   34.5252   29.7486   49.7871 N   0  0  0  0  0  0  0  0  0  0  0  0
   34.8630   29.1696   50.9447 C   0  0  0  0  0  0  0  0  0  0  0  0
   36.0760   29.3691   51.4996 N   0  0  0  0  0  0  0  0  0  0  0  0
   40.2018   34.0599   46.6972 O   0  0  0  0  0  0  0  0  0  0  0  0
   37.9835   32.9489   50.5466 H   0  0  0  0  0  0  0  0  0  0  0  0
   39.5604   34.4132   49.2815 H   0  0  0  0  0  0  0  0  0  0  0  0
   38.8578   31.9540   45.9045 H   0  0  0  0  0  0  0  0  0  0  0  0
   37.9443   30.3535   51.2839 H   0  0  0  0  0  0  0  0  0  0  0  0
   35.1078   31.0312   48.1776 H   0  0  0  0  0  0  0  0  0  0  0  0
   34.0718   28.5459   51.3628 H   0  0  0  0  0  0  0  0  0  0  0  0
   40.8830   35.1648   47.1807 C   0  0  0  0  0  0  0  0  0  0  0  0
   40.3857   36.4260   47.4485 C   0  0  0  0  0  0  0  0  0  0  0  0
   39.3471   36.5148   47.2436 H   0  0  0  0  0  0  0  0  0  0  0  0
   41.2264   37.4122   47.9319 C   0  0  0  0  0  0  0  0  0  0  0  0
   42.5638   37.1867   48.1624 C   0  0  0  0  0  0  0  0  0  0  0  0
   43.1773   37.9938   48.5415 H   0  0  0  0  0  0  0  0  0  0  0  0
   43.0513   35.9181   47.8902 C   0  0  0  0  0  0  0  0  0  0  0  0
   44.1097   35.7653   48.0804 H   0  0  0  0  0  0  0  0  0  0  0  0
   42.2394   34.9030   47.4045 C   0  0  0  0  0  0  0  0  0  0  0  0
   40.7719   38.3953   48.1258 H   0  0  0  0  0  0  0  0  0  0  0  0
   42.7609   33.9653   47.2393 H   0  0  0  0  0  0  0  0  0  0  0  0
  1  2  2  0
  1  8  1  0
  3  2  1  0
  4  3  2  0
  5  4  1  0
  5  6  2  0
  6  1  1  0
  7 12  2  0
  8  7  1  0
  9  8  2  0
  9 10  1  0
 10 11  2  0
 11 12  1  0
 13  4  1  0
  2 14  1  0
  3 15  1  0
  5 16  1  0
  7 17  1  0
  9 18  1  0
 11 19  1  0
 20 21  2  0
 21 22  1  0
 21 23  1  0
 23 24  2  0
 24 25  1  0
 24 26  1  0
 26 27  1  0
 26 28  2  0
 28 20  1  0
 23 29  1  0
 28 30  1  0
 13 20  1  0
M  ISO  8  14  14  15  14  16  14  17  14  18  14  19  14  22  16  25  16
M  ISO  1  27  16
M  END
>  <DihAtoms>  (1) 
3,12,19,20

>  <DihDeg>  (1) 
90.00017228115415

$$$$
