
 OpenBabel03272508523D

 29 31  0  0  1  0  0  0  0  0999 V2000
   35.9410   27.2970   31.2300 C   0  0  2  0  0  0  0  0  0  0  0  0
   36.5860   28.3080   30.4040 C   0  0  0  0  0  0  0  0  0  0  0  0
   36.8270   28.2230   31.9240 C   0  0  1  0  0  0  0  0  0  0  0  0
   34.8530   27.4010   31.5310 H   0  0  0  0  0  0  0  0  0  0  0  0
   35.9760   29.1780   30.1050 H   0  0  0  0  0  0  0  0  0  0  0  0
   37.4330   28.0630   29.7360 H   0  0  0  0  0  0  0  0  0  0  0  0
   37.9010   28.1190   32.1630 H   0  0  0  0  0  0  0  0  0  0  0  0
   35.6380   23.6050   31.2450 C   0  0  0  0  0  0  0  0  0  0  0  0
   36.9830   23.2020   31.0430 C   0  0  0  0  0  0  0  0  0  0  0  0
   37.9900   24.2140   30.9030 C   0  0  0  0  0  0  0  0  0  0  0  0
   37.6010   25.5190   30.9720 N   0  0  0  0  0  0  0  0  0  0  0  0
   36.2950   25.8450   31.1680 C   0  0  0  0  0  0  0  0  0  0  0  0
   35.3100   24.9370   31.3060 N   0  0  0  0  0  0  0  0  0  0  0  0
   34.9660   22.7720   31.3380 H   0  0  0  0  0  0  0  0  0  0  0  0
   37.2650   22.1750   30.9920 H   0  0  0  0  0  0  0  0  0  0  0  0
   39.0190   23.9320   30.7480 H   0  0  0  0  0  0  0  0  0  0  0  0
   36.0790   29.1130   34.1010 C   0  0  0  0  0  0  0  0  0  0  0  0
   36.6780   28.1670   34.6700 O   0  0  0  0  0  0  0  0  0  0  0  0
   36.1840   29.3030   32.6790 N   0  0  0  0  0  0  0  0  0  0  0  0
   35.8450   30.1260   32.1660 H   0  0  0  0  0  0  0  0  0  0  0  0
   35.2520   30.0580   34.8610 C   0  0  0  0  0  0  0  0  0  0  0  0
   33.8740   30.1180   34.8930 C   0  0  0  0  0  0  0  0  0  0  0  0
   33.3650   29.3910   34.2950 H   0  0  0  0  0  0  0  0  0  0  0  0
   33.2350   31.0670   35.6580 C   0  0  0  0  0  3  0  0  0  0  0  0
   33.9250   31.9890   36.4180 C   0  0  0  0  0  0  0  0  0  0  0  0
   33.3920   32.7210   37.0070 H   0  0  0  0  0  0  0  0  0  0  0  0
   35.3050   31.9760   36.4250 C   0  0  0  0  0  0  0  0  0  0  0  0
   35.8990   32.6650   36.9920 H   0  0  0  0  0  0  0  0  0  0  0  0
   35.9110   31.0110   35.6450 C   0  0  0  0  0  3  0  0  0  0  0  0
  1  4  1  1  0  0  0
  1  3  1  0  0  0  0
  2  1  1  0  0  0  0
  2  3  1  0  0  0  0
  3  7  1  1  0  0  0
  3 19  1  0  0  0  0
  5  2  1  0  0  0  0
  6  2  1  0  0  0  0
  8 13  1  0  0  0  0
  8 14  1  0  0  0  0
  9  8  2  0  0  0  0
 10 11  2  0  0  0  0
 10  9  1  0  0  0  0
 11 12  1  0  0  0  0
 12  1  1  0  0  0  0
 12 13  2  0  0  0  0
 15  9  1  0  0  0  0
 16 10  1  0  0  0  0
 17 18  2  0  0  0  0
 17 21  1  0  0  0  0
 19 17  1  0  0  0  0
 20 19  1  0  0  0  0
 21 22  2  0  0  0  0
 21 29  1  0  0  0  0
 22 24  1  0  0  0  0
 23 22  1  0  0  0  0
 24 25  2  0  0  0  0
 25 27  1  0  0  0  0
 25 26  1  0  0  0  0
 27 28  1  0  0  0  0
 29 27  2  0  0  0  0
M  END
>  <minimizedAffinity>
-4.76729774

$$$$

 OpenBabel03272508523D

 29 31  0  0  1  0  0  0  0  0999 V2000
   36.2560   23.0990   31.2660 C   0  0  2  0  0  0  0  0  0  0  0  0
   37.5390   23.5320   30.7290 C   0  0  0  0  0  0  0  0  0  0  0  0
   37.0180   24.0290   32.0910 C   0  0  1  0  0  0  0  0  0  0  0  0
   35.2870   23.5350   30.8720 H   0  0  0  0  0  0  0  0  0  0  0  0
   37.5210   24.3070   29.9420 H   0  0  0  0  0  0  0  0  0  0  0  0
   38.4250   22.8700   30.7300 H   0  0  0  0  0  0  0  0  0  0  0  0
   37.7330   23.8180   32.9050 H   0  0  0  0  0  0  0  0  0  0  0  0
   35.5460   20.2520   33.5270 C   0  0  0  0  0  0  0  0  0  0  0  0
   35.5440   19.1570   32.6240 C   0  0  0  0  0  0  0  0  0  0  0  0
   35.7900   19.4130   31.2340 C   0  0  0  0  0  0  0  0  0  0  0  0
   36.0140   20.7020   30.8490 N   0  0  0  0  0  0  0  0  0  0  0  0
   36.0050   21.7110   31.7610 C   0  0  0  0  0  0  0  0  0  0  0  0
   35.7800   21.5280   33.0760 N   0  0  0  0  0  0  0  0  0  0  0  0
   35.3530   19.9540   34.5400 H   0  0  0  0  0  0  0  0  0  0  0  0
   35.3650   18.1580   32.9470 H   0  0  0  0  0  0  0  0  0  0  0  0
   35.7920   18.5970   30.5290 H   0  0  0  0  0  0  0  0  0  0  0  0
   37.1990   26.3030   33.0340 C   0  0  0  0  0  0  0  0  0  0  0  0
   38.1890   25.9220   33.7070 O   0  0  0  0  0  0  0  0  0  0  0  0
   36.5800   25.4290   32.0730 N   0  0  0  0  0  0  0  0  0  0  0  0
   35.8660   25.7110   31.3910 H   0  0  0  0  0  0  0  0  0  0  0  0
   36.6370   27.6490   33.1990 C   0  0  0  0  0  0  0  0  0  0  0  0
   36.3160   28.2760   34.3860 C   0  0  0  0  0  0  0  0  0  0  0  0
   36.5030   27.7080   35.2740 H   0  0  0  0  0  0  0  0  0  0  0  0
   35.7930   29.5500   34.3820 C   0  0  0  0  0  3  0  0  0  0  0  0
   35.5670   30.2500   33.2160 C   0  0  0  0  0  0  0  0  0  0  0  0
   35.1540   31.2490   33.2500 H   0  0  0  0  0  0  0  0  0  0  0  0
   35.8680   29.6730   32.0000 C   0  0  0  0  0  0  0  0  0  0  0  0
   35.7160   30.1650   31.0590 H   0  0  0  0  0  0  0  0  0  0  0  0
   36.3910   28.3960   32.0420 C   0  0  0  0  0  3  0  0  0  0  0  0
  1  4  1  6  0  0  0
  1 12  1  0  0  0  0
  1  3  1  0  0  0  0
  2  6  1  0  0  0  0
  2  1  1  0  0  0  0
  2  3  1  0  0  0  0
  3  7  1  1  0  0  0
  5  2  1  0  0  0  0
  8 14  1  0  0  0  0
  9 15  1  0  0  0  0
  9  8  2  0  0  0  0
 10  9  1  0  0  0  0
 11 10  2  0  0  0  0
 11 12  1  0  0  0  0
 12 13  2  0  0  0  0
 13  8  1  0  0  0  0
 16 10  1  0  0  0  0
 17 21  1  0  0  0  0
 17 18  2  0  0  0  0
 19  3  1  0  0  0  0
 19 17  1  0  0  0  0
 20 19  1  0  0  0  0
 21 22  1  0  0  0  0
 22 23  1  0  0  0  0
 24 22  2  0  0  0  0
 25 26  1  0  0  0  0
 25 24  1  0  0  0  0
 27 29  1  0  0  0  0
 27 25  2  0  0  0  0
 28 27  1  0  0  0  0
 29 21  2  0  0  0  0
M  END
>  <minimizedAffinity>
-4.76511955

$$$$

 OpenBabel03272508523D

 29 31  0  0  1  0  0  0  0  0999 V2000
   37.4310   25.9110   33.0090 C   0  0  2  0  0  0  0  0  0  0  0  0
   38.7840   25.7770   32.4860 C   0  0  0  0  0  0  0  0  0  0  0  0
   37.5590   25.2450   31.7180 C   0  0  1  0  0  0  0  0  0  0  0  0
   37.0580   25.2300   33.8340 H   0  0  0  0  0  0  0  0  0  0  0  0
   39.4140   24.9780   32.9170 H   0  0  0  0  0  0  0  0  0  0  0  0
   39.3290   26.6360   32.0510 H   0  0  0  0  0  0  0  0  0  0  0  0
   37.4970   25.6710   30.7010 H   0  0  0  0  0  0  0  0  0  0  0  0
   35.9700   29.0330   34.3650 C   0  0  0  0  0  0  0  0  0  0  0  0
   35.4020   29.6170   33.2040 C   0  0  0  0  0  0  0  0  0  0  0  0
   35.5290   28.9240   31.9540 C   0  0  0  0  0  0  0  0  0  0  0  0
   36.1920   27.7320   31.9470 N   0  0  0  0  0  0  0  0  0  0  0  0
   36.7150   27.2210   33.0930 C   0  0  0  0  0  0  0  0  0  0  0  0
   36.6250   27.8280   34.2920 N   0  0  0  0  0  0  0  0  0  0  0  0
   35.8190   29.6300   35.2450 H   0  0  0  0  0  0  0  0  0  0  0  0
   34.8880   30.5510   33.2320 H   0  0  0  0  0  0  0  0  0  0  0  0
   35.1060   29.3480   31.0580 H   0  0  0  0  0  0  0  0  0  0  0  0
   36.1380   23.2340   31.5510 C   0  0  0  0  0  0  0  0  0  0  0  0
   35.1740   23.9690   31.2230 O   0  0  0  0  0  0  0  0  0  0  0  0
   37.4570   23.7820   31.7240 N   0  0  0  0  0  0  0  0  0  0  0  0
   38.3140   23.2300   31.8500 H   0  0  0  0  0  0  0  0  0  0  0  0
   35.9580   21.7940   31.7710 C   0  0  0  0  0  0  0  0  0  0  0  0
   36.0650   20.7900   30.8300 C   0  0  0  0  0  0  0  0  0  0  0  0
   36.3070   21.1100   29.8380 H   0  0  0  0  0  0  0  0  0  0  0  0
   35.8670   19.4750   31.1880 C   0  0  0  0  0  3  0  0  0  0  0  0
   35.5570   19.1010   32.4790 C   0  0  0  0  0  0  0  0  0  0  0  0
   35.4080   18.0600   32.7250 H   0  0  0  0  0  0  0  0  0  0  0  0
   35.4370   20.0620   33.4620 C   0  0  0  0  0  0  0  0  0  0  0  0
   35.1980   19.8370   34.4820 H   0  0  0  0  0  0  0  0  0  0  0  0
   35.6420   21.3700   33.0660 C   0  0  0  0  0  3  0  0  0  0  0  0
  1 12  1  0  0  0  0
  1  4  1  1  0  0  0
  2  5  1  0  0  0  0
  2  1  1  0  0  0  0
  3  7  1  6  0  0  0
  3 19  1  0  0  0  0
  3  2  1  0  0  0  0
  3  1  1  0  0  0  0
  6  2  1  0  0  0  0
  8 14  1  0  0  0  0
  9 15  1  0  0  0  0
  9  8  2  0  0  0  0
 10  9  1  0  0  0  0
 11 10  2  0  0  0  0
 11 12  1  0  0  0  0
 12 13  2  0  0  0  0
 13  8  1  0  0  0  0
 16 10  1  0  0  0  0
 17 19  1  0  0  0  0
 17 21  1  0  0  0  0
 18 17  2  0  0  0  0
 19 20  1  0  0  0  0
 21 29  1  0  0  0  0
 22 24  1  0  0  0  0
 22 21  2  0  0  0  0
 23 22  1  0  0  0  0
 24 25  2  0  0  0  0
 25 26  1  0  0  0  0
 25 27  1  0  0  0  0
 27 28  1  0  0  0  0
 29 27  2  0  0  0  0
M  END
>  <minimizedAffinity>
-4.61975145

$$$$

 OpenBabel03272508523D

 29 31  0  0  1  0  0  0  0  0999 V2000
   36.5140   28.1840   32.4390 C   0  0  2  0  0  0  0  0  0  0  0  0
   37.2660   28.6820   31.2960 C   0  0  0  0  0  0  0  0  0  0  0  0
   36.2000   27.5790   31.1500 C   0  0  1  0  0  0  0  0  0  0  0  0
   36.9860   27.4610   33.1740 H   0  0  0  0  0  0  0  0  0  0  0  0
   38.2990   28.3140   31.1730 H   0  0  0  0  0  0  0  0  0  0  0  0
   37.0500   29.6670   30.8400 H   0  0  0  0  0  0  0  0  0  0  0  0
   35.4210   27.8560   30.4180 H   0  0  0  0  0  0  0  0  0  0  0  0
   33.2620   29.7290   33.3140 C   0  0  0  0  0  0  0  0  0  0  0  0
   33.5980   30.4750   34.4730 C   0  0  0  0  0  0  0  0  0  0  0  0
   34.9520   30.4390   34.9450 C   0  0  0  0  0  0  0  0  0  0  0  0
   35.8530   29.6850   34.2530 N   0  0  0  0  0  0  0  0  0  0  0  0
   35.4730   28.9910   33.1460 C   0  0  0  0  0  0  0  0  0  0  0  0
   34.2170   28.9890   32.6590 N   0  0  0  0  0  0  0  0  0  0  0  0
   32.2270   29.8240   33.0450 H   0  0  0  0  0  0  0  0  0  0  0  0
   32.8770   31.0580   35.0000 H   0  0  0  0  0  0  0  0  0  0  0  0
   35.2300   30.9970   35.8250 H   0  0  0  0  0  0  0  0  0  0  0  0
   35.8550   25.1410   30.9850 C   0  0  0  0  0  0  0  0  0  0  0  0
   34.6180   25.3300   31.0830 O   0  0  0  0  0  0  0  0  0  0  0  0
   36.7660   26.2500   30.8960 N   0  0  0  0  0  0  0  0  0  0  0  0
   37.7660   26.1770   30.6720 H   0  0  0  0  0  0  0  0  0  0  0  0
   36.4180   23.7850   30.9570 C   0  0  0  0  0  0  0  0  0  0  0  0
   37.7250   23.4330   30.6870 C   0  0  0  0  0  0  0  0  0  0  0  0
   38.3890   24.2460   30.4770 H   0  0  0  0  0  0  0  0  0  0  0  0
   38.1070   22.1100   30.6970 C   0  0  0  0  0  3  0  0  0  0  0  0
   37.2210   21.0890   30.9720 C   0  0  0  0  0  0  0  0  0  0  0  0
   37.5550   20.0620   30.9720 H   0  0  0  0  0  0  0  0  0  0  0  0
   35.9010   21.3820   31.2500 C   0  0  0  0  0  0  0  0  0  0  0  0
   35.1650   20.6350   31.4710 H   0  0  0  0  0  0  0  0  0  0  0  0
   35.5550   22.7190   31.2310 C   0  0  0  0  0  3  0  0  0  0  0  0
  1 12  1  0  0  0  0
  1  4  1  1  0  0  0
  2  1  1  0  0  0  0
  3  7  1  6  0  0  0
  3  2  1  0  0  0  0
  3  1  1  0  0  0  0
  5  2  1  0  0  0  0
  6  2  1  0  0  0  0
  8  9  1  0  0  0  0
  9 10  2  0  0  0  0
  9 15  1  0  0  0  0
 10 16  1  0  0  0  0
 11 10  1  0  0  0  0
 12 11  2  0  0  0  0
 13 12  1  0  0  0  0
 13  8  2  0  0  0  0
 14  8  1  0  0  0  0
 17 18  2  0  0  0  0
 19 17  1  0  0  0  0
 19  3  1  0  0  0  0
 20 19  1  0  0  0  0
 21 17  1  0  0  0  0
 21 29  1  0  0  0  0
 22 24  1  0  0  0  0
 22 21  2  0  0  0  0
 23 22  1  0  0  0  0
 24 25  2  0  0  0  0
 25 27  1  0  0  0  0
 26 25  1  0  0  0  0
 27 28  1  0  0  0  0
 29 27  2  0  0  0  0
M  END
>  <minimizedAffinity>
-4.59258366

$$$$

 OpenBabel03272508523D

 29 31  0  0  1  0  0  0  0  0999 V2000
   37.6650   27.8610   32.0860 C   0  0  2  0  0  0  0  0  0  0  0  0
   37.0500   26.6550   32.6230 C   0  0  0  0  0  0  0  0  0  0  0  0
   36.2490   27.9560   32.4210 C   0  0  1  0  0  0  0  0  0  0  0  0
   38.3270   28.5130   32.7350 H   0  0  0  0  0  0  0  0  0  0  0  0
   37.2450   26.4200   33.6840 H   0  0  0  0  0  0  0  0  0  0  0  0
   36.7970   25.7930   31.9780 H   0  0  0  0  0  0  0  0  0  0  0  0
   35.3650   27.7980   31.7780 H   0  0  0  0  0  0  0  0  0  0  0  0
   37.7950   28.9320   28.5420 C   0  0  0  0  0  0  0  0  0  0  0  0
   38.9180   28.2100   28.0610 C   0  0  0  0  0  0  0  0  0  0  0  0
   39.6240   27.3530   28.9690 C   0  0  0  0  0  0  0  0  0  0  0  0
   39.1780   27.2760   30.2560 N   0  0  0  0  0  0  0  0  0  0  0  0
   38.0950   27.9930   30.6600 C   0  0  0  0  0  0  0  0  0  0  0  0
   37.3960   28.8110   29.8500 N   0  0  0  0  0  0  0  0  0  0  0  0
   37.3390   29.5420   27.7840 H   0  0  0  0  0  0  0  0  0  0  0  0
   39.2490   28.2850   27.0500 H   0  0  0  0  0  0  0  0  0  0  0  0
   40.4800   26.7940   28.6270 H   0  0  0  0  0  0  0  0  0  0  0  0
   34.7240   29.4420   33.6690 C   0  0  0  0  0  0  0  0  0  0  0  0
   33.9220   29.3950   32.7040 O   0  0  0  0  0  0  0  0  0  0  0  0
   35.9180   28.6390   33.6750 N   0  0  0  0  0  0  0  0  0  0  0  0
   36.5430   28.5160   34.4810 H   0  0  0  0  0  0  0  0  0  0  0  0
   34.4760   30.3120   34.8250 C   0  0  0  0  0  0  0  0  0  0  0  0
   33.2860   30.4760   35.5030 C   0  0  0  0  0  0  0  0  0  0  0  0
   32.4620   29.8990   35.1360 H   0  0  0  0  0  0  0  0  0  0  0  0
   33.2060   31.3350   36.5760 C   0  0  0  0  0  3  0  0  0  0  0  0
   34.2900   32.0620   37.0200 C   0  0  0  0  0  0  0  0  0  0  0  0
   34.1920   32.7280   37.8650 H   0  0  0  0  0  0  0  0  0  0  0  0
   35.5070   31.9400   36.3800 C   0  0  0  0  0  0  0  0  0  0  0  0
   36.3860   32.4770   36.6760 H   0  0  0  0  0  0  0  0  0  0  0  0
   35.5490   31.0690   35.3090 C   0  0  0  0  0  3  0  0  0  0  0  0
  1  3  1  0  0  0  0
  1  2  1  0  0  0  0
  1  4  1  1  0  0  0
  2  5  1  0  0  0  0
  3  7  1  6  0  0  0
  3  2  1  0  0  0  0
  3 19  1  0  0  0  0
  6  2  1  0  0  0  0
  8 13  1  0  0  0  0
  9  8  2  0  0  0  0
  9 10  1  0  0  0  0
 10 11  2  0  0  0  0
 11 12  1  0  0  0  0
 12  1  1  0  0  0  0
 13 12  2  0  0  0  0
 14  8  1  0  0  0  0
 15  9  1  0  0  0  0
 16 10  1  0  0  0  0
 17 19  1  0  0  0  0
 17 21  1  0  0  0  0
 18 17  2  0  0  0  0
 19 20  1  0  0  0  0
 21 29  2  0  0  0  0
 21 22  1  0  0  0  0
 22 24  2  0  0  0  0
 23 22  1  0  0  0  0
 24 25  1  0  0  0  0
 25 26  1  0  0  0  0
 27 28  1  0  0  0  0
 27 25  2  0  0  0  0
 29 27  1  0  0  0  0
M  END
>  <minimizedAffinity>
-4.59026814

$$$$

 OpenBabel03272508523D

 29 31  0  0  1  0  0  0  0  0999 V2000
   38.3730   26.2280   34.8670 C   0  0  2  0  0  0  0  0  0  0  0  0
   38.2130   27.2510   35.8910 C   0  0  0  0  0  0  0  0  0  0  0  0
   37.1350   26.9970   34.8190 C   0  0  1  0  0  0  0  0  0  0  0  0
   39.0470   26.4030   33.9730 H   0  0  0  0  0  0  0  0  0  0  0  0
   38.7610   28.1990   35.7460 H   0  0  0  0  0  0  0  0  0  0  0  0
   37.9650   26.9950   36.9380 H   0  0  0  0  0  0  0  0  0  0  0  0
   36.1530   26.7710   35.2720 H   0  0  0  0  0  0  0  0  0  0  0  0
   38.1100   22.5610   34.4080 C   0  0  0  0  0  0  0  0  0  0  0  0
   38.2320   22.0920   35.7410 C   0  0  0  0  0  0  0  0  0  0  0  0
   38.4040   23.0510   36.7940 C   0  0  0  0  0  0  0  0  0  0  0  0
   38.4420   24.3720   36.4580 N   0  0  0  0  0  0  0  0  0  0  0  0
   38.3190   24.7630   35.1610 C   0  0  0  0  0  0  0  0  0  0  0  0
   38.1550   23.9070   34.1340 N   0  0  0  0  0  0  0  0  0  0  0  0
   37.9850   21.7650   33.6980 H   0  0  0  0  0  0  0  0  0  0  0  0
   38.2000   21.0540   35.9810 H   0  0  0  0  0  0  0  0  0  0  0  0
   38.5000   22.7190   37.8150 H   0  0  0  0  0  0  0  0  0  0  0  0
   36.7120   27.6350   32.4730 C   0  0  0  0  0  0  0  0  0  0  0  0
   36.3120   26.4660   32.2490 O   0  0  0  0  0  0  0  0  0  0  0  0
   37.0590   28.0530   33.8050 N   0  0  0  0  0  0  0  0  0  0  0  0
   37.2550   29.0210   34.0880 H   0  0  0  0  0  0  0  0  0  0  0  0
   36.8400   28.6170   31.3890 C   0  0  0  0  0  0  0  0  0  0  0  0
   36.4520   29.9410   31.4170 C   0  0  0  0  0  0  0  0  0  0  0  0
   36.0120   30.2750   32.3330 H   0  0  0  0  0  0  0  0  0  0  0  0
   36.6370   30.7440   30.3140 C   0  0  0  0  0  3  0  0  0  0  0  0
   37.2090   30.2770   29.1490 C   0  0  0  0  0  0  0  0  0  0  0  0
   37.3400   30.9360   28.3020 H   0  0  0  0  0  0  0  0  0  0  0  0
   37.6170   28.9620   29.0640 C   0  0  0  0  0  0  0  0  0  0  0  0
   38.0670   28.5390   28.1880 H   0  0  0  0  0  0  0  0  0  0  0  0
   37.4150   28.1860   30.1880 C   0  0  0  0  0  3  0  0  0  0  0  0
  1  4  1  6  0  0  0
  1 12  1  0  0  0  0
  1  2  1  0  0  0  0
  2  6  1  0  0  0  0
  3  1  1  0  0  0  0
  3  7  1  1  0  0  0
  3  2  1  0  0  0  0
  5  2  1  0  0  0  0
  8  9  1  0  0  0  0
  9 15  1  0  0  0  0
  9 10  2  0  0  0  0
 10 16  1  0  0  0  0
 11 10  1  0  0  0  0
 12 11  2  0  0  0  0
 13  8  2  0  0  0  0
 13 12  1  0  0  0  0
 14  8  1  0  0  0  0
 17 19  1  0  0  0  0
 18 17  2  0  0  0  0
 19 20  1  0  0  0  0
 19  3  1  0  0  0  0
 21 22  1  0  0  0  0
 21 17  1  0  0  0  0
 22 23  1  0  0  0  0
 24 22  2  0  0  0  0
 25 24  1  0  0  0  0
 26 25  1  0  0  0  0
 27 25  2  0  0  0  0
 27 29  1  0  0  0  0
 28 27  1  0  0  0  0
 29 21  2  0  0  0  0
M  END
>  <minimizedAffinity>
-4.53624916

$$$$

 OpenBabel03272508523D

 29 31  0  0  1  0  0  0  0  0999 V2000
   37.8500   26.7370   32.6540 C   0  0  2  0  0  0  0  0  0  0  0  0
   37.6890   25.7410   31.6040 C   0  0  0  0  0  0  0  0  0  0  0  0
   37.2570   25.4670   33.0570 C   0  0  1  0  0  0  0  0  0  0  0  0
   38.8650   26.9290   33.1200 H   0  0  0  0  0  0  0  0  0  0  0  0
   38.5890   25.1790   31.2990 H   0  0  0  0  0  0  0  0  0  0  0  0
   36.8930   25.8230   30.8390 H   0  0  0  0  0  0  0  0  0  0  0  0
   36.1930   25.1800   33.1220 H   0  0  0  0  0  0  0  0  0  0  0  0
   36.2430   29.9410   31.7190 C   0  0  0  0  0  0  0  0  0  0  0  0
   35.5200   30.2590   32.8980 C   0  0  0  0  0  0  0  0  0  0  0  0
   35.5950   29.3600   34.0130 C   0  0  0  0  0  0  0  0  0  0  0  0
   36.3610   28.2390   33.8830 N   0  0  0  0  0  0  0  0  0  0  0  0
   37.0320   27.9870   32.7270 C   0  0  0  0  0  0  0  0  0  0  0  0
   36.9980   28.7950   31.6500 N   0  0  0  0  0  0  0  0  0  0  0  0
   36.1200   30.6770   30.9470 H   0  0  0  0  0  0  0  0  0  0  0  0
   34.9270   31.1410   32.9780 H   0  0  0  0  0  0  0  0  0  0  0  0
   35.0550   29.5800   34.9200 H   0  0  0  0  0  0  0  0  0  0  0  0
   38.2830   24.7300   35.1770 C   0  0  0  0  0  0  0  0  0  0  0  0
   37.5460   25.5410   35.7910 O   0  0  0  0  0  0  0  0  0  0  0  0
   38.1380   24.5280   33.7600 N   0  0  0  0  0  0  0  0  0  0  0  0
   38.5990   23.7880   33.2180 H   0  0  0  0  0  0  0  0  0  0  0  0
   39.3180   23.9590   35.8780 C   0  0  0  0  0  0  0  0  0  0  0  0
   39.1860   23.2890   37.0770 C   0  0  0  0  0  0  0  0  0  0  0  0
   38.2210   23.3450   37.5340 H   0  0  0  0  0  0  0  0  0  0  0  0
   40.2540   22.6050   37.6140 C   0  0  0  0  0  3  0  0  0  0  0  0
   41.4850   22.5550   36.9940 C   0  0  0  0  0  0  0  0  0  0  0  0
   42.3010   22.0090   37.4440 H   0  0  0  0  0  0  0  0  0  0  0  0
   41.6750   23.2070   35.7930 C   0  0  0  0  0  0  0  0  0  0  0  0
   42.6060   23.2070   35.2620 H   0  0  0  0  0  0  0  0  0  0  0  0
   40.5830   23.8820   35.2840 C   0  0  0  0  0  3  0  0  0  0  0  0
  1 12  1  0  0  0  0
  1  3  1  0  0  0  0
  1  4  1  1  0  0  0
  2  1  1  0  0  0  0
  2  3  1  0  0  0  0
  3  7  1  1  0  0  0
  3 19  1  0  0  0  0
  5  2  1  0  0  0  0
  6  2  1  0  0  0  0
  8  9  1  0  0  0  0
  9 15  1  0  0  0  0
  9 10  2  0  0  0  0
 10 16  1  0  0  0  0
 11 10  1  0  0  0  0
 12 11  2  0  0  0  0
 13  8  2  0  0  0  0
 13 12  1  0  0  0  0
 14  8  1  0  0  0  0
 17 18  2  0  0  0  0
 17 21  1  0  0  0  0
 19 17  1  0  0  0  0
 20 19  1  0  0  0  0
 21 22  1  0  0  0  0
 22 23  1  0  0  0  0
 22 24  2  0  0  0  0
 25 26  1  0  0  0  0
 25 24  1  0  0  0  0
 27 25  2  0  0  0  0
 28 27  1  0  0  0  0
 29 27  1  0  0  0  0
 29 21  2  0  0  0  0
M  END
>  <minimizedAffinity>
-4.50932503

$$$$

 OpenBabel03272508523D

 29 31  0  0  1  0  0  0  0  0999 V2000
   37.1550   25.9810   33.2730 C   0  0  2  0  0  0  0  0  0  0  0  0
   38.5060   25.7590   33.7690 C   0  0  0  0  0  0  0  0  0  0  0  0
   37.9780   25.0530   32.5060 C   0  0  1  0  0  0  0  0  0  0  0  0
   36.2650   25.4880   33.7730 H   0  0  0  0  0  0  0  0  0  0  0  0
   38.6200   25.0830   34.6350 H   0  0  0  0  0  0  0  0  0  0  0  0
   39.3060   26.5120   33.6400 H   0  0  0  0  0  0  0  0  0  0  0  0
   38.6200   25.2480   31.6290 H   0  0  0  0  0  0  0  0  0  0  0  0
   36.4000   28.5750   30.7380 C   0  0  0  0  0  0  0  0  0  0  0  0
   35.8970   29.6300   31.5430 C   0  0  0  0  0  0  0  0  0  0  0  0
   35.8230   29.4360   32.9620 C   0  0  0  0  0  0  0  0  0  0  0  0
   36.2420   28.2410   33.4690 N   0  0  0  0  0  0  0  0  0  0  0  0
   36.7160   27.2660   32.6470 C   0  0  0  0  0  0  0  0  0  0  0  0
   36.8080   27.3950   31.3100 N   0  0  0  0  0  0  0  0  0  0  0  0
   36.4140   28.8220   29.6940 H   0  0  0  0  0  0  0  0  0  0  0  0
   35.5740   30.5560   31.1260 H   0  0  0  0  0  0  0  0  0  0  0  0
   35.4430   30.2230   33.5940 H   0  0  0  0  0  0  0  0  0  0  0  0
   36.7370   23.0310   31.8270 C   0  0  0  0  0  0  0  0  0  0  0  0
   36.2950   23.6610   30.8340 O   0  0  0  0  0  0  0  0  0  0  0  0
   37.7110   23.6250   32.7030 N   0  0  0  0  0  0  0  0  0  0  0  0
   38.2200   23.1280   33.4440 H   0  0  0  0  0  0  0  0  0  0  0  0
   36.2790   21.6700   32.1300 C   0  0  0  0  0  0  0  0  0  0  0  0
   35.8750   21.1820   33.3560 C   0  0  0  0  0  0  0  0  0  0  0  0
   35.9030   21.8830   34.1640 H   0  0  0  0  0  0  0  0  0  0  0  0
   35.4700   19.8720   33.4860 C   0  0  0  0  0  3  0  0  0  0  0  0
   35.4480   18.9980   32.4200 C   0  0  0  0  0  0  0  0  0  0  0  0
   35.1250   17.9760   32.5580 H   0  0  0  0  0  0  0  0  0  0  0  0
   35.8410   19.4300   31.1700 C   0  0  0  0  0  0  0  0  0  0  0  0
   35.8480   18.8000   30.3020 H   0  0  0  0  0  0  0  0  0  0  0  0
   36.2410   20.7490   31.0770 C   0  0  0  0  0  3  0  0  0  0  0  0
  1  2  1  0  0  0  0
  1  4  1  1  0  0  0
  2  5  1  0  0  0  0
  3  7  1  6  0  0  0
  3 19  1  0  0  0  0
  3  1  1  0  0  0  0
  3  2  1  0  0  0  0
  6  2  1  0  0  0  0
  8 13  2  0  0  0  0
  8  9  1  0  0  0  0
  9 10  2  0  0  0  0
 10 11  1  0  0  0  0
 10 16  1  0  0  0  0
 12  1  1  0  0  0  0
 12 11  2  0  0  0  0
 13 12  1  0  0  0  0
 14  8  1  0  0  0  0
 15  9  1  0  0  0  0
 17 21  1  0  0  0  0
 17 19  1  0  0  0  0
 18 17  2  0  0  0  0
 19 20  1  0  0  0  0
 21 22  1  0  0  0  0
 22 24  2  0  0  0  0
 22 23  1  0  0  0  0
 25 26  1  0  0  0  0
 25 24  1  0  0  0  0
 27 25  2  0  0  0  0
 28 27  1  0  0  0  0
 29 27  1  0  0  0  0
 29 21  2  0  0  0  0
M  END
>  <minimizedAffinity>
-4.49104214

$$$$

 OpenBabel03272508523D

 29 31  0  0  1  0  0  0  0  0999 V2000
   38.0410   23.5450   34.6410 C   0  0  2  0  0  0  0  0  0  0  0  0
   37.9580   23.0020   33.2920 C   0  0  0  0  0  0  0  0  0  0  0  0
   38.4950   24.4200   33.5660 C   0  0  1  0  0  0  0  0  0  0  0  0
   37.1140   23.9240   35.1710 H   0  0  0  0  0  0  0  0  0  0  0  0
   36.9640   22.9940   32.8120 H   0  0  0  0  0  0  0  0  0  0  0  0
   38.6750   22.2450   32.9220 H   0  0  0  0  0  0  0  0  0  0  0  0
   39.5120   24.5600   33.1590 H   0  0  0  0  0  0  0  0  0  0  0  0
   39.7070   22.8980   37.8860 C   0  0  0  0  0  0  0  0  0  0  0  0
   40.8390   22.1430   37.4860 C   0  0  0  0  0  0  0  0  0  0  0  0
   41.0200   21.8620   36.0910 C   0  0  0  0  0  0  0  0  0  0  0  0
   40.0890   22.3380   35.2150 N   0  0  0  0  0  0  0  0  0  0  0  0
   39.0230   23.0580   35.6580 C   0  0  0  0  0  0  0  0  0  0  0  0
   38.8040   23.3500   36.9540 N   0  0  0  0  0  0  0  0  0  0  0  0
   39.6660   23.0520   38.9480 H   0  0  0  0  0  0  0  0  0  0  0  0
   41.5550   21.7800   38.1880 H   0  0  0  0  0  0  0  0  0  0  0  0
   41.8730   21.2890   35.7630 H   0  0  0  0  0  0  0  0  0  0  0  0
   38.0200   26.8340   33.3680 C   0  0  0  0  0  0  0  0  0  0  0  0
   39.2060   27.0740   33.7040 O   0  0  0  0  0  0  0  0  0  0  0  0
   37.5720   25.4830   33.1550 N   0  0  0  0  0  0  0  0  0  0  0  0
   36.6690   25.2180   32.7460 H   0  0  0  0  0  0  0  0  0  0  0  0
   37.0480   27.9170   33.1780 C   0  0  0  0  0  0  0  0  0  0  0  0
   36.7500   28.5710   32.0000 C   0  0  0  0  0  0  0  0  0  0  0  0
   37.2940   28.2420   31.1390 H   0  0  0  0  0  0  0  0  0  0  0  0
   35.8080   29.5750   31.9780 C   0  0  0  0  0  3  0  0  0  0  0  0
   35.1270   29.9720   33.1100 C   0  0  0  0  0  0  0  0  0  0  0  0
   34.3940   30.7640   33.0570 H   0  0  0  0  0  0  0  0  0  0  0  0
   35.3840   29.3540   34.3170 C   0  0  0  0  0  0  0  0  0  0  0  0
   34.8890   29.6160   35.2310 H   0  0  0  0  0  0  0  0  0  0  0  0
   36.3340   28.3520   34.3010 C   0  0  0  0  0  3  0  0  0  0  0  0
  1  4  1  1  0  0  0
  1 12  1  0  0  0  0
  2  3  1  0  0  0  0
  2  1  1  0  0  0  0
  3  7  1  6  0  0  0
  3  1  1  0  0  0  0
  5  2  1  0  0  0  0
  6  2  1  0  0  0  0
  8 14  1  0  0  0  0
  9  8  1  0  0  0  0
  9 15  1  0  0  0  0
 10  9  2  0  0  0  0
 11 12  2  0  0  0  0
 11 10  1  0  0  0  0
 12 13  1  0  0  0  0
 13  8  2  0  0  0  0
 16 10  1  0  0  0  0
 17 18  2  0  0  0  0
 19 17  1  0  0  0  0
 19  3  1  0  0  0  0
 20 19  1  0  0  0  0
 21 17  1  0  0  0  0
 21 29  1  0  0  0  0
 22 21  2  0  0  0  0
 23 22  1  0  0  0  0
 24 22  1  0  0  0  0
 24 25  2  0  0  0  0
 25 27  1  0  0  0  0
 26 25  1  0  0  0  0
 27 28  1  0  0  0  0
 29 27  2  0  0  0  0
M  END
>  <minimizedAffinity>
-4.473176

$$$$
