
 OpenBabel03272510113D

 28 30  0  0  0  0  0  0  0  0999 V2000
   36.5560   27.9450   33.4160 C   0  0  0  0  0  0  0  0  0  0  0  0
   37.1120   27.8590   34.6650 C   0  0  0  0  0  0  0  0  0  0  0  0
   37.7250   26.7370   35.1680 C   0  0  0  0  0  0  0  0  0  0  0  0
   37.8090   25.5970   34.3990 C   0  0  0  0  0  0  0  0  0  0  0  0
   37.2400   25.6960   33.1280 C   0  0  0  0  0  0  0  0  0  0  0  0
   36.6480   26.8200   32.6730 N   0  0  0  0  0  0  0  0  0  0  0  0
   37.0610   28.7420   35.2950 H   0  0  0  0  0  0  0  0  0  0  0  0
   38.1610   26.6720   36.1540 H   0  0  0  0  0  0  0  0  0  0  0  0
   37.2510   24.8550   32.4370 H   0  0  0  0  0  0  0  0  0  0  0  0
   35.7460   29.3800   31.5140 C   0  0  0  0  0  0  0  0  0  0  0  0
   35.9150   29.1270   32.8950 C   0  0  0  0  0  0  0  0  0  0  0  0
   35.4330   30.0750   33.7980 C   0  0  0  0  0  0  0  0  0  0  0  0
   34.8250   31.1950   33.2790 N   0  0  0  0  0  0  0  0  0  0  0  0
   34.6870   31.3940   31.9630 C   0  0  0  0  0  0  0  0  0  0  0  0
   35.1440   30.4940   31.0680 N   0  0  0  0  0  0  0  0  0  0  0  0
   36.1290   28.6290   30.8270 H   0  0  0  0  0  0  0  0  0  0  0  0
   35.5390   29.9240   34.8430 H   0  0  0  0  0  0  0  0  0  0  0  0
   34.1840   32.3300   31.7180 H   0  0  0  0  0  0  0  0  0  0  0  0
   38.3880   24.3920   34.7520 O   0  0  0  0  0  0  0  0  0  0  0  0
   38.5070   24.0150   36.0800 C   0  0  0  0  0  0  0  0  0  0  0  0
   37.5990   24.1970   37.1050 C   0  0  0  0  0  0  0  0  0  0  0  0
   36.7130   24.6920   36.7910 H   0  0  0  0  0  0  0  0  0  0  0  0
   37.8960   23.7480   38.3790 C   0  0  0  0  0  3  0  0  0  0  0  0
   39.0810   23.1160   38.6750 C   0  0  0  0  0  0  0  0  0  0  0  0
   39.2630   22.7850   39.6900 H   0  0  0  0  0  0  0  0  0  0  0  0
   39.9850   22.9390   37.6400 C   0  0  0  0  0  0  0  0  0  0  0  0
   40.9120   22.4380   37.8990 H   0  0  0  0  0  0  0  0  0  0  0  0
   39.7220   23.3750   36.3490 C   0  0  0  0  0  3  0  0  0  0  0  0
  1  2  1  0  0  0  0
  2  3  2  0  0  0  0
  2  7  1  0  0  0  0
  3  8  1  0  0  0  0
  4 19  1  0  0  0  0
  4  3  1  0  0  0  0
  5  4  2  0  0  0  0
  6  5  1  0  0  0  0
  6  1  2  0  0  0  0
  9  5  1  0  0  0  0
 10 11  1  0  0  0  0
 11  1  1  0  0  0  0
 11 12  2  0  0  0  0
 12 17  1  0  0  0  0
 13 12  1  0  0  0  0
 14 13  2  0  0  0  0
 15 10  2  0  0  0  0
 15 14  1  0  0  0  0
 16 10  1  0  0  0  0
 18 14  1  0  0  0  0
 19 20  1  0  0  0  0
 20 28  2  0  0  0  0
 20 21  1  0  0  0  0
 21 23  2  0  0  0  0
 22 21  1  0  0  0  0
 23 24  1  0  0  0  0
 24 25  1  0  0  0  0
 26 27  1  0  0  0  0
 26 24  2  0  0  0  0
 28 26  1  0  0  0  0
M  END
>  <minimizedAffinity>
-5.12026119

$$$$

 OpenBabel03272510113D

 28 30  0  0  0  0  0  0  0  0999 V2000
   38.4280   25.6000   35.4070 C   0  0  0  0  0  0  0  0  0  0  0  0
   38.4270   26.8320   36.0060 C   0  0  0  0  0  0  0  0  0  0  0  0
   37.7390   27.9250   35.5360 C   0  0  0  0  0  0  0  0  0  0  0  0
   36.9870   27.8200   34.3860 C   0  0  0  0  0  0  0  0  0  0  0  0
   36.9940   26.5610   33.7850 C   0  0  0  0  0  0  0  0  0  0  0  0
   37.6840   25.5130   34.2820 N   0  0  0  0  0  0  0  0  0  0  0  0
   39.0120   26.9450   36.9140 H   0  0  0  0  0  0  0  0  0  0  0  0
   37.7420   28.8950   36.0100 H   0  0  0  0  0  0  0  0  0  0  0  0
   36.4330   26.3670   32.8730 H   0  0  0  0  0  0  0  0  0  0  0  0
   40.3140   23.9390   35.2920 C   0  0  0  0  0  0  0  0  0  0  0  0
   39.1520   24.4570   35.9070 C   0  0  0  0  0  0  0  0  0  0  0  0
   38.6830   23.8250   37.0590 C   0  0  0  0  0  0  0  0  0  0  0  0
   39.3880   22.7360   37.5180 N   0  0  0  0  0  0  0  0  0  0  0  0
   40.4850   22.2800   36.9030 C   0  0  0  0  0  0  0  0  0  0  0  0
   40.9610   22.8710   35.7880 N   0  0  0  0  0  0  0  0  0  0  0  0
   40.6630   24.4450   34.3960 H   0  0  0  0  0  0  0  0  0  0  0  0
   37.8130   24.1820   37.5510 H   0  0  0  0  0  0  0  0  0  0  0  0
   40.9250   21.4100   37.3940 H   0  0  0  0  0  0  0  0  0  0  0  0
   36.2410   28.8170   33.7840 O   0  0  0  0  0  0  0  0  0  0  0  0
   35.4910   29.7070   34.5350 C   0  0  0  0  0  0  0  0  0  0  0  0
   35.9300   30.8070   35.2470 C   0  0  0  0  0  0  0  0  0  0  0  0
   36.9800   30.9510   35.1820 H   0  0  0  0  0  0  0  0  0  0  0  0
   35.0240   31.5850   35.9440 C   0  0  0  0  0  3  0  0  0  0  0  0
   33.6770   31.3040   35.9610 C   0  0  0  0  0  0  0  0  0  0  0  0
   33.0110   31.9460   36.5230 H   0  0  0  0  0  0  0  0  0  0  0  0
   33.2480   30.1990   35.2430 C   0  0  0  0  0  0  0  0  0  0  0  0
   32.1810   29.9990   35.2720 H   0  0  0  0  0  0  0  0  0  0  0  0
   34.1270   29.3950   34.5310 C   0  0  0  0  0  3  0  0  0  0  0  0
  1 11  1  0  0  0  0
  1  2  1  0  0  0  0
  2  7  1  0  0  0  0
  3  2  2  0  0  0  0
  3  8  1  0  0  0  0
  4  3  1  0  0  0  0
  5  6  1  0  0  0  0
  5  4  2  0  0  0  0
  6  1  2  0  0  0  0
  9  5  1  0  0  0  0
 10 15  2  0  0  0  0
 10 11  1  0  0  0  0
 11 12  2  0  0  0  0
 12 13  1  0  0  0  0
 12 17  1  0  0  0  0
 14 18  1  0  0  0  0
 14 13  2  0  0  0  0
 15 14  1  0  0  0  0
 16 10  1  0  0  0  0
 19  4  1  0  0  0  0
 19 20  1  0  0  0  0
 20 21  1  0  0  0  0
 21 23  2  0  0  0  0
 22 21  1  0  0  0  0
 23 24  1  0  0  0  0
 24 25  1  0  0  0  0
 26 27  1  0  0  0  0
 26 24  2  0  0  0  0
 28 20  2  0  0  0  0
 28 26  1  0  0  0  0
M  END
>  <minimizedAffinity>
-5.09464693

$$$$

 OpenBabel03272510113D

 28 30  0  0  0  0  0  0  0  0999 V2000
   36.3310   22.8790   31.9120 C   0  0  0  0  0  0  0  0  0  0  0  0
   35.5210   23.7840   31.2760 C   0  0  0  0  0  0  0  0  0  0  0  0
   35.8020   25.1220   31.1440 C   0  0  0  0  0  0  0  0  0  0  0  0
   36.9680   25.6340   31.6720 C   0  0  0  0  0  0  0  0  0  0  0  0
   37.7860   24.7050   32.3170 C   0  0  0  0  0  0  0  0  0  0  0  0
   37.4700   23.3970   32.4230 N   0  0  0  0  0  0  0  0  0  0  0  0
   34.5950   23.4090   30.8500 H   0  0  0  0  0  0  0  0  0  0  0  0
   35.1610   25.8320   30.6430 H   0  0  0  0  0  0  0  0  0  0  0  0
   38.7300   25.0010   32.7700 H   0  0  0  0  0  0  0  0  0  0  0  0
   36.0370   20.5680   30.9620 C   0  0  0  0  0  0  0  0  0  0  0  0
   36.0290   21.4760   32.0460 C   0  0  0  0  0  0  0  0  0  0  0  0
   35.7110   20.9820   33.3120 C   0  0  0  0  0  0  0  0  0  0  0  0
   35.4260   19.6400   33.4180 N   0  0  0  0  0  0  0  0  0  0  0  0
   35.4460   18.8170   32.3630 C   0  0  0  0  0  0  0  0  0  0  0  0
   35.7490   19.2670   31.1280 N   0  0  0  0  0  0  0  0  0  0  0  0
   36.2870   20.9730   29.9850 H   0  0  0  0  0  0  0  0  0  0  0  0
   35.6940   21.6300   34.1520 H   0  0  0  0  0  0  0  0  0  0  0  0
   35.1960   17.7850   32.6160 H   0  0  0  0  0  0  0  0  0  0  0  0
   37.3980   26.9480   31.6270 O   0  0  0  0  0  0  0  0  0  0  0  0
   36.7960   27.9270   32.4000 C   0  0  0  0  0  0  0  0  0  0  0  0
   36.5780   27.9250   33.7650 C   0  0  0  0  0  0  0  0  0  0  0  0
   36.9310   27.0430   34.2400 H   0  0  0  0  0  0  0  0  0  0  0  0
   35.9550   29.0030   34.3660 C   0  0  0  0  0  3  0  0  0  0  0  0
   35.5350   30.1000   33.6500 C   0  0  0  0  0  0  0  0  0  0  0  0
   35.0520   30.9170   34.1700 H   0  0  0  0  0  0  0  0  0  0  0  0
   35.7590   30.0910   32.2820 C   0  0  0  0  0  0  0  0  0  0  0  0
   35.4180   30.9680   31.7400 H   0  0  0  0  0  0  0  0  0  0  0  0
   36.3810   29.0280   31.6430 C   0  0  0  0  0  3  0  0  0  0  0  0
  1 11  1  0  0  0  0
  1  6  1  0  0  0  0
  2  1  2  0  0  0  0
  3  2  1  0  0  0  0
  3  4  2  0  0  0  0
  4  5  1  0  0  0  0
  5  6  2  0  0  0  0
  5  9  1  0  0  0  0
  7  2  1  0  0  0  0
  8  3  1  0  0  0  0
 10 15  2  0  0  0  0
 10 11  1  0  0  0  0
 11 12  2  0  0  0  0
 12 13  1  0  0  0  0
 12 17  1  0  0  0  0
 14 18  1  0  0  0  0
 14 13  2  0  0  0  0
 15 14  1  0  0  0  0
 16 10  1  0  0  0  0
 19  4  1  0  0  0  0
 19 20  1  0  0  0  0
 20 21  1  0  0  0  0
 21 22  1  0  0  0  0
 21 23  2  0  0  0  0
 24 25  1  0  0  0  0
 24 23  1  0  0  0  0
 26 24  2  0  0  0  0
 27 26  1  0  0  0  0
 28 26  1  0  0  0  0
 28 20  2  0  0  0  0
M  END
>  <minimizedAffinity>
-4.96309376

$$$$

 OpenBabel03272510113D

 28 30  0  0  0  0  0  0  0  0999 V2000
   35.6730   29.1190   33.8860 C   0  0  0  0  0  0  0  0  0  0  0  0
   36.5840   28.1490   34.2140 C   0  0  0  0  0  0  0  0  0  0  0  0
   37.0790   27.2160   33.3360 C   0  0  0  0  0  0  0  0  0  0  0  0
   36.6560   27.2160   32.0240 C   0  0  0  0  0  0  0  0  0  0  0  0
   35.7290   28.2080   31.6990 C   0  0  0  0  0  0  0  0  0  0  0  0
   35.2700   29.1070   32.5950 N   0  0  0  0  0  0  0  0  0  0  0  0
   36.9350   28.1240   35.2420 H   0  0  0  0  0  0  0  0  0  0  0  0
   37.7960   26.4530   33.5990 H   0  0  0  0  0  0  0  0  0  0  0  0
   35.3300   28.3000   30.6910 H   0  0  0  0  0  0  0  0  0  0  0  0
   35.9820   30.9340   35.6010 C   0  0  0  0  0  0  0  0  0  0  0  0
   35.1590   30.0960   34.8130 C   0  0  0  0  0  0  0  0  0  0  0  0
   33.7760   30.2250   34.9450 C   0  0  0  0  0  0  0  0  0  0  0  0
   33.3080   31.1630   35.8360 N   0  0  0  0  0  0  0  0  0  0  0  0
   34.1250   31.9360   36.5610 C   0  0  0  0  0  0  0  0  0  0  0  0
   35.4650   31.8320   36.4550 N   0  0  0  0  0  0  0  0  0  0  0  0
   37.0570   30.8170   35.4830 H   0  0  0  0  0  0  0  0  0  0  0  0
   33.1230   29.6150   34.3720 H   0  0  0  0  0  0  0  0  0  0  0  0
   33.5950   32.6260   37.2190 H   0  0  0  0  0  0  0  0  0  0  0  0
   37.0520   26.3520   31.0200 O   0  0  0  0  0  0  0  0  0  0  0  0
   36.7990   24.9920   31.1020 C   0  0  0  0  0  0  0  0  0  0  0  0
   35.6100   24.3610   31.4120 C   0  0  0  0  0  0  0  0  0  0  0  0
   34.8170   25.0410   31.6040 H   0  0  0  0  0  0  0  0  0  0  0  0
   35.5500   22.9800   31.4460 C   0  0  0  0  0  3  0  0  0  0  0  0
   36.6450   22.1920   31.1800 C   0  0  0  0  0  0  0  0  0  0  0  0
   36.5430   21.1150   31.2200 H   0  0  0  0  0  0  0  0  0  0  0  0
   37.8330   22.8360   30.8700 C   0  0  0  0  0  0  0  0  0  0  0  0
   38.6820   22.1920   30.6630 H   0  0  0  0  0  0  0  0  0  0  0  0
   37.9320   24.2190   30.8250 C   0  0  0  0  0  3  0  0  0  0  0  0
  1  2  1  0  0  0  0
  1 11  1  0  0  0  0
  2  7  1  0  0  0  0
  3  8  1  0  0  0  0
  3  2  2  0  0  0  0
  4  3  1  0  0  0  0
  5  4  2  0  0  0  0
  5  6  1  0  0  0  0
  6  1  2  0  0  0  0
  9  5  1  0  0  0  0
 10 15  1  0  0  0  0
 11 12  1  0  0  0  0
 11 10  2  0  0  0  0
 12 13  2  0  0  0  0
 13 14  1  0  0  0  0
 14 18  1  0  0  0  0
 15 14  2  0  0  0  0
 16 10  1  0  0  0  0
 17 12  1  0  0  0  0
 19 20  1  0  0  0  0
 19  4  1  0  0  0  0
 20 21  1  0  0  0  0
 21 23  2  0  0  0  0
 21 22  1  0  0  0  0
 24 25  1  0  0  0  0
 24 23  1  0  0  0  0
 26 24  2  0  0  0  0
 27 26  1  0  0  0  0
 28 26  1  0  0  0  0
 28 20  2  0  0  0  0
M  END
>  <minimizedAffinity>
-4.91011667

$$$$

 OpenBabel03272510113D

 28 30  0  0  0  0  0  0  0  0999 V2000
   37.4270   26.8960   33.9220 C   0  0  0  0  0  0  0  0  0  0  0  0
   37.8130   27.1250   35.2160 C   0  0  0  0  0  0  0  0  0  0  0  0
   38.2600   26.1540   36.0790 C   0  0  0  0  0  0  0  0  0  0  0  0
   38.3420   24.8450   35.6560 C   0  0  0  0  0  0  0  0  0  0  0  0
   37.9470   24.6220   34.3360 C   0  0  0  0  0  0  0  0  0  0  0  0
   37.5140   25.6080   33.5220 N   0  0  0  0  0  0  0  0  0  0  0  0
   37.7590   28.1480   35.5780 H   0  0  0  0  0  0  0  0  0  0  0  0
   38.5630   26.3390   37.0990 H   0  0  0  0  0  0  0  0  0  0  0  0
   37.9730   23.6260   33.8980 H   0  0  0  0  0  0  0  0  0  0  0  0
   36.0050   28.9010   33.3830 C   0  0  0  0  0  0  0  0  0  0  0  0
   36.9590   27.9220   33.0220 C   0  0  0  0  0  0  0  0  0  0  0  0
   37.4710   27.9520   31.7250 C   0  0  0  0  0  0  0  0  0  0  0  0
   37.0110   28.9390   30.8830 N   0  0  0  0  0  0  0  0  0  0  0  0
   36.1060   29.8470   31.2680 C   0  0  0  0  0  0  0  0  0  0  0  0
   35.5940   29.8400   32.5150 N   0  0  0  0  0  0  0  0  0  0  0  0
   35.6190   28.8600   34.3980 H   0  0  0  0  0  0  0  0  0  0  0  0
   38.1890   27.2350   31.4140 H   0  0  0  0  0  0  0  0  0  0  0  0
   35.8470   30.5580   30.4830 H   0  0  0  0  0  0  0  0  0  0  0  0
   38.7680   23.7550   36.3930 O   0  0  0  0  0  0  0  0  0  0  0  0
   40.0870   23.3330   36.3550 C   0  0  0  0  0  0  0  0  0  0  0  0
   41.1320   23.8620   35.6210 C   0  0  0  0  0  0  0  0  0  0  0  0
   40.8430   24.6930   35.0260 H   0  0  0  0  0  0  0  0  0  0  0  0
   42.3930   23.3010   35.7130 C   0  0  0  0  0  3  0  0  0  0  0  0
   42.6560   22.2180   36.5200 C   0  0  0  0  0  0  0  0  0  0  0  0
   43.6610   21.8180   36.5550 H   0  0  0  0  0  0  0  0  0  0  0  0
   41.6010   21.6970   37.2510 C   0  0  0  0  0  0  0  0  0  0  0  0
   41.8340   20.8430   37.8790 H   0  0  0  0  0  0  0  0  0  0  0  0
   40.3220   22.2320   37.1850 C   0  0  0  0  0  3  0  0  0  0  0  0
  1  2  1  0  0  0  0
  2  7  1  0  0  0  0
  2  3  2  0  0  0  0
  3  8  1  0  0  0  0
  4  3  1  0  0  0  0
  4 19  1  0  0  0  0
  5  4  2  0  0  0  0
  6  1  2  0  0  0  0
  6  5  1  0  0  0  0
  9  5  1  0  0  0  0
 10 16  1  0  0  0  0
 11 10  1  0  0  0  0
 11  1  1  0  0  0  0
 12 11  2  0  0  0  0
 13 14  2  0  0  0  0
 13 12  1  0  0  0  0
 14 15  1  0  0  0  0
 15 10  2  0  0  0  0
 17 12  1  0  0  0  0
 18 14  1  0  0  0  0
 20 19  1  0  0  0  0
 20 28  1  0  0  0  0
 21 23  1  0  0  0  0
 21 20  2  0  0  0  0
 22 21  1  0  0  0  0
 23 24  2  0  0  0  0
 24 25  1  0  0  0  0
 24 26  1  0  0  0  0
 26 27  1  0  0  0  0
 28 26  2  0  0  0  0
M  END
>  <minimizedAffinity>
-4.85771465

$$$$

 OpenBabel03272510113D

 28 30  0  0  0  0  0  0  0  0999 V2000
   35.5260   29.6980   34.0660 C   0  0  0  0  0  0  0  0  0  0  0  0
   35.3520   29.8730   32.7180 C   0  0  0  0  0  0  0  0  0  0  0  0
   35.8740   29.0470   31.7520 C   0  0  0  0  0  0  0  0  0  0  0  0
   36.6310   27.9560   32.1180 C   0  0  0  0  0  0  0  0  0  0  0  0
   36.8030   27.7860   33.4920 C   0  0  0  0  0  0  0  0  0  0  0  0
   36.2710   28.6220   34.4080 N   0  0  0  0  0  0  0  0  0  0  0  0
   34.7600   30.7260   32.3990 H   0  0  0  0  0  0  0  0  0  0  0  0
   35.7350   29.1900   30.6910 H   0  0  0  0  0  0  0  0  0  0  0  0
   37.3820   26.9560   33.8920 H   0  0  0  0  0  0  0  0  0  0  0  0
   33.5950   30.6400   35.3750 C   0  0  0  0  0  0  0  0  0  0  0  0
   34.9750   30.5690   35.0740 C   0  0  0  0  0  0  0  0  0  0  0  0
   35.8460   31.3870   35.7940 C   0  0  0  0  0  0  0  0  0  0  0  0
   35.2980   32.2110   36.7510 N   0  0  0  0  0  0  0  0  0  0  0  0
   33.9850   32.2460   37.0030 C   0  0  0  0  0  0  0  0  0  0  0  0
   33.1200   31.4660   36.3220 N   0  0  0  0  0  0  0  0  0  0  0  0
   32.9340   29.9950   34.8030 H   0  0  0  0  0  0  0  0  0  0  0  0
   36.8890   31.3640   35.5990 H   0  0  0  0  0  0  0  0  0  0  0  0
   33.7140   32.9510   37.7890 H   0  0  0  0  0  0  0  0  0  0  0  0
   37.2250   27.0320   31.2760 O   0  0  0  0  0  0  0  0  0  0  0  0
   36.8250   25.7060   31.2700 C   0  0  0  0  0  0  0  0  0  0  0  0
   35.5430   25.2010   31.1680 C   0  0  0  0  0  0  0  0  0  0  0  0
   34.8040   25.9580   31.0870 H   0  0  0  0  0  0  0  0  0  0  0  0
   35.3380   23.8330   31.1790 C   0  0  0  0  0  3  0  0  0  0  0  0
   36.3750   22.9370   31.2900 C   0  0  0  0  0  0  0  0  0  0  0  0
   36.1580   21.8760   31.2940 H   0  0  0  0  0  0  0  0  0  0  0  0
   37.6560   23.4550   31.3910 C   0  0  0  0  0  0  0  0  0  0  0  0
   38.4570   22.7270   31.4780 H   0  0  0  0  0  0  0  0  0  0  0  0
   37.9030   24.8200   31.3840 C   0  0  0  0  0  3  0  0  0  0  0  0
  1  6  1  0  0  0  0
  1 11  1  0  0  0  0
  2  1  2  0  0  0  0
  3  4  2  0  0  0  0
  3  2  1  0  0  0  0
  4  5  1  0  0  0  0
  5  9  1  0  0  0  0
  5  6  2  0  0  0  0
  7  2  1  0  0  0  0
  8  3  1  0  0  0  0
 10 15  1  0  0  0  0
 11 10  2  0  0  0  0
 11 12  1  0  0  0  0
 12 13  2  0  0  0  0
 13 14  1  0  0  0  0
 14 18  1  0  0  0  0
 15 14  2  0  0  0  0
 16 10  1  0  0  0  0
 17 12  1  0  0  0  0
 19  4  1  0  0  0  0
 20 19  1  0  0  0  0
 20 28  1  0  0  0  0
 21 23  1  0  0  0  0
 21 20  2  0  0  0  0
 22 21  1  0  0  0  0
 23 24  2  0  0  0  0
 24 25  1  0  0  0  0
 24 26  1  0  0  0  0
 26 27  1  0  0  0  0
 28 26  2  0  0  0  0
M  END
>  <minimizedAffinity>
-4.75798988

$$$$

 OpenBabel03272510113D

 28 30  0  0  0  0  0  0  0  0999 V2000
   38.0640   25.1170   34.8590 C   0  0  0  0  0  0  0  0  0  0  0  0
   37.6880   26.4210   35.0460 C   0  0  0  0  0  0  0  0  0  0  0  0
   37.0530   27.1910   34.1020 C   0  0  0  0  0  0  0  0  0  0  0  0
   36.7560   26.6570   32.8670 C   0  0  0  0  0  0  0  0  0  0  0  0
   37.1440   25.3280   32.6870 C   0  0  0  0  0  0  0  0  0  0  0  0
   37.7650   24.6070   33.6440 N   0  0  0  0  0  0  0  0  0  0  0  0
   37.9090   26.8700   36.0100 H   0  0  0  0  0  0  0  0  0  0  0  0
   36.7590   28.2190   34.2520 H   0  0  0  0  0  0  0  0  0  0  0  0
   36.9570   24.8070   31.7500 H   0  0  0  0  0  0  0  0  0  0  0  0
   38.1790   24.0360   37.1290 C   0  0  0  0  0  0  0  0  0  0  0  0
   38.7290   24.3150   35.8570 C   0  0  0  0  0  0  0  0  0  0  0  0
   39.9830   23.7840   35.5540 C   0  0  0  0  0  0  0  0  0  0  0  0
   40.6000   23.0220   36.5200 N   0  0  0  0  0  0  0  0  0  0  0  0
   40.0410   22.7830   37.7120 C   0  0  0  0  0  0  0  0  0  0  0  0
   38.8300   23.2840   38.0310 N   0  0  0  0  0  0  0  0  0  0  0  0
   37.2010   24.4590   37.3440 H   0  0  0  0  0  0  0  0  0  0  0  0
   40.4320   23.9690   34.6110 H   0  0  0  0  0  0  0  0  0  0  0  0
   40.6590   22.1630   38.3630 H   0  0  0  0  0  0  0  0  0  0  0  0
   36.1260   27.2920   31.8120 O   0  0  0  0  0  0  0  0  0  0  0  0
   36.7840   28.2460   31.0530 C   0  0  0  0  0  0  0  0  0  0  0  0
   37.9830   28.1240   30.3780 C   0  0  0  0  0  0  0  0  0  0  0  0
   38.4210   27.1620   30.4810 H   0  0  0  0  0  0  0  0  0  0  0  0
   38.4870   29.1980   29.6660 C   0  0  0  0  0  3  0  0  0  0  0  0
   37.8320   30.4060   29.6000 C   0  0  0  0  0  0  0  0  0  0  0  0
   38.2710   31.2140   29.0290 H   0  0  0  0  0  0  0  0  0  0  0  0
   36.6300   30.5160   30.2810 C   0  0  0  0  0  0  0  0  0  0  0  0
   36.1330   31.4800   30.2130 H   0  0  0  0  0  0  0  0  0  0  0  0
   36.0930   29.4620   31.0050 C   0  0  0  0  0  3  0  0  0  0  0  0
  1  2  1  0  0  0  0
  1 11  1  0  0  0  0
  2  7  1  0  0  0  0
  3  8  1  0  0  0  0
  3  2  2  0  0  0  0
  4  3  1  0  0  0  0
  5  4  2  0  0  0  0
  5  6  1  0  0  0  0
  6  1  2  0  0  0  0
  9  5  1  0  0  0  0
 10 16  1  0  0  0  0
 10 15  1  0  0  0  0
 11 10  2  0  0  0  0
 12 11  1  0  0  0  0
 12 13  2  0  0  0  0
 13 14  1  0  0  0  0
 14 15  2  0  0  0  0
 14 18  1  0  0  0  0
 17 12  1  0  0  0  0
 19  4  1  0  0  0  0
 20 19  1  0  0  0  0
 21 22  1  0  0  0  0
 21 20  2  0  0  0  0
 23 21  1  0  0  0  0
 24 23  2  0  0  0  0
 24 26  1  0  0  0  0
 25 24  1  0  0  0  0
 26 28  2  0  0  0  0
 27 26  1  0  0  0  0
 28 20  1  0  0  0  0
M  END
>  <minimizedAffinity>
-4.75793839

$$$$

 OpenBabel03272510113D

 28 30  0  0  0  0  0  0  0  0999 V2000
   38.1030   25.1080   34.9470 C   0  0  0  0  0  0  0  0  0  0  0  0
   37.6820   26.3910   35.1810 C   0  0  0  0  0  0  0  0  0  0  0  0
   37.0390   27.1790   34.2580 C   0  0  0  0  0  0  0  0  0  0  0  0
   36.7780   26.6860   32.9970 C   0  0  0  0  0  0  0  0  0  0  0  0
   37.2110   25.3790   32.7700 C   0  0  0  0  0  0  0  0  0  0  0  0
   37.8390   24.6390   33.7070 N   0  0  0  0  0  0  0  0  0  0  0  0
   37.8740   26.8060   36.1650 H   0  0  0  0  0  0  0  0  0  0  0  0
   36.7090   28.1900   34.4450 H   0  0  0  0  0  0  0  0  0  0  0  0
   37.0560   24.8910   31.8090 H   0  0  0  0  0  0  0  0  0  0  0  0
   38.2540   24.0080   37.2050 C   0  0  0  0  0  0  0  0  0  0  0  0
   38.7780   24.2870   35.9220 C   0  0  0  0  0  0  0  0  0  0  0  0
   40.0140   23.7350   35.5850 C   0  0  0  0  0  0  0  0  0  0  0  0
   40.6410   22.9550   36.5300 N   0  0  0  0  0  0  0  0  0  0  0  0
   40.1070   22.7180   37.7340 C   0  0  0  0  0  0  0  0  0  0  0  0
   38.9140   23.2380   38.0860 N   0  0  0  0  0  0  0  0  0  0  0  0
   37.2900   24.4470   37.4480 H   0  0  0  0  0  0  0  0  0  0  0  0
   40.4430   23.9200   34.6320 H   0  0  0  0  0  0  0  0  0  0  0  0
   40.7300   22.0820   38.3650 H   0  0  0  0  0  0  0  0  0  0  0  0
   36.1450   27.3440   31.9580 O   0  0  0  0  0  0  0  0  0  0  0  0
   35.7630   28.6710   32.0750 C   0  0  0  0  0  0  0  0  0  0  0  0
   34.6470   29.1860   32.7070 C   0  0  0  0  0  0  0  0  0  0  0  0
   34.0340   28.4370   33.1430 H   0  0  0  0  0  0  0  0  0  0  0  0
   34.4310   30.5520   32.7200 C   0  0  0  0  0  3  0  0  0  0  0  0
   35.2950   31.4370   32.1190 C   0  0  0  0  0  0  0  0  0  0  0  0
   35.0780   32.4970   32.1580 H   0  0  0  0  0  0  0  0  0  0  0  0
   36.4110   30.9080   31.4880 C   0  0  0  0  0  0  0  0  0  0  0  0
   37.0770   31.6270   31.0220 H   0  0  0  0  0  0  0  0  0  0  0  0
   36.6620   29.5450   31.4540 C   0  0  0  0  0  3  0  0  0  0  0  0
  1  2  1  0  0  0  0
  1 11  1  0  0  0  0
  2  7  1  0  0  0  0
  3  8  1  0  0  0  0
  3  2  2  0  0  0  0
  4  3  1  0  0  0  0
  5  4  2  0  0  0  0
  5  6  1  0  0  0  0
  6  1  2  0  0  0  0
  9  5  1  0  0  0  0
 10 16  1  0  0  0  0
 10 15  1  0  0  0  0
 11 10  2  0  0  0  0
 12 11  1  0  0  0  0
 12 13  2  0  0  0  0
 13 14  1  0  0  0  0
 14 15  2  0  0  0  0
 14 18  1  0  0  0  0
 17 12  1  0  0  0  0
 19 20  1  0  0  0  0
 19  4  1  0  0  0  0
 20 21  1  0  0  0  0
 21 23  2  0  0  0  0
 21 22  1  0  0  0  0
 24 25  1  0  0  0  0
 24 23  1  0  0  0  0
 26 24  2  0  0  0  0
 27 26  1  0  0  0  0
 28 26  1  0  0  0  0
 28 20  2  0  0  0  0
M  END
>  <minimizedAffinity>
-4.75159359

$$$$

 OpenBabel03272510113D

 28 30  0  0  0  0  0  0  0  0999 V2000
   36.8640   26.3330   33.0830 C   0  0  0  0  0  0  0  0  0  0  0  0
   37.0140   26.9880   34.2770 C   0  0  0  0  0  0  0  0  0  0  0  0
   36.6070   28.2780   34.5150 C   0  0  0  0  0  0  0  0  0  0  0  0
   36.0010   29.0020   33.5100 C   0  0  0  0  0  0  0  0  0  0  0  0
   35.8520   28.3270   32.2980 C   0  0  0  0  0  0  0  0  0  0  0  0
   36.2670   27.0570   32.1090 N   0  0  0  0  0  0  0  0  0  0  0  0
   37.4890   26.4420   35.0870 H   0  0  0  0  0  0  0  0  0  0  0  0
   36.7280   28.7910   35.4570 H   0  0  0  0  0  0  0  0  0  0  0  0
   35.3870   28.8040   31.4380 H   0  0  0  0  0  0  0  0  0  0  0  0
   38.2570   24.3120   33.6330 C   0  0  0  0  0  0  0  0  0  0  0  0
   37.2940   24.9780   32.8420 C   0  0  0  0  0  0  0  0  0  0  0  0
   36.7310   24.2830   31.7700 C   0  0  0  0  0  0  0  0  0  0  0  0
   37.1560   22.9910   31.5580 N   0  0  0  0  0  0  0  0  0  0  0  0
   38.0720   22.4000   32.3340 C   0  0  0  0  0  0  0  0  0  0  0  0
   38.6320   23.0480   33.3760 N   0  0  0  0  0  0  0  0  0  0  0  0
   38.6830   24.8710   34.4630 H   0  0  0  0  0  0  0  0  0  0  0  0
   36.0050   24.7470   31.1520 H   0  0  0  0  0  0  0  0  0  0  0  0
   38.2980   21.3760   32.0320 H   0  0  0  0  0  0  0  0  0  0  0  0
   35.5360   30.3030   33.5840 O   0  0  0  0  0  0  0  0  0  0  0  0
   35.0370   30.8210   34.7670 C   0  0  0  0  0  0  0  0  0  0  0  0
   35.6930   31.5940   35.7060 C   0  0  0  0  0  0  0  0  0  0  0  0
   36.7050   31.7910   35.4480 H   0  0  0  0  0  0  0  0  0  0  0  0
   35.0230   32.0230   36.8370 C   0  0  0  0  0  3  0  0  0  0  0  0
   33.7050   31.7070   37.0730 C   0  0  0  0  0  0  0  0  0  0  0  0
   33.2290   32.0680   37.9750 H   0  0  0  0  0  0  0  0  0  0  0  0
   33.0580   30.9320   36.1250 C   0  0  0  0  0  0  0  0  0  0  0  0
   32.0180   30.6960   36.3340 H   0  0  0  0  0  0  0  0  0  0  0  0
   33.6950   30.4820   34.9770 C   0  0  0  0  0  3  0  0  0  0  0  0
  1  2  1  0  0  0  0
  2  3  2  0  0  0  0
  2  7  1  0  0  0  0
  3  8  1  0  0  0  0
  4 19  1  0  0  0  0
  4  3  1  0  0  0  0
  5  4  2  0  0  0  0
  6  5  1  0  0  0  0
  6  1  2  0  0  0  0
  9  5  1  0  0  0  0
 10 16  1  0  0  0  0
 11  1  1  0  0  0  0
 11 10  2  0  0  0  0
 12 11  1  0  0  0  0
 13 12  2  0  0  0  0
 13 14  1  0  0  0  0
 14 15  2  0  0  0  0
 15 10  1  0  0  0  0
 17 12  1  0  0  0  0
 18 14  1  0  0  0  0
 19 20  1  0  0  0  0
 20 28  2  0  0  0  0
 20 21  1  0  0  0  0
 21 23  2  0  0  0  0
 22 21  1  0  0  0  0
 23 24  1  0  0  0  0
 24 25  1  0  0  0  0
 26 27  1  0  0  0  0
 26 24  2  0  0  0  0
 28 26  1  0  0  0  0
M  END
>  <minimizedAffinity>
-4.74064875

$$$$
