REMARK  Name = 
REMARK  3 active torsions:
REMARK  status: ('A' for Active; 'I' for Inactive)
REMARK    1  A    between atoms: C_1  and  C_8
REMARK    2  A    between atoms: C_4  and  O_13
REMARK    3  A    between atoms: O_13  and  C_20
REMARK                            x       y       z     vdW  Elec       q    Type
REMARK                         _______ _______ _______ _____ _____    ______ ____
ROOT
ATOM      1  C   UNL     1      37.559  31.661  48.940  0.00  0.00    +0.000 A 
ATOM      2  C   UNL     1      38.191  32.739  49.502  0.00  0.00    +0.000 A 
ATOM      3  C   UNL     1      39.063  33.565  48.835  0.00  0.00    +0.000 A 
ATOM      4  C   UNL     1      39.352  33.330  47.508  0.00  0.00    +0.000 A 
ATOM      5  C   UNL     1      38.703  32.230  46.945  0.00  0.00    +0.000 A 
ATOM      6  N   UNL     1      37.852  31.445  47.638  0.00  0.00    +0.000 NA
ATOM      7  H   UNL     1      37.983  32.949  50.547  0.00  0.00    +0.000 HD
ATOM      8  H   UNL     1      39.560  34.413  49.282  0.00  0.00    +0.000 HD
ATOM      9  H   UNL     1      38.858  31.954  45.904  0.00  0.00    +0.000 HD
ENDROOT
BRANCH   1  11
ATOM     10  C   UNL     1      36.956  30.166  50.872  0.00  0.00    +0.000 A 
ATOM     11  C   UNL     1      36.644  30.799  49.647  0.00  0.00    +0.000 A 
ATOM     12  C   UNL     1      35.382  30.575  49.096  0.00  0.00    +0.000 A 
ATOM     13  N   UNL     1      34.525  29.749  49.787  0.00  0.00    +0.000 NA
ATOM     14  C   UNL     1      34.863  29.170  50.945  0.00  0.00    +0.000 A 
ATOM     15  N   UNL     1      36.076  29.369  51.500  0.00  0.00    +0.000 NA
ATOM     16  H   UNL     1      37.944  30.354  51.284  0.00  0.00    +0.000 HD
ATOM     17  H   UNL     1      35.108  31.031  48.178  0.00  0.00    +0.000 HD
ATOM     18  H   UNL     1      34.072  28.546  51.363  0.00  0.00    +0.000 HD
ENDBRANCH   1  11
BRANCH   4  19
ATOM     19  O   UNL     1      40.202  34.060  46.697  0.00  0.00    +0.000 OA
BRANCH  19  20
ATOM     20  C   UNL     1      40.883  35.165  47.181  0.00  0.00    +0.000 A 
ATOM     21  C   UNL     1      42.221  35.268  47.510  0.00  0.00    +0.000 A 
ATOM     22  H   UNL     1      42.757  34.363  47.358  0.00  0.00    +0.000 HD
ATOM     23  C   UNL     1      42.727  36.465  47.982  0.00  0.00    +0.000 A 
ATOM     24  C   UNL     1      41.939  37.581  48.141  0.00  0.00    +0.000 A 
ATOM     25  H   UNL     1      42.385  38.494  48.515  0.00  0.00    +0.000 HD
ATOM     26  C   UNL     1      40.598  37.466  47.808  0.00  0.00    +0.000 A 
ATOM     27  H   UNL     1      39.997  38.361  47.943  0.00  0.00    +0.000 HD
ATOM     28  C   UNL     1      40.054  36.282  47.331  0.00  0.00    +0.000 A 
ENDBRANCH  19  20
ENDBRANCH   4  19
TORSDOF 3
