
 OpenBabel03272510103D

 28 30  0  0  0  0  0  0  0  0999 V2000
   37.2680   31.1670   48.4380 C   0  0  0  0  0  0  0  0  0  0  0  0
   38.2980   32.0140   48.7540 C   0  0  0  0  0  0  0  0  0  0  0  0
   39.0920   32.6520   47.8320 C   0  0  0  0  0  0  0  0  0  0  0  0
   38.8740   32.4560   46.4850 C   0  0  0  0  0  0  0  0  0  0  0  0
   37.8220   31.5930   46.1740 C   0  0  0  0  0  0  0  0  0  0  0  0
   37.0660   30.9870   47.1140 N   0  0  0  0  0  0  0  0  0  0  0  0
   38.4950   32.1870   49.8080 H   0  0  0  0  0  0  0  0  0  0  0  0
   39.9040   33.3170   48.0850 H   0  0  0  0  0  0  0  0  0  0  0  0
   37.5610   31.3680   45.1420 H   0  0  0  0  0  0  0  0  0  0  0  0
   36.9230   30.0130   50.6470 C   0  0  0  0  0  0  0  0  0  0  0  0
   36.4390   30.5020   49.4120 C   0  0  0  0  0  0  0  0  0  0  0  0
   35.0850   30.3280   49.1240 C   0  0  0  0  0  0  0  0  0  0  0  0
   34.3120   29.6900   50.0680 N   0  0  0  0  0  0  0  0  0  0  0  0
   34.8130   29.2430   51.2250 C   0  0  0  0  0  0  0  0  0  0  0  0
   36.1180   29.3970   51.5290 N   0  0  0  0  0  0  0  0  0  0  0  0
   37.9810   30.1590   50.8520 H   0  0  0  0  0  0  0  0  0  0  0  0
   34.6810   30.6800   48.2080 H   0  0  0  0  0  0  0  0  0  0  0  0
   34.0700   28.7610   51.8610 H   0  0  0  0  0  0  0  0  0  0  0  0
   39.5770   33.0180   45.4350 O   0  0  0  0  0  0  0  0  0  0  0  0
   39.8400   32.2980   44.2810 C   0  0  0  0  0  0  0  0  0  0  0  0
   40.5470   31.1180   44.1520 C   0  0  0  0  0  0  0  0  0  0  0  0
   40.9180   30.7530   45.0780 H   0  0  0  0  0  0  0  0  0  0  0  0
   40.7080   30.5430   42.9050 C   0  0  0  0  0  0  0  0  0  0  0  0
   40.1840   31.1060   41.7650 C   0  0  0  0  0  0  0  0  0  0  0  0
   40.3390   30.6130   40.8130 H   0  0  0  0  0  0  0  0  0  0  0  0
   39.4760   32.2890   41.9060 C   0  0  0  0  0  0  0  0  0  0  0  0
   39.0730   32.7130   40.9920 H   0  0  0  0  0  0  0  0  0  0  0  0
   39.2940   32.8960   43.1400 C   0  0  0  0  0  0  0  0  0  0  0  0
  1  2  1  0  0  0  0
  1 11  1  0  0  0  0
  2  7  1  0  0  0  0
  3  8  1  0  0  0  0
  3  2  2  0  0  0  0
  4  3  1  0  0  0  0
  5  4  2  0  0  0  0
  5  6  1  0  0  0  0
  6  1  2  0  0  0  0
  9  5  1  0  0  0  0
 10 16  1  0  0  0  0
 10 15  1  0  0  0  0
 11 10  2  0  0  0  0
 12 11  1  0  0  0  0
 12 13  2  0  0  0  0
 13 14  1  0  0  0  0
 14 15  2  0  0  0  0
 14 18  1  0  0  0  0
 17 12  1  0  0  0  0
 19  4  1  0  0  0  0
 20 19  1  0  0  0  0
 21 20  1  0  0  0  0
 21 22  1  0  0  0  0
 23 21  2  0  0  0  0
 24 26  2  0  0  0  0
 24 23  1  0  0  0  0
 25 24  1  0  0  0  0
 26 28  1  0  0  0  0
 27 26  1  0  0  0  0
 28 20  2  0  0  0  0
M  END
>  <minimizedAffinity>
-5.54844904

>  <minimizedRMSD>
4.06702614

$$$$
