
 OpenBabel03272503063D

 32 34  0  0  0  0  0  0  0  0999 V2000
   38.4280   30.4190   47.3200 F   0  0  0  0  0  0  0  0  0  0  0  0
   38.7170   31.6450   47.8130 C   0  0  0  0  0  0  0  0  0  0  0  0
   38.1670   32.0650   49.0070 C   0  0  0  0  0  0  0  0  0  0  0  0
   38.5050   33.3150   49.4430 C   0  0  0  0  0  0  0  0  0  0  0  0
   39.3500   34.1500   48.7530 C   0  0  0  0  0  0  0  0  0  0  0  0
   39.8930   33.7150   47.5590 C   0  0  0  0  0  0  0  0  0  0  0  0
   39.5690   32.4460   47.0880 C   0  0  0  0  0  0  0  0  0  0  0  0
   38.0650   33.6410   50.3880 H   0  0  0  0  0  0  0  0  0  0  0  0
   39.6020   35.1340   49.1180 H   0  0  0  0  0  0  0  0  0  0  0  0
   40.5680   34.2990   46.9460 H   0  0  0  0  0  0  0  0  0  0  0  0
   36.7750   29.5770   51.4930 C   0  0  0  0  0  0  0  0  0  0  0  0
   37.6600   30.4560   50.8500 C   0  0  0  0  0  0  0  0  0  0  0  0
   37.2760   31.1430   49.7010 C   0  0  0  0  0  0  0  0  0  0  0  0
   36.0160   30.9170   49.2440 N   0  0  0  0  0  0  0  0  0  0  0  0
   35.1730   30.0680   49.8680 C   0  0  0  0  0  0  0  0  0  0  0  0
   35.5480   29.4120   50.9730 N   0  0  0  0  0  0  0  0  0  0  0  0
   37.2200   29.1210   52.3720 H   0  0  0  0  0  0  0  0  0  0  0  0
   38.6720   30.6710   51.1750 H   0  0  0  0  0  0  0  0  0  0  0  0
   34.1690   29.8800   49.5150 H   0  0  0  0  0  0  0  0  0  0  0  0
   39.2660   32.1510   44.7230 C   0  0  0  0  0  0  0  0  0  0  0  0
   38.1540   32.6990   44.9830 O   0  0  0  0  0  0  0  0  0  0  0  0
   40.1160   31.9750   45.8590 N   0  0  0  0  0  0  0  0  0  0  0  0
   41.0410   31.5260   45.6810 H   0  0  0  0  0  0  0  0  0  0  0  0
   39.5760   31.7660   43.3560 C   0  0  0  0  0  0  0  0  0  0  0  0
   40.4150   30.6790   43.2240 C   0  0  0  0  0  0  0  0  0  0  0  0
   40.8350   30.1260   44.0510 H   0  0  0  0  0  0  0  0  0  0  0  0
   40.7470   30.2630   41.9300 C   0  0  0  0  0  0  0  0  0  0  0  0
   40.2230   30.9550   40.8410 C   0  0  0  0  0  0  0  0  0  0  0  0
   40.4710   30.6430   39.8300 H   0  0  0  0  0  0  0  0  0  0  0  0
   39.3730   32.0530   41.0180 C   0  0  0  0  0  0  0  0  0  0  0  0
   38.9580   32.6000   40.1880 H   0  0  0  0  0  0  0  0  0  0  0  0
   39.0460   32.4640   42.2940 C   0  0  0  0  0  0  0  0  0  0  0  0
  1  2  1  0  0  0  0
  2  3  1  0  0  0  0
  3  4  2  0  0  0  0
  3 13  1  0  0  0  0
  4  8  1  0  0  0  0
  5  9  1  0  0  0  0
  5  4  1  0  0  0  0
  6  5  2  0  0  0  0
  7  6  1  0  0  0  0
  7  2  2  0  0  0  0
 10  6  1  0  0  0  0
 11 17  1  0  0  0  0
 12 18  1  0  0  0  0
 12 11  2  0  0  0  0
 13 12  1  0  0  0  0
 14 13  2  0  0  0  0
 14 15  1  0  0  0  0
 15 16  2  0  0  0  0
 16 11  1  0  0  0  0
 19 15  1  0  0  0  0
 20 21  2  0  0  0  0
 20 22  1  0  0  0  0
 22  7  1  0  0  0  0
 23 22  1  0  0  0  0
 24 20  1  0  0  0  0
 25 24  1  0  0  0  0
 25 26  1  0  0  0  0
 27 25  2  0  0  0  0
 28 30  2  0  0  0  0
 28 27  1  0  0  0  0
 29 28  1  0  0  0  0
 30 32  1  0  0  0  0
 31 30  1  0  0  0  0
 32 24  2  0  0  0  0
M  END
>  <minimizedAffinity>
-6.72641563

>  <minimizedRMSD>
0.175146446

$$$$
