
     RDKit          3D

 31 33  0  0  0  0  0  0  0  0999 V2000
   38.3744   30.5955   47.1005 C   0  0  2  0  0  0  0  0  0  0  0  0
   36.9810   30.5417   47.5223 C   0  0  0  0  0  0  0  0  0  0  0  0
   38.0814   31.1374   48.4219 C   0  0  1  0  0  0  0  0  0  0  0  0
   40.6207   32.6742   45.0134 C   0  0  0  0  0  0  0  0  0  0  0  0
   39.7260   33.1756   44.0332 C   0  0  0  0  0  0  0  0  0  0  0  0
   38.3455   32.7908   44.1020 C   0  0  0  0  0  0  0  0  0  0  0  0
   37.9620   31.9583   45.1115 N   0  0  0  0  0  0  0  0  0  0  0  0
   38.8657   31.5087   46.0228 C   0  0  0  0  0  0  0  0  0  0  0  0
   40.1718   31.8379   46.0057 N   0  0  0  0  0  0  0  0  0  0  0  0
   37.7056   30.5440   50.7880 C   0  0  0  0  0  0  0  0  0  0  0  0
   36.7175   31.3186   50.8036 O   0  0  0  0  0  0  0  0  0  0  0  0
   38.4224   30.2873   49.5672 N   0  0  0  0  0  0  0  0  0  0  0  0
   39.0241   29.6675   47.1261 H   0  0  0  0  0  0  0  0  0  0  0  0
   36.5996   29.5690   47.8792 H   0  0  0  0  0  0  0  0  0  0  0  0
   36.2207   31.2346   47.1146 H   0  0  0  0  0  0  0  0  0  0  0  0
   37.8508   32.1758   48.7184 H   0  0  0  0  0  0  0  0  0  0  0  0
   41.6269   33.0223   44.8717 H   0  0  0  0  0  0  0  0  0  0  0  0
   40.0485   33.8260   43.2521 H   0  0  0  0  0  0  0  0  0  0  0  0
   37.6465   33.1591   43.3681 H   0  0  0  0  0  0  0  0  0  0  0  0
   39.1415   29.5650   49.4448 H   0  0  0  0  0  0  0  0  0  0  0  0
   38.1671   29.8721   52.0090 C   0  0  0  0  0  0  0  0  0  0  0  0
   37.7608   28.6424   52.4856 C   0  0  0  0  0  0  0  0  0  0  0  0
   37.0304   28.1348   51.8913 H   0  0  0  0  0  0  0  0  0  0  0  0
   38.2868   28.1386   53.6543 C   0  0  0  0  0  0  0  0  0  0  0  0
   39.2280   28.8237   54.3938 C   0  0  0  0  0  0  0  0  0  0  0  0
   39.6202   28.3990   55.3069 H   0  0  0  0  0  0  0  0  0  0  0  0
   39.6718   30.0579   53.9661 C   0  0  0  0  0  0  0  0  0  0  0  0
   40.4008   30.6398   54.4951 H   0  0  0  0  0  0  0  0  0  0  0  0
   39.1230   30.5316   52.7908 C   0  0  0  0  0  0  0  0  0  0  0  0
   37.9030   27.1601   53.9483 H   0  0  0  0  0  0  0  0  0  0  0  0
   39.4705   31.4987   52.4555 H   0  0  0  0  0  0  0  0  0  0  0  0
  1  2  1  0
  1  3  1  0
  2  3  1  0
  3 12  1  0
  4  9  2  0
  5  6  2  0
  5  4  1  0
  6  7  1  0
  7  8  2  0
  8  1  1  0
  9  8  1  0
 10 11  2  0
 12 10  1  0
  1 13  1  1
  2 14  1  0
  2 15  1  0
  3 16  1  1
  4 17  1  0
  5 18  1  0
  6 19  1  0
 12 20  1  0
 21 22  2  0
 22 23  1  0
 22 24  1  0
 24 25  2  0
 25 26  1  0
 25 27  1  0
 27 28  1  0
 27 29  2  0
 29 21  1  0
 24 30  1  0
 29 31  1  0
 10 21  1  0
M  ISO  8  13  13  14  13  15  13  16  13  17  14  18  14  19  14  23  16
M  ISO  2  26  16  28  16
M  END
>  <DihAtoms>  (1) 
10,9,20,21

>  <DihDeg>  (1) 
-179.9331016196677

$$$$
