
 OpenBabel03272509313D

 38 40  0  0  1  0  0  0  0  0999 V2000
   36.4440   30.7600   49.0190 C   0  0  2  0  0  0  0  0  0  0  0  0
   37.4530   31.5870   49.7580 C   0  0  0  0  0  0  0  0  0  0  0  0
   38.3020   30.7710   50.7070 C   0  0  0  0  0  0  0  0  0  0  0  0
   37.4240   30.0150   51.7010 C   0  0  0  0  0  0  0  0  0  0  0  0
   36.1390   29.4980   51.1110 C   0  0  0  0  0  0  0  0  0  0  0  0
   36.3200   29.3840   49.5860 C   0  0  1  0  0  0  0  0  0  0  0  0
   35.4000   31.1830   49.0390 H   0  0  0  0  0  0  0  0  0  0  0  0
   38.0420   32.2800   49.1890 H   0  0  0  0  0  0  0  0  0  0  0  0
   36.8240   32.2380   50.4540 H   0  0  0  0  0  0  0  0  0  0  0  0
   38.9190   31.4700   51.2710 H   0  0  0  0  0  0  0  0  0  0  0  0
   38.9330   30.0310   50.2060 H   0  0  0  0  0  0  0  0  0  0  0  0
   37.9970   29.1430   52.0810 H   0  0  0  0  0  0  0  0  0  0  0  0
   37.2060   30.6550   52.5870 H   0  0  0  0  0  0  0  0  0  0  0  0
   35.8350   28.5250   51.5250 H   0  0  0  0  0  0  0  0  0  0  0  0
   35.3400   30.2240   51.2970 H   0  0  0  0  0  0  0  0  0  0  0  0
   37.2500   28.8680   49.5450 H   0  0  0  0  0  0  0  0  0  0  0  0
   36.7900   30.6540   47.5760 C   0  0  0  0  0  0  0  0  0  0  0  0
   38.1520   30.8210   47.2660 C   0  0  0  0  0  0  0  0  0  0  0  0
   38.5070   30.7220   45.9160 C   0  0  0  0  0  0  0  0  0  0  0  0
   37.5180   30.4700   44.9890 N   0  0  0  0  0  0  0  0  0  0  0  0
   36.2060   30.3140   45.3460 C   0  0  0  0  0  0  0  0  0  0  0  0
   35.8620   30.4100   46.6460 N   0  0  0  0  0  0  0  0  0  0  0  0
   39.0110   31.0090   47.8780 H   0  0  0  0  0  0  0  0  0  0  0  0
   39.5010   30.8270   45.5270 H   0  0  0  0  0  0  0  0  0  0  0  0
   35.4830   30.1160   44.5570 H   0  0  0  0  0  0  0  0  0  0  0  0
   33.9870   28.4710   49.1570 C   0  0  0  0  0  0  0  0  0  0  0  0
   33.2210   29.1800   49.9110 O   0  0  0  0  0  0  0  0  0  0  0  0
   35.3800   28.5520   48.9310 N   0  0  0  0  0  0  0  0  0  0  0  0
   35.7130   27.8960   48.1650 H   0  0  0  0  0  0  0  0  0  0  0  0
   33.1480   27.4600   48.4890 C   0  0  0  0  0  0  0  0  0  0  0  0
   33.6630   26.4590   47.7040 C   0  0  0  0  0  0  0  0  0  0  0  0
   34.7240   26.3560   47.5330 H   0  0  0  0  0  0  0  0  0  0  0  0
   32.9060   25.4930   47.0600 C   0  0  0  0  0  3  0  0  0  0  0  0
   31.5530   25.5070   47.1920 C   0  0  0  0  0  0  0  0  0  0  0  0
   30.9570   24.7570   46.6920 H   0  0  0  0  0  0  0  0  0  0  0  0
   30.9820   26.4870   47.9660 C   0  0  0  0  0  0  0  0  0  0  0  0
   29.9040   26.4630   48.0460 H   0  0  0  0  0  0  0  0  0  0  0  0
   31.7770   27.4210   48.5840 C   0  0  0  0  0  3  0  0  0  0  0  0
  1  7  1  1  0  0  0
  1  6  1  0  0  0  0
  1  2  1  0  0  0  0
  2  9  1  0  0  0  0
  2  3  1  0  0  0  0
  3 10  1  0  0  0  0
  3  4  1  0  0  0  0
  4 12  1  0  0  0  0
  4 13  1  0  0  0  0
  5 15  1  0  0  0  0
  5 14  1  0  0  0  0
  5  4  1  0  0  0  0
  6 16  1  6  0  0  0
  6  5  1  0  0  0  0
  8  2  1  0  0  0  0
 11  3  1  0  0  0  0
 17  1  1  0  0  0  0
 18 17  1  0  0  0  0
 18 23  1  0  0  0  0
 19 18  2  0  0  0  0
 20 21  2  0  0  0  0
 20 19  1  0  0  0  0
 21 22  1  0  0  0  0
 22 17  2  0  0  0  0
 24 19  1  0  0  0  0
 25 21  1  0  0  0  0
 26 27  2  0  0  0  0
 28 26  1  0  0  0  0
 28  6  1  0  0  0  0
 29 28  1  0  0  0  0
 30 38  1  0  0  0  0
 30 26  1  0  0  0  0
 31 30  2  0  0  0  0
 32 31  1  0  0  0  0
 33 34  2  0  0  0  0
 33 31  1  0  0  0  0
 34 36  1  0  0  0  0
 35 34  1  0  0  0  0
 36 37  1  0  0  0  0
 36 38  2  0  0  0  0
M  END
>  <minimizedAffinity>
-6.26881027

>  <minimizedRMSD>
0.68660444

$$$$
