
 OpenBabel03272509313D

 38 40  0  0  1  0  0  0  0  0999 V2000
   36.4530   30.7590   49.0260 C   0  0  2  0  0  0  0  0  0  0  0  0
   37.4580   31.5860   49.7720 C   0  0  0  0  0  0  0  0  0  0  0  0
   38.3030   30.7690   50.7240 C   0  0  0  0  0  0  0  0  0  0  0  0
   37.4200   30.0100   51.7120 C   0  0  0  0  0  0  0  0  0  0  0  0
   36.1390   29.4930   51.1140 C   0  0  0  0  0  0  0  0  0  0  0  0
   36.3280   29.3820   49.5910 C   0  0  1  0  0  0  0  0  0  0  0  0
   35.4100   31.1810   49.0420 H   0  0  0  0  0  0  0  0  0  0  0  0
   38.0490   32.2800   49.2070 H   0  0  0  0  0  0  0  0  0  0  0  0
   36.8240   32.2350   50.4660 H   0  0  0  0  0  0  0  0  0  0  0  0
   38.9160   31.4680   51.2920 H   0  0  0  0  0  0  0  0  0  0  0  0
   38.9370   30.0300   50.2260 H   0  0  0  0  0  0  0  0  0  0  0  0
   37.9920   29.1390   52.0940 H   0  0  0  0  0  0  0  0  0  0  0  0
   37.1970   30.6490   52.5980 H   0  0  0  0  0  0  0  0  0  0  0  0
   35.8340   28.5190   51.5250 H   0  0  0  0  0  0  0  0  0  0  0  0
   35.3390   30.2190   51.2980 H   0  0  0  0  0  0  0  0  0  0  0  0
   37.2590   28.8670   49.5540 H   0  0  0  0  0  0  0  0  0  0  0  0
   36.8080   30.6550   47.5850 C   0  0  0  0  0  0  0  0  0  0  0  0
   38.1720   30.8200   47.2830 C   0  0  0  0  0  0  0  0  0  0  0  0
   38.5340   30.7230   45.9350 C   0  0  0  0  0  0  0  0  0  0  0  0
   37.5490   30.4760   45.0020 N   0  0  0  0  0  0  0  0  0  0  0  0
   36.2360   30.3220   45.3510 C   0  0  0  0  0  0  0  0  0  0  0  0
   35.8850   30.4160   46.6490 N   0  0  0  0  0  0  0  0  0  0  0  0
   39.0280   31.0040   47.9010 H   0  0  0  0  0  0  0  0  0  0  0  0
   39.5310   30.8270   45.5520 H   0  0  0  0  0  0  0  0  0  0  0  0
   35.5160   30.1280   44.5580 H   0  0  0  0  0  0  0  0  0  0  0  0
   33.9990   28.4640   49.1500 C   0  0  0  0  0  0  0  0  0  0  0  0
   33.2290   29.1680   49.9040 O   0  0  0  0  0  0  0  0  0  0  0  0
   35.3930   28.5490   48.9290 N   0  0  0  0  0  0  0  0  0  0  0  0
   35.7300   27.8980   48.1620 H   0  0  0  0  0  0  0  0  0  0  0  0
   33.1650   27.4540   48.4760 C   0  0  0  0  0  0  0  0  0  0  0  0
   31.7960   27.4250   48.5740 C   0  0  0  0  0  0  0  0  0  0  0  0
   31.2510   28.1520   49.1560 H   0  0  0  0  0  0  0  0  0  0  0  0
   30.9810   26.4900   47.9580 C   0  0  0  0  0  3  0  0  0  0  0  0
   31.5400   25.5160   47.1920 C   0  0  0  0  0  0  0  0  0  0  0  0
   30.9100   24.7840   46.7090 H   0  0  0  0  0  0  0  0  0  0  0  0
   32.9070   25.4960   47.0580 C   0  0  0  0  0  0  0  0  0  0  0  0
   33.3130   24.7050   46.4410 H   0  0  0  0  0  0  0  0  0  0  0  0
   33.6720   26.4460   47.6900 C   0  0  0  0  0  3  0  0  0  0  0  0
  1  7  1  1  0  0  0
  1  6  1  0  0  0  0
  1  2  1  0  0  0  0
  2  9  1  0  0  0  0
  2  3  1  0  0  0  0
  3 10  1  0  0  0  0
  3  4  1  0  0  0  0
  4 12  1  0  0  0  0
  4 13  1  0  0  0  0
  5 15  1  0  0  0  0
  5 14  1  0  0  0  0
  5  4  1  0  0  0  0
  6 16  1  6  0  0  0
  6  5  1  0  0  0  0
  8  2  1  0  0  0  0
 11  3  1  0  0  0  0
 17  1  1  0  0  0  0
 18 17  1  0  0  0  0
 18 23  1  0  0  0  0
 19 18  2  0  0  0  0
 20 21  2  0  0  0  0
 20 19  1  0  0  0  0
 21 22  1  0  0  0  0
 22 17  2  0  0  0  0
 24 19  1  0  0  0  0
 25 21  1  0  0  0  0
 26 27  2  0  0  0  0
 28 26  1  0  0  0  0
 28  6  1  0  0  0  0
 29 28  1  0  0  0  0
 30 31  1  0  0  0  0
 30 26  1  0  0  0  0
 31 32  1  0  0  0  0
 33 31  2  0  0  0  0
 34 33  1  0  0  0  0
 35 34  1  0  0  0  0
 36 34  2  0  0  0  0
 36 38  1  0  0  0  0
 37 36  1  0  0  0  0
 38 30  2  0  0  0  0
M  END
>  <minimizedAffinity>
-6.28811502

>  <minimizedRMSD>
0.612093866

$$$$
