
 OpenBabel03272508513D

 29 31  0  0  1  0  0  0  0  0999 V2000
   37.6550   31.4430   43.9230 C   0  0  2  0  0  0  0  0  0  0  0  0
   37.4680   30.0030   43.8050 C   0  0  0  0  0  0  0  0  0  0  0  0
   36.7380   30.8330   44.8780 C   0  0  1  0  0  0  0  0  0  0  0  0
   38.5890   31.8680   44.4030 H   0  0  0  0  0  0  0  0  0  0  0  0
   38.2630   29.3560   44.2150 H   0  0  0  0  0  0  0  0  0  0  0  0
   36.8560   29.5590   42.9970 H   0  0  0  0  0  0  0  0  0  0  0  0
   35.6420   30.7100   44.8160 H   0  0  0  0  0  0  0  0  0  0  0  0
   35.3440   33.6290   42.0250 C   0  0  0  0  0  0  0  0  0  0  0  0
   36.2160   34.2140   41.0700 C   0  0  0  0  0  0  0  0  0  0  0  0
   37.6020   33.8460   41.0890 C   0  0  0  0  0  0  0  0  0  0  0  0
   38.0140   32.9470   42.0290 N   0  0  0  0  0  0  0  0  0  0  0  0
   37.1310   32.4190   42.9190 C   0  0  0  0  0  0  0  0  0  0  0  0
   35.8210   32.7290   42.9460 N   0  0  0  0  0  0  0  0  0  0  0  0
   34.3310   33.9700   41.9250 H   0  0  0  0  0  0  0  0  0  0  0  0
   35.8720   34.9150   40.3440 H   0  0  0  0  0  0  0  0  0  0  0  0
   38.2840   34.2770   40.3740 H   0  0  0  0  0  0  0  0  0  0  0  0
   36.2730   30.3580   47.2550 C   0  0  0  0  0  0  0  0  0  0  0  0
   35.0730   30.1400   46.9560 O   0  0  0  0  0  0  0  0  0  0  0  0
   37.2530   30.6170   46.2340 N   0  0  0  0  0  0  0  0  0  0  0  0
   38.2680   30.6620   46.3860 H   0  0  0  0  0  0  0  0  0  0  0  0
   36.7220   30.3560   48.6530 C   0  0  0  0  0  0  0  0  0  0  0  0
   37.8320   30.9920   49.1700 C   0  0  0  0  0  0  0  0  0  0  0  0
   38.4190   31.5430   48.4660 H   0  0  0  0  0  0  0  0  0  0  0  0
   38.1280   30.8990   50.5110 C   0  0  0  0  0  3  0  0  0  0  0  0
   37.3450   30.1770   51.3900 C   0  0  0  0  0  0  0  0  0  0  0  0
   37.6070   30.1240   52.4370 H   0  0  0  0  0  0  0  0  0  0  0  0
   36.2240   29.5200   50.9290 C   0  0  0  0  0  0  0  0  0  0  0  0
   35.5760   28.9450   51.5600 H   0  0  0  0  0  0  0  0  0  0  0  0
   35.9580   29.6370   49.5780 C   0  0  0  0  0  3  0  0  0  0  0  0
  1  4  1  1  0  0  0
  1  3  1  0  0  0  0
  2  1  1  0  0  0  0
  2  5  1  0  0  0  0
  2  3  1  0  0  0  0
  3  7  1  6  0  0  0
  3 19  1  0  0  0  0
  6  2  1  0  0  0  0
  8 13  1  0  0  0  0
  9 10  1  0  0  0  0
  9  8  2  0  0  0  0
 10 11  2  0  0  0  0
 11 12  1  0  0  0  0
 12 13  2  0  0  0  0
 12  1  1  0  0  0  0
 14  8  1  0  0  0  0
 15  9  1  0  0  0  0
 16 10  1  0  0  0  0
 17 21  1  0  0  0  0
 18 17  2  0  0  0  0
 19 20  1  0  0  0  0
 19 17  1  0  0  0  0
 21 22  2  0  0  0  0
 21 29  1  0  0  0  0
 22 24  1  0  0  0  0
 23 22  1  0  0  0  0
 24 25  2  0  0  0  0
 25 26  1  0  0  0  0
 27 25  1  0  0  0  0
 27 28  1  0  0  0  0
 29 27  2  0  0  0  0
M  END
>  <minimizedAffinity>
-5.27634525

>  <minimizedRMSD>
4.02921391

$$$$
