REMARK  Name = 
REMARK  3 active torsions:
REMARK  status: ('A' for Active; 'I' for Inactive)
REMARK    1  A    between atoms: C_1  and  C_8
REMARK    2  A    between atoms: C_3  and  N_12
REMARK    3  A    between atoms: C_10  and  C_21
REMARK                            x       y       z     vdW  Elec       q    Type
REMARK                         _______ _______ _______ _____ _____    ______ ____
ROOT
ATOM      1  C   UNL     1      38.374  30.596  47.100  0.00  0.00    +0.000 C 
ATOM      2  C   UNL     1      36.981  30.542  47.522  0.00  0.00    +0.000 C 
ATOM      3  C   UNL     1      38.081  31.137  48.422  0.00  0.00    +0.000 C 
ATOM      4  H   UNL     1      39.024  29.668  47.126  0.00  0.00    +0.000 HD
ATOM      5  H   UNL     1      36.600  29.569  47.879  0.00  0.00    +0.000 HD
ATOM      6  H   UNL     1      36.221  31.235  47.115  0.00  0.00    +0.000 HD
ATOM      7  H   UNL     1      37.851  32.176  48.718  0.00  0.00    +0.000 HD
ENDROOT
BRANCH   1  12
ATOM      8  C   UNL     1      40.621  32.674  45.013  0.00  0.00    +0.000 A 
ATOM      9  C   UNL     1      39.726  33.176  44.033  0.00  0.00    +0.000 A 
ATOM     10  C   UNL     1      38.346  32.791  44.102  0.00  0.00    +0.000 A 
ATOM     11  N   UNL     1      37.962  31.958  45.111  0.00  0.00    +0.000 NA
ATOM     12  C   UNL     1      38.866  31.509  46.023  0.00  0.00    +0.000 A 
ATOM     13  N   UNL     1      40.172  31.838  46.006  0.00  0.00    +0.000 NA
ATOM     14  H   UNL     1      41.627  33.022  44.872  0.00  0.00    +0.000 HD
ATOM     15  H   UNL     1      40.048  33.826  43.252  0.00  0.00    +0.000 HD
ATOM     16  H   UNL     1      37.647  33.159  43.368  0.00  0.00    +0.000 HD
ENDBRANCH   1  12
BRANCH   3  19
ATOM     17  C   UNL     1      37.706  30.544  50.788  0.00  0.00    +0.000 C 
ATOM     18  O   UNL     1      36.718  31.319  50.804  0.00  0.00    +0.000 OA
ATOM     19  N   UNL     1      38.422  30.287  49.567  0.00  0.00    +0.000 N 
ATOM     20  H   UNL     1      39.142  29.565  49.445  0.00  0.00    +0.000 HD
BRANCH  17  21
ATOM     21  C   UNL     1      38.167  29.872  52.009  0.00  0.00    +0.000 A 
ATOM     22  C   UNL     1      37.761  28.642  52.486  0.00  0.00    +0.000 A 
ATOM     23  H   UNL     1      37.030  28.135  51.891  0.00  0.00    +0.000 HD
ATOM     24  C   UNL     1      38.287  28.139  53.654  0.00  0.00    +0.000 A 
ATOM     25  C   UNL     1      39.228  28.824  54.394  0.00  0.00    +0.000 A 
ATOM     26  H   UNL     1      39.620  28.399  55.307  0.00  0.00    +0.000 HD
ATOM     27  C   UNL     1      39.672  30.058  53.966  0.00  0.00    +0.000 A 
ATOM     28  H   UNL     1      40.401  30.640  54.495  0.00  0.00    +0.000 HD
ATOM     29  C   UNL     1      39.123  30.532  52.791  0.00  0.00    +0.000 A 
ENDBRANCH  17  21
ENDBRANCH   3  19
TORSDOF 3
