
 OpenBabel03272510133D

 41 44  0  0  0  0  0  0  0  0999 V2000
   37.8720   31.4920   49.0080 C   0  0  0  0  0  0  0  0  0  0  0  0
   38.2260   32.7200   49.5100 C   0  0  0  0  0  0  0  0  0  0  0  0
   38.9810   33.3650   48.5320 C   0  0  0  0  0  0  0  0  0  0  0  0
   39.0680   32.5400   47.4930 N   0  0  0  0  0  0  0  0  0  0  0  0
   38.4200   31.4680   47.7910 N   0  0  0  0  0  0  0  0  0  0  0  0
   38.0590   33.2610   50.4320 H   0  0  0  0  0  0  0  0  0  0  0  0
   39.4540   34.3530   48.5250 H   0  0  0  0  0  0  0  0  0  0  0  0
   39.7600   32.7540   46.2500 C   0  0  0  0  0  0  0  0  0  0  0  0
   40.3940   33.6520   46.3040 H   0  0  0  0  0  0  0  0  0  0  0  0
   38.9860   32.9950   45.4680 H   0  0  0  0  0  0  0  0  0  0  0  0
   40.5100   31.5190   45.8730 C   0  0  0  0  0  0  0  0  0  0  0  0
   41.5660   31.8740   45.6440 H   0  0  0  0  0  0  0  0  0  0  0  0
   40.7000   30.8650   46.7870 H   0  0  0  0  0  0  0  0  0  0  0  0
   39.9740   30.7170   44.7700 C   0  0  0  0  0  0  0  0  0  0  0  0
   38.9500   29.8030   44.6660 C   0  0  0  0  0  0  0  0  0  0  0  0
   38.4640   29.5950   45.6080 H   0  0  0  0  0  0  0  0  0  0  0  0
   38.6210   29.2060   43.4700 C   0  0  0  0  0  3  0  0  0  0  0  0
   39.2950   29.4830   42.3020 C   0  0  0  0  0  0  0  0  0  0  0  0
   38.9230   28.9380   41.4450 H   0  0  0  0  0  0  0  0  0  0  0  0
   40.3270   30.3950   42.3710 C   0  0  0  0  0  0  0  0  0  0  0  0
   40.8310   30.5860   41.4360 H   0  0  0  0  0  0  0  0  0  0  0  0
   40.6530   30.9920   43.5780 C   0  0  0  0  0  3  0  0  0  0  0  0
   37.1130   30.7090   49.8540 O   0  0  0  0  0  0  0  0  0  0  0  0
   33.7490   28.6970   48.3300 C   0  0  0  0  0  0  0  0  0  0  0  0
   34.5080   28.1530   49.3260 C   0  0  0  0  0  0  0  0  0  0  0  0
   35.6200   28.7520   49.8740 C   0  0  0  0  0  0  0  0  0  0  0  0
   36.0320   29.9660   49.4280 C   0  0  0  0  0  0  0  0  0  0  0  0
   35.2650   30.5340   48.4100 C   0  0  0  0  0  0  0  0  0  0  0  0
   34.1760   29.9220   47.8910 N   0  0  0  0  0  0  0  0  0  0  0  0
   34.2370   27.1840   49.7290 H   0  0  0  0  0  0  0  0  0  0  0  0
   36.2130   28.3060   50.6630 H   0  0  0  0  0  0  0  0  0  0  0  0
   35.4540   31.4970   47.9430 H   0  0  0  0  0  0  0  0  0  0  0  0
   31.9330   26.9920   48.3240 C   0  0  0  0  0  0  0  0  0  0  0  0
   32.5910   28.0900   47.7480 C   0  0  0  0  0  0  0  0  0  0  0  0
   32.0760   28.5750   46.5740 C   0  0  0  0  0  0  0  0  0  0  0  0
   30.9700   27.9920   46.0180 N   0  0  0  0  0  0  0  0  0  0  0  0
   30.3710   26.9230   46.6250 C   0  0  0  0  0  0  0  0  0  0  0  0
   30.8450   26.4120   47.7840 N   0  0  0  0  0  0  0  0  0  0  0  0
   32.3010   26.5740   49.2480 H   0  0  0  0  0  0  0  0  0  0  0  0
   32.5220   29.4260   46.0520 H   0  0  0  0  0  0  0  0  0  0  0  0
   29.5010   26.4620   46.1900 H   0  0  0  0  0  0  0  0  0  0  0  0
  1  2  1  0  0  0  0
  1 23  1  0  0  0  0
  2  6  1  0  0  0  0
  3  2  2  0  0  0  0
  4  5  1  0  0  0  0
  4  3  1  0  0  0  0
  5  1  2  0  0  0  0
  7  3  1  0  0  0  0
  8  9  1  0  0  0  0
  8  4  1  0  0  0  0
 10  8  1  0  0  0  0
 11  8  1  0  0  0  0
 11 13  1  0  0  0  0
 12 11  1  0  0  0  0
 14 11  1  0  0  0  0
 15 14  1  0  0  0  0
 15 16  1  0  0  0  0
 17 15  2  0  0  0  0
 18 20  2  0  0  0  0
 18 17  1  0  0  0  0
 19 18  1  0  0  0  0
 20 22  1  0  0  0  0
 21 20  1  0  0  0  0
 22 14  2  0  0  0  0
 24 25  1  0  0  0  0
 25 30  1  0  0  0  0
 25 26  2  0  0  0  0
 26 31  1  0  0  0  0
 27 23  1  0  0  0  0
 27 26  1  0  0  0  0
 28 27  2  0  0  0  0
 29 24  2  0  0  0  0
 29 28  1  0  0  0  0
 32 28  1  0  0  0  0
 33 39  1  0  0  0  0
 34 33  2  0  0  0  0
 34 24  1  0  0  0  0
 35 34  1  0  0  0  0
 36 35  2  0  0  0  0
 36 37  1  0  0  0  0
 37 38  2  0  0  0  0
 38 33  1  0  0  0  0
 40 35  1  0  0  0  0
 41 37  1  0  0  0  0
M  END
>  <minimizedAffinity>
-6.19499636

>  <minimizedRMSD>
0.789621711

$$$$
