
 OpenBabel03272510133D

 41 44  0  0  0  0  0  0  0  0999 V2000
   38.4030   31.4410   48.8260 C   0  0  0  0  0  0  0  0  0  0  0  0
   38.4540   32.6560   49.4640 C   0  0  0  0  0  0  0  0  0  0  0  0
   39.0450   33.5610   48.5840 C   0  0  0  0  0  0  0  0  0  0  0  0
   39.3320   32.8970   47.4690 N   0  0  0  0  0  0  0  0  0  0  0  0
   38.9510   31.6770   47.6320 N   0  0  0  0  0  0  0  0  0  0  0  0
   38.1570   33.0400   50.4310 H   0  0  0  0  0  0  0  0  0  0  0  0
   39.2730   34.6260   48.6950 H   0  0  0  0  0  0  0  0  0  0  0  0
   39.9650   33.3990   46.2780 C   0  0  0  0  0  0  0  0  0  0  0  0
   40.5740   34.2880   46.5040 H   0  0  0  0  0  0  0  0  0  0  0  0
   39.1530   33.7730   45.5940 H   0  0  0  0  0  0  0  0  0  0  0  0
   40.7360   32.3040   45.6180 C   0  0  0  0  0  0  0  0  0  0  0  0
   41.8250   32.6220   45.6930 H   0  0  0  0  0  0  0  0  0  0  0  0
   40.7430   31.3660   46.2660 H   0  0  0  0  0  0  0  0  0  0  0  0
   40.3790   31.9700   44.2360 C   0  0  0  0  0  0  0  0  0  0  0  0
   40.5750   30.8640   43.4400 C   0  0  0  0  0  0  0  0  0  0  0  0
   41.1570   30.0890   43.9190 H   0  0  0  0  0  0  0  0  0  0  0  0
   40.0900   30.7930   42.1560 C   0  0  0  0  0  3  0  0  0  0  0  0
   39.3800   31.8220   41.5800 C   0  0  0  0  0  0  0  0  0  0  0  0
   39.0640   31.6220   40.5660 H   0  0  0  0  0  0  0  0  0  0  0  0
   39.1650   32.9470   42.3500 C   0  0  0  0  0  0  0  0  0  0  0  0
   38.6060   33.7320   41.8670 H   0  0  0  0  0  0  0  0  0  0  0  0
   39.6560   33.0120   43.6460 C   0  0  0  0  0  3  0  0  0  0  0  0
   37.8410   30.4160   49.5610 O   0  0  0  0  0  0  0  0  0  0  0  0
   34.1280   28.8700   48.3320 C   0  0  0  0  0  0  0  0  0  0  0  0
   34.7560   28.3980   49.4490 C   0  0  0  0  0  0  0  0  0  0  0  0
   35.9700   28.8550   49.9110 C   0  0  0  0  0  0  0  0  0  0  0  0
   36.6280   29.8400   49.2470 C   0  0  0  0  0  0  0  0  0  0  0  0
   35.9970   30.3310   48.1040 C   0  0  0  0  0  0  0  0  0  0  0  0
   34.8030   29.8630   47.6730 N   0  0  0  0  0  0  0  0  0  0  0  0
   34.2880   27.6110   50.0280 H   0  0  0  0  0  0  0  0  0  0  0  0
   36.4560   28.4710   50.7990 H   0  0  0  0  0  0  0  0  0  0  0  0
   36.3840   31.1160   47.4600 H   0  0  0  0  0  0  0  0  0  0  0  0
   32.0060   27.5890   48.5830 C   0  0  0  0  0  0  0  0  0  0  0  0
   32.8690   28.4060   47.8360 C   0  0  0  0  0  0  0  0  0  0  0  0
   32.4550   28.7560   46.5760 C   0  0  0  0  0  0  0  0  0  0  0  0
   31.2510   28.3110   46.1030 N   0  0  0  0  0  0  0  0  0  0  0  0
   30.4520   27.5150   46.8770 C   0  0  0  0  0  0  0  0  0  0  0  0
   30.8210   27.1460   48.1250 N   0  0  0  0  0  0  0  0  0  0  0  0
   32.2890   27.2860   49.5800 H   0  0  0  0  0  0  0  0  0  0  0  0
   33.0590   29.3890   45.9210 H   0  0  0  0  0  0  0  0  0  0  0  0
   29.5040   27.1630   46.5080 H   0  0  0  0  0  0  0  0  0  0  0  0
  1  2  1  0  0  0  0
  1 23  1  0  0  0  0
  2  6  1  0  0  0  0
  3  7  1  0  0  0  0
  3  2  2  0  0  0  0
  4  5  1  0  0  0  0
  4  3  1  0  0  0  0
  5  1  2  0  0  0  0
  8  9  1  0  0  0  0
  8  4  1  0  0  0  0
 10  8  1  0  0  0  0
 11 12  1  0  0  0  0
 11 13  1  0  0  0  0
 11  8  1  0  0  0  0
 14 11  1  0  0  0  0
 15 16  1  0  0  0  0
 15 14  2  0  0  0  0
 17 15  1  0  0  0  0
 18 17  2  0  0  0  0
 18 20  1  0  0  0  0
 19 18  1  0  0  0  0
 20 22  2  0  0  0  0
 21 20  1  0  0  0  0
 22 14  1  0  0  0  0
 24 25  1  0  0  0  0
 25 26  2  0  0  0  0
 25 30  1  0  0  0  0
 26 31  1  0  0  0  0
 27 23  1  0  0  0  0
 27 26  1  0  0  0  0
 28 27  2  0  0  0  0
 29 28  1  0  0  0  0
 29 24  2  0  0  0  0
 32 28  1  0  0  0  0
 33 39  1  0  0  0  0
 34 24  1  0  0  0  0
 34 33  2  0  0  0  0
 35 34  1  0  0  0  0
 36 35  2  0  0  0  0
 36 37  1  0  0  0  0
 37 38  2  0  0  0  0
 38 33  1  0  0  0  0
 40 35  1  0  0  0  0
 41 37  1  0  0  0  0
M  END
>  <minimizedAffinity>
-6.44505835

>  <minimizedRMSD>
1.53032911

$$$$
