
 OpenBabel03272510133D

 41 44  0  0  0  0  0  0  0  0999 V2000
   38.3740   31.6530   48.9310 C   0  0  0  0  0  0  0  0  0  0  0  0
   38.5560   32.8920   49.4960 C   0  0  0  0  0  0  0  0  0  0  0  0
   39.1970   33.6880   48.5490 C   0  0  0  0  0  0  0  0  0  0  0  0
   39.3850   32.9400   47.4660 N   0  0  0  0  0  0  0  0  0  0  0  0
   38.9010   31.7710   47.7110 N   0  0  0  0  0  0  0  0  0  0  0  0
   38.3280   33.3540   50.4470 H   0  0  0  0  0  0  0  0  0  0  0  0
   39.5240   34.7320   48.5920 H   0  0  0  0  0  0  0  0  0  0  0  0
   40.0200   33.3150   46.2320 C   0  0  0  0  0  0  0  0  0  0  0  0
   40.7670   34.1060   46.4000 H   0  0  0  0  0  0  0  0  0  0  0  0
   39.2380   33.7920   45.5790 H   0  0  0  0  0  0  0  0  0  0  0  0
   40.5820   32.1020   45.5660 C   0  0  0  0  0  0  0  0  0  0  0  0
   41.6880   32.3270   45.4270 H   0  0  0  0  0  0  0  0  0  0  0  0
   40.6340   31.2270   46.2950 H   0  0  0  0  0  0  0  0  0  0  0  0
   39.9670   31.6830   44.3030 C   0  0  0  0  0  0  0  0  0  0  0  0
   39.7260   32.3130   43.1040 C   0  0  0  0  0  0  0  0  0  0  0  0
   40.0080   33.3570   43.1040 H   0  0  0  0  0  0  0  0  0  0  0  0
   39.1510   31.6620   42.0380 C   0  0  0  0  0  3  0  0  0  0  0  0
   38.7790   30.3380   42.1000 C   0  0  0  0  0  0  0  0  0  0  0  0
   38.3420   29.9650   41.1840 H   0  0  0  0  0  0  0  0  0  0  0  0
   39.0070   29.6750   43.2870 C   0  0  0  0  0  0  0  0  0  0  0  0
   38.7020   28.6400   43.3000 H   0  0  0  0  0  0  0  0  0  0  0  0
   39.5860   30.3380   44.3590 C   0  0  0  0  0  3  0  0  0  0  0  0
   37.7470   30.7260   49.7410 O   0  0  0  0  0  0  0  0  0  0  0  0
   34.2030   28.9240   48.3710 C   0  0  0  0  0  0  0  0  0  0  0  0
   34.9130   28.3900   49.4080 C   0  0  0  0  0  0  0  0  0  0  0  0
   36.0790   28.9240   49.9090 C   0  0  0  0  0  0  0  0  0  0  0  0
   36.5990   30.0560   49.3710 C   0  0  0  0  0  0  0  0  0  0  0  0
   35.8830   30.6120   48.3110 C   0  0  0  0  0  0  0  0  0  0  0  0
   34.7390   30.0660   47.8390 N   0  0  0  0  0  0  0  0  0  0  0  0
   34.5550   27.4860   49.8850 H   0  0  0  0  0  0  0  0  0  0  0  0
   36.6320   28.4880   50.7320 H   0  0  0  0  0  0  0  0  0  0  0  0
   36.1590   31.5140   47.7700 H   0  0  0  0  0  0  0  0  0  0  0  0
   32.0690   27.6610   48.6090 C   0  0  0  0  0  0  0  0  0  0  0  0
   32.9910   28.3830   47.8360 C   0  0  0  0  0  0  0  0  0  0  0  0
   32.6860   28.5590   46.5110 C   0  0  0  0  0  0  0  0  0  0  0  0
   31.5270   28.0390   46.0000 N   0  0  0  0  0  0  0  0  0  0  0  0
   30.6660   27.3430   46.8030 C   0  0  0  0  0  0  0  0  0  0  0  0
   30.9270   27.1470   48.1150 N   0  0  0  0  0  0  0  0  0  0  0  0
   32.2650   27.4960   49.6580 H   0  0  0  0  0  0  0  0  0  0  0  0
   33.3430   29.1070   45.8310 H   0  0  0  0  0  0  0  0  0  0  0  0
   29.7540   26.9340   46.4050 H   0  0  0  0  0  0  0  0  0  0  0  0
  1  2  1  0  0  0  0
  1 23  1  0  0  0  0
  2  6  1  0  0  0  0
  3  7  1  0  0  0  0
  3  2  2  0  0  0  0
  4  5  1  0  0  0  0
  4  3  1  0  0  0  0
  5  1  2  0  0  0  0
  8  9  1  0  0  0  0
  8  4  1  0  0  0  0
 10  8  1  0  0  0  0
 11  8  1  0  0  0  0
 11 13  1  0  0  0  0
 12 11  1  0  0  0  0
 14 22  1  0  0  0  0
 14 11  1  0  0  0  0
 15 14  2  0  0  0  0
 16 15  1  0  0  0  0
 17 18  2  0  0  0  0
 17 15  1  0  0  0  0
 18 20  1  0  0  0  0
 19 18  1  0  0  0  0
 20 21  1  0  0  0  0
 20 22  2  0  0  0  0
 24 25  1  0  0  0  0
 25 30  1  0  0  0  0
 25 26  2  0  0  0  0
 26 31  1  0  0  0  0
 27 23  1  0  0  0  0
 27 26  1  0  0  0  0
 28 27  2  0  0  0  0
 29 28  1  0  0  0  0
 29 24  2  0  0  0  0
 32 28  1  0  0  0  0
 33 39  1  0  0  0  0
 34 24  1  0  0  0  0
 34 33  2  0  0  0  0
 35 34  1  0  0  0  0
 36 35  2  0  0  0  0
 36 37  1  0  0  0  0
 37 38  2  0  0  0  0
 38 33  1  0  0  0  0
 40 35  1  0  0  0  0
 41 37  1  0  0  0  0
M  END
>  <minimizedAffinity>
-6.18996048

>  <minimizedRMSD>
1.24866581

$$$$
