
 OpenBabel03272504433D

 45 47  0  0  0  0  0  0  0  0999 V2000
   37.9210   27.5520   32.7420 C   0  0  0  0  0  0  0  0  0  0  0  0
   38.4420   27.6220   31.7400 H   0  0  0  0  0  0  0  0  0  0  0  0
   38.6250   28.0940   33.4200 H   0  0  0  0  0  0  0  0  0  0  0  0
   38.4720   26.9680   35.6100 Cl  0  0  0  0  0  0  0  0  0  0  0  0
   38.1480   25.7290   34.3940 C   0  0  0  0  0  0  0  0  0  0  0  0
   38.1480   24.4320   34.7640 C   0  0  0  0  0  0  0  0  0  0  0  0
   37.8940   23.4510   33.8270 C   0  0  0  0  0  0  0  0  0  0  0  0
   37.6440   23.8290   32.5170 C   0  0  0  0  0  0  0  0  0  0  0  0
   37.6620   25.2000   32.2050 C   0  0  0  0  0  0  0  0  0  0  0  0
   37.9080   26.1660   33.1090 C   0  0  0  0  0  0  0  0  0  0  0  0
   37.8980   22.4020   34.1490 H   0  0  0  0  0  0  0  0  0  0  0  0
   37.4590   22.9940   31.8630 H   0  0  0  0  0  0  0  0  0  0  0  0
   37.4610   25.2740   31.2000 H   0  0  0  0  0  0  0  0  0  0  0  0
   38.0090   24.1590   38.4380 C   0  0  0  0  0  0  0  0  0  0  0  0
   39.0410   23.2060   38.6780 C   0  0  0  0  0  0  0  0  0  0  0  0
   39.7300   22.7060   37.5740 C   0  0  0  0  0  0  0  0  0  0  0  0
   39.4040   23.1330   36.3260 N   0  0  0  0  0  0  0  0  0  0  0  0
   38.4140   24.0430   36.1380 C   0  0  0  0  0  0  0  0  0  0  0  0
   37.7450   24.5320   37.1790 N   0  0  0  0  0  0  0  0  0  0  0  0
   37.4760   24.5450   39.2920 H   0  0  0  0  0  0  0  0  0  0  0  0
   39.2870   22.8780   39.6700 H   0  0  0  0  0  0  0  0  0  0  0  0
   40.7480   21.7670   37.8420 N   0  0  0  0  0  0  0  0  0  0  0  0
   40.8040   20.7460   37.9130 H   0  0  0  0  0  0  0  0  0  0  0  0
   41.6050   22.3710   37.9870 H   0  0  0  0  0  0  0  0  0  0  0  0
   36.6770   28.3080   32.6710 C   0  0  0  0  0  0  0  0  0  0  0  0
   36.8880   29.3650   32.3440 H   0  0  0  0  0  0  0  0  0  0  0  0
   35.9690   27.9290   31.8880 H   0  0  0  0  0  0  0  0  0  0  0  0
   36.0000   28.3020   33.8610 O   0  0  0  0  0  0  0  0  0  0  0  0
   35.3840   30.6900   32.9500 O   0  0  0  0  0  0  0  0  0  0  0  0
   35.2930   29.7800   34.1500 P   0  0  2  0  0  0  0  0  0  0  0  0
   36.1790   30.4800   35.4660 O   0  0  0  0  0  0  0  0  0  0  0  0
   35.7700   31.7580   35.8960 C   0  0  0  0  0  0  0  0  0  0  0  0
   36.3650   32.8820   35.3510 C   0  0  0  0  0  0  0  0  0  0  0  0
   37.1430   32.7050   34.5940 H   0  0  0  0  0  0  0  0  0  0  0  0
   36.0430   34.1790   35.6970 C   0  0  0  0  0  3  0  0  0  0  0  0
   35.0710   34.3600   36.6410 C   0  0  0  0  0  0  0  0  0  0  0  0
   34.8260   35.3990   36.9060 H   0  0  0  0  0  0  0  0  0  0  0  0
   34.4540   33.2620   37.2090 C   0  0  0  0  0  0  0  0  0  0  0  0
   33.6790   33.4290   37.9620 H   0  0  0  0  0  0  0  0  0  0  0  0
   34.7940   31.9830   36.8450 C   0  0  0  0  0  3  0  0  0  0  0  0
   33.7240   29.6690   34.6600 O   0  0  0  0  0  0  0  0  0  0  0  0
   32.8670   29.5400   33.5920 C   0  0  0  0  0  0  0  0  0  0  0  0
   32.6170   30.7650   32.9740 F   0  0  0  0  0  0  0  0  0  0  0  0
   33.3930   28.7190   32.6070 F   0  0  0  0  0  0  0  0  0  0  0  0
   31.6530   29.0220   34.0220 F   0  0  0  0  0  0  0  0  0  0  0  0
  1 10  1  0  0  0  0
  1  3  1  0  0  0  0
  2  1  1  0  0  0  0
  5  6  1  0  0  0  0
  5  4  1  0  0  0  0
  6 18  1  0  0  0  0
  7 11  1  0  0  0  0
  7  6  2  0  0  0  0
  8  7  1  0  0  0  0
  9  8  2  0  0  0  0
  9 10  1  0  0  0  0
 10  5  2  0  0  0  0
 12  8  1  0  0  0  0
 13  9  1  0  0  0  0
 14 15  1  0  0  0  0
 14 20  1  0  0  0  0
 15 21  1  0  0  0  0
 16 22  1  0  0  0  0
 16 15  2  0  0  0  0
 17 16  1  0  0  0  0
 18 17  2  0  0  0  0
 18 19  1  0  0  0  0
 19 14  2  0  0  0  0
 22 23  1  0  0  0  0
 22 24  1  0  0  0  0
 25  1  1  0  0  0  0
 25 28  1  0  0  0  0
 26 25  1  0  0  0  0
 27 25  1  0  0  0  0
 28 30  1  0  0  0  0
 30 29  2  6  0  0  0
 30 41  1  0  0  0  0
 30 31  1  0  0  0  0
 31 32  1  0  0  0  0
 32 40  1  0  0  0  0
 33 35  1  0  0  0  0
 33 32  2  0  0  0  0
 34 33  1  0  0  0  0
 35 36  2  0  0  0  0
 36 37  1  0  0  0  0
 36 38  1  0  0  0  0
 38 39  1  0  0  0  0
 40 38  2  0  0  0  0
 42 45  1  0  0  0  0
 42 41  1  0  0  0  0
 43 42  1  0  0  0  0
 44 42  1  0  0  0  0
M  END
>  <minimizedAffinity>
-6.53667402

$$$$

 OpenBabel03272504433D

 45 47  0  0  0  0  0  0  0  0999 V2000
   39.4690   25.2370   30.8950 C   0  0  0  0  0  0  0  0  0  0  0  0
   39.5230   26.0460   30.1070 H   0  0  0  0  0  0  0  0  0  0  0  0
   40.0090   24.3880   30.4090 H   0  0  0  0  0  0  0  0  0  0  0  0
   38.9370   22.4540   31.8130 Cl  0  0  0  0  0  0  0  0  0  0  0  0
   37.6740   23.6320   31.4440 C   0  0  0  0  0  0  0  0  0  0  0  0
   36.3810   23.2700   31.5770 C   0  0  0  0  0  0  0  0  0  0  0  0
   35.3810   24.1790   31.2960 C   0  0  0  0  0  0  0  0  0  0  0  0
   35.7350   25.4530   30.8790 C   0  0  0  0  0  0  0  0  0  0  0  0
   37.1030   25.7570   30.7630 C   0  0  0  0  0  0  0  0  0  0  0  0
   38.0880   24.8810   31.0340 C   0  0  0  0  0  0  0  0  0  0  0  0
   34.3360   23.8640   31.4110 H   0  0  0  0  0  0  0  0  0  0  0  0
   34.8870   26.0860   30.6840 H   0  0  0  0  0  0  0  0  0  0  0  0
   37.1590   26.7330   30.4430 H   0  0  0  0  0  0  0  0  0  0  0  0
   35.4370   19.7070   31.5910 C   0  0  0  0  0  0  0  0  0  0  0  0
   35.3340   19.4590   32.9910 C   0  0  0  0  0  0  0  0  0  0  0  0
   35.5920   20.5210   33.8570 C   0  0  0  0  0  0  0  0  0  0  0  0
   35.9280   21.7360   33.3520 N   0  0  0  0  0  0  0  0  0  0  0  0
   36.0160   21.9320   32.0110 C   0  0  0  0  0  0  0  0  0  0  0  0
   35.7730   20.9310   31.1690 N   0  0  0  0  0  0  0  0  0  0  0  0
   35.2370   18.8850   30.9220 H   0  0  0  0  0  0  0  0  0  0  0  0
   35.0670   18.4930   33.3750 H   0  0  0  0  0  0  0  0  0  0  0  0
   35.4780   20.2470   35.2360 N   0  0  0  0  0  0  0  0  0  0  0  0
   36.1150   19.9330   35.9760 H   0  0  0  0  0  0  0  0  0  0  0  0
   34.4600   20.4480   35.4420 H   0  0  0  0  0  0  0  0  0  0  0  0
   40.2400   25.6680   32.0550 C   0  0  0  0  0  0  0  0  0  0  0  0
   40.3460   24.8170   32.7840 H   0  0  0  0  0  0  0  0  0  0  0  0
   41.3030   25.9330   31.8090 H   0  0  0  0  0  0  0  0  0  0  0  0
   39.6860   26.7590   32.6680 O   0  0  0  0  0  0  0  0  0  0  0  0
   40.8150   26.6820   35.0420 O   0  0  0  0  0  0  0  0  0  0  0  0
   39.5130   26.4980   34.3020 P   0  0  2  0  0  0  0  0  0  0  0  0
   38.9920   24.8520   34.4670 O   0  0  0  0  0  0  0  0  0  0  0  0
   39.0170   24.3070   35.7650 C   0  0  0  0  0  0  0  0  0  0  0  0
   38.0670   24.7040   36.6890 C   0  0  0  0  0  0  0  0  0  0  0  0
   37.3290   25.4430   36.3430 H   0  0  0  0  0  0  0  0  0  0  0  0
   37.9960   24.2370   37.9860 C   0  0  0  0  0  3  0  0  0  0  0  0
   38.9290   23.3190   38.3790 C   0  0  0  0  0  0  0  0  0  0  0  0
   38.8610   22.9560   39.4150 H   0  0  0  0  0  0  0  0  0  0  0  0
   39.8950   22.8960   37.4860 C   0  0  0  0  0  0  0  0  0  0  0  0
   40.6330   22.1620   37.8200 H   0  0  0  0  0  0  0  0  0  0  0  0
   39.9410   23.3790   36.2010 C   0  0  0  0  0  3  0  0  0  0  0  0
   38.3320   27.4260   34.9930 O   0  0  0  0  0  0  0  0  0  0  0  0
   37.2050   27.4570   34.2060 C   0  0  0  0  0  0  0  0  0  0  0  0
   36.1630   28.1540   34.8170 F   0  0  0  0  0  0  0  0  0  0  0  0
   37.4380   28.1040   33.0020 F   0  0  0  0  0  0  0  0  0  0  0  0
   36.7670   26.1640   33.9560 F   0  0  0  0  0  0  0  0  0  0  0  0
  1 10  1  0  0  0  0
  1 25  1  0  0  0  0
  2  1  1  0  0  0  0
  3  1  1  0  0  0  0
  5  6  1  0  0  0  0
  5  4  1  0  0  0  0
  6 18  1  0  0  0  0
  7 11  1  0  0  0  0
  7  6  2  0  0  0  0
  8  7  1  0  0  0  0
  9  8  2  0  0  0  0
  9 10  1  0  0  0  0
 10  5  2  0  0  0  0
 12  8  1  0  0  0  0
 13  9  1  0  0  0  0
 14 15  1  0  0  0  0
 15 21  1  0  0  0  0
 15 16  2  0  0  0  0
 16 22  1  0  0  0  0
 17 16  1  0  0  0  0
 18 17  2  0  0  0  0
 19 14  2  0  0  0  0
 19 18  1  0  0  0  0
 20 14  1  0  0  0  0
 22 24  1  0  0  0  0
 22 23  1  0  0  0  0
 25 28  1  0  0  0  0
 25 26  1  0  0  0  0
 27 25  1  0  0  0  0
 28 30  1  0  0  0  0
 30 31  1  0  0  0  0
 30 41  1  0  0  0  0
 30 29  2  1  0  0  0
 31 32  1  0  0  0  0
 32 40  2  0  0  0  0
 32 33  1  0  0  0  0
 33 35  2  0  0  0  0
 34 33  1  0  0  0  0
 35 36  1  0  0  0  0
 36 37  1  0  0  0  0
 38 39  1  0  0  0  0
 38 36  2  0  0  0  0
 40 38  1  0  0  0  0
 42 43  1  0  0  0  0
 42 41  1  0  0  0  0
 44 42  1  0  0  0  0
 45 42  1  0  0  0  0
M  END
>  <minimizedAffinity>
-6.21097755

$$$$

 OpenBabel03272504433D

 45 47  0  0  0  0  0  0  0  0999 V2000
   37.3120   27.2170   32.1150 C   0  0  0  0  0  0  0  0  0  0  0  0
   38.2080   27.3750   32.7870 H   0  0  0  0  0  0  0  0  0  0  0  0
   37.7840   27.0830   31.1100 H   0  0  0  0  0  0  0  0  0  0  0  0
   36.5390   28.2640   34.7930 Cl  0  0  0  0  0  0  0  0  0  0  0  0
   36.1360   29.0580   33.2680 C   0  0  0  0  0  0  0  0  0  0  0  0
   35.4330   30.2090   33.2930 C   0  0  0  0  0  0  0  0  0  0  0  0
   35.1130   30.8440   32.1100 C   0  0  0  0  0  0  0  0  0  0  0  0
   35.5250   30.2750   30.9150 C   0  0  0  0  0  0  0  0  0  0  0  0
   36.2530   29.0730   30.9670 C   0  0  0  0  0  0  0  0  0  0  0  0
   36.5720   28.4440   32.1130 C   0  0  0  0  0  0  0  0  0  0  0  0
   34.5410   31.7790   32.1530 H   0  0  0  0  0  0  0  0  0  0  0  0
   35.2250   30.8430   30.0510 H   0  0  0  0  0  0  0  0  0  0  0  0
   36.4590   28.8150   29.9940 H   0  0  0  0  0  0  0  0  0  0  0  0
   35.3500   32.1290   36.4390 C   0  0  0  0  0  0  0  0  0  0  0  0
   34.0370   31.8290   36.9050 C   0  0  0  0  0  0  0  0  0  0  0  0
   33.2490   30.9870   36.1220 C   0  0  0  0  0  0  0  0  0  0  0  0
   33.7450   30.4870   34.9600 N   0  0  0  0  0  0  0  0  0  0  0  0
   35.0010   30.7980   34.5490 C   0  0  0  0  0  0  0  0  0  0  0  0
   35.7690   31.5990   35.2830 N   0  0  0  0  0  0  0  0  0  0  0  0
   35.9590   32.7810   37.0450 H   0  0  0  0  0  0  0  0  0  0  0  0
   33.6590   32.2310   37.8260 H   0  0  0  0  0  0  0  0  0  0  0  0
   31.9560   30.7040   36.6100 N   0  0  0  0  0  0  0  0  0  0  0  0
   31.0240   31.1180   36.5010 H   0  0  0  0  0  0  0  0  0  0  0  0
   32.1050   29.8490   37.2150 H   0  0  0  0  0  0  0  0  0  0  0  0
   36.6660   25.9660   32.4890 C   0  0  0  0  0  0  0  0  0  0  0  0
   36.2970   26.0260   33.5520 H   0  0  0  0  0  0  0  0  0  0  0  0
   35.7330   25.7530   31.9020 H   0  0  0  0  0  0  0  0  0  0  0  0
   37.4940   24.8880   32.3310 O   0  0  0  0  0  0  0  0  0  0  0  0
   40.0170   24.8180   33.0680 O   0  0  0  0  0  0  0  0  0  0  0  0
   38.5960   24.7980   33.5740 P   0  0  2  0  0  0  0  0  0  0  0  0
   38.2950   23.2850   34.3660 O   0  0  0  0  0  0  0  0  0  0  0  0
   38.5220   23.2410   35.7560 C   0  0  0  0  0  0  0  0  0  0  0  0
   39.7450   22.8020   36.2320 C   0  0  0  0  0  0  0  0  0  0  0  0
   40.4860   22.5060   35.4740 H   0  0  0  0  0  0  0  0  0  0  0  0
   40.0780   22.7190   37.5690 C   0  0  0  0  0  3  0  0  0  0  0  0
   39.1320   23.0970   38.4800 C   0  0  0  0  0  0  0  0  0  0  0  0
   39.4100   23.0240   39.5420 H   0  0  0  0  0  0  0  0  0  0  0  0
   37.8980   23.5410   38.0450 C   0  0  0  0  0  0  0  0  0  0  0  0
   37.1550   23.8390   38.7900 H   0  0  0  0  0  0  0  0  0  0  0  0
   37.5950   23.6140   36.7080 C   0  0  0  0  0  3  0  0  0  0  0  0
   38.3870   25.9680   34.7230 O   0  0  0  0  0  0  0  0  0  0  0  0
   39.5710   26.6140   34.9900 C   0  0  0  0  0  0  0  0  0  0  0  0
   39.4740   27.4350   36.1130 F   0  0  0  0  0  0  0  0  0  0  0  0
   40.5940   25.7190   35.2640 F   0  0  0  0  0  0  0  0  0  0  0  0
   39.9320   27.4070   33.9100 F   0  0  0  0  0  0  0  0  0  0  0  0
  1 25  1  0  0  0  0
  1  2  1  0  0  0  0
  3  1  1  0  0  0  0
  5  6  1  0  0  0  0
  5  4  1  0  0  0  0
  6 18  1  0  0  0  0
  7 11  1  0  0  0  0
  7  6  2  0  0  0  0
  8  9  2  0  0  0  0
  8  7  1  0  0  0  0
  9 10  1  0  0  0  0
 10  1  1  0  0  0  0
 10  5  2  0  0  0  0
 12  8  1  0  0  0  0
 13  9  1  0  0  0  0
 14 15  1  0  0  0  0
 14 20  1  0  0  0  0
 15 21  1  0  0  0  0
 16 22  1  0  0  0  0
 16 15  2  0  0  0  0
 17 16  1  0  0  0  0
 18 17  2  0  0  0  0
 18 19  1  0  0  0  0
 19 14  2  0  0  0  0
 22 24  1  0  0  0  0
 23 22  1  0  0  0  0
 25 26  1  0  0  0  0
 27 25  1  0  0  0  0
 28 25  1  0  0  0  0
 28 30  1  0  0  0  0
 30 29  2  6  0  0  0
 30 31  1  0  0  0  0
 30 41  1  0  0  0  0
 31 32  1  0  0  0  0
 32 33  2  0  0  0  0
 32 40  1  0  0  0  0
 33 35  1  0  0  0  0
 34 33  1  0  0  0  0
 35 36  2  0  0  0  0
 36 37  1  0  0  0  0
 38 36  1  0  0  0  0
 38 39  1  0  0  0  0
 40 38  2  0  0  0  0
 41 42  1  0  0  0  0
 42 44  1  0  0  0  0
 42 43  1  0  0  0  0
 45 42  1  0  0  0  0
M  END
>  <minimizedAffinity>
-6.1394558

$$$$

 OpenBabel03272504433D

 45 47  0  0  0  0  0  0  0  0999 V2000
   38.8830   24.3720   32.4410 C   0  0  0  0  0  0  0  0  0  0  0  0
   39.7360   25.0660   32.1740 H   0  0  0  0  0  0  0  0  0  0  0  0
   39.1010   23.4690   31.8190 H   0  0  0  0  0  0  0  0  0  0  0  0
   38.7460   27.3360   32.6970 Cl  0  0  0  0  0  0  0  0  0  0  0  0
   37.4600   26.3430   32.0050 C   0  0  0  0  0  0  0  0  0  0  0  0
   36.3360   26.9420   31.5600 C   0  0  0  0  0  0  0  0  0  0  0  0
   35.3230   26.1810   31.0140 C   0  0  0  0  0  0  0  0  0  0  0  0
   35.4870   24.8080   30.9360 C   0  0  0  0  0  0  0  0  0  0  0  0
   36.6860   24.2530   31.4210 C   0  0  0  0  0  0  0  0  0  0  0  0
   37.6820   24.9830   31.9560 C   0  0  0  0  0  0  0  0  0  0  0  0
   34.4170   26.6890   30.6580 H   0  0  0  0  0  0  0  0  0  0  0  0
   34.6440   24.3040   30.4970 H   0  0  0  0  0  0  0  0  0  0  0  0
   36.6160   23.2380   31.2800 H   0  0  0  0  0  0  0  0  0  0  0  0
   35.6510   30.3390   32.8200 C   0  0  0  0  0  0  0  0  0  0  0  0
   35.8900   31.1150   31.6490 C   0  0  0  0  0  0  0  0  0  0  0  0
   36.2730   30.4400   30.4910 C   0  0  0  0  0  0  0  0  0  0  0  0
   36.4050   29.0880   30.5120 N   0  0  0  0  0  0  0  0  0  0  0  0
   36.1680   28.3830   31.6480 C   0  0  0  0  0  0  0  0  0  0  0  0
   35.8010   29.0100   32.7630 N   0  0  0  0  0  0  0  0  0  0  0  0
   35.3550   30.8620   33.7150 H   0  0  0  0  0  0  0  0  0  0  0  0
   35.7820   32.1830   31.6480 H   0  0  0  0  0  0  0  0  0  0  0  0
   36.4990   31.2340   29.3470 N   0  0  0  0  0  0  0  0  0  0  0  0
   37.3090   31.7070   28.9320 H   0  0  0  0  0  0  0  0  0  0  0  0
   35.5460   31.2840   28.8920 H   0  0  0  0  0  0  0  0  0  0  0  0
   39.0090   24.0030   33.8450 C   0  0  0  0  0  0  0  0  0  0  0  0
   39.6750   23.1000   33.9480 H   0  0  0  0  0  0  0  0  0  0  0  0
   39.5270   24.7800   34.4660 H   0  0  0  0  0  0  0  0  0  0  0  0
   37.7930   23.7690   34.4290 O   0  0  0  0  0  0  0  0  0  0  0  0
   39.3000   21.9970   35.6560 O   0  0  0  0  0  0  0  0  0  0  0  0
   37.9040   22.5620   35.5690 P   0  0  2  0  0  0  0  0  0  0  0  0
   36.8160   21.3160   35.0480 O   0  0  0  0  0  0  0  0  0  0  0  0
   36.7060   21.1100   33.6590 C   0  0  0  0  0  0  0  0  0  0  0  0
   35.4590   21.1530   33.0620 C   0  0  0  0  0  0  0  0  0  0  0  0
   34.6050   21.3510   33.7270 H   0  0  0  0  0  0  0  0  0  0  0  0
   35.2330   20.9670   31.7130 C   0  0  0  0  0  3  0  0  0  0  0  0
   36.3190   20.7240   30.9180 C   0  0  0  0  0  0  0  0  0  0  0  0
   36.1240   20.5770   29.8450 H   0  0  0  0  0  0  0  0  0  0  0  0
   37.5810   20.6740   31.4770 C   0  0  0  0  0  0  0  0  0  0  0  0
   38.4360   20.4780   30.8230 H   0  0  0  0  0  0  0  0  0  0  0  0
   37.7760   20.8630   32.8220 C   0  0  0  0  0  3  0  0  0  0  0  0
   37.3860   23.0260   37.0690 O   0  0  0  0  0  0  0  0  0  0  0  0
   38.3100   23.8440   37.6780 C   0  0  0  0  0  0  0  0  0  0  0  0
   39.4180   23.1290   38.1310 F   0  0  0  0  0  0  0  0  0  0  0  0
   38.8070   24.7980   36.8040 F   0  0  0  0  0  0  0  0  0  0  0  0
   37.7320   24.4770   38.7700 F   0  0  0  0  0  0  0  0  0  0  0  0
  1 25  1  0  0  0  0
  2  1  1  0  0  0  0
  3  1  1  0  0  0  0
  5  4  1  0  0  0  0
  6 18  1  0  0  0  0
  6  5  2  0  0  0  0
  7  6  1  0  0  0  0
  8  7  2  0  0  0  0
  8  9  1  0  0  0  0
  9 10  2  0  0  0  0
 10  5  1  0  0  0  0
 10  1  1  0  0  0  0
 11  7  1  0  0  0  0
 12  8  1  0  0  0  0
 13  9  1  0  0  0  0
 14 20  1  0  0  0  0
 15 14  2  0  0  0  0
 16 17  2  0  0  0  0
 16 15  1  0  0  0  0
 17 18  1  0  0  0  0
 18 19  2  0  0  0  0
 19 14  1  0  0  0  0
 21 15  1  0  0  0  0
 22 16  1  0  0  0  0
 23 22  1  0  0  0  0
 24 22  1  0  0  0  0
 25 26  1  0  0  0  0
 25 28  1  0  0  0  0
 25 27  1  0  0  0  0
 28 30  1  0  0  0  0
 30 29  2  1  0  0  0
 30 41  1  0  0  0  0
 31 30  1  0  0  0  0
 32 31  1  0  0  0  0
 33 32  1  0  0  0  0
 33 34  1  0  0  0  0
 35 33  2  0  0  0  0
 36 38  2  0  0  0  0
 36 35  1  0  0  0  0
 37 36  1  0  0  0  0
 38 40  1  0  0  0  0
 39 38  1  0  0  0  0
 40 32  2  0  0  0  0
 41 42  1  0  0  0  0
 42 43  1  0  0  0  0
 42 45  1  0  0  0  0
 44 42  1  0  0  0  0
M  END
>  <minimizedAffinity>
-5.99145126

$$$$

 OpenBabel03272504433D

 45 47  0  0  0  0  0  0  0  0999 V2000
   36.6970   28.3610   34.2800 C   0  0  0  0  0  0  0  0  0  0  0  0
   37.5790   29.0240   34.0310 H   0  0  0  0  0  0  0  0  0  0  0  0
   36.6180   28.4680   35.3900 H   0  0  0  0  0  0  0  0  0  0  0  0
   38.3450   26.9940   36.3480 Cl  0  0  0  0  0  0  0  0  0  0  0  0
   37.8530   26.2480   34.8260 C   0  0  0  0  0  0  0  0  0  0  0  0
   38.2380   24.9830   34.5610 C   0  0  0  0  0  0  0  0  0  0  0  0
   37.8600   24.3840   33.3760 C   0  0  0  0  0  0  0  0  0  0  0  0
   37.0870   25.1060   32.4810 C   0  0  0  0  0  0  0  0  0  0  0  0
   36.7250   26.4210   32.8250 C   0  0  0  0  0  0  0  0  0  0  0  0
   37.0870   27.0160   33.9760 C   0  0  0  0  0  0  0  0  0  0  0  0
   38.1830   23.3530   33.1810 H   0  0  0  0  0  0  0  0  0  0  0  0
   36.8450   24.5540   31.5890 H   0  0  0  0  0  0  0  0  0  0  0  0
   36.1650   26.7830   32.0430 H   0  0  0  0  0  0  0  0  0  0  0  0
   41.0610   23.2430   36.1720 C   0  0  0  0  0  0  0  0  0  0  0  0
   40.4510   22.8010   37.3820 C   0  0  0  0  0  0  0  0  0  0  0  0
   39.1090   23.1190   37.5850 C   0  0  0  0  0  0  0  0  0  0  0  0
   38.4350   23.8280   36.6430 N   0  0  0  0  0  0  0  0  0  0  0  0
   39.0520   24.2320   35.5020 C   0  0  0  0  0  0  0  0  0  0  0  0
   40.3310   23.9380   35.2910 N   0  0  0  0  0  0  0  0  0  0  0  0
   42.0990   22.9970   36.0160 H   0  0  0  0  0  0  0  0  0  0  0  0
   40.9980   22.2420   38.1180 H   0  0  0  0  0  0  0  0  0  0  0  0
   38.5320   22.6650   38.7890 N   0  0  0  0  0  0  0  0  0  0  0  0
   38.4140   23.0440   39.7350 H   0  0  0  0  0  0  0  0  0  0  0  0
   38.1700   21.7030   38.5390 H   0  0  0  0  0  0  0  0  0  0  0  0
   35.5010   28.9380   33.6770 C   0  0  0  0  0  0  0  0  0  0  0  0
   35.7910   29.6750   32.8770 H   0  0  0  0  0  0  0  0  0  0  0  0
   34.8750   28.1880   33.1250 H   0  0  0  0  0  0  0  0  0  0  0  0
   34.6900   29.5320   34.6050 O   0  0  0  0  0  0  0  0  0  0  0  0
   33.3430   29.9720   32.3900 O   0  0  0  0  0  0  0  0  0  0  0  0
   33.3440   30.1920   33.8820 P   0  0  2  0  0  0  0  0  0  0  0  0
   33.4170   31.8940   34.2070 O   0  0  0  0  0  0  0  0  0  0  0  0
   34.7010   32.4650   34.3090 C   0  0  0  0  0  0  0  0  0  0  0  0
   35.4260   32.7200   33.1580 C   0  0  0  0  0  0  0  0  0  0  0  0
   34.9420   32.4530   32.2070 H   0  0  0  0  0  0  0  0  0  0  0  0
   36.6890   33.2770   33.1400 C   0  0  0  0  0  3  0  0  0  0  0  0
   37.2570   33.5960   34.3410 C   0  0  0  0  0  0  0  0  0  0  0  0
   38.2640   34.0380   34.3110 H   0  0  0  0  0  0  0  0  0  0  0  0
   36.5650   33.3570   35.5130 C   0  0  0  0  0  0  0  0  0  0  0  0
   37.0370   33.6200   36.4630 H   0  0  0  0  0  0  0  0  0  0  0  0
   35.3090   32.8030   35.5010 C   0  0  0  0  0  3  0  0  0  0  0  0
   31.9210   29.6600   34.5340 O   0  0  0  0  0  0  0  0  0  0  0  0
   32.0460   29.4520   35.8880 C   0  0  0  0  0  0  0  0  0  0  0  0
   32.9020   30.3800   36.4800 F   0  0  0  0  0  0  0  0  0  0  0  0
   30.8310   29.5860   36.5430 F   0  0  0  0  0  0  0  0  0  0  0  0
   32.5580   28.1840   36.1250 F   0  0  0  0  0  0  0  0  0  0  0  0
  1  3  1  0  0  0  0
  2  1  1  0  0  0  0
  5  4  1  0  0  0  0
  6  5  1  0  0  0  0
  6 18  1  0  0  0  0
  7  6  2  0  0  0  0
  8  9  2  0  0  0  0
  8  7  1  0  0  0  0
  9 10  1  0  0  0  0
 10  1  1  0  0  0  0
 10  5  2  0  0  0  0
 11  7  1  0  0  0  0
 12  8  1  0  0  0  0
 13  9  1  0  0  0  0
 14 15  1  0  0  0  0
 15 16  2  0  0  0  0
 15 21  1  0  0  0  0
 16 22  1  0  0  0  0
 17 16  1  0  0  0  0
 18 17  2  0  0  0  0
 19 18  1  0  0  0  0
 19 14  2  0  0  0  0
 20 14  1  0  0  0  0
 22 23  1  0  0  0  0
 24 22  1  0  0  0  0
 25  1  1  0  0  0  0
 25 28  1  0  0  0  0
 26 25  1  0  0  0  0
 27 25  1  0  0  0  0
 30 29  2  6  0  0  0
 30 31  1  0  0  0  0
 30 41  1  0  0  0  0
 30 28  1  0  0  0  0
 31 32  1  0  0  0  0
 32 40  1  0  0  0  0
 33 32  2  0  0  0  0
 34 33  1  0  0  0  0
 35 33  1  0  0  0  0
 35 36  2  0  0  0  0
 36 38  1  0  0  0  0
 37 36  1  0  0  0  0
 38 39  1  0  0  0  0
 40 38  2  0  0  0  0
 41 42  1  0  0  0  0
 42 45  1  0  0  0  0
 42 43  1  0  0  0  0
 42 44  1  0  0  0  0
M  END
>  <minimizedAffinity>
-5.98044634

$$$$

 OpenBabel03272504433D

 45 47  0  0  0  0  0  0  0  0999 V2000
   36.8860   27.9340   33.7660 C   0  0  0  0  0  0  0  0  0  0  0  0
   37.8330   28.5180   33.5630 H   0  0  0  0  0  0  0  0  0  0  0  0
   36.6890   28.1580   34.8430 H   0  0  0  0  0  0  0  0  0  0  0  0
   38.5140   26.7910   35.9820 Cl  0  0  0  0  0  0  0  0  0  0  0  0
   37.9690   25.8680   34.5790 C   0  0  0  0  0  0  0  0  0  0  0  0
   38.3000   24.5630   34.4830 C   0  0  0  0  0  0  0  0  0  0  0  0
   37.8790   23.8270   33.3950 C   0  0  0  0  0  0  0  0  0  0  0  0
   37.1200   24.4530   32.4180 C   0  0  0  0  0  0  0  0  0  0  0  0
   36.8150   25.8160   32.5860 C   0  0  0  0  0  0  0  0  0  0  0  0
   37.2180   26.5450   33.6420 C   0  0  0  0  0  0  0  0  0  0  0  0
   38.1590   22.7670   33.3360 H   0  0  0  0  0  0  0  0  0  0  0  0
   36.8430   23.7970   31.6120 H   0  0  0  0  0  0  0  0  0  0  0  0
   36.2570   26.0920   31.7680 H   0  0  0  0  0  0  0  0  0  0  0  0
   41.1010   23.0130   36.3100 C   0  0  0  0  0  0  0  0  0  0  0  0
   40.4700   22.6810   37.5440 C   0  0  0  0  0  0  0  0  0  0  0  0
   39.1210   23.0050   37.6880 C   0  0  0  0  0  0  0  0  0  0  0  0
   38.4610   23.6140   36.6690 N   0  0  0  0  0  0  0  0  0  0  0  0
   39.0990   23.9140   35.5080 C   0  0  0  0  0  0  0  0  0  0  0  0
   40.3850   23.6130   35.3510 N   0  0  0  0  0  0  0  0  0  0  0  0
   42.1440   22.7630   36.1990 H   0  0  0  0  0  0  0  0  0  0  0  0
   41.0050   22.2000   38.3410 H   0  0  0  0  0  0  0  0  0  0  0  0
   38.5220   22.6610   38.9190 N   0  0  0  0  0  0  0  0  0  0  0  0
   38.3810   23.1280   39.8210 H   0  0  0  0  0  0  0  0  0  0  0  0
   38.1730   21.6760   38.7540 H   0  0  0  0  0  0  0  0  0  0  0  0
   35.8070   28.5090   32.9720 C   0  0  0  0  0  0  0  0  0  0  0  0
   35.6420   27.8920   32.0440 H   0  0  0  0  0  0  0  0  0  0  0  0
   34.8100   28.4770   33.4860 H   0  0  0  0  0  0  0  0  0  0  0  0
   36.0470   29.8150   32.6430 O   0  0  0  0  0  0  0  0  0  0  0  0
   34.8410   30.1590   34.9540 O   0  0  0  0  0  0  0  0  0  0  0  0
   35.2400   30.8450   33.6710 P   0  0  2  0  0  0  0  0  0  0  0  0
   33.8120   31.3410   32.8210 O   0  0  0  0  0  0  0  0  0  0  0  0
   32.5830   30.8610   33.3140 C   0  0  0  0  0  0  0  0  0  0  0  0
   32.2020   29.5590   33.0430 C   0  0  0  0  0  0  0  0  0  0  0  0
   32.9030   28.9610   32.4420 H   0  0  0  0  0  0  0  0  0  0  0  0
   31.0240   28.9850   33.4740 C   0  0  0  0  0  3  0  0  0  0  0  0
   30.1790   29.7590   34.2200 C   0  0  0  0  0  0  0  0  0  0  0  0
   29.2430   29.2890   34.5560 H   0  0  0  0  0  0  0  0  0  0  0  0
   30.5230   31.0650   34.5120 C   0  0  0  0  0  0  0  0  0  0  0  0
   29.8330   31.6670   35.1090 H   0  0  0  0  0  0  0  0  0  0  0  0
   31.7030   31.6100   34.0690 C   0  0  0  0  0  3  0  0  0  0  0  0
   36.0800   32.2290   34.0060 O   0  0  0  0  0  0  0  0  0  0  0  0
   36.1460   32.4500   35.3620 C   0  0  0  0  0  0  0  0  0  0  0  0
   36.6480   31.3430   36.0450 F   0  0  0  0  0  0  0  0  0  0  0  0
   36.9960   33.5010   35.6700 F   0  0  0  0  0  0  0  0  0  0  0  0
   34.8790   32.7210   35.8590 F   0  0  0  0  0  0  0  0  0  0  0  0
  1  3  1  0  0  0  0
  2  1  1  0  0  0  0
  5  4  1  0  0  0  0
  6  5  1  0  0  0  0
  6 18  1  0  0  0  0
  7  6  2  0  0  0  0
  8  9  2  0  0  0  0
  8  7  1  0  0  0  0
  9 10  1  0  0  0  0
 10  1  1  0  0  0  0
 10  5  2  0  0  0  0
 11  7  1  0  0  0  0
 12  8  1  0  0  0  0
 13  9  1  0  0  0  0
 14 15  1  0  0  0  0
 15 16  2  0  0  0  0
 15 21  1  0  0  0  0
 16 22  1  0  0  0  0
 17 16  1  0  0  0  0
 18 17  2  0  0  0  0
 19 18  1  0  0  0  0
 19 14  2  0  0  0  0
 20 14  1  0  0  0  0
 22 23  1  0  0  0  0
 24 22  1  0  0  0  0
 25 27  1  0  0  0  0
 25  1  1  0  0  0  0
 26 25  1  0  0  0  0
 28 25  1  0  0  0  0
 28 30  1  0  0  0  0
 30 41  1  0  0  0  0
 30 29  2  1  0  0  0
 31 32  1  0  0  0  0
 31 30  1  0  0  0  0
 32 40  1  0  0  0  0
 33 32  2  0  0  0  0
 33 35  1  0  0  0  0
 34 33  1  0  0  0  0
 35 36  2  0  0  0  0
 36 38  1  0  0  0  0
 36 37  1  0  0  0  0
 38 39  1  0  0  0  0
 40 38  2  0  0  0  0
 41 42  1  0  0  0  0
 42 44  1  0  0  0  0
 42 45  1  0  0  0  0
 42 43  1  0  0  0  0
M  END
>  <minimizedAffinity>
-5.96555662

$$$$

 OpenBabel03272504433D

 45 47  0  0  0  0  0  0  0  0999 V2000
   37.1320   28.0670   33.6530 C   0  0  0  0  0  0  0  0  0  0  0  0
   37.1010   28.4450   32.5880 H   0  0  0  0  0  0  0  0  0  0  0  0
   38.0520   28.5560   34.0580 H   0  0  0  0  0  0  0  0  0  0  0  0
   38.7930   26.9190   35.8420 Cl  0  0  0  0  0  0  0  0  0  0  0  0
   38.1070   25.9700   34.5210 C   0  0  0  0  0  0  0  0  0  0  0  0
   38.3380   24.6410   34.4790 C   0  0  0  0  0  0  0  0  0  0  0  0
   37.8060   23.8840   33.4550 C   0  0  0  0  0  0  0  0  0  0  0  0
   37.0410   24.5150   32.4870 C   0  0  0  0  0  0  0  0  0  0  0  0
   36.8440   25.9030   32.5950 C   0  0  0  0  0  0  0  0  0  0  0  0
   37.3560   26.6530   33.5880 C   0  0  0  0  0  0  0  0  0  0  0  0
   38.0060   22.8050   33.4400 H   0  0  0  0  0  0  0  0  0  0  0  0
   36.6730   23.8410   31.7320 H   0  0  0  0  0  0  0  0  0  0  0  0
   36.2630   26.1790   31.7940 H   0  0  0  0  0  0  0  0  0  0  0  0
   41.1530   23.0890   36.2830 C   0  0  0  0  0  0  0  0  0  0  0  0
   40.5270   22.7430   37.5160 C   0  0  0  0  0  0  0  0  0  0  0  0
   39.1770   23.0570   37.6670 C   0  0  0  0  0  0  0  0  0  0  0  0
   38.5110   23.6720   36.6560 N   0  0  0  0  0  0  0  0  0  0  0  0
   39.1430   23.9860   35.4960 C   0  0  0  0  0  0  0  0  0  0  0  0
   40.4310   23.6950   35.3320 N   0  0  0  0  0  0  0  0  0  0  0  0
   42.1980   22.8470   36.1670 H   0  0  0  0  0  0  0  0  0  0  0  0
   41.0670   22.2570   38.3060 H   0  0  0  0  0  0  0  0  0  0  0  0
   38.5840   22.6980   38.8950 N   0  0  0  0  0  0  0  0  0  0  0  0
   38.4430   23.1550   39.8030 H   0  0  0  0  0  0  0  0  0  0  0  0
   38.2400   21.7120   38.7220 H   0  0  0  0  0  0  0  0  0  0  0  0
   35.9770   28.5990   34.3670 C   0  0  0  0  0  0  0  0  0  0  0  0
   35.0270   28.2840   33.8490 H   0  0  0  0  0  0  0  0  0  0  0  0
   35.8610   28.1790   35.4010 H   0  0  0  0  0  0  0  0  0  0  0  0
   36.0270   29.9610   34.4890 O   0  0  0  0  0  0  0  0  0  0  0  0
   33.4600   29.7610   35.0200 O   0  0  0  0  0  0  0  0  0  0  0  0
   34.5070   30.6250   34.3620 P   0  0  2  0  0  0  0  0  0  0  0  0
   34.1750   30.7310   32.6640 O   0  0  0  0  0  0  0  0  0  0  0  0
   35.2710   30.9960   31.8190 C   0  0  0  0  0  0  0  0  0  0  0  0
   35.7010   30.0210   30.9370 C   0  0  0  0  0  0  0  0  0  0  0  0
   35.1460   29.0710   30.9490 H   0  0  0  0  0  0  0  0  0  0  0  0
   36.7610   30.1710   30.0640 C   0  0  0  0  0  3  0  0  0  0  0  0
   37.4260   31.3650   30.0770 C   0  0  0  0  0  0  0  0  0  0  0  0
   38.2680   31.4700   29.3770 H   0  0  0  0  0  0  0  0  0  0  0  0
   37.0260   32.3640   30.9440 C   0  0  0  0  0  0  0  0  0  0  0  0
   37.5720   33.3120   30.9380 H   0  0  0  0  0  0  0  0  0  0  0  0
   35.9680   32.1870   31.8010 C   0  0  0  0  0  3  0  0  0  0  0  0
   34.4150   32.1690   34.9460 O   0  0  0  0  0  0  0  0  0  0  0  0
   35.3840   32.3970   35.8950 C   0  0  0  0  0  0  0  0  0  0  0  0
   35.0740   33.4920   36.7020 F   0  0  0  0  0  0  0  0  0  0  0  0
   35.5220   31.3200   36.7560 F   0  0  0  0  0  0  0  0  0  0  0  0
   36.6000   32.6510   35.2760 F   0  0  0  0  0  0  0  0  0  0  0  0
  1  3  1  0  0  0  0
  1 25  1  0  0  0  0
  2  1  1  0  0  0  0
  5  4  1  0  0  0  0
  6  5  1  0  0  0  0
  6 18  1  0  0  0  0
  7  6  2  0  0  0  0
  8  9  2  0  0  0  0
  8  7  1  0  0  0  0
  9 10  1  0  0  0  0
 10  1  1  0  0  0  0
 10  5  2  0  0  0  0
 11  7  1  0  0  0  0
 12  8  1  0  0  0  0
 13  9  1  0  0  0  0
 14 15  1  0  0  0  0
 15 16  2  0  0  0  0
 15 21  1  0  0  0  0
 16 22  1  0  0  0  0
 17 16  1  0  0  0  0
 18 17  2  0  0  0  0
 19 18  1  0  0  0  0
 19 14  2  0  0  0  0
 20 14  1  0  0  0  0
 22 23  1  0  0  0  0
 24 22  1  0  0  0  0
 25 28  1  0  0  0  0
 25 27  1  0  0  0  0
 26 25  1  0  0  0  0
 30 28  1  0  0  0  0
 30 41  1  0  0  0  0
 30 29  2  1  0  0  0
 31 30  1  0  0  0  0
 32 31  1  0  0  0  0
 33 34  1  0  0  0  0
 33 32  2  0  0  0  0
 35 36  2  0  0  0  0
 35 33  1  0  0  0  0
 36 38  1  0  0  0  0
 37 36  1  0  0  0  0
 38 40  2  0  0  0  0
 39 38  1  0  0  0  0
 40 32  1  0  0  0  0
 41 42  1  0  0  0  0
 42 43  1  0  0  0  0
 42 44  1  0  0  0  0
 45 42  1  0  0  0  0
M  END
>  <minimizedAffinity>
-5.93500948

$$$$

 OpenBabel03272504433D

 45 47  0  0  0  0  0  0  0  0999 V2000
   38.4450   26.7450   32.6600 C   0  0  0  0  0  0  0  0  0  0  0  0
   38.6120   26.7600   33.7790 H   0  0  0  0  0  0  0  0  0  0  0  0
   39.4490   27.0280   32.2600 H   0  0  0  0  0  0  0  0  0  0  0  0
   36.7580   27.6650   34.9350 Cl  0  0  0  0  0  0  0  0  0  0  0  0
   36.6660   28.3340   33.3040 C   0  0  0  0  0  0  0  0  0  0  0  0
   35.7840   29.3220   33.0490 C   0  0  0  0  0  0  0  0  0  0  0  0
   35.7010   29.8580   31.7800 C   0  0  0  0  0  0  0  0  0  0  0  0
   36.5360   29.3620   30.7900 C   0  0  0  0  0  0  0  0  0  0  0  0
   37.4300   28.3300   31.1300 C   0  0  0  0  0  0  0  0  0  0  0  0
   37.5200   27.7990   32.3630 C   0  0  0  0  0  0  0  0  0  0  0  0
   34.9770   30.6610   31.5940 H   0  0  0  0  0  0  0  0  0  0  0  0
   36.3950   29.8420   29.8370 H   0  0  0  0  0  0  0  0  0  0  0  0
   37.9500   28.1010   30.2740 H   0  0  0  0  0  0  0  0  0  0  0  0
   32.8470   29.9660   35.1820 C   0  0  0  0  0  0  0  0  0  0  0  0
   33.3870   30.9010   36.1120 C   0  0  0  0  0  0  0  0  0  0  0  0
   34.7250   31.2620   35.9630 C   0  0  0  0  0  0  0  0  0  0  0  0
   35.4610   30.7240   34.9560 N   0  0  0  0  0  0  0  0  0  0  0  0
   34.9090   29.8350   34.0900 C   0  0  0  0  0  0  0  0  0  0  0  0
   33.6340   29.4780   34.2150 N   0  0  0  0  0  0  0  0  0  0  0  0
   31.8120   29.6860   35.2980 H   0  0  0  0  0  0  0  0  0  0  0  0
   32.7930   31.3180   36.9030 H   0  0  0  0  0  0  0  0  0  0  0  0
   35.2310   32.1920   36.8960 N   0  0  0  0  0  0  0  0  0  0  0  0
   35.7000   32.1360   37.8060 H   0  0  0  0  0  0  0  0  0  0  0  0
   35.0250   33.1270   36.4460 H   0  0  0  0  0  0  0  0  0  0  0  0
   38.1580   25.3750   32.2530 C   0  0  0  0  0  0  0  0  0  0  0  0
   37.3610   25.3690   31.4570 H   0  0  0  0  0  0  0  0  0  0  0  0
   39.0260   24.8670   31.7550 H   0  0  0  0  0  0  0  0  0  0  0  0
   37.7850   24.5890   33.3100 O   0  0  0  0  0  0  0  0  0  0  0  0
   40.3810   24.1850   33.4400 O   0  0  0  0  0  0  0  0  0  0  0  0
   39.0340   23.5950   33.7800 P   0  0  2  0  0  0  0  0  0  0  0  0
   38.8220   22.1160   32.9000 O   0  0  0  0  0  0  0  0  0  0  0  0
   37.4960   21.7240   32.6310 C   0  0  0  0  0  0  0  0  0  0  0  0
   36.7420   21.1410   33.6340 C   0  0  0  0  0  0  0  0  0  0  0  0
   37.2380   21.0160   34.6080 H   0  0  0  0  0  0  0  0  0  0  0  0
   35.4360   20.7200   33.4830 C   0  0  0  0  0  3  0  0  0  0  0  0
   34.8530   20.8930   32.2590 C   0  0  0  0  0  0  0  0  0  0  0  0
   33.8130   20.5510   32.1530 H   0  0  0  0  0  0  0  0  0  0  0  0
   35.5730   21.4700   31.2310 C   0  0  0  0  0  0  0  0  0  0  0  0
   35.0880   21.5990   30.2600 H   0  0  0  0  0  0  0  0  0  0  0  0
   36.8710   21.8810   31.4100 C   0  0  0  0  0  3  0  0  0  0  0  0
   38.9820   23.1880   35.3820 O   0  0  0  0  0  0  0  0  0  0  0  0
   38.6320   24.2710   36.1540 C   0  0  0  0  0  0  0  0  0  0  0  0
   38.9550   24.0780   37.4970 F   0  0  0  0  0  0  0  0  0  0  0  0
   39.3050   25.4190   35.7650 F   0  0  0  0  0  0  0  0  0  0  0  0
   37.2640   24.4890   36.0700 F   0  0  0  0  0  0  0  0  0  0  0  0
  1  2  1  0  0  0  0
  3  1  1  0  0  0  0
  5  4  1  0  0  0  0
  6  5  1  0  0  0  0
  6 18  1  0  0  0  0
  7  6  2  0  0  0  0
  8  9  2  0  0  0  0
  8  7  1  0  0  0  0
  9 10  1  0  0  0  0
 10  1  1  0  0  0  0
 10  5  2  0  0  0  0
 11  7  1  0  0  0  0
 12  8  1  0  0  0  0
 13  9  1  0  0  0  0
 14 20  1  0  0  0  0
 14 15  1  0  0  0  0
 15 21  1  0  0  0  0
 16 15  2  0  0  0  0
 16 22  1  0  0  0  0
 17 16  1  0  0  0  0
 18 19  1  0  0  0  0
 18 17  2  0  0  0  0
 19 14  2  0  0  0  0
 22 23  1  0  0  0  0
 24 22  1  0  0  0  0
 25  1  1  0  0  0  0
 25 28  1  0  0  0  0
 26 25  1  0  0  0  0
 27 25  1  0  0  0  0
 28 30  1  0  0  0  0
 30 29  2  6  0  0  0
 30 41  1  0  0  0  0
 31 30  1  0  0  0  0
 32 31  1  0  0  0  0
 32 33  1  0  0  0  0
 33 34  1  0  0  0  0
 35 33  2  0  0  0  0
 36 35  1  0  0  0  0
 37 36  1  0  0  0  0
 38 40  1  0  0  0  0
 38 36  2  0  0  0  0
 39 38  1  0  0  0  0
 40 32  2  0  0  0  0
 41 42  1  0  0  0  0
 42 43  1  0  0  0  0
 44 42  1  0  0  0  0
 45 42  1  0  0  0  0
M  END
>  <minimizedAffinity>
-5.88025665

$$$$

 OpenBabel03272504433D

 45 47  0  0  0  0  0  0  0  0999 V2000
   38.3090   26.8020   32.5840 C   0  0  0  0  0  0  0  0  0  0  0  0
   38.4160   26.7010   33.7050 H   0  0  0  0  0  0  0  0  0  0  0  0
   39.3460   27.0750   32.2650 H   0  0  0  0  0  0  0  0  0  0  0  0
   36.5660   27.5980   34.8630 Cl  0  0  0  0  0  0  0  0  0  0  0  0
   36.5780   28.4130   33.2970 C   0  0  0  0  0  0  0  0  0  0  0  0
   35.7540   29.4630   33.0980 C   0  0  0  0  0  0  0  0  0  0  0  0
   35.7530   30.1130   31.8810 C   0  0  0  0  0  0  0  0  0  0  0  0
   36.6070   29.6670   30.8850 C   0  0  0  0  0  0  0  0  0  0  0  0
   37.4370   28.5660   31.1650 C   0  0  0  0  0  0  0  0  0  0  0  0
   37.4480   27.9230   32.3470 C   0  0  0  0  0  0  0  0  0  0  0  0
   35.0750   30.9650   31.7400 H   0  0  0  0  0  0  0  0  0  0  0  0
   36.5320   30.2370   29.9750 H   0  0  0  0  0  0  0  0  0  0  0  0
   37.9850   28.3890   30.3140 H   0  0  0  0  0  0  0  0  0  0  0  0
   32.7680   30.0170   35.1880 C   0  0  0  0  0  0  0  0  0  0  0  0
   33.2940   30.8840   36.1880 C   0  0  0  0  0  0  0  0  0  0  0  0
   34.6400   31.2350   36.0970 C   0  0  0  0  0  0  0  0  0  0  0  0
   35.3970   30.7490   35.0790 N   0  0  0  0  0  0  0  0  0  0  0  0
   34.8580   29.9240   34.1450 C   0  0  0  0  0  0  0  0  0  0  0  0
   33.5750   29.5780   34.2140 N   0  0  0  0  0  0  0  0  0  0  0  0
   31.7260   29.7450   35.2580 H   0  0  0  0  0  0  0  0  0  0  0  0
   32.6840   31.2600   36.9870 H   0  0  0  0  0  0  0  0  0  0  0  0
   35.1320   32.0980   37.0990 N   0  0  0  0  0  0  0  0  0  0  0  0
   35.5750   31.9790   38.0170 H   0  0  0  0  0  0  0  0  0  0  0  0
   34.9500   33.0620   36.7030 H   0  0  0  0  0  0  0  0  0  0  0  0
   37.9870   25.4940   32.0290 C   0  0  0  0  0  0  0  0  0  0  0  0
   37.3850   25.6140   31.0850 H   0  0  0  0  0  0  0  0  0  0  0  0
   38.8900   24.9190   31.6890 H   0  0  0  0  0  0  0  0  0  0  0  0
   37.3210   24.7020   32.9240 O   0  0  0  0  0  0  0  0  0  0  0  0
   37.3210   22.2670   33.9170 O   0  0  0  0  0  0  0  0  0  0  0  0
   38.1730   23.3060   33.2320 P   0  0  2  0  0  0  0  0  0  0  0  0
   39.4710   23.7650   34.2860 O   0  0  0  0  0  0  0  0  0  0  0  0
   39.2120   23.7120   35.6700 C   0  0  0  0  0  0  0  0  0  0  0  0
   38.2390   24.5330   36.2110 C   0  0  0  0  0  0  0  0  0  0  0  0
   37.7110   25.1950   35.5080 H   0  0  0  0  0  0  0  0  0  0  0  0
   37.9010   24.5650   37.5490 C   0  0  0  0  0  3  0  0  0  0  0  0
   38.5780   23.7280   38.3920 C   0  0  0  0  0  0  0  0  0  0  0  0
   38.2990   23.7650   39.4560 H   0  0  0  0  0  0  0  0  0  0  0  0
   39.5580   22.8930   37.8900 C   0  0  0  0  0  0  0  0  0  0  0  0
   40.0860   22.2310   38.5810 H   0  0  0  0  0  0  0  0  0  0  0  0
   39.8720   22.8820   36.5530 C   0  0  0  0  0  3  0  0  0  0  0  0
   38.8820   22.6600   31.8850 O   0  0  0  0  0  0  0  0  0  0  0  0
   37.9840   21.9020   31.1700 C   0  0  0  0  0  0  0  0  0  0  0  0
   36.7300   22.5080   31.1020 F   0  0  0  0  0  0  0  0  0  0  0  0
   38.3910   21.7260   29.8560 F   0  0  0  0  0  0  0  0  0  0  0  0
   37.8280   20.6610   31.7730 F   0  0  0  0  0  0  0  0  0  0  0  0
  1  2  1  0  0  0  0
  3  1  1  0  0  0  0
  5  4  1  0  0  0  0
  6  5  1  0  0  0  0
  6 18  1  0  0  0  0
  7  6  2  0  0  0  0
  8  9  2  0  0  0  0
  8  7  1  0  0  0  0
  9 10  1  0  0  0  0
 10  1  1  0  0  0  0
 10  5  2  0  0  0  0
 11  7  1  0  0  0  0
 12  8  1  0  0  0  0
 13  9  1  0  0  0  0
 14 20  1  0  0  0  0
 14 15  1  0  0  0  0
 15 21  1  0  0  0  0
 16 15  2  0  0  0  0
 16 22  1  0  0  0  0
 17 16  1  0  0  0  0
 18 19  1  0  0  0  0
 18 17  2  0  0  0  0
 19 14  2  0  0  0  0
 22 23  1  0  0  0  0
 24 22  1  0  0  0  0
 25  1  1  0  0  0  0
 25 28  1  0  0  0  0
 26 25  1  0  0  0  0
 27 25  1  0  0  0  0
 28 30  1  0  0  0  0
 30 29  2  1  0  0  0
 30 31  1  0  0  0  0
 31 32  1  0  0  0  0
 32 33  2  0  0  0  0
 32 40  1  0  0  0  0
 33 35  1  0  0  0  0
 34 33  1  0  0  0  0
 35 36  2  0  0  0  0
 36 37  1  0  0  0  0
 38 36  1  0  0  0  0
 38 39  1  0  0  0  0
 40 38  2  0  0  0  0
 41 30  1  0  0  0  0
 42 45  1  0  0  0  0
 42 41  1  0  0  0  0
 43 42  1  0  0  0  0
 44 42  1  0  0  0  0
M  END
>  <minimizedAffinity>
-5.87581968

$$$$
