
 OpenBabel03272510133D

 41 44  0  0  0  0  0  0  0  0999 V2000
   38.4360   31.4210   48.7990 C   0  0  0  0  0  0  0  0  0  0  0  0
   38.4590   32.6230   49.4630 C   0  0  0  0  0  0  0  0  0  0  0  0
   39.0340   33.5580   48.6050 C   0  0  0  0  0  0  0  0  0  0  0  0
   39.3380   32.9250   47.4770 N   0  0  0  0  0  0  0  0  0  0  0  0
   38.9830   31.6940   47.6120 N   0  0  0  0  0  0  0  0  0  0  0  0
   38.1510   32.9790   50.4370 H   0  0  0  0  0  0  0  0  0  0  0  0
   39.2390   34.6260   48.7400 H   0  0  0  0  0  0  0  0  0  0  0  0
   39.9650   33.4650   46.3000 C   0  0  0  0  0  0  0  0  0  0  0  0
   40.6210   34.3110   46.5590 H   0  0  0  0  0  0  0  0  0  0  0  0
   39.1550   33.9160   45.6610 H   0  0  0  0  0  0  0  0  0  0  0  0
   40.6660   32.3760   45.5580 C   0  0  0  0  0  0  0  0  0  0  0  0
   41.7680   32.6560   45.5940 H   0  0  0  0  0  0  0  0  0  0  0  0
   40.6720   31.4110   46.1640 H   0  0  0  0  0  0  0  0  0  0  0  0
   40.2340   32.1150   44.1810 C   0  0  0  0  0  0  0  0  0  0  0  0
   39.5570   32.8540   43.2380 C   0  0  0  0  0  0  0  0  0  0  0  0
   39.2310   33.8190   43.6020 H   0  0  0  0  0  0  0  0  0  0  0  0
   39.3060   32.3730   41.9740 C   0  0  0  0  0  3  0  0  0  0  0  0
   39.7160   31.1220   41.5690 C   0  0  0  0  0  0  0  0  0  0  0  0
   39.4470   30.8840   40.5500 H   0  0  0  0  0  0  0  0  0  0  0  0
   40.3970   30.3540   42.4910 C   0  0  0  0  0  0  0  0  0  0  0  0
   40.7000   29.3810   42.1390 H   0  0  0  0  0  0  0  0  0  0  0  0
   40.6460   30.8450   43.7640 C   0  0  0  0  0  3  0  0  0  0  0  0
   37.8940   30.3690   49.5100 O   0  0  0  0  0  0  0  0  0  0  0  0
   34.1530   28.8600   48.3200 C   0  0  0  0  0  0  0  0  0  0  0  0
   34.7650   28.4180   49.4580 C   0  0  0  0  0  0  0  0  0  0  0  0
   35.9870   28.8650   49.9090 C   0  0  0  0  0  0  0  0  0  0  0  0
   36.6690   29.8080   49.2110 C   0  0  0  0  0  0  0  0  0  0  0  0
   36.0550   30.2690   48.0470 C   0  0  0  0  0  0  0  0  0  0  0  0
   34.8540   29.8110   47.6270 N   0  0  0  0  0  0  0  0  0  0  0  0
   34.2760   27.6640   50.0640 H   0  0  0  0  0  0  0  0  0  0  0  0
   36.4590   28.5040   50.8140 H   0  0  0  0  0  0  0  0  0  0  0  0
   36.4640   31.0200   47.3750 H   0  0  0  0  0  0  0  0  0  0  0  0
   32.0250   27.5940   48.5880 C   0  0  0  0  0  0  0  0  0  0  0  0
   32.8860   28.4060   47.8340 C   0  0  0  0  0  0  0  0  0  0  0  0
   32.4630   28.7610   46.5790 C   0  0  0  0  0  0  0  0  0  0  0  0
   31.2510   28.3240   46.1160 N   0  0  0  0  0  0  0  0  0  0  0  0
   30.4540   27.5340   46.8970 C   0  0  0  0  0  0  0  0  0  0  0  0
   30.8310   27.1600   48.1410 N   0  0  0  0  0  0  0  0  0  0  0  0
   32.3140   27.2870   49.5820 H   0  0  0  0  0  0  0  0  0  0  0  0
   33.0660   29.3900   45.9200 H   0  0  0  0  0  0  0  0  0  0  0  0
   29.5010   27.1890   46.5360 H   0  0  0  0  0  0  0  0  0  0  0  0
  1  2  1  0  0  0  0
  1 23  1  0  0  0  0
  2  6  1  0  0  0  0
  3  7  1  0  0  0  0
  3  2  2  0  0  0  0
  4  5  1  0  0  0  0
  4  3  1  0  0  0  0
  5  1  2  0  0  0  0
  8  9  1  0  0  0  0
  8  4  1  0  0  0  0
 10  8  1  0  0  0  0
 11 12  1  0  0  0  0
 11 13  1  0  0  0  0
 11  8  1  0  0  0  0
 14 11  1  0  0  0  0
 15 16  1  0  0  0  0
 15 14  2  0  0  0  0
 17 15  1  0  0  0  0
 18 17  2  0  0  0  0
 18 20  1  0  0  0  0
 19 18  1  0  0  0  0
 20 22  2  0  0  0  0
 21 20  1  0  0  0  0
 22 14  1  0  0  0  0
 24 25  1  0  0  0  0
 25 26  2  0  0  0  0
 25 30  1  0  0  0  0
 26 31  1  0  0  0  0
 27 23  1  0  0  0  0
 27 26  1  0  0  0  0
 28 27  2  0  0  0  0
 29 28  1  0  0  0  0
 29 24  2  0  0  0  0
 32 28  1  0  0  0  0
 33 39  1  0  0  0  0
 34 24  1  0  0  0  0
 34 33  2  0  0  0  0
 35 34  1  0  0  0  0
 36 35  2  0  0  0  0
 36 37  1  0  0  0  0
 37 38  2  0  0  0  0
 38 33  1  0  0  0  0
 40 35  1  0  0  0  0
 41 37  1  0  0  0  0
M  END
>  <minimizedAffinity>
-6.40820551

>  <minimizedRMSD>
1.45800197

$$$$
