
 OpenBabel03272502293D

 23 24  0  0  0  0  0  0  0  0999 V2000
   39.3120   33.0610   47.7290 C   0  0  0  0  0  0  0  0  0  0  0  0
   38.6100   33.9220   47.6970 H   0  0  0  0  0  0  0  0  0  0  0  0
   40.2220   33.4610   48.2440 H   0  0  0  0  0  0  0  0  0  0  0  0
   39.6370   32.5880   46.3600 C   0  0  0  0  0  0  0  0  0  0  0  0
   39.8560   33.5340   45.3620 C   0  0  0  0  0  0  0  0  0  0  0  0
   39.7810   34.5810   45.6200 H   0  0  0  0  0  0  0  0  0  0  0  0
   40.1610   33.1110   44.0710 C   0  0  0  0  0  0  0  0  0  0  0  0
   40.2410   31.7480   43.8170 C   0  0  0  0  0  0  0  0  0  0  0  0
   40.4810   31.4980   42.7960 H   0  0  0  0  0  0  0  0  0  0  0  0
   40.0170   30.8190   44.8350 C   0  0  0  0  0  0  0  0  0  0  0  0
   40.0930   29.7870   44.5720 H   0  0  0  0  0  0  0  0  0  0  0  0
   39.7120   31.2380   46.1240 C   0  0  0  0  0  0  0  0  0  0  0  0
   37.4120   32.0680   48.9320 C   0  0  0  0  0  0  0  0  0  0  0  0
   38.6710   32.0120   48.5620 C   0  0  0  0  0  0  0  0  0  0  0  0
   36.7700   29.5800   51.5830 C   0  0  0  0  0  0  0  0  0  0  0  0
   37.4400   30.5550   50.8110 C   0  0  0  0  0  0  0  0  0  0  0  0
   36.7540   31.0840   49.7260 C   0  0  0  0  0  0  0  0  0  0  0  0
   35.5060   30.6600   49.4580 N   0  0  0  0  0  0  0  0  0  0  0  0
   34.8850   29.7320   50.2020 C   0  0  0  0  0  0  0  0  0  0  0  0
   35.5130   29.1930   51.2610 N   0  0  0  0  0  0  0  0  0  0  0  0
   37.2970   29.1570   52.4340 H   0  0  0  0  0  0  0  0  0  0  0  0
   38.4430   30.8240   51.1160 H   0  0  0  0  0  0  0  0  0  0  0  0
   33.8750   29.4250   49.9400 H   0  0  0  0  0  0  0  0  0  0  0  0
  1  3  1  0  0  0  0
  1 14  1  0  0  0  0
  2  1  1  0  0  0  0
  4  1  1  0  0  0  0
  5  6  1  0  0  0  0
  5  4  2  0  0  0  0
  7  5  1  0  0  0  0
  8  7  2  0  0  0  0
  8 10  1  0  0  0  0
  9  8  1  0  0  0  0
 10 12  2  0  0  0  0
 11 10  1  0  0  0  0
 12  4  1  0  0  0  0
 13 17  1  0  0  0  0
 14 13  2  0  0  0  0
 15 21  1  0  0  0  0
 16 22  1  0  0  0  0
 16 15  2  0  0  0  0
 17 16  1  0  0  0  0
 18 17  2  0  0  0  0
 18 19  1  0  0  0  0
 19 20  2  0  0  0  0
 20 15  1  0  0  0  0
 23 19  1  0  0  0  0
M  END
>  <minimizedAffinity>
-5.37097692

>  <minimizedRMSD>
2.38121581

$$$$
