REMARK  Name = 
REMARK  2 active torsions:
REMARK  status: ('A' for Active; 'I' for Inactive)
REMARK    1  A    between atoms: C_5  and  S_7
REMARK    2  A    between atoms: S_7  and  C_11
REMARK                            x       y       z     vdW  Elec       q    Type
REMARK                         _______ _______ _______ _____ _____    ______ ____
ROOT
ATOM      1  S   UNL     1      34.545  28.249  49.302  0.00  0.00    +0.000 S 
ENDROOT
BRANCH   1   6
ATOM      2  C   UNL     1      37.263  30.177  51.423  0.00  0.00    +0.000 A 
ATOM      3  C   UNL     1      38.114  30.756  50.472  0.00  0.00    +0.000 A 
ATOM      4  C   UNL     1      37.846  30.549  49.114  0.00  0.00    +0.000 A 
ATOM      5  N   UNL     1      36.762  29.787  48.784  0.00  0.00    +0.000 NA
ATOM      6  C   UNL     1      35.967  29.247  49.718  0.00  0.00    +0.000 A 
ATOM      7  N   UNL     1      36.204  29.433  51.022  0.00  0.00    +0.000 NA
ATOM      8  H   UNL     1      37.415  30.300  52.486  0.00  0.00    +0.000 HD
ATOM      9  H   UNL     1      38.952  31.346  50.831  0.00  0.00    +0.000 HD
ATOM     10  H   UNL     1      38.494  30.989  48.380  0.00  0.00    +0.000 HD
ENDBRANCH   1   6
BRANCH   1  11
ATOM     11  C   UNL     1      34.951  26.518  49.155  0.00  0.00    +0.000 A 
ATOM     12  C   UNL     1      35.080  25.766  48.011  0.00  0.00    +0.000 A 
ATOM     13  H   UNL     1      34.906  26.336  47.101  0.00  0.00    +0.000 HD
ATOM     14  C   UNL     1      35.403  24.428  48.106  0.00  0.00    +0.000 A 
ATOM     15  C   UNL     1      35.595  23.839  49.338  0.00  0.00    +0.000 A 
ATOM     16  H   UNL     1      35.846  22.799  49.412  0.00  0.00    +0.000 HD
ATOM     17  C   UNL     1      35.471  24.572  50.495  0.00  0.00    +0.000 A 
ATOM     18  H   UNL     1      35.630  24.073  51.456  0.00  0.00    +0.000 HD
ATOM     19  C   UNL     1      35.145  25.923  50.400  0.00  0.00    +0.000 A 
ENDBRANCH   1  11
TORSDOF 2
