
 OpenBabel03262520473D

 34 36  0  0  1  0  0  0  0  0999 V2000
   37.4120   26.4200   35.2140 C   0  0  1  0  0  0  0  0  0  0  0  0
   38.1170   27.7330   35.5020 C   0  0  0  0  0  0  0  0  0  0  0  0
   37.2480   27.5720   34.3080 C   0  0  2  0  0  0  0  0  0  0  0  0
   36.5490   26.1050   35.8350 H   0  0  0  0  0  0  0  0  0  0  0  0
   37.6740   28.3970   36.2960 H   0  0  0  0  0  0  0  0  0  0  0  0
   39.2060   27.8090   35.4030 H   0  0  0  0  0  0  0  0  0  0  0  0
   37.8180   27.5250   33.3480 H   0  0  0  0  0  0  0  0  0  0  0  0
   38.3150   25.2730   34.8470 C   0  0  0  0  0  0  0  0  0  0  0  0
   39.2480   25.6230   34.3190 H   0  0  0  0  0  0  0  0  0  0  0  0
   37.7480   24.6200   34.1420 H   0  0  0  0  0  0  0  0  0  0  0  0
   38.1400   23.8040   38.2820 C   0  0  0  0  0  0  0  0  0  0  0  0
   37.8440   24.5890   37.1200 C   0  0  0  0  0  0  0  0  0  0  0  0
   38.6570   24.4420   36.0260 C   0  0  0  0  0  0  0  0  0  0  0  0
   39.6950   23.5830   36.0620 N   0  0  0  0  0  0  0  0  0  0  0  0
   39.9540   22.8560   37.1660 C   0  0  0  0  0  0  0  0  0  0  0  0
   39.1820   22.9680   38.2620 N   0  0  0  0  0  0  0  0  0  0  0  0
   37.5190   23.9010   39.1490 H   0  0  0  0  0  0  0  0  0  0  0  0
   36.9850   25.2400   37.2200 H   0  0  0  0  0  0  0  0  0  0  0  0
   40.7740   22.1550   37.2400 H   0  0  0  0  0  0  0  0  0  0  0  0
   35.8830   28.1600   34.2280 C   0  0  0  0  0  0  0  0  0  0  0  0
   35.2940   27.5650   33.4840 H   0  0  0  0  0  0  0  0  0  0  0  0
   35.3130   28.0600   35.1740 H   0  0  0  0  0  0  0  0  0  0  0  0
   35.8440   29.5990   33.7280 C   0  0  0  0  0  0  0  0  0  0  0  0
   35.1970   29.6960   32.8360 H   0  0  0  0  0  0  0  0  0  0  0  0
   36.8620   29.9940   33.5300 H   0  0  0  0  0  0  0  0  0  0  0  0
   35.1570   30.3820   34.8180 C   0  0  0  0  0  0  0  0  0  0  0  0
   33.7890   30.2120   35.0200 C   0  0  0  0  0  0  0  0  0  0  0  0
   33.2080   29.5280   34.4090 H   0  0  0  0  0  0  0  0  0  0  0  0
   33.2070   30.9560   36.0370 C   0  0  0  0  0  3  0  0  0  0  0  0
   33.9130   31.8360   36.8370 C   0  0  0  0  0  0  0  0  0  0  0  0
   33.3980   32.3900   37.6180 H   0  0  0  0  0  0  0  0  0  0  0  0
   35.2700   31.9990   36.6290 C   0  0  0  0  0  0  0  0  0  0  0  0
   35.8600   32.6800   37.2350 H   0  0  0  0  0  0  0  0  0  0  0  0
   35.8660   31.2670   35.6230 C   0  0  0  0  0  3  0  0  0  0  0  0
  1  2  1  0  0  0  0
  1  4  1  1  0  0  0
  2  5  1  0  0  0  0
  3  7  1  6  0  0  0
  3  1  1  0  0  0  0
  3  2  1  0  0  0  0
  6  2  1  0  0  0  0
  8  1  1  0  0  0  0
  8 13  1  0  0  0  0
  9  8  1  0  0  0  0
 10  8  1  0  0  0  0
 11 17  1  0  0  0  0
 12 18  1  0  0  0  0
 12 11  2  0  0  0  0
 13 14  2  0  0  0  0
 13 12  1  0  0  0  0
 14 15  1  0  0  0  0
 15 19  1  0  0  0  0
 15 16  2  0  0  0  0
 16 11  1  0  0  0  0
 20  3  1  0  0  0  0
 20 22  1  0  0  0  0
 21 20  1  0  0  0  0
 23 20  1  0  0  0  0
 23 26  1  0  0  0  0
 24 23  1  0  0  0  0
 25 23  1  0  0  0  0
 26 27  2  0  0  0  0
 26 34  1  0  0  0  0
 27 29  1  0  0  0  0
 28 27  1  0  0  0  0
 29 30  2  0  0  0  0
 30 31  1  0  0  0  0
 32 30  1  0  0  0  0
 32 33  1  0  0  0  0
 34 32  2  0  0  0  0
M  END
>  <minimizedAffinity>
-5.18995047

$$$$

 OpenBabel03262520473D

 34 36  0  0  1  0  0  0  0  0999 V2000
   36.0710   28.2940   34.0520 C   0  0  1  0  0  0  0  0  0  0  0  0
   36.8580   27.5330   33.0020 C   0  0  0  0  0  0  0  0  0  0  0  0
   37.4300   27.8050   34.3460 C   0  0  2  0  0  0  0  0  0  0  0  0
   35.2110   27.8120   34.5600 H   0  0  0  0  0  0  0  0  0  0  0  0
   36.5920   26.4520   32.8350 H   0  0  0  0  0  0  0  0  0  0  0  0
   37.2350   28.0490   32.1120 H   0  0  0  0  0  0  0  0  0  0  0  0
   38.2410   28.5740   34.3360 H   0  0  0  0  0  0  0  0  0  0  0  0
   35.8240   29.7460   33.7430 C   0  0  0  0  0  0  0  0  0  0  0  0
   35.2910   29.8830   32.7590 H   0  0  0  0  0  0  0  0  0  0  0  0
   36.8210   30.2400   33.6630 H   0  0  0  0  0  0  0  0  0  0  0  0
   35.1610   31.9580   36.6860 C   0  0  0  0  0  0  0  0  0  0  0  0
   35.8310   31.2800   35.6160 C   0  0  0  0  0  0  0  0  0  0  0  0
   35.0910   30.4260   34.8380 C   0  0  0  0  0  0  0  0  0  0  0  0
   33.7790   30.2450   35.0890 N   0  0  0  0  0  0  0  0  0  0  0  0
   33.1720   30.8930   36.1010 C   0  0  0  0  0  0  0  0  0  0  0  0
   33.8590   31.7400   36.8880 N   0  0  0  0  0  0  0  0  0  0  0  0
   35.7170   32.6300   37.3060 H   0  0  0  0  0  0  0  0  0  0  0  0
   36.8830   31.5130   35.5200 H   0  0  0  0  0  0  0  0  0  0  0  0
   32.1220   30.7780   36.3380 H   0  0  0  0  0  0  0  0  0  0  0  0
   37.5420   26.7540   35.3940 C   0  0  0  0  0  0  0  0  0  0  0  0
   38.2680   27.1150   36.1670 H   0  0  0  0  0  0  0  0  0  0  0  0
   36.5980   26.5990   35.9540 H   0  0  0  0  0  0  0  0  0  0  0  0
   38.0960   25.4230   34.8980 C   0  0  0  0  0  0  0  0  0  0  0  0
   39.0530   25.5620   34.3640 H   0  0  0  0  0  0  0  0  0  0  0  0
   37.3600   24.8810   34.2700 H   0  0  0  0  0  0  0  0  0  0  0  0
   38.4320   24.6430   36.1430 C   0  0  0  0  0  0  0  0  0  0  0  0
   37.7390   24.9080   37.3220 C   0  0  0  0  0  0  0  0  0  0  0  0
   36.9630   25.6650   37.3630 H   0  0  0  0  0  0  0  0  0  0  0  0
   38.0890   24.1600   38.4390 C   0  0  0  0  0  3  0  0  0  0  0  0
   39.0720   23.1870   38.4260 C   0  0  0  0  0  0  0  0  0  0  0  0
   39.2980   22.6350   39.3350 H   0  0  0  0  0  0  0  0  0  0  0  0
   39.7550   22.9310   37.2520 C   0  0  0  0  0  0  0  0  0  0  0  0
   40.5330   22.1750   37.2000 H   0  0  0  0  0  0  0  0  0  0  0  0
   39.4200   23.6640   36.1320 C   0  0  0  0  0  3  0  0  0  0  0  0
  1  3  1  0  0  0  0
  1  4  1  1  0  0  0
  2  1  1  0  0  0  0
  2  3  1  0  0  0  0
  3  7  1  1  0  0  0
  3 20  1  0  0  0  0
  5  2  1  0  0  0  0
  6  2  1  0  0  0  0
  8  1  1  0  0  0  0
  8 13  1  0  0  0  0
  9  8  1  0  0  0  0
 10  8  1  0  0  0  0
 11 16  1  0  0  0  0
 11 17  1  0  0  0  0
 12 11  2  0  0  0  0
 13 14  2  0  0  0  0
 13 12  1  0  0  0  0
 14 15  1  0  0  0  0
 15 19  1  0  0  0  0
 15 16  2  0  0  0  0
 18 12  1  0  0  0  0
 20 22  1  0  0  0  0
 20 21  1  0  0  0  0
 23 20  1  0  0  0  0
 23 26  1  0  0  0  0
 24 23  1  0  0  0  0
 25 23  1  0  0  0  0
 26 27  1  0  0  0  0
 27 28  1  0  0  0  0
 27 29  2  0  0  0  0
 30 29  1  0  0  0  0
 30 31  1  0  0  0  0
 32 30  2  0  0  0  0
 33 32  1  0  0  0  0
 34 26  2  0  0  0  0
 34 32  1  0  0  0  0
M  END
>  <minimizedAffinity>
-4.99667883

$$$$

 OpenBabel03262520473D

 34 36  0  0  1  0  0  0  0  0999 V2000
   39.1260   26.3130   33.2760 C   0  0  1  0  0  0  0  0  0  0  0  0
   40.3370   27.1390   33.6710 C   0  0  0  0  0  0  0  0  0  0  0  0
   39.0120   27.3620   34.3060 C   0  0  2  0  0  0  0  0  0  0  0  0
   39.0520   25.2520   33.5880 H   0  0  0  0  0  0  0  0  0  0  0  0
   41.0900   26.6610   34.3570 H   0  0  0  0  0  0  0  0  0  0  0  0
   40.7590   27.8700   32.9720 H   0  0  0  0  0  0  0  0  0  0  0  0
   38.5200   28.3130   33.9850 H   0  0  0  0  0  0  0  0  0  0  0  0
   38.6180   26.5460   31.8790 C   0  0  0  0  0  0  0  0  0  0  0  0
   39.4020   26.3200   31.1010 H   0  0  0  0  0  0  0  0  0  0  0  0
   38.3590   27.6280   31.7990 H   0  0  0  0  0  0  0  0  0  0  0  0
   36.2250   23.6770   31.6940 C   0  0  0  0  0  0  0  0  0  0  0  0
   37.4060   24.4510   31.9370 C   0  0  0  0  0  0  0  0  0  0  0  0
   37.3750   25.7830   31.6100 C   0  0  0  0  0  0  0  0  0  0  0  0
   36.2610   26.3260   31.0790 N   0  0  0  0  0  0  0  0  0  0  0  0
   35.1640   25.5780   30.8590 C   0  0  0  0  0  0  0  0  0  0  0  0
   35.1500   24.2680   31.1650 N   0  0  0  0  0  0  0  0  0  0  0  0
   36.2240   22.6350   31.9400 H   0  0  0  0  0  0  0  0  0  0  0  0
   38.2300   23.8980   32.3660 H   0  0  0  0  0  0  0  0  0  0  0  0
   34.2490   25.9710   30.4360 H   0  0  0  0  0  0  0  0  0  0  0  0
   38.7000   26.9020   35.6870 C   0  0  0  0  0  0  0  0  0  0  0  0
   39.6530   26.5430   36.1530 H   0  0  0  0  0  0  0  0  0  0  0  0
   38.3610   27.7230   36.3510 H   0  0  0  0  0  0  0  0  0  0  0  0
   37.7370   25.7230   35.7580 C   0  0  0  0  0  0  0  0  0  0  0  0
   37.5500   25.2970   34.7560 H   0  0  0  0  0  0  0  0  0  0  0  0
   36.7880   25.9990   36.2620 H   0  0  0  0  0  0  0  0  0  0  0  0
   38.4720   24.6530   36.5250 C   0  0  0  0  0  0  0  0  0  0  0  0
   38.0700   24.3480   37.8230 C   0  0  0  0  0  0  0  0  0  0  0  0
   37.2400   24.8650   38.2950 H   0  0  0  0  0  0  0  0  0  0  0  0
   38.7810   23.3550   38.4840 C   0  0  0  0  0  3  0  0  0  0  0  0
   39.8440   22.6740   37.9180 C   0  0  0  0  0  0  0  0  0  0  0  0
   40.3600   21.9050   38.4880 H   0  0  0  0  0  0  0  0  0  0  0  0
   40.2350   22.9830   36.6280 C   0  0  0  0  0  0  0  0  0  0  0  0
   41.0640   22.4720   36.1480 H   0  0  0  0  0  0  0  0  0  0  0  0
   39.5400   23.9680   35.9570 C   0  0  0  0  0  3  0  0  0  0  0  0
  1  4  1  1  0  0  0
  1  2  1  0  0  0  0
  1  3  1  0  0  0  0
  2  3  1  0  0  0  0
  2  5  1  0  0  0  0
  3  7  1  6  0  0  0
  3 20  1  0  0  0  0
  6  2  1  0  0  0  0
  8  1  1  0  0  0  0
  9  8  1  0  0  0  0
 10  8  1  0  0  0  0
 11 12  1  0  0  0  0
 11 17  1  0  0  0  0
 12 18  1  0  0  0  0
 13  8  1  0  0  0  0
 13 12  2  0  0  0  0
 14 13  1  0  0  0  0
 15 14  2  0  0  0  0
 15 16  1  0  0  0  0
 16 11  2  0  0  0  0
 19 15  1  0  0  0  0
 20 23  1  0  0  0  0
 20 21  1  0  0  0  0
 20 22  1  0  0  0  0
 23 25  1  0  0  0  0
 23 26  1  0  0  0  0
 24 23  1  0  0  0  0
 26 27  1  0  0  0  0
 27 28  1  0  0  0  0
 27 29  2  0  0  0  0
 30 29  1  0  0  0  0
 30 31  1  0  0  0  0
 32 30  2  0  0  0  0
 33 32  1  0  0  0  0
 34 26  2  0  0  0  0
 34 32  1  0  0  0  0
M  END
>  <minimizedAffinity>
-4.97230005

$$$$

 OpenBabel03262520473D

 34 36  0  0  1  0  0  0  0  0999 V2000
   38.2340   26.8820   33.0980 C   0  0  1  0  0  0  0  0  0  0  0  0
   39.6470   26.3380   33.2000 C   0  0  0  0  0  0  0  0  0  0  0  0
   39.1270   27.3210   34.1850 C   0  0  2  0  0  0  0  0  0  0  0  0
   37.3700   26.2340   33.3490 H   0  0  0  0  0  0  0  0  0  0  0  0
   39.7760   25.3030   33.6220 H   0  0  0  0  0  0  0  0  0  0  0  0
   40.4040   26.6240   32.4610 H   0  0  0  0  0  0  0  0  0  0  0  0
   39.5720   28.3400   34.0730 H   0  0  0  0  0  0  0  0  0  0  0  0
   37.9710   27.7680   31.9100 C   0  0  0  0  0  0  0  0  0  0  0  0
   37.9350   27.1840   30.9470 H   0  0  0  0  0  0  0  0  0  0  0  0
   38.8200   28.4880   31.8420 H   0  0  0  0  0  0  0  0  0  0  0  0
   35.2860   30.2810   31.2270 C   0  0  0  0  0  0  0  0  0  0  0  0
   36.4700   29.4850   31.0960 C   0  0  0  0  0  0  0  0  0  0  0  0
   36.7370   28.5710   32.0850 C   0  0  0  0  0  0  0  0  0  0  0  0
   35.9010   28.4440   33.1350 N   0  0  0  0  0  0  0  0  0  0  0  0
   34.7950   29.2050   33.2350 C   0  0  0  0  0  0  0  0  0  0  0  0
   34.4940   30.1120   32.2890 N   0  0  0  0  0  0  0  0  0  0  0  0
   35.0560   31.0010   30.4680 H   0  0  0  0  0  0  0  0  0  0  0  0
   37.0550   29.6840   30.2090 H   0  0  0  0  0  0  0  0  0  0  0  0
   34.0960   29.1360   34.0590 H   0  0  0  0  0  0  0  0  0  0  0  0
   38.7280   26.9340   35.5660 C   0  0  0  0  0  0  0  0  0  0  0  0
   39.6470   26.5880   36.1050 H   0  0  0  0  0  0  0  0  0  0  0  0
   38.3630   27.7910   36.1670 H   0  0  0  0  0  0  0  0  0  0  0  0
   37.7460   25.7710   35.6380 C   0  0  0  0  0  0  0  0  0  0  0  0
   37.5760   25.3280   34.6400 H   0  0  0  0  0  0  0  0  0  0  0  0
   36.7890   26.0700   36.1130 H   0  0  0  0  0  0  0  0  0  0  0  0
   38.4460   24.7070   36.4430 C   0  0  0  0  0  0  0  0  0  0  0  0
   38.0030   24.4260   37.7330 C   0  0  0  0  0  0  0  0  0  0  0  0
   37.1640   24.9580   38.1710 H   0  0  0  0  0  0  0  0  0  0  0  0
   38.6830   23.4360   38.4310 C   0  0  0  0  0  3  0  0  0  0  0  0
   39.7550   22.7360   37.9080 C   0  0  0  0  0  0  0  0  0  0  0  0
   40.2450   21.9710   38.5060 H   0  0  0  0  0  0  0  0  0  0  0  0
   40.1890   23.0210   36.6260 C   0  0  0  0  0  0  0  0  0  0  0  0
   41.0260   22.4940   36.1790 H   0  0  0  0  0  0  0  0  0  0  0  0
   39.5240   24.0010   35.9180 C   0  0  0  0  0  3  0  0  0  0  0  0
  1  2  1  0  0  0  0
  1  4  1  1  0  0  0
  1  3  1  0  0  0  0
  2  5  1  0  0  0  0
  2  3  1  0  0  0  0
  3  7  1  6  0  0  0
  3 20  1  0  0  0  0
  6  2  1  0  0  0  0
  8 13  1  0  0  0  0
  8  1  1  0  0  0  0
  9  8  1  0  0  0  0
 10  8  1  0  0  0  0
 11 16  1  0  0  0  0
 12 11  2  0  0  0  0
 12 13  1  0  0  0  0
 13 14  2  0  0  0  0
 14 15  1  0  0  0  0
 15 19  1  0  0  0  0
 16 15  2  0  0  0  0
 17 11  1  0  0  0  0
 18 12  1  0  0  0  0
 20 23  1  0  0  0  0
 20 21  1  0  0  0  0
 20 22  1  0  0  0  0
 23 25  1  0  0  0  0
 23 26  1  0  0  0  0
 24 23  1  0  0  0  0
 26 27  1  0  0  0  0
 27 28  1  0  0  0  0
 27 29  2  0  0  0  0
 30 29  1  0  0  0  0
 30 31  1  0  0  0  0
 32 30  2  0  0  0  0
 33 32  1  0  0  0  0
 34 26  2  0  0  0  0
 34 32  1  0  0  0  0
M  END
>  <minimizedAffinity>
-4.80842161

$$$$

 OpenBabel03262520473D

 34 36  0  0  1  0  0  0  0  0999 V2000
   35.9120   23.6560   31.2410 C   0  0  1  0  0  0  0  0  0  0  0  0
   35.1190   24.8990   30.8800 C   0  0  0  0  0  0  0  0  0  0  0  0
   36.3090   24.9750   31.7670 C   0  0  2  0  0  0  0  0  0  0  0  0
   36.5580   23.1700   30.4830 H   0  0  0  0  0  0  0  0  0  0  0  0
   35.2880   25.3450   29.8610 H   0  0  0  0  0  0  0  0  0  0  0  0
   34.1080   25.0440   31.2770 H   0  0  0  0  0  0  0  0  0  0  0  0
   36.0530   25.1730   32.8370 H   0  0  0  0  0  0  0  0  0  0  0  0
   35.1900   22.6640   32.1130 C   0  0  0  0  0  0  0  0  0  0  0  0
   34.0730   22.8160   32.0900 H   0  0  0  0  0  0  0  0  0  0  0  0
   35.5360   22.8320   33.1600 H   0  0  0  0  0  0  0  0  0  0  0  0
   36.9050   19.7760   30.4670 C   0  0  0  0  0  0  0  0  0  0  0  0
   36.5370   21.1110   30.8340 C   0  0  0  0  0  0  0  0  0  0  0  0
   35.5380   21.2660   31.7610 C   0  0  0  0  0  0  0  0  0  0  0  0
   34.9350   20.1860   32.2970 N   0  0  0  0  0  0  0  0  0  0  0  0
   35.2980   18.9410   31.9340 C   0  0  0  0  0  0  0  0  0  0  0  0
   36.2730   18.7420   31.0290 N   0  0  0  0  0  0  0  0  0  0  0  0
   37.6820   19.6290   29.7450 H   0  0  0  0  0  0  0  0  0  0  0  0
   37.0970   21.8900   30.3330 H   0  0  0  0  0  0  0  0  0  0  0  0
   34.8430   18.0460   32.3380 H   0  0  0  0  0  0  0  0  0  0  0  0
   37.6200   25.5050   31.3020 C   0  0  0  0  0  0  0  0  0  0  0  0
   38.4270   24.9740   31.8690 H   0  0  0  0  0  0  0  0  0  0  0  0
   37.8290   25.2690   30.2380 H   0  0  0  0  0  0  0  0  0  0  0  0
   37.8330   26.9890   31.5730 C   0  0  0  0  0  0  0  0  0  0  0  0
   36.8900   27.5560   31.4700 H   0  0  0  0  0  0  0  0  0  0  0  0
   38.6300   27.4150   30.9280 H   0  0  0  0  0  0  0  0  0  0  0  0
   38.2060   27.0790   33.0310 C   0  0  0  0  0  0  0  0  0  0  0  0
   39.4950   26.7310   33.4270 C   0  0  0  0  0  0  0  0  0  0  0  0
   40.2370   26.3970   32.7090 H   0  0  0  0  0  0  0  0  0  0  0  0
   39.7850   26.8320   34.7820 C   0  0  0  0  0  3  0  0  0  0  0  0
   38.8680   27.2530   35.7280 C   0  0  0  0  0  0  0  0  0  0  0  0
   39.1570   27.3120   36.7740 H   0  0  0  0  0  0  0  0  0  0  0  0
   37.5900   27.5970   35.3250 C   0  0  0  0  0  0  0  0  0  0  0  0
   36.8410   27.9330   36.0360 H   0  0  0  0  0  0  0  0  0  0  0  0
   37.2850   27.5030   33.9830 C   0  0  0  0  0  3  0  0  0  0  0  0
  1  4  1  6  0  0  0
  1  3  1  0  0  0  0
  1  8  1  0  0  0  0
  2  1  1  0  0  0  0
  2  6  1  0  0  0  0
  2  3  1  0  0  0  0
  3  7  1  1  0  0  0
  5  2  1  0  0  0  0
  8 10  1  0  0  0  0
  9  8  1  0  0  0  0
 11 12  2  0  0  0  0
 11 16  1  0  0  0  0
 12 13  1  0  0  0  0
 13  8  1  0  0  0  0
 13 14  2  0  0  0  0
 15 14  1  0  0  0  0
 15 19  1  0  0  0  0
 16 15  2  0  0  0  0
 17 11  1  0  0  0  0
 18 12  1  0  0  0  0
 20 23  1  0  0  0  0
 20  3  1  0  0  0  0
 20 21  1  0  0  0  0
 22 20  1  0  0  0  0
 23 26  1  0  0  0  0
 24 23  1  0  0  0  0
 25 23  1  0  0  0  0
 26 27  2  0  0  0  0
 26 34  1  0  0  0  0
 27 29  1  0  0  0  0
 28 27  1  0  0  0  0
 29 30  2  0  0  0  0
 30 31  1  0  0  0  0
 32 30  1  0  0  0  0
 32 33  1  0  0  0  0
 34 32  2  0  0  0  0
M  END
>  <minimizedAffinity>
-4.80307484

$$$$

 OpenBabel03262520473D

 34 36  0  0  1  0  0  0  0  0999 V2000
   41.7320   23.5910   35.3020 C   0  0  1  0  0  0  0  0  0  0  0  0
   42.4360   23.4970   33.9610 C   0  0  0  0  0  0  0  0  0  0  0  0
   41.4660   24.5860   34.2470 C   0  0  2  0  0  0  0  0  0  0  0  0
   42.2940   23.9090   36.2030 H   0  0  0  0  0  0  0  0  0  0  0  0
   43.5040   23.8460   33.9090 H   0  0  0  0  0  0  0  0  0  0  0  0
   42.1890   22.6890   33.2630 H   0  0  0  0  0  0  0  0  0  0  0  0
   40.4990   24.4740   33.6990 H   0  0  0  0  0  0  0  0  0  0  0  0
   40.7460   22.4900   35.5890 C   0  0  0  0  0  0  0  0  0  0  0  0
   41.2560   21.5490   35.9440 H   0  0  0  0  0  0  0  0  0  0  0  0
   40.2260   22.2560   34.6300 H   0  0  0  0  0  0  0  0  0  0  0  0
   37.4930   23.7880   36.9030 C   0  0  0  0  0  0  0  0  0  0  0  0
   38.5270   23.3630   36.0060 C   0  0  0  0  0  0  0  0  0  0  0  0
   39.7050   22.9210   36.5520 C   0  0  0  0  0  0  0  0  0  0  0  0
   39.8640   22.8950   37.8910 N   0  0  0  0  0  0  0  0  0  0  0  0
   38.8780   23.3010   38.7130 C   0  0  0  0  0  0  0  0  0  0  0  0
   37.7070   23.7410   38.2210 N   0  0  0  0  0  0  0  0  0  0  0  0
   36.5640   24.1370   36.5000 H   0  0  0  0  0  0  0  0  0  0  0  0
   38.2730   23.4320   34.9560 H   0  0  0  0  0  0  0  0  0  0  0  0
   38.9620   23.2970   39.7920 H   0  0  0  0  0  0  0  0  0  0  0  0
   41.8960   25.9830   34.5320 C   0  0  0  0  0  0  0  0  0  0  0  0
   41.5990   26.2260   35.5850 H   0  0  0  0  0  0  0  0  0  0  0  0
   42.9980   26.1070   34.5210 H   0  0  0  0  0  0  0  0  0  0  0  0
   41.2280   27.0390   33.6610 C   0  0  0  0  0  0  0  0  0  0  0  0
   41.2310   26.7420   32.5960 H   0  0  0  0  0  0  0  0  0  0  0  0
   41.6890   28.0390   33.8010 H   0  0  0  0  0  0  0  0  0  0  0  0
   39.7790   27.0440   34.0790 C   0  0  0  0  0  0  0  0  0  0  0  0
   38.7890   26.9370   33.1050 C   0  0  0  0  0  0  0  0  0  0  0  0
   39.0380   26.8520   32.0520 H   0  0  0  0  0  0  0  0  0  0  0  0
   37.4720   26.9460   33.5450 C   0  0  0  0  0  3  0  0  0  0  0  0
   37.1140   27.0520   34.8760 C   0  0  0  0  0  0  0  0  0  0  0  0
   36.0630   27.0520   35.1570 H   0  0  0  0  0  0  0  0  0  0  0  0
   38.1040   27.1570   35.8360 C   0  0  0  0  0  0  0  0  0  0  0  0
   37.8650   27.2420   36.8920 H   0  0  0  0  0  0  0  0  0  0  0  0
   39.4180   27.1500   35.4180 C   0  0  0  0  0  3  0  0  0  0  0  0
  1  8  1  0  0  0  0
  1  4  1  1  0  0  0
  2  3  1  0  0  0  0
  2  1  1  0  0  0  0
  3  7  1  6  0  0  0
  3 20  1  0  0  0  0
  3  1  1  0  0  0  0
  5  2  1  0  0  0  0
  6  2  1  0  0  0  0
  8  9  1  0  0  0  0
  8 13  1  0  0  0  0
 10  8  1  0  0  0  0
 11 16  1  0  0  0  0
 12 13  1  0  0  0  0
 12 11  2  0  0  0  0
 13 14  2  0  0  0  0
 14 15  1  0  0  0  0
 15 19  1  0  0  0  0
 16 15  2  0  0  0  0
 17 11  1  0  0  0  0
 18 12  1  0  0  0  0
 20 21  1  0  0  0  0
 22 20  1  0  0  0  0
 23 25  1  0  0  0  0
 23 26  1  0  0  0  0
 23 20  1  0  0  0  0
 24 23  1  0  0  0  0
 26 34  1  0  0  0  0
 27 29  1  0  0  0  0
 27 26  2  0  0  0  0
 28 27  1  0  0  0  0
 29 30  2  0  0  0  0
 30 31  1  0  0  0  0
 30 32  1  0  0  0  0
 32 33  1  0  0  0  0
 34 32  2  0  0  0  0
M  END
>  <minimizedAffinity>
-4.74716377

$$$$

 OpenBabel03262520473D

 34 36  0  0  1  0  0  0  0  0999 V2000
   37.9260   26.1600   35.3570 C   0  0  1  0  0  0  0  0  0  0  0  0
   38.8930   27.2830   35.0300 C   0  0  0  0  0  0  0  0  0  0  0  0
   37.5490   27.2160   34.4000 C   0  0  2  0  0  0  0  0  0  0  0  0
   37.4210   26.1320   36.3440 H   0  0  0  0  0  0  0  0  0  0  0  0
   38.9980   28.1140   35.7810 H   0  0  0  0  0  0  0  0  0  0  0  0
   39.8000   27.0800   34.4490 H   0  0  0  0  0  0  0  0  0  0  0  0
   37.5790   26.9320   33.3190 H   0  0  0  0  0  0  0  0  0  0  0  0
   38.3400   24.7950   34.8760 C   0  0  0  0  0  0  0  0  0  0  0  0
   39.0070   24.8520   33.9680 H   0  0  0  0  0  0  0  0  0  0  0  0
   37.4100   24.2530   34.5830 H   0  0  0  0  0  0  0  0  0  0  0  0
   40.7870   22.5660   36.6170 C   0  0  0  0  0  0  0  0  0  0  0  0
   40.1340   23.3430   35.6060 C   0  0  0  0  0  0  0  0  0  0  0  0
   38.9820   24.0030   35.9520 C   0  0  0  0  0  0  0  0  0  0  0  0
   38.4970   23.9100   37.2060 N   0  0  0  0  0  0  0  0  0  0  0  0
   39.1290   23.1720   38.1390 C   0  0  0  0  0  0  0  0  0  0  0  0
   40.2610   22.5100   37.8440 N   0  0  0  0  0  0  0  0  0  0  0  0
   41.6880   22.0420   36.3720 H   0  0  0  0  0  0  0  0  0  0  0  0
   40.6240   23.3360   34.6420 H   0  0  0  0  0  0  0  0  0  0  0  0
   38.7760   23.0700   39.1570 H   0  0  0  0  0  0  0  0  0  0  0  0
   36.4310   28.1090   34.8080 C   0  0  0  0  0  0  0  0  0  0  0  0
   35.6130   27.4680   35.2260 H   0  0  0  0  0  0  0  0  0  0  0  0
   36.7010   28.7890   35.6410 H   0  0  0  0  0  0  0  0  0  0  0  0
   35.7960   28.8910   33.6640 C   0  0  0  0  0  0  0  0  0  0  0  0
   34.7300   28.6270   33.5400 H   0  0  0  0  0  0  0  0  0  0  0  0
   36.3560   28.7570   32.7150 H   0  0  0  0  0  0  0  0  0  0  0  0
   35.8110   30.3310   34.1080 C   0  0  0  0  0  0  0  0  0  0  0  0
   36.0280   30.6270   35.4520 C   0  0  0  0  0  0  0  0  0  0  0  0
   36.1850   29.8430   36.1860 H   0  0  0  0  0  0  0  0  0  0  0  0
   36.0320   31.9700   35.8070 C   0  0  0  0  0  3  0  0  0  0  0  0
   35.8360   32.9970   34.9030 C   0  0  0  0  0  0  0  0  0  0  0  0
   35.8520   34.0300   35.2440 H   0  0  0  0  0  0  0  0  0  0  0  0
   35.6220   32.6940   33.5700 C   0  0  0  0  0  0  0  0  0  0  0  0
   35.4650   33.4720   32.8290 H   0  0  0  0  0  0  0  0  0  0  0  0
   35.6150   31.3660   33.1990 C   0  0  0  0  0  3  0  0  0  0  0  0
  1  4  1  1  0  0  0
  2  1  1  0  0  0  0
  2  5  1  0  0  0  0
  3  7  1  6  0  0  0
  3 20  1  0  0  0  0
  3  2  1  0  0  0  0
  3  1  1  0  0  0  0
  6  2  1  0  0  0  0
  8  1  1  0  0  0  0
  8 13  1  0  0  0  0
  9  8  1  0  0  0  0
 10  8  1  0  0  0  0
 11 16  1  0  0  0  0
 12 13  1  0  0  0  0
 12 11  2  0  0  0  0
 13 14  2  0  0  0  0
 14 15  1  0  0  0  0
 15 19  1  0  0  0  0
 16 15  2  0  0  0  0
 17 11  1  0  0  0  0
 18 12  1  0  0  0  0
 20 21  1  0  0  0  0
 20 22  1  0  0  0  0
 23 26  1  0  0  0  0
 23 20  1  0  0  0  0
 24 23  1  0  0  0  0
 25 23  1  0  0  0  0
 26 27  1  0  0  0  0
 27 29  2  0  0  0  0
 27 28  1  0  0  0  0
 30 31  1  0  0  0  0
 30 29  1  0  0  0  0
 32 30  2  0  0  0  0
 33 32  1  0  0  0  0
 34 32  1  0  0  0  0
 34 26  2  0  0  0  0
M  END
>  <minimizedAffinity>
-4.72394991

$$$$

 OpenBabel03262520473D

 34 36  0  0  1  0  0  0  0  0999 V2000
   37.5610   26.3090   35.1390 C   0  0  1  0  0  0  0  0  0  0  0  0
   38.4610   27.5080   35.3760 C   0  0  0  0  0  0  0  0  0  0  0  0
   37.6000   27.4190   34.1690 C   0  0  2  0  0  0  0  0  0  0  0  0
   36.6480   26.1700   35.7520 H   0  0  0  0  0  0  0  0  0  0  0  0
   38.1160   28.2780   36.1210 H   0  0  0  0  0  0  0  0  0  0  0  0
   39.5500   27.4050   35.3040 H   0  0  0  0  0  0  0  0  0  0  0  0
   38.1720   27.2280   33.2290 H   0  0  0  0  0  0  0  0  0  0  0  0
   38.2760   25.0150   34.8590 C   0  0  0  0  0  0  0  0  0  0  0  0
   39.1960   25.1690   34.2240 H   0  0  0  0  0  0  0  0  0  0  0  0
   37.5710   24.3670   34.2860 H   0  0  0  0  0  0  0  0  0  0  0  0
   38.0420   23.7910   38.3860 C   0  0  0  0  0  0  0  0  0  0  0  0
   37.7530   24.4750   37.1600 C   0  0  0  0  0  0  0  0  0  0  0  0
   38.6130   24.2900   36.1070 C   0  0  0  0  0  0  0  0  0  0  0  0
   39.6890   23.4880   36.2420 N   0  0  0  0  0  0  0  0  0  0  0  0
   39.9400   22.8580   37.4050 C   0  0  0  0  0  0  0  0  0  0  0  0
   39.1230   23.0100   38.4630 N   0  0  0  0  0  0  0  0  0  0  0  0
   37.3860   23.9200   39.2210 H   0  0  0  0  0  0  0  0  0  0  0  0
   36.8610   25.0860   37.1810 H   0  0  0  0  0  0  0  0  0  0  0  0
   40.7900   22.2050   37.5590 H   0  0  0  0  0  0  0  0  0  0  0  0
   36.3480   28.2110   34.0210 C   0  0  0  0  0  0  0  0  0  0  0  0
   35.5650   27.7420   34.6700 H   0  0  0  0  0  0  0  0  0  0  0  0
   36.4430   29.2460   34.4070 H   0  0  0  0  0  0  0  0  0  0  0  0
   35.7670   28.2160   32.6120 C   0  0  0  0  0  0  0  0  0  0  0  0
   34.6620   28.1810   32.6340 H   0  0  0  0  0  0  0  0  0  0  0  0
   36.1830   27.3940   31.9930 H   0  0  0  0  0  0  0  0  0  0  0  0
   36.1210   29.5640   32.0390 C   0  0  0  0  0  0  0  0  0  0  0  0
   35.8030   30.7140   32.7580 C   0  0  0  0  0  0  0  0  0  0  0  0
   35.3050   30.6600   33.7210 H   0  0  0  0  0  0  0  0  0  0  0  0
   36.1520   31.9300   32.1840 C   0  0  0  0  0  3  0  0  0  0  0  0
   36.7870   32.0410   30.9610 C   0  0  0  0  0  0  0  0  0  0  0  0
   37.0350   33.0240   30.5660 H   0  0  0  0  0  0  0  0  0  0  0  0
   37.0990   30.8940   30.2540 C   0  0  0  0  0  0  0  0  0  0  0  0
   37.5980   30.9380   29.2910 H   0  0  0  0  0  0  0  0  0  0  0  0
   36.7600   29.6770   30.8090 C   0  0  0  0  0  3  0  0  0  0  0  0
  1  2  1  0  0  0  0
  1  4  1  1  0  0  0
  2  5  1  0  0  0  0
  3  7  1  6  0  0  0
  3  1  1  0  0  0  0
  3  2  1  0  0  0  0
  6  2  1  0  0  0  0
  8  1  1  0  0  0  0
  8 13  1  0  0  0  0
  9  8  1  0  0  0  0
 10  8  1  0  0  0  0
 11 16  1  0  0  0  0
 11 17  1  0  0  0  0
 12 18  1  0  0  0  0
 12 11  2  0  0  0  0
 13 14  2  0  0  0  0
 13 12  1  0  0  0  0
 14 15  1  0  0  0  0
 15 19  1  0  0  0  0
 15 16  2  0  0  0  0
 20  3  1  0  0  0  0
 20 22  1  0  0  0  0
 20 21  1  0  0  0  0
 23 24  1  0  0  0  0
 23 20  1  0  0  0  0
 25 23  1  0  0  0  0
 26 23  1  0  0  0  0
 26 27  1  0  0  0  0
 27 28  1  0  0  0  0
 29 27  2  0  0  0  0
 30 29  1  0  0  0  0
 31 30  1  0  0  0  0
 32 34  1  0  0  0  0
 32 30  2  0  0  0  0
 33 32  1  0  0  0  0
 34 26  2  0  0  0  0
M  END
>  <minimizedAffinity>
-4.7225256

$$$$

 OpenBabel03262520473D

 34 36  0  0  1  0  0  0  0  0999 V2000
   37.6640   24.4320   33.1930 C   0  0  1  0  0  0  0  0  0  0  0  0
   36.8520   25.5050   32.4910 C   0  0  0  0  0  0  0  0  0  0  0  0
   37.6900   24.5480   31.7240 C   0  0  2  0  0  0  0  0  0  0  0  0
   37.1550   23.5580   33.6480 H   0  0  0  0  0  0  0  0  0  0  0  0
   35.7460   25.3280   32.3760 H   0  0  0  0  0  0  0  0  0  0  0  0
   37.1350   26.5600   32.5810 H   0  0  0  0  0  0  0  0  0  0  0  0
   38.6070   25.0140   31.2850 H   0  0  0  0  0  0  0  0  0  0  0  0
   38.8110   24.9360   34.0270 C   0  0  0  0  0  0  0  0  0  0  0  0
   38.8140   26.0610   34.1040 H   0  0  0  0  0  0  0  0  0  0  0  0
   39.7520   24.6270   33.5150 H   0  0  0  0  0  0  0  0  0  0  0  0
   37.9200   24.2580   37.5960 C   0  0  0  0  0  0  0  0  0  0  0  0
   37.9360   24.8300   36.2820 C   0  0  0  0  0  0  0  0  0  0  0  0
   38.8270   24.3160   35.3740 C   0  0  0  0  0  0  0  0  0  0  0  0
   39.6500   23.3080   35.7250 N   0  0  0  0  0  0  0  0  0  0  0  0
   39.6160   22.7880   36.9670 C   0  0  0  0  0  0  0  0  0  0  0  0
   38.7580   23.2600   37.8890 N   0  0  0  0  0  0  0  0  0  0  0  0
   37.2330   24.6410   38.3220 H   0  0  0  0  0  0  0  0  0  0  0  0
   37.2270   25.6320   36.1270 H   0  0  0  0  0  0  0  0  0  0  0  0
   40.2570   21.9790   37.2920 H   0  0  0  0  0  0  0  0  0  0  0  0
   37.1090   23.4110   30.9590 C   0  0  0  0  0  0  0  0  0  0  0  0
   37.0600   23.7100   29.8810 H   0  0  0  0  0  0  0  0  0  0  0  0
   37.7550   22.5100   30.9660 H   0  0  0  0  0  0  0  0  0  0  0  0
   35.6810   23.0500   31.3520 C   0  0  0  0  0  0  0  0  0  0  0  0
   34.9990   23.1120   30.4840 H   0  0  0  0  0  0  0  0  0  0  0  0
   35.3170   23.6720   32.1950 H   0  0  0  0  0  0  0  0  0  0  0  0
   35.7290   21.5910   31.7300 C   0  0  0  0  0  0  0  0  0  0  0  0
   36.0730   20.6480   30.7650 C   0  0  0  0  0  0  0  0  0  0  0  0
   36.3060   20.9410   29.7460 H   0  0  0  0  0  0  0  0  0  0  0  0
   36.1020   19.3190   31.1670 C   0  0  0  0  0  3  0  0  0  0  0  0
   35.8100   18.9060   32.4540 C   0  0  0  0  0  0  0  0  0  0  0  0
   35.8520   17.8490   32.7070 H   0  0  0  0  0  0  0  0  0  0  0  0
   35.4700   19.8500   33.4060 C   0  0  0  0  0  0  0  0  0  0  0  0
   35.2350   19.5670   34.4280 H   0  0  0  0  0  0  0  0  0  0  0  0
   35.4370   21.1750   33.0250 C   0  0  0  0  0  3  0  0  0  0  0  0
  1  4  1  1  0  0  0
  1  8  1  0  0  0  0
  2  6  1  0  0  0  0
  2  1  1  0  0  0  0
  3  7  1  6  0  0  0
  3  2  1  0  0  0  0
  3  1  1  0  0  0  0
  5  2  1  0  0  0  0
  8  9  1  0  0  0  0
  8 13  1  0  0  0  0
 10  8  1  0  0  0  0
 11 16  1  0  0  0  0
 11 17  1  0  0  0  0
 12 11  2  0  0  0  0
 13 14  2  0  0  0  0
 13 12  1  0  0  0  0
 14 15  1  0  0  0  0
 15 19  1  0  0  0  0
 15 16  2  0  0  0  0
 18 12  1  0  0  0  0
 20 22  1  0  0  0  0
 20 23  1  0  0  0  0
 20  3  1  0  0  0  0
 21 20  1  0  0  0  0
 23 26  1  0  0  0  0
 23 25  1  0  0  0  0
 24 23  1  0  0  0  0
 26 34  1  0  0  0  0
 27 29  1  0  0  0  0
 27 26  2  0  0  0  0
 28 27  1  0  0  0  0
 29 30  2  0  0  0  0
 30 31  1  0  0  0  0
 30 32  1  0  0  0  0
 32 33  1  0  0  0  0
 34 32  2  0  0  0  0
M  END
>  <minimizedAffinity>
-4.71504307

$$$$
