
 OpenBabel03272506413D

 19 20  0  0  0  0  0  0  0  0999 V2000
   33.9540   28.4130   47.2190 S   0  0  0  0  0  0  0  0  0  0  0  0
   32.0120   31.2900   45.3340 C   0  0  0  0  0  0  0  0  0  0  0  0
   32.7140   31.4680   44.1340 C   0  0  0  0  0  0  0  0  0  0  0  0
   33.8360   30.6700   43.8850 C   0  0  0  0  0  0  0  0  0  0  0  0
   34.1930   29.7540   44.8330 N   0  0  0  0  0  0  0  0  0  0  0  0
   33.5010   29.6080   45.9710 C   0  0  0  0  0  0  0  0  0  0  0  0
   32.4240   30.3600   46.2280 N   0  0  0  0  0  0  0  0  0  0  0  0
   31.1380   31.8740   45.5840 H   0  0  0  0  0  0  0  0  0  0  0  0
   32.3540   32.2230   43.4410 H   0  0  0  0  0  0  0  0  0  0  0  0
   34.3790   30.8020   42.9680 H   0  0  0  0  0  0  0  0  0  0  0  0
   34.9220   29.1380   48.5310 C   0  0  0  0  0  0  0  0  0  0  0  0
   35.0600   28.7030   49.8290 C   0  0  0  0  0  0  0  0  0  0  0  0
   34.4910   27.8010   50.0420 H   0  0  0  0  0  0  0  0  0  0  0  0
   35.8610   29.4080   50.7030 C   0  0  0  0  0  3  0  0  0  0  0  0
   36.5240   30.5430   50.2860 C   0  0  0  0  0  0  0  0  0  0  0  0
   37.1480   31.0900   50.9660 H   0  0  0  0  0  0  0  0  0  0  0  0
   36.4010   30.9950   48.9940 C   0  0  0  0  0  0  0  0  0  0  0  0
   36.9410   31.8990   48.6960 H   0  0  0  0  0  0  0  0  0  0  0  0
   35.5910   30.2850   48.1100 C   0  0  0  0  0  3  0  0  0  0  0  0
  1 11  1  0  0  0  0
  2  8  1  0  0  0  0
  2  7  1  0  0  0  0
  3  2  2  0  0  0  0
  4  3  1  0  0  0  0
  4  5  2  0  0  0  0
  5  6  1  0  0  0  0
  6  7  2  0  0  0  0
  6  1  1  0  0  0  0
  9  3  1  0  0  0  0
 10  4  1  0  0  0  0
 11 12  1  0  0  0  0
 12 13  1  0  0  0  0
 12 14  2  0  0  0  0
 15 14  1  0  0  0  0
 15 16  1  0  0  0  0
 17 15  2  0  0  0  0
 18 17  1  0  0  0  0
 19 11  2  0  0  0  0
 19 17  1  0  0  0  0
M  END
>  <minimizedAffinity>
-3.74424243

>  <minimizedRMSD>
5.7194438

$$$$
