
 OpenBabel03272510143D

 41 44  0  0  0  0  0  0  0  0999 V2000
   38.4120   31.4210   48.8080 C   0  0  0  0  0  0  0  0  0  0  0  0
   38.4530   32.6330   49.4520 C   0  0  0  0  0  0  0  0  0  0  0  0
   39.0390   33.5470   48.5780 C   0  0  0  0  0  0  0  0  0  0  0  0
   39.3320   32.8900   47.4590 N   0  0  0  0  0  0  0  0  0  0  0  0
   38.9610   31.6670   47.6160 N   0  0  0  0  0  0  0  0  0  0  0  0
   38.1520   33.0100   50.4200 H   0  0  0  0  0  0  0  0  0  0  0  0
   39.2590   34.6130   48.6940 H   0  0  0  0  0  0  0  0  0  0  0  0
   39.9640   33.4030   46.2720 C   0  0  0  0  0  0  0  0  0  0  0  0
   40.5670   34.2940   46.5040 H   0  0  0  0  0  0  0  0  0  0  0  0
   39.1500   33.7750   45.5890 H   0  0  0  0  0  0  0  0  0  0  0  0
   40.7430   32.3160   45.6080 C   0  0  0  0  0  0  0  0  0  0  0  0
   41.8280   32.6490   45.6730 H   0  0  0  0  0  0  0  0  0  0  0  0
   40.7680   31.3800   46.2570 H   0  0  0  0  0  0  0  0  0  0  0  0
   40.3790   31.9760   44.2290 C   0  0  0  0  0  0  0  0  0  0  0  0
   40.5700   30.8670   43.4370 C   0  0  0  0  0  0  0  0  0  0  0  0
   41.1550   30.0940   43.9160 H   0  0  0  0  0  0  0  0  0  0  0  0
   40.0780   30.7890   42.1550 C   0  0  0  0  0  3  0  0  0  0  0  0
   39.3640   31.8160   41.5790 C   0  0  0  0  0  0  0  0  0  0  0  0
   39.0430   31.6090   40.5680 H   0  0  0  0  0  0  0  0  0  0  0  0
   39.1540   32.9430   42.3450 C   0  0  0  0  0  0  0  0  0  0  0  0
   38.5920   33.7270   41.8610 H   0  0  0  0  0  0  0  0  0  0  0  0
   39.6520   33.0150   43.6370 C   0  0  0  0  0  3  0  0  0  0  0  0
   37.8580   30.3880   49.5370 O   0  0  0  0  0  0  0  0  0  0  0  0
   34.1300   28.8590   48.3300 C   0  0  0  0  0  0  0  0  0  0  0  0
   34.7460   28.4100   49.4630 C   0  0  0  0  0  0  0  0  0  0  0  0
   35.9640   28.8630   49.9200 C   0  0  0  0  0  0  0  0  0  0  0  0
   36.6380   29.8200   49.2320 C   0  0  0  0  0  0  0  0  0  0  0  0
   36.0200   30.2880   48.0730 C   0  0  0  0  0  0  0  0  0  0  0  0
   34.8220   29.8240   47.6480 N   0  0  0  0  0  0  0  0  0  0  0  0
   34.2640   27.6450   50.0610 H   0  0  0  0  0  0  0  0  0  0  0  0
   36.4390   28.4960   50.8210 H   0  0  0  0  0  0  0  0  0  0  0  0
   36.4210   31.0500   47.4100 H   0  0  0  0  0  0  0  0  0  0  0  0
   32.0130   27.5720   48.5850 C   0  0  0  0  0  0  0  0  0  0  0  0
   32.8670   28.3990   47.8400 C   0  0  0  0  0  0  0  0  0  0  0  0
   32.4420   28.7620   46.5880 C   0  0  0  0  0  0  0  0  0  0  0  0
   31.2340   28.3200   46.1200 N   0  0  0  0  0  0  0  0  0  0  0  0
   30.4440   27.5150   46.8920 C   0  0  0  0  0  0  0  0  0  0  0  0
   30.8240   27.1320   48.1330 N   0  0  0  0  0  0  0  0  0  0  0  0
   32.3040   27.2580   49.5760 H   0  0  0  0  0  0  0  0  0  0  0  0
   33.0390   29.4030   45.9350 H   0  0  0  0  0  0  0  0  0  0  0  0
   29.4930   27.1650   46.5270 H   0  0  0  0  0  0  0  0  0  0  0  0
  1  2  1  0  0  0  0
  1 23  1  0  0  0  0
  2  6  1  0  0  0  0
  3  7  1  0  0  0  0
  3  2  2  0  0  0  0
  4  5  1  0  0  0  0
  4  3  1  0  0  0  0
  5  1  2  0  0  0  0
  8  9  1  0  0  0  0
  8  4  1  0  0  0  0
 10  8  1  0  0  0  0
 11 12  1  0  0  0  0
 11 13  1  0  0  0  0
 11  8  1  0  0  0  0
 14 11  1  0  0  0  0
 15 16  1  0  0  0  0
 15 14  2  0  0  0  0
 17 15  1  0  0  0  0
 18 17  2  0  0  0  0
 18 20  1  0  0  0  0
 19 18  1  0  0  0  0
 20 22  2  0  0  0  0
 21 20  1  0  0  0  0
 22 14  1  0  0  0  0
 24 25  1  0  0  0  0
 25 26  2  0  0  0  0
 25 30  1  0  0  0  0
 26 31  1  0  0  0  0
 27 23  1  0  0  0  0
 27 26  1  0  0  0  0
 28 27  2  0  0  0  0
 29 28  1  0  0  0  0
 29 24  2  0  0  0  0
 32 28  1  0  0  0  0
 33 39  1  0  0  0  0
 34 24  1  0  0  0  0
 34 33  2  0  0  0  0
 35 34  1  0  0  0  0
 36 35  2  0  0  0  0
 36 37  1  0  0  0  0
 37 38  2  0  0  0  0
 38 33  1  0  0  0  0
 40 35  1  0  0  0  0
 41 37  1  0  0  0  0
M  END
>  <minimizedAffinity>
-6.44907951

>  <minimizedRMSD>
1.56967175

$$$$
