
 OpenBabel03272500233D

 37 39  0  0  0  0  0  0  0  0999 V2000
   38.1420   26.0970   36.7040 C   0  0  0  0  0  0  0  0  0  0  0  0
   38.3580   24.6940   36.7610 C   0  0  0  0  0  0  0  0  0  0  0  0
   38.5920   24.0010   35.5760 C   0  0  0  0  0  0  0  0  0  0  0  0
   38.6010   24.7170   34.4080 N   0  0  0  0  0  0  0  0  0  0  0  0
   38.3990   26.0250   34.3680 C   0  0  0  0  0  0  0  0  0  0  0  0
   38.1710   26.7050   35.5030 N   0  0  0  0  0  0  0  0  0  0  0  0
   37.9600   26.6380   37.6170 H   0  0  0  0  0  0  0  0  0  0  0  0
   36.1740   28.0160   33.9220 Cl  0  0  0  0  0  0  0  0  0  0  0  0
   37.4400   27.6710   32.7620 C   0  0  0  0  0  0  0  0  0  0  0  0
   38.4230   26.7270   33.0740 C   0  0  0  0  0  0  0  0  0  0  0  0
   39.4640   26.4020   32.1940 C   0  0  0  0  0  0  0  0  0  0  0  0
   39.4520   27.0910   30.9730 C   0  0  0  0  0  0  0  0  0  0  0  0
   38.5040   28.0150   30.6470 C   0  0  0  0  0  0  0  0  0  0  0  0
   38.6100   28.8000   29.0880 Cl  0  0  0  0  0  0  0  0  0  0  0  0
   37.4910   28.3040   31.5530 C   0  0  0  0  0  0  0  0  0  0  0  0
   40.2110   25.6790   32.4430 H   0  0  0  0  0  0  0  0  0  0  0  0
   40.2720   26.8220   30.3010 H   0  0  0  0  0  0  0  0  0  0  0  0
   36.4570   29.3020   31.2160 C   0  0  0  0  0  0  0  0  0  0  0  0
   35.1870   28.8290   31.5730 F   0  0  0  0  0  0  0  0  0  0  0  0
   36.4670   29.6340   29.8890 F   0  0  0  0  0  0  0  0  0  0  0  0
   36.6570   30.4500   31.9320 F   0  0  0  0  0  0  0  0  0  0  0  0
   38.3260   24.0100   38.0900 C   0  0  0  0  0  0  0  0  0  0  0  0
   39.5340   23.3940   38.3760 F   0  0  0  0  0  0  0  0  0  0  0  0
   38.1060   24.9720   39.0610 F   0  0  0  0  0  0  0  0  0  0  0  0
   37.2990   23.0980   38.1870 F   0  0  0  0  0  0  0  0  0  0  0  0
   38.8170   22.5510   35.6120 C   0  0  0  0  0  0  0  0  0  0  0  0
   39.7810   22.3000   35.1510 H   0  0  0  0  0  0  0  0  0  0  0  0
   38.8780   22.1730   36.6650 H   0  0  0  0  0  0  0  0  0  0  0  0
   37.6580   21.8330   35.0120 C   0  0  0  0  0  0  0  0  0  0  0  0
   37.7290   21.6220   33.6310 C   0  0  0  0  0  0  0  0  0  0  0  0
   38.5780   21.9640   33.0500 H   0  0  0  0  0  0  0  0  0  0  0  0
   36.7110   20.9660   32.9690 C   0  0  0  0  0  3  0  0  0  0  0  0
   35.6100   20.5060   33.6450 C   0  0  0  0  0  0  0  0  0  0  0  0
   34.8140   19.9910   33.1150 H   0  0  0  0  0  0  0  0  0  0  0  0
   35.5640   20.7260   35.0010 C   0  0  0  0  0  0  0  0  0  0  0  0
   34.7010   20.3700   35.5470 H   0  0  0  0  0  0  0  0  0  0  0  0
   36.5690   21.3830   35.7000 C   0  0  0  0  0  3  0  0  0  0  0  0
  1  2  1  0  0  0  0
  1  7  1  0  0  0  0
  2 22  1  0  0  0  0
  3 26  1  0  0  0  0
  3  2  2  0  0  0  0
  4  3  1  0  0  0  0
  5  4  2  0  0  0  0
  5  6  1  0  0  0  0
  6  1  2  0  0  0  0
  9 10  1  0  0  0  0
  9  8  1  0  0  0  0
 10  5  1  0  0  0  0
 11 16  1  0  0  0  0
 11 10  2  0  0  0  0
 12 11  1  0  0  0  0
 13 12  2  0  0  0  0
 13 15  1  0  0  0  0
 14 13  1  0  0  0  0
 15  9  2  0  0  0  0
 17 12  1  0  0  0  0
 18 15  1  0  0  0  0
 18 19  1  0  0  0  0
 18 21  1  0  0  0  0
 20 18  1  0  0  0  0
 22 25  1  0  0  0  0
 22 23  1  0  0  0  0
 22 24  1  0  0  0  0
 26 28  1  0  0  0  0
 27 26  1  0  0  0  0
 29 26  1  0  0  0  0
 29 37  1  0  0  0  0
 30 29  2  0  0  0  0
 31 30  1  0  0  0  0
 32 30  1  0  0  0  0
 32 33  2  0  0  0  0
 33 35  1  0  0  0  0
 34 33  1  0  0  0  0
 35 36  1  0  0  0  0
 35 37  2  0  0  0  0
M  END
>  <minimizedAffinity>
-6.80064344

$$$$

 OpenBabel03272500233D

 37 39  0  0  0  0  0  0  0  0999 V2000
   37.6550   25.6880   33.7100 C   0  0  0  0  0  0  0  0  0  0  0  0
   38.2200   25.4480   34.9920 C   0  0  0  0  0  0  0  0  0  0  0  0
   38.5260   24.1400   35.3570 C   0  0  0  0  0  0  0  0  0  0  0  0
   38.2640   23.1450   34.4530 N   0  0  0  0  0  0  0  0  0  0  0  0
   37.7380   23.3820   33.2610 C   0  0  0  0  0  0  0  0  0  0  0  0
   37.4360   24.6380   32.8960 N   0  0  0  0  0  0  0  0  0  0  0  0
   37.4160   26.6970   33.4230 H   0  0  0  0  0  0  0  0  0  0  0  0
   35.6600   21.3900   34.1710 Cl  0  0  0  0  0  0  0  0  0  0  0  0
   36.5410   21.2800   32.6620 C   0  0  0  0  0  0  0  0  0  0  0  0
   37.4830   22.2610   32.3400 C   0  0  0  0  0  0  0  0  0  0  0  0
   38.2240   22.2360   31.1500 C   0  0  0  0  0  0  0  0  0  0  0  0
   37.9530   21.1540   30.3010 C   0  0  0  0  0  0  0  0  0  0  0  0
   37.0390   20.1850   30.5940 C   0  0  0  0  0  0  0  0  0  0  0  0
   36.8020   18.8910   29.4420 Cl  0  0  0  0  0  0  0  0  0  0  0  0
   36.3290   20.2540   31.7870 C   0  0  0  0  0  0  0  0  0  0  0  0
   38.9420   22.9910   30.9140 H   0  0  0  0  0  0  0  0  0  0  0  0
   38.5410   21.1520   29.3790 H   0  0  0  0  0  0  0  0  0  0  0  0
   35.3360   19.2140   32.1190 C   0  0  0  0  0  0  0  0  0  0  0  0
   34.0360   19.6960   31.9100 F   0  0  0  0  0  0  0  0  0  0  0  0
   35.4580   18.7700   33.4070 F   0  0  0  0  0  0  0  0  0  0  0  0
   35.4860   18.1350   31.2920 F   0  0  0  0  0  0  0  0  0  0  0  0
   38.4650   26.6070   35.9030 C   0  0  0  0  0  0  0  0  0  0  0  0
   39.7680   27.0670   35.8040 F   0  0  0  0  0  0  0  0  0  0  0  0
   37.6260   27.6390   35.5180 F   0  0  0  0  0  0  0  0  0  0  0  0
   38.1680   26.3150   37.2160 F   0  0  0  0  0  0  0  0  0  0  0  0
   39.1110   23.8690   36.6760 C   0  0  0  0  0  0  0  0  0  0  0  0
   39.1190   24.7800   37.2870 H   0  0  0  0  0  0  0  0  0  0  0  0
   38.4980   23.1260   37.2500 H   0  0  0  0  0  0  0  0  0  0  0  0
   40.4480   23.2310   36.5280 C   0  0  0  0  0  0  0  0  0  0  0  0
   40.6370   22.0510   37.2570 C   0  0  0  0  0  0  0  0  0  0  0  0
   39.8520   21.6420   37.8820 H   0  0  0  0  0  0  0  0  0  0  0  0
   41.8380   21.3730   37.1940 C   0  0  0  0  0  3  0  0  0  0  0  0
   42.8710   21.8360   36.4200 C   0  0  0  0  0  0  0  0  0  0  0  0
   43.8120   21.2960   36.3780 H   0  0  0  0  0  0  0  0  0  0  0  0
   42.6600   22.9960   35.7150 C   0  0  0  0  0  0  0  0  0  0  0  0
   43.4680   23.3740   35.1000 H   0  0  0  0  0  0  0  0  0  0  0  0
   41.4660   23.7060   35.7530 C   0  0  0  0  0  3  0  0  0  0  0  0
  1  2  1  0  0  0  0
  2  3  2  0  0  0  0
  2 22  1  0  0  0  0
  3 26  1  0  0  0  0
  4  3  1  0  0  0  0
  5  4  2  0  0  0  0
  6  5  1  0  0  0  0
  6  1  2  0  0  0  0
  7  1  1  0  0  0  0
  9  8  1  0  0  0  0
 10  9  1  0  0  0  0
 10  5  1  0  0  0  0
 11 10  2  0  0  0  0
 12 13  2  0  0  0  0
 12 11  1  0  0  0  0
 13 15  1  0  0  0  0
 14 13  1  0  0  0  0
 15 18  1  0  0  0  0
 15  9  2  0  0  0  0
 16 11  1  0  0  0  0
 17 12  1  0  0  0  0
 18 20  1  0  0  0  0
 19 18  1  0  0  0  0
 21 18  1  0  0  0  0
 22 25  1  0  0  0  0
 23 22  1  0  0  0  0
 24 22  1  0  0  0  0
 26 28  1  0  0  0  0
 26 27  1  0  0  0  0
 29 26  1  0  0  0  0
 29 30  1  0  0  0  0
 30 31  1  0  0  0  0
 32 30  2  0  0  0  0
 33 32  1  0  0  0  0
 34 33  1  0  0  0  0
 35 37  1  0  0  0  0
 35 33  2  0  0  0  0
 36 35  1  0  0  0  0
 37 29  2  0  0  0  0
M  END
>  <minimizedAffinity>
-6.64167213

$$$$

 OpenBabel03272500233D

 37 39  0  0  0  0  0  0  0  0999 V2000
   35.5920   30.6770   30.7870 C   0  0  0  0  0  0  0  0  0  0  0  0
   36.3660   29.4850   30.8180 C   0  0  0  0  0  0  0  0  0  0  0  0
   36.0890   28.5300   31.7930 C   0  0  0  0  0  0  0  0  0  0  0  0
   35.0770   28.7920   32.6770 N   0  0  0  0  0  0  0  0  0  0  0  0
   34.3630   29.9070   32.6370 C   0  0  0  0  0  0  0  0  0  0  0  0
   34.6190   30.8370   31.7040 N   0  0  0  0  0  0  0  0  0  0  0  0
   35.8020   31.4200   30.0360 H   0  0  0  0  0  0  0  0  0  0  0  0
   35.2390   31.0170   35.3040 Cl  0  0  0  0  0  0  0  0  0  0  0  0
   33.5820   30.6310   34.8890 C   0  0  0  0  0  0  0  0  0  0  0  0
   33.2890   30.1210   33.6220 C   0  0  0  0  0  0  0  0  0  0  0  0
   31.9860   29.7890   33.2230 C   0  0  0  0  0  0  0  0  0  0  0  0
   30.9930   30.0060   34.1880 C   0  0  0  0  0  0  0  0  0  0  0  0
   31.2550   30.5030   35.4310 C   0  0  0  0  0  0  0  0  0  0  0  0
   29.9180   30.7240   36.5360 Cl  0  0  0  0  0  0  0  0  0  0  0  0
   32.5630   30.8160   35.7800 C   0  0  0  0  0  0  0  0  0  0  0  0
   31.7730   29.4000   32.2510 H   0  0  0  0  0  0  0  0  0  0  0  0
   29.9840   29.7420   33.8570 H   0  0  0  0  0  0  0  0  0  0  0  0
   32.8640   31.3550   37.1200 C   0  0  0  0  0  0  0  0  0  0  0  0
   32.1020   32.5050   37.3670 F   0  0  0  0  0  0  0  0  0  0  0  0
   34.1930   31.6430   37.2790 F   0  0  0  0  0  0  0  0  0  0  0  0
   32.5190   30.4470   38.0840 F   0  0  0  0  0  0  0  0  0  0  0  0
   37.4490   29.2990   29.8060 C   0  0  0  0  0  0  0  0  0  0  0  0
   37.1030   28.3510   28.8570 F   0  0  0  0  0  0  0  0  0  0  0  0
   37.6310   30.5040   29.1460 F   0  0  0  0  0  0  0  0  0  0  0  0
   38.6570   28.9700   30.3810 F   0  0  0  0  0  0  0  0  0  0  0  0
   36.8760   27.2920   31.8430 C   0  0  0  0  0  0  0  0  0  0  0  0
   36.2350   26.4210   31.6650 H   0  0  0  0  0  0  0  0  0  0  0  0
   37.6520   27.2670   31.0340 H   0  0  0  0  0  0  0  0  0  0  0  0
   37.6470   27.2210   33.1150 C   0  0  0  0  0  0  0  0  0  0  0  0
   39.0320   27.0750   32.9740 C   0  0  0  0  0  0  0  0  0  0  0  0
   39.4970   27.0200   31.9960 H   0  0  0  0  0  0  0  0  0  0  0  0
   39.8460   27.0000   34.0860 C   0  0  0  0  0  3  0  0  0  0  0  0
   39.3220   27.0650   35.3510 C   0  0  0  0  0  0  0  0  0  0  0  0
   39.9710   27.0050   36.2200 H   0  0  0  0  0  0  0  0  0  0  0  0
   37.9600   27.2090   35.4630 C   0  0  0  0  0  0  0  0  0  0  0  0
   37.5310   27.2610   36.4560 H   0  0  0  0  0  0  0  0  0  0  0  0
   37.1090   27.2880   34.3680 C   0  0  0  0  0  3  0  0  0  0  0  0
  1  2  2  0  0  0  0
  1  6  1  0  0  0  0
  2  3  1  0  0  0  0
  3 26  1  0  0  0  0
  3  4  2  0  0  0  0
  5  4  1  0  0  0  0
  5 10  1  0  0  0  0
  6  5  2  0  0  0  0
  7  1  1  0  0  0  0
  9  8  1  0  0  0  0
  9 15  1  0  0  0  0
 10  9  2  0  0  0  0
 11 10  1  0  0  0  0
 11 12  2  0  0  0  0
 12 13  1  0  0  0  0
 13 15  2  0  0  0  0
 13 14  1  0  0  0  0
 15 18  1  0  0  0  0
 16 11  1  0  0  0  0
 17 12  1  0  0  0  0
 18 20  1  0  0  0  0
 18 19  1  0  0  0  0
 18 21  1  0  0  0  0
 22 25  1  0  0  0  0
 22  2  1  0  0  0  0
 23 22  1  0  0  0  0
 24 22  1  0  0  0  0
 26 29  1  0  0  0  0
 27 26  1  0  0  0  0
 28 26  1  0  0  0  0
 29 37  1  0  0  0  0
 30 29  2  0  0  0  0
 30 32  1  0  0  0  0
 31 30  1  0  0  0  0
 32 33  2  0  0  0  0
 33 35  1  0  0  0  0
 33 34  1  0  0  0  0
 35 36  1  0  0  0  0
 37 35  2  0  0  0  0
M  END
>  <minimizedAffinity>
-6.60975122

$$$$

 OpenBabel03272500233D

 37 39  0  0  0  0  0  0  0  0999 V2000
   38.3280   26.1650   36.6190 C   0  0  0  0  0  0  0  0  0  0  0  0
   38.4450   24.7540   36.7410 C   0  0  0  0  0  0  0  0  0  0  0  0
   38.7680   24.0060   35.6120 C   0  0  0  0  0  0  0  0  0  0  0  0
   38.9580   24.6770   34.4330 N   0  0  0  0  0  0  0  0  0  0  0  0
   38.8470   25.9930   34.3330 C   0  0  0  0  0  0  0  0  0  0  0  0
   38.5350   26.7270   35.4130 N   0  0  0  0  0  0  0  0  0  0  0  0
   38.0780   26.7480   37.4890 H   0  0  0  0  0  0  0  0  0  0  0  0
   36.3570   26.9300   32.9070 Cl  0  0  0  0  0  0  0  0  0  0  0  0
   37.9830   27.1180   32.2850 C   0  0  0  0  0  0  0  0  0  0  0  0
   39.0660   26.6460   33.0310 C   0  0  0  0  0  0  0  0  0  0  0  0
   40.3930   26.7630   32.5940 C   0  0  0  0  0  0  0  0  0  0  0  0
   40.5600   27.3880   31.3510 C   0  0  0  0  0  0  0  0  0  0  0  0
   39.5180   27.8570   30.6050 C   0  0  0  0  0  0  0  0  0  0  0  0
   39.8710   28.6190   29.0710 Cl  0  0  0  0  0  0  0  0  0  0  0  0
   38.2200   27.7180   31.0810 C   0  0  0  0  0  0  0  0  0  0  0  0
   41.2140   26.3980   33.1730 H   0  0  0  0  0  0  0  0  0  0  0  0
   41.6020   27.4700   31.0280 H   0  0  0  0  0  0  0  0  0  0  0  0
   37.0820   28.2200   30.2870 C   0  0  0  0  0  0  0  0  0  0  0  0
   36.0400   27.2840   30.2820 F   0  0  0  0  0  0  0  0  0  0  0  0
   37.4370   28.5180   28.9990 F   0  0  0  0  0  0  0  0  0  0  0  0
   36.5770   29.3590   30.8520 F   0  0  0  0  0  0  0  0  0  0  0  0
   38.2150   24.1210   38.0760 C   0  0  0  0  0  0  0  0  0  0  0  0
   39.3330   23.4270   38.5100 F   0  0  0  0  0  0  0  0  0  0  0  0
   37.9680   25.1310   38.9910 F   0  0  0  0  0  0  0  0  0  0  0  0
   37.1150   23.2930   38.0840 F   0  0  0  0  0  0  0  0  0  0  0  0
   38.8930   22.5470   35.7150 C   0  0  0  0  0  0  0  0  0  0  0  0
   39.8980   22.2250   35.4190 H   0  0  0  0  0  0  0  0  0  0  0  0
   38.7640   22.2000   36.7740 H   0  0  0  0  0  0  0  0  0  0  0  0
   37.7980   21.8800   34.9570 C   0  0  0  0  0  0  0  0  0  0  0  0
   36.7190   21.4300   35.7260 C   0  0  0  0  0  0  0  0  0  0  0  0
   36.6960   21.5670   36.8010 H   0  0  0  0  0  0  0  0  0  0  0  0
   35.6480   20.7980   35.1290 C   0  0  0  0  0  3  0  0  0  0  0  0
   35.6130   20.5950   33.7730 C   0  0  0  0  0  0  0  0  0  0  0  0
   34.7660   20.0960   33.3120 H   0  0  0  0  0  0  0  0  0  0  0  0
   36.6850   21.0460   33.0400 C   0  0  0  0  0  0  0  0  0  0  0  0
   36.6720   20.8910   31.9690 H   0  0  0  0  0  0  0  0  0  0  0  0
   37.7810   21.6860   33.6060 C   0  0  0  0  0  3  0  0  0  0  0  0
  1  2  1  0  0  0  0
  1  7  1  0  0  0  0
  2 22  1  0  0  0  0
  3 26  1  0  0  0  0
  3  2  2  0  0  0  0
  4  3  1  0  0  0  0
  5  4  2  0  0  0  0
  5  6  1  0  0  0  0
  6  1  2  0  0  0  0
  9  8  1  0  0  0  0
  9 10  1  0  0  0  0
 10  5  1  0  0  0  0
 11 10  2  0  0  0  0
 11 16  1  0  0  0  0
 12 11  1  0  0  0  0
 13 15  1  0  0  0  0
 13 12  2  0  0  0  0
 14 13  1  0  0  0  0
 15  9  2  0  0  0  0
 17 12  1  0  0  0  0
 18 21  1  0  0  0  0
 18 15  1  0  0  0  0
 19 18  1  0  0  0  0
 20 18  1  0  0  0  0
 22 25  1  0  0  0  0
 22 23  1  0  0  0  0
 22 24  1  0  0  0  0
 26 28  1  0  0  0  0
 27 26  1  0  0  0  0
 29 26  1  0  0  0  0
 29 30  1  0  0  0  0
 30 31  1  0  0  0  0
 32 30  2  0  0  0  0
 33 32  1  0  0  0  0
 34 33  1  0  0  0  0
 35 37  1  0  0  0  0
 35 33  2  0  0  0  0
 36 35  1  0  0  0  0
 37 29  2  0  0  0  0
M  END
>  <minimizedAffinity>
-6.55606556

$$$$

 OpenBabel03272500233D

 37 39  0  0  0  0  0  0  0  0999 V2000
   38.0110   27.9750   31.4060 C   0  0  0  0  0  0  0  0  0  0  0  0
   36.9500   28.9050   31.5760 C   0  0  0  0  0  0  0  0  0  0  0  0
   36.2150   28.8770   32.7580 C   0  0  0  0  0  0  0  0  0  0  0  0
   36.5580   27.9470   33.7030 N   0  0  0  0  0  0  0  0  0  0  0  0
   37.5500   27.0860   33.5330 C   0  0  0  0  0  0  0  0  0  0  0  0
   38.2660   27.1000   32.3980 N   0  0  0  0  0  0  0  0  0  0  0  0
   38.5830   27.9910   30.4940 H   0  0  0  0  0  0  0  0  0  0  0  0
   37.4550   24.1830   32.7110 Cl  0  0  0  0  0  0  0  0  0  0  0  0
   37.8460   24.7420   34.3240 C   0  0  0  0  0  0  0  0  0  0  0  0
   37.8610   26.1130   34.5940 C   0  0  0  0  0  0  0  0  0  0  0  0
   38.1640   26.6300   35.8610 C   0  0  0  0  0  0  0  0  0  0  0  0
   38.4540   25.6730   36.8430 C   0  0  0  0  0  0  0  0  0  0  0  0
   38.4460   24.3300   36.6030 C   0  0  0  0  0  0  0  0  0  0  0  0
   38.8270   23.2480   37.9220 Cl  0  0  0  0  0  0  0  0  0  0  0  0
   38.1380   23.8660   35.3300 C   0  0  0  0  0  0  0  0  0  0  0  0
   38.1730   27.6810   36.0570 H   0  0  0  0  0  0  0  0  0  0  0  0
   38.6880   26.0970   37.8240 H   0  0  0  0  0  0  0  0  0  0  0  0
   38.1250   22.4170   35.0530 C   0  0  0  0  0  0  0  0  0  0  0  0
   39.3940   21.8650   35.2770 F   0  0  0  0  0  0  0  0  0  0  0  0
   37.7210   22.1340   33.7760 F   0  0  0  0  0  0  0  0  0  0  0  0
   37.2690   21.7790   35.9080 F   0  0  0  0  0  0  0  0  0  0  0  0
   36.6590   29.8790   30.4800 C   0  0  0  0  0  0  0  0  0  0  0  0
   37.4250   31.0270   30.6010 F   0  0  0  0  0  0  0  0  0  0  0  0
   36.9900   29.2800   29.2760 F   0  0  0  0  0  0  0  0  0  0  0  0
   35.3230   30.2090   30.4110 F   0  0  0  0  0  0  0  0  0  0  0  0
   35.1150   29.8290   32.9540 C   0  0  0  0  0  0  0  0  0  0  0  0
   34.7510   30.2010   31.9890 H   0  0  0  0  0  0  0  0  0  0  0  0
   34.2320   29.3380   33.4400 H   0  0  0  0  0  0  0  0  0  0  0  0
   35.5240   30.9040   33.8990 C   0  0  0  0  0  0  0  0  0  0  0  0
   35.9220   32.1080   33.3060 C   0  0  0  0  0  0  0  0  0  0  0  0
   35.9250   32.2330   32.2290 H   0  0  0  0  0  0  0  0  0  0  0  0
   36.3210   33.1750   34.0850 C   0  0  0  0  0  3  0  0  0  0  0  0
   36.3380   33.0840   35.4540 C   0  0  0  0  0  0  0  0  0  0  0  0
   36.6530   33.9290   36.0580 H   0  0  0  0  0  0  0  0  0  0  0  0
   35.9430   31.8910   36.0110 C   0  0  0  0  0  0  0  0  0  0  0  0
   35.9520   31.8040   37.0900 H   0  0  0  0  0  0  0  0  0  0  0  0
   35.5350   30.7960   35.2590 C   0  0  0  0  0  3  0  0  0  0  0  0
  1  2  2  0  0  0  0
  1  6  1  0  0  0  0
  2  3  1  0  0  0  0
  3 26  1  0  0  0  0
  3  4  2  0  0  0  0
  5  4  1  0  0  0  0
  5 10  1  0  0  0  0
  6  5  2  0  0  0  0
  7  1  1  0  0  0  0
  8  9  1  0  0  0  0
  9 10  2  0  0  0  0
  9 15  1  0  0  0  0
 10 11  1  0  0  0  0
 11 16  1  0  0  0  0
 11 12  2  0  0  0  0
 12 17  1  0  0  0  0
 13 12  1  0  0  0  0
 13 14  1  0  0  0  0
 15 13  2  0  0  0  0
 18 19  1  0  0  0  0
 18 15  1  0  0  0  0
 18 21  1  0  0  0  0
 20 18  1  0  0  0  0
 22 23  1  0  0  0  0
 22  2  1  0  0  0  0
 24 22  1  0  0  0  0
 25 22  1  0  0  0  0
 26 28  1  0  0  0  0
 26 29  1  0  0  0  0
 27 26  1  0  0  0  0
 29 37  1  0  0  0  0
 30 29  2  0  0  0  0
 30 32  1  0  0  0  0
 31 30  1  0  0  0  0
 32 33  2  0  0  0  0
 33 35  1  0  0  0  0
 33 34  1  0  0  0  0
 35 36  1  0  0  0  0
 37 35  2  0  0  0  0
M  END
>  <minimizedAffinity>
-6.50853157

$$$$

 OpenBabel03272500233D

 37 39  0  0  0  0  0  0  0  0999 V2000
   37.9620   26.0360   36.7220 C   0  0  0  0  0  0  0  0  0  0  0  0
   38.2500   24.6450   36.7410 C   0  0  0  0  0  0  0  0  0  0  0  0
   38.4410   23.9820   35.5310 C   0  0  0  0  0  0  0  0  0  0  0  0
   38.3410   24.7140   34.3780 N   0  0  0  0  0  0  0  0  0  0  0  0
   38.0720   26.0100   34.3740 C   0  0  0  0  0  0  0  0  0  0  0  0
   37.8840   26.6620   35.5330 N   0  0  0  0  0  0  0  0  0  0  0  0
   37.8120   26.5540   37.6540 H   0  0  0  0  0  0  0  0  0  0  0  0
   40.6490   26.2540   32.8200 Cl  0  0  0  0  0  0  0  0  0  0  0  0
   39.1100   26.9040   32.2930 C   0  0  0  0  0  0  0  0  0  0  0  0
   37.9790   26.7320   33.0940 C   0  0  0  0  0  0  0  0  0  0  0  0
   36.7170   27.2260   32.7340 C   0  0  0  0  0  0  0  0  0  0  0  0
   36.6680   27.9070   31.5100 C   0  0  0  0  0  0  0  0  0  0  0  0
   37.7600   28.0870   30.7120 C   0  0  0  0  0  0  0  0  0  0  0  0
   37.5560   28.9570   29.2090 Cl  0  0  0  0  0  0  0  0  0  0  0  0
   38.9900   27.5790   31.1120 C   0  0  0  0  0  0  0  0  0  0  0  0
   35.8570   27.0890   33.3540 H   0  0  0  0  0  0  0  0  0  0  0  0
   35.6750   28.2840   31.2480 H   0  0  0  0  0  0  0  0  0  0  0  0
   40.1800   27.7640   30.2600 C   0  0  0  0  0  0  0  0  0  0  0  0
   40.5930   26.5370   29.7230 F   0  0  0  0  0  0  0  0  0  0  0  0
   41.2210   28.3410   30.9370 F   0  0  0  0  0  0  0  0  0  0  0  0
   39.8800   28.5700   29.1960 F   0  0  0  0  0  0  0  0  0  0  0  0
   38.3370   23.9410   38.0570 C   0  0  0  0  0  0  0  0  0  0  0  0
   39.5710   23.3360   38.2310 F   0  0  0  0  0  0  0  0  0  0  0  0
   38.1890   24.8860   39.0580 F   0  0  0  0  0  0  0  0  0  0  0  0
   37.3300   23.0160   38.2260 F   0  0  0  0  0  0  0  0  0  0  0  0
   38.7400   22.5450   35.5270 C   0  0  0  0  0  0  0  0  0  0  0  0
   39.7530   22.3630   35.1490 H   0  0  0  0  0  0  0  0  0  0  0  0
   38.7250   22.1210   36.5650 H   0  0  0  0  0  0  0  0  0  0  0  0
   37.6800   21.7990   34.7930 C   0  0  0  0  0  0  0  0  0  0  0  0
   36.6050   21.3570   35.5720 C   0  0  0  0  0  0  0  0  0  0  0  0
   36.5610   21.5520   36.6370 H   0  0  0  0  0  0  0  0  0  0  0  0
   35.5640   20.6560   34.9970 C   0  0  0  0  0  3  0  0  0  0  0  0
   35.5580   20.3760   33.6540 C   0  0  0  0  0  0  0  0  0  0  0  0
   34.7340   19.8240   33.2110 H   0  0  0  0  0  0  0  0  0  0  0  0
   36.6250   20.8210   32.9120 C   0  0  0  0  0  0  0  0  0  0  0  0
   36.6340   20.6070   31.8510 H   0  0  0  0  0  0  0  0  0  0  0  0
   37.6900   21.5290   33.4560 C   0  0  0  0  0  3  0  0  0  0  0  0
  1  2  1  0  0  0  0
  1  7  1  0  0  0  0
  2 22  1  0  0  0  0
  3  2  2  0  0  0  0
  4  3  1  0  0  0  0
  5  4  2  0  0  0  0
  5  6  1  0  0  0  0
  6  1  2  0  0  0  0
  9  8  1  0  0  0  0
  9 10  1  0  0  0  0
 10  5  1  0  0  0  0
 11 10  2  0  0  0  0
 11 16  1  0  0  0  0
 12 11  1  0  0  0  0
 13 15  1  0  0  0  0
 13 12  2  0  0  0  0
 14 13  1  0  0  0  0
 15  9  2  0  0  0  0
 17 12  1  0  0  0  0
 18 20  1  0  0  0  0
 18 15  1  0  0  0  0
 19 18  1  0  0  0  0
 21 18  1  0  0  0  0
 22 25  1  0  0  0  0
 22 23  1  0  0  0  0
 22 24  1  0  0  0  0
 26  3  1  0  0  0  0
 26 28  1  0  0  0  0
 27 26  1  0  0  0  0
 29 26  1  0  0  0  0
 29 30  1  0  0  0  0
 30 31  1  0  0  0  0
 32 30  2  0  0  0  0
 33 32  1  0  0  0  0
 34 33  1  0  0  0  0
 35 37  1  0  0  0  0
 35 33  2  0  0  0  0
 36 35  1  0  0  0  0
 37 29  2  0  0  0  0
M  END
>  <minimizedAffinity>
-6.42036772

$$$$

 OpenBabel03272500233D

 37 39  0  0  0  0  0  0  0  0999 V2000
   37.5160   27.0520   33.3080 C   0  0  0  0  0  0  0  0  0  0  0  0
   37.0020   26.3170   32.2060 C   0  0  0  0  0  0  0  0  0  0  0  0
   37.6050   25.1090   31.8640 C   0  0  0  0  0  0  0  0  0  0  0  0
   38.6710   24.6910   32.6160 N   0  0  0  0  0  0  0  0  0  0  0  0
   39.1400   25.3860   33.6410 C   0  0  0  0  0  0  0  0  0  0  0  0
   38.5690   26.5530   33.9810 N   0  0  0  0  0  0  0  0  0  0  0  0
   37.0540   27.9870   33.5760 H   0  0  0  0  0  0  0  0  0  0  0  0
   38.5150   23.2300   35.6590 Cl  0  0  0  0  0  0  0  0  0  0  0  0
   40.1170   23.8740   35.3640 C   0  0  0  0  0  0  0  0  0  0  0  0
   40.2910   24.8740   34.4040 C   0  0  0  0  0  0  0  0  0  0  0  0
   41.5430   25.4350   34.1160 C   0  0  0  0  0  0  0  0  0  0  0  0
   42.6130   24.9220   34.8630 C   0  0  0  0  0  0  0  0  0  0  0  0
   42.4670   23.9470   35.8050 C   0  0  0  0  0  0  0  0  0  0  0  0
   43.8890   23.4000   36.6630 Cl  0  0  0  0  0  0  0  0  0  0  0  0
   41.2050   23.4220   36.0550 C   0  0  0  0  0  0  0  0  0  0  0  0
   41.6660   26.1990   33.3790 H   0  0  0  0  0  0  0  0  0  0  0  0
   43.5810   25.3730   34.6240 H   0  0  0  0  0  0  0  0  0  0  0  0
   41.0290   22.3660   37.0700 C   0  0  0  0  0  0  0  0  0  0  0  0
   40.4630   22.8990   38.2360 F   0  0  0  0  0  0  0  0  0  0  0  0
   42.2050   21.7370   37.3770 F   0  0  0  0  0  0  0  0  0  0  0  0
   40.1560   21.4140   36.6170 F   0  0  0  0  0  0  0  0  0  0  0  0
   35.8340   26.8650   31.4510 C   0  0  0  0  0  0  0  0  0  0  0  0
   34.8250   25.9240   31.3200 F   0  0  0  0  0  0  0  0  0  0  0  0
   35.3210   27.9310   32.1720 F   0  0  0  0  0  0  0  0  0  0  0  0
   36.1890   27.3500   30.2120 F   0  0  0  0  0  0  0  0  0  0  0  0
   37.0910   24.3330   30.7290 C   0  0  0  0  0  0  0  0  0  0  0  0
   36.3250   24.9030   30.1900 H   0  0  0  0  0  0  0  0  0  0  0  0
   37.8970   24.1240   29.9780 H   0  0  0  0  0  0  0  0  0  0  0  0
   36.6330   22.9920   31.1860 C   0  0  0  0  0  0  0  0  0  0  0  0
   37.4600   21.9200   30.8290 C   0  0  0  0  0  0  0  0  0  0  0  0
   38.3680   22.0730   30.2590 H   0  0  0  0  0  0  0  0  0  0  0  0
   37.1340   20.6310   31.2000 C   0  0  0  0  0  3  0  0  0  0  0  0
   35.9990   20.3680   31.9230 C   0  0  0  0  0  0  0  0  0  0  0  0
   35.7520   19.3510   32.2100 H   0  0  0  0  0  0  0  0  0  0  0  0
   35.2050   21.4380   32.2610 C   0  0  0  0  0  0  0  0  0  0  0  0
   34.3050   21.2460   32.8310 H   0  0  0  0  0  0  0  0  0  0  0  0
   35.5000   22.7490   31.9050 C   0  0  0  0  0  3  0  0  0  0  0  0
  1  7  1  0  0  0  0
  1  6  1  0  0  0  0
  2  1  2  0  0  0  0
  3  2  1  0  0  0  0
  3  4  2  0  0  0  0
  4  5  1  0  0  0  0
  5  6  2  0  0  0  0
  5 10  1  0  0  0  0
  9  8  1  0  0  0  0
  9 15  1  0  0  0  0
 10  9  2  0  0  0  0
 11 10  1  0  0  0  0
 11 12  2  0  0  0  0
 12 13  1  0  0  0  0
 13 15  2  0  0  0  0
 13 14  1  0  0  0  0
 15 18  1  0  0  0  0
 16 11  1  0  0  0  0
 17 12  1  0  0  0  0
 18 20  1  0  0  0  0
 18 19  1  0  0  0  0
 21 18  1  0  0  0  0
 22 24  1  0  0  0  0
 22  2  1  0  0  0  0
 23 22  1  0  0  0  0
 25 22  1  0  0  0  0
 26 29  1  0  0  0  0
 26  3  1  0  0  0  0
 27 26  1  0  0  0  0
 28 26  1  0  0  0  0
 29 37  1  0  0  0  0
 30 29  2  0  0  0  0
 30 32  1  0  0  0  0
 31 30  1  0  0  0  0
 32 33  2  0  0  0  0
 33 34  1  0  0  0  0
 33 35  1  0  0  0  0
 35 36  1  0  0  0  0
 37 35  2  0  0  0  0
M  END
>  <minimizedAffinity>
-6.312181

$$$$

 OpenBabel03272500233D

 37 39  0  0  0  0  0  0  0  0999 V2000
   35.3200   24.9680   31.0950 C   0  0  0  0  0  0  0  0  0  0  0  0
   36.3920   24.2750   31.7180 C   0  0  0  0  0  0  0  0  0  0  0  0
   37.3510   25.0060   32.4140 C   0  0  0  0  0  0  0  0  0  0  0  0
   37.2080   26.3670   32.4610 N   0  0  0  0  0  0  0  0  0  0  0  0
   36.2040   27.0020   31.8760 C   0  0  0  0  0  0  0  0  0  0  0  0
   35.2720   26.3100   31.2000 N   0  0  0  0  0  0  0  0  0  0  0  0
   34.5760   24.4080   30.5550 H   0  0  0  0  0  0  0  0  0  0  0  0
   35.7690   28.1130   34.6480 Cl  0  0  0  0  0  0  0  0  0  0  0  0
   35.9150   29.0910   33.2030 C   0  0  0  0  0  0  0  0  0  0  0  0
   36.1150   28.4690   31.9680 C   0  0  0  0  0  0  0  0  0  0  0  0
   36.2410   29.1890   30.7710 C   0  0  0  0  0  0  0  0  0  0  0  0
   36.1500   30.5810   30.8990 C   0  0  0  0  0  0  0  0  0  0  0  0
   35.9550   31.2110   32.0940 C   0  0  0  0  0  0  0  0  0  0  0  0
   35.8620   32.9570   32.1090 Cl  0  0  0  0  0  0  0  0  0  0  0  0
   35.8370   30.4530   33.2530 C   0  0  0  0  0  0  0  0  0  0  0  0
   36.3940   28.7030   29.8310 H   0  0  0  0  0  0  0  0  0  0  0  0
   36.2510   31.1240   29.9550 H   0  0  0  0  0  0  0  0  0  0  0  0
   35.6250   31.1170   34.5540 C   0  0  0  0  0  0  0  0  0  0  0  0
   34.2920   30.9820   34.9610 F   0  0  0  0  0  0  0  0  0  0  0  0
   35.9620   32.4440   34.5220 F   0  0  0  0  0  0  0  0  0  0  0  0
   36.3880   30.5190   35.5200 F   0  0  0  0  0  0  0  0  0  0  0  0
   36.4540   22.7860   31.6050 C   0  0  0  0  0  0  0  0  0  0  0  0
   36.2170   22.1710   32.8240 F   0  0  0  0  0  0  0  0  0  0  0  0
   35.4580   22.3810   30.7320 F   0  0  0  0  0  0  0  0  0  0  0  0
   37.6510   22.3470   31.0820 F   0  0  0  0  0  0  0  0  0  0  0  0
   38.4670   24.3100   33.0650 C   0  0  0  0  0  0  0  0  0  0  0  0
   38.6070   23.3140   32.6280 H   0  0  0  0  0  0  0  0  0  0  0  0
   39.4360   24.8500   32.9030 H   0  0  0  0  0  0  0  0  0  0  0  0
   38.2770   24.2970   34.5420 C   0  0  0  0  0  0  0  0  0  0  0  0
   38.1160   23.0320   35.1180 C   0  0  0  0  0  0  0  0  0  0  0  0
   38.1330   22.1310   34.5160 H   0  0  0  0  0  0  0  0  0  0  0  0
   37.9340   22.9000   36.4800 C   0  0  0  0  0  3  0  0  0  0  0  0
   37.9050   24.0000   37.2990 C   0  0  0  0  0  0  0  0  0  0  0  0
   37.7600   23.8860   38.3700 H   0  0  0  0  0  0  0  0  0  0  0  0
   38.0640   25.2310   36.7090 C   0  0  0  0  0  0  0  0  0  0  0  0
   38.0420   26.1080   37.3430 H   0  0  0  0  0  0  0  0  0  0  0  0
   38.2500   25.4020   35.3430 C   0  0  0  0  0  3  0  0  0  0  0  0
  1  6  2  0  0  0  0
  1  2  1  0  0  0  0
  2  3  2  0  0  0  0
  3  4  1  0  0  0  0
  3 26  1  0  0  0  0
  5 10  1  0  0  0  0
  5  4  2  0  0  0  0
  6  5  1  0  0  0  0
  7  1  1  0  0  0  0
  9 15  1  0  0  0  0
  9  8  1  0  0  0  0
 10  9  2  0  0  0  0
 11 12  2  0  0  0  0
 11 10  1  0  0  0  0
 12 13  1  0  0  0  0
 13 14  1  0  0  0  0
 13 15  2  0  0  0  0
 15 18  1  0  0  0  0
 16 11  1  0  0  0  0
 17 12  1  0  0  0  0
 18 19  1  0  0  0  0
 18 21  1  0  0  0  0
 20 18  1  0  0  0  0
 22  2  1  0  0  0  0
 22 23  1  0  0  0  0
 24 22  1  0  0  0  0
 25 22  1  0  0  0  0
 26 29  1  0  0  0  0
 27 26  1  0  0  0  0
 28 26  1  0  0  0  0
 29 30  2  0  0  0  0
 29 37  1  0  0  0  0
 30 32  1  0  0  0  0
 31 30  1  0  0  0  0
 32 33  2  0  0  0  0
 33 34  1  0  0  0  0
 35 33  1  0  0  0  0
 35 36  1  0  0  0  0
 37 35  2  0  0  0  0
M  END
>  <minimizedAffinity>
-6.29734707

$$$$

 OpenBabel03272500233D

 37 39  0  0  0  0  0  0  0  0999 V2000
   35.2160   24.8600   31.0780 C   0  0  0  0  0  0  0  0  0  0  0  0
   36.2800   24.1410   31.6870 C   0  0  0  0  0  0  0  0  0  0  0  0
   37.2660   24.8490   32.3680 C   0  0  0  0  0  0  0  0  0  0  0  0
   37.1560   26.2130   32.4170 N   0  0  0  0  0  0  0  0  0  0  0  0
   36.1590   26.8720   31.8460 C   0  0  0  0  0  0  0  0  0  0  0  0
   35.2020   26.2020   31.1850 N   0  0  0  0  0  0  0  0  0  0  0  0
   34.4510   24.3180   30.5490 H   0  0  0  0  0  0  0  0  0  0  0  0
   37.1150   28.3700   29.4060 Cl  0  0  0  0  0  0  0  0  0  0  0  0
   36.5250   29.1340   30.8680 C   0  0  0  0  0  0  0  0  0  0  0  0
   36.1070   28.3410   31.9390 C   0  0  0  0  0  0  0  0  0  0  0  0
   35.6250   28.8840   33.1390 C   0  0  0  0  0  0  0  0  0  0  0  0
   35.5920   30.2840   33.1890 C   0  0  0  0  0  0  0  0  0  0  0  0
   35.9950   31.0790   32.1550 C   0  0  0  0  0  0  0  0  0  0  0  0
   35.8990   32.8130   32.3540 Cl  0  0  0  0  0  0  0  0  0  0  0  0
   36.4650   30.4930   30.9870 C   0  0  0  0  0  0  0  0  0  0  0  0
   35.3070   28.2680   33.9520 H   0  0  0  0  0  0  0  0  0  0  0  0
   35.2130   30.6890   34.1320 H   0  0  0  0  0  0  0  0  0  0  0  0
   36.9050   31.3370   29.8590 C   0  0  0  0  0  0  0  0  0  0  0  0
   35.9070   32.2610   29.5230 F   0  0  0  0  0  0  0  0  0  0  0  0
   37.2380   30.6000   28.7550 F   0  0  0  0  0  0  0  0  0  0  0  0
   38.0050   32.0680   30.2160 F   0  0  0  0  0  0  0  0  0  0  0  0
   36.3050   22.6510   31.5730 C   0  0  0  0  0  0  0  0  0  0  0  0
   36.0150   22.0420   32.7830 F   0  0  0  0  0  0  0  0  0  0  0  0
   35.3250   22.2740   30.6700 F   0  0  0  0  0  0  0  0  0  0  0  0
   37.5040   22.1800   31.0850 F   0  0  0  0  0  0  0  0  0  0  0  0
   38.3750   24.1260   33.0040 C   0  0  0  0  0  0  0  0  0  0  0  0
   38.4680   23.1180   32.5830 H   0  0  0  0  0  0  0  0  0  0  0  0
   39.3570   24.6290   32.8050 H   0  0  0  0  0  0  0  0  0  0  0  0
   38.2240   24.1490   34.4850 C   0  0  0  0  0  0  0  0  0  0  0  0
   38.0370   22.9010   35.0910 C   0  0  0  0  0  0  0  0  0  0  0  0
   38.0060   21.9890   34.5070 H   0  0  0  0  0  0  0  0  0  0  0  0
   37.8870   22.8020   36.4590 C   0  0  0  0  0  3  0  0  0  0  0  0
   37.9170   23.9180   37.2560 C   0  0  0  0  0  0  0  0  0  0  0  0
   37.7980   23.8290   38.3320 H   0  0  0  0  0  0  0  0  0  0  0  0
   38.1020   25.1300   36.6370 C   0  0  0  0  0  0  0  0  0  0  0  0
   38.1280   26.0200   37.2540 H   0  0  0  0  0  0  0  0  0  0  0  0
   38.2570   25.2690   35.2630 C   0  0  0  0  0  3  0  0  0  0  0  0
  1  6  2  0  0  0  0
  1  2  1  0  0  0  0
  2  3  2  0  0  0  0
  3  4  1  0  0  0  0
  3 26  1  0  0  0  0
  5 10  1  0  0  0  0
  5  4  2  0  0  0  0
  6  5  1  0  0  0  0
  7  1  1  0  0  0  0
  8  9  1  0  0  0  0
  9 15  2  0  0  0  0
  9 10  1  0  0  0  0
 10 11  2  0  0  0  0
 11 12  1  0  0  0  0
 11 16  1  0  0  0  0
 12 17  1  0  0  0  0
 13 14  1  0  0  0  0
 13 12  2  0  0  0  0
 15 13  1  0  0  0  0
 18 21  1  0  0  0  0
 18 15  1  0  0  0  0
 19 18  1  0  0  0  0
 20 18  1  0  0  0  0
 22  2  1  0  0  0  0
 22 23  1  0  0  0  0
 24 22  1  0  0  0  0
 25 22  1  0  0  0  0
 26 29  1  0  0  0  0
 27 26  1  0  0  0  0
 28 26  1  0  0  0  0
 29 30  2  0  0  0  0
 29 37  1  0  0  0  0
 30 32  1  0  0  0  0
 31 30  1  0  0  0  0
 32 33  2  0  0  0  0
 33 34  1  0  0  0  0
 35 36  1  0  0  0  0
 35 33  1  0  0  0  0
 37 35  2  0  0  0  0
M  END
>  <minimizedAffinity>
-6.2668519

$$$$
