
 OpenBabel03272503133D

 46 50  0  0  0  0  0  0  0  0999 V2000
   39.2720   31.9490   44.9760 C   0  0  0  0  0  0  0  0  0  0  0  0
   38.1790   32.5960   45.0990 O   0  0  0  0  0  0  0  0  0  0  0  0
   39.9750   31.6720   46.1840 N   0  0  0  0  0  0  0  0  0  0  0  0
   40.8790   31.1540   46.1050 H   0  0  0  0  0  0  0  0  0  0  0  0
   39.1960   32.2860   42.6030 C   0  0  0  0  0  0  0  0  0  0  0  0
   39.7050   31.5540   43.6460 C   0  0  0  0  0  0  0  0  0  0  0  0
   40.5710   30.5060   43.4740 C   0  0  0  0  0  0  0  0  0  0  0  0
   40.9710   30.1460   42.1910 C   0  0  0  0  0  0  0  0  0  0  0  0
   41.7810   29.1990   41.7320 N   0  0  0  0  0  0  0  0  0  0  0  0
   41.8080   29.3010   40.4040 C   0  0  0  0  0  0  0  0  0  0  0  0
   41.0090   30.3230   40.0260 N   0  0  0  0  0  0  0  0  0  0  0  0
   40.4620   30.8810   41.1330 C   0  0  0  0  0  0  0  0  0  0  0  0
   39.5920   31.9330   41.3070 C   0  0  0  0  0  0  0  0  0  0  0  0
   38.5110   33.1130   42.7620 H   0  0  0  0  0  0  0  0  0  0  0  0
   40.9470   29.9560   44.3240 H   0  0  0  0  0  0  0  0  0  0  0  0
   42.2820   28.5150   42.3690 H   0  0  0  0  0  0  0  0  0  0  0  0
   42.3930   28.6490   39.7580 H   0  0  0  0  0  0  0  0  0  0  0  0
   39.0900   32.6620   40.2260 O   0  0  0  0  0  0  0  0  0  0  0  0
   37.8440   33.2630   40.3000 C   0  0  0  0  0  0  0  0  0  0  0  0
   36.9760   33.2570   41.3870 C   0  0  0  0  0  0  0  0  0  0  0  0
   37.3410   32.7200   42.2470 H   0  0  0  0  0  0  0  0  0  0  0  0
   35.7630   33.9100   41.2930 C   0  0  0  0  0  0  0  0  0  0  0  0
   35.4330   34.5650   40.1030 C   0  0  0  0  0  0  0  0  0  0  0  0
   34.4760   35.0790   40.0320 H   0  0  0  0  0  0  0  0  0  0  0  0
   36.2800   34.5830   39.0120 C   0  0  0  0  0  0  0  0  0  0  0  0
   35.9660   35.1100   38.1150 H   0  0  0  0  0  0  0  0  0  0  0  0
   37.4870   33.9210   39.1360 C   0  0  0  0  0  0  0  0  0  0  0  0
   38.1270   30.1760   47.5020 F   0  0  0  0  0  0  0  0  0  0  0  0
   38.3730   31.4050   48.0060 C   0  0  0  0  0  0  0  0  0  0  0  0
   37.7140   31.8440   49.1190 C   0  0  0  0  0  0  0  0  0  0  0  0
   38.0090   33.0960   49.5770 C   0  0  0  0  0  0  0  0  0  0  0  0
   38.9310   33.9090   48.9620 C   0  0  0  0  0  0  0  0  0  0  0  0
   39.5950   33.4470   47.8290 C   0  0  0  0  0  0  0  0  0  0  0  0
   39.3000   32.1690   47.3530 C   0  0  0  0  0  0  0  0  0  0  0  0
   37.4920   33.4540   50.4570 H   0  0  0  0  0  0  0  0  0  0  0  0
   39.1110   34.8890   49.3840 H   0  0  0  0  0  0  0  0  0  0  0  0
   40.3130   34.0890   47.3560 H   0  0  0  0  0  0  0  0  0  0  0  0
   36.0730   29.3430   51.4480 C   0  0  0  0  0  0  0  0  0  0  0  0
   37.0340   30.2080   50.8760 C   0  0  0  0  0  0  0  0  0  0  0  0
   36.7390   30.9370   49.7370 C   0  0  0  0  0  0  0  0  0  0  0  0
   35.4820   30.7810   49.1940 N   0  0  0  0  0  0  0  0  0  0  0  0
   34.5750   29.9570   49.7420 C   0  0  0  0  0  0  0  0  0  0  0  0
   34.8590   29.2540   50.8410 N   0  0  0  0  0  0  0  0  0  0  0  0
   36.3260   28.7830   52.3380 H   0  0  0  0  0  0  0  0  0  0  0  0
   37.9900   30.2910   51.3360 H   0  0  0  0  0  0  0  0  0  0  0  0
   33.6070   29.8690   49.2820 H   0  0  0  0  0  0  0  0  0  0  0  0
  1  2  2  0  0  0  0
  1  3  1  0  0  0  0
  3 34  1  0  0  0  0
  4  3  1  0  0  0  0
  5 14  1  0  0  0  0
  5  6  1  0  0  0  0
  6  1  1  0  0  0  0
  7  6  2  0  0  0  0
  7 15  1  0  0  0  0
  8  7  1  0  0  0  0
  9  8  1  0  0  0  0
  9 16  1  0  0  0  0
 10  9  1  0  0  0  0
 11 10  2  0  0  0  0
 11 12  1  0  0  0  0
 12 13  1  0  0  0  0
 12  8  2  0  0  0  0
 13  5  2  0  0  0  0
 17 10  1  0  0  0  0
 18 19  1  0  0  0  0
 18 13  1  0  0  0  0
 19 20  1  0  0  0  0
 20 21  1  0  0  0  0
 22 20  2  0  0  0  0
 23 22  1  0  0  0  0
 24 23  1  0  0  0  0
 25 27  1  0  0  0  0
 25 23  2  0  0  0  0
 26 25  1  0  0  0  0
 27 19  2  0  0  0  0
 28 29  1  0  0  0  0
 29 30  1  0  0  0  0
 30 31  2  0  0  0  0
 30 40  1  0  0  0  0
 31 35  1  0  0  0  0
 32 36  1  0  0  0  0
 32 31  1  0  0  0  0
 33 32  2  0  0  0  0
 34 33  1  0  0  0  0
 34 29  2  0  0  0  0
 37 33  1  0  0  0  0
 38 44  1  0  0  0  0
 39 45  1  0  0  0  0
 39 38  1  0  0  0  0
 40 39  2  0  0  0  0
 41 40  1  0  0  0  0
 41 42  2  0  0  0  0
 42 43  1  0  0  0  0
 43 38  2  0  0  0  0
 46 42  1  0  0  0  0
M  END
>  <minimizedAffinity>
-7.5117383

>  <minimizedRMSD>
0.494934261

$$$$
