
 OpenBabel03272510133D

 41 44  0  0  0  0  0  0  0  0999 V2000
   38.4100   31.4220   48.8100 C   0  0  0  0  0  0  0  0  0  0  0  0
   38.4520   32.6350   49.4540 C   0  0  0  0  0  0  0  0  0  0  0  0
   39.0390   33.5470   48.5790 C   0  0  0  0  0  0  0  0  0  0  0  0
   39.3310   32.8900   47.4610 N   0  0  0  0  0  0  0  0  0  0  0  0
   38.9590   31.6670   47.6180 N   0  0  0  0  0  0  0  0  0  0  0  0
   38.1510   33.0120   50.4220 H   0  0  0  0  0  0  0  0  0  0  0  0
   39.2590   34.6140   48.6950 H   0  0  0  0  0  0  0  0  0  0  0  0
   39.9630   33.4010   46.2740 C   0  0  0  0  0  0  0  0  0  0  0  0
   40.5660   34.2930   46.5050 H   0  0  0  0  0  0  0  0  0  0  0  0
   39.1490   33.7740   45.5910 H   0  0  0  0  0  0  0  0  0  0  0  0
   40.7410   32.3140   45.6100 C   0  0  0  0  0  0  0  0  0  0  0  0
   41.8270   32.6440   45.6770 H   0  0  0  0  0  0  0  0  0  0  0  0
   40.7630   31.3770   46.2580 H   0  0  0  0  0  0  0  0  0  0  0  0
   40.3790   31.9760   44.2300 C   0  0  0  0  0  0  0  0  0  0  0  0
   40.5720   30.8670   43.4380 C   0  0  0  0  0  0  0  0  0  0  0  0
   41.1570   30.0950   43.9170 H   0  0  0  0  0  0  0  0  0  0  0  0
   40.0820   30.7910   42.1550 C   0  0  0  0  0  3  0  0  0  0  0  0
   39.3680   31.8170   41.5790 C   0  0  0  0  0  0  0  0  0  0  0  0
   39.0490   31.6130   40.5660 H   0  0  0  0  0  0  0  0  0  0  0  0
   39.1570   32.9440   42.3450 C   0  0  0  0  0  0  0  0  0  0  0  0
   38.5940   33.7270   41.8610 H   0  0  0  0  0  0  0  0  0  0  0  0
   39.6520   33.0140   43.6390 C   0  0  0  0  0  3  0  0  0  0  0  0
   37.8550   30.3900   49.5400 O   0  0  0  0  0  0  0  0  0  0  0  0
   34.1290   28.8590   48.3310 C   0  0  0  0  0  0  0  0  0  0  0  0
   34.7450   28.4090   49.4640 C   0  0  0  0  0  0  0  0  0  0  0  0
   35.9620   28.8630   49.9210 C   0  0  0  0  0  0  0  0  0  0  0  0
   36.6350   29.8220   49.2350 C   0  0  0  0  0  0  0  0  0  0  0  0
   36.0170   30.2900   48.0760 C   0  0  0  0  0  0  0  0  0  0  0  0
   34.8200   29.8260   47.6500 N   0  0  0  0  0  0  0  0  0  0  0  0
   34.2630   27.6440   50.0600 H   0  0  0  0  0  0  0  0  0  0  0  0
   36.4380   28.4950   50.8210 H   0  0  0  0  0  0  0  0  0  0  0  0
   36.4180   31.0530   47.4140 H   0  0  0  0  0  0  0  0  0  0  0  0
   32.0120   27.5700   48.5840 C   0  0  0  0  0  0  0  0  0  0  0  0
   32.8660   28.3990   47.8400 C   0  0  0  0  0  0  0  0  0  0  0  0
   32.4400   28.7640   46.5890 C   0  0  0  0  0  0  0  0  0  0  0  0
   31.2330   28.3210   46.1200 N   0  0  0  0  0  0  0  0  0  0  0  0
   30.4430   27.5140   46.8910 C   0  0  0  0  0  0  0  0  0  0  0  0
   30.8230   27.1300   48.1310 N   0  0  0  0  0  0  0  0  0  0  0  0
   32.3040   27.2560   49.5750 H   0  0  0  0  0  0  0  0  0  0  0  0
   33.0380   29.4060   45.9360 H   0  0  0  0  0  0  0  0  0  0  0  0
   29.4930   27.1650   46.5260 H   0  0  0  0  0  0  0  0  0  0  0  0
  1  2  1  0  0  0  0
  1 23  1  0  0  0  0
  2  6  1  0  0  0  0
  3  7  1  0  0  0  0
  3  2  2  0  0  0  0
  4  5  1  0  0  0  0
  4  3  1  0  0  0  0
  5  1  2  0  0  0  0
  8  9  1  0  0  0  0
  8  4  1  0  0  0  0
 10  8  1  0  0  0  0
 11 12  1  0  0  0  0
 11 13  1  0  0  0  0
 11  8  1  0  0  0  0
 14 11  1  0  0  0  0
 15 16  1  0  0  0  0
 15 14  2  0  0  0  0
 17 15  1  0  0  0  0
 18 17  2  0  0  0  0
 18 20  1  0  0  0  0
 19 18  1  0  0  0  0
 20 22  2  0  0  0  0
 21 20  1  0  0  0  0
 22 14  1  0  0  0  0
 24 25  1  0  0  0  0
 25 26  2  0  0  0  0
 25 30  1  0  0  0  0
 26 31  1  0  0  0  0
 27 23  1  0  0  0  0
 27 26  1  0  0  0  0
 28 27  2  0  0  0  0
 29 28  1  0  0  0  0
 29 24  2  0  0  0  0
 32 28  1  0  0  0  0
 33 39  1  0  0  0  0
 34 24  1  0  0  0  0
 34 33  2  0  0  0  0
 35 34  1  0  0  0  0
 36 35  2  0  0  0  0
 36 37  1  0  0  0  0
 37 38  2  0  0  0  0
 38 33  1  0  0  0  0
 40 35  1  0  0  0  0
 41 37  1  0  0  0  0
M  END
>  <minimizedAffinity>
-6.4493022

>  <minimizedRMSD>
1.47261226

$$$$
