
     RDKit          3D

 21 22  0  0  0  0  0  0  0  0999 V2000
   37.2630   30.1775   51.4229 C   0  0  0  0  0  0  0  0  0  0  0  0
   38.1136   30.7562   50.4717 C   0  0  0  0  0  0  0  0  0  0  0  0
   37.8464   30.5489   49.1144 C   0  0  0  0  0  0  0  0  0  0  0  0
   36.7619   29.7873   48.7836 N   0  0  0  0  0  0  0  0  0  0  0  0
   35.9672   29.2473   49.7175 C   0  0  0  0  0  0  0  0  0  0  0  0
   36.2044   29.4329   51.0216 N   0  0  0  0  0  0  0  0  0  0  0  0
   34.5455   28.2489   49.3023 S   0  0  0  0  0  0  0  0  0  0  0  0
   37.4147   30.2997   52.4865 H   0  0  0  0  0  0  0  0  0  0  0  0
   38.9524   31.3461   50.8314 H   0  0  0  0  0  0  0  0  0  0  0  0
   38.4938   30.9893   48.3796 H   0  0  0  0  0  0  0  0  0  0  0  0
   34.9507   26.5179   49.1548 C   0  0  0  0  0  0  0  0  0  0  0  0
   35.0804   25.7659   48.0108 C   0  0  0  0  0  0  0  0  0  0  0  0
   34.9060   26.3358   47.1012 H   0  0  0  0  0  0  0  0  0  0  0  0
   35.4028   24.4277   48.1063 C   0  0  0  0  0  0  0  0  0  0  0  0
   35.5953   23.8394   49.3382 C   0  0  0  0  0  0  0  0  0  0  0  0
   35.8459   22.7994   49.4118 H   0  0  0  0  0  0  0  0  0  0  0  0
   35.4708   24.5716   50.4950 C   0  0  0  0  0  0  0  0  0  0  0  0
   35.6305   24.0732   51.4565 H   0  0  0  0  0  0  0  0  0  0  0  0
   35.1454   25.9233   50.4002 C   0  0  0  0  0  0  0  0  0  0  0  0
   35.4916   23.8846   47.1646 H   0  0  0  0  0  0  0  0  0  0  0  0
   35.0703   26.4132   51.3754 H   0  0  0  0  0  0  0  0  0  0  0  0
  2  1  2  0
  3  2  1  0
  4  3  2  0
  4  5  1  0
  5  6  2  0
  6  1  1  0
  7  5  1  0
  1  8  1  0
  2  9  1  0
  3 10  1  0
 11 12  2  0
 12 13  1  0
 12 14  1  0
 14 15  2  0
 15 16  1  0
 15 17  1  0
 17 18  1  0
 17 19  2  0
 19 11  1  0
 14 20  1  0
 19 21  1  0
  7 11  1  0
M  ISO  6   8  14   9  14  10  14  13  16  16  16  18  16
M  END
>  <DihAtoms>  (1) 
4,6,10,11

>  <DihDeg>  (1) 
0.006041692397758312

$$$$
