
 OpenBabel03262522573D

 25 27  0  0  0  0  0  0  0  0999 V2000
   36.2460   30.2280   49.1210 C   0  0  0  0  0  0  0  0  0  0  0  0
   35.9400   29.8120   50.4090 C   0  0  0  0  0  0  0  0  0  0  0  0
   34.9530   28.8660   50.3470 C   0  0  0  0  0  0  0  0  0  0  0  0
   34.6620   28.7090   49.0310 N   0  0  0  0  0  0  0  0  0  0  0  0
   35.4470   29.5310   48.3330 N   0  0  0  0  0  0  0  0  0  0  0  0
   36.4330   30.2030   51.3020 H   0  0  0  0  0  0  0  0  0  0  0  0
   34.5010   28.3530   51.1650 H   0  0  0  0  0  0  0  0  0  0  0  0
   38.9710   31.9570   47.3920 C   0  0  0  0  0  0  0  0  0  0  0  0
   39.1050   33.1440   48.1660 C   0  0  0  0  0  0  0  0  0  0  0  0
   38.2590   33.3220   49.2600 C   0  0  0  0  0  0  0  0  0  0  0  0
   37.3550   32.3490   49.5230 N   0  0  0  0  0  0  0  0  0  0  0  0
   37.2480   31.2280   48.7690 C   0  0  0  0  0  0  0  0  0  0  0  0
   38.0500   31.0350   47.7140 N   0  0  0  0  0  0  0  0  0  0  0  0
   39.6590   31.8950   46.5670 H   0  0  0  0  0  0  0  0  0  0  0  0
   39.8300   33.9180   47.9510 H   0  0  0  0  0  0  0  0  0  0  0  0
   38.3060   34.1990   49.8930 H   0  0  0  0  0  0  0  0  0  0  0  0
   33.6760   27.8020   48.5540 C   0  0  0  0  0  0  0  0  0  0  0  0
   33.9200   26.7170   47.7360 C   0  0  0  0  0  0  0  0  0  0  0  0
   34.9430   26.5410   47.4340 H   0  0  0  0  0  0  0  0  0  0  0  0
   32.8690   25.8900   47.3270 C   0  0  0  0  0  0  0  0  0  0  0  0
   31.5660   26.1280   47.7210 C   0  0  0  0  0  0  0  0  0  0  0  0
   30.7290   25.5020   47.4180 H   0  0  0  0  0  0  0  0  0  0  0  0
   31.2940   27.1990   48.5320 C   0  0  0  0  0  0  0  0  0  0  0  0
   30.2890   27.4430   48.8800 H   0  0  0  0  0  0  0  0  0  0  0  0
   32.3470   27.9780   48.9080 C   0  0  0  0  0  0  0  0  0  0  0  0
  1  2  1  0  0  0  0
  2  6  1  0  0  0  0
  3  2  2  0  0  0  0
  3  7  1  0  0  0  0
  4  3  1  0  0  0  0
  5  4  1  0  0  0  0
  5  1  2  0  0  0  0
  8 13  2  0  0  0  0
  8  9  1  0  0  0  0
  9 10  2  0  0  0  0
 10 11  1  0  0  0  0
 10 16  1  0  0  0  0
 12  1  1  0  0  0  0
 12 11  2  0  0  0  0
 13 12  1  0  0  0  0
 14  8  1  0  0  0  0
 15  9  1  0  0  0  0
 17 25  1  0  0  0  0
 17  4  1  0  0  0  0
 18 17  2  0  0  0  0
 19 18  1  0  0  0  0
 20 21  2  0  0  0  0
 20 18  1  0  0  0  0
 21 23  1  0  0  0  0
 22 21  1  0  0  0  0
 23 24  1  0  0  0  0
 23 25  2  0  0  0  0
M  END
>  <minimizedAffinity>
-5.2857461

>  <minimizedRMSD>
2.74014568

$$$$
