
 OpenBabel03272510133D

 41 44  0  0  0  0  0  0  0  0999 V2000
   38.4440   31.4170   48.7670 C   0  0  0  0  0  0  0  0  0  0  0  0
   38.4800   32.6290   49.4130 C   0  0  0  0  0  0  0  0  0  0  0  0
   39.0570   33.5460   48.5370 C   0  0  0  0  0  0  0  0  0  0  0  0
   39.3480   32.8930   47.4160 N   0  0  0  0  0  0  0  0  0  0  0  0
   38.9850   31.6680   47.5730 N   0  0  0  0  0  0  0  0  0  0  0  0
   38.1820   33.0020   50.3830 H   0  0  0  0  0  0  0  0  0  0  0  0
   39.2710   34.6140   48.6540 H   0  0  0  0  0  0  0  0  0  0  0  0
   39.9710   33.4110   46.2270 C   0  0  0  0  0  0  0  0  0  0  0  0
   40.6460   34.2460   46.4710 H   0  0  0  0  0  0  0  0  0  0  0  0
   39.1620   33.8720   45.5940 H   0  0  0  0  0  0  0  0  0  0  0  0
   40.6420   32.3020   45.4870 C   0  0  0  0  0  0  0  0  0  0  0  0
   41.7200   32.6400   45.3610 H   0  0  0  0  0  0  0  0  0  0  0  0
   40.7820   31.3920   46.1590 H   0  0  0  0  0  0  0  0  0  0  0  0
   40.0620   31.9060   44.2000 C   0  0  0  0  0  0  0  0  0  0  0  0
   39.7100   32.5910   43.0600 C   0  0  0  0  0  0  0  0  0  0  0  0
   39.8470   33.6600   43.1430 H   0  0  0  0  0  0  0  0  0  0  0  0
   39.2050   31.9550   41.9500 C   0  0  0  0  0  3  0  0  0  0  0  0
   39.0200   30.5910   41.9070 C   0  0  0  0  0  0  0  0  0  0  0  0
   38.6180   30.2360   40.9680 H   0  0  0  0  0  0  0  0  0  0  0  0
   39.3620   29.8730   43.0330 C   0  0  0  0  0  0  0  0  0  0  0  0
   39.2020   28.8080   42.9610 H   0  0  0  0  0  0  0  0  0  0  0  0
   39.8700   30.5210   44.1490 C   0  0  0  0  0  3  0  0  0  0  0  0
   37.8980   30.3800   49.4980 O   0  0  0  0  0  0  0  0  0  0  0  0
   34.1540   28.8590   48.3330 C   0  0  0  0  0  0  0  0  0  0  0  0
   34.7750   28.4190   49.4670 C   0  0  0  0  0  0  0  0  0  0  0  0
   35.9980   28.8700   49.9100 C   0  0  0  0  0  0  0  0  0  0  0  0
   36.6730   29.8160   49.2080 C   0  0  0  0  0  0  0  0  0  0  0  0
   36.0500   30.2740   48.0470 C   0  0  0  0  0  0  0  0  0  0  0  0
   34.8470   29.8130   47.6360 N   0  0  0  0  0  0  0  0  0  0  0  0
   34.2930   27.6640   50.0760 H   0  0  0  0  0  0  0  0  0  0  0  0
   36.4780   28.5100   50.8120 H   0  0  0  0  0  0  0  0  0  0  0  0
   36.4510   31.0270   47.3730 H   0  0  0  0  0  0  0  0  0  0  0  0
   32.0390   27.5720   48.6090 C   0  0  0  0  0  0  0  0  0  0  0  0
   32.8850   28.4010   47.8570 C   0  0  0  0  0  0  0  0  0  0  0  0
   32.4440   28.7700   46.6120 C   0  0  0  0  0  0  0  0  0  0  0  0
   31.2310   28.3290   46.1570 N   0  0  0  0  0  0  0  0  0  0  0  0
   30.4500   27.5210   46.9360 C   0  0  0  0  0  0  0  0  0  0  0  0
   30.8450   27.1340   48.1700 N   0  0  0  0  0  0  0  0  0  0  0  0
   32.3430   27.2540   49.5950 H   0  0  0  0  0  0  0  0  0  0  0  0
   33.0340   29.4130   45.9540 H   0  0  0  0  0  0  0  0  0  0  0  0
   29.4950   27.1740   46.5810 H   0  0  0  0  0  0  0  0  0  0  0  0
  1  2  1  0  0  0  0
  1 23  1  0  0  0  0
  2  6  1  0  0  0  0
  3  7  1  0  0  0  0
  3  2  2  0  0  0  0
  4  5  1  0  0  0  0
  4  3  1  0  0  0  0
  5  1  2  0  0  0  0
  8  9  1  0  0  0  0
  8  4  1  0  0  0  0
 10  8  1  0  0  0  0
 11 13  1  0  0  0  0
 11  8  1  0  0  0  0
 12 11  1  0  0  0  0
 14 11  1  0  0  0  0
 15 16  1  0  0  0  0
 15 14  2  0  0  0  0
 17 15  1  0  0  0  0
 18 17  2  0  0  0  0
 18 20  1  0  0  0  0
 19 18  1  0  0  0  0
 20 22  2  0  0  0  0
 21 20  1  0  0  0  0
 22 14  1  0  0  0  0
 24 25  1  0  0  0  0
 25 26  2  0  0  0  0
 25 30  1  0  0  0  0
 26 31  1  0  0  0  0
 27 23  1  0  0  0  0
 27 26  1  0  0  0  0
 28 27  2  0  0  0  0
 29 28  1  0  0  0  0
 29 24  2  0  0  0  0
 32 28  1  0  0  0  0
 33 39  1  0  0  0  0
 34 24  1  0  0  0  0
 34 33  2  0  0  0  0
 35 34  1  0  0  0  0
 36 35  2  0  0  0  0
 36 37  1  0  0  0  0
 37 38  2  0  0  0  0
 38 33  1  0  0  0  0
 40 35  1  0  0  0  0
 41 37  1  0  0  0  0
M  END
>  <minimizedAffinity>
-6.19663239

>  <minimizedRMSD>
1.36602962

$$$$
