
 OpenBabel03272500053D

 29 31  0  0  0  0  0  0  0  0999 V2000
   37.7150   25.5000   34.1760 C   0  0  0  0  0  0  0  0  0  0  0  0
   38.4030   25.6850   35.3890 C   0  0  0  0  0  0  0  0  0  0  0  0
   38.3240   26.9440   35.9900 C   0  0  0  0  0  0  0  0  0  0  0  0
   37.6000   27.9220   35.3900 N   0  0  0  0  0  0  0  0  0  0  0  0
   36.9550   27.7100   34.2310 C   0  0  0  0  0  0  0  0  0  0  0  0
   37.0060   26.4880   33.6060 N   0  0  0  0  0  0  0  0  0  0  0  0
   37.7270   24.5540   33.6490 H   0  0  0  0  0  0  0  0  0  0  0  0
   38.8420   27.0980   36.9110 H   0  0  0  0  0  0  0  0  0  0  0  0
   39.1290   24.5940   35.9250 N   0  0  0  0  0  0  0  0  0  0  0  0
   40.3630   24.2870   35.5040 C   0  0  0  0  0  0  0  0  0  0  0  0
   41.0340   23.2010   36.0660 C   0  0  0  0  0  0  0  0  0  0  0  0
   40.3420   22.5280   37.0280 C   0  0  0  0  0  0  0  0  0  0  0  0
   40.9340   21.5350   37.5530 O   0  0  0  0  0  0  0  0  0  0  0  0
   39.1220   22.8010   37.4690 N   0  0  0  0  0  0  0  0  0  0  0  0
   38.4970   23.8700   36.8970 C   0  0  0  0  0  0  0  0  0  0  0  0
   37.3330   24.1480   37.3030 O   0  0  0  0  0  0  0  0  0  0  0  0
   40.8590   24.8640   34.7340 H   0  0  0  0  0  0  0  0  0  0  0  0
   42.0290   22.9160   35.7610 H   0  0  0  0  0  0  0  0  0  0  0  0
   38.6420   22.2390   38.2180 H   0  0  0  0  0  0  0  0  0  0  0  0
   36.1980   28.6910   33.5810 O   0  0  0  0  0  0  0  0  0  0  0  0
   35.5740   29.6110   34.4350 C   0  0  0  0  0  0  0  0  0  0  0  0
   34.1930   29.4120   34.4500 C   0  0  0  0  0  0  0  0  0  0  0  0
   33.6500   28.6560   33.8880 H   0  0  0  0  0  0  0  0  0  0  0  0
   33.3720   30.2060   35.2250 C   0  0  0  0  0  3  0  0  0  0  0  0
   33.9520   31.2160   35.9980 C   0  0  0  0  0  0  0  0  0  0  0  0
   33.3470   31.8780   36.6340 H   0  0  0  0  0  0  0  0  0  0  0  0
   35.3210   31.3980   35.9700 C   0  0  0  0  0  0  0  0  0  0  0  0
   35.8240   32.1780   36.5580 H   0  0  0  0  0  0  0  0  0  0  0  0
   36.1390   30.6110   35.2000 C   0  0  0  0  0  3  0  0  0  0  0  0
  1  2  1  0  0  0  0
  2  9  1  0  0  0  0
  2  3  2  0  0  0  0
  3  8  1  0  0  0  0
  4  3  1  0  0  0  0
  5  4  2  0  0  0  0
  6  1  2  0  0  0  0
  6  5  1  0  0  0  0
  7  1  1  0  0  0  0
  9 15  1  0  0  0  0
 10  9  1  0  0  0  0
 10 11  2  0  0  0  0
 11 12  1  0  0  0  0
 12 14  1  0  0  0  0
 12 13  2  0  0  0  0
 14 19  1  0  0  0  0
 15 16  2  0  0  0  0
 15 14  1  0  0  0  0
 17 10  1  0  0  0  0
 18 11  1  0  0  0  0
 20  5  1  0  0  0  0
 20 21  1  0  0  0  0
 21 22  2  0  0  0  0
 21 29  1  0  0  0  0
 22 24  1  0  0  0  0
 23 22  1  0  0  0  0
 24 25  2  0  0  0  0
 25 26  1  0  0  0  0
 27 25  1  0  0  0  0
 27 28  1  0  0  0  0
 29 27  2  0  0  0  0
M  END
>  <minimizedAffinity>
-5.74392509

$$$$

 OpenBabel03272500053D

 29 31  0  0  0  0  0  0  0  0999 V2000
   37.9720   24.7770   34.3480 C   0  0  0  0  0  0  0  0  0  0  0  0
   38.7100   25.1110   35.4980 C   0  0  0  0  0  0  0  0  0  0  0  0
   38.6040   26.4200   35.9750 C   0  0  0  0  0  0  0  0  0  0  0  0
   37.8080   27.3030   35.3210 N   0  0  0  0  0  0  0  0  0  0  0  0
   37.1170   26.9500   34.2240 C   0  0  0  0  0  0  0  0  0  0  0  0
   37.1930   25.6740   33.7210 N   0  0  0  0  0  0  0  0  0  0  0  0
   38.0010   23.7850   33.9170 H   0  0  0  0  0  0  0  0  0  0  0  0
   39.1590   26.6880   36.8480 H   0  0  0  0  0  0  0  0  0  0  0  0
   39.5090   24.1090   36.1010 N   0  0  0  0  0  0  0  0  0  0  0  0
   40.7480   23.8360   35.6700 C   0  0  0  0  0  0  0  0  0  0  0  0
   41.4920   22.8380   36.2990 C   0  0  0  0  0  0  0  0  0  0  0  0
   40.8640   22.2120   37.3330 C   0  0  0  0  0  0  0  0  0  0  0  0
   41.5230   21.3000   37.9200 O   0  0  0  0  0  0  0  0  0  0  0  0
   39.6410   22.4550   37.7860 N   0  0  0  0  0  0  0  0  0  0  0  0
   38.9430   23.4370   37.1470 C   0  0  0  0  0  0  0  0  0  0  0  0
   37.7750   23.6840   37.5630 O   0  0  0  0  0  0  0  0  0  0  0  0
   41.1910   24.3720   34.8410 H   0  0  0  0  0  0  0  0  0  0  0  0
   42.4940   22.5830   35.9890 H   0  0  0  0  0  0  0  0  0  0  0  0
   39.2120   21.9320   38.5930 H   0  0  0  0  0  0  0  0  0  0  0  0
   36.2860   27.8290   33.5210 O   0  0  0  0  0  0  0  0  0  0  0  0
   36.7960   28.2550   32.2860 C   0  0  0  0  0  0  0  0  0  0  0  0
   35.9690   29.2260   31.7200 C   0  0  0  0  0  0  0  0  0  0  0  0
   35.0520   29.6170   32.1540 H   0  0  0  0  0  0  0  0  0  0  0  0
   36.2760   29.7920   30.4990 C   0  0  0  0  0  3  0  0  0  0  0  0
   37.4340   29.3730   29.8380 C   0  0  0  0  0  0  0  0  0  0  0  0
   37.7270   29.7890   28.8640 H   0  0  0  0  0  0  0  0  0  0  0  0
   38.2400   28.4110   30.4140 C   0  0  0  0  0  0  0  0  0  0  0  0
   39.1590   28.0480   29.9350 H   0  0  0  0  0  0  0  0  0  0  0  0
   37.9370   27.8460   31.6270 C   0  0  0  0  0  3  0  0  0  0  0  0
  1  2  1  0  0  0  0
  2  3  2  0  0  0  0
  2  9  1  0  0  0  0
  3  8  1  0  0  0  0
  4  3  1  0  0  0  0
  5  4  2  0  0  0  0
  6  5  1  0  0  0  0
  6  1  2  0  0  0  0
  7  1  1  0  0  0  0
  9 15  1  0  0  0  0
 10  9  1  0  0  0  0
 10 11  2  0  0  0  0
 11 12  1  0  0  0  0
 12 14  1  0  0  0  0
 12 13  2  0  0  0  0
 14 19  1  0  0  0  0
 15 16  2  0  0  0  0
 15 14  1  0  0  0  0
 17 10  1  0  0  0  0
 18 11  1  0  0  0  0
 20  5  1  0  0  0  0
 21 20  1  0  0  0  0
 22 23  1  0  0  0  0
 22 21  1  0  0  0  0
 24 22  2  0  0  0  0
 25 27  2  0  0  0  0
 25 24  1  0  0  0  0
 26 25  1  0  0  0  0
 27 29  1  0  0  0  0
 28 27  1  0  0  0  0
 29 21  2  0  0  0  0
M  END
>  <minimizedAffinity>
-5.55921316

$$$$

 OpenBabel03272500053D

 29 31  0  0  0  0  0  0  0  0999 V2000
   38.1170   27.1360   35.8820 C   0  0  0  0  0  0  0  0  0  0  0  0
   38.0790   25.8490   35.3150 C   0  0  0  0  0  0  0  0  0  0  0  0
   37.3900   25.6950   34.1090 C   0  0  0  0  0  0  0  0  0  0  0  0
   36.7930   26.7740   33.5430 N   0  0  0  0  0  0  0  0  0  0  0  0
   36.8490   27.9900   34.1120 C   0  0  0  0  0  0  0  0  0  0  0  0
   37.5160   28.1850   35.2970 N   0  0  0  0  0  0  0  0  0  0  0  0
   38.6300   27.3370   36.8130 H   0  0  0  0  0  0  0  0  0  0  0  0
   37.3530   24.7230   33.6670 H   0  0  0  0  0  0  0  0  0  0  0  0
   38.7360   24.7940   35.9930 N   0  0  0  0  0  0  0  0  0  0  0  0
   38.2200   24.2260   37.0910 C   0  0  0  0  0  0  0  0  0  0  0  0
   38.9100   23.1900   37.7200 C   0  0  0  0  0  0  0  0  0  0  0  0
   40.0900   22.8410   37.1360 C   0  0  0  0  0  0  0  0  0  0  0  0
   40.7340   21.9000   37.6940 O   0  0  0  0  0  0  0  0  0  0  0  0
   40.6310   23.3790   36.0520 N   0  0  0  0  0  0  0  0  0  0  0  0
   39.9290   24.3890   35.4630 C   0  0  0  0  0  0  0  0  0  0  0  0
   40.4280   24.9160   34.4280 O   0  0  0  0  0  0  0  0  0  0  0  0
   37.2750   24.5510   37.5060 H   0  0  0  0  0  0  0  0  0  0  0  0
   38.5350   22.7010   38.6070 H   0  0  0  0  0  0  0  0  0  0  0  0
   41.5510   23.0610   35.6500 H   0  0  0  0  0  0  0  0  0  0  0  0
   36.2490   29.1270   33.5610 O   0  0  0  0  0  0  0  0  0  0  0  0
   35.5010   29.8920   34.4670 C   0  0  0  0  0  0  0  0  0  0  0  0
   34.1660   29.4880   34.4700 C   0  0  0  0  0  0  0  0  0  0  0  0
   33.7370   28.6940   33.8630 H   0  0  0  0  0  0  0  0  0  0  0  0
   33.2420   30.1040   35.2890 C   0  0  0  0  0  3  0  0  0  0  0  0
   33.6700   31.1430   36.1200 C   0  0  0  0  0  0  0  0  0  0  0  0
   32.9780   31.6680   36.7940 H   0  0  0  0  0  0  0  0  0  0  0  0
   34.9960   31.5290   36.1050 C   0  0  0  0  0  0  0  0  0  0  0  0
   35.3820   32.3390   36.7380 H   0  0  0  0  0  0  0  0  0  0  0  0
   35.9170   30.9190   35.2900 C   0  0  0  0  0  3  0  0  0  0  0  0
  1  7  1  0  0  0  0
  2  1  1  0  0  0  0
  2  9  1  0  0  0  0
  3  2  2  0  0  0  0
  4  3  1  0  0  0  0
  4  5  2  0  0  0  0
  5  6  1  0  0  0  0
  6  1  2  0  0  0  0
  8  3  1  0  0  0  0
  9 10  1  0  0  0  0
 10 17  1  0  0  0  0
 10 11  2  0  0  0  0
 11 18  1  0  0  0  0
 12 13  2  0  0  0  0
 12 11  1  0  0  0  0
 14 12  1  0  0  0  0
 15  9  1  0  0  0  0
 15 14  1  0  0  0  0
 16 15  2  0  0  0  0
 19 14  1  0  0  0  0
 20  5  1  0  0  0  0
 20 21  1  0  0  0  0
 21 22  2  0  0  0  0
 21 29  1  0  0  0  0
 22 24  1  0  0  0  0
 23 22  1  0  0  0  0
 24 25  2  0  0  0  0
 25 26  1  0  0  0  0
 27 25  1  0  0  0  0
 27 28  1  0  0  0  0
 29 27  2  0  0  0  0
M  END
>  <minimizedAffinity>
-5.41152906

$$$$

 OpenBabel03272500053D

 29 31  0  0  0  0  0  0  0  0999 V2000
   36.3440   28.3600   34.3440 C   0  0  0  0  0  0  0  0  0  0  0  0
   35.7350   29.5580   33.9300 C   0  0  0  0  0  0  0  0  0  0  0  0
   35.7560   29.8530   32.5640 C   0  0  0  0  0  0  0  0  0  0  0  0
   36.3510   28.9870   31.7060 N   0  0  0  0  0  0  0  0  0  0  0  0
   36.9230   27.8500   32.1370 C   0  0  0  0  0  0  0  0  0  0  0  0
   36.9260   27.5220   33.4710 N   0  0  0  0  0  0  0  0  0  0  0  0
   36.3700   28.0600   35.3840 H   0  0  0  0  0  0  0  0  0  0  0  0
   35.2980   30.7600   32.2350 H   0  0  0  0  0  0  0  0  0  0  0  0
   35.1440   30.3890   34.9120 N   0  0  0  0  0  0  0  0  0  0  0  0
   35.8630   31.2600   35.6320 C   0  0  0  0  0  0  0  0  0  0  0  0
   35.2290   32.0540   36.5870 C   0  0  0  0  0  0  0  0  0  0  0  0
   33.8860   31.8610   36.7030 C   0  0  0  0  0  0  0  0  0  0  0  0
   33.2890   32.5730   37.5670 O   0  0  0  0  0  0  0  0  0  0  0  0
   33.1420   31.0090   36.0090 N   0  0  0  0  0  0  0  0  0  0  0  0
   33.7950   30.2500   35.0840 C   0  0  0  0  0  0  0  0  0  0  0  0
   33.1040   29.4310   34.4120 O   0  0  0  0  0  0  0  0  0  0  0  0
   36.9310   31.3660   35.4910 H   0  0  0  0  0  0  0  0  0  0  0  0
   35.7660   32.7710   37.1910 H   0  0  0  0  0  0  0  0  0  0  0  0
   32.1030   30.9080   36.1480 H   0  0  0  0  0  0  0  0  0  0  0  0
   37.5470   26.9310   31.2860 O   0  0  0  0  0  0  0  0  0  0  0  0
   36.9470   25.6630   31.2540 C   0  0  0  0  0  0  0  0  0  0  0  0
   37.9130   24.6590   31.3360 C   0  0  0  0  0  0  0  0  0  0  0  0
   38.9870   24.8100   31.4150 H   0  0  0  0  0  0  0  0  0  0  0  0
   37.5510   23.3270   31.3230 C   0  0  0  0  0  3  0  0  0  0  0  0
   36.1960   23.0010   31.2250 C   0  0  0  0  0  0  0  0  0  0  0  0
   35.8510   21.9580   31.2100 H   0  0  0  0  0  0  0  0  0  0  0  0
   35.2540   24.0090   31.1440 C   0  0  0  0  0  0  0  0  0  0  0  0
   34.1780   23.8050   31.0660 H   0  0  0  0  0  0  0  0  0  0  0  0
   35.6110   25.3340   31.1570 C   0  0  0  0  0  3  0  0  0  0  0  0
  1  7  1  0  0  0  0
  2  1  1  0  0  0  0
  2  9  1  0  0  0  0
  3  2  2  0  0  0  0
  4  5  2  0  0  0  0
  4  3  1  0  0  0  0
  5  6  1  0  0  0  0
  6  1  2  0  0  0  0
  8  3  1  0  0  0  0
  9 15  1  0  0  0  0
  9 10  1  0  0  0  0
 10 11  2  0  0  0  0
 11 12  1  0  0  0  0
 11 18  1  0  0  0  0
 12 13  2  0  0  0  0
 14 19  1  0  0  0  0
 14 12  1  0  0  0  0
 15 14  1  0  0  0  0
 16 15  2  0  0  0  0
 17 10  1  0  0  0  0
 20  5  1  0  0  0  0
 21 20  1  0  0  0  0
 21 22  1  0  0  0  0
 22 23  1  0  0  0  0
 24 22  2  0  0  0  0
 25 24  1  0  0  0  0
 26 25  1  0  0  0  0
 27 29  1  0  0  0  0
 27 25  2  0  0  0  0
 28 27  1  0  0  0  0
 29 21  2  0  0  0  0
M  END
>  <minimizedAffinity>
-5.12385035

$$$$

 OpenBabel03272500053D

 29 31  0  0  0  0  0  0  0  0999 V2000
   38.0110   23.7120   33.1280 C   0  0  0  0  0  0  0  0  0  0  0  0
   38.4150   24.3050   34.3380 C   0  0  0  0  0  0  0  0  0  0  0  0
   37.9320   25.5850   34.6220 C   0  0  0  0  0  0  0  0  0  0  0  0
   37.1060   26.1950   33.7350 N   0  0  0  0  0  0  0  0  0  0  0  0
   36.7400   25.5990   32.5880 C   0  0  0  0  0  0  0  0  0  0  0  0
   37.1920   24.3410   32.2690 N   0  0  0  0  0  0  0  0  0  0  0  0
   38.3410   22.7230   32.8370 H   0  0  0  0  0  0  0  0  0  0  0  0
   38.2300   26.0480   35.5370 H   0  0  0  0  0  0  0  0  0  0  0  0
   39.2800   23.5770   35.1900 N   0  0  0  0  0  0  0  0  0  0  0  0
   40.6120   23.7010   35.1230 C   0  0  0  0  0  0  0  0  0  0  0  0
   41.4180   22.9590   35.9860 C   0  0  0  0  0  0  0  0  0  0  0  0
   40.7480   22.1460   36.8490 C   0  0  0  0  0  0  0  0  0  0  0  0
   41.4630   21.4610   37.6430 O   0  0  0  0  0  0  0  0  0  0  0  0
   39.4330   21.9970   36.9440 N   0  0  0  0  0  0  0  0  0  0  0  0
   38.6770   22.7380   36.0850 C   0  0  0  0  0  0  0  0  0  0  0  0
   37.4220   22.6100   36.1580 O   0  0  0  0  0  0  0  0  0  0  0  0
   41.0840   24.3670   34.4120 H   0  0  0  0  0  0  0  0  0  0  0  0
   42.4960   23.0260   35.9710 H   0  0  0  0  0  0  0  0  0  0  0  0
   38.9770   21.3480   37.6360 H   0  0  0  0  0  0  0  0  0  0  0  0
   35.8920   26.1930   31.6470 O   0  0  0  0  0  0  0  0  0  0  0  0
   36.1530   27.5480   31.3960 C   0  0  0  0  0  0  0  0  0  0  0  0
   37.2090   27.6870   30.4940 C   0  0  0  0  0  0  0  0  0  0  0  0
   37.7690   26.8760   30.0360 H   0  0  0  0  0  0  0  0  0  0  0  0
   37.6410   28.9370   30.0990 C   0  0  0  0  0  3  0  0  0  0  0  0
   36.9990   30.0640   30.6200 C   0  0  0  0  0  0  0  0  0  0  0  0
   37.3010   31.0830   30.3400 H   0  0  0  0  0  0  0  0  0  0  0  0
   35.9550   29.9060   31.5110 C   0  0  0  0  0  0  0  0  0  0  0  0
   35.4190   30.7590   31.9480 H   0  0  0  0  0  0  0  0  0  0  0  0
   35.5240   28.6650   31.9060 C   0  0  0  0  0  3  0  0  0  0  0  0
  1  2  1  0  0  0  0
  2  3  2  0  0  0  0
  2  9  1  0  0  0  0
  3  8  1  0  0  0  0
  4  3  1  0  0  0  0
  5  4  2  0  0  0  0
  6  5  1  0  0  0  0
  6  1  2  0  0  0  0
  7  1  1  0  0  0  0
  9 15  1  0  0  0  0
 10  9  1  0  0  0  0
 10 11  2  0  0  0  0
 11 12  1  0  0  0  0
 12 14  1  0  0  0  0
 12 13  2  0  0  0  0
 14 19  1  0  0  0  0
 15 16  2  0  0  0  0
 15 14  1  0  0  0  0
 17 10  1  0  0  0  0
 18 11  1  0  0  0  0
 20  5  1  0  0  0  0
 21 20  1  0  0  0  0
 21 29  1  0  0  0  0
 22 21  2  0  0  0  0
 23 22  1  0  0  0  0
 24 22  1  0  0  0  0
 24 25  2  0  0  0  0
 25 27  1  0  0  0  0
 26 25  1  0  0  0  0
 27 29  2  0  0  0  0
 27 28  1  0  0  0  0
M  END
>  <minimizedAffinity>
-5.10486364

$$$$

 OpenBabel03272500053D

 29 31  0  0  0  0  0  0  0  0999 V2000
   36.8020   25.9820   32.2530 C   0  0  0  0  0  0  0  0  0  0  0  0
   37.3250   27.1950   32.7360 C   0  0  0  0  0  0  0  0  0  0  0  0
   38.1890   27.1320   33.8330 C   0  0  0  0  0  0  0  0  0  0  0  0
   38.4830   25.9260   34.3790 N   0  0  0  0  0  0  0  0  0  0  0  0
   37.9640   24.7870   33.8910 C   0  0  0  0  0  0  0  0  0  0  0  0
   37.1110   24.8020   32.8150 N   0  0  0  0  0  0  0  0  0  0  0  0
   36.1270   25.9460   31.4070 H   0  0  0  0  0  0  0  0  0  0  0  0
   38.5940   28.0460   34.2110 H   0  0  0  0  0  0  0  0  0  0  0  0
   36.9500   28.3970   32.0890 N   0  0  0  0  0  0  0  0  0  0  0  0
   37.4150   28.7250   30.8770 C   0  0  0  0  0  0  0  0  0  0  0  0
   37.0130   29.9220   30.2850 C   0  0  0  0  0  0  0  0  0  0  0  0
   36.1520   30.6740   31.0250 C   0  0  0  0  0  0  0  0  0  0  0  0
   35.7730   31.7680   30.5050 O   0  0  0  0  0  0  0  0  0  0  0  0
   35.6710   30.3820   32.2270 N   0  0  0  0  0  0  0  0  0  0  0  0
   36.0850   29.2040   32.7740 C   0  0  0  0  0  0  0  0  0  0  0  0
   35.6400   28.9070   33.9190 O   0  0  0  0  0  0  0  0  0  0  0  0
   38.1000   28.0820   30.3390 H   0  0  0  0  0  0  0  0  0  0  0  0
   37.3600   30.2300   29.3100 H   0  0  0  0  0  0  0  0  0  0  0  0
   35.0050   31.0090   32.7480 H   0  0  0  0  0  0  0  0  0  0  0  0
   38.2420   23.5230   34.4250 O   0  0  0  0  0  0  0  0  0  0  0  0
   38.4290   23.5030   35.8150 C   0  0  0  0  0  0  0  0  0  0  0  0
   39.6430   22.8980   36.1400 C   0  0  0  0  0  0  0  0  0  0  0  0
   40.3640   22.4900   35.4350 H   0  0  0  0  0  0  0  0  0  0  0  0
   40.0380   22.7670   37.4560 C   0  0  0  0  0  3  0  0  0  0  0  0
   39.1960   23.2540   38.4600 C   0  0  0  0  0  0  0  0  0  0  0  0
   39.4600   23.1770   39.5250 H   0  0  0  0  0  0  0  0  0  0  0  0
   37.9980   23.8500   38.1190 C   0  0  0  0  0  0  0  0  0  0  0  0
   37.3020   24.2470   38.8700 H   0  0  0  0  0  0  0  0  0  0  0  0
   37.6030   23.9810   36.8110 C   0  0  0  0  0  3  0  0  0  0  0  0
  1  2  2  0  0  0  0
  1  6  1  0  0  0  0
  2  3  1  0  0  0  0
  3  8  1  0  0  0  0
  3  4  2  0  0  0  0
  5  4  1  0  0  0  0
  5 20  1  0  0  0  0
  6  5  2  0  0  0  0
  7  1  1  0  0  0  0
  9  2  1  0  0  0  0
  9 15  1  0  0  0  0
 10  9  1  0  0  0  0
 11 10  2  0  0  0  0
 11 12  1  0  0  0  0
 12 14  1  0  0  0  0
 13 12  2  0  0  0  0
 14 19  1  0  0  0  0
 14 15  1  0  0  0  0
 15 16  2  0  0  0  0
 17 10  1  0  0  0  0
 18 11  1  0  0  0  0
 20 21  1  0  0  0  0
 21 22  2  0  0  0  0
 21 29  1  0  0  0  0
 22 24  1  0  0  0  0
 23 22  1  0  0  0  0
 24 25  2  0  0  0  0
 25 26  1  0  0  0  0
 27 25  1  0  0  0  0
 27 28  1  0  0  0  0
 29 27  2  0  0  0  0
M  END
>  <minimizedAffinity>
-5.06411648

$$$$

 OpenBabel03272500053D

 29 31  0  0  0  0  0  0  0  0999 V2000
   40.1230   25.1920   34.4160 C   0  0  0  0  0  0  0  0  0  0  0  0
   39.5680   23.9280   34.6880 C   0  0  0  0  0  0  0  0  0  0  0  0
   38.3550   23.6100   34.0720 C   0  0  0  0  0  0  0  0  0  0  0  0
   37.7680   24.5180   33.2520 N   0  0  0  0  0  0  0  0  0  0  0  0
   38.3260   25.7170   33.0140 C   0  0  0  0  0  0  0  0  0  0  0  0
   39.5180   26.0700   33.5990 N   0  0  0  0  0  0  0  0  0  0  0  0
   41.0590   25.5130   34.8540 H   0  0  0  0  0  0  0  0  0  0  0  0
   37.9220   22.6540   34.2700 H   0  0  0  0  0  0  0  0  0  0  0  0
   40.2660   23.0600   35.5610 N   0  0  0  0  0  0  0  0  0  0  0  0
   41.3360   22.3600   35.1610 C   0  0  0  0  0  0  0  0  0  0  0  0
   41.9860   21.5180   36.0630 C   0  0  0  0  0  0  0  0  0  0  0  0
   41.4510   21.4860   37.3150 C   0  0  0  0  0  0  0  0  0  0  0  0
   42.0280   20.7260   38.1520 O   0  0  0  0  0  0  0  0  0  0  0  0
   40.3950   22.1630   37.7470 N   0  0  0  0  0  0  0  0  0  0  0  0
   39.7850   22.9760   36.8380 C   0  0  0  0  0  0  0  0  0  0  0  0
   38.7760   23.6300   37.2280 O   0  0  0  0  0  0  0  0  0  0  0  0
   41.7130   22.4300   34.1490 H   0  0  0  0  0  0  0  0  0  0  0  0
   42.8520   20.9350   35.7870 H   0  0  0  0  0  0  0  0  0  0  0  0
   40.0310   22.0930   38.7320 H   0  0  0  0  0  0  0  0  0  0  0  0
   37.7550   26.6800   32.1750 O   0  0  0  0  0  0  0  0  0  0  0  0
   37.0450   27.6890   32.8410 C   0  0  0  0  0  0  0  0  0  0  0  0
   36.6420   28.6810   31.9460 C   0  0  0  0  0  0  0  0  0  0  0  0
   36.8380   28.6950   30.8760 H   0  0  0  0  0  0  0  0  0  0  0  0
   35.9250   29.7770   32.3800 C   0  0  0  0  0  3  0  0  0  0  0  0
   35.6080   29.8760   33.7380 C   0  0  0  0  0  0  0  0  0  0  0  0
   35.0390   30.7260   34.1390 H   0  0  0  0  0  0  0  0  0  0  0  0
   36.0150   28.8840   34.6090 C   0  0  0  0  0  0  0  0  0  0  0  0
   35.7910   28.9150   35.6840 H   0  0  0  0  0  0  0  0  0  0  0  0
   36.7280   27.7930   34.1800 C   0  0  0  0  0  3  0  0  0  0  0  0
  1  2  1  0  0  0  0
  1  7  1  0  0  0  0
  2  9  1  0  0  0  0
  3  8  1  0  0  0  0
  3  2  2  0  0  0  0
  4  3  1  0  0  0  0
  5  4  2  0  0  0  0
  5  6  1  0  0  0  0
  6  1  2  0  0  0  0
  9 15  1  0  0  0  0
 10  9  1  0  0  0  0
 10 11  2  0  0  0  0
 11 12  1  0  0  0  0
 12 14  1  0  0  0  0
 12 13  2  0  0  0  0
 14 19  1  0  0  0  0
 15 16  2  0  0  0  0
 15 14  1  0  0  0  0
 17 10  1  0  0  0  0
 18 11  1  0  0  0  0
 20 21  1  0  0  0  0
 20  5  1  0  0  0  0
 21 29  1  0  0  0  0
 22 24  1  0  0  0  0
 22 21  2  0  0  0  0
 23 22  1  0  0  0  0
 24 25  2  0  0  0  0
 25 26  1  0  0  0  0
 25 27  1  0  0  0  0
 27 28  1  0  0  0  0
 29 27  2  0  0  0  0
M  END
>  <minimizedAffinity>
-5.02702808

$$$$

 OpenBabel03272500053D

 29 31  0  0  0  0  0  0  0  0999 V2000
   35.5830   25.8680   31.1520 C   0  0  0  0  0  0  0  0  0  0  0  0
   36.6570   26.7230   31.4600 C   0  0  0  0  0  0  0  0  0  0  0  0
   37.9340   26.1590   31.5180 C   0  0  0  0  0  0  0  0  0  0  0  0
   38.0860   24.8320   31.2800 N   0  0  0  0  0  0  0  0  0  0  0  0
   37.0370   24.0440   30.9890 C   0  0  0  0  0  0  0  0  0  0  0  0
   35.7650   24.5570   30.9220 N   0  0  0  0  0  0  0  0  0  0  0  0
   34.5640   26.2280   31.0880 H   0  0  0  0  0  0  0  0  0  0  0  0
   38.7590   26.7960   31.7500 H   0  0  0  0  0  0  0  0  0  0  0  0
   36.3830   28.0930   31.6900 N   0  0  0  0  0  0  0  0  0  0  0  0
   35.9930   28.5460   32.8890 C   0  0  0  0  0  0  0  0  0  0  0  0
   35.7360   29.9060   33.0610 C   0  0  0  0  0  0  0  0  0  0  0  0
   35.9120   30.6740   31.9500 C   0  0  0  0  0  0  0  0  0  0  0  0
   35.6830   31.9160   32.0850 O   0  0  0  0  0  0  0  0  0  0  0  0
   36.2960   30.2610   30.7490 N   0  0  0  0  0  0  0  0  0  0  0  0
   36.5390   28.9260   30.6180 C   0  0  0  0  0  0  0  0  0  0  0  0
   36.9050   28.5110   29.4820 O   0  0  0  0  0  0  0  0  0  0  0  0
   35.8710   27.8810   33.7340 H   0  0  0  0  0  0  0  0  0  0  0  0
   35.4200   30.3190   34.0070 H   0  0  0  0  0  0  0  0  0  0  0  0
   36.4140   30.9100   29.9290 H   0  0  0  0  0  0  0  0  0  0  0  0
   37.1510   22.6720   30.7370 O   0  0  0  0  0  0  0  0  0  0  0  0
   36.6160   21.8470   31.7370 C   0  0  0  0  0  0  0  0  0  0  0  0
   35.7450   20.9060   31.1860 C   0  0  0  0  0  0  0  0  0  0  0  0
   35.4970   20.8050   30.1320 H   0  0  0  0  0  0  0  0  0  0  0  0
   35.1000   19.9860   31.9860 C   0  0  0  0  0  3  0  0  0  0  0  0
   35.3370   20.0120   33.3640 C   0  0  0  0  0  0  0  0  0  0  0  0
   34.8510   19.3030   34.0490 H   0  0  0  0  0  0  0  0  0  0  0  0
   36.2030   20.9510   33.8910 C   0  0  0  0  0  0  0  0  0  0  0  0
   36.4220   21.0130   34.9650 H   0  0  0  0  0  0  0  0  0  0  0  0
   36.8450   21.8670   33.0970 C   0  0  0  0  0  3  0  0  0  0  0  0
  1  2  1  0  0  0  0
  2  3  2  0  0  0  0
  2  9  1  0  0  0  0
  3  8  1  0  0  0  0
  4  3  1  0  0  0  0
  5  4  2  0  0  0  0
  6  5  1  0  0  0  0
  6  1  2  0  0  0  0
  7  1  1  0  0  0  0
  9 10  1  0  0  0  0
 10 11  2  0  0  0  0
 10 17  1  0  0  0  0
 11 18  1  0  0  0  0
 12 13  2  0  0  0  0
 12 11  1  0  0  0  0
 14 12  1  0  0  0  0
 15 14  1  0  0  0  0
 15  9  1  0  0  0  0
 16 15  2  0  0  0  0
 19 14  1  0  0  0  0
 20  5  1  0  0  0  0
 20 21  1  0  0  0  0
 21 29  1  0  0  0  0
 22 21  2  0  0  0  0
 22 24  1  0  0  0  0
 23 22  1  0  0  0  0
 24 25  2  0  0  0  0
 25 27  1  0  0  0  0
 25 26  1  0  0  0  0
 27 28  1  0  0  0  0
 29 27  2  0  0  0  0
M  END
>  <minimizedAffinity>
-4.98755789

$$$$

 OpenBabel03272500053D

 29 31  0  0  0  0  0  0  0  0999 V2000
   38.3200   26.7650   33.4930 C   0  0  0  0  0  0  0  0  0  0  0  0
   38.1900   26.2250   32.2000 C   0  0  0  0  0  0  0  0  0  0  0  0
   38.1500   24.8340   32.0830 C   0  0  0  0  0  0  0  0  0  0  0  0
   38.2360   24.0700   33.2020 N   0  0  0  0  0  0  0  0  0  0  0  0
   38.3580   24.6200   34.4210 C   0  0  0  0  0  0  0  0  0  0  0  0
   38.4020   25.9830   34.5820 N   0  0  0  0  0  0  0  0  0  0  0  0
   38.3580   27.8330   33.6670 H   0  0  0  0  0  0  0  0  0  0  0  0
   38.0530   24.4100   31.1070 H   0  0  0  0  0  0  0  0  0  0  0  0
   38.1100   27.1170   31.1030 N   0  0  0  0  0  0  0  0  0  0  0  0
   39.1980   27.6880   30.5710 C   0  0  0  0  0  0  0  0  0  0  0  0
   39.0620   28.5580   29.4900 C   0  0  0  0  0  0  0  0  0  0  0  0
   37.7840   28.7540   29.0610 C   0  0  0  0  0  0  0  0  0  0  0  0
   37.6370   29.5440   28.0780 O   0  0  0  0  0  0  0  0  0  0  0  0
   36.6840   28.2070   29.5620 N   0  0  0  0  0  0  0  0  0  0  0  0
   36.8560   27.3610   30.6170 C   0  0  0  0  0  0  0  0  0  0  0  0
   35.8200   26.8300   31.1100 O   0  0  0  0  0  0  0  0  0  0  0  0
   40.1890   27.4900   30.9590 H   0  0  0  0  0  0  0  0  0  0  0  0
   39.9090   29.0420   29.0270 H   0  0  0  0  0  0  0  0  0  0  0  0
   35.7220   28.4010   29.1820 H   0  0  0  0  0  0  0  0  0  0  0  0
   38.4490   23.8690   35.5990 O   0  0  0  0  0  0  0  0  0  0  0  0
   39.7450   23.4380   35.9200 C   0  0  0  0  0  0  0  0  0  0  0  0
   39.7140   22.5350   36.9830 C   0  0  0  0  0  0  0  0  0  0  0  0
   38.8250   22.1950   37.5080 H   0  0  0  0  0  0  0  0  0  0  0  0
   40.8790   21.9770   37.4700 C   0  0  0  0  0  3  0  0  0  0  0  0
   42.0930   22.3340   36.8770 C   0  0  0  0  0  0  0  0  0  0  0  0
   43.0510   21.9210   37.2240 H   0  0  0  0  0  0  0  0  0  0  0  0
   42.1030   23.2300   35.8260 C   0  0  0  0  0  0  0  0  0  0  0  0
   43.0300   23.5420   35.3270 H   0  0  0  0  0  0  0  0  0  0  0  0
   40.9470   23.7860   35.3390 C   0  0  0  0  0  3  0  0  0  0  0  0
  1  7  1  0  0  0  0
  1  6  1  0  0  0  0
  2  1  2  0  0  0  0
  3  2  1  0  0  0  0
  3  4  2  0  0  0  0
  4  5  1  0  0  0  0
  5  6  2  0  0  0  0
  5 20  1  0  0  0  0
  8  3  1  0  0  0  0
  9  2  1  0  0  0  0
 10 17  1  0  0  0  0
 10  9  1  0  0  0  0
 11 10  2  0  0  0  0
 12 11  1  0  0  0  0
 12 14  1  0  0  0  0
 13 12  2  0  0  0  0
 14 15  1  0  0  0  0
 15  9  1  0  0  0  0
 15 16  2  0  0  0  0
 18 11  1  0  0  0  0
 19 14  1  0  0  0  0
 20 21  1  0  0  0  0
 21 22  1  0  0  0  0
 22 24  2  0  0  0  0
 22 23  1  0  0  0  0
 25 26  1  0  0  0  0
 25 24  1  0  0  0  0
 27 25  2  0  0  0  0
 28 27  1  0  0  0  0
 29 27  1  0  0  0  0
 29 21  2  0  0  0  0
M  END
>  <minimizedAffinity>
-4.96420622

$$$$
