
 OpenBabel03272504203D

 27 28  0  0  0  0  0  0  0  0999 V2000
   37.9080   29.4280   49.6810 O   0  0  0  0  0  0  0  0  0  0  0  0
   36.9870   30.1840   50.6240 P   0  0  2  0  0  0  0  0  0  0  0  0
   37.6500   30.0480   52.1800 O   0  0  0  0  0  0  0  0  0  0  0  0
   37.1960   30.6600   52.8070 H   0  0  0  0  0  0  0  0  0  0  0  0
   35.4340   29.5030   50.6080 O   0  0  0  0  0  0  0  0  0  0  0  0
   35.4360   28.5340   49.6250 C   0  0  0  0  0  0  0  0  0  0  0  0
   35.1810   27.5620   50.0970 H   0  0  0  0  0  0  0  0  0  0  0  0
   36.4120   28.3990   49.1130 H   0  0  0  0  0  0  0  0  0  0  0  0
   34.4360   28.7950   48.5580 C   0  0  0  0  0  0  0  0  0  0  0  0
   34.6680   29.8650   47.6810 C   0  0  0  0  0  0  0  0  0  0  0  0
   33.7350   30.1120   46.6820 C   0  0  0  0  0  0  0  0  0  0  0  0
   32.6460   29.2890   46.6220 N   0  0  0  0  0  0  0  0  0  0  0  0
   32.4340   28.2700   47.4660 C   0  0  0  0  0  0  0  0  0  0  0  0
   33.3470   28.0340   48.4370 N   0  0  0  0  0  0  0  0  0  0  0  0
   35.5570   30.4420   47.8250 H   0  0  0  0  0  0  0  0  0  0  0  0
   33.8840   30.9180   46.0020 H   0  0  0  0  0  0  0  0  0  0  0  0
   31.5340   27.6870   47.3170 H   0  0  0  0  0  0  0  0  0  0  0  0
   36.9440   31.8090   50.1340 O   0  0  0  0  0  0  0  0  0  0  0  0
   37.8200   32.2670   49.1400 C   0  0  0  0  0  0  0  0  0  0  0  0
   38.0290   31.8130   47.8560 C   0  0  0  0  0  0  0  0  0  0  0  0
   37.4040   30.9770   47.6210 H   0  0  0  0  0  0  0  0  0  0  0  0
   38.9580   32.4520   47.0830 C   0  0  0  0  0  0  0  0  0  0  0  0
   39.6930   33.5300   47.5350 C   0  0  0  0  0  0  0  0  0  0  0  0
   40.4060   33.9960   46.8970 H   0  0  0  0  0  0  0  0  0  0  0  0
   39.4890   33.9980   48.8340 C   0  0  0  0  0  0  0  0  0  0  0  0
   40.0860   34.8410   49.1400 H   0  0  0  0  0  0  0  0  0  0  0  0
   38.5570   33.3570   49.6100 C   0  0  0  0  0  0  0  0  0  0  0  0
  2  1  2  6  0  0  0
  2  3  1  0  0  0  0
  3  4  1  0  0  0  0
  5  2  1  0  0  0  0
  6  7  1  0  0  0  0
  6  5  1  0  0  0  0
  8  6  1  0  0  0  0
  9  6  1  0  0  0  0
 10 15  1  0  0  0  0
 10  9  2  0  0  0  0
 11 10  1  0  0  0  0
 12 11  2  0  0  0  0
 12 13  1  0  0  0  0
 13 14  2  0  0  0  0
 14  9  1  0  0  0  0
 16 11  1  0  0  0  0
 17 13  1  0  0  0  0
 18  2  1  0  0  0  0
 19 27  1  0  0  0  0
 19 18  1  0  0  0  0
 20 19  2  0  0  0  0
 21 20  1  0  0  0  0
 22 23  2  0  0  0  0
 22 20  1  0  0  0  0
 23 25  1  0  0  0  0
 24 23  1  0  0  0  0
 25 26  1  0  0  0  0
 25 27  2  0  0  0  0
M  END
>  <minimizedAffinity>
-5.0883584

>  <minimizedRMSD>
2.02713633

$$$$
