
 OpenBabel03272509583D

 46 49  0  0  0  0  0  0  0  0999 V2000
   33.7160   28.5820   46.1200 C   0  0  0  0  0  0  0  0  0  0  0  0
   34.5180   29.3630   46.0460 H   0  0  0  0  0  0  0  0  0  0  0  0
   34.1910   27.7700   46.7190 H   0  0  0  0  0  0  0  0  0  0  0  0
   32.4660   29.1280   46.7470 C   0  0  0  0  0  0  0  0  0  0  0  0
   31.7560   28.2690   46.8840 H   0  0  0  0  0  0  0  0  0  0  0  0
   32.6010   29.5620   47.7470 H   0  0  0  0  0  0  0  0  0  0  0  0
   31.7540   30.0980   45.8670 C   0  0  0  0  0  0  0  0  0  0  0  0
   30.4120   29.8680   45.6150 C   0  0  0  0  0  0  0  0  0  0  0  0
   29.6740   30.7070   44.8160 C   0  0  0  0  0  0  0  0  0  0  0  0
   30.2670   31.7720   44.2680 N   0  0  0  0  0  0  0  0  0  0  0  0
   31.5890   31.9810   44.5280 C   0  0  0  0  0  0  0  0  0  0  0  0
   32.3260   31.1760   45.3030 N   0  0  0  0  0  0  0  0  0  0  0  0
   29.9290   29.0010   46.0600 H   0  0  0  0  0  0  0  0  0  0  0  0
   28.6100   30.4870   44.6420 H   0  0  0  0  0  0  0  0  0  0  0  0
   32.2010   33.1860   43.8910 C   0  0  0  0  0  0  0  0  0  0  0  0
   32.5330   33.8640   44.7050 H   0  0  0  0  0  0  0  0  0  0  0  0
   31.3360   33.7310   43.4170 H   0  0  0  0  0  0  0  0  0  0  0  0
   33.2630   32.8750   42.9270 C   0  0  0  0  0  0  0  0  0  0  0  0
   34.2400   33.8550   42.7280 C   0  0  0  0  0  0  0  0  0  0  0  0
   34.2270   34.8080   43.2550 H   0  0  0  0  0  0  0  0  0  0  0  0
   35.2890   33.6840   41.8500 C   0  0  0  0  0  3  0  0  0  0  0  0
   35.3810   32.5050   41.1430 C   0  0  0  0  0  0  0  0  0  0  0  0
   36.1930   32.3190   40.4350 H   0  0  0  0  0  0  0  0  0  0  0  0
   34.4270   31.5400   41.3330 C   0  0  0  0  0  0  0  0  0  0  0  0
   34.4590   30.6150   40.8090 H   0  0  0  0  0  0  0  0  0  0  0  0
   33.3570   31.6940   42.2180 C   0  0  0  0  0  3  0  0  0  0  0  0
   33.4550   28.1230   44.8020 O   0  0  0  0  0  0  0  0  0  0  0  0
   35.5080   27.9250   41.8400 C   0  0  0  0  0  0  0  0  0  0  0  0
   36.5830   28.7600   42.2230 C   0  0  0  0  0  0  0  0  0  0  0  0
   36.5320   29.3420   43.4890 C   0  0  0  0  0  0  0  0  0  0  0  0
   35.4330   29.0420   44.2370 N   0  0  0  0  0  0  0  0  0  0  0  0
   34.4220   28.2540   43.8680 C   0  0  0  0  0  0  0  0  0  0  0  0
   34.4740   27.6890   42.6410 N   0  0  0  0  0  0  0  0  0  0  0  0
   35.5860   27.4940   40.8540 H   0  0  0  0  0  0  0  0  0  0  0  0
   37.4410   28.9900   41.6320 H   0  0  0  0  0  0  0  0  0  0  0  0
   39.2530   28.7040   44.2260 F   0  0  0  0  0  0  0  0  0  0  0  0
   38.7980   29.9480   44.3990 C   0  0  0  0  0  0  0  0  0  0  0  0
   37.5330   30.2190   44.0490 C   0  0  0  0  0  0  0  0  0  0  0  0
   37.1580   31.5470   44.2690 C   0  0  0  0  0  0  0  0  0  0  0  0
   38.0070   32.4830   44.7940 C   0  0  0  0  0  0  0  0  0  0  0  0
   39.2970   32.1530   45.1360 C   0  0  0  0  0  0  0  0  0  0  0  0
   39.6880   30.8590   44.9310 C   0  0  0  0  0  0  0  0  0  0  0  0
   36.1620   31.9180   44.0340 H   0  0  0  0  0  0  0  0  0  0  0  0
   37.7060   33.5100   44.9600 H   0  0  0  0  0  0  0  0  0  0  0  0
   39.9850   32.8820   45.5540 H   0  0  0  0  0  0  0  0  0  0  0  0
   40.7010   30.5780   45.1950 H   0  0  0  0  0  0  0  0  0  0  0  0
  1  3  1  0  0  0  0
  1  4  1  0  0  0  0
  2  1  1  0  0  0  0
  4  5  1  0  0  0  0
  4  6  1  0  0  0  0
  7  4  1  0  0  0  0
  8  7  1  0  0  0  0
  8 13  1  0  0  0  0
  9  8  2  0  0  0  0
 10 11  2  0  0  0  0
 10  9  1  0  0  0  0
 11 12  1  0  0  0  0
 12  7  2  0  0  0  0
 14  9  1  0  0  0  0
 15 11  1  0  0  0  0
 15 16  1  0  0  0  0
 17 15  1  0  0  0  0
 18 15  1  0  0  0  0
 19 18  1  0  0  0  0
 19 20  1  0  0  0  0
 21 19  2  0  0  0  0
 22 24  2  0  0  0  0
 22 21  1  0  0  0  0
 23 22  1  0  0  0  0
 24 26  1  0  0  0  0
 25 24  1  0  0  0  0
 26 18  2  0  0  0  0
 27  1  1  0  0  0  0
 28 29  2  0  0  0  0
 28 33  1  0  0  0  0
 29 30  1  0  0  0  0
 30 38  1  0  0  0  0
 30 31  2  0  0  0  0
 32 31  1  0  0  0  0
 32 27  1  0  0  0  0
 33 32  2  0  0  0  0
 34 28  1  0  0  0  0
 35 29  1  0  0  0  0
 36 37  1  0  0  0  0
 37 42  1  0  0  0  0
 38 39  1  0  0  0  0
 38 37  2  0  0  0  0
 39 40  2  0  0  0  0
 40 44  1  0  0  0  0
 40 41  1  0  0  0  0
 41 45  1  0  0  0  0
 42 41  2  0  0  0  0
 42 46  1  0  0  0  0
 43 39  1  0  0  0  0
M  END
>  <minimizedAffinity>
-3.64826822

>  <minimizedRMSD>
5.59292555

$$$$
