
 OpenBabel03272509403D

 35 37  0  0  0  0  0  0  0  0999 V2000
   37.0630   30.9700   49.0620 C   0  0  0  0  0  0  0  0  0  0  0  0
   36.7930   31.9030   50.0670 C   0  0  0  0  0  0  0  0  0  0  0  0
   37.3980   33.1460   50.0950 C   0  0  0  0  0  0  0  0  0  0  0  0
   38.3130   33.4940   49.0930 C   0  0  0  0  0  0  0  0  0  0  0  0
   38.5640   32.5640   48.1160 C   0  0  0  0  0  0  0  0  0  0  0  0
   37.9470   31.3260   48.1080 C   0  0  0  0  0  0  0  0  0  0  0  0
   36.0970   31.6920   50.8670 H   0  0  0  0  0  0  0  0  0  0  0  0
   37.1760   33.8520   50.8790 H   0  0  0  0  0  0  0  0  0  0  0  0
   38.7710   34.4720   49.1400 H   0  0  0  0  0  0  0  0  0  0  0  0
   39.2800   32.9140   47.3840 H   0  0  0  0  0  0  0  0  0  0  0  0
   36.3800   29.6890   49.1150 C   0  0  0  0  0  0  0  0  0  0  0  0
   36.9110   28.8300   49.9040 O   0  0  0  0  0  0  0  0  0  0  0  0
   33.6140   30.1680   46.8200 C   0  0  0  0  0  0  0  0  0  0  0  0
   32.9410   28.9420   46.8370 C   0  0  0  0  0  0  0  0  0  0  0  0
   33.4420   27.9500   47.6410 C   0  0  0  0  0  0  0  0  0  0  0  0
   34.5600   28.1830   48.3870 N   0  0  0  0  0  0  0  0  0  0  0  0
   35.1770   29.3490   48.3520 C   0  0  0  0  0  0  0  0  0  0  0  0
   34.6920   30.3210   47.5690 N   0  0  0  0  0  0  0  0  0  0  0  0
   33.1710   30.9030   46.1690 H   0  0  0  0  0  0  0  0  0  0  0  0
   32.0680   28.6630   46.2980 H   0  0  0  0  0  0  0  0  0  0  0  0
   33.0110   26.9680   47.7380 H   0  0  0  0  0  0  0  0  0  0  0  0
   38.3260   30.4710   47.0120 C   0  0  0  0  0  3  0  0  0  0  0  0
   39.0320   30.8200   45.9460 C   0  0  0  0  0  3  0  0  0  0  0  0
   39.4830   30.0510   44.7710 C   0  0  0  0  0  0  0  0  0  0  0  0
   40.5260   30.2630   44.4780 H   0  0  0  0  0  0  0  0  0  0  0  0
   39.4570   28.9720   45.0430 H   0  0  0  0  0  0  0  0  0  0  0  0
   38.5350   30.2030   43.6170 C   0  0  0  0  0  0  0  0  0  0  0  0
   37.3800   29.4540   43.5680 C   0  0  0  0  0  0  0  0  0  0  0  0
   37.1100   28.7390   44.3420 H   0  0  0  0  0  0  0  0  0  0  0  0
   36.4830   29.5790   42.5030 C   0  0  0  0  0  3  0  0  0  0  0  0
   36.8710   30.5010   41.5480 C   0  0  0  0  0  0  0  0  0  0  0  0
   36.1820   30.6130   40.7070 H   0  0  0  0  0  0  0  0  0  0  0  0
   37.9940   31.2750   41.5290 C   0  0  0  0  0  0  0  0  0  0  0  0
   38.1740   31.9600   40.7130 H   0  0  0  0  0  0  0  0  0  0  0  0
   38.8360   31.0870   42.6290 C   0  0  0  0  0  3  0  0  0  0  0  0
  1 11  1  0  0  0  0
  1  2  1  0  0  0  0
  2  3  2  0  0  0  0
  2  7  1  0  0  0  0
  3  8  1  0  0  0  0
  4  9  1  0  0  0  0
  4  3  1  0  0  0  0
  5  4  2  0  0  0  0
  6  5  1  0  0  0  0
  6  1  2  0  0  0  0
 10  5  1  0  0  0  0
 11 12  2  0  0  0  0
 13 14  2  0  0  0  0
 13 18  1  0  0  0  0
 14 15  1  0  0  0  0
 15 21  1  0  0  0  0
 15 16  2  0  0  0  0
 17 16  1  0  0  0  0
 17 11  1  0  0  0  0
 18 17  2  0  0  0  0
 19 13  1  0  0  0  0
 20 14  1  0  0  0  0
 22  6  1  0  0  0  0
 23 22  2  0  0  0  0
 24 26  1  0  0  0  0
 24 23  1  0  0  0  0
 25 24  1  0  0  0  0
 27 24  1  0  0  0  0
 28 27  1  0  0  0  0
 28 29  1  0  0  0  0
 30 28  2  0  0  0  0
 31 30  1  0  0  0  0
 32 31  1  0  0  0  0
 33 31  2  0  0  0  0
 33 35  1  0  0  0  0
 34 33  1  0  0  0  0
 35 27  2  0  0  0  0
M  END
>  <minimizedAffinity>
-5.69475365

>  <minimizedRMSD>
0.360884577

$$$$
