
 OpenBabel03272510123D

 35 38  0  0  0  0  0  0  0  0999 V2000
   33.2650   28.3230   48.9300 C   0  0  0  0  0  0  0  0  0  0  0  0
   33.5280   28.9080   50.1180 C   0  0  0  0  0  0  0  0  0  0  0  0
   34.7530   29.4130   50.5010 C   0  0  0  0  0  0  0  0  0  0  0  0
   35.8100   29.3380   49.6420 C   0  0  0  0  0  0  0  0  0  0  0  0
   35.5530   28.7360   48.4060 C   0  0  0  0  0  0  0  0  0  0  0  0
   34.3350   28.2590   48.0880 N   0  0  0  0  0  0  0  0  0  0  0  0
   32.7510   29.0130   50.8680 H   0  0  0  0  0  0  0  0  0  0  0  0
   34.9520   29.8830   51.4630 H   0  0  0  0  0  0  0  0  0  0  0  0
   36.3480   28.6410   47.6720 H   0  0  0  0  0  0  0  0  0  0  0  0
   30.8660   27.7710   49.3820 C   0  0  0  0  0  0  0  0  0  0  0  0
   31.9900   27.8020   48.5440 C   0  0  0  0  0  0  0  0  0  0  0  0
   31.8220   27.2870   47.2670 C   0  0  0  0  0  0  0  0  0  0  0  0
   30.5960   26.7890   46.9040 N   0  0  0  0  0  0  0  0  0  0  0  0
   29.5570   26.7900   47.7600 C   0  0  0  0  0  0  0  0  0  0  0  0
   29.6800   27.2760   48.9960 N   0  0  0  0  0  0  0  0  0  0  0  0
   30.9630   28.1640   50.3850 H   0  0  0  0  0  0  0  0  0  0  0  0
   32.6660   27.2940   46.5910 H   0  0  0  0  0  0  0  0  0  0  0  0
   28.6460   26.3700   47.3540 H   0  0  0  0  0  0  0  0  0  0  0  0
   37.1030   29.7980   49.8730 O   0  0  0  0  0  0  0  0  0  0  0  0
   37.6790   30.7690   49.0550 C   0  0  0  0  0  0  0  0  0  0  0  0
   38.1640   31.8920   49.7400 C   0  0  0  0  0  0  0  0  0  0  0  0
   38.7020   32.7600   48.8080 C   0  0  0  0  0  0  0  0  0  0  0  0
   38.5350   32.1590   47.6220 N   0  0  0  0  0  0  0  0  0  0  0  0
   37.9410   30.9990   47.7560 N   0  0  0  0  0  0  0  0  0  0  0  0
   38.1960   32.1930   50.7920 H   0  0  0  0  0  0  0  0  0  0  0  0
   39.1810   33.7180   48.8040 H   0  0  0  0  0  0  0  0  0  0  0  0
   38.8400   32.4600   46.2430 C   0  0  0  0  0  0  0  0  0  0  0  0
   37.9180   32.1880   45.2240 C   0  0  0  0  0  0  0  0  0  0  0  0
   36.9680   31.7500   45.4550 H   0  0  0  0  0  0  0  0  0  0  0  0
   38.2930   32.5080   43.9290 C   0  0  0  0  0  3  0  0  0  0  0  0
   39.5040   33.0710   43.5880 C   0  0  0  0  0  0  0  0  0  0  0  0
   39.7690   33.3120   42.5680 H   0  0  0  0  0  0  0  0  0  0  0  0
   40.4230   33.3420   44.6070 C   0  0  0  0  0  0  0  0  0  0  0  0
   41.3820   33.7840   44.3770 H   0  0  0  0  0  0  0  0  0  0  0  0
   40.0640   33.0280   45.9050 C   0  0  0  0  0  3  0  0  0  0  0  0
  1  2  1  0  0  0  0
  2  3  2  0  0  0  0
  2  7  1  0  0  0  0
  3  8  1  0  0  0  0
  4 19  1  0  0  0  0
  4  3  1  0  0  0  0
  5  4  2  0  0  0  0
  6  5  1  0  0  0  0
  6  1  2  0  0  0  0
  9  5  1  0  0  0  0
 10 16  1  0  0  0  0
 11  1  1  0  0  0  0
 11 10  2  0  0  0  0
 12 11  1  0  0  0  0
 13 12  2  0  0  0  0
 13 14  1  0  0  0  0
 14 15  2  0  0  0  0
 15 10  1  0  0  0  0
 17 12  1  0  0  0  0
 18 14  1  0  0  0  0
 20 21  1  0  0  0  0
 20 19  1  0  0  0  0
 21 25  1  0  0  0  0
 22 21  2  0  0  0  0
 23 24  1  0  0  0  0
 23 22  1  0  0  0  0
 24 20  2  0  0  0  0
 26 22  1  0  0  0  0
 27 23  1  0  0  0  0
 28 29  1  0  0  0  0
 28 27  2  0  0  0  0
 30 28  1  0  0  0  0
 31 30  2  0  0  0  0
 31 33  1  0  0  0  0
 32 31  1  0  0  0  0
 33 35  2  0  0  0  0
 34 33  1  0  0  0  0
 35 27  1  0  0  0  0
M  END
>  <minimizedAffinity>
-6.07698393

>  <minimizedRMSD>
1.60185015

$$$$
