
 OpenBabel03272509403D

 35 37  0  0  0  0  0  0  0  0999 V2000
   37.0270   30.9530   49.0780 C   0  0  0  0  0  0  0  0  0  0  0  0
   36.7600   31.8800   50.0900 C   0  0  0  0  0  0  0  0  0  0  0  0
   37.3680   33.1210   50.1250 C   0  0  0  0  0  0  0  0  0  0  0  0
   38.2820   33.4750   49.1250 C   0  0  0  0  0  0  0  0  0  0  0  0
   38.5300   32.5510   48.1410 C   0  0  0  0  0  0  0  0  0  0  0  0
   37.9100   31.3150   48.1250 C   0  0  0  0  0  0  0  0  0  0  0  0
   36.0640   31.6650   50.8890 H   0  0  0  0  0  0  0  0  0  0  0  0
   37.1480   33.8220   50.9150 H   0  0  0  0  0  0  0  0  0  0  0  0
   38.7420   34.4510   49.1780 H   0  0  0  0  0  0  0  0  0  0  0  0
   39.2460   32.9050   47.4110 H   0  0  0  0  0  0  0  0  0  0  0  0
   36.3410   29.6740   49.1220 C   0  0  0  0  0  0  0  0  0  0  0  0
   36.8660   28.8120   49.9120 O   0  0  0  0  0  0  0  0  0  0  0  0
   33.5930   30.1630   46.8090 C   0  0  0  0  0  0  0  0  0  0  0  0
   32.9150   28.9400   46.8200 C   0  0  0  0  0  0  0  0  0  0  0  0
   33.4060   27.9460   47.6280 C   0  0  0  0  0  0  0  0  0  0  0  0
   34.5200   28.1740   48.3810 N   0  0  0  0  0  0  0  0  0  0  0  0
   35.1420   29.3380   48.3510 C   0  0  0  0  0  0  0  0  0  0  0  0
   34.6660   30.3120   47.5650 N   0  0  0  0  0  0  0  0  0  0  0  0
   33.1580   30.9000   46.1550 H   0  0  0  0  0  0  0  0  0  0  0  0
   32.0450   28.6640   46.2750 H   0  0  0  0  0  0  0  0  0  0  0  0
   32.9720   26.9650   47.7210 H   0  0  0  0  0  0  0  0  0  0  0  0
   38.2860   30.4660   47.0220 C   0  0  0  0  0  0  0  0  0  0  0  0
   39.0150   30.8140   45.9720 C   0  0  0  0  0  0  0  0  0  0  0  0
   39.4660   30.0510   44.7930 C   0  0  0  0  0  0  0  0  0  0  0  0
   40.4630   29.5930   44.9170 H   0  0  0  0  0  0  0  0  0  0  0  0
   38.7580   29.2050   44.6470 H   0  0  0  0  0  0  0  0  0  0  0  0
   39.3800   30.8740   43.5400 C   0  0  0  0  0  0  0  0  0  0  0  0
   40.1180   30.5240   42.4310 C   0  0  0  0  0  0  0  0  0  0  0  0
   40.7790   29.6600   42.4130 H   0  0  0  0  0  0  0  0  0  0  0  0
   40.0540   31.2760   41.2540 C   0  0  0  0  0  0  0  0  0  0  0  0
   39.2020   32.3620   41.3290 C   0  0  0  0  0  0  0  0  0  0  0  0
   39.1380   32.9620   40.4180 H   0  0  0  0  0  0  0  0  0  0  0  0
   38.4430   32.7690   42.3860 C   0  0  0  0  0  0  0  0  0  0  0  0
   37.8150   33.6450   42.3060 H   0  0  0  0  0  0  0  0  0  0  0  0
   38.5660   31.9620   43.5210 C   0  0  0  0  0  0  0  0  0  0  0  0
  1 11  1  0  0  0  0
  1  2  1  0  0  0  0
  2  3  2  0  0  0  0
  2  7  1  0  0  0  0
  3  8  1  0  0  0  0
  4  9  1  0  0  0  0
  4  3  1  0  0  0  0
  5  4  2  0  0  0  0
  6  5  1  0  0  0  0
  6  1  2  0  0  0  0
 10  5  1  0  0  0  0
 11 12  2  0  0  0  0
 13 14  2  0  0  0  0
 13 18  1  0  0  0  0
 14 15  1  0  0  0  0
 15 21  1  0  0  0  0
 15 16  2  0  0  0  0
 17 16  1  0  0  0  0
 17 11  1  0  0  0  0
 18 17  2  0  0  0  0
 19 13  1  0  0  0  0
 20 14  1  0  0  0  0
 22  6  1  0  0  0  0
 23 22  2  0  0  0  0
 24 25  1  0  0  0  0
 24 23  1  0  0  0  0
 26 24  1  0  0  0  0
 27 24  1  0  0  0  0
 28 27  2  0  0  0  0
 29 28  1  0  0  0  0
 30 31  2  0  0  0  0
 30 28  1  0  0  0  0
 31 33  1  0  0  0  0
 32 31  1  0  0  0  0
 33 35  2  0  0  0  0
 34 33  1  0  0  0  0
 35 27  1  0  0  0  0
M  END
>  <minimizedAffinity>
-5.95859575

>  <minimizedRMSD>
1.06286621

$$$$
