REMARK  Name = 
REMARK  5 active torsions:
REMARK  status: ('A' for Active; 'I' for Inactive)
REMARK    1  A    between atoms: C_1  and  C_7
REMARK    2  A    between atoms: C_6  and  C_15
REMARK    3  A    between atoms: C_7  and  C_13
REMARK    4  A    between atoms: C_16  and  C_17
REMARK    5  A    between atoms: C_17  and  C_29
REMARK                            x       y       z     vdW  Elec       q    Type
REMARK                         _______ _______ _______ _____ _____    ______ ____
ROOT
ATOM      1  C   UNL     1      37.134  30.966  49.018  0.00  0.00    +0.000 A 
ATOM      2  C   UNL     1      36.911  31.934  50.002  0.00  0.00    +0.000 A 
ATOM      3  C   UNL     1      37.548  33.160  49.981  0.00  0.00    +0.000 A 
ATOM      4  C   UNL     1      38.448  33.457  48.950  0.00  0.00    +0.000 A 
ATOM      5  C   UNL     1      38.653  32.494  47.994  0.00  0.00    +0.000 A 
ATOM      6  C   UNL     1      38.004  31.273  48.035  0.00  0.00    +0.000 A 
ATOM      7  H   UNL     1      36.228  31.763  50.823  0.00  0.00    +0.000 HD
ATOM      8  H   UNL     1      37.362  33.893  50.750  0.00  0.00    +0.000 HD
ATOM      9  H   UNL     1      38.932  34.423  48.959  0.00  0.00    +0.000 HD
ATOM     10  H   UNL     1      39.361  32.805  47.237  0.00  0.00    +0.000 HD
ENDROOT
BRANCH   1  11
ATOM     11  C   UNL     1      36.419  29.706  49.122  0.00  0.00    +0.000 C 
ATOM     12  O   UNL     1      36.928  28.868  49.947  0.00  0.00    +0.000 OA
BRANCH  11  17
ATOM     13  C   UNL     1      33.631  30.180  46.854  0.00  0.00    +0.000 A 
ATOM     14  C   UNL     1      32.959  28.954  46.877  0.00  0.00    +0.000 A 
ATOM     15  C   UNL     1      33.469  27.963  47.677  0.00  0.00    +0.000 A 
ATOM     16  N   UNL     1      34.594  28.197  48.412  0.00  0.00    +0.000 NA
ATOM     17  C   UNL     1      35.209  29.364  48.371  0.00  0.00    +0.000 A 
ATOM     18  N   UNL     1      34.716  30.335  47.592  0.00  0.00    +0.000 NA
ATOM     19  H   UNL     1      33.181  30.915  46.207  0.00  0.00    +0.000 HD
ATOM     20  H   UNL     1      32.082  28.673  46.347  0.00  0.00    +0.000 HD
ATOM     21  H   UNL     1      33.041  26.980  47.778  0.00  0.00    +0.000 HD
ENDBRANCH  11  17
ENDBRANCH   1  11
BRANCH   6  22
ATOM     22  C   UNL     1      38.336  30.378  46.955  0.00  0.00    +0.000 C 
ATOM     23  C   UNL     1      38.812  30.718  45.766  0.00  0.00    +0.000 C 
BRANCH  23  24
ATOM     24  C   UNL     1      39.189  29.911  44.591  0.00  0.00    +0.000 C 
ATOM     25  H   UNL     1      40.272  29.920  44.377  0.00  0.00    +0.000 HD
ATOM     26  H   UNL     1      38.932  28.851  44.812  0.00  0.00    +0.000 HD
BRANCH  24  27
ATOM     27  C   UNL     1      38.377  30.283  43.384  0.00  0.00    +0.000 A 
ATOM     28  C   UNL     1      38.942  31.030  42.374  0.00  0.00    +0.000 A 
ATOM     29  H   UNL     1      39.973  31.375  42.404  0.00  0.00    +0.000 HD
ATOM     30  C   UNL     1      38.205  31.389  41.242  0.00  0.00    +0.000 A 
ATOM     31  C   UNL     1      36.901  30.927  41.253  0.00  0.00    +0.000 A 
ATOM     32  H   UNL     1      36.309  31.197  40.375  0.00  0.00    +0.000 HD
ATOM     33  C   UNL     1      36.276  30.186  42.211  0.00  0.00    +0.000 A 
ATOM     34  H   UNL     1      35.243  29.891  42.090  0.00  0.00    +0.000 HD
ATOM     35  C   UNL     1      37.083  29.872  43.308  0.00  0.00    +0.000 A 
ENDBRANCH  24  27
ENDBRANCH  23  24
ENDBRANCH   6  22
TORSDOF 5
