
 OpenBabel03272500453D

 25 27  0  0  0  0  0  0  0  0999 V2000
   37.4580   25.8880   33.1200 C   0  0  0  0  0  0  0  0  0  0  0  0
   37.7040   24.6350   32.5850 C   0  0  0  0  0  0  0  0  0  0  0  0
   38.1020   23.7760   33.5980 C   0  0  0  0  0  0  0  0  0  0  0  0
   38.0870   24.5400   34.7320 N   0  0  0  0  0  0  0  0  0  0  0  0
   37.7040   25.7710   34.4150 N   0  0  0  0  0  0  0  0  0  0  0  0
   37.5990   24.3720   31.5300 H   0  0  0  0  0  0  0  0  0  0  0  0
   38.3710   22.7250   33.5170 H   0  0  0  0  0  0  0  0  0  0  0  0
   37.0350   27.0590   30.9390 C   0  0  0  0  0  0  0  0  0  0  0  0
   37.0230   27.0220   32.3320 C   0  0  0  0  0  0  0  0  0  0  0  0
   36.5550   28.1690   32.9980 C   0  0  0  0  0  0  0  0  0  0  0  0
   36.1470   29.2360   32.2640 N   0  0  0  0  0  0  0  0  0  0  0  0
   36.1800   29.2180   30.9000 C   0  0  0  0  0  0  0  0  0  0  0  0
   36.6290   28.1200   30.2430 N   0  0  0  0  0  0  0  0  0  0  0  0
   37.3930   26.1820   30.4110 H   0  0  0  0  0  0  0  0  0  0  0  0
   36.5400   28.1570   34.0790 H   0  0  0  0  0  0  0  0  0  0  0  0
   35.8150   30.1580   30.4810 H   0  0  0  0  0  0  0  0  0  0  0  0
   38.4180   24.1180   36.0480 C   0  0  0  0  0  0  0  0  0  0  0  0
   37.7280   24.5440   37.1570 C   0  0  0  0  0  0  0  0  0  0  0  0
   36.8940   25.2390   36.9760 H   0  0  0  0  0  0  0  0  0  0  0  0
   37.9730   24.1920   38.4630 C   0  0  0  0  0  3  0  0  0  0  0  0
   39.0320   23.3180   38.6160 C   0  0  0  0  0  0  0  0  0  0  0  0
   39.3260   22.9640   39.6070 H   0  0  0  0  0  0  0  0  0  0  0  0
   39.7840   22.8340   37.5700 C   0  0  0  0  0  0  0  0  0  0  0  0
   40.6170   22.1450   37.7030 H   0  0  0  0  0  0  0  0  0  0  0  0
   39.4540   23.2490   36.3110 C   0  0  0  0  0  3  0  0  0  0  0  0
  1  5  2  0  0  0  0
  2  1  1  0  0  0  0
  2  3  2  0  0  0  0
  3  4  1  0  0  0  0
  4 17  1  0  0  0  0
  5  4  1  0  0  0  0
  6  2  1  0  0  0  0
  7  3  1  0  0  0  0
  8  9  1  0  0  0  0
  9 10  2  0  0  0  0
  9  1  1  0  0  0  0
 10 15  1  0  0  0  0
 11 10  1  0  0  0  0
 12 11  2  0  0  0  0
 13 12  1  0  0  0  0
 13  8  2  0  0  0  0
 14  8  1  0  0  0  0
 16 12  1  0  0  0  0
 17 25  2  0  0  0  0
 17 18  1  0  0  0  0
 18 20  2  0  0  0  0
 19 18  1  0  0  0  0
 20 21  1  0  0  0  0
 21 22  1  0  0  0  0
 23 24  1  0  0  0  0
 23 21  2  0  0  0  0
 25 23  1  0  0  0  0
M  END
>  <minimizedAffinity>
-4.95735359

$$$$

 OpenBabel03272500453D

 25 27  0  0  0  0  0  0  0  0999 V2000
   37.2900   26.1900   33.2550 C   0  0  0  0  0  0  0  0  0  0  0  0
   37.5980   24.9990   32.6200 C   0  0  0  0  0  0  0  0  0  0  0  0
   38.0490   24.0840   33.5590 C   0  0  0  0  0  0  0  0  0  0  0  0
   38.0030   24.7520   34.7520 N   0  0  0  0  0  0  0  0  0  0  0  0
   37.5530   25.9830   34.5360 N   0  0  0  0  0  0  0  0  0  0  0  0
   37.4980   24.8160   31.5490 H   0  0  0  0  0  0  0  0  0  0  0  0
   38.3720   23.0580   33.3930 H   0  0  0  0  0  0  0  0  0  0  0  0
   36.7880   27.5070   31.1780 C   0  0  0  0  0  0  0  0  0  0  0  0
   36.7900   27.3590   32.5630 C   0  0  0  0  0  0  0  0  0  0  0  0
   36.2700   28.4220   33.3210 C   0  0  0  0  0  0  0  0  0  0  0  0
   35.8000   29.5210   32.6770 N   0  0  0  0  0  0  0  0  0  0  0  0
   35.8220   29.6150   31.3150 C   0  0  0  0  0  0  0  0  0  0  0  0
   36.3210   28.5970   30.5710 N   0  0  0  0  0  0  0  0  0  0  0  0
   37.1870   26.6950   30.5790 H   0  0  0  0  0  0  0  0  0  0  0  0
   36.2640   28.3240   34.3980 H   0  0  0  0  0  0  0  0  0  0  0  0
   35.4040   30.5650   30.9750 H   0  0  0  0  0  0  0  0  0  0  0  0
   38.3670   24.2440   36.0280 C   0  0  0  0  0  0  0  0  0  0  0  0
   39.4130   23.3720   36.2050 C   0  0  0  0  0  0  0  0  0  0  0  0
   39.9650   23.0800   35.3000 H   0  0  0  0  0  0  0  0  0  0  0  0
   39.8380   22.8310   37.3950 C   0  0  0  0  0  3  0  0  0  0  0  0
   39.1010   23.2400   38.4900 C   0  0  0  0  0  0  0  0  0  0  0  0
   39.3410   22.8780   39.4920 H   0  0  0  0  0  0  0  0  0  0  0  0
   38.0360   24.1090   38.4160 C   0  0  0  0  0  0  0  0  0  0  0  0
   37.4620   24.4250   39.2870 H   0  0  0  0  0  0  0  0  0  0  0  0
   37.6980   24.5880   37.1830 C   0  0  0  0  0  3  0  0  0  0  0  0
  1  5  2  0  0  0  0
  2  1  1  0  0  0  0
  2  3  2  0  0  0  0
  3  4  1  0  0  0  0
  4 17  1  0  0  0  0
  5  4  1  0  0  0  0
  6  2  1  0  0  0  0
  7  3  1  0  0  0  0
  8  9  1  0  0  0  0
  9  1  1  0  0  0  0
  9 10  2  0  0  0  0
 10 15  1  0  0  0  0
 11 10  1  0  0  0  0
 12 11  2  0  0  0  0
 13  8  2  0  0  0  0
 13 12  1  0  0  0  0
 14  8  1  0  0  0  0
 16 12  1  0  0  0  0
 17 18  2  0  0  0  0
 17 25  1  0  0  0  0
 18 20  1  0  0  0  0
 19 18  1  0  0  0  0
 20 21  2  0  0  0  0
 21 22  1  0  0  0  0
 23 21  1  0  0  0  0
 23 24  1  0  0  0  0
 25 23  2  0  0  0  0
M  END
>  <minimizedAffinity>
-4.89418983

$$$$

 OpenBabel03272500453D

 25 27  0  0  0  0  0  0  0  0999 V2000
   37.0540   27.0720   33.8980 C   0  0  0  0  0  0  0  0  0  0  0  0
   37.7120   26.2640   32.9860 C   0  0  0  0  0  0  0  0  0  0  0  0
   38.3320   25.2230   33.6620 C   0  0  0  0  0  0  0  0  0  0  0  0
   38.0300   25.4300   34.9790 N   0  0  0  0  0  0  0  0  0  0  0  0
   37.2800   26.5220   35.0810 N   0  0  0  0  0  0  0  0  0  0  0  0
   37.7350   26.4260   31.9070 H   0  0  0  0  0  0  0  0  0  0  0  0
   38.9290   24.4150   33.2440 H   0  0  0  0  0  0  0  0  0  0  0  0
   35.8760   29.2260   34.4250 C   0  0  0  0  0  0  0  0  0  0  0  0
   36.3040   28.2510   33.5250 C   0  0  0  0  0  0  0  0  0  0  0  0
   35.9750   28.4440   32.1710 C   0  0  0  0  0  0  0  0  0  0  0  0
   35.2700   29.5480   31.8150 N   0  0  0  0  0  0  0  0  0  0  0  0
   34.8760   30.4720   32.7400 C   0  0  0  0  0  0  0  0  0  0  0  0
   35.1850   30.3010   34.0490 N   0  0  0  0  0  0  0  0  0  0  0  0
   36.1220   29.0910   35.4730 H   0  0  0  0  0  0  0  0  0  0  0  0
   36.2990   27.6980   31.4590 H   0  0  0  0  0  0  0  0  0  0  0  0
   34.3230   31.2900   32.2740 H   0  0  0  0  0  0  0  0  0  0  0  0
   38.4330   24.6300   36.0820 C   0  0  0  0  0  0  0  0  0  0  0  0
   37.8360   24.7180   37.3160 C   0  0  0  0  0  0  0  0  0  0  0  0
   37.0180   25.4480   37.4130 H   0  0  0  0  0  0  0  0  0  0  0  0
   38.1560   23.9880   38.4370 C   0  0  0  0  0  3  0  0  0  0  0  0
   39.1900   23.0920   38.2440 C   0  0  0  0  0  0  0  0  0  0  0  0
   39.5370   22.4550   39.0600 H   0  0  0  0  0  0  0  0  0  0  0  0
   39.8510   22.9300   37.0480 C   0  0  0  0  0  0  0  0  0  0  0  0
   40.6650   22.2200   36.9070 H   0  0  0  0  0  0  0  0  0  0  0  0
   39.4520   23.7070   35.9970 C   0  0  0  0  0  3  0  0  0  0  0  0
  1  5  2  0  0  0  0
  2  3  2  0  0  0  0
  2  1  1  0  0  0  0
  3  4  1  0  0  0  0
  4  5  1  0  0  0  0
  4 17  1  0  0  0  0
  6  2  1  0  0  0  0
  7  3  1  0  0  0  0
  8 14  1  0  0  0  0
  9  1  1  0  0  0  0
  9  8  2  0  0  0  0
 10  9  1  0  0  0  0
 11 10  2  0  0  0  0
 11 12  1  0  0  0  0
 12 13  2  0  0  0  0
 13  8  1  0  0  0  0
 15 10  1  0  0  0  0
 16 12  1  0  0  0  0
 17 18  1  0  0  0  0
 18 19  1  0  0  0  0
 18 20  2  0  0  0  0
 21 20  1  0  0  0  0
 21 22  1  0  0  0  0
 23 21  2  0  0  0  0
 24 23  1  0  0  0  0
 25 17  2  0  0  0  0
 25 23  1  0  0  0  0
M  END
>  <minimizedAffinity>
-4.79642344

$$$$

 OpenBabel03272500453D

 25 27  0  0  0  0  0  0  0  0999 V2000
   37.9700   25.2520   34.9190 C   0  0  0  0  0  0  0  0  0  0  0  0
   37.8160   24.8080   33.6160 C   0  0  0  0  0  0  0  0  0  0  0  0
   37.2550   25.8200   32.8520 C   0  0  0  0  0  0  0  0  0  0  0  0
   37.0830   26.8620   33.7210 N   0  0  0  0  0  0  0  0  0  0  0  0
   37.5120   26.4940   34.9220 N   0  0  0  0  0  0  0  0  0  0  0  0
   38.0940   23.8160   33.2550 H   0  0  0  0  0  0  0  0  0  0  0  0
   37.0040   25.7990   31.7930 H   0  0  0  0  0  0  0  0  0  0  0  0
   37.9460   24.2830   37.2350 C   0  0  0  0  0  0  0  0  0  0  0  0
   38.5290   24.4400   35.9790 C   0  0  0  0  0  0  0  0  0  0  0  0
   39.7360   23.7590   35.7440 C   0  0  0  0  0  0  0  0  0  0  0  0
   40.2650   22.9970   36.7360 N   0  0  0  0  0  0  0  0  0  0  0  0
   39.6520   22.8790   37.9490 C   0  0  0  0  0  0  0  0  0  0  0  0
   38.4870   23.5290   38.1910 N   0  0  0  0  0  0  0  0  0  0  0  0
   37.0140   24.8030   37.4310 H   0  0  0  0  0  0  0  0  0  0  0  0
   40.2010   23.8700   34.7750 H   0  0  0  0  0  0  0  0  0  0  0  0
   40.2180   22.2280   38.6190 H   0  0  0  0  0  0  0  0  0  0  0  0
   36.5380   28.1400   33.4210 C   0  0  0  0  0  0  0  0  0  0  0  0
   35.9400   28.9300   34.3730 C   0  0  0  0  0  0  0  0  0  0  0  0
   35.9020   28.5210   35.3940 H   0  0  0  0  0  0  0  0  0  0  0  0
   35.3890   30.1740   34.1790 C   0  0  0  0  0  3  0  0  0  0  0  0
   35.4730   30.6260   32.8760 C   0  0  0  0  0  0  0  0  0  0  0  0
   35.0690   31.6010   32.5950 H   0  0  0  0  0  0  0  0  0  0  0  0
   36.0510   29.9100   31.8520 C   0  0  0  0  0  0  0  0  0  0  0  0
   36.1120   30.2770   30.8280 H   0  0  0  0  0  0  0  0  0  0  0  0
   36.5700   28.6830   32.1550 C   0  0  0  0  0  3  0  0  0  0  0  0
  1  5  2  0  0  0  0
  1  9  1  0  0  0  0
  2  1  1  0  0  0  0
  3  2  2  0  0  0  0
  3  4  1  0  0  0  0
  4  5  1  0  0  0  0
  6  2  1  0  0  0  0
  7  3  1  0  0  0  0
  8 14  1  0  0  0  0
  8 13  1  0  0  0  0
  9  8  2  0  0  0  0
 10  9  1  0  0  0  0
 10 11  2  0  0  0  0
 11 12  1  0  0  0  0
 12 13  2  0  0  0  0
 12 16  1  0  0  0  0
 15 10  1  0  0  0  0
 17  4  1  0  0  0  0
 17 18  1  0  0  0  0
 18 19  1  0  0  0  0
 20 18  2  0  0  0  0
 21 20  1  0  0  0  0
 22 21  1  0  0  0  0
 23 25  1  0  0  0  0
 23 21  2  0  0  0  0
 24 23  1  0  0  0  0
 25 17  2  0  0  0  0
M  END
>  <minimizedAffinity>
-4.75365782

$$$$

 OpenBabel03272500453D

 25 27  0  0  0  0  0  0  0  0999 V2000
   38.0130   25.1510   34.8970 C   0  0  0  0  0  0  0  0  0  0  0  0
   37.8020   24.6620   33.6180 C   0  0  0  0  0  0  0  0  0  0  0  0
   37.2310   25.6560   32.8380 C   0  0  0  0  0  0  0  0  0  0  0  0
   37.1090   26.7320   33.6740 N   0  0  0  0  0  0  0  0  0  0  0  0
   37.5780   26.4000   34.8710 N   0  0  0  0  0  0  0  0  0  0  0  0
   38.0490   23.6530   33.2840 H   0  0  0  0  0  0  0  0  0  0  0  0
   36.9390   25.6010   31.7920 H   0  0  0  0  0  0  0  0  0  0  0  0
   39.8200   23.7050   35.8720 C   0  0  0  0  0  0  0  0  0  0  0  0
   38.5980   24.3680   35.9650 C   0  0  0  0  0  0  0  0  0  0  0  0
   37.9030   24.2590   37.1820 C   0  0  0  0  0  0  0  0  0  0  0  0
   38.4470   23.5260   38.1870 N   0  0  0  0  0  0  0  0  0  0  0  0
   39.6490   22.8960   38.0410 C   0  0  0  0  0  0  0  0  0  0  0  0
   40.3310   22.9910   36.8740 N   0  0  0  0  0  0  0  0  0  0  0  0
   40.3690   23.7800   34.9380 H   0  0  0  0  0  0  0  0  0  0  0  0
   36.9530   24.7680   37.2710 H   0  0  0  0  0  0  0  0  0  0  0  0
   39.9280   22.3560   38.9490 H   0  0  0  0  0  0  0  0  0  0  0  0
   36.5760   28.0080   33.3470 C   0  0  0  0  0  0  0  0  0  0  0  0
   36.6050   28.5170   32.0720 C   0  0  0  0  0  0  0  0  0  0  0  0
   37.0680   27.8820   31.3020 H   0  0  0  0  0  0  0  0  0  0  0  0
   36.1160   29.7350   31.6620 C   0  0  0  0  0  3  0  0  0  0  0  0
   35.5490   30.4800   32.6790 C   0  0  0  0  0  0  0  0  0  0  0  0
   35.1250   31.4660   32.4790 H   0  0  0  0  0  0  0  0  0  0  0  0
   35.4710   30.0580   33.9860 C   0  0  0  0  0  0  0  0  0  0  0  0
   35.0210   30.6540   34.7800 H   0  0  0  0  0  0  0  0  0  0  0  0
   35.9880   28.8300   34.2850 C   0  0  0  0  0  3  0  0  0  0  0  0
  1  9  1  0  0  0  0
  2  1  1  0  0  0  0
  3  2  2  0  0  0  0
  3  4  1  0  0  0  0
  4  5  1  0  0  0  0
  5  1  2  0  0  0  0
  6  2  1  0  0  0  0
  7  3  1  0  0  0  0
  8  9  2  0  0  0  0
  8 13  1  0  0  0  0
  9 10  1  0  0  0  0
 10 15  1  0  0  0  0
 10 11  2  0  0  0  0
 12 11  1  0  0  0  0
 12 16  1  0  0  0  0
 13 12  2  0  0  0  0
 14  8  1  0  0  0  0
 17  4  1  0  0  0  0
 17 25  1  0  0  0  0
 18 17  2  0  0  0  0
 19 18  1  0  0  0  0
 20 18  1  0  0  0  0
 20 21  2  0  0  0  0
 21 23  1  0  0  0  0
 22 21  1  0  0  0  0
 23 25  2  0  0  0  0
 23 24  1  0  0  0  0
M  END
>  <minimizedAffinity>
-4.7391243

$$$$

 OpenBabel03272500453D

 25 27  0  0  0  0  0  0  0  0999 V2000
   36.3650   29.6270   31.9040 C   0  0  0  0  0  0  0  0  0  0  0  0
   36.4380   28.4350   32.6060 C   0  0  0  0  0  0  0  0  0  0  0  0
   35.8990   28.6160   33.8710 C   0  0  0  0  0  0  0  0  0  0  0  0
   35.5090   29.9270   33.9020 N   0  0  0  0  0  0  0  0  0  0  0  0
   35.7970   30.4880   32.7340 N   0  0  0  0  0  0  0  0  0  0  0  0
   36.8560   27.5050   32.2180 H   0  0  0  0  0  0  0  0  0  0  0  0
   35.8030   27.8830   34.6680 H   0  0  0  0  0  0  0  0  0  0  0  0
   37.2670   28.7340   29.7370 C   0  0  0  0  0  0  0  0  0  0  0  0
   36.8420   29.7860   30.5470 C   0  0  0  0  0  0  0  0  0  0  0  0
   36.8870   31.0770   29.9920 C   0  0  0  0  0  0  0  0  0  0  0  0
   37.3340   31.2320   28.7200 N   0  0  0  0  0  0  0  0  0  0  0  0
   37.7390   30.1650   27.9710 C   0  0  0  0  0  0  0  0  0  0  0  0
   37.7010   28.9130   28.4910 N   0  0  0  0  0  0  0  0  0  0  0  0
   37.2380   27.7310   30.1520 H   0  0  0  0  0  0  0  0  0  0  0  0
   36.5610   31.9050   30.6070 H   0  0  0  0  0  0  0  0  0  0  0  0
   38.0640   30.4770   26.9760 H   0  0  0  0  0  0  0  0  0  0  0  0
   34.8940   30.6070   34.9880 C   0  0  0  0  0  0  0  0  0  0  0  0
   33.5640   30.4560   35.2960 C   0  0  0  0  0  0  0  0  0  0  0  0
   32.9870   29.7740   34.6530 H   0  0  0  0  0  0  0  0  0  0  0  0
   32.8840   31.0680   36.3220 C   0  0  0  0  0  3  0  0  0  0  0  0
   33.6680   31.9100   37.0880 C   0  0  0  0  0  0  0  0  0  0  0  0
   33.2420   32.4550   37.9330 H   0  0  0  0  0  0  0  0  0  0  0  0
   35.0080   32.1280   36.8600 C   0  0  0  0  0  0  0  0  0  0  0  0
   35.6160   32.7940   37.4710 H   0  0  0  0  0  0  0  0  0  0  0  0
   35.5850   31.4680   35.8120 C   0  0  0  0  0  3  0  0  0  0  0  0
  1  2  1  0  0  0  0
  1  5  2  0  0  0  0
  2  3  2  0  0  0  0
  3  4  1  0  0  0  0
  3  7  1  0  0  0  0
  4 17  1  0  0  0  0
  5  4  1  0  0  0  0
  6  2  1  0  0  0  0
  8 14  1  0  0  0  0
  8  9  1  0  0  0  0
  9  1  1  0  0  0  0
 10  9  2  0  0  0  0
 10 15  1  0  0  0  0
 11 10  1  0  0  0  0
 12 13  1  0  0  0  0
 12 11  2  0  0  0  0
 13  8  2  0  0  0  0
 16 12  1  0  0  0  0
 17 18  2  0  0  0  0
 17 25  1  0  0  0  0
 18 20  1  0  0  0  0
 19 18  1  0  0  0  0
 20 21  2  0  0  0  0
 21 22  1  0  0  0  0
 23 21  1  0  0  0  0
 23 24  1  0  0  0  0
 25 23  2  0  0  0  0
M  END
>  <minimizedAffinity>
-4.62634039

$$$$

 OpenBabel03272500453D

 25 27  0  0  0  0  0  0  0  0999 V2000
   36.0900   28.1850   32.5150 C   0  0  0  0  0  0  0  0  0  0  0  0
   36.1620   29.3350   31.7470 C   0  0  0  0  0  0  0  0  0  0  0  0
   35.7370   30.4170   32.5030 C   0  0  0  0  0  0  0  0  0  0  0  0
   35.4160   29.8880   33.7230 N   0  0  0  0  0  0  0  0  0  0  0  0
   35.6360   28.5790   33.6940 N   0  0  0  0  0  0  0  0  0  0  0  0
   36.5000   29.3770   30.7100 H   0  0  0  0  0  0  0  0  0  0  0  0
   35.6700   31.4600   32.2010 H   0  0  0  0  0  0  0  0  0  0  0  0
   35.6070   26.0270   31.3260 C   0  0  0  0  0  0  0  0  0  0  0  0
   36.4630   26.8740   32.0270 C   0  0  0  0  0  0  0  0  0  0  0  0
   37.7680   26.4090   32.2670 C   0  0  0  0  0  0  0  0  0  0  0  0
   38.1210   25.1790   31.8120 N   0  0  0  0  0  0  0  0  0  0  0  0
   37.2410   24.3900   31.1300 C   0  0  0  0  0  0  0  0  0  0  0  0
   35.9800   24.8240   30.8910 N   0  0  0  0  0  0  0  0  0  0  0  0
   34.5960   26.3720   31.1330 H   0  0  0  0  0  0  0  0  0  0  0  0
   38.4440   27.0530   32.8100 H   0  0  0  0  0  0  0  0  0  0  0  0
   37.6990   23.4410   30.8430 H   0  0  0  0  0  0  0  0  0  0  0  0
   34.9270   30.5930   34.8560 C   0  0  0  0  0  0  0  0  0  0  0  0
   33.6240   30.4990   35.2790 C   0  0  0  0  0  0  0  0  0  0  0  0
   32.9650   29.8420   34.6920 H   0  0  0  0  0  0  0  0  0  0  0  0
   33.0630   31.1390   36.3580 C   0  0  0  0  0  3  0  0  0  0  0  0
   33.9450   31.9470   37.0500 C   0  0  0  0  0  0  0  0  0  0  0  0
   33.6180   32.5090   37.9270 H   0  0  0  0  0  0  0  0  0  0  0  0
   35.2680   32.1080   36.7060 C   0  0  0  0  0  0  0  0  0  0  0  0
   35.9550   32.7470   37.2590 H   0  0  0  0  0  0  0  0  0  0  0  0
   35.7230   31.4240   35.6140 C   0  0  0  0  0  3  0  0  0  0  0  0
  1  5  2  0  0  0  0
  2  3  2  0  0  0  0
  2  1  1  0  0  0  0
  3  4  1  0  0  0  0
  4 17  1  0  0  0  0
  5  4  1  0  0  0  0
  6  2  1  0  0  0  0
  7  3  1  0  0  0  0
  8  9  1  0  0  0  0
  9 10  2  0  0  0  0
  9  1  1  0  0  0  0
 10 15  1  0  0  0  0
 11 10  1  0  0  0  0
 12 11  2  0  0  0  0
 13 12  1  0  0  0  0
 13  8  2  0  0  0  0
 14  8  1  0  0  0  0
 16 12  1  0  0  0  0
 17 18  2  0  0  0  0
 17 25  1  0  0  0  0
 18 20  1  0  0  0  0
 19 18  1  0  0  0  0
 20 21  2  0  0  0  0
 21 22  1  0  0  0  0
 23 21  1  0  0  0  0
 23 24  1  0  0  0  0
 25 23  2  0  0  0  0
M  END
>  <minimizedAffinity>
-4.58541775

$$$$

 OpenBabel03272500453D

 25 27  0  0  0  0  0  0  0  0999 V2000
   36.1760   28.3890   32.7840 C   0  0  0  0  0  0  0  0  0  0  0  0
   36.1960   29.5450   32.0220 C   0  0  0  0  0  0  0  0  0  0  0  0
   35.6510   30.5860   32.7580 C   0  0  0  0  0  0  0  0  0  0  0  0
   35.3120   30.0280   33.9590 N   0  0  0  0  0  0  0  0  0  0  0  0
   35.6340   28.7400   33.9400 N   0  0  0  0  0  0  0  0  0  0  0  0
   36.5810   29.6170   31.0030 H   0  0  0  0  0  0  0  0  0  0  0  0
   35.5180   31.6220   32.4540 H   0  0  0  0  0  0  0  0  0  0  0  0
   35.9750   26.2690   31.4530 C   0  0  0  0  0  0  0  0  0  0  0  0
   36.6730   27.1130   32.3140 C   0  0  0  0  0  0  0  0  0  0  0  0
   37.9410   26.6810   32.7440 C   0  0  0  0  0  0  0  0  0  0  0  0
   38.4110   25.4850   32.3070 N   0  0  0  0  0  0  0  0  0  0  0  0
   37.6840   24.6970   31.4620 C   0  0  0  0  0  0  0  0  0  0  0  0
   36.4600   25.1000   31.0390 N   0  0  0  0  0  0  0  0  0  0  0  0
   34.9950   26.5890   31.1130 H   0  0  0  0  0  0  0  0  0  0  0  0
   38.4960   27.3240   33.4120 H   0  0  0  0  0  0  0  0  0  0  0  0
   38.2180   23.7770   31.2170 H   0  0  0  0  0  0  0  0  0  0  0  0
   34.7140   30.6870   35.0670 C   0  0  0  0  0  0  0  0  0  0  0  0
   35.4080   31.5570   35.8720 C   0  0  0  0  0  0  0  0  0  0  0  0
   36.4660   31.7220   35.6160 H   0  0  0  0  0  0  0  0  0  0  0  0
   34.9170   32.2390   36.9600 C   0  0  0  0  0  3  0  0  0  0  0  0
   33.5850   31.9850   37.2230 C   0  0  0  0  0  0  0  0  0  0  0  0
   33.0800   32.4670   38.0630 H   0  0  0  0  0  0  0  0  0  0  0  0
   32.8050   31.1320   36.4770 C   0  0  0  0  0  0  0  0  0  0  0  0
   31.7550   30.9400   36.6940 H   0  0  0  0  0  0  0  0  0  0  0  0
   33.3940   30.5050   35.4160 C   0  0  0  0  0  3  0  0  0  0  0  0
  1  5  2  0  0  0  0
  2  3  2  0  0  0  0
  2  1  1  0  0  0  0
  3  4  1  0  0  0  0
  4 17  1  0  0  0  0
  5  4  1  0  0  0  0
  6  2  1  0  0  0  0
  7  3  1  0  0  0  0
  8  9  1  0  0  0  0
  9 10  2  0  0  0  0
  9  1  1  0  0  0  0
 10 15  1  0  0  0  0
 11 10  1  0  0  0  0
 12 11  2  0  0  0  0
 13  8  2  0  0  0  0
 13 12  1  0  0  0  0
 14  8  1  0  0  0  0
 16 12  1  0  0  0  0
 17 25  2  0  0  0  0
 17 18  1  0  0  0  0
 18 20  2  0  0  0  0
 19 18  1  0  0  0  0
 20 21  1  0  0  0  0
 21 22  1  0  0  0  0
 23 24  1  0  0  0  0
 23 21  2  0  0  0  0
 25 23  1  0  0  0  0
M  END
>  <minimizedAffinity>
-4.53403711

$$$$

 OpenBabel03272500453D

 25 27  0  0  0  0  0  0  0  0999 V2000
   37.8250   27.0510   33.8510 C   0  0  0  0  0  0  0  0  0  0  0  0
   37.6880   27.7330   35.0480 C   0  0  0  0  0  0  0  0  0  0  0  0
   38.1450   26.9330   36.0850 C   0  0  0  0  0  0  0  0  0  0  0  0
   38.5500   25.7740   35.4820 N   0  0  0  0  0  0  0  0  0  0  0  0
   38.3490   25.8780   34.1730 N   0  0  0  0  0  0  0  0  0  0  0  0
   37.2840   28.7420   35.1520 H   0  0  0  0  0  0  0  0  0  0  0  0
   38.1770   27.1670   37.1470 H   0  0  0  0  0  0  0  0  0  0  0  0
   36.3320   28.4220   32.3680 C   0  0  0  0  0  0  0  0  0  0  0  0
   37.4410   27.6020   32.5690 C   0  0  0  0  0  0  0  0  0  0  0  0
   38.2260   27.3020   31.4420 C   0  0  0  0  0  0  0  0  0  0  0  0
   37.8710   27.8160   30.2360 N   0  0  0  0  0  0  0  0  0  0  0  0
   36.7720   28.6140   30.0970 C   0  0  0  0  0  0  0  0  0  0  0  0
   36.0050   28.9130   31.1740 N   0  0  0  0  0  0  0  0  0  0  0  0
   35.7160   28.6620   33.2290 H   0  0  0  0  0  0  0  0  0  0  0  0
   39.0900   26.6670   31.5790 H   0  0  0  0  0  0  0  0  0  0  0  0
   36.6420   28.9340   29.0610 H   0  0  0  0  0  0  0  0  0  0  0  0
   39.1010   24.6300   36.1190 C   0  0  0  0  0  0  0  0  0  0  0  0
   38.5990   24.1240   37.2930 C   0  0  0  0  0  0  0  0  0  0  0  0
   37.7370   24.6540   37.7250 H   0  0  0  0  0  0  0  0  0  0  0  0
   39.0630   23.0270   37.9790 C   0  0  0  0  0  3  0  0  0  0  0  0
   40.1450   22.4100   37.3810 C   0  0  0  0  0  0  0  0  0  0  0  0
   40.6040   21.5270   37.8310 H   0  0  0  0  0  0  0  0  0  0  0  0
   40.7190   22.8390   36.2060 C   0  0  0  0  0  0  0  0  0  0  0  0
   41.5730   22.3440   35.7440 H   0  0  0  0  0  0  0  0  0  0  0  0
   40.1790   23.9410   35.6060 C   0  0  0  0  0  3  0  0  0  0  0  0
  1  5  2  0  0  0  0
  1  2  1  0  0  0  0
  2  6  1  0  0  0  0
  2  3  2  0  0  0  0
  3  7  1  0  0  0  0
  4  3  1  0  0  0  0
  4 17  1  0  0  0  0
  5  4  1  0  0  0  0
  8  9  1  0  0  0  0
  8 14  1  0  0  0  0
  9  1  1  0  0  0  0
 10 15  1  0  0  0  0
 10  9  2  0  0  0  0
 11 10  1  0  0  0  0
 12 11  2  0  0  0  0
 12 13  1  0  0  0  0
 13  8  2  0  0  0  0
 16 12  1  0  0  0  0
 17 18  1  0  0  0  0
 18 19  1  0  0  0  0
 18 20  2  0  0  0  0
 21 22  1  0  0  0  0
 21 20  1  0  0  0  0
 23 21  2  0  0  0  0
 24 23  1  0  0  0  0
 25 17  2  0  0  0  0
 25 23  1  0  0  0  0
M  END
>  <minimizedAffinity>
-4.52824211

$$$$
