
 OpenBabel03272509403D

 35 37  0  0  0  0  0  0  0  0999 V2000
   37.0630   30.9690   49.0620 C   0  0  0  0  0  0  0  0  0  0  0  0
   36.7920   31.9030   50.0670 C   0  0  0  0  0  0  0  0  0  0  0  0
   37.3970   33.1450   50.0950 C   0  0  0  0  0  0  0  0  0  0  0  0
   38.3120   33.4940   49.0940 C   0  0  0  0  0  0  0  0  0  0  0  0
   38.5640   32.5640   48.1160 C   0  0  0  0  0  0  0  0  0  0  0  0
   37.9460   31.3260   48.1090 C   0  0  0  0  0  0  0  0  0  0  0  0
   36.0960   31.6920   50.8670 H   0  0  0  0  0  0  0  0  0  0  0  0
   37.1750   33.8510   50.8790 H   0  0  0  0  0  0  0  0  0  0  0  0
   38.7700   34.4710   49.1400 H   0  0  0  0  0  0  0  0  0  0  0  0
   39.2800   32.9140   47.3850 H   0  0  0  0  0  0  0  0  0  0  0  0
   36.3790   29.6890   49.1150 C   0  0  0  0  0  0  0  0  0  0  0  0
   36.9100   28.8300   49.9040 O   0  0  0  0  0  0  0  0  0  0  0  0
   33.6130   30.1680   46.8210 C   0  0  0  0  0  0  0  0  0  0  0  0
   32.9400   28.9420   46.8360 C   0  0  0  0  0  0  0  0  0  0  0  0
   33.4410   27.9500   47.6400 C   0  0  0  0  0  0  0  0  0  0  0  0
   34.5590   28.1820   48.3860 N   0  0  0  0  0  0  0  0  0  0  0  0
   35.1760   29.3490   48.3520 C   0  0  0  0  0  0  0  0  0  0  0  0
   34.6910   30.3210   47.5690 N   0  0  0  0  0  0  0  0  0  0  0  0
   33.1700   30.9040   46.1700 H   0  0  0  0  0  0  0  0  0  0  0  0
   32.0680   28.6630   46.2970 H   0  0  0  0  0  0  0  0  0  0  0  0
   33.0120   26.9670   47.7360 H   0  0  0  0  0  0  0  0  0  0  0  0
   38.3260   30.4710   47.0120 C   0  0  0  0  0  3  0  0  0  0  0  0
   39.0320   30.8190   45.9470 C   0  0  0  0  0  3  0  0  0  0  0  0
   39.4820   30.0510   44.7720 C   0  0  0  0  0  0  0  0  0  0  0  0
   40.5260   30.2620   44.4780 H   0  0  0  0  0  0  0  0  0  0  0  0
   39.4560   28.9720   45.0430 H   0  0  0  0  0  0  0  0  0  0  0  0
   38.5350   30.2030   43.6170 C   0  0  0  0  0  0  0  0  0  0  0  0
   37.3790   29.4550   43.5680 C   0  0  0  0  0  0  0  0  0  0  0  0
   37.1090   28.7390   44.3420 H   0  0  0  0  0  0  0  0  0  0  0  0
   36.4820   29.5800   42.5030 C   0  0  0  0  0  3  0  0  0  0  0  0
   36.8720   30.5020   41.5480 C   0  0  0  0  0  0  0  0  0  0  0  0
   36.1830   30.6140   40.7070 H   0  0  0  0  0  0  0  0  0  0  0  0
   37.9940   31.2750   41.5300 C   0  0  0  0  0  0  0  0  0  0  0  0
   38.1770   31.9590   40.7120 H   0  0  0  0  0  0  0  0  0  0  0  0
   38.8360   31.0870   42.6290 C   0  0  0  0  0  3  0  0  0  0  0  0
  1 11  1  0  0  0  0
  1  2  1  0  0  0  0
  2  3  2  0  0  0  0
  2  7  1  0  0  0  0
  3  8  1  0  0  0  0
  4  9  1  0  0  0  0
  4  3  1  0  0  0  0
  5  4  2  0  0  0  0
  6  5  1  0  0  0  0
  6  1  2  0  0  0  0
 10  5  1  0  0  0  0
 11 12  2  0  0  0  0
 13 14  2  0  0  0  0
 13 18  1  0  0  0  0
 14 15  1  0  0  0  0
 15 21  1  0  0  0  0
 15 16  2  0  0  0  0
 17 16  1  0  0  0  0
 17 11  1  0  0  0  0
 18 17  2  0  0  0  0
 19 13  1  0  0  0  0
 20 14  1  0  0  0  0
 22  6  1  0  0  0  0
 23 22  2  0  0  0  0
 24 26  1  0  0  0  0
 24 23  1  0  0  0  0
 25 24  1  0  0  0  0
 27 24  1  0  0  0  0
 28 27  1  0  0  0  0
 28 29  1  0  0  0  0
 30 28  2  0  0  0  0
 31 30  1  0  0  0  0
 32 31  1  0  0  0  0
 33 31  2  0  0  0  0
 33 35  1  0  0  0  0
 34 33  1  0  0  0  0
 35 27  2  0  0  0  0
M  END
>  <minimizedAffinity>
-5.69482899

>  <minimizedRMSD>
0.291706979

$$$$
