
     RDKit          3D

 39 41  0  0  0  0  0  0  0  0999 V2000
   37.1344   30.9664   49.0179 C   0  0  0  0  0  0  0  0  0  0  0  0
   36.9111   31.9343   50.0020 C   0  0  0  0  0  0  0  0  0  0  0  0
   37.5480   33.1595   49.9815 C   0  0  0  0  0  0  0  0  0  0  0  0
   38.4476   33.4569   48.9505 C   0  0  0  0  0  0  0  0  0  0  0  0
   38.6531   32.4939   47.9943 C   0  0  0  0  0  0  0  0  0  0  0  0
   38.0036   31.2728   48.0352 C   0  0  0  0  0  0  0  0  0  0  0  0
   36.4186   29.7055   49.1221 C   0  0  0  0  0  0  0  0  0  0  0  0
   36.9283   28.8679   49.9473 O   0  0  0  0  0  0  0  0  0  0  0  0
   33.6311   30.1800   46.8538 C   0  0  0  0  0  0  0  0  0  0  0  0
   32.9586   28.9540   46.8771 C   0  0  0  0  0  0  0  0  0  0  0  0
   33.4689   27.9634   47.6773 C   0  0  0  0  0  0  0  0  0  0  0  0
   34.5938   28.1965   48.4121 N   0  0  0  0  0  0  0  0  0  0  0  0
   35.2093   29.3640   48.3713 C   0  0  0  0  0  0  0  0  0  0  0  0
   34.7161   30.3347   47.5924 N   0  0  0  0  0  0  0  0  0  0  0  0
   38.3357   30.3783   46.9550 C   0  0  0  0  0  0  0  0  0  0  0  0
   38.8115   30.7184   45.7655 C   0  0  0  0  0  0  0  0  0  0  0  0
   39.1893   29.9106   44.5908 C   0  0  0  0  0  0  0  0  0  0  0  0
   36.2278   31.7627   50.8231 H   0  0  0  0  0  0  0  0  0  0  0  0
   37.3624   33.8933   50.7501 H   0  0  0  0  0  0  0  0  0  0  0  0
   38.9323   34.4231   48.9585 H   0  0  0  0  0  0  0  0  0  0  0  0
   39.3611   32.8052   47.2372 H   0  0  0  0  0  0  0  0  0  0  0  0
   33.1811   30.9154   46.2071 H   0  0  0  0  0  0  0  0  0  0  0  0
   32.0817   28.6729   46.3466 H   0  0  0  0  0  0  0  0  0  0  0  0
   33.0405   26.9798   47.7783 H   0  0  0  0  0  0  0  0  0  0  0  0
   38.2247   29.2814   47.0080 H   0  0  0  0  0  0  0  0  0  0  0  0
   38.9878   31.7608   45.5261 H   0  0  0  0  0  0  0  0  0  0  0  0
   40.2723   29.9198   44.3768 H   0  0  0  0  0  0  0  0  0  0  0  0
   38.9318   28.8510   44.8124 H   0  0  0  0  0  0  0  0  0  0  0  0
   38.3769   30.2832   43.3838 C   0  0  0  0  0  0  0  0  0  0  0  0
   37.4222   31.2718   43.4718 C   0  0  0  0  0  0  0  0  0  0  0  0
   37.2187   31.8127   44.3933 H   0  0  0  0  0  0  0  0  0  0  0  0
   36.6544   31.6350   42.3612 C   0  0  0  0  0  0  0  0  0  0  0  0
   36.9516   30.9186   41.2162 C   0  0  0  0  0  0  0  0  0  0  0  0
   36.3612   31.1886   40.3369 H   0  0  0  0  0  0  0  0  0  0  0  0
   37.8777   29.9317   41.0543 C   0  0  0  0  0  0  0  0  0  0  0  0
   38.0067   29.4513   40.0941 H   0  0  0  0  0  0  0  0  0  0  0  0
   38.6010   29.6304   42.2124 C   0  0  0  0  0  0  0  0  0  0  0  0
   35.8900   32.4009   42.3613 H   0  0  0  0  0  0  0  0  0  0  0  0
   39.3594   28.8390   42.1260 H   0  0  0  0  0  0  0  0  0  0  0  0
  1  7  1  0
  1  2  2  0
  3  2  1  0
  4  3  2  0
  5  6  2  0
  5  4  1  0
  6  1  1  0
  7  8  2  0
  9 10  2  0
  9 14  1  0
 10 11  1  0
 11 12  2  0
 13 12  1  0
 13  7  1  0
 14 13  2  0
 15  6  1  0
 16 15  2  0
 17 16  1  0
  2 18  1  0
  3 19  1  0
  4 20  1  0
  5 21  1  0
  9 22  1  0
 10 23  1  0
 11 24  1  0
 15 25  1  0
 16 26  1  0
 17 27  1  0
 17 28  1  0
 29 30  2  0
 30 31  1  0
 30 32  1  0
 32 33  2  0
 33 34  1  0
 33 35  1  0
 35 36  1  0
 35 37  2  0
 37 29  1  0
 32 38  1  0
 37 39  1  0
 17 29  1  0
M  ISO  8  18  14  19  14  20  14  21  14  22  14  23  14  24  14  27   8
M  ISO  4  28   8  31  16  34  16  36  16
M  END
>  <DihAtoms>  (1) 
15,16,28,29

>  <DihDeg>  (1) 
-89.99598473758955

$$$$
