
 OpenBabel03272509413D

 35 37  0  0  0  0  0  0  0  0999 V2000
   35.5140   29.2360   32.8120 C   0  0  0  0  0  0  0  0  0  0  0  0
   35.4370   29.7070   31.4970 C   0  0  0  0  0  0  0  0  0  0  0  0
   36.3520   29.3350   30.5310 C   0  0  0  0  0  0  0  0  0  0  0  0
   37.3960   28.4620   30.8630 C   0  0  0  0  0  0  0  0  0  0  0  0
   37.4550   28.0110   32.1580 C   0  0  0  0  0  0  0  0  0  0  0  0
   36.5270   28.3960   33.1090 C   0  0  0  0  0  0  0  0  0  0  0  0
   34.6540   30.3830   31.1810 H   0  0  0  0  0  0  0  0  0  0  0  0
   36.2750   29.7100   29.5230 H   0  0  0  0  0  0  0  0  0  0  0  0
   38.0970   28.1900   30.0880 H   0  0  0  0  0  0  0  0  0  0  0  0
   38.2890   27.3430   32.3270 H   0  0  0  0  0  0  0  0  0  0  0  0
   34.5070   29.6800   33.7590 C   0  0  0  0  0  0  0  0  0  0  0  0
   33.3530   29.1440   33.6040 O   0  0  0  0  0  0  0  0  0  0  0  0
   33.7820   31.6450   36.7180 C   0  0  0  0  0  0  0  0  0  0  0  0
   34.9300   32.4230   36.9010 C   0  0  0  0  0  0  0  0  0  0  0  0
   35.9540   32.2690   36.0020 C   0  0  0  0  0  0  0  0  0  0  0  0
   35.8270   31.3790   34.9760 N   0  0  0  0  0  0  0  0  0  0  0  0
   34.7330   30.6570   34.8260 C   0  0  0  0  0  0  0  0  0  0  0  0
   33.7290   30.8030   35.7010 N   0  0  0  0  0  0  0  0  0  0  0  0
   33.0160   31.8130   37.4560 H   0  0  0  0  0  0  0  0  0  0  0  0
   35.1260   33.1390   37.6620 H   0  0  0  0  0  0  0  0  0  0  0  0
   36.8840   32.8100   36.0390 H   0  0  0  0  0  0  0  0  0  0  0  0
   36.7370   27.8310   34.4180 C   0  0  0  0  0  3  0  0  0  0  0  0
   37.8950   27.4480   34.9360 C   0  0  0  0  0  3  0  0  0  0  0  0
   38.2400   26.8640   36.2450 C   0  0  0  0  0  0  0  0  0  0  0  0
   39.1720   27.2690   36.6780 H   0  0  0  0  0  0  0  0  0  0  0  0
   37.4310   27.1340   36.9600 H   0  0  0  0  0  0  0  0  0  0  0  0
   38.2540   25.3640   36.1930 C   0  0  0  0  0  0  0  0  0  0  0  0
   37.9110   24.6300   37.3070 C   0  0  0  0  0  0  0  0  0  0  0  0
   37.6230   25.0910   38.2490 H   0  0  0  0  0  0  0  0  0  0  0  0
   37.9180   23.2320   37.2810 C   0  0  0  0  0  3  0  0  0  0  0  0
   38.2910   22.6960   36.0620 C   0  0  0  0  0  0  0  0  0  0  0  0
   38.3010   21.6040   36.0230 H   0  0  0  0  0  0  0  0  0  0  0  0
   38.6420   23.3550   34.9220 C   0  0  0  0  0  0  0  0  0  0  0  0
   38.9140   22.8050   34.0320 H   0  0  0  0  0  0  0  0  0  0  0  0
   38.6080   24.7490   35.0340 C   0  0  0  0  0  3  0  0  0  0  0  0
  1  6  1  0  0  0  0
  1 11  1  0  0  0  0
  2  1  2  0  0  0  0
  3  4  2  0  0  0  0
  3  2  1  0  0  0  0
  4  5  1  0  0  0  0
  5 10  1  0  0  0  0
  5  6  2  0  0  0  0
  6 22  1  0  0  0  0
  7  2  1  0  0  0  0
  8  3  1  0  0  0  0
  9  4  1  0  0  0  0
 11 17  1  0  0  0  0
 12 11  2  0  0  0  0
 13 14  1  0  0  0  0
 13 19  1  0  0  0  0
 14 20  1  0  0  0  0
 15 21  1  0  0  0  0
 15 14  2  0  0  0  0
 16 15  1  0  0  0  0
 17 16  2  0  0  0  0
 17 18  1  0  0  0  0
 18 13  2  0  0  0  0
 22 23  2  0  0  0  0
 23 24  1  0  0  0  0
 24 25  1  0  0  0  0
 24 26  1  0  0  0  0
 27 24  1  0  0  0  0
 27 28  1  0  0  0  0
 28 29  1  0  0  0  0
 30 28  2  0  0  0  0
 31 30  1  0  0  0  0
 32 31  1  0  0  0  0
 33 35  1  0  0  0  0
 33 31  2  0  0  0  0
 34 33  1  0  0  0  0
 35 27  2  0  0  0  0
M  END
>  <minimizedAffinity>
-5.95317602

$$$$

 OpenBabel03272509413D

 35 37  0  0  0  0  0  0  0  0999 V2000
   36.5100   21.9780   31.9350 C   0  0  0  0  0  0  0  0  0  0  0  0
   35.4650   21.2950   31.3060 C   0  0  0  0  0  0  0  0  0  0  0  0
   34.7940   20.2550   31.9220 C   0  0  0  0  0  0  0  0  0  0  0  0
   35.1620   19.8620   33.2150 C   0  0  0  0  0  0  0  0  0  0  0  0
   36.1900   20.5450   33.8150 C   0  0  0  0  0  0  0  0  0  0  0  0
   36.8470   21.5830   33.1790 C   0  0  0  0  0  0  0  0  0  0  0  0
   35.1360   21.5530   30.3090 H   0  0  0  0  0  0  0  0  0  0  0  0
   33.9900   19.7410   31.4200 H   0  0  0  0  0  0  0  0  0  0  0  0
   34.6210   19.0460   33.6720 H   0  0  0  0  0  0  0  0  0  0  0  0
   36.4080   20.1780   34.8090 H   0  0  0  0  0  0  0  0  0  0  0  0
   37.1560   23.0580   31.2100 C   0  0  0  0  0  0  0  0  0  0  0  0
   38.0640   22.6830   30.3870 O   0  0  0  0  0  0  0  0  0  0  0  0
   37.6460   26.5220   32.1600 C   0  0  0  0  0  0  0  0  0  0  0  0
   36.4670   27.1580   31.7570 C   0  0  0  0  0  0  0  0  0  0  0  0
   35.5020   26.3890   31.1570 C   0  0  0  0  0  0  0  0  0  0  0  0
   35.7160   25.0540   30.9740 N   0  0  0  0  0  0  0  0  0  0  0  0
   36.8380   24.4800   31.3640 C   0  0  0  0  0  0  0  0  0  0  0  0
   37.7840   25.2250   31.9500 N   0  0  0  0  0  0  0  0  0  0  0  0
   38.3620   27.1800   32.6230 H   0  0  0  0  0  0  0  0  0  0  0  0
   36.2050   28.1830   31.8530 H   0  0  0  0  0  0  0  0  0  0  0  0
   34.5560   26.7630   30.8050 H   0  0  0  0  0  0  0  0  0  0  0  0
   37.9020   22.1900   33.9500 C   0  0  0  0  0  3  0  0  0  0  0  0
   37.8700   22.4770   35.2440 C   0  0  0  0  0  3  0  0  0  0  0  0
   38.8690   23.0870   36.1400 C   0  0  0  0  0  0  0  0  0  0  0  0
   38.6700   22.9090   37.2110 H   0  0  0  0  0  0  0  0  0  0  0  0
   39.8510   22.6070   35.9300 H   0  0  0  0  0  0  0  0  0  0  0  0
   39.0580   24.5470   35.8410 C   0  0  0  0  0  0  0  0  0  0  0  0
   40.1290   24.9640   35.0830 C   0  0  0  0  0  0  0  0  0  0  0  0
   40.8660   24.2750   34.6770 H   0  0  0  0  0  0  0  0  0  0  0  0
   40.3240   26.3180   34.7920 C   0  0  0  0  0  3  0  0  0  0  0  0
   39.3610   27.1510   35.3310 C   0  0  0  0  0  0  0  0  0  0  0  0
   39.4970   28.2130   35.1140 H   0  0  0  0  0  0  0  0  0  0  0  0
   38.2790   26.8120   36.0880 C   0  0  0  0  0  0  0  0  0  0  0  0
   37.6000   27.5730   36.4470 H   0  0  0  0  0  0  0  0  0  0  0  0
   38.1580   25.4400   36.3300 C   0  0  0  0  0  3  0  0  0  0  0  0
  1  6  1  0  0  0  0
  2  3  1  0  0  0  0
  2  1  2  0  0  0  0
  3  4  2  0  0  0  0
  4  9  1  0  0  0  0
  4  5  1  0  0  0  0
  5 10  1  0  0  0  0
  6  5  2  0  0  0  0
  6 22  1  0  0  0  0
  7  2  1  0  0  0  0
  8  3  1  0  0  0  0
 11 17  1  0  0  0  0
 11  1  1  0  0  0  0
 12 11  2  0  0  0  0
 13 19  1  0  0  0  0
 14 20  1  0  0  0  0
 14 13  2  0  0  0  0
 15 14  1  0  0  0  0
 16 15  2  0  0  0  0
 16 17  1  0  0  0  0
 17 18  2  0  0  0  0
 18 13  1  0  0  0  0
 21 15  1  0  0  0  0
 22 23  2  0  0  0  0
 23 24  1  0  0  0  0
 24 25  1  0  0  0  0
 26 24  1  0  0  0  0
 27 24  1  0  0  0  0
 27 35  1  0  0  0  0
 28 27  2  0  0  0  0
 29 28  1  0  0  0  0
 30 28  1  0  0  0  0
 30 31  2  0  0  0  0
 31 33  1  0  0  0  0
 32 31  1  0  0  0  0
 33 35  2  0  0  0  0
 33 34  1  0  0  0  0
M  END
>  <minimizedAffinity>
-5.78878641

$$$$

 OpenBabel03272509413D

 35 37  0  0  0  0  0  0  0  0999 V2000
   36.7850   28.1300   32.2000 C   0  0  0  0  0  0  0  0  0  0  0  0
   36.3470   29.0150   31.2100 C   0  0  0  0  0  0  0  0  0  0  0  0
   35.5540   30.1080   31.5040 C   0  0  0  0  0  0  0  0  0  0  0  0
   35.1690   30.3500   32.8280 C   0  0  0  0  0  0  0  0  0  0  0  0
   35.6090   29.4700   33.7850 C   0  0  0  0  0  0  0  0  0  0  0  0
   36.4020   28.3820   33.4680 C   0  0  0  0  0  0  0  0  0  0  0  0
   36.6120   28.8810   30.1700 H   0  0  0  0  0  0  0  0  0  0  0  0
   35.2270   30.7790   30.7250 H   0  0  0  0  0  0  0  0  0  0  0  0
   34.5480   31.2120   33.0280 H   0  0  0  0  0  0  0  0  0  0  0  0
   35.2650   29.7310   34.7770 H   0  0  0  0  0  0  0  0  0  0  0  0
   37.6150   27.0080   31.7980 C   0  0  0  0  0  0  0  0  0  0  0  0
   38.8570   27.2880   31.6480 O   0  0  0  0  0  0  0  0  0  0  0  0
   37.7850   23.4740   31.0110 C   0  0  0  0  0  0  0  0  0  0  0  0
   36.4580   23.0410   31.0920 C   0  0  0  0  0  0  0  0  0  0  0  0
   35.5030   23.9710   31.4180 C   0  0  0  0  0  0  0  0  0  0  0  0
   35.8690   25.2640   31.6500 N   0  0  0  0  0  0  0  0  0  0  0  0
   37.1300   25.6460   31.5670 C   0  0  0  0  0  0  0  0  0  0  0  0
   38.0650   24.7430   31.2490 N   0  0  0  0  0  0  0  0  0  0  0  0
   38.4850   22.6960   30.7520 H   0  0  0  0  0  0  0  0  0  0  0  0
   36.0720   22.0640   30.9310 H   0  0  0  0  0  0  0  0  0  0  0  0
   34.4520   23.7590   31.5110 H   0  0  0  0  0  0  0  0  0  0  0  0
   36.7720   27.5590   34.5920 C   0  0  0  0  0  3  0  0  0  0  0  0
   37.9390   27.5600   35.2200 C   0  0  0  0  0  3  0  0  0  0  0  0
   38.4380   26.7800   36.3670 C   0  0  0  0  0  0  0  0  0  0  0  0
   39.4630   27.0520   36.6750 H   0  0  0  0  0  0  0  0  0  0  0  0
   37.7880   27.0100   37.2410 H   0  0  0  0  0  0  0  0  0  0  0  0
   38.2980   25.3040   36.1330 C   0  0  0  0  0  0  0  0  0  0  0  0
   38.6610   24.7590   34.9220 C   0  0  0  0  0  0  0  0  0  0  0  0
   39.0550   25.3560   34.1020 H   0  0  0  0  0  0  0  0  0  0  0  0
   38.5380   23.3860   34.6810 C   0  0  0  0  0  3  0  0  0  0  0  0
   38.0330   22.6730   35.7520 C   0  0  0  0  0  0  0  0  0  0  0  0
   37.9300   21.5990   35.5830 H   0  0  0  0  0  0  0  0  0  0  0  0
   37.6530   23.1420   36.9750 C   0  0  0  0  0  0  0  0  0  0  0  0
   37.2720   22.4660   37.7280 H   0  0  0  0  0  0  0  0  0  0  0  0
   37.8090   24.5220   37.1320 C   0  0  0  0  0  3  0  0  0  0  0  0
  1  6  1  0  0  0  0
  2  3  1  0  0  0  0
  2  1  2  0  0  0  0
  3  4  2  0  0  0  0
  4  9  1  0  0  0  0
  4  5  1  0  0  0  0
  5 10  1  0  0  0  0
  6  5  2  0  0  0  0
  6 22  1  0  0  0  0
  7  2  1  0  0  0  0
  8  3  1  0  0  0  0
 11  1  1  0  0  0  0
 12 11  2  0  0  0  0
 13 14  2  0  0  0  0
 13 18  1  0  0  0  0
 14 15  1  0  0  0  0
 15 21  1  0  0  0  0
 15 16  2  0  0  0  0
 17 16  1  0  0  0  0
 17 11  1  0  0  0  0
 18 17  2  0  0  0  0
 19 13  1  0  0  0  0
 20 14  1  0  0  0  0
 22 23  2  0  0  0  0
 23 24  1  0  0  0  0
 24 25  1  0  0  0  0
 24 26  1  0  0  0  0
 27 24  1  0  0  0  0
 27 35  1  0  0  0  0
 28 27  2  0  0  0  0
 29 28  1  0  0  0  0
 30 28  1  0  0  0  0
 30 31  2  0  0  0  0
 31 33  1  0  0  0  0
 32 31  1  0  0  0  0
 33 35  2  0  0  0  0
 33 34  1  0  0  0  0
M  END
>  <minimizedAffinity>
-5.74896049

$$$$

 OpenBabel03272509413D

 35 37  0  0  0  0  0  0  0  0999 V2000
   35.8510   29.3270   32.6550 C   0  0  0  0  0  0  0  0  0  0  0  0
   35.8070   29.7290   31.3160 C   0  0  0  0  0  0  0  0  0  0  0  0
   36.5870   29.1300   30.3450 C   0  0  0  0  0  0  0  0  0  0  0  0
   37.4550   28.0890   30.6970 C   0  0  0  0  0  0  0  0  0  0  0  0
   37.4840   27.7090   32.0150 C   0  0  0  0  0  0  0  0  0  0  0  0
   36.6930   28.3220   32.9710 C   0  0  0  0  0  0  0  0  0  0  0  0
   35.1580   30.5270   30.9840 H   0  0  0  0  0  0  0  0  0  0  0  0
   36.5380   29.4560   29.3180 H   0  0  0  0  0  0  0  0  0  0  0  0
   38.0540   27.6400   29.9180 H   0  0  0  0  0  0  0  0  0  0  0  0
   38.1790   26.9000   32.1990 H   0  0  0  0  0  0  0  0  0  0  0  0
   34.9940   30.0140   33.6050 C   0  0  0  0  0  0  0  0  0  0  0  0
   35.4900   31.0910   34.0910 O   0  0  0  0  0  0  0  0  0  0  0  0
   31.6030   28.7910   33.2240 C   0  0  0  0  0  0  0  0  0  0  0  0
   31.1280   28.6860   34.5350 C   0  0  0  0  0  0  0  0  0  0  0  0
   31.9800   29.0380   35.5510 C   0  0  0  0  0  0  0  0  0  0  0  0
   33.2400   29.4720   35.2600 N   0  0  0  0  0  0  0  0  0  0  0  0
   33.6630   29.5610   34.0130 C   0  0  0  0  0  0  0  0  0  0  0  0
   32.8360   29.2190   33.0170 N   0  0  0  0  0  0  0  0  0  0  0  0
   30.8870   28.5000   32.4730 H   0  0  0  0  0  0  0  0  0  0  0  0
   30.1710   28.3630   34.8660 H   0  0  0  0  0  0  0  0  0  0  0  0
   31.7290   29.0000   36.5980 H   0  0  0  0  0  0  0  0  0  0  0  0
   36.8490   27.8020   34.3060 C   0  0  0  0  0  3  0  0  0  0  0  0
   37.9800   27.4060   34.8720 C   0  0  0  0  0  3  0  0  0  0  0  0
   38.2700   26.8640   36.2120 C   0  0  0  0  0  0  0  0  0  0  0  0
   39.2020   27.2550   36.6550 H   0  0  0  0  0  0  0  0  0  0  0  0
   37.4510   27.1860   36.8920 H   0  0  0  0  0  0  0  0  0  0  0  0
   38.2360   25.3620   36.2170 C   0  0  0  0  0  0  0  0  0  0  0  0
   38.5250   24.6600   35.0690 C   0  0  0  0  0  0  0  0  0  0  0  0
   38.7840   25.1470   34.1310 H   0  0  0  0  0  0  0  0  0  0  0  0
   38.4980   23.2620   35.0510 C   0  0  0  0  0  3  0  0  0  0  0  0
   38.1640   22.6930   36.2660 C   0  0  0  0  0  0  0  0  0  0  0  0
   38.1380   21.6010   36.2720 H   0  0  0  0  0  0  0  0  0  0  0  0
   37.8670   23.3200   37.4390 C   0  0  0  0  0  0  0  0  0  0  0  0
   37.6210   22.7460   38.3220 H   0  0  0  0  0  0  0  0  0  0  0  0
   37.9170   24.7160   37.3700 C   0  0  0  0  0  3  0  0  0  0  0  0
  1  6  1  0  0  0  0
  1 11  1  0  0  0  0
  2  1  2  0  0  0  0
  3  4  2  0  0  0  0
  3  2  1  0  0  0  0
  4  5  1  0  0  0  0
  5 10  1  0  0  0  0
  5  6  2  0  0  0  0
  6 22  1  0  0  0  0
  7  2  1  0  0  0  0
  8  3  1  0  0  0  0
  9  4  1  0  0  0  0
 11 17  1  0  0  0  0
 11 12  2  0  0  0  0
 13 14  1  0  0  0  0
 14 20  1  0  0  0  0
 14 15  2  0  0  0  0
 15 21  1  0  0  0  0
 16 15  1  0  0  0  0
 17 16  2  0  0  0  0
 18 13  2  0  0  0  0
 18 17  1  0  0  0  0
 19 13  1  0  0  0  0
 22 23  2  0  0  0  0
 23 24  1  0  0  0  0
 24 27  1  0  0  0  0
 24 25  1  0  0  0  0
 24 26  1  0  0  0  0
 27 35  1  0  0  0  0
 28 27  2  0  0  0  0
 29 28  1  0  0  0  0
 30 28  1  0  0  0  0
 30 31  2  0  0  0  0
 31 32  1  0  0  0  0
 31 33  1  0  0  0  0
 33 34  1  0  0  0  0
 35 33  2  0  0  0  0
M  END
>  <minimizedAffinity>
-5.74842453

$$$$

 OpenBabel03272509413D

 35 37  0  0  0  0  0  0  0  0999 V2000
   38.2730   24.5530   35.2520 C   0  0  0  0  0  0  0  0  0  0  0  0
   38.3940   25.5710   36.2030 C   0  0  0  0  0  0  0  0  0  0  0  0
   38.2110   26.9020   35.8790 C   0  0  0  0  0  0  0  0  0  0  0  0
   37.8960   27.2590   34.5620 C   0  0  0  0  0  0  0  0  0  0  0  0
   37.7820   26.2460   33.6440 C   0  0  0  0  0  0  0  0  0  0  0  0
   37.9690   24.9200   33.9910 C   0  0  0  0  0  0  0  0  0  0  0  0
   38.6350   25.3580   37.2360 H   0  0  0  0  0  0  0  0  0  0  0  0
   38.3090   27.6720   36.6280 H   0  0  0  0  0  0  0  0  0  0  0  0
   37.7590   28.3070   34.3380 H   0  0  0  0  0  0  0  0  0  0  0  0
   37.5370   26.6090   32.6540 H   0  0  0  0  0  0  0  0  0  0  0  0
   38.4820   23.1830   35.6850 C   0  0  0  0  0  0  0  0  0  0  0  0
   37.4080   22.5300   35.9350 O   0  0  0  0  0  0  0  0  0  0  0  0
   41.3010   21.6840   37.4020 C   0  0  0  0  0  0  0  0  0  0  0  0
   42.1890   21.3480   36.3740 C   0  0  0  0  0  0  0  0  0  0  0  0
   41.8130   21.6400   35.0880 C   0  0  0  0  0  0  0  0  0  0  0  0
   40.6100   22.2370   34.8520 N   0  0  0  0  0  0  0  0  0  0  0  0
   39.7910   22.5430   35.8410 C   0  0  0  0  0  0  0  0  0  0  0  0
   40.1520   22.2610   37.0990 N   0  0  0  0  0  0  0  0  0  0  0  0
   41.6550   21.4290   38.3870 H   0  0  0  0  0  0  0  0  0  0  0  0
   43.1420   20.8850   36.4520 H   0  0  0  0  0  0  0  0  0  0  0  0
   42.4090   21.4300   34.2160 H   0  0  0  0  0  0  0  0  0  0  0  0
   37.8140   23.9850   32.9040 C   0  0  0  0  0  3  0  0  0  0  0  0
   36.6910   23.7010   32.2620 C   0  0  0  0  0  3  0  0  0  0  0  0
   36.4020   22.7800   31.1480 C   0  0  0  0  0  0  0  0  0  0  0  0
   35.6100   23.1410   30.4690 H   0  0  0  0  0  0  0  0  0  0  0  0
   37.3220   22.7010   30.5260 H   0  0  0  0  0  0  0  0  0  0  0  0
   36.1240   21.3890   31.6410 C   0  0  0  0  0  0  0  0  0  0  0  0
   36.3380   20.3070   30.8170 C   0  0  0  0  0  0  0  0  0  0  0  0
   36.7080   20.4080   29.7990 H   0  0  0  0  0  0  0  0  0  0  0  0
   36.0860   19.0030   31.2560 C   0  0  0  0  0  3  0  0  0  0  0  0
   35.6190   18.9300   32.5550 C   0  0  0  0  0  0  0  0  0  0  0  0
   35.4170   17.9190   32.9150 H   0  0  0  0  0  0  0  0  0  0  0  0
   35.3840   19.9520   33.4260 C   0  0  0  0  0  0  0  0  0  0  0  0
   35.0150   19.7500   34.4220 H   0  0  0  0  0  0  0  0  0  0  0  0
   35.6620   21.2210   32.9080 C   0  0  0  0  0  3  0  0  0  0  0  0
  1 11  1  0  0  0  0
  1  2  1  0  0  0  0
  2  7  1  0  0  0  0
  3  2  2  0  0  0  0
  3  8  1  0  0  0  0
  4  3  1  0  0  0  0
  5  6  1  0  0  0  0
  5  4  2  0  0  0  0
  6  1  2  0  0  0  0
  9  4  1  0  0  0  0
 10  5  1  0  0  0  0
 11 17  1  0  0  0  0
 11 12  2  0  0  0  0
 13 19  1  0  0  0  0
 14 20  1  0  0  0  0
 14 13  2  0  0  0  0
 15 14  1  0  0  0  0
 16 15  2  0  0  0  0
 16 17  1  0  0  0  0
 17 18  2  0  0  0  0
 18 13  1  0  0  0  0
 21 15  1  0  0  0  0
 22  6  1  0  0  0  0
 23 22  2  0  0  0  0
 24 27  1  0  0  0  0
 24 23  1  0  0  0  0
 25 24  1  0  0  0  0
 26 24  1  0  0  0  0
 27 35  1  0  0  0  0
 28 30  1  0  0  0  0
 28 27  2  0  0  0  0
 29 28  1  0  0  0  0
 30 31  2  0  0  0  0
 31 32  1  0  0  0  0
 31 33  1  0  0  0  0
 33 34  1  0  0  0  0
 35 33  2  0  0  0  0
M  END
>  <minimizedAffinity>
-5.73148775

$$$$

 OpenBabel03272509413D

 35 37  0  0  0  0  0  0  0  0999 V2000
   37.4960   22.0160   33.4420 C   0  0  0  0  0  0  0  0  0  0  0  0
   36.6930   20.8720   33.4530 C   0  0  0  0  0  0  0  0  0  0  0  0
   35.5590   20.7650   32.6710 C   0  0  0  0  0  0  0  0  0  0  0  0
   35.1890   21.8270   31.8370 C   0  0  0  0  0  0  0  0  0  0  0  0
   35.9900   22.9410   31.8400 C   0  0  0  0  0  0  0  0  0  0  0  0
   37.1210   23.0260   32.6320 C   0  0  0  0  0  0  0  0  0  0  0  0
   36.9270   20.0190   34.0770 H   0  0  0  0  0  0  0  0  0  0  0  0
   34.9530   19.8730   32.6940 H   0  0  0  0  0  0  0  0  0  0  0  0
   34.2980   21.7160   31.2360 H   0  0  0  0  0  0  0  0  0  0  0  0
   35.6330   23.7110   31.1690 H   0  0  0  0  0  0  0  0  0  0  0  0
   38.6700   22.0390   34.2980 C   0  0  0  0  0  0  0  0  0  0  0  0
   39.7430   21.6080   33.7460 O   0  0  0  0  0  0  0  0  0  0  0  0
   39.9970   22.6590   37.6140 C   0  0  0  0  0  0  0  0  0  0  0  0
   38.9480   23.2910   38.2890 C   0  0  0  0  0  0  0  0  0  0  0  0
   37.7820   23.5020   37.5990 C   0  0  0  0  0  0  0  0  0  0  0  0
   37.6800   23.0980   36.3000 N   0  0  0  0  0  0  0  0  0  0  0  0
   38.6860   22.5040   35.6860 C   0  0  0  0  0  0  0  0  0  0  0  0
   39.8270   22.2950   36.3550 N   0  0  0  0  0  0  0  0  0  0  0  0
   40.8840   22.5220   38.2100 H   0  0  0  0  0  0  0  0  0  0  0  0
   38.9260   23.6400   39.2930 H   0  0  0  0  0  0  0  0  0  0  0  0
   36.9070   23.9770   38.0110 H   0  0  0  0  0  0  0  0  0  0  0  0
   37.8460   24.2670   32.5150 C   0  0  0  0  0  3  0  0  0  0  0  0
   37.5120   25.4300   33.0530 C   0  0  0  0  0  3  0  0  0  0  0  0
   38.1590   26.7550   33.0110 C   0  0  0  0  0  0  0  0  0  0  0  0
   38.9500   26.8850   33.7700 H   0  0  0  0  0  0  0  0  0  0  0  0
   38.6650   26.8530   32.0250 H   0  0  0  0  0  0  0  0  0  0  0  0
   37.1480   27.8630   33.0610 C   0  0  0  0  0  0  0  0  0  0  0  0
   36.5380   28.1890   34.2520 C   0  0  0  0  0  0  0  0  0  0  0  0
   36.7540   27.6720   35.1840 H   0  0  0  0  0  0  0  0  0  0  0  0
   35.5930   29.2180   34.3210 C   0  0  0  0  0  3  0  0  0  0  0  0
   35.3530   29.8420   33.1110 C   0  0  0  0  0  0  0  0  0  0  0  0
   34.6180   30.6480   33.1460 H   0  0  0  0  0  0  0  0  0  0  0  0
   35.9170   29.5750   31.8980 C   0  0  0  0  0  0  0  0  0  0  0  0
   35.6350   30.1470   31.0250 H   0  0  0  0  0  0  0  0  0  0  0  0
   36.8500   28.5340   31.9170 C   0  0  0  0  0  3  0  0  0  0  0  0
  1  2  1  0  0  0  0
  1 11  1  0  0  0  0
  2  7  1  0  0  0  0
  3  8  1  0  0  0  0
  3  2  2  0  0  0  0
  4  5  2  0  0  0  0
  4  3  1  0  0  0  0
  5  6  1  0  0  0  0
  6  1  2  0  0  0  0
  9  4  1  0  0  0  0
 10  5  1  0  0  0  0
 11 17  1  0  0  0  0
 12 11  2  0  0  0  0
 13 19  1  0  0  0  0
 13 14  1  0  0  0  0
 14 20  1  0  0  0  0
 15 21  1  0  0  0  0
 15 14  2  0  0  0  0
 16 15  1  0  0  0  0
 17 16  2  0  0  0  0
 17 18  1  0  0  0  0
 18 13  2  0  0  0  0
 22  6  1  0  0  0  0
 22 23  2  0  0  0  0
 24 23  1  0  0  0  0
 24 27  1  0  0  0  0
 24 25  1  0  0  0  0
 26 24  1  0  0  0  0
 27 28  1  0  0  0  0
 28 30  2  0  0  0  0
 28 29  1  0  0  0  0
 31 32  1  0  0  0  0
 31 30  1  0  0  0  0
 33 35  1  0  0  0  0
 33 31  2  0  0  0  0
 34 33  1  0  0  0  0
 35 27  2  0  0  0  0
M  END
>  <minimizedAffinity>
-5.70743799

$$$$

 OpenBabel03272509413D

 35 37  0  0  0  0  0  0  0  0999 V2000
   36.3070   28.0220   32.2770 C   0  0  0  0  0  0  0  0  0  0  0  0
   35.3590   29.0490   32.2780 C   0  0  0  0  0  0  0  0  0  0  0  0
   35.0420   29.7520   33.4250 C   0  0  0  0  0  0  0  0  0  0  0  0
   35.6810   29.4380   34.6310 C   0  0  0  0  0  0  0  0  0  0  0  0
   36.6090   28.4270   34.6090 C   0  0  0  0  0  0  0  0  0  0  0  0
   36.9100   27.7360   33.4490 C   0  0  0  0  0  0  0  0  0  0  0  0
   34.8320   29.3370   31.3790 H   0  0  0  0  0  0  0  0  0  0  0  0
   34.3060   30.5410   33.4040 H   0  0  0  0  0  0  0  0  0  0  0  0
   35.4130   30.0030   35.5120 H   0  0  0  0  0  0  0  0  0  0  0  0
   37.0530   28.2500   35.5800 H   0  0  0  0  0  0  0  0  0  0  0  0
   36.5760   27.3380   31.0240 C   0  0  0  0  0  0  0  0  0  0  0  0
   35.9160   26.2530   30.8540 O   0  0  0  0  0  0  0  0  0  0  0  0
   39.6520   27.4950   29.1120 C   0  0  0  0  0  0  0  0  0  0  0  0
   39.4200   28.5040   28.1730 C   0  0  0  0  0  0  0  0  0  0  0  0
   38.2000   29.1320   28.2000 C   0  0  0  0  0  0  0  0  0  0  0  0
   37.2670   28.7610   29.1240 N   0  0  0  0  0  0  0  0  0  0  0  0
   37.5130   27.8040   29.9990 C   0  0  0  0  0  0  0  0  0  0  0  0
   38.7010   27.1880   29.9770 N   0  0  0  0  0  0  0  0  0  0  0  0
   40.6270   27.0420   29.0380 H   0  0  0  0  0  0  0  0  0  0  0  0
   40.0750   28.8660   27.4180 H   0  0  0  0  0  0  0  0  0  0  0  0
   37.9050   29.9210   27.5300 H   0  0  0  0  0  0  0  0  0  0  0  0
   37.9060   26.7050   33.6030 C   0  0  0  0  0  3  0  0  0  0  0  0
   37.7690   25.5690   34.2710 C   0  0  0  0  0  3  0  0  0  0  0  0
   38.6960   24.4460   34.5010 C   0  0  0  0  0  0  0  0  0  0  0  0
   38.4950   23.5680   33.8620 H   0  0  0  0  0  0  0  0  0  0  0  0
   39.7190   24.7910   34.2300 H   0  0  0  0  0  0  0  0  0  0  0  0
   38.7630   24.0760   35.9550 C   0  0  0  0  0  0  0  0  0  0  0  0
   37.8770   24.6300   36.8510 C   0  0  0  0  0  0  0  0  0  0  0  0
   37.1090   25.3410   36.5550 H   0  0  0  0  0  0  0  0  0  0  0  0
   37.9210   24.3000   38.2090 C   0  0  0  0  0  3  0  0  0  0  0  0
   38.9140   23.3930   38.5330 C   0  0  0  0  0  0  0  0  0  0  0  0
   38.9640   23.1230   39.5900 H   0  0  0  0  0  0  0  0  0  0  0  0
   39.8230   22.8050   37.7040 C   0  0  0  0  0  0  0  0  0  0  0  0
   40.5510   22.1070   38.0950 H   0  0  0  0  0  0  0  0  0  0  0  0
   39.7090   23.1890   36.3650 C   0  0  0  0  0  3  0  0  0  0  0  0
  1  2  2  0  0  0  0
  1  6  1  0  0  0  0
  2  3  1  0  0  0  0
  3  4  2  0  0  0  0
  4  9  1  0  0  0  0
  5  4  1  0  0  0  0
  5 10  1  0  0  0  0
  6 22  1  0  0  0  0
  6  5  2  0  0  0  0
  7  2  1  0  0  0  0
  8  3  1  0  0  0  0
 11  1  1  0  0  0  0
 12 11  2  0  0  0  0
 13 18  1  0  0  0  0
 14 15  1  0  0  0  0
 14 13  2  0  0  0  0
 15 16  2  0  0  0  0
 16 17  1  0  0  0  0
 17 11  1  0  0  0  0
 18 17  2  0  0  0  0
 19 13  1  0  0  0  0
 20 14  1  0  0  0  0
 21 15  1  0  0  0  0
 22 23  2  0  0  0  0
 23 24  1  0  0  0  0
 24 27  1  0  0  0  0
 25 24  1  0  0  0  0
 26 24  1  0  0  0  0
 27 35  2  0  0  0  0
 27 28  1  0  0  0  0
 28 30  2  0  0  0  0
 29 28  1  0  0  0  0
 30 31  1  0  0  0  0
 31 32  1  0  0  0  0
 33 34  1  0  0  0  0
 33 31  2  0  0  0  0
 35 33  1  0  0  0  0
M  END
>  <minimizedAffinity>
-5.63955402

$$$$

 OpenBabel03272509413D

 35 37  0  0  0  0  0  0  0  0999 V2000
   37.0950   27.6200   31.5560 C   0  0  0  0  0  0  0  0  0  0  0  0
   38.2250   27.6350   30.7320 C   0  0  0  0  0  0  0  0  0  0  0  0
   38.4840   28.6770   29.8630 C   0  0  0  0  0  0  0  0  0  0  0  0
   37.5970   29.7580   29.7920 C   0  0  0  0  0  0  0  0  0  0  0  0
   36.4940   29.7250   30.6080 C   0  0  0  0  0  0  0  0  0  0  0  0
   36.2540   28.6700   31.4710 C   0  0  0  0  0  0  0  0  0  0  0  0
   38.9460   26.8290   30.7420 H   0  0  0  0  0  0  0  0  0  0  0  0
   39.3620   28.6690   29.2360 H   0  0  0  0  0  0  0  0  0  0  0  0
   37.8240   30.5590   29.1030 H   0  0  0  0  0  0  0  0  0  0  0  0
   35.8630   30.5960   30.4890 H   0  0  0  0  0  0  0  0  0  0  0  0
   36.9050   26.4820   32.4380 C   0  0  0  0  0  0  0  0  0  0  0  0
   36.2080   25.5290   31.9410 O   0  0  0  0  0  0  0  0  0  0  0  0
   38.2580   24.8790   35.3950 C   0  0  0  0  0  0  0  0  0  0  0  0
   38.4650   25.9330   36.2900 C   0  0  0  0  0  0  0  0  0  0  0  0
   38.1370   27.1980   35.8730 C   0  0  0  0  0  0  0  0  0  0  0  0
   37.6280   27.3880   34.6220 N   0  0  0  0  0  0  0  0  0  0  0  0
   37.4430   26.3750   33.7960 C   0  0  0  0  0  0  0  0  0  0  0  0
   37.7620   25.1380   34.1980 N   0  0  0  0  0  0  0  0  0  0  0  0
   38.5360   23.9130   35.7820 H   0  0  0  0  0  0  0  0  0  0  0  0
   38.8520   25.8910   37.2790 H   0  0  0  0  0  0  0  0  0  0  0  0
   38.2500   28.0860   36.4710 H   0  0  0  0  0  0  0  0  0  0  0  0
   35.0500   28.7940   32.2530 C   0  0  0  0  0  3  0  0  0  0  0  0
   34.9260   29.4140   33.4180 C   0  0  0  0  0  3  0  0  0  0  0  0
   33.7670   29.6120   34.3080 C   0  0  0  0  0  0  0  0  0  0  0  0
   32.8220   29.7990   33.7680 H   0  0  0  0  0  0  0  0  0  0  0  0
   33.6110   28.6670   34.8740 H   0  0  0  0  0  0  0  0  0  0  0  0
   34.0400   30.6660   35.3420 C   0  0  0  0  0  0  0  0  0  0  0  0
   33.0790   30.9830   36.2760 C   0  0  0  0  0  0  0  0  0  0  0  0
   32.1060   30.4980   36.3060 H   0  0  0  0  0  0  0  0  0  0  0  0
   33.3110   31.9610   37.2470 C   0  0  0  0  0  3  0  0  0  0  0  0
   34.5610   32.5470   37.1650 C   0  0  0  0  0  0  0  0  0  0  0  0
   34.7610   33.3140   37.9170 H   0  0  0  0  0  0  0  0  0  0  0  0
   35.5590   32.2860   36.2730 C   0  0  0  0  0  0  0  0  0  0  0  0
   36.4950   32.8230   36.3250 H   0  0  0  0  0  0  0  0  0  0  0  0
   35.2450   31.2950   35.3380 C   0  0  0  0  0  3  0  0  0  0  0  0
  1 11  1  0  0  0  0
  2  7  1  0  0  0  0
  2  1  2  0  0  0  0
  3  2  1  0  0  0  0
  4  3  2  0  0  0  0
  4  5  1  0  0  0  0
  5  6  2  0  0  0  0
  6  1  1  0  0  0  0
  6 22  1  0  0  0  0
  8  3  1  0  0  0  0
  9  4  1  0  0  0  0
 10  5  1  0  0  0  0
 11 17  1  0  0  0  0
 12 11  2  0  0  0  0
 13 19  1  0  0  0  0
 13 14  1  0  0  0  0
 14 20  1  0  0  0  0
 15 14  2  0  0  0  0
 15 21  1  0  0  0  0
 16 15  1  0  0  0  0
 17 18  1  0  0  0  0
 17 16  2  0  0  0  0
 18 13  2  0  0  0  0
 22 23  2  0  0  0  0
 23 24  1  0  0  0  0
 24 26  1  0  0  0  0
 24 27  1  0  0  0  0
 25 24  1  0  0  0  0
 27 28  1  0  0  0  0
 28 29  1  0  0  0  0
 28 30  2  0  0  0  0
 31 30  1  0  0  0  0
 31 32  1  0  0  0  0
 33 34  1  0  0  0  0
 33 31  2  0  0  0  0
 35 27  2  0  0  0  0
 35 33  1  0  0  0  0
M  END
>  <minimizedAffinity>
-5.61159801

$$$$

 OpenBabel03272509413D

 35 37  0  0  0  0  0  0  0  0999 V2000
   40.4750   22.4810   36.2810 C   0  0  0  0  0  0  0  0  0  0  0  0
   40.9420   21.4300   37.0770 C   0  0  0  0  0  0  0  0  0  0  0  0
   42.2690   21.0430   37.0750 C   0  0  0  0  0  0  0  0  0  0  0  0
   43.1850   21.7120   36.2550 C   0  0  0  0  0  0  0  0  0  0  0  0
   42.7080   22.7400   35.4810 C   0  0  0  0  0  0  0  0  0  0  0  0
   41.3750   23.1110   35.4990 C   0  0  0  0  0  0  0  0  0  0  0  0
   40.2820   20.8760   37.7310 H   0  0  0  0  0  0  0  0  0  0  0  0
   42.6080   20.2300   37.6970 H   0  0  0  0  0  0  0  0  0  0  0  0
   44.2160   21.3880   36.2730 H   0  0  0  0  0  0  0  0  0  0  0  0
   43.4810   23.2010   34.8800 H   0  0  0  0  0  0  0  0  0  0  0  0
   39.0640   22.8180   36.3500 C   0  0  0  0  0  0  0  0  0  0  0  0
   38.7800   23.7740   37.1540 O   0  0  0  0  0  0  0  0  0  0  0  0
   37.3470   21.4980   33.4420 C   0  0  0  0  0  0  0  0  0  0  0  0
   36.1660   20.9560   33.9590 C   0  0  0  0  0  0  0  0  0  0  0  0
   35.9630   21.0470   35.3130 C   0  0  0  0  0  0  0  0  0  0  0  0
   36.8990   21.6510   36.1000 N   0  0  0  0  0  0  0  0  0  0  0  0
   38.0050   22.1540   35.5860 C   0  0  0  0  0  0  0  0  0  0  0  0
   38.2100   22.0680   34.2650 N   0  0  0  0  0  0  0  0  0  0  0  0
   37.4470   21.3940   32.3740 H   0  0  0  0  0  0  0  0  0  0  0  0
   35.3800   20.4700   33.4350 H   0  0  0  0  0  0  0  0  0  0  0  0
   35.0950   20.6690   35.8250 H   0  0  0  0  0  0  0  0  0  0  0  0
   41.0430   24.2080   34.6250 C   0  0  0  0  0  3  0  0  0  0  0  0
   41.2510   25.4950   34.8610 C   0  0  0  0  0  3  0  0  0  0  0  0
   40.9630   26.6990   34.0600 C   0  0  0  0  0  0  0  0  0  0  0  0
   41.5970   27.5650   34.3190 H   0  0  0  0  0  0  0  0  0  0  0  0
   41.1950   26.4620   32.9970 H   0  0  0  0  0  0  0  0  0  0  0  0
   39.5030   27.0450   34.0900 C   0  0  0  0  0  0  0  0  0  0  0  0
   38.7760   27.0820   32.9220 C   0  0  0  0  0  0  0  0  0  0  0  0
   39.2150   26.8670   31.9490 H   0  0  0  0  0  0  0  0  0  0  0  0
   37.4150   27.4020   32.9270 C   0  0  0  0  0  3  0  0  0  0  0  0
   36.9060   27.6660   34.1850 C   0  0  0  0  0  0  0  0  0  0  0  0
   35.8440   27.9180   34.2090 H   0  0  0  0  0  0  0  0  0  0  0  0
   37.5610   27.6500   35.3810 C   0  0  0  0  0  0  0  0  0  0  0  0
   37.0360   27.8780   36.2980 H   0  0  0  0  0  0  0  0  0  0  0  0
   38.9170   27.3200   35.2860 C   0  0  0  0  0  3  0  0  0  0  0  0
  1 11  1  0  0  0  0
  1  2  1  0  0  0  0
  2  7  1  0  0  0  0
  3  2  2  0  0  0  0
  3  8  1  0  0  0  0
  4  9  1  0  0  0  0
  4  3  1  0  0  0  0
  5  6  1  0  0  0  0
  5  4  2  0  0  0  0
  6  1  2  0  0  0  0
 10  5  1  0  0  0  0
 11 12  2  0  0  0  0
 13 14  2  0  0  0  0
 13 18  1  0  0  0  0
 14 15  1  0  0  0  0
 15 21  1  0  0  0  0
 15 16  2  0  0  0  0
 17 16  1  0  0  0  0
 17 11  1  0  0  0  0
 18 17  2  0  0  0  0
 19 13  1  0  0  0  0
 20 14  1  0  0  0  0
 22 23  2  0  0  0  0
 22  6  1  0  0  0  0
 24 27  1  0  0  0  0
 24 25  1  0  0  0  0
 24 23  1  0  0  0  0
 26 24  1  0  0  0  0
 27 35  1  0  0  0  0
 28 30  1  0  0  0  0
 28 27  2  0  0  0  0
 29 28  1  0  0  0  0
 30 31  2  0  0  0  0
 31 32  1  0  0  0  0
 31 33  1  0  0  0  0
 33 34  1  0  0  0  0
 35 33  2  0  0  0  0
M  END
>  <minimizedAffinity>
-5.60888958

$$$$
