
 OpenBabel03272509253D

 24 25  0  0  0  0  0  0  0  0999 V2000
   37.7250   25.7190   35.7230 C   0  0  0  0  0  0  0  0  0  0  0  0
   36.7090   25.9130   36.1180 H   0  0  0  0  0  0  0  0  0  0  0  0
   37.7190   25.3210   34.6930 H   0  0  0  0  0  0  0  0  0  0  0  0
   38.7190   23.3850   38.5420 C   0  0  0  0  0  0  0  0  0  0  0  0
   38.0140   24.4010   37.8600 C   0  0  0  0  0  0  0  0  0  0  0  0
   38.3810   24.6780   36.5540 C   0  0  0  0  0  0  0  0  0  0  0  0
   39.4050   23.9600   35.9850 N   0  0  0  0  0  0  0  0  0  0  0  0
   40.0530   22.9970   36.6750 C   0  0  0  0  0  0  0  0  0  0  0  0
   39.7150   22.7060   37.9510 N   0  0  0  0  0  0  0  0  0  0  0  0
   38.4130   23.1830   39.5680 H   0  0  0  0  0  0  0  0  0  0  0  0
   37.2090   24.9620   38.3120 H   0  0  0  0  0  0  0  0  0  0  0  0
   40.8440   22.4540   36.2120 H   0  0  0  0  0  0  0  0  0  0  0  0
   38.5120   27.0200   35.7990 C   0  0  0  0  0  0  0  0  0  0  0  0
   39.2370   27.0360   36.6100 H   0  0  0  0  0  0  0  0  0  0  0  0
   37.7920   27.8590   35.8340 H   0  0  0  0  0  0  0  0  0  0  0  0
   39.2930   27.0700   34.5180 C   0  0  0  0  0  0  0  0  0  0  0  0
   38.6050   27.1280   33.3040 C   0  0  0  0  0  0  0  0  0  0  0  0
   37.5250   27.1360   33.3420 H   0  0  0  0  0  0  0  0  0  0  0  0
   39.2120   27.1780   32.0750 C   0  0  0  0  0  3  0  0  0  0  0  0
   40.5910   27.1670   32.0510 C   0  0  0  0  0  0  0  0  0  0  0  0
   41.0530   27.2060   31.0790 H   0  0  0  0  0  0  0  0  0  0  0  0
   41.3240   27.1090   33.2320 C   0  0  0  0  0  0  0  0  0  0  0  0
   42.3820   27.1040   33.1460 H   0  0  0  0  0  0  0  0  0  0  0  0
   40.6630   27.0610   34.4390 C   0  0  0  0  0  3  0  0  0  0  0  0
  1 13  1  0  0  0  0
  1  2  1  0  0  0  0
  1  6  1  0  0  0  0
  3  1  1  0  0  0  0
  4 10  1  0  0  0  0
  5 11  1  0  0  0  0
  5  4  2  0  0  0  0
  6  5  1  0  0  0  0
  7  6  2  0  0  0  0
  7  8  1  0  0  0  0
  8  9  2  0  0  0  0
  9  4  1  0  0  0  0
 12  8  1  0  0  0  0
 13 15  1  0  0  0  0
 13 14  1  0  0  0  0
 16 13  1  0  0  0  0
 17 18  1  0  0  0  0
 17 16  2  0  0  0  0
 19 17  1  0  0  0  0
 20 19  2  0  0  0  0
 20 22  1  0  0  0  0
 21 20  1  0  0  0  0
 22 24  2  0  0  0  0
 23 22  1  0  0  0  0
 24 16  1  0  0  0  0
M  END
>  <minimizedAffinity>
-4.50344944

$$$$

 OpenBabel03272509253D

 24 25  0  0  0  0  0  0  0  0999 V2000
   37.8590   26.1230   34.8810 C   0  0  0  0  0  0  0  0  0  0  0  0
   37.1290   25.9900   35.7030 H   0  0  0  0  0  0  0  0  0  0  0  0
   38.5800   26.9360   35.0720 H   0  0  0  0  0  0  0  0  0  0  0  0
   36.0440   28.0370   32.1570 C   0  0  0  0  0  0  0  0  0  0  0  0
   36.7250   27.8040   33.3710 C   0  0  0  0  0  0  0  0  0  0  0  0
   37.1350   26.5090   33.6430 C   0  0  0  0  0  0  0  0  0  0  0  0
   36.8640   25.5200   32.7290 N   0  0  0  0  0  0  0  0  0  0  0  0
   36.2090   25.7890   31.5790 C   0  0  0  0  0  0  0  0  0  0  0  0
   35.7970   27.0440   31.2890 N   0  0  0  0  0  0  0  0  0  0  0  0
   35.7310   29.0630   31.9630 H   0  0  0  0  0  0  0  0  0  0  0  0
   36.9360   28.5850   34.0870 H   0  0  0  0  0  0  0  0  0  0  0  0
   36.0110   25.0050   30.8860 H   0  0  0  0  0  0  0  0  0  0  0  0
   38.5760   24.7960   34.6740 C   0  0  0  0  0  0  0  0  0  0  0  0
   39.5740   24.9090   34.2560 H   0  0  0  0  0  0  0  0  0  0  0  0
   37.9190   24.1360   34.0770 H   0  0  0  0  0  0  0  0  0  0  0  0
   38.7460   24.2340   36.0560 C   0  0  0  0  0  0  0  0  0  0  0  0
   37.8740   24.6420   37.0670 C   0  0  0  0  0  0  0  0  0  0  0  0
   37.1030   25.3530   36.8060 H   0  0  0  0  0  0  0  0  0  0  0  0
   37.9340   24.1950   38.3640 C   0  0  0  0  0  3  0  0  0  0  0  0
   38.9250   23.2870   38.6740 C   0  0  0  0  0  0  0  0  0  0  0  0
   38.9590   22.9470   39.6940 H   0  0  0  0  0  0  0  0  0  0  0  0
   39.8190   22.8500   37.7030 C   0  0  0  0  0  0  0  0  0  0  0  0
   40.5590   22.1500   38.0050 H   0  0  0  0  0  0  0  0  0  0  0  0
   39.7140   23.3300   36.4160 C   0  0  0  0  0  3  0  0  0  0  0  0
  1  3  1  0  0  0  0
  1  2  1  0  0  0  0
  4  5  1  0  0  0  0
  5  6  2  0  0  0  0
  5 11  1  0  0  0  0
  6  1  1  0  0  0  0
  7  6  1  0  0  0  0
  8  7  2  0  0  0  0
  9  8  1  0  0  0  0
  9  4  2  0  0  0  0
 10  4  1  0  0  0  0
 12  8  1  0  0  0  0
 13  1  1  0  0  0  0
 13 16  1  0  0  0  0
 14 13  1  0  0  0  0
 15 13  1  0  0  0  0
 16 24  2  0  0  0  0
 16 17  1  0  0  0  0
 17 19  2  0  0  0  0
 18 17  1  0  0  0  0
 19 20  1  0  0  0  0
 20 21  1  0  0  0  0
 22 23  1  0  0  0  0
 22 20  2  0  0  0  0
 24 22  1  0  0  0  0
M  END
>  <minimizedAffinity>
-4.38695145

$$$$

 OpenBabel03272509253D

 24 25  0  0  0  0  0  0  0  0999 V2000
   39.2790   24.9730   34.7820 C   0  0  0  0  0  0  0  0  0  0  0  0
   38.3430   24.8740   34.2000 H   0  0  0  0  0  0  0  0  0  0  0  0
   40.1300   24.4400   34.3250 H   0  0  0  0  0  0  0  0  0  0  0  0
   37.9950   24.0450   38.2280 C   0  0  0  0  0  0  0  0  0  0  0  0
   38.0640   24.7090   36.9830 C   0  0  0  0  0  0  0  0  0  0  0  0
   39.0880   24.3560   36.1200 C   0  0  0  0  0  0  0  0  0  0  0  0
   39.9810   23.3880   36.5080 N   0  0  0  0  0  0  0  0  0  0  0  0
   39.8770   22.7790   37.7090 C   0  0  0  0  0  0  0  0  0  0  0  0
   38.8880   23.1040   38.5710 N   0  0  0  0  0  0  0  0  0  0  0  0
   37.1820   24.3380   38.8910 H   0  0  0  0  0  0  0  0  0  0  0  0
   37.3590   25.4700   36.6820 H   0  0  0  0  0  0  0  0  0  0  0  0
   40.5820   22.0310   37.9870 H   0  0  0  0  0  0  0  0  0  0  0  0
   39.5820   26.4570   34.9310 C   0  0  0  0  0  0  0  0  0  0  0  0
   40.4770   26.7680   34.3950 H   0  0  0  0  0  0  0  0  0  0  0  0
   39.6070   26.7000   36.0100 H   0  0  0  0  0  0  0  0  0  0  0  0
   38.4230   27.1520   34.2780 C   0  0  0  0  0  0  0  0  0  0  0  0
   38.3880   27.2530   32.8850 C   0  0  0  0  0  0  0  0  0  0  0  0
   39.2080   26.8180   32.3320 H   0  0  0  0  0  0  0  0  0  0  0  0
   37.3800   27.8640   32.1810 C   0  0  0  0  0  3  0  0  0  0  0  0
   36.3440   28.4110   32.9080 C   0  0  0  0  0  0  0  0  0  0  0  0
   35.5610   28.8860   32.3430 H   0  0  0  0  0  0  0  0  0  0  0  0
   36.3320   28.3370   34.2970 C   0  0  0  0  0  0  0  0  0  0  0  0
   35.5050   28.7770   34.7990 H   0  0  0  0  0  0  0  0  0  0  0  0
   37.3680   27.7120   34.9540 C   0  0  0  0  0  3  0  0  0  0  0  0
  1 13  1  0  0  0  0
  1  6  1  0  0  0  0
  2  1  1  0  0  0  0
  3  1  1  0  0  0  0
  4  9  1  0  0  0  0
  4 10  1  0  0  0  0
  5  4  2  0  0  0  0
  6  7  2  0  0  0  0
  6  5  1  0  0  0  0
  7  8  1  0  0  0  0
  8 12  1  0  0  0  0
  8  9  2  0  0  0  0
 11  5  1  0  0  0  0
 13 15  1  0  0  0  0
 14 13  1  0  0  0  0
 16 13  1  0  0  0  0
 16 24  1  0  0  0  0
 17 16  2  0  0  0  0
 18 17  1  0  0  0  0
 19 17  1  0  0  0  0
 19 20  2  0  0  0  0
 20 22  1  0  0  0  0
 21 20  1  0  0  0  0
 22 23  1  0  0  0  0
 22 24  2  0  0  0  0
M  END
>  <minimizedAffinity>
-4.37188101

$$$$

 OpenBabel03272509253D

 24 25  0  0  0  0  0  0  0  0999 V2000
   38.6810   26.9840   35.6510 C   0  0  0  0  0  0  0  0  0  0  0  0
   38.0830   27.9010   35.8140 H   0  0  0  0  0  0  0  0  0  0  0  0
   39.4770   26.8470   36.4030 H   0  0  0  0  0  0  0  0  0  0  0  0
   41.2900   27.1950   32.9060 C   0  0  0  0  0  0  0  0  0  0  0  0
   40.7540   27.0990   34.2090 C   0  0  0  0  0  0  0  0  0  0  0  0
   39.3760   27.0810   34.3420 C   0  0  0  0  0  0  0  0  0  0  0  0
   38.5990   27.1560   33.2120 N   0  0  0  0  0  0  0  0  0  0  0  0
   39.1540   27.2470   31.9840 C   0  0  0  0  0  0  0  0  0  0  0  0
   40.4960   27.2670   31.8260 N   0  0  0  0  0  0  0  0  0  0  0  0
   42.3760   27.2070   32.8250 H   0  0  0  0  0  0  0  0  0  0  0  0
   41.3700   27.0400   35.0950 H   0  0  0  0  0  0  0  0  0  0  0  0
   38.5300   27.3050   31.1230 H   0  0  0  0  0  0  0  0  0  0  0  0
   37.7260   25.7990   35.6480 C   0  0  0  0  0  0  0  0  0  0  0  0
   37.5360   25.4030   34.6520 H   0  0  0  0  0  0  0  0  0  0  0  0
   36.8060   26.0930   36.1880 H   0  0  0  0  0  0  0  0  0  0  0  0
   38.4460   24.7250   36.4110 C   0  0  0  0  0  0  0  0  0  0  0  0
   38.0590   24.4500   37.7250 C   0  0  0  0  0  0  0  0  0  0  0  0
   37.2460   25.0300   38.1380 H   0  0  0  0  0  0  0  0  0  0  0  0
   38.6440   23.4930   38.5160 C   0  0  0  0  0  3  0  0  0  0  0  0
   39.6790   22.7650   37.9670 C   0  0  0  0  0  0  0  0  0  0  0  0
   40.1270   22.0190   38.6000 H   0  0  0  0  0  0  0  0  0  0  0  0
   40.1020   23.0010   36.6630 C   0  0  0  0  0  0  0  0  0  0  0  0
   40.9030   22.4070   36.2980 H   0  0  0  0  0  0  0  0  0  0  0  0
   39.4800   23.9740   35.9120 C   0  0  0  0  0  3  0  0  0  0  0  0
  1  2  1  0  0  0  0
  1  3  1  0  0  0  0
  4  5  1  0  0  0  0
  5  6  2  0  0  0  0
  5 11  1  0  0  0  0
  6  1  1  0  0  0  0
  7  6  1  0  0  0  0
  8  7  2  0  0  0  0
  9  8  1  0  0  0  0
  9  4  2  0  0  0  0
 10  4  1  0  0  0  0
 12  8  1  0  0  0  0
 13  1  1  0  0  0  0
 13 15  1  0  0  0  0
 13 16  1  0  0  0  0
 14 13  1  0  0  0  0
 16 17  1  0  0  0  0
 17 18  1  0  0  0  0
 17 19  2  0  0  0  0
 20 19  1  0  0  0  0
 20 21  1  0  0  0  0
 22 20  2  0  0  0  0
 23 22  1  0  0  0  0
 24 16  2  0  0  0  0
 24 22  1  0  0  0  0
M  END
>  <minimizedAffinity>
-4.3605485

$$$$

 OpenBabel03272509253D

 24 25  0  0  0  0  0  0  0  0999 V2000
   38.1290   25.3610   34.9620 C   0  0  0  0  0  0  0  0  0  0  0  0
   37.2290   24.9100   34.5010 H   0  0  0  0  0  0  0  0  0  0  0  0
   38.9870   25.4150   34.2700 H   0  0  0  0  0  0  0  0  0  0  0  0
   39.9680   22.8770   37.1600 C   0  0  0  0  0  0  0  0  0  0  0  0
   39.6440   23.6310   36.0110 C   0  0  0  0  0  0  0  0  0  0  0  0
   38.5770   24.5090   36.0930 C   0  0  0  0  0  0  0  0  0  0  0  0
   37.8860   24.6070   37.2770 N   0  0  0  0  0  0  0  0  0  0  0  0
   38.2300   23.8670   38.3520 C   0  0  0  0  0  0  0  0  0  0  0  0
   39.2680   23.0010   38.2990 N   0  0  0  0  0  0  0  0  0  0  0  0
   40.8110   22.1930   37.0740 H   0  0  0  0  0  0  0  0  0  0  0  0
   40.1910   23.5500   35.0820 H   0  0  0  0  0  0  0  0  0  0  0  0
   37.6800   23.9600   39.2590 H   0  0  0  0  0  0  0  0  0  0  0  0
   37.7500   26.7460   35.4690 C   0  0  0  0  0  0  0  0  0  0  0  0
   38.5920   27.2940   35.8870 H   0  0  0  0  0  0  0  0  0  0  0  0
   36.9020   26.6380   36.1700 H   0  0  0  0  0  0  0  0  0  0  0  0
   37.3100   27.4940   34.2440 C   0  0  0  0  0  0  0  0  0  0  0  0
   36.2850   28.4370   34.3560 C   0  0  0  0  0  0  0  0  0  0  0  0
   35.8500   28.5880   35.3340 H   0  0  0  0  0  0  0  0  0  0  0  0
   35.8020   29.1780   33.3080 C   0  0  0  0  0  3  0  0  0  0  0  0
   36.3720   28.9680   32.0700 C   0  0  0  0  0  0  0  0  0  0  0  0
   35.9820   29.5570   31.2570 H   0  0  0  0  0  0  0  0  0  0  0  0
   37.3950   28.0400   31.9050 C   0  0  0  0  0  0  0  0  0  0  0  0
   37.7930   27.9250   30.9270 H   0  0  0  0  0  0  0  0  0  0  0  0
   37.8430   27.3230   32.9920 C   0  0  0  0  0  3  0  0  0  0  0  0
  1 13  1  0  0  0  0
  1  6  1  0  0  0  0
  2  1  1  0  0  0  0
  3  1  1  0  0  0  0
  4  9  1  0  0  0  0
  5  6  1  0  0  0  0
  5  4  2  0  0  0  0
  6  7  2  0  0  0  0
  7  8  1  0  0  0  0
  8 12  1  0  0  0  0
  9  8  2  0  0  0  0
 10  4  1  0  0  0  0
 11  5  1  0  0  0  0
 13 14  1  0  0  0  0
 13 15  1  0  0  0  0
 16 17  1  0  0  0  0
 16 13  1  0  0  0  0
 17 18  1  0  0  0  0
 19 17  2  0  0  0  0
 20 19  1  0  0  0  0
 21 20  1  0  0  0  0
 22 20  2  0  0  0  0
 22 24  1  0  0  0  0
 23 22  1  0  0  0  0
 24 16  2  0  0  0  0
M  END
>  <minimizedAffinity>
-4.27808952

$$$$

 OpenBabel03272509253D

 24 25  0  0  0  0  0  0  0  0999 V2000
   38.8210   22.0110   34.3430 C   0  0  0  0  0  0  0  0  0  0  0  0
   38.4410   20.9720   34.3050 H   0  0  0  0  0  0  0  0  0  0  0  0
   39.8230   22.1210   33.8940 H   0  0  0  0  0  0  0  0  0  0  0  0
   40.1460   22.6950   37.8310 C   0  0  0  0  0  0  0  0  0  0  0  0
   40.1370   22.2590   36.4880 C   0  0  0  0  0  0  0  0  0  0  0  0
   38.9690   22.4250   35.7620 C   0  0  0  0  0  0  0  0  0  0  0  0
   37.8820   23.0000   36.3740 N   0  0  0  0  0  0  0  0  0  0  0  0
   37.9350   23.4030   37.6620 C   0  0  0  0  0  0  0  0  0  0  0  0
   39.0620   23.2530   38.3940 N   0  0  0  0  0  0  0  0  0  0  0  0
   41.0740   22.5550   38.3830 H   0  0  0  0  0  0  0  0  0  0  0  0
   40.9940   21.8070   36.0110 H   0  0  0  0  0  0  0  0  0  0  0  0
   37.0790   23.8460   38.1150 H   0  0  0  0  0  0  0  0  0  0  0  0
   37.8090   22.9050   33.6410 C   0  0  0  0  0  0  0  0  0  0  0  0
   38.2330   23.4610   32.8070 H   0  0  0  0  0  0  0  0  0  0  0  0
   37.3290   23.5500   34.4020 H   0  0  0  0  0  0  0  0  0  0  0  0
   36.7980   21.9580   33.0630 C   0  0  0  0  0  0  0  0  0  0  0  0
   36.3850   22.1290   31.7400 C   0  0  0  0  0  0  0  0  0  0  0  0
   36.8190   22.9480   31.1830 H   0  0  0  0  0  0  0  0  0  0  0  0
   35.4690   21.3260   31.1080 C   0  0  0  0  0  3  0  0  0  0  0  0
   34.9290   20.2890   31.8380 C   0  0  0  0  0  0  0  0  0  0  0  0
   34.2120   19.6680   31.3290 H   0  0  0  0  0  0  0  0  0  0  0  0
   35.3060   20.0760   33.1600 C   0  0  0  0  0  0  0  0  0  0  0  0
   34.8540   19.2600   33.6680 H   0  0  0  0  0  0  0  0  0  0  0  0
   36.2300   20.9120   33.7460 C   0  0  0  0  0  3  0  0  0  0  0  0
  1  6  1  0  0  0  0
  2  1  1  0  0  0  0
  3  1  1  0  0  0  0
  4 10  1  0  0  0  0
  4  9  1  0  0  0  0
  5  4  2  0  0  0  0
  6  7  2  0  0  0  0
  6  5  1  0  0  0  0
  7  8  1  0  0  0  0
  8 12  1  0  0  0  0
  8  9  2  0  0  0  0
 11  5  1  0  0  0  0
 13  1  1  0  0  0  0
 13 15  1  0  0  0  0
 14 13  1  0  0  0  0
 16 13  1  0  0  0  0
 16 24  1  0  0  0  0
 17 16  2  0  0  0  0
 18 17  1  0  0  0  0
 19 17  1  0  0  0  0
 19 20  2  0  0  0  0
 20 22  1  0  0  0  0
 21 20  1  0  0  0  0
 22 23  1  0  0  0  0
 22 24  2  0  0  0  0
M  END
>  <minimizedAffinity>
-4.26063442

$$$$

 OpenBabel03272509253D

 24 25  0  0  0  0  0  0  0  0999 V2000
   38.3390   25.9980   34.3450 C   0  0  0  0  0  0  0  0  0  0  0  0
   38.8920   26.9560   34.3540 H   0  0  0  0  0  0  0  0  0  0  0  0
   38.9920   25.1230   34.1820 H   0  0  0  0  0  0  0  0  0  0  0  0
   36.0950   24.9970   31.4560 C   0  0  0  0  0  0  0  0  0  0  0  0
   37.0190   24.8580   32.5140 C   0  0  0  0  0  0  0  0  0  0  0  0
   37.3790   26.0000   33.2120 C   0  0  0  0  0  0  0  0  0  0  0  0
   36.8260   27.2030   32.8470 N   0  0  0  0  0  0  0  0  0  0  0  0
   35.9460   27.2890   31.8270 C   0  0  0  0  0  0  0  0  0  0  0  0
   35.5770   26.1910   31.1290 N   0  0  0  0  0  0  0  0  0  0  0  0
   35.8260   24.0860   30.9210 H   0  0  0  0  0  0  0  0  0  0  0  0
   37.4500   23.9100   32.7980 H   0  0  0  0  0  0  0  0  0  0  0  0
   35.5310   28.2340   31.5620 H   0  0  0  0  0  0  0  0  0  0  0  0
   37.5890   25.8790   35.6640 C   0  0  0  0  0  0  0  0  0  0  0  0
   36.5630   25.5370   35.5450 H   0  0  0  0  0  0  0  0  0  0  0  0
   37.6730   26.8440   36.1990 H   0  0  0  0  0  0  0  0  0  0  0  0
   38.3180   24.8080   36.4240 C   0  0  0  0  0  0  0  0  0  0  0  0
   39.3920   24.1560   35.8150 C   0  0  0  0  0  0  0  0  0  0  0  0
   39.6560   24.4560   34.8110 H   0  0  0  0  0  0  0  0  0  0  0  0
   40.1300   23.1640   36.4120 C   0  0  0  0  0  3  0  0  0  0  0  0
   39.7760   22.7980   37.6930 C   0  0  0  0  0  0  0  0  0  0  0  0
   40.3640   22.0190   38.1480 H   0  0  0  0  0  0  0  0  0  0  0  0
   38.7130   23.4170   38.3430 C   0  0  0  0  0  0  0  0  0  0  0  0
   38.4910   23.0900   39.3290 H   0  0  0  0  0  0  0  0  0  0  0  0
   38.0060   24.4070   37.6980 C   0  0  0  0  0  3  0  0  0  0  0  0
  1  2  1  0  0  0  0
  1 13  1  0  0  0  0
  3  1  1  0  0  0  0
  4  5  1  0  0  0  0
  5 11  1  0  0  0  0
  5  6  2  0  0  0  0
  6  1  1  0  0  0  0
  7  6  1  0  0  0  0
  8  7  2  0  0  0  0
  9  4  2  0  0  0  0
  9  8  1  0  0  0  0
 10  4  1  0  0  0  0
 12  8  1  0  0  0  0
 13 15  1  0  0  0  0
 13 16  1  0  0  0  0
 14 13  1  0  0  0  0
 16 24  1  0  0  0  0
 17 19  1  0  0  0  0
 17 16  2  0  0  0  0
 18 17  1  0  0  0  0
 19 20  2  0  0  0  0
 20 21  1  0  0  0  0
 20 22  1  0  0  0  0
 22 23  1  0  0  0  0
 24 22  2  0  0  0  0
M  END
>  <minimizedAffinity>
-4.24616766

$$$$

 OpenBabel03272509253D

 24 25  0  0  0  0  0  0  0  0999 V2000
   39.3670   25.9020   35.3110 C   0  0  0  0  0  0  0  0  0  0  0  0
   39.4890   25.9530   34.2120 H   0  0  0  0  0  0  0  0  0  0  0  0
   40.3290   25.8830   35.8520 H   0  0  0  0  0  0  0  0  0  0  0  0
   37.4380   23.1700   37.1000 C   0  0  0  0  0  0  0  0  0  0  0  0
   38.0560   24.4220   36.8870 C   0  0  0  0  0  0  0  0  0  0  0  0
   38.6790   24.6350   35.6680 C   0  0  0  0  0  0  0  0  0  0  0  0
   38.6690   23.6300   34.7310 N   0  0  0  0  0  0  0  0  0  0  0  0
   38.0650   22.4480   34.9790 C   0  0  0  0  0  0  0  0  0  0  0  0
   37.4490   22.2130   36.1600 N   0  0  0  0  0  0  0  0  0  0  0  0
   36.9540   23.0250   38.0650 H   0  0  0  0  0  0  0  0  0  0  0  0
   38.0620   25.2090   37.6260 H   0  0  0  0  0  0  0  0  0  0  0  0
   38.0700   21.6840   34.2370 H   0  0  0  0  0  0  0  0  0  0  0  0
   38.5240   27.0930   35.7430 C   0  0  0  0  0  0  0  0  0  0  0  0
   39.1180   27.9450   36.0660 H   0  0  0  0  0  0  0  0  0  0  0  0
   37.7990   26.7460   36.5040 H   0  0  0  0  0  0  0  0  0  0  0  0
   37.7960   27.5170   34.5000 C   0  0  0  0  0  0  0  0  0  0  0  0
   36.6050   28.2370   34.6230 C   0  0  0  0  0  0  0  0  0  0  0  0
   36.2560   28.4600   35.6210 H   0  0  0  0  0  0  0  0  0  0  0  0
   35.8570   28.6760   33.5590 C   0  0  0  0  0  3  0  0  0  0  0  0
   36.3220   28.3800   32.2950 C   0  0  0  0  0  0  0  0  0  0  0  0
   35.7250   28.7300   31.4710 H   0  0  0  0  0  0  0  0  0  0  0  0
   37.5030   27.6650   32.1190 C   0  0  0  0  0  0  0  0  0  0  0  0
   37.8070   27.4700   31.1210 H   0  0  0  0  0  0  0  0  0  0  0  0
   38.2150   27.2490   33.2220 C   0  0  0  0  0  3  0  0  0  0  0  0
  1  6  1  0  0  0  0
  1 13  1  0  0  0  0
  1  3  1  0  0  0  0
  2  1  1  0  0  0  0
  4 10  1  0  0  0  0
  5  4  1  0  0  0  0
  5 11  1  0  0  0  0
  6  5  2  0  0  0  0
  7  8  2  0  0  0  0
  7  6  1  0  0  0  0
  8  9  1  0  0  0  0
  9  4  2  0  0  0  0
 12  8  1  0  0  0  0
 13 14  1  0  0  0  0
 13 15  1  0  0  0  0
 16 17  1  0  0  0  0
 16 13  1  0  0  0  0
 17 18  1  0  0  0  0
 19 17  2  0  0  0  0
 20 19  1  0  0  0  0
 21 20  1  0  0  0  0
 22 20  2  0  0  0  0
 22 24  1  0  0  0  0
 23 22  1  0  0  0  0
 24 16  2  0  0  0  0
M  END
>  <minimizedAffinity>
-4.18125582

$$$$

 OpenBabel03272509253D

 24 25  0  0  0  0  0  0  0  0999 V2000
   39.0520   23.2190   33.7840 C   0  0  0  0  0  0  0  0  0  0  0  0
   39.7530   23.4090   32.9490 H   0  0  0  0  0  0  0  0  0  0  0  0
   39.4080   22.4400   34.4800 H   0  0  0  0  0  0  0  0  0  0  0  0
   35.8660   22.7530   31.7800 C   0  0  0  0  0  0  0  0  0  0  0  0
   37.0780   23.3370   32.2100 C   0  0  0  0  0  0  0  0  0  0  0  0
   37.7670   22.7130   33.2370 C   0  0  0  0  0  0  0  0  0  0  0  0
   37.2470   21.5680   33.7870 N   0  0  0  0  0  0  0  0  0  0  0  0
   36.0830   21.0440   33.3450 C   0  0  0  0  0  0  0  0  0  0  0  0
   35.3900   21.6320   32.3440 N   0  0  0  0  0  0  0  0  0  0  0  0
   35.3400   23.2590   30.9720 H   0  0  0  0  0  0  0  0  0  0  0  0
   37.4830   24.2380   31.7730 H   0  0  0  0  0  0  0  0  0  0  0  0
   35.7000   20.1540   33.7880 H   0  0  0  0  0  0  0  0  0  0  0  0
   38.8250   24.5370   34.5120 C   0  0  0  0  0  0  0  0  0  0  0  0
   37.8630   24.9920   34.2880 H   0  0  0  0  0  0  0  0  0  0  0  0
   39.6860   25.2000   34.3040 H   0  0  0  0  0  0  0  0  0  0  0  0
   38.8030   24.1710   35.9680 C   0  0  0  0  0  0  0  0  0  0  0  0
   39.7150   23.2270   36.4460 C   0  0  0  0  0  0  0  0  0  0  0  0
   40.4080   22.7980   35.7350 H   0  0  0  0  0  0  0  0  0  0  0  0
   39.7860   22.8170   37.7530 C   0  0  0  0  0  3  0  0  0  0  0  0
   38.8930   23.3780   38.6410 C   0  0  0  0  0  0  0  0  0  0  0  0
   38.9610   23.0460   39.6630 H   0  0  0  0  0  0  0  0  0  0  0  0
   37.9640   24.3220   38.2160 C   0  0  0  0  0  0  0  0  0  0  0  0
   37.3040   24.7170   38.9480 H   0  0  0  0  0  0  0  0  0  0  0  0
   37.9360   24.6990   36.8920 C   0  0  0  0  0  3  0  0  0  0  0  0
  1  3  1  0  0  0  0
  1 13  1  0  0  0  0
  2  1  1  0  0  0  0
  4  5  2  0  0  0  0
  4  9  1  0  0  0  0
  5  6  1  0  0  0  0
  6  1  1  0  0  0  0
  6  7  2  0  0  0  0
  8  7  1  0  0  0  0
  8 12  1  0  0  0  0
  9  8  2  0  0  0  0
 10  4  1  0  0  0  0
 11  5  1  0  0  0  0
 13 16  1  0  0  0  0
 14 13  1  0  0  0  0
 15 13  1  0  0  0  0
 16 17  2  0  0  0  0
 16 24  1  0  0  0  0
 17 19  1  0  0  0  0
 18 17  1  0  0  0  0
 19 20  2  0  0  0  0
 20 21  1  0  0  0  0
 22 20  1  0  0  0  0
 22 23  1  0  0  0  0
 24 22  2  0  0  0  0
M  END
>  <minimizedAffinity>
-4.15394592

$$$$
