
 OpenBabel03262522193D

 24 25  0  0  0  0  0  0  0  0999 V2000
   37.1650   33.6210   49.8410 O   0  0  0  0  0  0  0  0  0  0  0  0
   38.3680   32.9390   49.1800 P   0  0  1  0  0  0  0  0  0  0  0  0
   39.7590   33.8060   49.6700 O   0  0  0  0  0  0  0  0  0  0  0  0
   40.0120   34.4620   48.9670 H   0  0  0  0  0  0  0  0  0  0  0  0
   38.5190   31.3950   49.8540 O   0  0  0  0  0  0  0  0  0  0  0  0
   37.0640   30.2110   51.3390 C   0  0  0  0  0  0  0  0  0  0  0  0
   37.5190   30.4840   50.0380 C   0  0  0  0  0  0  0  0  0  0  0  0
   36.8850   29.7710   49.0000 C   0  0  0  0  0  0  0  0  0  0  0  0
   35.9030   28.8940   49.3280 N   0  0  0  0  0  0  0  0  0  0  0  0
   35.5060   28.6720   50.5930 C   0  0  0  0  0  0  0  0  0  0  0  0
   36.0900   29.3340   51.6130 N   0  0  0  0  0  0  0  0  0  0  0  0
   37.4680   30.6910   52.2240 H   0  0  0  0  0  0  0  0  0  0  0  0
   37.2170   29.9630   47.9950 H   0  0  0  0  0  0  0  0  0  0  0  0
   34.7130   27.9280   50.5650 H   0  0  0  0  0  0  0  0  0  0  0  0
   38.1320   32.9920   47.5440 O   0  0  0  0  0  0  0  0  0  0  0  0
   39.0420   32.4220   46.6630 C   0  0  0  0  0  0  0  0  0  0  0  0
   38.8820   31.0770   46.3660 C   0  0  0  0  0  0  0  0  0  0  0  0
   38.1120   30.4500   46.7660 H   0  0  0  0  0  0  0  0  0  0  0  0
   39.8260   30.5640   45.4750 C   0  0  0  0  0  0  0  0  0  0  0  0
   40.8560   31.2620   44.8980 C   0  0  0  0  0  0  0  0  0  0  0  0
   41.5340   30.7710   44.2210 H   0  0  0  0  0  0  0  0  0  0  0  0
   40.9740   32.6160   45.2290 C   0  0  0  0  0  0  0  0  0  0  0  0
   41.7980   33.1210   44.7510 H   0  0  0  0  0  0  0  0  0  0  0  0
   40.0570   33.1790   46.1140 C   0  0  0  0  0  0  0  0  0  0  0  0
  2  3  1  0  0  0  0
  2  1  2  1  0  0  0
  2  5  1  0  0  0  0
  4  3  1  0  0  0  0
  5  7  1  0  0  0  0
  6 11  1  0  0  0  0
  6 12  1  0  0  0  0
  7  6  2  0  0  0  0
  8  9  2  0  0  0  0
  8  7  1  0  0  0  0
  9 10  1  0  0  0  0
 10 11  2  0  0  0  0
 13  8  1  0  0  0  0
 14 10  1  0  0  0  0
 15  2  1  0  0  0  0
 16 15  1  0  0  0  0
 17 16  1  0  0  0  0
 17 18  1  0  0  0  0
 19 17  2  0  0  0  0
 20 22  2  0  0  0  0
 20 19  1  0  0  0  0
 21 20  1  0  0  0  0
 22 24  1  0  0  0  0
 23 22  1  0  0  0  0
 24 16  2  0  0  0  0
M  END
>  <minimizedAffinity>
-4.91677856

>  <minimizedRMSD>
0.901332974

$$$$
