
 OpenBabel03272509473D

 25 26  0  0  0  0  0  0  0  0999 V2000
   34.1680   28.4210   48.5510 C   0  0  0  0  0  0  0  0  0  0  0  0
   33.2800   29.0760   48.5420 H   0  0  0  0  0  0  0  0  0  0  0  0
   34.9030   28.8720   47.8390 H   0  0  0  0  0  0  0  0  0  0  0  0
   33.8720   27.0430   48.0050 C   0  0  0  0  0  0  0  0  0  0  0  0
   34.7590   26.4050   48.1150 H   0  0  0  0  0  0  0  0  0  0  0  0
   33.0710   26.6200   48.6750 H   0  0  0  0  0  0  0  0  0  0  0  0
   33.3420   27.0460   46.6380 C   0  0  0  0  0  0  0  0  0  0  0  0
   32.5820   25.9210   46.3400 C   0  0  0  0  0  0  0  0  0  0  0  0
   32.3860   25.1100   47.0320 H   0  0  0  0  0  0  0  0  0  0  0  0
   31.9890   25.7370   45.0870 C   0  0  0  0  0  3  0  0  0  0  0  0
   32.1620   26.7030   44.1070 C   0  0  0  0  0  0  0  0  0  0  0  0
   31.6960   26.5390   43.1520 H   0  0  0  0  0  0  0  0  0  0  0  0
   32.9180   27.8040   44.4310 C   0  0  0  0  0  0  0  0  0  0  0  0
   33.0560   28.5650   43.6650 H   0  0  0  0  0  0  0  0  0  0  0  0
   33.5090   28.0020   45.6600 C   0  0  0  0  0  3  0  0  0  0  0  0
   34.7220   28.3350   49.8480 O   0  0  0  0  0  0  0  0  0  0  0  0
   37.3780   30.2500   51.4000 C   0  0  0  0  0  0  0  0  0  0  0  0
   38.0820   30.6750   50.2790 C   0  0  0  0  0  0  0  0  0  0  0  0
   37.6060   30.2790   49.0370 C   0  0  0  0  0  0  0  0  0  0  0  0
   36.4810   29.5020   49.0130 N   0  0  0  0  0  0  0  0  0  0  0  0
   35.8260   29.1100   50.1290 C   0  0  0  0  0  0  0  0  0  0  0  0
   36.2980   29.5020   51.3230 N   0  0  0  0  0  0  0  0  0  0  0  0
   37.7940   30.5870   52.3390 H   0  0  0  0  0  0  0  0  0  0  0  0
   38.9720   31.2850   50.2240 H   0  0  0  0  0  0  0  0  0  0  0  0
   38.0790   30.5530   48.0840 H   0  0  0  0  0  0  0  0  0  0  0  0
  1 16  1  0  0  0  0
  2  1  1  0  0  0  0
  3  1  1  0  0  0  0
  4  5  1  0  0  0  0
  4  1  1  0  0  0  0
  4  6  1  0  0  0  0
  7  4  1  0  0  0  0
  8  7  1  0  0  0  0
  8  9  1  0  0  0  0
 10  8  2  0  0  0  0
 11 13  2  0  0  0  0
 11 10  1  0  0  0  0
 12 11  1  0  0  0  0
 13 15  1  0  0  0  0
 14 13  1  0  0  0  0
 15  7  2  0  0  0  0
 16 21  1  0  0  0  0
 17 23  1  0  0  0  0
 18 17  2  0  0  0  0
 19 18  1  0  0  0  0
 20 19  2  0  0  0  0
 20 21  1  0  0  0  0
 21 22  2  0  0  0  0
 22 17  1  0  0  0  0
 24 18  1  0  0  0  0
 25 19  1  0  0  0  0
M  END
>  <minimizedAffinity>
-3.68690538

>  <minimizedRMSD>
0.12786141

$$$$
