
 OpenBabel03272509473D

 25 26  0  0  0  0  0  0  0  0999 V2000
   34.1690   28.4230   48.5350 C   0  0  0  0  0  0  0  0  0  0  0  0
   33.2730   29.0650   48.5300 H   0  0  0  0  0  0  0  0  0  0  0  0
   34.9000   28.8910   47.8310 H   0  0  0  0  0  0  0  0  0  0  0  0
   33.8940   27.0470   47.9750 C   0  0  0  0  0  0  0  0  0  0  0  0
   34.8050   26.4360   48.0320 H   0  0  0  0  0  0  0  0  0  0  0  0
   33.1370   26.5850   48.6700 H   0  0  0  0  0  0  0  0  0  0  0  0
   33.3040   27.0580   46.6330 C   0  0  0  0  0  0  0  0  0  0  0  0
   33.0960   25.7870   46.1120 C   0  0  0  0  0  0  0  0  0  0  0  0
   33.3380   24.8640   46.6260 H   0  0  0  0  0  0  0  0  0  0  0  0
   32.5410   25.5860   44.8440 C   0  0  0  0  0  3  0  0  0  0  0  0
   32.1860   26.6860   44.0770 C   0  0  0  0  0  0  0  0  0  0  0  0
   31.7610   26.5060   43.1060 H   0  0  0  0  0  0  0  0  0  0  0  0
   32.4020   27.9310   44.6190 C   0  0  0  0  0  0  0  0  0  0  0  0
   32.1240   28.7970   44.0220 H   0  0  0  0  0  0  0  0  0  0  0  0
   32.9480   28.1460   45.8660 C   0  0  0  0  0  3  0  0  0  0  0  0
   34.7200   28.3310   49.8330 O   0  0  0  0  0  0  0  0  0  0  0  0
   37.3680   30.2430   51.4020 C   0  0  0  0  0  0  0  0  0  0  0  0
   38.0780   30.6710   50.2850 C   0  0  0  0  0  0  0  0  0  0  0  0
   37.6070   30.2770   49.0390 C   0  0  0  0  0  0  0  0  0  0  0  0
   36.4820   29.5010   49.0090 N   0  0  0  0  0  0  0  0  0  0  0  0
   35.8220   29.1060   50.1210 C   0  0  0  0  0  0  0  0  0  0  0  0
   36.2890   29.4950   51.3180 N   0  0  0  0  0  0  0  0  0  0  0  0
   37.7800   30.5790   52.3430 H   0  0  0  0  0  0  0  0  0  0  0  0
   38.9680   31.2820   50.2350 H   0  0  0  0  0  0  0  0  0  0  0  0
   38.0850   30.5540   48.0900 H   0  0  0  0  0  0  0  0  0  0  0  0
  1 16  1  0  0  0  0
  2  1  1  0  0  0  0
  3  1  1  0  0  0  0
  4  5  1  0  0  0  0
  4  1  1  0  0  0  0
  4  6  1  0  0  0  0
  7  4  1  0  0  0  0
  8  9  1  0  0  0  0
  8  7  1  0  0  0  0
 10  8  2  0  0  0  0
 11 13  2  0  0  0  0
 11 10  1  0  0  0  0
 12 11  1  0  0  0  0
 13 15  1  0  0  0  0
 14 13  1  0  0  0  0
 15  7  2  0  0  0  0
 16 21  1  0  0  0  0
 17 23  1  0  0  0  0
 18 17  2  0  0  0  0
 19 18  1  0  0  0  0
 20 19  2  0  0  0  0
 20 21  1  0  0  0  0
 21 22  2  0  0  0  0
 22 17  1  0  0  0  0
 24 18  1  0  0  0  0
 25 19  1  0  0  0  0
M  END
>  <minimizedAffinity>
-3.67867088

>  <minimizedRMSD>
0.106630199

$$$$
