
 OpenBabel03272509473D

 25 26  0  0  0  0  0  0  0  0999 V2000
   34.2140   28.3920   48.4680 C   0  0  0  0  0  0  0  0  0  0  0  0
   33.3610   29.0900   48.4180 H   0  0  0  0  0  0  0  0  0  0  0  0
   34.9900   28.7870   47.7660 H   0  0  0  0  0  0  0  0  0  0  0  0
   33.8630   27.0170   47.9500 C   0  0  0  0  0  0  0  0  0  0  0  0
   34.7500   26.3700   47.9920 H   0  0  0  0  0  0  0  0  0  0  0  0
   33.1120   26.6030   48.6800 H   0  0  0  0  0  0  0  0  0  0  0  0
   33.2290   27.0230   46.6280 C   0  0  0  0  0  0  0  0  0  0  0  0
   33.8770   26.2140   45.7020 C   0  0  0  0  0  0  0  0  0  0  0  0
   34.7640   25.6270   45.9120 H   0  0  0  0  0  0  0  0  0  0  0  0
   33.4260   26.0850   44.3850 C   0  0  0  0  0  3  0  0  0  0  0  0
   32.2970   26.7840   43.9830 C   0  0  0  0  0  0  0  0  0  0  0  0
   31.9700   26.6690   42.9660 H   0  0  0  0  0  0  0  0  0  0  0  0
   31.6770   27.5750   44.9210 C   0  0  0  0  0  0  0  0  0  0  0  0
   30.7900   28.1260   44.6100 H   0  0  0  0  0  0  0  0  0  0  0  0
   32.1080   27.7140   46.2220 C   0  0  0  0  0  3  0  0  0  0  0  0
   34.7280   28.3140   49.7820 O   0  0  0  0  0  0  0  0  0  0  0  0
   37.3410   30.2270   51.4060 C   0  0  0  0  0  0  0  0  0  0  0  0
   38.0660   30.6660   50.3040 C   0  0  0  0  0  0  0  0  0  0  0  0
   37.6180   30.2800   49.0480 C   0  0  0  0  0  0  0  0  0  0  0  0
   36.4970   29.4980   48.9940 N   0  0  0  0  0  0  0  0  0  0  0  0
   35.8210   29.0920   50.0930 C   0  0  0  0  0  0  0  0  0  0  0  0
   36.2670   29.4740   51.3000 N   0  0  0  0  0  0  0  0  0  0  0  0
   37.7360   30.5580   52.3570 H   0  0  0  0  0  0  0  0  0  0  0  0
   38.9540   31.2820   50.2720 H   0  0  0  0  0  0  0  0  0  0  0  0
   38.1090   30.5660   48.1080 H   0  0  0  0  0  0  0  0  0  0  0  0
  1 16  1  0  0  0  0
  2  1  1  0  0  0  0
  3  1  1  0  0  0  0
  4  5  1  0  0  0  0
  4  1  1  0  0  0  0
  4  6  1  0  0  0  0
  7  4  1  0  0  0  0
  8  9  1  0  0  0  0
  8  7  2  0  0  0  0
 10  8  1  0  0  0  0
 11 10  2  0  0  0  0
 11 13  1  0  0  0  0
 12 11  1  0  0  0  0
 13 15  2  0  0  0  0
 14 13  1  0  0  0  0
 15  7  1  0  0  0  0
 16 21  1  0  0  0  0
 17 23  1  0  0  0  0
 18 17  2  0  0  0  0
 19 18  1  0  0  0  0
 20 19  2  0  0  0  0
 20 21  1  0  0  0  0
 21 22  2  0  0  0  0
 22 17  1  0  0  0  0
 24 18  1  0  0  0  0
 25 19  1  0  0  0  0
M  END
>  <minimizedAffinity>
-3.74523664

>  <minimizedRMSD>
0.248699516

$$$$
