
 OpenBabel03262522293D

 46 49  0  0  0  0  0  0  0  0999 V2000
   35.7330   21.6840   31.1650 S   0  0  0  0  0  0  0  0  0  0  0  0
   37.5330   25.2850   31.0440 C   0  0  0  0  0  0  0  0  0  0  0  0
   36.4380   26.1400   31.0450 C   0  0  0  0  0  0  0  0  0  0  0  0
   35.1920   25.5650   31.0830 C   0  0  0  0  0  0  0  0  0  0  0  0
   35.1070   24.2060   31.1170 N   0  0  0  0  0  0  0  0  0  0  0  0
   36.1570   23.4340   31.1140 C   0  0  0  0  0  0  0  0  0  0  0  0
   37.4360   23.9450   31.0780 N   0  0  0  0  0  0  0  0  0  0  0  0
   38.5500   25.6580   31.0150 H   0  0  0  0  0  0  0  0  0  0  0  0
   34.3210   26.2190   31.0850 H   0  0  0  0  0  0  0  0  0  0  0  0
   36.6710   27.4740   31.0080 O   0  0  0  0  0  0  0  0  0  0  0  0
   36.1960   28.2740   32.0380 C   0  0  0  0  0  0  0  0  0  0  0  0
   36.4690   28.1920   33.3870 C   0  0  0  0  0  0  0  0  0  0  0  0
   35.9140   29.0610   34.2450 C   0  0  0  0  0  0  0  0  0  0  0  0
   35.0820   30.0160   33.7680 C   0  0  0  0  0  0  0  0  0  0  0  0
   34.8010   30.1050   32.3970 C   0  0  0  0  0  0  0  0  0  0  0  0
   35.3730   29.2190   31.5580 N   0  0  0  0  0  0  0  0  0  0  0  0
   37.1460   27.3880   33.6490 H   0  0  0  0  0  0  0  0  0  0  0  0
   36.1670   28.9430   35.2820 H   0  0  0  0  0  0  0  0  0  0  0  0
   34.6220   30.7300   34.4460 H   0  0  0  0  0  0  0  0  0  0  0  0
   33.8640   31.1860   31.8730 C   0  0  0  0  0  0  0  0  0  0  0  0
   34.4470   32.0390   31.5020 H   0  0  0  0  0  0  0  0  0  0  0  0
   33.1440   31.4330   32.6550 H   0  0  0  0  0  0  0  0  0  0  0  0
   33.3380   30.6950   31.0170 H   0  0  0  0  0  0  0  0  0  0  0  0
   37.1410   20.8930   31.9870 C   0  0  0  0  0  0  0  0  0  0  0  0
   37.2070   19.8080   31.7740 H   0  0  0  0  0  0  0  0  0  0  0  0
   38.1030   21.3190   31.6070 H   0  0  0  0  0  0  0  0  0  0  0  0
   39.1400   22.2840   33.2580 F   0  0  0  0  0  0  0  0  0  0  0  0
   38.0620   21.8690   33.9820 C   0  0  0  0  0  0  0  0  0  0  0  0
   36.9930   21.1590   33.4480 C   0  0  0  0  0  0  0  0  0  0  0  0
   35.9390   20.7680   34.2230 C   0  0  0  0  0  0  0  0  0  0  0  0
   35.9050   21.0730   35.5860 C   0  0  0  0  0  0  0  0  0  0  0  0
   36.9640   21.7830   36.1360 C   0  0  0  0  0  0  0  0  0  0  0  0
   38.0160   22.1670   35.3400 C   0  0  0  0  0  0  0  0  0  0  0  0
   35.1390   20.2150   33.7340 H   0  0  0  0  0  0  0  0  0  0  0  0
   35.0750   20.7640   36.1870 H   0  0  0  0  0  0  0  0  0  0  0  0
   36.8920   21.9960   37.1940 H   0  0  0  0  0  0  0  0  0  0  0  0
   39.0440   22.8740   35.9470 O   0  0  0  0  0  0  0  0  0  0  0  0
   39.0350   24.2540   35.8180 C   0  0  0  0  0  0  0  0  0  0  0  0
   38.0650   25.0520   36.3910 C   0  0  0  0  0  0  0  0  0  0  0  0
   37.2840   24.5770   36.9610 H   0  0  0  0  0  0  0  0  0  0  0  0
   38.1570   26.4160   36.1950 C   0  0  0  0  0  3  0  0  0  0  0  0
   39.1950   26.9570   35.4460 C   0  0  0  0  0  0  0  0  0  0  0  0
   39.1680   28.0280   35.3600 H   0  0  0  0  0  0  0  0  0  0  0  0
   40.1650   26.1450   34.8770 C   0  0  0  0  0  0  0  0  0  0  0  0
   40.9590   26.6210   34.2970 H   0  0  0  0  0  0  0  0  0  0  0  0
   40.0700   24.7740   35.0740 C   0  0  0  0  0  3  0  0  0  0  0  0
  1 24  1  0  0  0  0
  2  3  2  0  0  0  0
  2  7  1  0  0  0  0
  3  4  1  0  0  0  0
  4  9  1  0  0  0  0
  4  5  2  0  0  0  0
  6  5  1  0  0  0  0
  6  1  1  0  0  0  0
  7  6  2  0  0  0  0
  8  2  1  0  0  0  0
 10  3  1  0  0  0  0
 10 11  1  0  0  0  0
 11 12  1  0  0  0  0
 12 17  1  0  0  0  0
 12 13  2  0  0  0  0
 13 18  1  0  0  0  0
 14 13  1  0  0  0  0
 14 19  1  0  0  0  0
 15 14  2  0  0  0  0
 16 11  2  0  0  0  0
 16 15  1  0  0  0  0
 20 15  1  0  0  0  0
 20 22  1  0  0  0  0
 21 20  1  0  0  0  0
 23 20  1  0  0  0  0
 24 29  1  0  0  0  0
 25 24  1  0  0  0  0
 26 24  1  0  0  0  0
 27 28  1  0  0  0  0
 28 33  1  0  0  0  0
 29 28  2  0  0  0  0
 29 30  1  0  0  0  0
 30 31  2  0  0  0  0
 31 32  1  0  0  0  0
 31 35  1  0  0  0  0
 32 36  1  0  0  0  0
 33 37  1  0  0  0  0
 33 32  2  0  0  0  0
 34 30  1  0  0  0  0
 38 37  1  0  0  0  0
 38 39  1  0  0  0  0
 39 40  1  0  0  0  0
 41 39  2  0  0  0  0
 42 41  1  0  0  0  0
 43 42  1  0  0  0  0
 44 46  1  0  0  0  0
 44 42  2  0  0  0  0
 45 44  1  0  0  0  0
 46 38  2  0  0  0  0
M  END
>  <minimizedAffinity>
-6.34602737

$$$$

 OpenBabel03262522293D

 46 49  0  0  0  0  0  0  0  0999 V2000
   38.1860   27.7680   30.0230 S   0  0  0  0  0  0  0  0  0  0  0  0
   35.1670   29.0790   32.3450 C   0  0  0  0  0  0  0  0  0  0  0  0
   35.2940   30.4560   32.2100 C   0  0  0  0  0  0  0  0  0  0  0  0
   36.3080   30.9170   31.4070 C   0  0  0  0  0  0  0  0  0  0  0  0
   37.1170   30.0070   30.7990 N   0  0  0  0  0  0  0  0  0  0  0  0
   36.9680   28.7210   30.9490 C   0  0  0  0  0  0  0  0  0  0  0  0
   35.9720   28.1900   31.7390 N   0  0  0  0  0  0  0  0  0  0  0  0
   34.3930   28.6340   32.9600 H   0  0  0  0  0  0  0  0  0  0  0  0
   36.4230   31.9940   31.2890 H   0  0  0  0  0  0  0  0  0  0  0  0
   34.4170   31.2460   32.8750 O   0  0  0  0  0  0  0  0  0  0  0  0
   34.6480   31.5430   34.2100 C   0  0  0  0  0  0  0  0  0  0  0  0
   35.7620   32.1190   34.7830 C   0  0  0  0  0  0  0  0  0  0  0  0
   35.8110   32.3330   36.1060 C   0  0  0  0  0  0  0  0  0  0  0  0
   34.7530   31.9740   36.8700 C   0  0  0  0  0  0  0  0  0  0  0  0
   33.6170   31.3880   36.2930 C   0  0  0  0  0  0  0  0  0  0  0  0
   33.5950   31.1840   34.9610 N   0  0  0  0  0  0  0  0  0  0  0  0
   36.5440   32.3620   34.0720 H   0  0  0  0  0  0  0  0  0  0  0  0
   36.7070   32.7850   36.4890 H   0  0  0  0  0  0  0  0  0  0  0  0
   34.7720   32.1390   37.9430 H   0  0  0  0  0  0  0  0  0  0  0  0
   32.4320   30.9890   37.1640 C   0  0  0  0  0  0  0  0  0  0  0  0
   31.6680   31.7770   37.1390 H   0  0  0  0  0  0  0  0  0  0  0  0
   32.7990   30.7430   38.1620 H   0  0  0  0  0  0  0  0  0  0  0  0
   32.0330   30.0680   36.6710 H   0  0  0  0  0  0  0  0  0  0  0  0
   38.2270   26.1530   30.8450 C   0  0  0  0  0  0  0  0  0  0  0  0
   37.2330   25.6660   30.8830 H   0  0  0  0  0  0  0  0  0  0  0  0
   38.8740   25.4420   30.2730 H   0  0  0  0  0  0  0  0  0  0  0  0
   36.8820   25.0710   32.9820 F   0  0  0  0  0  0  0  0  0  0  0  0
   38.0200   25.7850   33.2120 C   0  0  0  0  0  0  0  0  0  0  0  0
   38.7820   26.3780   32.2120 C   0  0  0  0  0  0  0  0  0  0  0  0
   39.9140   27.0840   32.5020 C   0  0  0  0  0  0  0  0  0  0  0  0
   40.3430   27.2310   33.8230 C   0  0  0  0  0  0  0  0  0  0  0  0
   39.5940   26.6450   34.8350 C   0  0  0  0  0  0  0  0  0  0  0  0
   38.4580   25.9390   34.5240 C   0  0  0  0  0  0  0  0  0  0  0  0
   40.4580   27.5190   31.6660 H   0  0  0  0  0  0  0  0  0  0  0  0
   41.2320   27.7850   34.0440 H   0  0  0  0  0  0  0  0  0  0  0  0
   39.9660   26.7850   35.8420 H   0  0  0  0  0  0  0  0  0  0  0  0
   37.7520   25.3760   35.5770 O   0  0  0  0  0  0  0  0  0  0  0  0
   38.4150   24.4520   36.3700 C   0  0  0  0  0  0  0  0  0  0  0  0
   39.3320   23.5530   35.8640 C   0  0  0  0  0  0  0  0  0  0  0  0
   39.5380   23.5740   34.8070 H   0  0  0  0  0  0  0  0  0  0  0  0
   39.9310   22.6790   36.7500 C   0  0  0  0  0  3  0  0  0  0  0  0
   39.6150   22.7110   38.1030 C   0  0  0  0  0  0  0  0  0  0  0  0
   40.1400   21.9870   38.6980 H   0  0  0  0  0  0  0  0  0  0  0  0
   38.6920   23.6200   38.6000 C   0  0  0  0  0  0  0  0  0  0  0  0
   38.4790   23.6030   39.6720 H   0  0  0  0  0  0  0  0  0  0  0  0
   38.0910   24.4980   37.7080 C   0  0  0  0  0  3  0  0  0  0  0  0
  1 24  1  0  0  0  0
  1  6  1  0  0  0  0
  2  8  1  0  0  0  0
  3  2  1  0  0  0  0
  3 10  1  0  0  0  0
  4  3  2  0  0  0  0
  5  6  2  0  0  0  0
  5  4  1  0  0  0  0
  6  7  1  0  0  0  0
  7  2  2  0  0  0  0
  9  4  1  0  0  0  0
 10 11  1  0  0  0  0
 11 12  2  0  0  0  0
 11 16  1  0  0  0  0
 12 13  1  0  0  0  0
 13 18  1  0  0  0  0
 13 14  2  0  0  0  0
 14 19  1  0  0  0  0
 15 14  1  0  0  0  0
 15 20  1  0  0  0  0
 16 15  2  0  0  0  0
 17 12  1  0  0  0  0
 20 22  1  0  0  0  0
 21 20  1  0  0  0  0
 23 20  1  0  0  0  0
 24 25  1  0  0  0  0
 24 29  1  0  0  0  0
 26 24  1  0  0  0  0
 27 28  1  0  0  0  0
 28 33  1  0  0  0  0
 29 30  1  0  0  0  0
 29 28  2  0  0  0  0
 30 31  2  0  0  0  0
 31 35  1  0  0  0  0
 31 32  1  0  0  0  0
 32 36  1  0  0  0  0
 33 32  2  0  0  0  0
 33 37  1  0  0  0  0
 34 30  1  0  0  0  0
 37 38  1  0  0  0  0
 38 46  1  0  0  0  0
 39 38  2  0  0  0  0
 39 41  1  0  0  0  0
 40 39  1  0  0  0  0
 41 42  2  0  0  0  0
 42 44  1  0  0  0  0
 42 43  1  0  0  0  0
 44 45  1  0  0  0  0
 46 44  2  0  0  0  0
M  END
>  <minimizedAffinity>
-6.3344388

$$$$

 OpenBabel03262522293D

 46 49  0  0  0  0  0  0  0  0999 V2000
   37.6650   26.4610   30.5270 S   0  0  0  0  0  0  0  0  0  0  0  0
   37.0020   23.0820   32.6170 C   0  0  0  0  0  0  0  0  0  0  0  0
   37.8690   23.2480   33.6910 C   0  0  0  0  0  0  0  0  0  0  0  0
   38.6180   24.3980   33.7200 C   0  0  0  0  0  0  0  0  0  0  0  0
   38.4690   25.2940   32.7060 N   0  0  0  0  0  0  0  0  0  0  0  0
   37.6470   25.1050   31.7140 C   0  0  0  0  0  0  0  0  0  0  0  0
   36.8640   23.9740   31.6220 N   0  0  0  0  0  0  0  0  0  0  0  0
   36.3760   22.2030   32.5190 H   0  0  0  0  0  0  0  0  0  0  0  0
   39.3030   24.5460   34.5540 H   0  0  0  0  0  0  0  0  0  0  0  0
   37.9150   22.2730   34.6290 O   0  0  0  0  0  0  0  0  0  0  0  0
   38.4280   22.5640   35.8860 C   0  0  0  0  0  0  0  0  0  0  0  0
   37.8500   23.2940   36.9020 C   0  0  0  0  0  0  0  0  0  0  0  0
   38.4990   23.4750   38.0620 C   0  0  0  0  0  0  0  0  0  0  0  0
   39.7290   22.9310   38.2180 C   0  0  0  0  0  0  0  0  0  0  0  0
   40.3220   22.1870   37.1890 C   0  0  0  0  0  0  0  0  0  0  0  0
   39.6470   22.0220   36.0340 N   0  0  0  0  0  0  0  0  0  0  0  0
   36.8660   23.6790   36.6600 H   0  0  0  0  0  0  0  0  0  0  0  0
   37.9940   24.0540   38.8130 H   0  0  0  0  0  0  0  0  0  0  0  0
   40.2720   23.0660   39.1500 H   0  0  0  0  0  0  0  0  0  0  0  0
   41.7060   21.5790   37.3780 C   0  0  0  0  0  0  0  0  0  0  0  0
   41.6160   20.5280   37.6780 H   0  0  0  0  0  0  0  0  0  0  0  0
   42.2690   22.2040   38.0740 H   0  0  0  0  0  0  0  0  0  0  0  0
   42.1680   21.6380   36.3610 H   0  0  0  0  0  0  0  0  0  0  0  0
   38.2020   27.9030   31.4850 C   0  0  0  0  0  0  0  0  0  0  0  0
   38.5860   27.6320   32.4880 H   0  0  0  0  0  0  0  0  0  0  0  0
   39.0580   28.4110   30.9760 H   0  0  0  0  0  0  0  0  0  0  0  0
   36.5830   27.7230   33.6980 F   0  0  0  0  0  0  0  0  0  0  0  0
   36.2850   28.6410   32.7350 C   0  0  0  0  0  0  0  0  0  0  0  0
   37.0300   28.8220   31.5750 C   0  0  0  0  0  0  0  0  0  0  0  0
   36.6820   29.7580   30.6430 C   0  0  0  0  0  0  0  0  0  0  0  0
   35.5600   30.5680   30.8320 C   0  0  0  0  0  0  0  0  0  0  0  0
   34.8050   30.4020   31.9860 C   0  0  0  0  0  0  0  0  0  0  0  0
   35.1700   29.4540   32.9110 C   0  0  0  0  0  0  0  0  0  0  0  0
   37.3130   29.8410   29.7610 H   0  0  0  0  0  0  0  0  0  0  0  0
   35.2940   31.3000   30.0980 H   0  0  0  0  0  0  0  0  0  0  0  0
   33.9450   31.0520   32.0870 H   0  0  0  0  0  0  0  0  0  0  0  0
   34.3770   29.3350   34.0430 O   0  0  0  0  0  0  0  0  0  0  0  0
   34.4830   30.3270   35.0060 C   0  0  0  0  0  0  0  0  0  0  0  0
   35.6790   30.9430   35.3150 C   0  0  0  0  0  0  0  0  0  0  0  0
   36.5640   30.6380   34.7830 H   0  0  0  0  0  0  0  0  0  0  0  0
   35.6630   31.9190   36.2940 C   0  0  0  0  0  3  0  0  0  0  0  0
   34.4810   32.2610   36.9380 C   0  0  0  0  0  0  0  0  0  0  0  0
   34.5870   33.0310   37.6800 H   0  0  0  0  0  0  0  0  0  0  0  0
   33.2850   31.6340   36.6170 C   0  0  0  0  0  0  0  0  0  0  0  0
   32.3840   31.9400   37.1540 H   0  0  0  0  0  0  0  0  0  0  0  0
   33.3020   30.6540   35.6340 C   0  0  0  0  0  3  0  0  0  0  0  0
  1 24  1  0  0  0  0
  1  6  1  0  0  0  0
  2  3  1  0  0  0  0
  3  4  2  0  0  0  0
  3 10  1  0  0  0  0
  4  9  1  0  0  0  0
  5  4  1  0  0  0  0
  6  5  2  0  0  0  0
  7  6  1  0  0  0  0
  7  2  2  0  0  0  0
  8  2  1  0  0  0  0
 10 11  1  0  0  0  0
 11 16  2  0  0  0  0
 11 12  1  0  0  0  0
 12 13  2  0  0  0  0
 13 14  1  0  0  0  0
 13 18  1  0  0  0  0
 14 19  1  0  0  0  0
 15 20  1  0  0  0  0
 15 14  2  0  0  0  0
 16 15  1  0  0  0  0
 17 12  1  0  0  0  0
 20 21  1  0  0  0  0
 20 22  1  0  0  0  0
 23 20  1  0  0  0  0
 24 29  1  0  0  0  0
 24 25  1  0  0  0  0
 26 24  1  0  0  0  0
 28 33  1  0  0  0  0
 28 27  1  0  0  0  0
 29 28  2  0  0  0  0
 30 31  2  0  0  0  0
 30 29  1  0  0  0  0
 31 32  1  0  0  0  0
 32 36  1  0  0  0  0
 32 33  2  0  0  0  0
 33 37  1  0  0  0  0
 34 30  1  0  0  0  0
 35 31  1  0  0  0  0
 37 38  1  0  0  0  0
 38 39  2  0  0  0  0
 38 46  1  0  0  0  0
 39 41  1  0  0  0  0
 40 39  1  0  0  0  0
 41 42  2  0  0  0  0
 42 43  1  0  0  0  0
 44 42  1  0  0  0  0
 44 45  1  0  0  0  0
 46 44  2  0  0  0  0
M  END
>  <minimizedAffinity>
-6.29811668

$$$$

 OpenBabel03262522293D

 46 49  0  0  0  0  0  0  0  0999 V2000
   37.2610   28.2010   30.6100 S   0  0  0  0  0  0  0  0  0  0  0  0
   34.4610   30.9310   31.5720 C   0  0  0  0  0  0  0  0  0  0  0  0
   33.8170   30.3030   32.6320 C   0  0  0  0  0  0  0  0  0  0  0  0
   34.2780   29.0640   33.0010 C   0  0  0  0  0  0  0  0  0  0  0  0
   35.3260   28.5320   32.3130 N   0  0  0  0  0  0  0  0  0  0  0  0
   35.9060   29.1500   31.3240 C   0  0  0  0  0  0  0  0  0  0  0  0
   35.4950   30.3960   30.9020 N   0  0  0  0  0  0  0  0  0  0  0  0
   34.1580   31.9100   31.2190 H   0  0  0  0  0  0  0  0  0  0  0  0
   33.7860   28.5560   33.8290 H   0  0  0  0  0  0  0  0  0  0  0  0
   32.7850   30.9500   33.2250 O   0  0  0  0  0  0  0  0  0  0  0  0
   32.6980   30.9630   34.6100 C   0  0  0  0  0  0  0  0  0  0  0  0
   31.8170   30.2810   35.4220 C   0  0  0  0  0  0  0  0  0  0  0  0
   31.8810   30.4160   36.7550 C   0  0  0  0  0  0  0  0  0  0  0  0
   32.8200   31.2300   37.2900 C   0  0  0  0  0  0  0  0  0  0  0  0
   33.7200   31.9260   36.4690 C   0  0  0  0  0  0  0  0  0  0  0  0
   33.6330   31.7720   35.1330 N   0  0  0  0  0  0  0  0  0  0  0  0
   31.1110   29.6620   34.8810 H   0  0  0  0  0  0  0  0  0  0  0  0
   31.1660   29.8590   37.3320 H   0  0  0  0  0  0  0  0  0  0  0  0
   32.8890   31.3540   38.3670 H   0  0  0  0  0  0  0  0  0  0  0  0
   34.7740   32.8390   37.0830 C   0  0  0  0  0  0  0  0  0  0  0  0
   35.7290   32.3050   37.1650 H   0  0  0  0  0  0  0  0  0  0  0  0
   34.3890   33.2300   38.0260 H   0  0  0  0  0  0  0  0  0  0  0  0
   34.8750   33.6700   36.3420 H   0  0  0  0  0  0  0  0  0  0  0  0
   37.0400   26.5230   31.2610 C   0  0  0  0  0  0  0  0  0  0  0  0
   36.0310   26.3580   31.6850 H   0  0  0  0  0  0  0  0  0  0  0  0
   37.1330   25.7720   30.4380 H   0  0  0  0  0  0  0  0  0  0  0  0
   37.1030   24.1200   32.5900 F   0  0  0  0  0  0  0  0  0  0  0  0
   38.0410   25.0630   32.8890 C   0  0  0  0  0  0  0  0  0  0  0  0
   38.1070   26.3130   32.2830 C   0  0  0  0  0  0  0  0  0  0  0  0
   39.0700   27.2200   32.6220 C   0  0  0  0  0  0  0  0  0  0  0  0
   40.0240   26.9140   33.5970 C   0  0  0  0  0  0  0  0  0  0  0  0
   39.9730   25.6700   34.2120 C   0  0  0  0  0  0  0  0  0  0  0  0
   38.9970   24.7710   33.8570 C   0  0  0  0  0  0  0  0  0  0  0  0
   39.0580   28.1760   32.1050 H   0  0  0  0  0  0  0  0  0  0  0  0
   40.7760   27.6290   33.8580 H   0  0  0  0  0  0  0  0  0  0  0  0
   40.7320   25.4790   34.9590 H   0  0  0  0  0  0  0  0  0  0  0  0
   38.9970   23.5450   34.5060 O   0  0  0  0  0  0  0  0  0  0  0  0
   38.8800   23.5520   35.8870 C   0  0  0  0  0  0  0  0  0  0  0  0
   37.8300   24.1590   36.5460 C   0  0  0  0  0  0  0  0  0  0  0  0
   37.0710   24.6460   35.9570 H   0  0  0  0  0  0  0  0  0  0  0  0
   37.8190   24.1020   37.9260 C   0  0  0  0  0  3  0  0  0  0  0  0
   38.8350   23.4540   38.6180 C   0  0  0  0  0  0  0  0  0  0  0  0
   38.7240   23.4730   39.6870 H   0  0  0  0  0  0  0  0  0  0  0  0
   39.8850   22.8480   37.9450 C   0  0  0  0  0  0  0  0  0  0  0  0
   40.6580   22.3520   38.5370 H   0  0  0  0  0  0  0  0  0  0  0  0
   39.8950   22.9060   36.5580 C   0  0  0  0  0  3  0  0  0  0  0  0
  1 24  1  0  0  0  0
  1  6  1  0  0  0  0
  2  3  1  0  0  0  0
  3  4  2  0  0  0  0
  3 10  1  0  0  0  0
  4  9  1  0  0  0  0
  5  4  1  0  0  0  0
  6  5  2  0  0  0  0
  7  6  1  0  0  0  0
  7  2  2  0  0  0  0
  8  2  1  0  0  0  0
 10 11  1  0  0  0  0
 11 16  2  0  0  0  0
 11 12  1  0  0  0  0
 12 13  2  0  0  0  0
 13 14  1  0  0  0  0
 13 18  1  0  0  0  0
 14 19  1  0  0  0  0
 15 20  1  0  0  0  0
 15 14  2  0  0  0  0
 16 15  1  0  0  0  0
 17 12  1  0  0  0  0
 20 21  1  0  0  0  0
 20 22  1  0  0  0  0
 23 20  1  0  0  0  0
 24 25  1  0  0  0  0
 24 29  1  0  0  0  0
 26 24  1  0  0  0  0
 27 28  1  0  0  0  0
 28 33  1  0  0  0  0
 29 30  1  0  0  0  0
 29 28  2  0  0  0  0
 30 31  2  0  0  0  0
 31 35  1  0  0  0  0
 31 32  1  0  0  0  0
 32 36  1  0  0  0  0
 33 32  2  0  0  0  0
 33 37  1  0  0  0  0
 34 30  1  0  0  0  0
 37 38  1  0  0  0  0
 38 39  2  0  0  0  0
 38 46  1  0  0  0  0
 39 41  1  0  0  0  0
 40 39  1  0  0  0  0
 41 42  2  0  0  0  0
 42 43  1  0  0  0  0
 44 45  1  0  0  0  0
 44 42  1  0  0  0  0
 46 44  2  0  0  0  0
M  END
>  <minimizedAffinity>
-6.1639967

$$$$

 OpenBabel03262522293D

 46 49  0  0  0  0  0  0  0  0999 V2000
   36.8980   28.9080   31.0850 S   0  0  0  0  0  0  0  0  0  0  0  0
   33.8240   30.4290   33.1960 C   0  0  0  0  0  0  0  0  0  0  0  0
   34.0980   29.9430   34.4690 C   0  0  0  0  0  0  0  0  0  0  0  0
   35.2200   29.1670   34.6170 C   0  0  0  0  0  0  0  0  0  0  0  0
   35.9880   28.9240   33.5190 N   0  0  0  0  0  0  0  0  0  0  0  0
   35.7000   29.3960   32.3400 C   0  0  0  0  0  0  0  0  0  0  0  0
   34.5900   30.1820   32.1200 N   0  0  0  0  0  0  0  0  0  0  0  0
   32.9580   31.0480   32.9950 H   0  0  0  0  0  0  0  0  0  0  0  0
   35.4520   28.7770   35.6070 H   0  0  0  0  0  0  0  0  0  0  0  0
   33.2450   30.2640   35.4720 O   0  0  0  0  0  0  0  0  0  0  0  0
   33.4250   31.4560   36.1600 C   0  0  0  0  0  0  0  0  0  0  0  0
   34.5870   31.9780   36.6860 C   0  0  0  0  0  0  0  0  0  0  0  0
   34.5720   33.1560   37.3270 C   0  0  0  0  0  0  0  0  0  0  0  0
   33.4010   33.8220   37.4510 C   0  0  0  0  0  0  0  0  0  0  0  0
   32.2150   33.2970   36.9180 C   0  0  0  0  0  0  0  0  0  0  0  0
   32.2590   32.1110   36.2790 N   0  0  0  0  0  0  0  0  0  0  0  0
   35.4600   31.3550   36.5250 H   0  0  0  0  0  0  0  0  0  0  0  0
   35.5110   33.5070   37.7130 H   0  0  0  0  0  0  0  0  0  0  0  0
   33.3670   34.7780   37.9670 H   0  0  0  0  0  0  0  0  0  0  0  0
   30.9030   34.0570   37.0640 C   0  0  0  0  0  0  0  0  0  0  0  0
   30.7020   34.6340   36.1520 H   0  0  0  0  0  0  0  0  0  0  0  0
   30.9430   34.6510   37.9780 H   0  0  0  0  0  0  0  0  0  0  0  0
   30.1350   33.2510   37.1710 H   0  0  0  0  0  0  0  0  0  0  0  0
   37.8100   27.5310   31.8300 C   0  0  0  0  0  0  0  0  0  0  0  0
   38.8190   27.3990   31.3930 H   0  0  0  0  0  0  0  0  0  0  0  0
   37.9910   27.7270   32.9160 H   0  0  0  0  0  0  0  0  0  0  0  0
   38.7140   25.1700   32.9050 F   0  0  0  0  0  0  0  0  0  0  0  0
   37.5250   25.1780   32.2370 C   0  0  0  0  0  0  0  0  0  0  0  0
   36.9700   26.3110   31.6530 C   0  0  0  0  0  0  0  0  0  0  0  0
   35.7740   26.2600   30.9960 C   0  0  0  0  0  0  0  0  0  0  0  0
   35.0690   25.0570   30.8920 C   0  0  0  0  0  0  0  0  0  0  0  0
   35.6090   23.9170   31.4700 C   0  0  0  0  0  0  0  0  0  0  0  0
   36.8140   23.9880   32.1270 C   0  0  0  0  0  0  0  0  0  0  0  0
   35.4020   27.1860   30.5640 H   0  0  0  0  0  0  0  0  0  0  0  0
   34.1320   25.0250   30.3760 H   0  0  0  0  0  0  0  0  0  0  0  0
   35.0270   23.0100   31.3640 H   0  0  0  0  0  0  0  0  0  0  0  0
   37.3020   22.8150   32.6850 O   0  0  0  0  0  0  0  0  0  0  0  0
   36.6830   21.6280   32.3230 C   0  0  0  0  0  0  0  0  0  0  0  0
   36.7840   21.0890   31.0560 C   0  0  0  0  0  0  0  0  0  0  0  0
   37.3690   21.6160   30.3220 H   0  0  0  0  0  0  0  0  0  0  0  0
   36.1230   19.9000   30.8110 C   0  0  0  0  0  3  0  0  0  0  0  0
   35.3860   19.2770   31.8100 C   0  0  0  0  0  0  0  0  0  0  0  0
   34.9160   18.3600   31.5070 H   0  0  0  0  0  0  0  0  0  0  0  0
   35.2940   19.8290   33.0800 C   0  0  0  0  0  0  0  0  0  0  0  0
   34.7010   19.2990   33.8290 H   0  0  0  0  0  0  0  0  0  0  0  0
   35.9570   21.0240   33.3250 C   0  0  0  0  0  3  0  0  0  0  0  0
  1 24  1  0  0  0  0
  1  6  1  0  0  0  0
  2  3  1  0  0  0  0
  3  4  2  0  0  0  0
  3 10  1  0  0  0  0
  4  9  1  0  0  0  0
  5  4  1  0  0  0  0
  6  5  2  0  0  0  0
  7  6  1  0  0  0  0
  7  2  2  0  0  0  0
  8  2  1  0  0  0  0
 10 11  1  0  0  0  0
 11 16  2  0  0  0  0
 11 12  1  0  0  0  0
 12 13  2  0  0  0  0
 13 14  1  0  0  0  0
 13 18  1  0  0  0  0
 14 19  1  0  0  0  0
 15 20  1  0  0  0  0
 15 14  2  0  0  0  0
 16 15  1  0  0  0  0
 17 12  1  0  0  0  0
 20 23  1  0  0  0  0
 20 22  1  0  0  0  0
 21 20  1  0  0  0  0
 24 26  1  0  0  0  0
 25 24  1  0  0  0  0
 28 27  1  0  0  0  0
 29 24  1  0  0  0  0
 29 28  2  0  0  0  0
 30 29  1  0  0  0  0
 31 30  2  0  0  0  0
 31 32  1  0  0  0  0
 32 33  2  0  0  0  0
 33 28  1  0  0  0  0
 33 37  1  0  0  0  0
 34 30  1  0  0  0  0
 35 31  1  0  0  0  0
 36 32  1  0  0  0  0
 38 37  1  0  0  0  0
 38 46  1  0  0  0  0
 39 38  2  0  0  0  0
 40 39  1  0  0  0  0
 41 39  1  0  0  0  0
 41 42  2  0  0  0  0
 42 44  1  0  0  0  0
 43 42  1  0  0  0  0
 44 46  2  0  0  0  0
 44 45  1  0  0  0  0
M  END
>  <minimizedAffinity>
-6.04963827

$$$$

 OpenBabel03262522293D

 46 49  0  0  0  0  0  0  0  0999 V2000
   35.9470   21.2110   31.1930 S   0  0  0  0  0  0  0  0  0  0  0  0
   37.5380   24.8860   30.7700 C   0  0  0  0  0  0  0  0  0  0  0  0
   36.4570   25.6940   31.1050 C   0  0  0  0  0  0  0  0  0  0  0  0
   35.2860   25.0650   31.4480 C   0  0  0  0  0  0  0  0  0  0  0  0
   35.2550   23.7040   31.4370 N   0  0  0  0  0  0  0  0  0  0  0  0
   36.2880   22.9780   31.1160 C   0  0  0  0  0  0  0  0  0  0  0  0
   37.4940   23.5430   30.7630 N   0  0  0  0  0  0  0  0  0  0  0  0
   38.4970   25.3040   30.4880 H   0  0  0  0  0  0  0  0  0  0  0  0
   34.4280   25.6810   31.7140 H   0  0  0  0  0  0  0  0  0  0  0  0
   36.6310   27.0370   31.0720 O   0  0  0  0  0  0  0  0  0  0  0  0
   36.3870   27.7810   32.2180 C   0  0  0  0  0  0  0  0  0  0  0  0
   35.5070   28.8290   32.3920 C   0  0  0  0  0  0  0  0  0  0  0  0
   35.4040   29.4360   33.5830 C   0  0  0  0  0  0  0  0  0  0  0  0
   36.1740   29.0070   34.6100 C   0  0  0  0  0  0  0  0  0  0  0  0
   37.0700   27.9420   34.4390 C   0  0  0  0  0  0  0  0  0  0  0  0
   37.1540   27.3500   33.2320 N   0  0  0  0  0  0  0  0  0  0  0  0
   34.9460   29.0830   31.5000 H   0  0  0  0  0  0  0  0  0  0  0  0
   34.7010   30.2460   33.6530 H   0  0  0  0  0  0  0  0  0  0  0  0
   36.1050   29.4850   35.5830 H   0  0  0  0  0  0  0  0  0  0  0  0
   37.9310   27.4670   35.6030 C   0  0  0  0  0  0  0  0  0  0  0  0
   37.4620   26.6010   36.0870 H   0  0  0  0  0  0  0  0  0  0  0  0
   38.1170   28.3130   36.2670 H   0  0  0  0  0  0  0  0  0  0  0  0
   38.8880   27.1500   35.1190 H   0  0  0  0  0  0  0  0  0  0  0  0
   37.2620   20.5330   32.2410 C   0  0  0  0  0  0  0  0  0  0  0  0
   37.3440   19.4310   32.1660 H   0  0  0  0  0  0  0  0  0  0  0  0
   38.2590   20.9190   31.9110 H   0  0  0  0  0  0  0  0  0  0  0  0
   38.8890   22.4380   33.3690 F   0  0  0  0  0  0  0  0  0  0  0  0
   37.8550   21.9350   34.1030 C   0  0  0  0  0  0  0  0  0  0  0  0
   36.9690   20.9700   33.6370 C   0  0  0  0  0  0  0  0  0  0  0  0
   35.9510   20.5020   34.4180 C   0  0  0  0  0  0  0  0  0  0  0  0
   35.7700   20.9840   35.7170 C   0  0  0  0  0  0  0  0  0  0  0  0
   36.6450   21.9490   36.1970 C   0  0  0  0  0  0  0  0  0  0  0  0
   37.6640   22.4070   35.3970 C   0  0  0  0  0  0  0  0  0  0  0  0
   35.2980   19.7470   33.9860 H   0  0  0  0  0  0  0  0  0  0  0  0
   34.9690   20.6140   36.3220 H   0  0  0  0  0  0  0  0  0  0  0  0
   36.4650   22.2920   37.2070 H   0  0  0  0  0  0  0  0  0  0  0  0
   38.5060   23.3710   35.9320 O   0  0  0  0  0  0  0  0  0  0  0  0
   39.8160   23.0020   36.1950 C   0  0  0  0  0  0  0  0  0  0  0  0
   40.1430   21.9380   37.0100 C   0  0  0  0  0  0  0  0  0  0  0  0
   39.3440   21.3730   37.4590 H   0  0  0  0  0  0  0  0  0  0  0  0
   41.4840   21.6630   37.2000 C   0  0  0  0  0  3  0  0  0  0  0  0
   42.4610   22.4370   36.5870 C   0  0  0  0  0  0  0  0  0  0  0  0
   43.4690   22.1330   36.8050 H   0  0  0  0  0  0  0  0  0  0  0  0
   42.1190   23.5040   35.7690 C   0  0  0  0  0  0  0  0  0  0  0  0
   42.9260   24.0810   35.3110 H   0  0  0  0  0  0  0  0  0  0  0  0
   40.7720   23.7790   35.5800 C   0  0  0  0  0  3  0  0  0  0  0  0
  1 24  1  0  0  0  0
  2  3  1  0  0  0  0
  3  4  2  0  0  0  0
  4  9  1  0  0  0  0
  5  4  1  0  0  0  0
  6  1  1  0  0  0  0
  6  5  2  0  0  0  0
  7  2  2  0  0  0  0
  7  6  1  0  0  0  0
  8  2  1  0  0  0  0
 10  3  1  0  0  0  0
 10 11  1  0  0  0  0
 11 12  2  0  0  0  0
 11 16  1  0  0  0  0
 12 13  1  0  0  0  0
 13 18  1  0  0  0  0
 13 14  2  0  0  0  0
 14 19  1  0  0  0  0
 15 14  1  0  0  0  0
 15 20  1  0  0  0  0
 16 15  2  0  0  0  0
 17 12  1  0  0  0  0
 20 21  1  0  0  0  0
 20 22  1  0  0  0  0
 23 20  1  0  0  0  0
 24 29  1  0  0  0  0
 25 24  1  0  0  0  0
 26 24  1  0  0  0  0
 27 28  1  0  0  0  0
 28 33  1  0  0  0  0
 29 28  2  0  0  0  0
 29 30  1  0  0  0  0
 30 31  2  0  0  0  0
 31 32  1  0  0  0  0
 31 35  1  0  0  0  0
 32 36  1  0  0  0  0
 33 37  1  0  0  0  0
 33 32  2  0  0  0  0
 34 30  1  0  0  0  0
 37 38  1  0  0  0  0
 38 39  1  0  0  0  0
 39 41  2  0  0  0  0
 39 40  1  0  0  0  0
 42 43  1  0  0  0  0
 42 41  1  0  0  0  0
 44 42  2  0  0  0  0
 45 44  1  0  0  0  0
 46 44  1  0  0  0  0
 46 38  2  0  0  0  0
M  END
>  <minimizedAffinity>
-6.02681732

$$$$

 OpenBabel03262522293D

 46 49  0  0  0  0  0  0  0  0999 V2000
   36.3650   25.9680   31.4350 S   0  0  0  0  0  0  0  0  0  0  0  0
   35.7490   29.9450   31.5990 C   0  0  0  0  0  0  0  0  0  0  0  0
   35.7480   30.1660   32.9710 C   0  0  0  0  0  0  0  0  0  0  0  0
   35.9380   29.0760   33.7830 C   0  0  0  0  0  0  0  0  0  0  0  0
   36.1130   27.8580   33.2010 N   0  0  0  0  0  0  0  0  0  0  0  0
   36.1080   27.6870   31.9100 C   0  0  0  0  0  0  0  0  0  0  0  0
   35.9240   28.7370   31.0370 N   0  0  0  0  0  0  0  0  0  0  0  0
   35.6060   30.7510   30.8900 H   0  0  0  0  0  0  0  0  0  0  0  0
   35.9400   29.2300   34.8620 H   0  0  0  0  0  0  0  0  0  0  0  0
   35.5600   31.4330   33.4120 O   0  0  0  0  0  0  0  0  0  0  0  0
   35.0010   31.6400   34.6660 C   0  0  0  0  0  0  0  0  0  0  0  0
   35.6390   31.9000   35.8600 C   0  0  0  0  0  0  0  0  0  0  0  0
   34.9290   32.0740   36.9840 C   0  0  0  0  0  0  0  0  0  0  0  0
   33.5800   31.9890   36.9300 C   0  0  0  0  0  0  0  0  0  0  0  0
   32.9250   31.7250   35.7180 C   0  0  0  0  0  0  0  0  0  0  0  0
   33.6630   31.5540   34.6040 N   0  0  0  0  0  0  0  0  0  0  0  0
   36.7190   31.9440   35.7790 H   0  0  0  0  0  0  0  0  0  0  0  0
   35.4860   32.2730   37.8810 H   0  0  0  0  0  0  0  0  0  0  0  0
   32.9860   32.1270   37.8290 H   0  0  0  0  0  0  0  0  0  0  0  0
   31.4050   31.6330   35.6690 C   0  0  0  0  0  0  0  0  0  0  0  0
   30.9820   32.5910   35.3420 H   0  0  0  0  0  0  0  0  0  0  0  0
   31.0450   31.2850   36.6390 H   0  0  0  0  0  0  0  0  0  0  0  0
   31.2060   30.8530   34.8920 H   0  0  0  0  0  0  0  0  0  0  0  0
   38.0760   25.9060   30.8400 C   0  0  0  0  0  0  0  0  0  0  0  0
   38.2980   24.9840   30.2680 H   0  0  0  0  0  0  0  0  0  0  0  0
   38.2690   26.7420   30.1230 H   0  0  0  0  0  0  0  0  0  0  0  0
   38.4810   23.6750   32.3910 F   0  0  0  0  0  0  0  0  0  0  0  0
   39.0870   24.8440   32.7460 C   0  0  0  0  0  0  0  0  0  0  0  0
   38.9550   26.0340   32.0390 C   0  0  0  0  0  0  0  0  0  0  0  0
   39.5870   27.1760   32.4410 C   0  0  0  0  0  0  0  0  0  0  0  0
   40.3900   27.1800   33.5850 C   0  0  0  0  0  0  0  0  0  0  0  0
   40.5330   26.0000   34.3030 C   0  0  0  0  0  0  0  0  0  0  0  0
   39.8900   24.8610   33.8820 C   0  0  0  0  0  0  0  0  0  0  0  0
   39.4360   28.0680   31.8380 H   0  0  0  0  0  0  0  0  0  0  0  0
   40.8820   28.0780   33.8940 H   0  0  0  0  0  0  0  0  0  0  0  0
   41.1650   26.0530   35.1800 H   0  0  0  0  0  0  0  0  0  0  0  0
   40.0710   23.7140   34.6400 O   0  0  0  0  0  0  0  0  0  0  0  0
   39.4710   23.6700   35.8880 C   0  0  0  0  0  0  0  0  0  0  0  0
   38.2430   24.2450   36.1480 C   0  0  0  0  0  0  0  0  0  0  0  0
   37.7340   24.7480   35.3430 H   0  0  0  0  0  0  0  0  0  0  0  0
   37.7430   24.1380   37.4310 C   0  0  0  0  0  3  0  0  0  0  0  0
   38.4570   23.4710   38.4190 C   0  0  0  0  0  0  0  0  0  0  0  0
   37.9730   23.4500   39.3780 H   0  0  0  0  0  0  0  0  0  0  0  0
   39.6900   22.8960   38.1460 C   0  0  0  0  0  0  0  0  0  0  0  0
   40.2110   22.3850   38.9580 H   0  0  0  0  0  0  0  0  0  0  0  0
   40.1920   23.0060   36.8560 C   0  0  0  0  0  3  0  0  0  0  0  0
  1  6  1  0  0  0  0
  2  3  1  0  0  0  0
  3 10  1  0  0  0  0
  3  4  2  0  0  0  0
  4  9  1  0  0  0  0
  5  4  1  0  0  0  0
  6  5  2  0  0  0  0
  7  2  2  0  0  0  0
  7  6  1  0  0  0  0
  8  2  1  0  0  0  0
 10 11  1  0  0  0  0
 11 12  1  0  0  0  0
 12 13  2  0  0  0  0
 13 18  1  0  0  0  0
 14 13  1  0  0  0  0
 14 19  1  0  0  0  0
 15 14  2  0  0  0  0
 16 11  2  0  0  0  0
 16 15  1  0  0  0  0
 17 12  1  0  0  0  0
 20 15  1  0  0  0  0
 20 22  1  0  0  0  0
 21 20  1  0  0  0  0
 23 20  1  0  0  0  0
 24  1  1  0  0  0  0
 24 29  1  0  0  0  0
 25 24  1  0  0  0  0
 26 24  1  0  0  0  0
 27 28  1  0  0  0  0
 28 33  1  0  0  0  0
 29 30  1  0  0  0  0
 29 28  2  0  0  0  0
 30 31  2  0  0  0  0
 31 35  1  0  0  0  0
 31 32  1  0  0  0  0
 32 36  1  0  0  0  0
 33 32  2  0  0  0  0
 33 37  1  0  0  0  0
 34 30  1  0  0  0  0
 37 38  1  0  0  0  0
 38 39  2  0  0  0  0
 38 46  1  0  0  0  0
 39 41  1  0  0  0  0
 40 39  1  0  0  0  0
 41 42  2  0  0  0  0
 42 43  1  0  0  0  0
 44 42  1  0  0  0  0
 44 45  1  0  0  0  0
 46 44  2  0  0  0  0
M  END
>  <minimizedAffinity>
-5.97825289

$$$$

 OpenBabel03262522293D

 46 49  0  0  0  0  0  0  0  0999 V2000
   38.3420   27.7930   30.5130 S   0  0  0  0  0  0  0  0  0  0  0  0
   35.2650   30.1420   31.6260 C   0  0  0  0  0  0  0  0  0  0  0  0
   35.0850   29.7510   32.9480 C   0  0  0  0  0  0  0  0  0  0  0  0
   35.9230   28.7790   33.4350 C   0  0  0  0  0  0  0  0  0  0  0  0
   36.8690   28.2630   32.6020 N   0  0  0  0  0  0  0  0  0  0  0  0
   37.0090   28.6540   31.3680 C   0  0  0  0  0  0  0  0  0  0  0  0
   36.2030   29.6250   30.8150 N   0  0  0  0  0  0  0  0  0  0  0  0
   34.6450   30.9020   31.1660 H   0  0  0  0  0  0  0  0  0  0  0  0
   35.7970   28.4590   34.4690 H   0  0  0  0  0  0  0  0  0  0  0  0
   34.1010   30.3490   33.6610 O   0  0  0  0  0  0  0  0  0  0  0  0
   32.9660   29.6240   33.9950 C   0  0  0  0  0  0  0  0  0  0  0  0
   32.0540   29.0200   33.1550 C   0  0  0  0  0  0  0  0  0  0  0  0
   31.0050   28.3540   33.6610 C   0  0  0  0  0  0  0  0  0  0  0  0
   30.8560   28.2830   35.0040 C   0  0  0  0  0  0  0  0  0  0  0  0
   31.7810   28.8940   35.8630 C   0  0  0  0  0  0  0  0  0  0  0  0
   32.8250   29.5580   35.3280 N   0  0  0  0  0  0  0  0  0  0  0  0
   32.2780   29.1450   32.1020 H   0  0  0  0  0  0  0  0  0  0  0  0
   30.3320   27.9060   32.9530 H   0  0  0  0  0  0  0  0  0  0  0  0
   30.0140   27.7480   35.4330 H   0  0  0  0  0  0  0  0  0  0  0  0
   31.6020   28.8070   37.3730 C   0  0  0  0  0  0  0  0  0  0  0  0
   32.2190   27.9940   37.7770 H   0  0  0  0  0  0  0  0  0  0  0  0
   30.5360   28.7210   37.5940 H   0  0  0  0  0  0  0  0  0  0  0  0
   31.9870   29.7880   37.7480 H   0  0  0  0  0  0  0  0  0  0  0  0
   38.3470   26.1280   31.2290 C   0  0  0  0  0  0  0  0  0  0  0  0
   37.3530   25.8210   31.6070 H   0  0  0  0  0  0  0  0  0  0  0  0
   38.6040   25.3700   30.4480 H   0  0  0  0  0  0  0  0  0  0  0  0
   38.5550   23.8920   32.8120 F   0  0  0  0  0  0  0  0  0  0  0  0
   39.3870   24.9470   33.0470 C   0  0  0  0  0  0  0  0  0  0  0  0
   39.3730   26.1270   32.3130 C   0  0  0  0  0  0  0  0  0  0  0  0
   40.2300   27.1520   32.5940 C   0  0  0  0  0  0  0  0  0  0  0  0
   41.1540   27.0410   33.6370 C   0  0  0  0  0  0  0  0  0  0  0  0
   41.1820   25.8690   34.3800 C   0  0  0  0  0  0  0  0  0  0  0  0
   40.3110   24.8490   34.0820 C   0  0  0  0  0  0  0  0  0  0  0  0
   40.1600   28.0440   31.9770 H   0  0  0  0  0  0  0  0  0  0  0  0
   41.8240   27.8480   33.8520 H   0  0  0  0  0  0  0  0  0  0  0  0
   41.9140   25.8300   35.1760 H   0  0  0  0  0  0  0  0  0  0  0  0
   40.3880   23.7030   34.8600 O   0  0  0  0  0  0  0  0  0  0  0  0
   39.7050   23.7010   36.0660 C   0  0  0  0  0  0  0  0  0  0  0  0
   40.0970   22.9370   37.1460 C   0  0  0  0  0  0  0  0  0  0  0  0
   40.9720   22.3170   37.0430 H   0  0  0  0  0  0  0  0  0  0  0  0
   39.3380   23.0160   38.2980 C   0  0  0  0  0  3  0  0  0  0  0  0
   38.2210   23.8400   38.3580 C   0  0  0  0  0  0  0  0  0  0  0  0
   37.7080   23.8230   39.3020 H   0  0  0  0  0  0  0  0  0  0  0  0
   37.8370   24.6040   37.2650 C   0  0  0  0  0  0  0  0  0  0  0  0
   36.9510   25.2350   37.3640 H   0  0  0  0  0  0  0  0  0  0  0  0
   38.6000   24.5230   36.1080 C   0  0  0  0  0  3  0  0  0  0  0  0
  1 24  1  0  0  0  0
  1  6  1  0  0  0  0
  2  3  1  0  0  0  0
  3  4  2  0  0  0  0
  3 10  1  0  0  0  0
  4  9  1  0  0  0  0
  5  4  1  0  0  0  0
  6  5  2  0  0  0  0
  7  6  1  0  0  0  0
  7  2  2  0  0  0  0
  8  2  1  0  0  0  0
 10 11  1  0  0  0  0
 11 16  1  0  0  0  0
 12 13  1  0  0  0  0
 12 11  2  0  0  0  0
 13 14  2  0  0  0  0
 14 19  1  0  0  0  0
 14 15  1  0  0  0  0
 15 20  1  0  0  0  0
 16 15  2  0  0  0  0
 17 12  1  0  0  0  0
 18 13  1  0  0  0  0
 20 22  1  0  0  0  0
 20 23  1  0  0  0  0
 20 21  1  0  0  0  0
 24 25  1  0  0  0  0
 24 29  1  0  0  0  0
 26 24  1  0  0  0  0
 27 28  1  0  0  0  0
 28 33  1  0  0  0  0
 29 30  1  0  0  0  0
 29 28  2  0  0  0  0
 30 31  2  0  0  0  0
 31 35  1  0  0  0  0
 31 32  1  0  0  0  0
 32 36  1  0  0  0  0
 33 32  2  0  0  0  0
 33 37  1  0  0  0  0
 34 30  1  0  0  0  0
 37 38  1  0  0  0  0
 38 46  2  0  0  0  0
 38 39  1  0  0  0  0
 39 41  2  0  0  0  0
 40 39  1  0  0  0  0
 41 42  1  0  0  0  0
 42 43  1  0  0  0  0
 44 45  1  0  0  0  0
 44 42  2  0  0  0  0
 46 44  1  0  0  0  0
M  END
>  <minimizedAffinity>
-5.87374592

$$$$

 OpenBabel03262522293D

 46 49  0  0  0  0  0  0  0  0999 V2000
   37.6620   26.6730   31.1750 S   0  0  0  0  0  0  0  0  0  0  0  0
   36.2210   30.4080   31.6240 C   0  0  0  0  0  0  0  0  0  0  0  0
   35.2790   30.2200   32.6280 C   0  0  0  0  0  0  0  0  0  0  0  0
   35.1330   28.9470   33.1220 C   0  0  0  0  0  0  0  0  0  0  0  0
   35.9100   27.9580   32.6020 N   0  0  0  0  0  0  0  0  0  0  0  0
   36.7840   28.1700   31.6590 C   0  0  0  0  0  0  0  0  0  0  0  0
   36.9830   29.4230   31.1190 N   0  0  0  0  0  0  0  0  0  0  0  0
   36.3980   31.3800   31.1810 H   0  0  0  0  0  0  0  0  0  0  0  0
   34.3990   28.7810   33.9100 H   0  0  0  0  0  0  0  0  0  0  0  0
   34.5740   31.2970   33.0500 O   0  0  0  0  0  0  0  0  0  0  0  0
   34.7340   31.7440   34.3540 C   0  0  0  0  0  0  0  0  0  0  0  0
   35.7320   32.5410   34.8740 C   0  0  0  0  0  0  0  0  0  0  0  0
   35.7250   32.8760   36.1720 C   0  0  0  0  0  0  0  0  0  0  0  0
   34.7260   32.4220   36.9640 C   0  0  0  0  0  0  0  0  0  0  0  0
   33.7080   31.6120   36.4410 C   0  0  0  0  0  0  0  0  0  0  0  0
   33.7400   31.2900   35.1330 N   0  0  0  0  0  0  0  0  0  0  0  0
   36.4760   32.8420   34.1450 H   0  0  0  0  0  0  0  0  0  0  0  0
   36.5310   33.4990   36.5140 H   0  0  0  0  0  0  0  0  0  0  0  0
   34.7020   32.6820   38.0180 H   0  0  0  0  0  0  0  0  0  0  0  0
   32.5880   31.1070   37.3420 C   0  0  0  0  0  0  0  0  0  0  0  0
   31.7080   31.7560   37.2460 H   0  0  0  0  0  0  0  0  0  0  0  0
   32.9740   31.0130   38.3590 H   0  0  0  0  0  0  0  0  0  0  0  0
   32.3490   30.0940   36.9340 H   0  0  0  0  0  0  0  0  0  0  0  0
   39.2500   26.7710   32.0450 C   0  0  0  0  0  0  0  0  0  0  0  0
   40.0580   26.2210   31.5230 H   0  0  0  0  0  0  0  0  0  0  0  0
   39.6050   27.8300   32.0890 H   0  0  0  0  0  0  0  0  0  0  0  0
   39.4320   24.0570   32.4310 F   0  0  0  0  0  0  0  0  0  0  0  0
   39.1390   24.8560   33.4960 C   0  0  0  0  0  0  0  0  0  0  0  0
   39.0220   26.2390   33.4200 C   0  0  0  0  0  0  0  0  0  0  0  0
   38.7260   26.9910   34.5220 C   0  0  0  0  0  0  0  0  0  0  0  0
   38.5330   26.3850   35.7660 C   0  0  0  0  0  0  0  0  0  0  0  0
   38.6470   25.0040   35.8590 C   0  0  0  0  0  0  0  0  0  0  0  0
   38.9450   24.2650   34.7400 C   0  0  0  0  0  0  0  0  0  0  0  0
   38.6500   28.0670   34.3850 H   0  0  0  0  0  0  0  0  0  0  0  0
   38.3020   26.9800   36.6250 H   0  0  0  0  0  0  0  0  0  0  0  0
   38.4890   24.5810   36.8430 H   0  0  0  0  0  0  0  0  0  0  0  0
   39.0470   22.8910   34.8960 O   0  0  0  0  0  0  0  0  0  0  0  0
   37.8980   22.1390   34.7070 C   0  0  0  0  0  0  0  0  0  0  0  0
   37.4680   21.7300   33.4610 C   0  0  0  0  0  0  0  0  0  0  0  0
   38.0540   22.0090   32.6020 H   0  0  0  0  0  0  0  0  0  0  0  0
   36.3070   20.9830   33.3950 C   0  0  0  0  0  3  0  0  0  0  0  0
   35.6040   20.6610   34.5480 C   0  0  0  0  0  0  0  0  0  0  0  0
   34.7170   20.0780   34.3780 H   0  0  0  0  0  0  0  0  0  0  0  0
   36.0460   21.0770   35.7950 C   0  0  0  0  0  0  0  0  0  0  0  0
   35.4550   20.7970   36.6710 H   0  0  0  0  0  0  0  0  0  0  0  0
   37.2120   21.8270   35.8600 C   0  0  0  0  0  3  0  0  0  0  0  0
  1  6  1  0  0  0  0
  1 24  1  0  0  0  0
  2  3  1  0  0  0  0
  3 10  1  0  0  0  0
  3  4  2  0  0  0  0
  4  9  1  0  0  0  0
  5  4  1  0  0  0  0
  6  5  2  0  0  0  0
  7  2  2  0  0  0  0
  7  6  1  0  0  0  0
  8  2  1  0  0  0  0
 10 11  1  0  0  0  0
 11 12  2  0  0  0  0
 11 16  1  0  0  0  0
 12 13  1  0  0  0  0
 13 18  1  0  0  0  0
 13 14  2  0  0  0  0
 14 19  1  0  0  0  0
 15 14  1  0  0  0  0
 15 20  1  0  0  0  0
 16 15  2  0  0  0  0
 17 12  1  0  0  0  0
 20 22  1  0  0  0  0
 21 20  1  0  0  0  0
 23 20  1  0  0  0  0
 24 26  1  0  0  0  0
 24 29  1  0  0  0  0
 25 24  1  0  0  0  0
 27 28  1  0  0  0  0
 28 33  1  0  0  0  0
 29 28  2  0  0  0  0
 29 30  1  0  0  0  0
 30 31  2  0  0  0  0
 31 32  1  0  0  0  0
 31 35  1  0  0  0  0
 32 36  1  0  0  0  0
 33 37  1  0  0  0  0
 33 32  2  0  0  0  0
 34 30  1  0  0  0  0
 38 37  1  0  0  0  0
 38 46  1  0  0  0  0
 39 38  2  0  0  0  0
 40 39  1  0  0  0  0
 41 39  1  0  0  0  0
 41 42  2  0  0  0  0
 42 44  1  0  0  0  0
 43 42  1  0  0  0  0
 44 46  2  0  0  0  0
 44 45  1  0  0  0  0
M  END
>  <minimizedAffinity>
-5.86041689

$$$$
