
 OpenBabel03272507533D

 32 34  0  0  0  0  0  0  0  0999 V2000
   36.4480   31.1740   48.7350 N   0  0  0  0  0  0  0  0  0  0  0  0
   36.7000   32.0550   49.7240 C   0  0  0  0  0  0  0  0  0  0  0  0
   37.7640   32.9450   49.5840 C   0  0  0  0  0  0  0  0  0  0  0  0
   38.4670   32.8260   48.4110 C   0  0  0  0  0  0  0  0  0  0  0  0
   39.4290   33.6530   48.3200 O   0  0  0  0  0  0  0  0  0  0  0  0
   38.2450   31.9710   47.4170 N   0  0  0  0  0  0  0  0  0  0  0  0
   37.1990   31.1310   47.6100 C   0  0  0  0  0  0  0  0  0  0  0  0
   36.9630   30.3030   46.6770 O   0  0  0  0  0  0  0  0  0  0  0  0
   36.0540   32.0290   50.5930 H   0  0  0  0  0  0  0  0  0  0  0  0
   37.9730   33.6440   50.3590 H   0  0  0  0  0  0  0  0  0  0  0  0
   39.0400   31.9320   46.2360 C   0  0  0  0  0  0  0  0  0  0  0  0
   40.2110   31.2160   46.0590 C   0  0  0  0  0  0  0  0  0  0  0  0
   40.5410   30.6390   46.8920 H   0  0  0  0  0  0  0  0  0  0  0  0
   40.8750   31.2820   44.8370 C   0  0  0  0  0  0  0  0  0  0  0  0
   40.4100   32.0460   43.7740 C   0  0  0  0  0  0  0  0  0  0  0  0
   40.9590   32.0710   42.8410 H   0  0  0  0  0  0  0  0  0  0  0  0
   39.2380   32.7500   43.9820 C   0  0  0  0  0  0  0  0  0  0  0  0
   38.9310   33.3280   43.1080 H   0  0  0  0  0  0  0  0  0  0  0  0
   38.5550   32.6990   45.1970 C   0  0  0  0  0  0  0  0  0  0  0  0
   35.2320   29.5200   50.0170 C   0  0  0  0  0  0  0  0  0  0  0  0
   35.3710   30.2280   48.8160 C   0  0  0  0  0  0  0  0  0  0  0  0
   34.4700   29.9790   47.7790 C   0  0  0  0  0  0  0  0  0  0  0  0
   33.5000   29.0620   47.9840 N   0  0  0  0  0  0  0  0  0  0  0  0
   33.3670   28.3930   49.1180 C   0  0  0  0  0  0  0  0  0  0  0  0
   34.2250   28.6140   50.1340 N   0  0  0  0  0  0  0  0  0  0  0  0
   34.6050   30.5400   46.8680 H   0  0  0  0  0  0  0  0  0  0  0  0
   32.5900   27.6550   49.2850 H   0  0  0  0  0  0  0  0  0  0  0  0
   37.3830   29.1930   51.4450 C   0  0  0  0  0  0  0  0  0  0  0  0
   38.0710   28.5750   50.6100 O   0  0  0  0  0  0  0  0  0  0  0  0
   36.0720   29.6940   51.1430 N   0  0  0  0  0  0  0  0  0  0  0  0
   37.8750   29.2970   52.3740 H   0  0  0  0  0  0  0  0  0  0  0  0
   35.7370   30.2940   51.9440 H   0  0  0  0  0  0  0  0  0  0  0  0
  1 21  1  0  0  0  0
  1  2  1  0  0  0  0
  2  9  1  0  0  0  0
  3  2  2  0  0  0  0
  3 10  1  0  0  0  0
  4  3  1  0  0  0  0
  5  4  2  0  0  0  0
  6  7  1  0  0  0  0
  6  4  1  0  0  0  0
  7  1  1  0  0  0  0
  8  7  2  0  0  0  0
 11  6  1  0  0  0  0
 12 11  1  0  0  0  0
 12 13  1  0  0  0  0
 14 12  2  0  0  0  0
 15 17  2  0  0  0  0
 15 14  1  0  0  0  0
 16 15  1  0  0  0  0
 17 19  1  0  0  0  0
 18 17  1  0  0  0  0
 19 11  2  0  0  0  0
 20 25  1  0  0  0  0
 20 30  1  0  0  0  0
 21 20  2  0  0  0  0
 22 23  2  0  0  0  0
 22 21  1  0  0  0  0
 23 24  1  0  0  0  0
 24 27  1  0  0  0  0
 24 25  2  0  0  0  0
 26 22  1  0  0  0  0
 28 31  1  0  0  0  0
 29 28  2  0  0  0  0
 30 28  1  0  0  0  0
 30 32  1  0  0  0  0
M  END
>  <minimizedAffinity>
-6.18838596

>  <minimizedRMSD>
1.30425501

$$$$
