
 OpenBabel03272510043D

 37 39  0  0  0  0  0  0  0  0999 V2000
   34.9970   29.6430   45.4170 C   0  0  0  0  0  0  0  0  0  0  0  0
   34.8920   29.5430   46.7680 C   0  0  0  0  0  0  0  0  0  0  0  0
   33.7650   28.9470   47.3280 C   0  0  0  0  0  0  0  0  0  0  0  0
   32.7300   28.4470   46.5670 C   0  0  0  0  0  0  0  0  0  0  0  0
   32.8020   28.5350   45.1970 C   0  0  0  0  0  0  0  0  0  0  0  0
   33.9280   29.1270   44.6760 C   0  0  0  0  0  0  0  0  0  0  0  0
   33.7120   28.8800   48.4260 H   0  0  0  0  0  0  0  0  0  0  0  0
   31.9200   28.0120   47.0930 H   0  0  0  0  0  0  0  0  0  0  0  0
   31.9810   28.1380   44.6590 H   0  0  0  0  0  0  0  0  0  0  0  0
   33.8650   29.1400   43.5800 H   0  0  0  0  0  0  0  0  0  0  0  0
   37.6130   31.6640   48.0360 C   0  0  0  0  0  0  0  0  0  0  0  0
   36.6200   31.1360   47.2250 C   0  0  0  0  0  0  0  0  0  0  0  0
   35.8920   30.0650   47.6360 C   0  0  0  0  0  0  0  0  0  0  0  0
   36.1810   29.5520   48.8640 N   0  0  0  0  0  0  0  0  0  0  0  0
   37.1350   30.0590   49.6530 C   0  0  0  0  0  0  0  0  0  0  0  0
   37.8460   31.1100   49.2320 N   0  0  0  0  0  0  0  0  0  0  0  0
   38.2720   32.4910   47.8680 H   0  0  0  0  0  0  0  0  0  0  0  0
   36.6160   31.7700   46.3710 H   0  0  0  0  0  0  0  0  0  0  0  0
   37.2990   29.4390   50.9960 C   0  0  0  0  0  0  0  0  0  0  0  0
   37.7920   30.3380   51.9240 F   0  0  0  0  0  0  0  0  0  0  0  0
   35.9860   29.1370   51.5220 F   0  0  0  0  0  0  0  0  0  0  0  0
   37.9300   28.2880   51.0560 F   0  0  0  0  0  0  0  0  0  0  0  0
   36.3450   30.3110   44.6090 S   0  0  0  0  0  0  0  0  0  0  0  0
   36.0520   31.6620   44.0740 O   0  0  0  0  0  0  0  0  0  0  0  0
   36.2170   29.5820   43.2850 O   0  0  0  0  0  0  0  0  0  0  0  0
   37.9610   29.7850   44.6180 C   0  0  0  0  0  0  0  0  0  0  0  0
   38.0480   29.1900   45.6120 H   0  0  0  0  0  0  0  0  0  0  0  0
   38.1760   28.9590   43.9170 H   0  0  0  0  0  0  0  0  0  0  0  0
   38.9950   30.7830   44.7940 C   0  0  0  0  0  0  0  0  0  0  0  0
   38.8270   31.9260   44.0680 C   0  0  0  0  0  0  0  0  0  0  0  0
   37.9780   32.1060   43.3920 H   0  0  0  0  0  0  0  0  0  0  0  0
   39.7000   33.0130   44.0850 C   0  0  0  0  0  3  0  0  0  0  0  0
   40.8190   32.9110   44.9050 C   0  0  0  0  0  0  0  0  0  0  0  0
   41.5050   33.7450   44.9300 H   0  0  0  0  0  0  0  0  0  0  0  0
   40.9960   31.7590   45.6420 C   0  0  0  0  0  0  0  0  0  0  0  0
   41.8720   31.6820   46.2820 H   0  0  0  0  0  0  0  0  0  0  0  0
   40.1050   30.7070   45.5940 C   0  0  0  0  0  3  0  0  0  0  0  0
  1  2  1  0  0  0  0
  2  3  2  0  0  0  0
  2 13  1  0  0  0  0
  3  7  1  0  0  0  0
  4  8  1  0  0  0  0
  4  3  1  0  0  0  0
  5  4  2  0  0  0  0
  6  5  1  0  0  0  0
  6  1  2  0  0  0  0
  9  5  1  0  0  0  0
 10  6  1  0  0  0  0
 11 16  1  0  0  0  0
 12 13  1  0  0  0  0
 12 11  2  0  0  0  0
 13 14  2  0  0  0  0
 14 15  1  0  0  0  0
 15 19  1  0  0  0  0
 16 15  2  0  0  0  0
 17 11  1  0  0  0  0
 18 12  1  0  0  0  0
 19 22  1  0  0  0  0
 19 21  1  0  0  0  0
 19 20  1  0  0  0  0
 23 26  1  0  0  0  0
 23  1  1  0  0  0  0
 24 23  2  0  0  0  0
 25 23  2  0  0  0  0
 26 29  1  0  0  0  0
 26 27  1  0  0  0  0
 28 26  1  0  0  0  0
 29 37  1  0  0  0  0
 30 32  1  0  0  0  0
 30 29  2  0  0  0  0
 31 30  1  0  0  0  0
 32 33  2  0  0  0  0
 33 34  1  0  0  0  0
 33 35  1  0  0  0  0
 35 36  1  0  0  0  0
 37 35  2  0  0  0  0
M  END
>  <minimizedAffinity>
-5.62415314

>  <minimizedRMSD>
3.12979794

$$$$
