
     RDKit          3D

 27 28  0  0  0  0  0  0  0  0999 V2000
   37.3249   30.2201   51.4008 C   0  0  0  0  0  0  0  0  0  0  0  0
   38.0528   30.6699   50.3051 C   0  0  0  0  0  0  0  0  0  0  0  0
   37.6157   30.2840   49.0448 C   0  0  0  0  0  0  0  0  0  0  0  0
   36.5032   29.4917   48.9806 N   0  0  0  0  0  0  0  0  0  0  0  0
   35.8239   29.0762   50.0735 C   0  0  0  0  0  0  0  0  0  0  0  0
   36.2593   29.4579   51.2850 N   0  0  0  0  0  0  0  0  0  0  0  0
   34.7401   28.2887   49.7534 O   0  0  0  0  0  0  0  0  0  0  0  0
   34.2049   28.4015   48.4497 C   0  0  0  0  0  0  0  0  0  0  0  0
   33.8303   27.0410   47.9090 C   0  0  0  0  0  0  0  0  0  0  0  0
   37.7106   30.5512   52.3551 H   0  0  0  0  0  0  0  0  0  0  0  0
   38.9353   31.2940   50.2810 H   0  0  0  0  0  0  0  0  0  0  0  0
   38.1104   30.5782   48.1090 H   0  0  0  0  0  0  0  0  0  0  0  0
   33.3593   29.1093   48.4289 H   0  0  0  0  0  0  0  0  0  0  0  0
   34.9728   28.8016   47.7440 H   0  0  0  0  0  0  0  0  0  0  0  0
   34.6880   26.3611   47.9937 H   0  0  0  0  0  0  0  0  0  0  0  0
   33.0272   26.6540   48.5980 H   0  0  0  0  0  0  0  0  0  0  0  0
   33.2658   27.0737   46.5560 C   0  0  0  0  0  0  0  0  0  0  0  0
   32.3575   26.0502   46.3132 C   0  0  0  0  0  0  0  0  0  0  0  0
   32.0777   25.2914   47.0353 H   0  0  0  0  0  0  0  0  0  0  0  0
   31.7100   25.9092   45.0818 C   0  0  0  0  0  0  0  0  0  0  0  0
   31.9784   26.8165   44.0667 C   0  0  0  0  0  0  0  0  0  0  0  0
   31.4685   26.6875   43.1296 H   0  0  0  0  0  0  0  0  0  0  0  0
   32.8810   27.8177   44.3367 C   0  0  0  0  0  0  0  0  0  0  0  0
   33.0949   28.5320   43.5430 H   0  0  0  0  0  0  0  0  0  0  0  0
   33.5279   27.9713   45.5436 C   0  0  0  0  0  0  0  0  0  0  0  0
   31.0029   25.1106   44.8962 H   0  0  0  0  0  0  0  0  0  0  0  0
   34.2290   28.7317   45.7845 H   0  0  0  0  0  0  0  0  0  0  0  0
  2  1  2  0
  3  2  1  0
  4  3  2  0
  4  5  1  0
  5  6  2  0
  6  1  1  0
  7  5  1  0
  8  7  1  0
  9  8  1  0
  1 10  1  0
  2 11  1  0
  3 12  1  0
  8 13  1  0
  8 14  1  0
  9 15  1  0
  9 16  1  0
 17 18  2  0
 18 19  1  0
 18 20  1  0
 20 21  2  0
 21 22  1  0
 21 23  1  0
 23 24  1  0
 23 25  2  0
 25 17  1  0
 20 26  1  0
 25 27  1  0
  9 17  1  0
M  ISO  8  10  14  11  14  12  14  13   8  14   8  15   8  16   8  19  16
M  ISO  2  22  16  24  16
M  END
>  <DihAtoms>  (1) 
7,8,16,17

>  <DihDeg>  (1) 
89.99635644321567

$$$$
