
 OpenBabel03272506443D

 32 34  0  0  1  0  0  0  0  0999 V2000
   32.2060   28.1500   47.6030 C   0  0  2  0  0  0  0  0  0  0  0  0
   33.5170   28.0970   48.3710 C   0  0  1  0  0  0  0  0  0  0  0  0
   34.0580   26.8570   48.1940 O   0  0  0  0  0  0  0  0  0  0  0  0
   33.3270   26.1760   47.2460 C   0  0  0  0  0  0  0  0  0  0  0  0
   32.5660   27.2410   46.4370 C   0  0  1  0  0  0  0  0  0  0  0  0
   31.3860   27.7390   48.1920 H   0  0  0  0  0  0  0  0  0  0  0  0
   33.3950   28.4110   49.4290 H   0  0  0  0  0  0  0  0  0  0  0  0
   34.0190   25.6040   46.5640 H   0  0  0  0  0  0  0  0  0  0  0  0
   32.5960   25.4970   47.7330 H   0  0  0  0  0  0  0  0  0  0  0  0
   33.2790   27.7470   45.7920 H   0  0  0  0  0  0  0  0  0  0  0  0
   31.9270   29.4520   47.1650 O   0  0  0  0  0  0  0  0  0  0  0  0
   32.2220   29.5840   46.2340 H   0  0  0  0  0  0  0  0  0  0  0  0
   34.6180   29.3150   47.5850 S   0  0  0  0  0  0  0  0  0  0  0  0
   37.2320   29.3200   50.5560 C   0  0  0  0  0  0  0  0  0  0  0  0
   37.7240   30.6270   50.6080 C   0  0  0  0  0  0  0  0  0  0  0  0
   37.2230   31.5500   49.6810 C   0  0  0  0  0  0  0  0  0  0  0  0
   36.2950   31.1230   48.7920 N   0  0  0  0  0  0  0  0  0  0  0  0
   35.8380   29.8600   48.7620 C   0  0  0  0  0  0  0  0  0  0  0  0
   36.3010   28.9580   49.6380 N   0  0  0  0  0  0  0  0  0  0  0  0
   37.6310   28.6180   51.2790 H   0  0  0  0  0  0  0  0  0  0  0  0
   38.4590   30.9440   51.3200 H   0  0  0  0  0  0  0  0  0  0  0  0
   37.5720   32.5800   49.6790 H   0  0  0  0  0  0  0  0  0  0  0  0
   31.4690   26.6780   45.8430 O   0  0  0  0  0  0  0  0  0  0  0  0
   30.6040   27.4360   45.0780 C   0  0  0  0  0  0  0  0  0  0  0  0
   29.2930   27.2210   45.5230 C   0  0  0  0  0  0  0  0  0  0  0  0
   28.9570   26.5720   46.3360 H   0  0  0  0  0  0  0  0  0  0  0  0
   28.2110   27.8580   44.9310 C   0  0  0  0  0  0  0  0  0  0  0  0
   28.4090   28.7250   43.8830 C   0  0  0  0  0  0  0  0  0  0  0  0
   27.6580   29.2780   43.3420 H   0  0  0  0  0  0  0  0  0  0  0  0
   29.7000   28.9300   43.4540 C   0  0  0  0  0  0  0  0  0  0  0  0
   29.9710   29.5900   42.6380 H   0  0  0  0  0  0  0  0  0  0  0  0
   30.7830   28.3080   44.0260 C   0  0  0  0  0  0  0  0  0  0  0  0
  1  6  1  1  0  0  0
  1  2  1  0  0  0  0
  2  7  1  1  0  0  0
  3  2  1  0  0  0  0
  4  9  1  0  0  0  0
  4  3  1  0  0  0  0
  5 10  1  6  0  0  0
  5  4  1  0  0  0  0
  5  1  1  0  0  0  0
  8  4  1  0  0  0  0
 11  1  1  0  0  0  0
 12 11  1  0  0  0  0
 13  2  1  0  0  0  0
 13 18  1  0  0  0  0
 14 15  1  0  0  0  0
 14 20  1  0  0  0  0
 15 21  1  0  0  0  0
 16 15  2  0  0  0  0
 17 16  1  0  0  0  0
 18 17  2  0  0  0  0
 18 19  1  0  0  0  0
 19 14  2  0  0  0  0
 22 16  1  0  0  0  0
 23  5  1  0  0  0  0
 24 25  1  0  0  0  0
 24 23  1  0  0  0  0
 25 26  1  0  0  0  0
 27 25  2  0  0  0  0
 28 27  1  0  0  0  0
 29 28  1  0  0  0  0
 30 28  2  0  0  0  0
 30 32  1  0  0  0  0
 31 30  1  0  0  0  0
 32 24  2  0  0  0  0
M  END
>  <minimizedAffinity>
-3.94875145

>  <minimizedRMSD>
1.65775955

$$$$
