
 OpenBabel03272509473D

 25 26  0  0  0  0  0  0  0  0999 V2000
   34.0860   28.4710   48.6430 C   0  0  0  0  0  0  0  0  0  0  0  0
   33.1460   29.0350   48.7760 H   0  0  0  0  0  0  0  0  0  0  0  0
   34.7180   29.0680   47.9400 H   0  0  0  0  0  0  0  0  0  0  0  0
   33.8670   27.1420   47.9600 C   0  0  0  0  0  0  0  0  0  0  0  0
   34.7960   26.5560   47.9860 H   0  0  0  0  0  0  0  0  0  0  0  0
   33.1110   26.5980   48.5940 H   0  0  0  0  0  0  0  0  0  0  0  0
   33.3060   27.2520   46.6100 C   0  0  0  0  0  0  0  0  0  0  0  0
   32.0870   27.9190   46.5720 C   0  0  0  0  0  0  0  0  0  0  0  0
   31.5830   28.3270   47.4400 H   0  0  0  0  0  0  0  0  0  0  0  0
   31.3900   28.1260   45.3770 C   0  0  0  0  0  3  0  0  0  0  0  0
   31.9270   27.6520   44.1890 C   0  0  0  0  0  0  0  0  0  0  0  0
   31.3740   27.8240   43.2840 H   0  0  0  0  0  0  0  0  0  0  0  0
   33.1340   26.9970   44.2580 C   0  0  0  0  0  0  0  0  0  0  0  0
   33.5590   26.6240   43.3270 H   0  0  0  0  0  0  0  0  0  0  0  0
   33.8330   26.7840   45.4250 C   0  0  0  0  0  3  0  0  0  0  0  0
   34.7490   28.2950   49.8780 O   0  0  0  0  0  0  0  0  0  0  0  0
   37.3880   30.2660   51.3860 C   0  0  0  0  0  0  0  0  0  0  0  0
   38.0750   30.6920   50.2540 C   0  0  0  0  0  0  0  0  0  0  0  0
   37.5940   30.2760   49.0200 C   0  0  0  0  0  0  0  0  0  0  0  0
   36.4810   29.4820   49.0150 N   0  0  0  0  0  0  0  0  0  0  0  0
   35.8430   29.0900   50.1410 C   0  0  0  0  0  0  0  0  0  0  0  0
   36.3200   29.5010   51.3260 N   0  0  0  0  0  0  0  0  0  0  0  0
   37.8080   30.6200   52.3170 H   0  0  0  0  0  0  0  0  0  0  0  0
   38.9550   31.3160   50.1840 H   0  0  0  0  0  0  0  0  0  0  0  0
   38.0530   30.5490   48.0600 H   0  0  0  0  0  0  0  0  0  0  0  0
  1  2  1  0  0  0  0
  1 16  1  0  0  0  0
  3  1  1  0  0  0  0
  4  5  1  0  0  0  0
  4  6  1  0  0  0  0
  4  1  1  0  0  0  0
  7  4  1  0  0  0  0
  8  7  1  0  0  0  0
  8  9  1  0  0  0  0
 10  8  2  0  0  0  0
 11 13  2  0  0  0  0
 11 10  1  0  0  0  0
 12 11  1  0  0  0  0
 13 15  1  0  0  0  0
 14 13  1  0  0  0  0
 15  7  2  0  0  0  0
 16 21  1  0  0  0  0
 17 23  1  0  0  0  0
 18 17  2  0  0  0  0
 19 18  1  0  0  0  0
 20 19  2  0  0  0  0
 20 21  1  0  0  0  0
 21 22  2  0  0  0  0
 22 17  1  0  0  0  0
 24 18  1  0  0  0  0
 25 19  1  0  0  0  0
M  END
>  <minimizedAffinity>
-3.77195621

>  <minimizedRMSD>
0.191573963

$$$$
