
 OpenBabel03272510043D

 37 39  0  0  0  0  0  0  0  0999 V2000
   34.9980   29.6420   45.4150 C   0  0  0  0  0  0  0  0  0  0  0  0
   34.8930   29.5410   46.7660 C   0  0  0  0  0  0  0  0  0  0  0  0
   33.7670   28.9450   47.3250 C   0  0  0  0  0  0  0  0  0  0  0  0
   32.7320   28.4440   46.5650 C   0  0  0  0  0  0  0  0  0  0  0  0
   32.8040   28.5320   45.1950 C   0  0  0  0  0  0  0  0  0  0  0  0
   33.9290   29.1250   44.6730 C   0  0  0  0  0  0  0  0  0  0  0  0
   33.7130   28.8770   48.4240 H   0  0  0  0  0  0  0  0  0  0  0  0
   31.9220   28.0080   47.0900 H   0  0  0  0  0  0  0  0  0  0  0  0
   31.9830   28.1350   44.6560 H   0  0  0  0  0  0  0  0  0  0  0  0
   33.8670   29.1380   43.5780 H   0  0  0  0  0  0  0  0  0  0  0  0
   37.6120   31.6640   48.0340 C   0  0  0  0  0  0  0  0  0  0  0  0
   36.6200   31.1360   47.2230 C   0  0  0  0  0  0  0  0  0  0  0  0
   35.8930   30.0640   47.6340 C   0  0  0  0  0  0  0  0  0  0  0  0
   36.1820   29.5510   48.8620 N   0  0  0  0  0  0  0  0  0  0  0  0
   37.1350   30.0590   49.6520 C   0  0  0  0  0  0  0  0  0  0  0  0
   37.8460   31.1100   49.2310 N   0  0  0  0  0  0  0  0  0  0  0  0
   38.2710   32.4910   47.8660 H   0  0  0  0  0  0  0  0  0  0  0  0
   36.6160   31.7700   46.3690 H   0  0  0  0  0  0  0  0  0  0  0  0
   37.2990   29.4400   50.9940 C   0  0  0  0  0  0  0  0  0  0  0  0
   37.7920   30.3380   51.9230 F   0  0  0  0  0  0  0  0  0  0  0  0
   35.9860   29.1380   51.5210 F   0  0  0  0  0  0  0  0  0  0  0  0
   37.9290   28.2890   51.0550 F   0  0  0  0  0  0  0  0  0  0  0  0
   36.3460   30.3120   44.6070 S   0  0  0  0  0  0  0  0  0  0  0  0
   36.0520   31.6640   44.0750 O   0  0  0  0  0  0  0  0  0  0  0  0
   36.2160   29.5840   43.2820 O   0  0  0  0  0  0  0  0  0  0  0  0
   37.9610   29.7850   44.6150 C   0  0  0  0  0  0  0  0  0  0  0  0
   38.0490   29.1870   45.6060 H   0  0  0  0  0  0  0  0  0  0  0  0
   38.1760   28.9610   43.9110 H   0  0  0  0  0  0  0  0  0  0  0  0
   38.9960   30.7820   44.7920 C   0  0  0  0  0  0  0  0  0  0  0  0
   38.8300   31.9250   44.0660 C   0  0  0  0  0  0  0  0  0  0  0  0
   37.9830   32.1050   43.3870 H   0  0  0  0  0  0  0  0  0  0  0  0
   39.7040   33.0120   44.0840 C   0  0  0  0  0  3  0  0  0  0  0  0
   40.8200   32.9090   44.9070 C   0  0  0  0  0  0  0  0  0  0  0  0
   41.5070   33.7430   44.9330 H   0  0  0  0  0  0  0  0  0  0  0  0
   40.9950   31.7570   45.6440 C   0  0  0  0  0  0  0  0  0  0  0  0
   41.8710   31.6800   46.2860 H   0  0  0  0  0  0  0  0  0  0  0  0
   40.1040   30.7060   45.5950 C   0  0  0  0  0  3  0  0  0  0  0  0
  1  2  1  0  0  0  0
  2  3  2  0  0  0  0
  2 13  1  0  0  0  0
  3  7  1  0  0  0  0
  4  8  1  0  0  0  0
  4  3  1  0  0  0  0
  5  4  2  0  0  0  0
  6  5  1  0  0  0  0
  6  1  2  0  0  0  0
  9  5  1  0  0  0  0
 10  6  1  0  0  0  0
 11 16  1  0  0  0  0
 12 13  1  0  0  0  0
 12 11  2  0  0  0  0
 13 14  2  0  0  0  0
 14 15  1  0  0  0  0
 15 19  1  0  0  0  0
 16 15  2  0  0  0  0
 17 11  1  0  0  0  0
 18 12  1  0  0  0  0
 19 22  1  0  0  0  0
 19 21  1  0  0  0  0
 19 20  1  0  0  0  0
 23 26  1  0  0  0  0
 23  1  1  0  0  0  0
 24 23  2  0  0  0  0
 25 23  2  0  0  0  0
 26 29  1  0  0  0  0
 26 27  1  0  0  0  0
 28 26  1  0  0  0  0
 29 37  1  0  0  0  0
 30 32  1  0  0  0  0
 30 29  2  0  0  0  0
 31 30  1  0  0  0  0
 32 33  2  0  0  0  0
 33 34  1  0  0  0  0
 33 35  1  0  0  0  0
 35 36  1  0  0  0  0
 37 35  2  0  0  0  0
M  END
>  <minimizedAffinity>
-5.62065983

>  <minimizedRMSD>
3.14196301

$$$$
