
 OpenBabel03272510313D

 28 30  0  0  0  0  0  0  0  0999 V2000
   36.3680   23.7690   31.6650 C   0  0  0  0  0  0  0  0  0  0  0  0
   35.1100   24.0490   31.1320 C   0  0  0  0  0  0  0  0  0  0  0  0
   34.8840   25.3580   30.7810 C   0  0  0  0  0  0  0  0  0  0  0  0
   35.8540   26.2900   30.9580 N   0  0  0  0  0  0  0  0  0  0  0  0
   37.0730   25.9770   31.4820 C   0  0  0  0  0  0  0  0  0  0  0  0
   37.3480   24.6830   31.8510 N   0  0  0  0  0  0  0  0  0  0  0  0
   34.4130   23.2340   31.0330 H   0  0  0  0  0  0  0  0  0  0  0  0
   33.9190   25.6140   30.3640 H   0  0  0  0  0  0  0  0  0  0  0  0
   36.6770   22.3410   32.0390 C   0  0  0  0  0  0  0  0  0  0  0  0
   36.0080   21.2110   31.4480 C   0  0  0  0  0  0  0  0  0  0  0  0
   37.3750   21.5770   30.9020 C   0  0  0  0  0  0  0  0  0  0  0  0
   37.1850   22.2620   33.0250 H   0  0  0  0  0  0  0  0  0  0  0  0
   35.9790   20.2670   32.0640 H   0  0  0  0  0  0  0  0  0  0  0  0
   35.2080   21.2860   30.6840 H   0  0  0  0  0  0  0  0  0  0  0  0
   38.2270   20.9430   31.2180 H   0  0  0  0  0  0  0  0  0  0  0  0
   37.4450   22.0530   29.9070 H   0  0  0  0  0  0  0  0  0  0  0  0
   38.1270   26.9680   31.6580 C   0  0  0  0  0  0  0  0  0  0  0  0
   39.0500   26.6120   31.1530 H   0  0  0  0  0  0  0  0  0  0  0  0
   37.8250   27.9720   31.2960 H   0  0  0  0  0  0  0  0  0  0  0  0
   38.4480   27.0490   33.1120 C   0  0  0  0  0  0  0  0  0  0  0  0
   37.4530   27.4370   34.0120 C   0  0  0  0  0  0  0  0  0  0  0  0
   36.4750   27.6620   33.5770 H   0  0  0  0  0  0  0  0  0  0  0  0
   37.5920   27.5590   35.3750 C   0  0  0  0  0  3  0  0  0  0  0  0
   38.8550   27.2630   35.8970 C   0  0  0  0  0  0  0  0  0  0  0  0
   38.9680   27.3580   36.9650 H   0  0  0  0  0  0  0  0  0  0  0  0
   39.8570   26.8770   35.0220 C   0  0  0  0  0  0  0  0  0  0  0  0
   40.8420   26.6490   35.4470 H   0  0  0  0  0  0  0  0  0  0  0  0
   39.6960   26.7620   33.6680 C   0  0  0  0  0  3  0  0  0  0  0  0
  1  6  1  0  0  0  0
  1  9  1  0  0  0  0
  2  1  2  0  0  0  0
  3  4  2  0  0  0  0
  3  2  1  0  0  0  0
  4  5  1  0  0  0  0
  5 17  1  0  0  0  0
  5  6  2  0  0  0  0
  7  2  1  0  0  0  0
  8  3  1  0  0  0  0
  9 12  1  0  0  0  0
 10  9  1  0  0  0  0
 10 13  1  0  0  0  0
 11 15  1  0  0  0  0
 11 10  1  0  0  0  0
 11  9  1  0  0  0  0
 14 10  1  0  0  0  0
 16 11  1  0  0  0  0
 17 20  1  0  0  0  0
 18 17  1  0  0  0  0
 19 17  1  0  0  0  0
 20 28  2  0  0  0  0
 20 21  1  0  0  0  0
 21 23  2  0  0  0  0
 22 21  1  0  0  0  0
 23 24  1  0  0  0  0
 24 25  1  0  0  0  0
 26 27  1  0  0  0  0
 26 24  2  0  0  0  0
 28 26  1  0  0  0  0
M  END
>  <minimizedAffinity>
-4.76155186

$$$$

 OpenBabel03272510313D

 28 30  0  0  0  0  0  0  0  0999 V2000
   36.3200   20.8710   32.6180 C   0  0  0  0  0  0  0  0  0  0  0  0
   35.5180   20.2980   33.6050 C   0  0  0  0  0  0  0  0  0  0  0  0
   35.7890   20.6820   34.8960 C   0  0  0  0  0  0  0  0  0  0  0  0
   36.7850   21.5670   35.1510 N   0  0  0  0  0  0  0  0  0  0  0  0
   37.5480   22.1060   34.1580 C   0  0  0  0  0  0  0  0  0  0  0  0
   37.3180   21.7540   32.8510 N   0  0  0  0  0  0  0  0  0  0  0  0
   34.7540   19.6070   33.2930 H   0  0  0  0  0  0  0  0  0  0  0  0
   35.1880   20.2580   35.6890 H   0  0  0  0  0  0  0  0  0  0  0  0
   36.0450   20.5060   31.1810 C   0  0  0  0  0  0  0  0  0  0  0  0
   37.0830   20.1560   30.2460 C   0  0  0  0  0  0  0  0  0  0  0  0
   36.3150   19.0190   30.8940 C   0  0  0  0  0  0  0  0  0  0  0  0
   35.0520   20.8670   30.8340 H   0  0  0  0  0  0  0  0  0  0  0  0
   36.8530   20.3260   29.1550 H   0  0  0  0  0  0  0  0  0  0  0  0
   38.1640   20.1350   30.4900 H   0  0  0  0  0  0  0  0  0  0  0  0
   35.5470   18.5160   30.2730 H   0  0  0  0  0  0  0  0  0  0  0  0
   36.8120   18.4110   31.6700 H   0  0  0  0  0  0  0  0  0  0  0  0
   38.6070   23.0720   34.4220 C   0  0  0  0  0  0  0  0  0  0  0  0
   39.5840   22.6270   34.1400 H   0  0  0  0  0  0  0  0  0  0  0  0
   38.4340   24.0380   33.9030 H   0  0  0  0  0  0  0  0  0  0  0  0
   38.6610   23.3110   35.8920 C   0  0  0  0  0  0  0  0  0  0  0  0
   39.6140   22.6400   36.6600 C   0  0  0  0  0  0  0  0  0  0  0  0
   40.2780   21.9630   36.1160 H   0  0  0  0  0  0  0  0  0  0  0  0
   39.7890   22.7530   38.0200 C   0  0  0  0  0  3  0  0  0  0  0  0
   38.9230   23.6270   38.6850 C   0  0  0  0  0  0  0  0  0  0  0  0
   39.0580   23.7180   39.7500 H   0  0  0  0  0  0  0  0  0  0  0  0
   37.9690   24.3030   37.9420 C   0  0  0  0  0  0  0  0  0  0  0  0
   37.2980   24.9840   38.4780 H   0  0  0  0  0  0  0  0  0  0  0  0
   37.8140   24.1750   36.5890 C   0  0  0  0  0  3  0  0  0  0  0  0
  1  6  2  0  0  0  0
  1  2  1  0  0  0  0
  2  3  2  0  0  0  0
  3  4  1  0  0  0  0
  3  8  1  0  0  0  0
  5 17  1  0  0  0  0
  5  4  2  0  0  0  0
  6  5  1  0  0  0  0
  7  2  1  0  0  0  0
  9  1  1  0  0  0  0
 10 14  1  0  0  0  0
 10 11  1  0  0  0  0
 10  9  1  0  0  0  0
 11  9  1  0  0  0  0
 11 16  1  0  0  0  0
 12  9  1  0  0  0  0
 13 10  1  0  0  0  0
 15 11  1  0  0  0  0
 17 20  1  0  0  0  0
 18 17  1  0  0  0  0
 19 17  1  0  0  0  0
 20 28  2  0  0  0  0
 20 21  1  0  0  0  0
 21 23  2  0  0  0  0
 22 21  1  0  0  0  0
 23 24  1  0  0  0  0
 24 25  1  0  0  0  0
 26 27  1  0  0  0  0
 26 24  2  0  0  0  0
 28 26  1  0  0  0  0
M  END
>  <minimizedAffinity>
-4.70602322

$$$$

 OpenBabel03272510313D

 28 30  0  0  0  0  0  0  0  0999 V2000
   38.1240   24.9190   35.4780 C   0  0  0  0  0  0  0  0  0  0  0  0
   38.0440   24.5840   36.8300 C   0  0  0  0  0  0  0  0  0  0  0  0
   38.1800   23.2510   37.1270 C   0  0  0  0  0  0  0  0  0  0  0  0
   38.3790   22.3460   36.1360 N   0  0  0  0  0  0  0  0  0  0  0  0
   38.4520   22.7110   34.8250 C   0  0  0  0  0  0  0  0  0  0  0  0
   38.3210   24.0320   34.4740 N   0  0  0  0  0  0  0  0  0  0  0  0
   37.8840   25.3820   37.5350 H   0  0  0  0  0  0  0  0  0  0  0  0
   38.1230   22.9530   38.1650 H   0  0  0  0  0  0  0  0  0  0  0  0
   38.0100   26.3740   35.0990 C   0  0  0  0  0  0  0  0  0  0  0  0
   38.3930   27.4480   35.9800 C   0  0  0  0  0  0  0  0  0  0  0  0
   39.3850   27.0370   34.9090 C   0  0  0  0  0  0  0  0  0  0  0  0
   37.3000   26.5400   34.2600 H   0  0  0  0  0  0  0  0  0  0  0  0
   37.8890   28.4410   35.8080 H   0  0  0  0  0  0  0  0  0  0  0  0
   38.7880   27.3040   37.0060 H   0  0  0  0  0  0  0  0  0  0  0  0
   39.4670   27.6970   34.0220 H   0  0  0  0  0  0  0  0  0  0  0  0
   40.2900   26.4760   35.2030 H   0  0  0  0  0  0  0  0  0  0  0  0
   38.6850   21.7480   33.7550 C   0  0  0  0  0  0  0  0  0  0  0  0
   39.3000   22.2260   32.9640 H   0  0  0  0  0  0  0  0  0  0  0  0
   39.1510   20.8120   34.1260 H   0  0  0  0  0  0  0  0  0  0  0  0
   37.3710   21.4250   33.1300 C   0  0  0  0  0  0  0  0  0  0  0  0
   37.1210   21.8240   31.8160 C   0  0  0  0  0  0  0  0  0  0  0  0
   37.9300   22.3650   31.3170 H   0  0  0  0  0  0  0  0  0  0  0  0
   35.9650   21.6020   31.1040 C   0  0  0  0  0  3  0  0  0  0  0  0
   34.9510   20.9080   31.7710 C   0  0  0  0  0  0  0  0  0  0  0  0
   34.0440   20.7320   31.2170 H   0  0  0  0  0  0  0  0  0  0  0  0
   35.1780   20.5020   33.0770 C   0  0  0  0  0  0  0  0  0  0  0  0
   34.3720   19.9590   33.5870 H   0  0  0  0  0  0  0  0  0  0  0  0
   36.3370   20.7350   33.7650 C   0  0  0  0  0  3  0  0  0  0  0  0
  1  2  1  0  0  0  0
  2  3  2  0  0  0  0
  2  7  1  0  0  0  0
  3  8  1  0  0  0  0
  4  3  1  0  0  0  0
  5  4  2  0  0  0  0
  6  5  1  0  0  0  0
  6  1  2  0  0  0  0
  9  1  1  0  0  0  0
  9 10  1  0  0  0  0
 10 14  1  0  0  0  0
 11  9  1  0  0  0  0
 11 16  1  0  0  0  0
 11 10  1  0  0  0  0
 12  9  1  0  0  0  0
 13 10  1  0  0  0  0
 15 11  1  0  0  0  0
 17 19  1  0  0  0  0
 17  5  1  0  0  0  0
 18 17  1  0  0  0  0
 20 17  1  0  0  0  0
 20 28  1  0  0  0  0
 21 20  2  0  0  0  0
 22 21  1  0  0  0  0
 23 24  2  0  0  0  0
 23 21  1  0  0  0  0
 24 26  1  0  0  0  0
 25 24  1  0  0  0  0
 26 27  1  0  0  0  0
 26 28  2  0  0  0  0
M  END
>  <minimizedAffinity>
-4.69116783

$$$$

 OpenBabel03272510313D

 28 30  0  0  0  0  0  0  0  0999 V2000
   36.8460   21.5220   33.4010 C   0  0  0  0  0  0  0  0  0  0  0  0
   35.7640   20.9590   34.0790 C   0  0  0  0  0  0  0  0  0  0  0  0
   35.8360   20.9840   35.4500 C   0  0  0  0  0  0  0  0  0  0  0  0
   36.9110   21.5350   36.0690 N   0  0  0  0  0  0  0  0  0  0  0  0
   37.9490   22.0770   35.3710 C   0  0  0  0  0  0  0  0  0  0  0  0
   37.9270   22.0750   33.9980 N   0  0  0  0  0  0  0  0  0  0  0  0
   34.9610   20.5490   33.4910 H   0  0  0  0  0  0  0  0  0  0  0  0
   35.0160   20.5550   36.0110 H   0  0  0  0  0  0  0  0  0  0  0  0
   36.8030   21.5460   31.8940 C   0  0  0  0  0  0  0  0  0  0  0  0
   35.5830   21.4110   31.1400 C   0  0  0  0  0  0  0  0  0  0  0  0
   36.1220   22.8130   31.3490 C   0  0  0  0  0  0  0  0  0  0  0  0
   37.7920   21.3250   31.4380 H   0  0  0  0  0  0  0  0  0  0  0  0
   35.6850   21.0130   30.0900 H   0  0  0  0  0  0  0  0  0  0  0  0
   34.5810   21.2670   31.5910 H   0  0  0  0  0  0  0  0  0  0  0  0
   36.6360   23.2860   30.4880 H   0  0  0  0  0  0  0  0  0  0  0  0
   35.6070   23.4860   32.0580 H   0  0  0  0  0  0  0  0  0  0  0  0
   39.0990   22.6880   36.0270 C   0  0  0  0  0  0  0  0  0  0  0  0
   39.0240   22.5200   37.1220 H   0  0  0  0  0  0  0  0  0  0  0  0
   40.0610   22.3150   35.6220 H   0  0  0  0  0  0  0  0  0  0  0  0
   39.0200   24.1620   35.8210 C   0  0  0  0  0  0  0  0  0  0  0  0
   40.0360   24.8100   35.1160 C   0  0  0  0  0  0  0  0  0  0  0  0
   40.8470   24.1730   34.7500 H   0  0  0  0  0  0  0  0  0  0  0  0
   40.1070   26.1560   34.8430 C   0  0  0  0  0  3  0  0  0  0  0  0
   39.0540   26.9410   35.3240 C   0  0  0  0  0  0  0  0  0  0  0  0
   39.1060   27.9960   35.1130 H   0  0  0  0  0  0  0  0  0  0  0  0
   38.0350   26.3190   36.0280 C   0  0  0  0  0  0  0  0  0  0  0  0
   37.2170   26.9480   36.3990 H   0  0  0  0  0  0  0  0  0  0  0  0
   37.9860   24.9760   36.2860 C   0  0  0  0  0  3  0  0  0  0  0  0
  1  6  2  0  0  0  0
  1  2  1  0  0  0  0
  2  3  2  0  0  0  0
  3  8  1  0  0  0  0
  3  4  1  0  0  0  0
  5 17  1  0  0  0  0
  5  4  2  0  0  0  0
  6  5  1  0  0  0  0
  7  2  1  0  0  0  0
  9  1  1  0  0  0  0
 10 11  1  0  0  0  0
 10 14  1  0  0  0  0
 10  9  1  0  0  0  0
 11  9  1  0  0  0  0
 11 16  1  0  0  0  0
 12  9  1  0  0  0  0
 13 10  1  0  0  0  0
 15 11  1  0  0  0  0
 17 18  1  0  0  0  0
 19 17  1  0  0  0  0
 20 17  1  0  0  0  0
 20 28  1  0  0  0  0
 21 20  2  0  0  0  0
 22 21  1  0  0  0  0
 23 21  1  0  0  0  0
 23 24  2  0  0  0  0
 24 26  1  0  0  0  0
 25 24  1  0  0  0  0
 26 28  2  0  0  0  0
 26 27  1  0  0  0  0
M  END
>  <minimizedAffinity>
-4.64404678

$$$$

 OpenBabel03272510313D

 28 30  0  0  0  0  0  0  0  0999 V2000
   36.8910   23.7800   31.0100 C   0  0  0  0  0  0  0  0  0  0  0  0
   37.9500   23.1990   30.3110 C   0  0  0  0  0  0  0  0  0  0  0  0
   39.0080   24.0270   30.0280 C   0  0  0  0  0  0  0  0  0  0  0  0
   38.9860   25.3250   30.4220 N   0  0  0  0  0  0  0  0  0  0  0  0
   37.9320   25.8570   31.1050 C   0  0  0  0  0  0  0  0  0  0  0  0
   36.8490   25.0720   31.4110 N   0  0  0  0  0  0  0  0  0  0  0  0
   37.8660   22.1590   30.0470 H   0  0  0  0  0  0  0  0  0  0  0  0
   39.8480   23.6120   29.4860 H   0  0  0  0  0  0  0  0  0  0  0  0
   35.7170   22.9070   31.3720 C   0  0  0  0  0  0  0  0  0  0  0  0
   35.6500   21.5050   31.0490 C   0  0  0  0  0  0  0  0  0  0  0  0
   36.0680   21.8770   32.4590 C   0  0  0  0  0  0  0  0  0  0  0  0
   34.7970   23.4970   31.5780 H   0  0  0  0  0  0  0  0  0  0  0  0
   34.6180   21.0590   30.9590 H   0  0  0  0  0  0  0  0  0  0  0  0
   36.4390   20.9510   30.5020 H   0  0  0  0  0  0  0  0  0  0  0  0
   35.3050   21.7590   33.2540 H   0  0  0  0  0  0  0  0  0  0  0  0
   37.1250   21.7570   32.7540 H   0  0  0  0  0  0  0  0  0  0  0  0
   37.9080   27.2450   31.5490 C   0  0  0  0  0  0  0  0  0  0  0  0
   38.7600   27.7890   31.0900 H   0  0  0  0  0  0  0  0  0  0  0  0
   36.9410   27.7410   31.3270 H   0  0  0  0  0  0  0  0  0  0  0  0
   38.1400   27.2640   33.0210 C   0  0  0  0  0  0  0  0  0  0  0  0
   39.4000   26.9260   33.5200 C   0  0  0  0  0  0  0  0  0  0  0  0
   40.1550   26.6620   32.7750 H   0  0  0  0  0  0  0  0  0  0  0  0
   39.7690   26.8970   34.8450 C   0  0  0  0  0  3  0  0  0  0  0  0
   38.7780   27.2400   35.7710 C   0  0  0  0  0  0  0  0  0  0  0  0
   39.0640   27.2180   36.8100 H   0  0  0  0  0  0  0  0  0  0  0  0
   37.5210   27.5790   35.2980 C   0  0  0  0  0  0  0  0  0  0  0  0
   36.7550   27.8450   36.0360 H   0  0  0  0  0  0  0  0  0  0  0  0
   37.1770   27.6010   33.9740 C   0  0  0  0  0  3  0  0  0  0  0  0
  1  9  1  0  0  0  0
  1  6  1  0  0  0  0
  2  1  2  0  0  0  0
  3  2  1  0  0  0  0
  3  4  2  0  0  0  0
  4  5  1  0  0  0  0
  5  6  2  0  0  0  0
  5 17  1  0  0  0  0
  7  2  1  0  0  0  0
  8  3  1  0  0  0  0
  9 12  1  0  0  0  0
  9 11  1  0  0  0  0
 10  9  1  0  0  0  0
 10 11  1  0  0  0  0
 11 16  1  0  0  0  0
 11 15  1  0  0  0  0
 13 10  1  0  0  0  0
 14 10  1  0  0  0  0
 17 20  1  0  0  0  0
 18 17  1  0  0  0  0
 19 17  1  0  0  0  0
 20 21  2  0  0  0  0
 20 28  1  0  0  0  0
 21 23  1  0  0  0  0
 22 21  1  0  0  0  0
 23 24  2  0  0  0  0
 24 25  1  0  0  0  0
 26 24  1  0  0  0  0
 26 27  1  0  0  0  0
 28 26  2  0  0  0  0
M  END
>  <minimizedAffinity>
-4.60643005

$$$$

 OpenBabel03272510313D

 28 30  0  0  0  0  0  0  0  0999 V2000
   37.3560   27.4060   33.9020 C   0  0  0  0  0  0  0  0  0  0  0  0
   37.2830   26.9420   32.5890 C   0  0  0  0  0  0  0  0  0  0  0  0
   36.2830   27.4810   31.8160 C   0  0  0  0  0  0  0  0  0  0  0  0
   35.4400   28.4070   32.3370 N   0  0  0  0  0  0  0  0  0  0  0  0
   35.5430   28.8370   33.6270 C   0  0  0  0  0  0  0  0  0  0  0  0
   36.5250   28.3280   34.4420 N   0  0  0  0  0  0  0  0  0  0  0  0
   38.0030   26.2050   32.2760 H   0  0  0  0  0  0  0  0  0  0  0  0
   36.1950   27.1450   30.7920 H   0  0  0  0  0  0  0  0  0  0  0  0
   38.4540   26.8680   34.7840 C   0  0  0  0  0  0  0  0  0  0  0  0
   38.4870   27.0710   36.2100 C   0  0  0  0  0  0  0  0  0  0  0  0
   37.9620   25.7390   35.7060 C   0  0  0  0  0  0  0  0  0  0  0  0
   39.3760   26.6250   34.2130 H   0  0  0  0  0  0  0  0  0  0  0  0
   39.5030   27.0280   36.6990 H   0  0  0  0  0  0  0  0  0  0  0  0
   37.7270   27.6420   36.7790 H   0  0  0  0  0  0  0  0  0  0  0  0
   38.6450   24.8700   35.7860 H   0  0  0  0  0  0  0  0  0  0  0  0
   36.8780   25.5350   35.7630 H   0  0  0  0  0  0  0  0  0  0  0  0
   34.6540   29.8450   34.1900 C   0  0  0  0  0  0  0  0  0  0  0  0
   33.8370   30.0540   33.4670 H   0  0  0  0  0  0  0  0  0  0  0  0
   34.2550   29.5480   35.1820 H   0  0  0  0  0  0  0  0  0  0  0  0
   35.4240   31.1130   34.3340 C   0  0  0  0  0  0  0  0  0  0  0  0
   35.7620   31.8420   33.1920 C   0  0  0  0  0  0  0  0  0  0  0  0
   35.4290   31.4220   32.2390 H   0  0  0  0  0  0  0  0  0  0  0  0
   36.4650   33.0240   33.1600 C   0  0  0  0  0  3  0  0  0  0  0  0
   36.8750   33.5340   34.3960 C   0  0  0  0  0  0  0  0  0  0  0  0
   37.4270   34.4590   34.3750 H   0  0  0  0  0  0  0  0  0  0  0  0
   36.5510   32.8260   35.5430 C   0  0  0  0  0  0  0  0  0  0  0  0
   36.8800   33.2390   36.5040 H   0  0  0  0  0  0  0  0  0  0  0  0
   35.8490   31.6520   35.5500 C   0  0  0  0  0  3  0  0  0  0  0  0
  1  6  1  0  0  0  0
  1  9  1  0  0  0  0
  2  1  2  0  0  0  0
  3  4  2  0  0  0  0
  3  2  1  0  0  0  0
  4  5  1  0  0  0  0
  5 17  1  0  0  0  0
  5  6  2  0  0  0  0
  7  2  1  0  0  0  0
  8  3  1  0  0  0  0
  9 11  1  0  0  0  0
  9 10  1  0  0  0  0
 10 13  1  0  0  0  0
 10 14  1  0  0  0  0
 11 16  1  0  0  0  0
 11 15  1  0  0  0  0
 11 10  1  0  0  0  0
 12  9  1  0  0  0  0
 17 20  1  0  0  0  0
 17 19  1  0  0  0  0
 18 17  1  0  0  0  0
 20 28  1  0  0  0  0
 21 20  2  0  0  0  0
 22 21  1  0  0  0  0
 23 21  1  0  0  0  0
 23 24  2  0  0  0  0
 24 26  1  0  0  0  0
 25 24  1  0  0  0  0
 26 28  2  0  0  0  0
 26 27  1  0  0  0  0
M  END
>  <minimizedAffinity>
-4.59504747

$$$$

 OpenBabel03272510313D

 28 30  0  0  0  0  0  0  0  0999 V2000
   37.3940   25.5090   31.8300 C   0  0  0  0  0  0  0  0  0  0  0  0
   38.3210   26.3220   31.1770 C   0  0  0  0  0  0  0  0  0  0  0  0
   39.0520   27.1630   31.9790 C   0  0  0  0  0  0  0  0  0  0  0  0
   38.8550   27.1710   33.3210 N   0  0  0  0  0  0  0  0  0  0  0  0
   37.9400   26.3600   33.9240 C   0  0  0  0  0  0  0  0  0  0  0  0
   37.1810   25.5020   33.1660 N   0  0  0  0  0  0  0  0  0  0  0  0
   38.3980   26.2350   30.1060 H   0  0  0  0  0  0  0  0  0  0  0  0
   39.7810   27.8090   31.5080 H   0  0  0  0  0  0  0  0  0  0  0  0
   36.5850   24.5460   30.9980 C   0  0  0  0  0  0  0  0  0  0  0  0
   35.5570   23.7020   31.5510 C   0  0  0  0  0  0  0  0  0  0  0  0
   35.1160   24.9810   30.8630 C   0  0  0  0  0  0  0  0  0  0  0  0
   37.0810   24.2980   30.0340 H   0  0  0  0  0  0  0  0  0  0  0  0
   35.3280   22.7540   30.9840 H   0  0  0  0  0  0  0  0  0  0  0  0
   35.2780   23.6760   32.6230 H   0  0  0  0  0  0  0  0  0  0  0  0
   34.6910   24.8810   29.8450 H   0  0  0  0  0  0  0  0  0  0  0  0
   34.7540   25.8230   31.4800 H   0  0  0  0  0  0  0  0  0  0  0  0
   37.7340   26.3490   35.3670 C   0  0  0  0  0  0  0  0  0  0  0  0
   38.2310   27.2360   35.8120 H   0  0  0  0  0  0  0  0  0  0  0  0
   36.6600   26.3030   35.6390 H   0  0  0  0  0  0  0  0  0  0  0  0
   38.4290   25.1530   35.9230 C   0  0  0  0  0  0  0  0  0  0  0  0
   37.8900   24.5030   37.0350 C   0  0  0  0  0  0  0  0  0  0  0  0
   36.9650   24.9270   37.4360 H   0  0  0  0  0  0  0  0  0  0  0  0
   38.4100   23.3940   37.6600 C   0  0  0  0  0  3  0  0  0  0  0  0
   39.5930   22.8770   37.1220 C   0  0  0  0  0  0  0  0  0  0  0  0
   40.0030   22.0090   37.6100 H   0  0  0  0  0  0  0  0  0  0  0  0
   40.1460   23.5070   36.0190 C   0  0  0  0  0  0  0  0  0  0  0  0
   41.0740   23.0910   35.6090 H   0  0  0  0  0  0  0  0  0  0  0  0
   39.6100   24.6100   35.4130 C   0  0  0  0  0  3  0  0  0  0  0  0
  1  6  1  0  0  0  0
  2  1  2  0  0  0  0
  2  3  1  0  0  0  0
  3  4  2  0  0  0  0
  4  5  1  0  0  0  0
  5 17  1  0  0  0  0
  6  5  2  0  0  0  0
  7  2  1  0  0  0  0
  8  3  1  0  0  0  0
  9 10  1  0  0  0  0
  9  1  1  0  0  0  0
 10 14  1  0  0  0  0
 11  9  1  0  0  0  0
 11 16  1  0  0  0  0
 11 10  1  0  0  0  0
 12  9  1  0  0  0  0
 13 10  1  0  0  0  0
 15 11  1  0  0  0  0
 17 19  1  0  0  0  0
 17 18  1  0  0  0  0
 17 20  1  0  0  0  0
 20 21  1  0  0  0  0
 21 22  1  0  0  0  0
 21 23  2  0  0  0  0
 24 25  1  0  0  0  0
 24 23  1  0  0  0  0
 26 24  2  0  0  0  0
 27 26  1  0  0  0  0
 28 20  2  0  0  0  0
 28 26  1  0  0  0  0
M  END
>  <minimizedAffinity>
-4.59311771

$$$$

 OpenBabel03272510313D

 28 30  0  0  0  0  0  0  0  0999 V2000
   36.5660   23.4930   31.9030 C   0  0  0  0  0  0  0  0  0  0  0  0
   35.7880   22.3390   32.0080 C   0  0  0  0  0  0  0  0  0  0  0  0
   36.1840   21.4320   32.9600 C   0  0  0  0  0  0  0  0  0  0  0  0
   37.2720   21.6820   33.7320 N   0  0  0  0  0  0  0  0  0  0  0  0
   38.0070   22.8220   33.6000 C   0  0  0  0  0  0  0  0  0  0  0  0
   37.6540   23.7600   32.6620 N   0  0  0  0  0  0  0  0  0  0  0  0
   34.9440   22.2410   31.3460 H   0  0  0  0  0  0  0  0  0  0  0  0
   35.6060   20.5250   33.0700 H   0  0  0  0  0  0  0  0  0  0  0  0
   36.1570   24.5350   30.8940 C   0  0  0  0  0  0  0  0  0  0  0  0
   34.8440   25.1270   30.8630 C   0  0  0  0  0  0  0  0  0  0  0  0
   35.9520   25.9180   31.5320 C   0  0  0  0  0  0  0  0  0  0  0  0
   36.8130   24.5360   29.9960 H   0  0  0  0  0  0  0  0  0  0  0  0
   34.5010   25.5350   29.8690 H   0  0  0  0  0  0  0  0  0  0  0  0
   34.0240   24.8660   31.5610 H   0  0  0  0  0  0  0  0  0  0  0  0
   36.3790   26.7660   30.9590 H   0  0  0  0  0  0  0  0  0  0  0  0
   35.9610   26.0010   32.6340 H   0  0  0  0  0  0  0  0  0  0  0  0
   39.1660   23.1070   34.4380 C   0  0  0  0  0  0  0  0  0  0  0  0
   39.1350   22.4540   35.3360 H   0  0  0  0  0  0  0  0  0  0  0  0
   40.1220   22.9960   33.8850 H   0  0  0  0  0  0  0  0  0  0  0  0
   39.0470   24.5080   34.9310 C   0  0  0  0  0  0  0  0  0  0  0  0
   39.9650   25.4670   34.5000 C   0  0  0  0  0  0  0  0  0  0  0  0
   40.7350   25.1150   33.8070 H   0  0  0  0  0  0  0  0  0  0  0  0
   39.9880   26.7930   34.8620 C   0  0  0  0  0  3  0  0  0  0  0  0
   38.9900   27.2090   35.7490 C   0  0  0  0  0  0  0  0  0  0  0  0
   39.0040   28.2480   36.0360 H   0  0  0  0  0  0  0  0  0  0  0  0
   38.0670   26.2740   36.1910 C   0  0  0  0  0  0  0  0  0  0  0  0
   37.2910   26.6160   36.8860 H   0  0  0  0  0  0  0  0  0  0  0  0
   38.0650   24.9590   35.8160 C   0  0  0  0  0  3  0  0  0  0  0  0
  1  2  2  0  0  0  0
  1  6  1  0  0  0  0
  2  3  1  0  0  0  0
  3  8  1  0  0  0  0
  3  4  2  0  0  0  0
  5  4  1  0  0  0  0
  5 17  1  0  0  0  0
  6  5  2  0  0  0  0
  7  2  1  0  0  0  0
  9 11  1  0  0  0  0
  9  1  1  0  0  0  0
 10  9  1  0  0  0  0
 10 11  1  0  0  0  0
 10 14  1  0  0  0  0
 11 16  1  0  0  0  0
 12  9  1  0  0  0  0
 13 10  1  0  0  0  0
 15 11  1  0  0  0  0
 17 20  1  0  0  0  0
 17 18  1  0  0  0  0
 19 17  1  0  0  0  0
 20 28  1  0  0  0  0
 21 23  1  0  0  0  0
 21 20  2  0  0  0  0
 22 21  1  0  0  0  0
 23 24  2  0  0  0  0
 24 25  1  0  0  0  0
 24 26  1  0  0  0  0
 26 27  1  0  0  0  0
 28 26  2  0  0  0  0
M  END
>  <minimizedAffinity>
-4.56503534

$$$$

 OpenBabel03272510313D

 28 30  0  0  0  0  0  0  0  0999 V2000
   37.2150   21.3730   33.3290 C   0  0  0  0  0  0  0  0  0  0  0  0
   38.1250   20.9460   32.3620 C   0  0  0  0  0  0  0  0  0  0  0  0
   39.4480   21.1920   32.6320 C   0  0  0  0  0  0  0  0  0  0  0  0
   39.8070   21.8150   33.7820 N   0  0  0  0  0  0  0  0  0  0  0  0
   38.8880   22.2190   34.7050 C   0  0  0  0  0  0  0  0  0  0  0  0
   37.5510   21.9970   34.4820 N   0  0  0  0  0  0  0  0  0  0  0  0
   37.7330   20.4600   31.4850 H   0  0  0  0  0  0  0  0  0  0  0  0
   40.1830   20.8760   31.9040 H   0  0  0  0  0  0  0  0  0  0  0  0
   35.7510   21.1010   33.0950 C   0  0  0  0  0  0  0  0  0  0  0  0
   35.2570   20.3910   31.9430 C   0  0  0  0  0  0  0  0  0  0  0  0
   35.4050   19.6090   33.2350 C   0  0  0  0  0  0  0  0  0  0  0  0
   35.0930   21.7810   33.6800 H   0  0  0  0  0  0  0  0  0  0  0  0
   34.1940   20.6090   31.6370 H   0  0  0  0  0  0  0  0  0  0  0  0
   35.8980   19.9960   31.1300 H   0  0  0  0  0  0  0  0  0  0  0  0
   34.4750   19.3950   33.8000 H   0  0  0  0  0  0  0  0  0  0  0  0
   36.2290   18.8790   33.3290 H   0  0  0  0  0  0  0  0  0  0  0  0
   39.2660   22.8720   35.9520 C   0  0  0  0  0  0  0  0  0  0  0  0
   38.4760   22.6910   36.7110 H   0  0  0  0  0  0  0  0  0  0  0  0
   40.2630   22.5450   36.3130 H   0  0  0  0  0  0  0  0  0  0  0  0
   39.2920   24.3430   35.7140 C   0  0  0  0  0  0  0  0  0  0  0  0
   38.2510   25.1350   36.2040 C   0  0  0  0  0  0  0  0  0  0  0  0
   37.4630   24.6070   36.7470 H   0  0  0  0  0  0  0  0  0  0  0  0
   38.1330   26.4980   36.0680 C   0  0  0  0  0  3  0  0  0  0  0  0
   39.1590   27.1420   35.3690 C   0  0  0  0  0  0  0  0  0  0  0  0
   39.0700   28.2110   35.2600 H   0  0  0  0  0  0  0  0  0  0  0  0
   40.2020   26.3760   34.8740 C   0  0  0  0  0  0  0  0  0  0  0  0
   40.9980   26.8950   34.3270 H   0  0  0  0  0  0  0  0  0  0  0  0
   40.2990   25.0190   35.0220 C   0  0  0  0  0  3  0  0  0  0  0  0
  1  6  1  0  0  0  0
  2  3  1  0  0  0  0
  2  1  2  0  0  0  0
  3  4  2  0  0  0  0
  4  5  1  0  0  0  0
  5 17  1  0  0  0  0
  6  5  2  0  0  0  0
  7  2  1  0  0  0  0
  8  3  1  0  0  0  0
  9 11  1  0  0  0  0
  9  1  1  0  0  0  0
  9 12  1  0  0  0  0
 10  9  1  0  0  0  0
 10 11  1  0  0  0  0
 11 16  1  0  0  0  0
 11 15  1  0  0  0  0
 13 10  1  0  0  0  0
 14 10  1  0  0  0  0
 17 19  1  0  0  0  0
 17 18  1  0  0  0  0
 20 17  1  0  0  0  0
 20 21  1  0  0  0  0
 21 22  1  0  0  0  0
 23 21  2  0  0  0  0
 24 23  1  0  0  0  0
 25 24  1  0  0  0  0
 26 28  1  0  0  0  0
 26 24  2  0  0  0  0
 27 26  1  0  0  0  0
 28 20  2  0  0  0  0
M  END
>  <minimizedAffinity>
-4.54309607

$$$$
