
 OpenBabel03272510303D

 28 30  0  0  0  0  0  0  0  0999 V2000
   37.3510   31.4040   49.2590 C   0  0  0  0  0  0  0  0  0  0  0  0
   37.5640   32.7180   49.6740 C   0  0  0  0  0  0  0  0  0  0  0  0
   38.4670   33.4420   48.9350 C   0  0  0  0  0  0  0  0  0  0  0  0
   39.0900   32.8760   47.8710 N   0  0  0  0  0  0  0  0  0  0  0  0
   38.8550   31.5870   47.4950 C   0  0  0  0  0  0  0  0  0  0  0  0
   37.9620   30.8200   48.2020 N   0  0  0  0  0  0  0  0  0  0  0  0
   37.0160   33.0690   50.5320 H   0  0  0  0  0  0  0  0  0  0  0  0
   38.6590   34.4660   49.2270 H   0  0  0  0  0  0  0  0  0  0  0  0
   36.3470   30.5740   50.0180 C   0  0  0  0  0  0  0  0  0  0  0  0
   36.3130   29.1350   49.9630 C   0  0  0  0  0  0  0  0  0  0  0  0
   36.9960   29.7720   51.1580 C   0  0  0  0  0  0  0  0  0  0  0  0
   35.4530   31.1620   50.3220 H   0  0  0  0  0  0  0  0  0  0  0  0
   35.3200   28.6480   50.1840 H   0  0  0  0  0  0  0  0  0  0  0  0
   37.0040   28.5160   49.3560 H   0  0  0  0  0  0  0  0  0  0  0  0
   36.4320   29.7760   52.1130 H   0  0  0  0  0  0  0  0  0  0  0  0
   38.0980   29.7410   51.2260 H   0  0  0  0  0  0  0  0  0  0  0  0
   39.5060   30.9770   46.3420 C   0  0  0  0  0  0  0  0  0  0  0  0
   40.5910   31.2110   46.3710 H   0  0  0  0  0  0  0  0  0  0  0  0
   39.3250   29.8840   46.2870 H   0  0  0  0  0  0  0  0  0  0  0  0
   38.9690   31.6230   45.1110 C   0  0  0  0  0  0  0  0  0  0  0  0
   39.8550   32.1700   44.1830 C   0  0  0  0  0  0  0  0  0  0  0  0
   40.9180   32.0860   44.4270 H   0  0  0  0  0  0  0  0  0  0  0  0
   39.5170   32.7960   43.0050 C   0  0  0  0  0  3  0  0  0  0  0  0
   38.1500   32.8850   42.7240 C   0  0  0  0  0  0  0  0  0  0  0  0
   37.8800   33.3750   41.8010 H   0  0  0  0  0  0  0  0  0  0  0  0
   37.2510   32.3480   43.6320 C   0  0  0  0  0  0  0  0  0  0  0  0
   36.1840   32.4280   43.3970 H   0  0  0  0  0  0  0  0  0  0  0  0
   37.6130   31.7310   44.7970 C   0  0  0  0  0  3  0  0  0  0  0  0
  1  2  1  0  0  0  0
  1  9  1  0  0  0  0
  2  7  1  0  0  0  0
  3  8  1  0  0  0  0
  3  2  2  0  0  0  0
  4  3  1  0  0  0  0
  5  4  2  0  0  0  0
  5  6  1  0  0  0  0
  6  1  2  0  0  0  0
  9 12  1  0  0  0  0
  9 11  1  0  0  0  0
 10  9  1  0  0  0  0
 10 13  1  0  0  0  0
 10 11  1  0  0  0  0
 11 16  1  0  0  0  0
 11 15  1  0  0  0  0
 14 10  1  0  0  0  0
 17 18  1  0  0  0  0
 17  5  1  0  0  0  0
 19 17  1  0  0  0  0
 20 17  1  0  0  0  0
 21 22  1  0  0  0  0
 21 20  2  0  0  0  0
 23 21  1  0  0  0  0
 24 23  2  0  0  0  0
 24 26  1  0  0  0  0
 25 24  1  0  0  0  0
 26 28  2  0  0  0  0
 27 26  1  0  0  0  0
 28 20  1  0  0  0  0
M  END
>  <minimizedAffinity>
-5.4155488

>  <minimizedRMSD>
0.919641733

$$$$
