
 OpenBabel03262523213D

 41 44  0  0  1  0  0  0  0  0999 V2000
   37.8270   28.2190   30.1290 C   0  0  0  0  0  0  0  0  0  0  0  0
   36.8570   29.1930   30.3390 C   0  0  0  0  0  0  0  0  0  0  0  0
   36.3320   29.3400   31.6120 C   0  0  0  0  0  0  0  0  0  0  0  0
   36.7790   28.5310   32.6050 N   0  0  0  0  0  0  0  0  0  0  0  0
   37.6880   27.6130   32.4150 C   0  0  0  0  0  0  0  0  0  0  0  0
   38.1460   27.5240   31.1950 N   0  0  0  0  0  0  0  0  0  0  0  0
   38.1280   26.7960   33.4760 N   0  0  0  0  0  0  0  0  0  0  0  0
   38.7210   27.3490   34.6980 C   0  0  0  0  0  0  0  0  0  0  0  0
   38.9530   26.1840   35.5670 C   0  0  0  0  0  0  0  0  0  0  0  0
   38.0760   25.0810   34.9710 C   0  0  0  0  0  0  0  0  0  0  0  0
   38.1330   25.3270   33.5420 C   0  0  1  0  0  0  0  0  0  0  0  0
   38.2250   28.1190   29.1330 H   0  0  0  0  0  0  0  0  0  0  0  0
   36.4680   29.8580   29.5910 H   0  0  0  0  0  0  0  0  0  0  0  0
   35.5700   30.0830   31.8500 H   0  0  0  0  0  0  0  0  0  0  0  0
   38.1140   28.1660   35.1300 H   0  0  0  0  0  0  0  0  0  0  0  0
   39.6720   27.8220   34.3780 H   0  0  0  0  0  0  0  0  0  0  0  0
   38.7590   26.3740   36.6310 H   0  0  0  0  0  0  0  0  0  0  0  0
   40.0490   25.9190   35.5240 H   0  0  0  0  0  0  0  0  0  0  0  0
   38.5740   24.2330   35.3850 H   0  0  0  0  0  0  0  0  0  0  0  0
   37.1340   25.4860   35.3760 H   0  0  0  0  0  0  0  0  0  0  0  0
   39.1630   25.1750   33.0860 H   0  0  0  0  0  0  0  0  0  0  0  0
   37.0910   23.2380   32.5970 C   0  0  0  0  0  0  0  0  0  0  0  0
   37.2140   24.6260   32.6950 C   0  0  0  0  0  0  0  0  0  0  0  0
   36.2520   25.2700   31.9330 C   0  0  0  0  0  0  0  0  0  0  0  0
   35.2820   24.6650   31.1720 C   0  0  0  0  0  0  0  0  0  0  0  0
   35.2490   23.2530   31.1460 C   0  0  0  0  0  0  0  0  0  0  0  0
   36.1660   22.4970   31.8660 C   0  0  0  0  0  0  0  0  0  0  0  0
   36.1390   26.3050   31.7350 H   0  0  0  0  0  0  0  0  0  0  0  0
   34.5080   25.0630   30.5660 H   0  0  0  0  0  0  0  0  0  0  0  0
   34.5210   22.6620   30.5730 H   0  0  0  0  0  0  0  0  0  0  0  0
   36.1230   21.0460   31.8320 C   0  0  0  0  0  0  0  0  0  0  0  0
   36.7220   20.5100   30.6860 C   0  0  0  0  0  0  0  0  0  0  0  0
   37.1780   21.1020   29.8980 H   0  0  0  0  0  0  0  0  0  0  0  0
   36.7690   19.1460   30.4910 C   0  0  0  0  0  3  0  0  0  0  0  0
   36.2070   18.3090   31.4580 C   0  0  0  0  0  0  0  0  0  0  0  0
   36.2350   17.2500   31.3210 H   0  0  0  0  0  0  0  0  0  0  0  0
   35.6180   18.8600   32.5830 C   0  0  0  0  0  0  0  0  0  0  0  0
   35.1690   18.2540   33.3600 H   0  0  0  0  0  0  0  0  0  0  0  0
   35.5650   20.2270   32.7920 C   0  0  0  0  0  3  0  0  0  0  0  0
   38.8610   21.7770   33.7810 N   0  0  0  0  0  0  0  0  0  0  0  0
   38.0900   22.4270   33.2660 C   0  0  0  0  0  0  0  0  0  0  0  0
  1  2  2  0  0  0  0
  1  6  1  0  0  0  0
  2  3  1  0  0  0  0
  3 14  1  0  0  0  0
  3  4  2  0  0  0  0
  5  4  1  0  0  0  0
  5  7  1  0  0  0  0
  6  5  2  0  0  0  0
  7 11  1  0  0  0  0
  7  8  1  0  0  0  0
  8 15  1  0  0  0  0
  8  9  1  0  0  0  0
  9 17  1  0  0  0  0
 10 20  1  0  0  0  0
 10 19  1  0  0  0  0
 10  9  1  0  0  0  0
 11 21  1  6  0  0  0
 11 10  1  0  0  0  0
 12  1  1  0  0  0  0
 13  2  1  0  0  0  0
 16  8  1  0  0  0  0
 18  9  1  0  0  0  0
 22 23  1  0  0  0  0
 22 41  1  0  0  0  0
 23 11  1  0  0  0  0
 24 23  2  0  0  0  0
 25 24  1  0  0  0  0
 26 25  2  0  0  0  0
 26 27  1  0  0  0  0
 27 22  2  0  0  0  0
 28 24  1  0  0  0  0
 29 25  1  0  0  0  0
 30 26  1  0  0  0  0
 31 27  1  0  0  0  0
 31 39  1  0  0  0  0
 32 31  2  0  0  0  0
 33 32  1  0  0  0  0
 34 32  1  0  0  0  0
 34 35  2  0  0  0  0
 35 37  1  0  0  0  0
 36 35  1  0  0  0  0
 37 39  2  0  0  0  0
 37 38  1  0  0  0  0
 41 40  3  0  0  0  0
M  END
>  <minimizedAffinity>
-5.94498205

$$$$

 OpenBabel03262523213D

 41 44  0  0  1  0  0  0  0  0999 V2000
   41.2850   24.5120   31.0350 C   0  0  0  0  0  0  0  0  0  0  0  0
   41.6250   25.5760   30.2080 C   0  0  0  0  0  0  0  0  0  0  0  0
   41.2140   26.8490   30.5660 C   0  0  0  0  0  0  0  0  0  0  0  0
   40.4950   27.0120   31.7050 N   0  0  0  0  0  0  0  0  0  0  0  0
   40.1710   26.0170   32.4860 C   0  0  0  0  0  0  0  0  0  0  0  0
   40.5880   24.8420   32.0970 N   0  0  0  0  0  0  0  0  0  0  0  0
   39.4260   26.2300   33.6630 N   0  0  0  0  0  0  0  0  0  0  0  0
   39.8880   27.1200   34.7340 C   0  0  0  0  0  0  0  0  0  0  0  0
   38.7950   27.1280   35.7180 C   0  0  0  0  0  0  0  0  0  0  0  0
   37.5840   26.5920   34.9510 C   0  0  0  0  0  0  0  0  0  0  0  0
   38.1530   25.6040   34.0520 C   0  0  1  0  0  0  0  0  0  0  0  0
   41.6130   23.5290   30.7420 H   0  0  0  0  0  0  0  0  0  0  0  0
   42.1900   25.5050   29.2980 H   0  0  0  0  0  0  0  0  0  0  0  0
   41.4450   27.7300   29.9670 H   0  0  0  0  0  0  0  0  0  0  0  0
   40.2090   28.1070   34.3530 H   0  0  0  0  0  0  0  0  0  0  0  0
   40.8050   26.6440   35.1380 H   0  0  0  0  0  0  0  0  0  0  0  0
   38.6210   28.1070   36.1850 H   0  0  0  0  0  0  0  0  0  0  0  0
   39.0810   26.4540   36.5760 H   0  0  0  0  0  0  0  0  0  0  0  0
   36.9900   26.2780   35.7790 H   0  0  0  0  0  0  0  0  0  0  0  0
   37.4040   27.5290   34.4000 H   0  0  0  0  0  0  0  0  0  0  0  0
   38.6030   24.7030   34.5800 H   0  0  0  0  0  0  0  0  0  0  0  0
   37.1200   23.7300   32.7240 C   0  0  0  0  0  0  0  0  0  0  0  0
   37.3270   25.0830   33.0050 C   0  0  0  0  0  0  0  0  0  0  0  0
   36.5430   25.8900   32.1940 C   0  0  0  0  0  0  0  0  0  0  0  0
   35.6590   25.4590   31.2350 C   0  0  0  0  0  0  0  0  0  0  0  0
   35.5290   24.0660   31.0350 C   0  0  0  0  0  0  0  0  0  0  0  0
   36.2670   23.1580   31.7830 C   0  0  0  0  0  0  0  0  0  0  0  0
   36.5360   26.9460   32.1080 H   0  0  0  0  0  0  0  0  0  0  0  0
   35.0180   25.9870   30.5750 H   0  0  0  0  0  0  0  0  0  0  0  0
   34.8570   23.6090   30.2960 H   0  0  0  0  0  0  0  0  0  0  0  0
   36.1250   21.7290   31.5710 C   0  0  0  0  0  0  0  0  0  0  0  0
   35.0730   21.1720   32.3090 C   0  0  0  0  0  0  0  0  0  0  0  0
   34.4220   21.7350   32.9700 H   0  0  0  0  0  0  0  0  0  0  0  0
   34.7970   19.8230   32.2280 C   0  0  0  0  0  3  0  0  0  0  0  0
   35.5860   19.0240   31.3970 C   0  0  0  0  0  0  0  0  0  0  0  0
   35.3850   17.9780   31.3230 H   0  0  0  0  0  0  0  0  0  0  0  0
   36.6210   19.5960   30.6780 C   0  0  0  0  0  0  0  0  0  0  0  0
   37.2600   19.0200   30.0200 H   0  0  0  0  0  0  0  0  0  0  0  0
   36.9100   20.9480   30.7480 C   0  0  0  0  0  3  0  0  0  0  0  0
   38.5740   22.0160   33.9950 N   0  0  0  0  0  0  0  0  0  0  0  0
   37.9430   22.7660   33.4280 C   0  0  0  0  0  0  0  0  0  0  0  0
  1  6  1  0  0  0  0
  2  3  1  0  0  0  0
  2  1  2  0  0  0  0
  3  4  2  0  0  0  0
  4  5  1  0  0  0  0
  5  7  1  0  0  0  0
  6  5  2  0  0  0  0
  7 11  1  0  0  0  0
  7  8  1  0  0  0  0
  8 16  1  0  0  0  0
  8  9  1  0  0  0  0
  9 17  1  0  0  0  0
  9 18  1  0  0  0  0
 10  9  1  0  0  0  0
 10 19  1  0  0  0  0
 11 21  1  1  0  0  0
 11 10  1  0  0  0  0
 12  1  1  0  0  0  0
 13  2  1  0  0  0  0
 14  3  1  0  0  0  0
 15  8  1  0  0  0  0
 20 10  1  0  0  0  0
 22 23  1  0  0  0  0
 22 41  1  0  0  0  0
 23 11  1  0  0  0  0
 24 23  2  0  0  0  0
 25 24  1  0  0  0  0
 26 25  2  0  0  0  0
 26 27  1  0  0  0  0
 27 22  2  0  0  0  0
 28 24  1  0  0  0  0
 29 25  1  0  0  0  0
 30 26  1  0  0  0  0
 31 27  1  0  0  0  0
 31 32  1  0  0  0  0
 32 33  1  0  0  0  0
 34 32  2  0  0  0  0
 35 34  1  0  0  0  0
 36 35  1  0  0  0  0
 37 39  1  0  0  0  0
 37 35  2  0  0  0  0
 38 37  1  0  0  0  0
 39 31  2  0  0  0  0
 41 40  3  0  0  0  0
M  END
>  <minimizedAffinity>
-5.78909492

$$$$

 OpenBabel03262523213D

 41 44  0  0  1  0  0  0  0  0999 V2000
   37.8650   25.7810   35.8020 C   0  0  0  0  0  0  0  0  0  0  0  0
   38.1910   24.6950   36.6070 C   0  0  0  0  0  0  0  0  0  0  0  0
   39.1280   23.7870   36.1440 C   0  0  0  0  0  0  0  0  0  0  0  0
   39.6910   23.9870   34.9260 N   0  0  0  0  0  0  0  0  0  0  0  0
   39.3900   25.0040   34.1650 C   0  0  0  0  0  0  0  0  0  0  0  0
   38.5010   25.8260   34.6560 N   0  0  0  0  0  0  0  0  0  0  0  0
   40.0020   25.1770   32.9070 N   0  0  0  0  0  0  0  0  0  0  0  0
   41.4560   25.2960   32.7530 C   0  0  0  0  0  0  0  0  0  0  0  0
   41.6780   25.3710   31.3000 C   0  0  0  0  0  0  0  0  0  0  0  0
   40.3770   24.8480   30.6870 C   0  0  0  0  0  0  0  0  0  0  0  0
   39.3500   25.3190   31.5970 C   0  0  1  0  0  0  0  0  0  0  0  0
   37.1340   26.4780   36.1780 H   0  0  0  0  0  0  0  0  0  0  0  0
   37.7760   24.4890   37.5750 H   0  0  0  0  0  0  0  0  0  0  0  0
   39.4330   22.9130   36.7200 H   0  0  0  0  0  0  0  0  0  0  0  0
   42.0040   24.5000   33.2900 H   0  0  0  0  0  0  0  0  0  0  0  0
   41.7310   26.2430   33.2620 H   0  0  0  0  0  0  0  0  0  0  0  0
   42.5730   24.8360   30.9560 H   0  0  0  0  0  0  0  0  0  0  0  0
   41.8700   26.4470   31.0230 H   0  0  0  0  0  0  0  0  0  0  0  0
   40.4670   25.2800   29.7160 H   0  0  0  0  0  0  0  0  0  0  0  0
   40.5980   23.7880   30.8990 H   0  0  0  0  0  0  0  0  0  0  0  0
   39.2400   26.4510   31.6240 H   0  0  0  0  0  0  0  0  0  0  0  0
   37.6610   23.4510   31.6140 C   0  0  0  0  0  0  0  0  0  0  0  0
   38.0260   24.7910   31.4590 C   0  0  0  0  0  0  0  0  0  0  0  0
   36.9150   25.5920   31.2450 C   0  0  0  0  0  0  0  0  0  0  0  0
   35.6090   25.1700   31.1940 C   0  0  0  0  0  0  0  0  0  0  0  0
   35.3540   23.7910   31.3670 C   0  0  0  0  0  0  0  0  0  0  0  0
   36.3880   22.8880   31.5820 C   0  0  0  0  0  0  0  0  0  0  0  0
   36.8700   26.6250   31.0090 H   0  0  0  0  0  0  0  0  0  0  0  0
   34.7010   25.6960   31.0440 H   0  0  0  0  0  0  0  0  0  0  0  0
   34.3530   23.3400   31.3430 H   0  0  0  0  0  0  0  0  0  0  0  0
   36.1150   21.4730   31.7590 C   0  0  0  0  0  0  0  0  0  0  0  0
   35.7470   21.1500   33.0700 C   0  0  0  0  0  0  0  0  0  0  0  0
   35.6670   21.8690   33.8800 H   0  0  0  0  0  0  0  0  0  0  0  0
   35.4540   19.8480   33.4170 C   0  0  0  0  0  3  0  0  0  0  0  0
   35.5320   18.8580   32.4340 C   0  0  0  0  0  0  0  0  0  0  0  0
   35.3080   17.8440   32.6860 H   0  0  0  0  0  0  0  0  0  0  0  0
   35.8980   19.1990   31.1440 C   0  0  0  0  0  0  0  0  0  0  0  0
   35.9730   18.4690   30.3480 H   0  0  0  0  0  0  0  0  0  0  0  0
   36.1950   20.5020   30.7820 C   0  0  0  0  0  3  0  0  0  0  0  0
   39.5460   21.7030   31.8530 N   0  0  0  0  0  0  0  0  0  0  0  0
   38.7270   22.4780   31.7510 C   0  0  0  0  0  0  0  0  0  0  0  0
  1 12  1  0  0  0  0
  1  2  1  0  0  0  0
  2 13  1  0  0  0  0
  3  2  2  0  0  0  0
  3 14  1  0  0  0  0
  4  3  1  0  0  0  0
  5  6  1  0  0  0  0
  5  4  2  0  0  0  0
  6  1  2  0  0  0  0
  7  5  1  0  0  0  0
  8  7  1  0  0  0  0
  8 16  1  0  0  0  0
  8 15  1  0  0  0  0
  9  8  1  0  0  0  0
 10 20  1  0  0  0  0
 10  9  1  0  0  0  0
 10 11  1  0  0  0  0
 11 21  1  6  0  0  0
 11  7  1  0  0  0  0
 17  9  1  0  0  0  0
 18  9  1  0  0  0  0
 19 10  1  0  0  0  0
 22 41  1  0  0  0  0
 23 11  1  0  0  0  0
 23 22  2  0  0  0  0
 24 23  1  0  0  0  0
 25 24  2  0  0  0  0
 25 26  1  0  0  0  0
 26 27  2  0  0  0  0
 27 22  1  0  0  0  0
 27 31  1  0  0  0  0
 28 24  1  0  0  0  0
 29 25  1  0  0  0  0
 30 26  1  0  0  0  0
 31 32  1  0  0  0  0
 32 34  2  0  0  0  0
 32 33  1  0  0  0  0
 35 36  1  0  0  0  0
 35 34  1  0  0  0  0
 37 35  2  0  0  0  0
 38 37  1  0  0  0  0
 39 37  1  0  0  0  0
 39 31  2  0  0  0  0
 41 40  3  0  0  0  0
M  END
>  <minimizedAffinity>
-5.62000895

$$$$

 OpenBabel03262523213D

 41 44  0  0  1  0  0  0  0  0999 V2000
   41.5700   26.9820   31.7270 C   0  0  0  0  0  0  0  0  0  0  0  0
   41.8870   26.6910   30.4060 C   0  0  0  0  0  0  0  0  0  0  0  0
   40.8940   26.8010   29.4470 C   0  0  0  0  0  0  0  0  0  0  0  0
   39.6510   27.1860   29.8300 N   0  0  0  0  0  0  0  0  0  0  0  0
   39.3450   27.4610   31.0700 C   0  0  0  0  0  0  0  0  0  0  0  0
   40.3230   27.3400   31.9270 N   0  0  0  0  0  0  0  0  0  0  0  0
   38.0410   27.8630   31.4250 N   0  0  0  0  0  0  0  0  0  0  0  0
   37.4000   29.0470   30.8430 C   0  0  0  0  0  0  0  0  0  0  0  0
   36.0400   29.0550   31.4050 C   0  0  0  0  0  0  0  0  0  0  0  0
   35.8350   27.6340   31.9330 C   0  0  0  0  0  0  0  0  0  0  0  0
   37.1480   27.2520   32.4200 C   0  0  1  0  0  0  0  0  0  0  0  0
   42.3540   26.8920   32.4600 H   0  0  0  0  0  0  0  0  0  0  0  0
   42.8510   26.3820   30.0490 H   0  0  0  0  0  0  0  0  0  0  0  0
   41.0710   26.5900   28.3920 H   0  0  0  0  0  0  0  0  0  0  0  0
   37.4720   29.0660   29.7390 H   0  0  0  0  0  0  0  0  0  0  0  0
   37.9990   29.9110   31.1950 H   0  0  0  0  0  0  0  0  0  0  0  0
   35.2650   29.3770   30.6960 H   0  0  0  0  0  0  0  0  0  0  0  0
   36.0000   29.8210   32.2320 H   0  0  0  0  0  0  0  0  0  0  0  0
   35.0470   27.8270   32.6250 H   0  0  0  0  0  0  0  0  0  0  0  0
   35.6690   27.1910   30.9380 H   0  0  0  0  0  0  0  0  0  0  0  0
   37.5060   27.8590   33.3120 H   0  0  0  0  0  0  0  0  0  0  0  0
   37.9220   25.4090   33.9510 C   0  0  0  0  0  0  0  0  0  0  0  0
   37.3750   25.8780   32.7540 C   0  0  0  0  0  0  0  0  0  0  0  0
   36.9740   24.8290   31.9410 C   0  0  0  0  0  0  0  0  0  0  0  0
   37.0740   23.4920   32.2350 C   0  0  0  0  0  0  0  0  0  0  0  0
   37.6430   23.1290   33.4770 C   0  0  0  0  0  0  0  0  0  0  0  0
   38.0870   24.0920   34.3740 C   0  0  0  0  0  0  0  0  0  0  0  0
   36.6060   24.8570   30.9470 H   0  0  0  0  0  0  0  0  0  0  0  0
   36.7950   22.6250   31.6910 H   0  0  0  0  0  0  0  0  0  0  0  0
   37.7740   22.0930   33.8170 H   0  0  0  0  0  0  0  0  0  0  0  0
   38.6690   23.7090   35.6480 C   0  0  0  0  0  0  0  0  0  0  0  0
   37.7660   23.8160   36.7130 C   0  0  0  0  0  0  0  0  0  0  0  0
   36.7370   24.1450   36.6130 H   0  0  0  0  0  0  0  0  0  0  0  0
   38.1530   23.4940   37.9960 C   0  0  0  0  0  3  0  0  0  0  0  0
   39.4630   23.0590   38.2140 C   0  0  0  0  0  0  0  0  0  0  0  0
   39.7790   22.8060   39.2030 H   0  0  0  0  0  0  0  0  0  0  0  0
   40.3400   22.9630   37.1470 C   0  0  0  0  0  0  0  0  0  0  0  0
   41.3640   22.6310   37.2640 H   0  0  0  0  0  0  0  0  0  0  0  0
   39.9650   23.2820   35.8540 C   0  0  0  0  0  3  0  0  0  0  0  0
   38.8920   27.1680   35.5730 N   0  0  0  0  0  0  0  0  0  0  0  0
   38.4740   26.3890   34.8660 C   0  0  0  0  0  0  0  0  0  0  0  0
  1  6  1  0  0  0  0
  1 12  1  0  0  0  0
  2  1  2  0  0  0  0
  3  4  2  0  0  0  0
  3  2  1  0  0  0  0
  4  5  1  0  0  0  0
  5  7  1  0  0  0  0
  5  6  2  0  0  0  0
  7 11  1  0  0  0  0
  8 16  1  0  0  0  0
  8  9  1  0  0  0  0
  8  7  1  0  0  0  0
  9 10  1  0  0  0  0
  9 18  1  0  0  0  0
 10 11  1  0  0  0  0
 10 19  1  0  0  0  0
 11 23  1  0  0  0  0
 11 21  1  1  0  0  0
 13  2  1  0  0  0  0
 14  3  1  0  0  0  0
 15  8  1  0  0  0  0
 17  9  1  0  0  0  0
 20 10  1  0  0  0  0
 22 27  1  0  0  0  0
 22 41  1  0  0  0  0
 23 22  2  0  0  0  0
 24 25  2  0  0  0  0
 24 23  1  0  0  0  0
 25 26  1  0  0  0  0
 26 30  1  0  0  0  0
 26 27  2  0  0  0  0
 27 31  1  0  0  0  0
 28 24  1  0  0  0  0
 29 25  1  0  0  0  0
 31 39  2  0  0  0  0
 31 32  1  0  0  0  0
 32 34  2  0  0  0  0
 33 32  1  0  0  0  0
 34 35  1  0  0  0  0
 35 36  1  0  0  0  0
 37 38  1  0  0  0  0
 37 35  2  0  0  0  0
 39 37  1  0  0  0  0
 41 40  3  0  0  0  0
M  END
>  <minimizedAffinity>
-5.49682045

$$$$

 OpenBabel03262523213D

 41 44  0  0  1  0  0  0  0  0999 V2000
   38.2920   25.0770   36.1790 C   0  0  0  0  0  0  0  0  0  0  0  0
   37.6330   24.1570   36.9840 C   0  0  0  0  0  0  0  0  0  0  0  0
   37.5570   22.8410   36.5590 C   0  0  0  0  0  0  0  0  0  0  0  0
   38.1240   22.4990   35.3750 N   0  0  0  0  0  0  0  0  0  0  0  0
   38.7450   23.3580   34.6130 C   0  0  0  0  0  0  0  0  0  0  0  0
   38.7850   24.5820   35.0680 N   0  0  0  0  0  0  0  0  0  0  0  0
   39.3250   22.9600   33.3920 N   0  0  0  0  0  0  0  0  0  0  0  0
   40.3540   21.9170   33.3150 C   0  0  0  0  0  0  0  0  0  0  0  0
   40.6170   21.7490   31.8780 C   0  0  0  0  0  0  0  0  0  0  0  0
   39.4100   22.3910   31.1900 C   0  0  0  0  0  0  0  0  0  0  0  0
   39.0740   23.5100   32.0510 C   0  0  1  0  0  0  0  0  0  0  0  0
   38.3430   26.0960   36.5240 H   0  0  0  0  0  0  0  0  0  0  0  0
   37.1670   24.3720   37.9270 H   0  0  0  0  0  0  0  0  0  0  0  0
   37.0560   22.0650   37.1390 H   0  0  0  0  0  0  0  0  0  0  0  0
   40.0700   21.0030   33.8700 H   0  0  0  0  0  0  0  0  0  0  0  0
   41.2330   22.3300   33.8520 H   0  0  0  0  0  0  0  0  0  0  0  0
   40.7950   20.7090   31.5740 H   0  0  0  0  0  0  0  0  0  0  0  0
   41.5780   22.2840   31.6250 H   0  0  0  0  0  0  0  0  0  0  0  0
   39.8420   22.5690   30.2310 H   0  0  0  0  0  0  0  0  0  0  0  0
   38.7290   21.5490   31.3990 H   0  0  0  0  0  0  0  0  0  0  0  0
   39.8700   24.3210   32.0880 H   0  0  0  0  0  0  0  0  0  0  0  0
   37.6550   25.5630   31.7180 C   0  0  0  0  0  0  0  0  0  0  0  0
   37.8280   24.1820   31.8360 C   0  0  0  0  0  0  0  0  0  0  0  0
   36.6370   23.5070   31.6190 C   0  0  0  0  0  0  0  0  0  0  0  0
   35.4250   24.0780   31.3160 C   0  0  0  0  0  0  0  0  0  0  0  0
   35.3650   25.4860   31.2200 C   0  0  0  0  0  0  0  0  0  0  0  0
   36.4930   26.2720   31.4230 C   0  0  0  0  0  0  0  0  0  0  0  0
   36.4260   22.4730   31.7220 H   0  0  0  0  0  0  0  0  0  0  0  0
   34.4710   23.6550   31.1300 H   0  0  0  0  0  0  0  0  0  0  0  0
   34.4520   26.0510   30.9860 H   0  0  0  0  0  0  0  0  0  0  0  0
   36.4200   27.7180   31.3210 C   0  0  0  0  0  0  0  0  0  0  0  0
   35.9850   28.3250   32.5050 C   0  0  0  0  0  0  0  0  0  0  0  0
   35.7290   27.7870   33.4120 H   0  0  0  0  0  0  0  0  0  0  0  0
   35.8570   29.6960   32.5840 C   0  0  0  0  0  3  0  0  0  0  0  0
   36.1680   30.4660   31.4610 C   0  0  0  0  0  0  0  0  0  0  0  0
   36.0740   31.5300   31.5060 H   0  0  0  0  0  0  0  0  0  0  0  0
   36.5950   29.8450   30.3010 C   0  0  0  0  0  0  0  0  0  0  0  0
   36.8480   30.3970   29.4040 H   0  0  0  0  0  0  0  0  0  0  0  0
   36.7290   28.4710   30.2060 C   0  0  0  0  0  3  0  0  0  0  0  0
   39.6940   27.0540   32.2520 N   0  0  0  0  0  0  0  0  0  0  0  0
   38.7950   26.4090   32.0130 C   0  0  0  0  0  0  0  0  0  0  0  0
  1 12  1  0  0  0  0
  1  2  1  0  0  0  0
  2 13  1  0  0  0  0
  3  2  2  0  0  0  0
  3 14  1  0  0  0  0
  4  3  1  0  0  0  0
  5  6  1  0  0  0  0
  5  4  2  0  0  0  0
  6  1  2  0  0  0  0
  7  5  1  0  0  0  0
  8  7  1  0  0  0  0
  8 16  1  0  0  0  0
  8 15  1  0  0  0  0
  9  8  1  0  0  0  0
 10 20  1  0  0  0  0
 10  9  1  0  0  0  0
 10 11  1  0  0  0  0
 11 21  1  6  0  0  0
 11  7  1  0  0  0  0
 17  9  1  0  0  0  0
 18  9  1  0  0  0  0
 19 10  1  0  0  0  0
 22 23  1  0  0  0  0
 22 41  1  0  0  0  0
 23 11  1  0  0  0  0
 24 28  1  0  0  0  0
 24 23  2  0  0  0  0
 25 24  1  0  0  0  0
 26 25  2  0  0  0  0
 26 27  1  0  0  0  0
 27 22  2  0  0  0  0
 29 25  1  0  0  0  0
 30 26  1  0  0  0  0
 31 27  1  0  0  0  0
 31 32  1  0  0  0  0
 32 34  2  0  0  0  0
 32 33  1  0  0  0  0
 35 36  1  0  0  0  0
 35 34  1  0  0  0  0
 37 35  2  0  0  0  0
 38 37  1  0  0  0  0
 39 37  1  0  0  0  0
 39 31  2  0  0  0  0
 41 40  3  0  0  0  0
M  END
>  <minimizedAffinity>
-5.45082664

$$$$

 OpenBabel03262523213D

 41 44  0  0  1  0  0  0  0  0999 V2000
   38.3640   22.3240   31.3870 C   0  0  0  0  0  0  0  0  0  0  0  0
   37.1350   21.6850   31.2790 C   0  0  0  0  0  0  0  0  0  0  0  0
   36.0040   22.3490   31.7240 C   0  0  0  0  0  0  0  0  0  0  0  0
   36.1360   23.5930   32.2480 N   0  0  0  0  0  0  0  0  0  0  0  0
   37.2880   24.2000   32.3530 C   0  0  0  0  0  0  0  0  0  0  0  0
   38.3160   23.5240   31.9150 N   0  0  0  0  0  0  0  0  0  0  0  0
   37.3800   25.4950   32.8990 N   0  0  0  0  0  0  0  0  0  0  0  0
   36.6560   26.6390   32.3330 C   0  0  0  0  0  0  0  0  0  0  0  0
   36.9520   27.7600   33.2380 C   0  0  0  0  0  0  0  0  0  0  0  0
   37.4710   27.0950   34.5150 C   0  0  0  0  0  0  0  0  0  0  0  0
   38.2060   25.9410   34.0320 C   0  0  1  0  0  0  0  0  0  0  0  0
   39.2340   21.7930   31.0360 H   0  0  0  0  0  0  0  0  0  0  0  0
   36.9740   20.7040   30.8750 H   0  0  0  0  0  0  0  0  0  0  0  0
   35.0070   21.9110   31.6710 H   0  0  0  0  0  0  0  0  0  0  0  0
   35.5860   26.4190   32.1630 H   0  0  0  0  0  0  0  0  0  0  0  0
   37.0930   26.7950   31.3250 H   0  0  0  0  0  0  0  0  0  0  0  0
   36.1020   28.4350   33.4070 H   0  0  0  0  0  0  0  0  0  0  0  0
   37.7370   28.4120   32.7560 H   0  0  0  0  0  0  0  0  0  0  0  0
   37.9970   27.9250   34.9320 H   0  0  0  0  0  0  0  0  0  0  0  0
   36.4740   26.7770   34.8620 H   0  0  0  0  0  0  0  0  0  0  0  0
   39.1320   26.2020   33.4270 H   0  0  0  0  0  0  0  0  0  0  0  0
   39.8860   24.3790   35.0710 C   0  0  0  0  0  0  0  0  0  0  0  0
   38.6130   24.9490   34.9810 C   0  0  0  0  0  0  0  0  0  0  0  0
   37.7920   24.5050   36.0050 C   0  0  0  0  0  0  0  0  0  0  0  0
   38.1420   23.6290   37.0040 C   0  0  0  0  0  0  0  0  0  0  0  0
   39.4580   23.1150   36.9990 C   0  0  0  0  0  0  0  0  0  0  0  0
   40.3720   23.4820   36.0180 C   0  0  0  0  0  0  0  0  0  0  0  0
   36.7580   24.6860   36.1600 H   0  0  0  0  0  0  0  0  0  0  0  0
   37.5960   23.2370   37.8240 H   0  0  0  0  0  0  0  0  0  0  0  0
   39.8480   22.4080   37.7430 H   0  0  0  0  0  0  0  0  0  0  0  0
   41.7220   22.9480   36.0230 C   0  0  0  0  0  0  0  0  0  0  0  0
   41.7730   21.5960   35.6620 C   0  0  0  0  0  0  0  0  0  0  0  0
   40.9060   20.9980   35.4000 H   0  0  0  0  0  0  0  0  0  0  0  0
   42.9780   20.9280   35.6150 C   0  0  0  0  0  3  0  0  0  0  0  0
   44.1460   21.6250   35.9360 C   0  0  0  0  0  0  0  0  0  0  0  0
   45.0880   21.1210   35.9050 H   0  0  0  0  0  0  0  0  0  0  0  0
   44.0720   22.9600   36.2910 C   0  0  0  0  0  0  0  0  0  0  0  0
   44.9480   23.5430   36.5480 H   0  0  0  0  0  0  0  0  0  0  0  0
   42.8700   23.6440   36.3410 C   0  0  0  0  0  3  0  0  0  0  0  0
   41.5570   24.8950   33.1710 N   0  0  0  0  0  0  0  0  0  0  0  0
   40.8300   24.6760   34.0100 C   0  0  0  0  0  0  0  0  0  0  0  0
  1  6  1  0  0  0  0
  2  1  2  0  0  0  0
  2  3  1  0  0  0  0
  3  4  2  0  0  0  0
  4  5  1  0  0  0  0
  5  7  1  0  0  0  0
  6  5  2  0  0  0  0
  7 11  1  0  0  0  0
  8  7  1  0  0  0  0
  8  9  1  0  0  0  0
  9 17  1  0  0  0  0
  9 10  1  0  0  0  0
 10 20  1  0  0  0  0
 10 19  1  0  0  0  0
 11 21  1  6  0  0  0
 11 10  1  0  0  0  0
 11 23  1  0  0  0  0
 12  1  1  0  0  0  0
 13  2  1  0  0  0  0
 14  3  1  0  0  0  0
 15  8  1  0  0  0  0
 16  8  1  0  0  0  0
 18  9  1  0  0  0  0
 22 27  1  0  0  0  0
 23 22  2  0  0  0  0
 23 24  1  0  0  0  0
 24 28  1  0  0  0  0
 24 25  2  0  0  0  0
 25 29  1  0  0  0  0
 26 25  1  0  0  0  0
 26 30  1  0  0  0  0
 27 31  1  0  0  0  0
 27 26  2  0  0  0  0
 31 39  1  0  0  0  0
 32 31  2  0  0  0  0
 33 32  1  0  0  0  0
 34 32  1  0  0  0  0
 34 35  2  0  0  0  0
 35 37  1  0  0  0  0
 36 35  1  0  0  0  0
 37 39  2  0  0  0  0
 37 38  1  0  0  0  0
 40 41  3  0  0  0  0
 41 22  1  0  0  0  0
M  END
>  <minimizedAffinity>
-5.35071611

$$$$

 OpenBabel03262523213D

 41 44  0  0  1  0  0  0  0  0999 V2000
   40.2260   27.1510   33.6060 C   0  0  0  0  0  0  0  0  0  0  0  0
   40.1330   26.7410   34.9300 C   0  0  0  0  0  0  0  0  0  0  0  0
   39.0130   26.0280   35.3250 C   0  0  0  0  0  0  0  0  0  0  0  0
   38.0490   25.7590   34.4090 N   0  0  0  0  0  0  0  0  0  0  0  0
   38.1290   26.1420   33.1630 C   0  0  0  0  0  0  0  0  0  0  0  0
   39.2090   26.8080   32.8510 N   0  0  0  0  0  0  0  0  0  0  0  0
   37.1070   25.8370   32.2420 N   0  0  0  0  0  0  0  0  0  0  0  0
   36.6980   24.4580   31.9520 C   0  0  0  0  0  0  0  0  0  0  0  0
   35.5640   24.5870   31.0240 C   0  0  0  0  0  0  0  0  0  0  0  0
   35.1060   26.0390   31.1780 C   0  0  0  0  0  0  0  0  0  0  0  0
   36.3390   26.7700   31.4040 C   0  0  1  0  0  0  0  0  0  0  0  0
   41.1040   27.7040   33.3150 H   0  0  0  0  0  0  0  0  0  0  0  0
   40.8640   26.9270   35.6950 H   0  0  0  0  0  0  0  0  0  0  0  0
   38.8730   25.6740   36.3460 H   0  0  0  0  0  0  0  0  0  0  0  0
   36.5130   23.8710   32.8700 H   0  0  0  0  0  0  0  0  0  0  0  0
   37.5770   23.9850   31.4680 H   0  0  0  0  0  0  0  0  0  0  0  0
   34.7640   23.8530   31.1900 H   0  0  0  0  0  0  0  0  0  0  0  0
   35.9310   24.3710   29.9790 H   0  0  0  0  0  0  0  0  0  0  0  0
   34.5850   26.1470   30.2530 H   0  0  0  0  0  0  0  0  0  0  0  0
   34.5960   25.8700   32.1410 H   0  0  0  0  0  0  0  0  0  0  0  0
   37.0480   26.7680   30.5160 H   0  0  0  0  0  0  0  0  0  0  0  0
   36.5000   29.2590   31.0580 C   0  0  0  0  0  0  0  0  0  0  0  0
   36.2510   28.1310   31.8430 C   0  0  0  0  0  0  0  0  0  0  0  0
   35.8000   28.4870   33.1040 C   0  0  0  0  0  0  0  0  0  0  0  0
   35.6020   29.7660   33.5630 C   0  0  0  0  0  0  0  0  0  0  0  0
   35.8850   30.8340   32.6820 C   0  0  0  0  0  0  0  0  0  0  0  0
   36.3490   30.6020   31.3930 C   0  0  0  0  0  0  0  0  0  0  0  0
   35.6100   27.8700   33.9450 H   0  0  0  0  0  0  0  0  0  0  0  0
   35.2600   30.1380   34.4950 H   0  0  0  0  0  0  0  0  0  0  0  0
   35.7670   31.8950   32.9400 H   0  0  0  0  0  0  0  0  0  0  0  0
   36.6360   31.7070   30.4960 C   0  0  0  0  0  0  0  0  0  0  0  0
   35.4800   32.2840   29.9560 C   0  0  0  0  0  0  0  0  0  0  0  0
   34.4700   31.9550   30.1770 H   0  0  0  0  0  0  0  0  0  0  0  0
   35.5690   33.3460   29.0810 C   0  0  0  0  0  3  0  0  0  0  0  0
   36.8330   33.8340   28.7430 C   0  0  0  0  0  0  0  0  0  0  0  0
   36.9190   34.6560   28.0660 H   0  0  0  0  0  0  0  0  0  0  0  0
   37.9630   33.2470   29.2870 C   0  0  0  0  0  0  0  0  0  0  0  0
   38.9640   33.5890   29.0570 H   0  0  0  0  0  0  0  0  0  0  0  0
   37.8890   32.1820   30.1670 C   0  0  0  0  0  3  0  0  0  0  0  0
   37.5240   28.8980   28.7150 N   0  0  0  0  0  0  0  0  0  0  0  0
   37.0680   29.0470   29.7400 C   0  0  0  0  0  0  0  0  0  0  0  0
  1  2  1  0  0  0  0
  2  3  2  0  0  0  0
  2 13  1  0  0  0  0
  3 14  1  0  0  0  0
  4  3  1  0  0  0  0
  5  4  2  0  0  0  0
  6  5  1  0  0  0  0
  6  1  2  0  0  0  0
  7  5  1  0  0  0  0
  8  7  1  0  0  0  0
  8 15  1  0  0  0  0
  9 10  1  0  0  0  0
  9 17  1  0  0  0  0
  9  8  1  0  0  0  0
 10 11  1  0  0  0  0
 10 20  1  0  0  0  0
 11 21  1  6  0  0  0
 11 23  1  0  0  0  0
 11  7  1  0  0  0  0
 12  1  1  0  0  0  0
 16  8  1  0  0  0  0
 18  9  1  0  0  0  0
 19 10  1  0  0  0  0
 22 27  2  0  0  0  0
 22 23  1  0  0  0  0
 23 24  2  0  0  0  0
 24 25  1  0  0  0  0
 24 28  1  0  0  0  0
 25 29  1  0  0  0  0
 26 30  1  0  0  0  0
 26 25  2  0  0  0  0
 27 26  1  0  0  0  0
 31 27  1  0  0  0  0
 32 33  1  0  0  0  0
 32 31  2  0  0  0  0
 34 32  1  0  0  0  0
 35 34  2  0  0  0  0
 35 37  1  0  0  0  0
 36 35  1  0  0  0  0
 37 39  2  0  0  0  0
 38 37  1  0  0  0  0
 39 31  1  0  0  0  0
 40 41  3  0  0  0  0
 41 22  1  0  0  0  0
M  END
>  <minimizedAffinity>
-5.32239103

$$$$

 OpenBabel03262523213D

 41 44  0  0  1  0  0  0  0  0999 V2000
   35.9190   26.4840   31.1520 C   0  0  0  0  0  0  0  0  0  0  0  0
   35.7400   27.5130   32.0680 C   0  0  0  0  0  0  0  0  0  0  0  0
   36.8580   28.0560   32.6790 C   0  0  0  0  0  0  0  0  0  0  0  0
   38.0830   27.5650   32.3650 N   0  0  0  0  0  0  0  0  0  0  0  0
   38.2580   26.5980   31.5050 C   0  0  0  0  0  0  0  0  0  0  0  0
   37.1680   26.1280   30.9620 N   0  0  0  0  0  0  0  0  0  0  0  0
   39.5490   26.1200   31.2030 N   0  0  0  0  0  0  0  0  0  0  0  0
   40.6040   26.9900   30.6710 C   0  0  0  0  0  0  0  0  0  0  0  0
   41.7950   26.1320   30.5830 C   0  0  0  0  0  0  0  0  0  0  0  0
   41.4730   24.9360   31.4820 C   0  0  0  0  0  0  0  0  0  0  0  0
   40.0470   24.7390   31.3000 C   0  0  1  0  0  0  0  0  0  0  0  0
   35.0390   26.0730   30.6850 H   0  0  0  0  0  0  0  0  0  0  0  0
   34.7970   27.9380   32.3550 H   0  0  0  0  0  0  0  0  0  0  0  0
   36.7940   28.8650   33.4070 H   0  0  0  0  0  0  0  0  0  0  0  0
   40.7160   27.9220   31.2550 H   0  0  0  0  0  0  0  0  0  0  0  0
   40.2470   27.3070   29.6690 H   0  0  0  0  0  0  0  0  0  0  0  0
   42.7330   26.6400   30.8460 H   0  0  0  0  0  0  0  0  0  0  0  0
   41.9350   25.8220   29.5080 H   0  0  0  0  0  0  0  0  0  0  0  0
   42.1640   24.2320   31.0750 H   0  0  0  0  0  0  0  0  0  0  0  0
   41.6510   25.4810   32.4240 H   0  0  0  0  0  0  0  0  0  0  0  0
   39.7540   24.4170   30.2490 H   0  0  0  0  0  0  0  0  0  0  0  0
   39.3050   23.9830   33.5850 C   0  0  0  0  0  0  0  0  0  0  0  0
   39.3640   23.8530   32.1950 C   0  0  0  0  0  0  0  0  0  0  0  0
   38.5830   22.7950   31.7560 C   0  0  0  0  0  0  0  0  0  0  0  0
   37.8270   21.9640   32.5460 C   0  0  0  0  0  0  0  0  0  0  0  0
   37.8400   22.1870   33.9410 C   0  0  0  0  0  0  0  0  0  0  0  0
   38.5900   23.2140   34.5000 C   0  0  0  0  0  0  0  0  0  0  0  0
   38.4890   22.3940   30.7790 H   0  0  0  0  0  0  0  0  0  0  0  0
   37.2010   21.1410   32.3100 H   0  0  0  0  0  0  0  0  0  0  0  0
   37.2780   21.5850   34.6670 H   0  0  0  0  0  0  0  0  0  0  0  0
   38.5950   23.4360   35.9350 C   0  0  0  0  0  0  0  0  0  0  0  0
   39.5920   22.7060   36.5930 C   0  0  0  0  0  0  0  0  0  0  0  0
   40.2960   22.0440   36.0990 H   0  0  0  0  0  0  0  0  0  0  0  0
   39.7400   22.7960   37.9610 C   0  0  0  0  0  3  0  0  0  0  0  0
   38.8750   23.6280   38.6770 C   0  0  0  0  0  0  0  0  0  0  0  0
   38.9760   23.7090   39.7380 H   0  0  0  0  0  0  0  0  0  0  0  0
   37.8950   24.3390   38.0060 C   0  0  0  0  0  0  0  0  0  0  0  0
   37.2020   24.9960   38.5150 H   0  0  0  0  0  0  0  0  0  0  0  0
   37.7360   24.2590   36.6330 C   0  0  0  0  0  3  0  0  0  0  0  0
   40.7940   25.7740   34.6990 N   0  0  0  0  0  0  0  0  0  0  0  0
   40.1470   24.9900   34.2010 C   0  0  0  0  0  0  0  0  0  0  0  0
  1  2  1  0  0  0  0
  2 13  1  0  0  0  0
  2  3  2  0  0  0  0
  3 14  1  0  0  0  0
  4  3  1  0  0  0  0
  5  4  2  0  0  0  0
  6  1  2  0  0  0  0
  6  5  1  0  0  0  0
  7 11  1  0  0  0  0
  7  5  1  0  0  0  0
  8  7  1  0  0  0  0
  8 15  1  0  0  0  0
  9  8  1  0  0  0  0
  9 17  1  0  0  0  0
  9 10  1  0  0  0  0
 10 20  1  0  0  0  0
 11 21  1  6  0  0  0
 11 10  1  0  0  0  0
 11 23  1  0  0  0  0
 12  1  1  0  0  0  0
 16  8  1  0  0  0  0
 18  9  1  0  0  0  0
 19 10  1  0  0  0  0
 22 41  1  0  0  0  0
 22 27  1  0  0  0  0
 23 22  2  0  0  0  0
 24 23  1  0  0  0  0
 24 25  2  0  0  0  0
 25 26  1  0  0  0  0
 26 27  2  0  0  0  0
 26 30  1  0  0  0  0
 27 31  1  0  0  0  0
 28 24  1  0  0  0  0
 29 25  1  0  0  0  0
 31 32  2  0  0  0  0
 31 39  1  0  0  0  0
 32 34  1  0  0  0  0
 33 32  1  0  0  0  0
 34 35  2  0  0  0  0
 35 36  1  0  0  0  0
 37 38  1  0  0  0  0
 37 35  1  0  0  0  0
 39 37  2  0  0  0  0
 41 40  3  0  0  0  0
M  END
>  <minimizedAffinity>
-5.28183651

$$$$

 OpenBabel03262523213D

 41 44  0  0  1  0  0  0  0  0999 V2000
   36.0390   23.9280   31.2350 C   0  0  0  0  0  0  0  0  0  0  0  0
   37.1350   23.2800   30.6780 C   0  0  0  0  0  0  0  0  0  0  0  0
   38.3740   23.4450   31.2740 C   0  0  0  0  0  0  0  0  0  0  0  0
   38.4750   24.2320   32.3740 N   0  0  0  0  0  0  0  0  0  0  0  0
   37.4500   24.8440   32.9030 C   0  0  0  0  0  0  0  0  0  0  0  0
   36.3090   24.6490   32.2980 N   0  0  0  0  0  0  0  0  0  0  0  0
   37.5970   25.6490   34.0510 N   0  0  0  0  0  0  0  0  0  0  0  0
   38.1300   25.1250   35.3130 C   0  0  0  0  0  0  0  0  0  0  0  0
   38.2000   26.2910   36.2080 C   0  0  0  0  0  0  0  0  0  0  0  0
   38.1180   27.4980   35.2700 C   0  0  0  0  0  0  0  0  0  0  0  0
   37.2200   27.0600   34.2180 C   0  0  1  0  0  0  0  0  0  0  0  0
   35.0830   23.7880   30.7600 H   0  0  0  0  0  0  0  0  0  0  0  0
   37.1130   22.6480   29.8100 H   0  0  0  0  0  0  0  0  0  0  0  0
   39.2770   22.9680   30.8920 H   0  0  0  0  0  0  0  0  0  0  0  0
   39.0700   24.5610   35.1720 H   0  0  0  0  0  0  0  0  0  0  0  0
   37.3850   24.3800   35.6620 H   0  0  0  0  0  0  0  0  0  0  0  0
   39.0820   26.3010   36.8610 H   0  0  0  0  0  0  0  0  0  0  0  0
   37.3240   26.2510   36.9170 H   0  0  0  0  0  0  0  0  0  0  0  0
   37.7960   28.2320   35.9740 H   0  0  0  0  0  0  0  0  0  0  0  0
   39.1610   27.4130   34.9220 H   0  0  0  0  0  0  0  0  0  0  0  0
   36.1540   26.8740   34.5670 H   0  0  0  0  0  0  0  0  0  0  0  0
   36.2580   28.9470   32.8550 C   0  0  0  0  0  0  0  0  0  0  0  0
   37.1190   27.8610   33.0350 C   0  0  0  0  0  0  0  0  0  0  0  0
   37.9580   27.6990   31.9430 C   0  0  0  0  0  0  0  0  0  0  0  0
   37.9820   28.4840   30.8170 C   0  0  0  0  0  0  0  0  0  0  0  0
   37.0680   29.5580   30.7410 C   0  0  0  0  0  0  0  0  0  0  0  0
   36.1720   29.8170   31.7710 C   0  0  0  0  0  0  0  0  0  0  0  0
   38.6540   26.9240   31.7440 H   0  0  0  0  0  0  0  0  0  0  0  0
   38.5810   28.4470   29.9420 H   0  0  0  0  0  0  0  0  0  0  0  0
   36.9960   30.2490   29.8890 H   0  0  0  0  0  0  0  0  0  0  0  0
   35.2370   30.9240   31.6830 C   0  0  0  0  0  0  0  0  0  0  0  0
   35.8070   32.1480   32.0550 C   0  0  0  0  0  0  0  0  0  0  0  0
   36.8370   32.2730   32.3740 H   0  0  0  0  0  0  0  0  0  0  0  0
   35.0590   33.3060   32.0320 C   0  0  0  0  0  3  0  0  0  0  0  0
   33.7220   33.2350   31.6320 C   0  0  0  0  0  0  0  0  0  0  0  0
   33.1290   34.1230   31.6100 H   0  0  0  0  0  0  0  0  0  0  0  0
   33.1790   32.0150   31.2700 C   0  0  0  0  0  0  0  0  0  0  0  0
   32.1490   31.9080   30.9530 H   0  0  0  0  0  0  0  0  0  0  0  0
   33.9180   30.8440   31.2870 C   0  0  0  0  0  3  0  0  0  0  0  0
   34.4640   29.3830   34.6580 N   0  0  0  0  0  0  0  0  0  0  0  0
   35.2550   29.1840   33.8740 C   0  0  0  0  0  0  0  0  0  0  0  0
  1  6  1  0  0  0  0
  2  1  2  0  0  0  0
  2  3  1  0  0  0  0
  3  4  2  0  0  0  0
  4  5  1  0  0  0  0
  5  7  1  0  0  0  0
  6  5  2  0  0  0  0
  7 11  1  0  0  0  0
  7  8  1  0  0  0  0
  8 16  1  0  0  0  0
  8  9  1  0  0  0  0
  9 17  1  0  0  0  0
  9 18  1  0  0  0  0
 10 19  1  0  0  0  0
 10  9  1  0  0  0  0
 11 21  1  1  0  0  0
 11 10  1  0  0  0  0
 12  1  1  0  0  0  0
 13  2  1  0  0  0  0
 14  3  1  0  0  0  0
 15  8  1  0  0  0  0
 20 10  1  0  0  0  0
 22 23  1  0  0  0  0
 22 41  1  0  0  0  0
 23 11  1  0  0  0  0
 24 23  2  0  0  0  0
 25 24  1  0  0  0  0
 26 25  2  0  0  0  0
 26 27  1  0  0  0  0
 27 22  2  0  0  0  0
 28 24  1  0  0  0  0
 29 25  1  0  0  0  0
 30 26  1  0  0  0  0
 31 27  1  0  0  0  0
 31 32  1  0  0  0  0
 32 33  1  0  0  0  0
 34 32  2  0  0  0  0
 35 34  1  0  0  0  0
 36 35  1  0  0  0  0
 37 39  1  0  0  0  0
 37 35  2  0  0  0  0
 38 37  1  0  0  0  0
 39 31  2  0  0  0  0
 41 40  3  0  0  0  0
M  END
>  <minimizedAffinity>
-5.21615982

$$$$
