
 OpenBabel03272510303D

 28 30  0  0  0  0  0  0  0  0999 V2000
   37.3230   31.4020   49.2830 C   0  0  0  0  0  0  0  0  0  0  0  0
   37.4780   32.7160   49.7260 C   0  0  0  0  0  0  0  0  0  0  0  0
   38.3770   33.4830   49.0260 C   0  0  0  0  0  0  0  0  0  0  0  0
   39.0520   32.9570   47.9740 N   0  0  0  0  0  0  0  0  0  0  0  0
   38.8730   31.6670   47.5700 C   0  0  0  0  0  0  0  0  0  0  0  0
   37.9870   30.8580   48.2370 N   0  0  0  0  0  0  0  0  0  0  0  0
   36.8920   33.0340   50.5710 H   0  0  0  0  0  0  0  0  0  0  0  0
   38.5250   34.5080   49.3410 H   0  0  0  0  0  0  0  0  0  0  0  0
   36.3260   30.5260   49.9980 C   0  0  0  0  0  0  0  0  0  0  0  0
   36.3490   29.0880   49.9240 C   0  0  0  0  0  0  0  0  0  0  0  0
   36.9660   29.7340   51.1500 C   0  0  0  0  0  0  0  0  0  0  0  0
   35.4010   31.0760   50.2770 H   0  0  0  0  0  0  0  0  0  0  0  0
   35.3680   28.5610   50.1060 H   0  0  0  0  0  0  0  0  0  0  0  0
   37.0830   28.5030   49.3350 H   0  0  0  0  0  0  0  0  0  0  0  0
   36.3700   29.7050   52.0850 H   0  0  0  0  0  0  0  0  0  0  0  0
   38.0660   29.7440   51.2550 H   0  0  0  0  0  0  0  0  0  0  0  0
   39.5800   31.0990   46.4290 C   0  0  0  0  0  0  0  0  0  0  0  0
   40.6450   31.4110   46.4680 H   0  0  0  0  0  0  0  0  0  0  0  0
   39.4790   29.9950   46.3790 H   0  0  0  0  0  0  0  0  0  0  0  0
   39.0110   31.6970   45.1880 C   0  0  0  0  0  0  0  0  0  0  0  0
   39.8720   32.2470   44.2360 C   0  0  0  0  0  0  0  0  0  0  0  0
   40.9390   32.2010   44.4700 H   0  0  0  0  0  0  0  0  0  0  0  0
   39.5030   32.8320   43.0460 C   0  0  0  0  0  3  0  0  0  0  0  0
   38.1320   32.8740   42.7770 C   0  0  0  0  0  0  0  0  0  0  0  0
   37.8380   33.3320   41.8460 H   0  0  0  0  0  0  0  0  0  0  0  0
   37.2590   32.3350   43.7080 C   0  0  0  0  0  0  0  0  0  0  0  0
   36.1870   32.3750   43.4820 H   0  0  0  0  0  0  0  0  0  0  0  0
   37.6500   31.7580   44.8850 C   0  0  0  0  0  3  0  0  0  0  0  0
  1  2  1  0  0  0  0
  1  9  1  0  0  0  0
  2  7  1  0  0  0  0
  3  8  1  0  0  0  0
  3  2  2  0  0  0  0
  4  3  1  0  0  0  0
  5  4  2  0  0  0  0
  5  6  1  0  0  0  0
  6  1  2  0  0  0  0
  9 12  1  0  0  0  0
  9 11  1  0  0  0  0
 10  9  1  0  0  0  0
 10 13  1  0  0  0  0
 10 11  1  0  0  0  0
 11 16  1  0  0  0  0
 11 15  1  0  0  0  0
 14 10  1  0  0  0  0
 17 18  1  0  0  0  0
 17  5  1  0  0  0  0
 19 17  1  0  0  0  0
 20 17  1  0  0  0  0
 21 22  1  0  0  0  0
 21 20  2  0  0  0  0
 23 21  1  0  0  0  0
 24 23  2  0  0  0  0
 24 26  1  0  0  0  0
 25 24  1  0  0  0  0
 26 28  2  0  0  0  0
 27 26  1  0  0  0  0
 28 20  1  0  0  0  0
M  END
>  <minimizedAffinity>
-5.4186368

>  <minimizedRMSD>
1.03729129

$$$$
