
 OpenBabel03272501133D

 28 30  0  0  1  0  0  0  0  0999 V2000
   37.2740   26.7650   35.0920 C   0  0  1  0  0  0  0  0  0  0  0  0
   38.3300   25.8070   35.3280 C   0  0  1  0  0  0  0  0  0  0  0  0
   38.4950   27.1950   35.9040 C   0  0  0  0  0  0  0  0  0  0  0  0
   36.3180   26.7910   35.6630 H   0  0  0  0  0  0  0  0  0  0  0  0
   39.0410   25.6360   34.4650 H   0  0  0  0  0  0  0  0  0  0  0  0
   39.2040   27.9020   35.4560 H   0  0  0  0  0  0  0  0  0  0  0  0
   38.3360   27.2350   36.9920 H   0  0  0  0  0  0  0  0  0  0  0  0
   37.1750   27.5140   33.7780 C   0  0  0  0  0  0  0  0  0  0  0  0
   36.1850   28.4950   33.7060 C   0  0  0  0  0  0  0  0  0  0  0  0
   36.1030   29.1570   32.4820 C   0  0  0  0  0  0  0  0  0  0  0  0
   36.9440   28.8380   31.4640 N   0  0  0  0  0  0  0  0  0  0  0  0
   37.9000   27.8700   31.5790 C   0  0  0  0  0  0  0  0  0  0  0  0
   38.0040   27.2040   32.7680 N   0  0  0  0  0  0  0  0  0  0  0  0
   35.5570   28.6860   34.5620 H   0  0  0  0  0  0  0  0  0  0  0  0
   35.3490   29.9260   32.3770 H   0  0  0  0  0  0  0  0  0  0  0  0
   38.5650   27.6220   30.7640 H   0  0  0  0  0  0  0  0  0  0  0  0
   38.0360   24.6340   36.2220 C   0  0  0  0  0  0  0  0  0  0  0  0
   37.3150   23.9330   35.7310 H   0  0  0  0  0  0  0  0  0  0  0  0
   37.7310   24.9370   37.2300 H   0  0  0  0  0  0  0  0  0  0  0  0
   39.3070   23.8550   36.3890 C   0  0  0  0  0  0  0  0  0  0  0  0
   40.3370   23.9930   35.4780 C   0  0  0  0  0  0  0  0  0  0  0  0
   40.2300   24.6710   34.6280 H   0  0  0  0  0  0  0  0  0  0  0  0
   41.5310   23.2890   35.5980 C   0  0  0  0  0  3  0  0  0  0  0  0
   41.6210   22.4470   36.6830 C   0  0  0  0  0  0  0  0  0  0  0  0
   42.5270   21.8890   36.8060 H   0  0  0  0  0  0  0  0  0  0  0  0
   40.6090   22.2900   37.6080 C   0  0  0  0  0  0  0  0  0  0  0  0
   40.7070   21.6200   38.4530 H   0  0  0  0  0  0  0  0  0  0  0  0
   39.4470   22.9960   37.4630 C   0  0  0  0  0  3  0  0  0  0  0  0
  1  2  1  0  0  0  0
  1  4  1  1  0  0  0
  1  3  1  0  0  0  0
  2  5  1  6  0  0  0
  2  3  1  0  0  0  0
  2 17  1  0  0  0  0
  3  7  1  0  0  0  0
  6  3  1  0  0  0  0
  8  1  1  0  0  0  0
  9  8  1  0  0  0  0
  9 14  1  0  0  0  0
 10  9  2  0  0  0  0
 11 12  2  0  0  0  0
 11 10  1  0  0  0  0
 12 13  1  0  0  0  0
 13  8  2  0  0  0  0
 15 10  1  0  0  0  0
 16 12  1  0  0  0  0
 17 20  1  0  0  0  0
 17 19  1  0  0  0  0
 18 17  1  0  0  0  0
 20 28  1  0  0  0  0
 21 23  1  0  0  0  0
 21 20  2  0  0  0  0
 22 21  1  0  0  0  0
 23 24  2  0  0  0  0
 24 25  1  0  0  0  0
 24 26  1  0  0  0  0
 26 27  1  0  0  0  0
 28 26  2  0  0  0  0
M  END
>  <minimizedAffinity>
-4.81458855

$$$$

 OpenBabel03272501133D

 28 30  0  0  1  0  0  0  0  0999 V2000
   36.8220   27.9690   33.0260 C   0  0  1  0  0  0  0  0  0  0  0  0
   35.7490   28.7240   33.6320 C   0  0  1  0  0  0  0  0  0  0  0  0
   36.6680   27.9460   34.5460 C   0  0  0  0  0  0  0  0  0  0  0  0
   37.7790   28.4180   32.6750 H   0  0  0  0  0  0  0  0  0  0  0  0
   34.7240   28.2490   33.5820 H   0  0  0  0  0  0  0  0  0  0  0  0
   36.3200   27.0220   35.0270 H   0  0  0  0  0  0  0  0  0  0  0  0
   37.3780   28.5830   35.0930 H   0  0  0  0  0  0  0  0  0  0  0  0
   36.5710   26.6070   32.4100 C   0  0  0  0  0  0  0  0  0  0  0  0
   35.5400   26.5410   31.4700 C   0  0  0  0  0  0  0  0  0  0  0  0
   35.3180   25.2730   30.9330 C   0  0  0  0  0  0  0  0  0  0  0  0
   36.0710   24.2130   31.3240 N   0  0  0  0  0  0  0  0  0  0  0  0
   37.0700   24.3240   32.2470 C   0  0  0  0  0  0  0  0  0  0  0  0
   37.3120   25.5540   32.7920 N   0  0  0  0  0  0  0  0  0  0  0  0
   34.9890   27.4320   31.2160 H   0  0  0  0  0  0  0  0  0  0  0  0
   34.5280   25.1710   30.2010 H   0  0  0  0  0  0  0  0  0  0  0  0
   37.6630   23.4750   32.5540 H   0  0  0  0  0  0  0  0  0  0  0  0
   35.8170   30.2260   33.5700 C   0  0  0  0  0  0  0  0  0  0  0  0
   35.2390   30.6130   32.6940 H   0  0  0  0  0  0  0  0  0  0  0  0
   36.8450   30.6040   33.6160 H   0  0  0  0  0  0  0  0  0  0  0  0
   35.1220   30.7650   34.7860 C   0  0  0  0  0  0  0  0  0  0  0  0
   33.8020   30.4420   35.0380 C   0  0  0  0  0  0  0  0  0  0  0  0
   33.2570   29.7900   34.3520 H   0  0  0  0  0  0  0  0  0  0  0  0
   33.1230   30.9220   36.1530 C   0  0  0  0  0  3  0  0  0  0  0  0
   33.8490   31.7390   36.9890 C   0  0  0  0  0  0  0  0  0  0  0  0
   33.3570   32.1270   37.8570 H   0  0  0  0  0  0  0  0  0  0  0  0
   35.1670   32.0780   36.7620 C   0  0  0  0  0  0  0  0  0  0  0  0
   35.7160   32.7230   37.4360 H   0  0  0  0  0  0  0  0  0  0  0  0
   35.8090   31.5910   35.6570 C   0  0  0  0  0  3  0  0  0  0  0  0
  1  4  1  6  0  0  0
  1  2  1  0  0  0  0
  1  3  1  0  0  0  0
  2  5  1  6  0  0  0
  2  3  1  0  0  0  0
  3  6  1  0  0  0  0
  3  7  1  0  0  0  0
  8 13  1  0  0  0  0
  8  1  1  0  0  0  0
  9  8  2  0  0  0  0
 10 11  2  0  0  0  0
 10  9  1  0  0  0  0
 11 12  1  0  0  0  0
 12 16  1  0  0  0  0
 12 13  2  0  0  0  0
 14  9  1  0  0  0  0
 15 10  1  0  0  0  0
 17 19  1  0  0  0  0
 17  2  1  0  0  0  0
 17 20  1  0  0  0  0
 18 17  1  0  0  0  0
 20 21  2  0  0  0  0
 20 28  1  0  0  0  0
 21 23  1  0  0  0  0
 22 21  1  0  0  0  0
 23 24  2  0  0  0  0
 24 25  1  0  0  0  0
 26 24  1  0  0  0  0
 26 27  1  0  0  0  0
 28 26  2  0  0  0  0
M  END
>  <minimizedAffinity>
-4.77684355

$$$$

 OpenBabel03272501133D

 28 30  0  0  1  0  0  0  0  0999 V2000
   39.3770   25.2650   34.6460 C   0  0  1  0  0  0  0  0  0  0  0  0
   38.6970   26.5180   34.4130 C   0  0  1  0  0  0  0  0  0  0  0  0
   40.1360   26.5710   34.8730 C   0  0  0  0  0  0  0  0  0  0  0  0
   39.8030   24.6280   33.8380 H   0  0  0  0  0  0  0  0  0  0  0  0
   37.9940   26.8560   35.2310 H   0  0  0  0  0  0  0  0  0  0  0  0
   40.3800   26.8680   35.9010 H   0  0  0  0  0  0  0  0  0  0  0  0
   40.8390   26.8430   34.0720 H   0  0  0  0  0  0  0  0  0  0  0  0
   39.1780   24.4940   35.9360 C   0  0  0  0  0  0  0  0  0  0  0  0
   38.0820   24.8750   36.7130 C   0  0  0  0  0  0  0  0  0  0  0  0
   37.9320   24.1630   37.9030 C   0  0  0  0  0  0  0  0  0  0  0  0
   38.8090   23.1820   38.2390 N   0  0  0  0  0  0  0  0  0  0  0  0
   39.8670   22.8420   37.4470 C   0  0  0  0  0  0  0  0  0  0  0  0
   40.0410   23.5220   36.2740 N   0  0  0  0  0  0  0  0  0  0  0  0
   37.4340   25.6670   36.3740 H   0  0  0  0  0  0  0  0  0  0  0  0
   37.0980   24.4230   38.5400 H   0  0  0  0  0  0  0  0  0  0  0  0
   40.5600   22.0600   37.7220 H   0  0  0  0  0  0  0  0  0  0  0  0
   38.3300   26.8720   32.9970 C   0  0  0  0  0  0  0  0  0  0  0  0
   37.9080   25.9840   32.4630 H   0  0  0  0  0  0  0  0  0  0  0  0
   39.1510   27.3560   32.4560 H   0  0  0  0  0  0  0  0  0  0  0  0
   37.2180   27.8780   33.0510 C   0  0  0  0  0  0  0  0  0  0  0  0
   36.8340   28.5590   31.9110 C   0  0  0  0  0  0  0  0  0  0  0  0
   37.3400   28.3680   30.9620 H   0  0  0  0  0  0  0  0  0  0  0  0
   35.8090   29.4980   31.9200 C   0  0  0  0  0  3  0  0  0  0  0  0
   35.2000   29.7070   33.1360 C   0  0  0  0  0  0  0  0  0  0  0  0
   34.4070   30.4250   33.1800 H   0  0  0  0  0  0  0  0  0  0  0  0
   35.5630   29.0420   34.2900 C   0  0  0  0  0  0  0  0  0  0  0  0
   35.0670   29.2250   35.2350 H   0  0  0  0  0  0  0  0  0  0  0  0
   36.5750   28.1230   34.2500 C   0  0  0  0  0  3  0  0  0  0  0  0
  1  4  1  6  0  0  0
  1  3  1  0  0  0  0
  1  8  1  0  0  0  0
  2  1  1  0  0  0  0
  2  3  1  0  0  0  0
  2  5  1  1  0  0  0
  3  6  1  0  0  0  0
  7  3  1  0  0  0  0
  8 13  2  0  0  0  0
  8  9  1  0  0  0  0
  9 10  2  0  0  0  0
 10 11  1  0  0  0  0
 10 15  1  0  0  0  0
 12 16  1  0  0  0  0
 12 11  2  0  0  0  0
 13 12  1  0  0  0  0
 14  9  1  0  0  0  0
 17 20  1  0  0  0  0
 17  2  1  0  0  0  0
 18 17  1  0  0  0  0
 19 17  1  0  0  0  0
 20 28  1  0  0  0  0
 21 23  1  0  0  0  0
 21 20  2  0  0  0  0
 22 21  1  0  0  0  0
 23 24  2  0  0  0  0
 24 25  1  0  0  0  0
 24 26  1  0  0  0  0
 26 27  1  0  0  0  0
 28 26  2  0  0  0  0
M  END
>  <minimizedAffinity>
-4.73556757

$$$$

 OpenBabel03272501133D

 28 30  0  0  1  0  0  0  0  0999 V2000
   36.2420   28.0230   33.4370 C   0  0  1  0  0  0  0  0  0  0  0  0
   35.7840   29.3690   33.6940 C   0  0  1  0  0  0  0  0  0  0  0  0
   36.3770   29.0730   32.3350 C   0  0  0  0  0  0  0  0  0  0  0  0
   35.5690   27.1750   33.1750 H   0  0  0  0  0  0  0  0  0  0  0  0
   36.4770   30.0160   34.3100 H   0  0  0  0  0  0  0  0  0  0  0  0
   37.3780   29.4390   32.0750 H   0  0  0  0  0  0  0  0  0  0  0  0
   35.6230   29.0050   31.5370 H   0  0  0  0  0  0  0  0  0  0  0  0
   37.5920   27.5470   33.9350 C   0  0  0  0  0  0  0  0  0  0  0  0
   37.7700   27.5520   35.3190 C   0  0  0  0  0  0  0  0  0  0  0  0
   39.0270   27.1270   35.7500 C   0  0  0  0  0  0  0  0  0  0  0  0
   39.9750   26.7470   34.8540 N   0  0  0  0  0  0  0  0  0  0  0  0
   39.7560   26.7590   33.5070 C   0  0  0  0  0  0  0  0  0  0  0  0
   38.5340   27.1700   33.0540 N   0  0  0  0  0  0  0  0  0  0  0  0
   36.9650   27.8700   35.9620 H   0  0  0  0  0  0  0  0  0  0  0  0
   39.2130   27.1140   36.8150 H   0  0  0  0  0  0  0  0  0  0  0  0
   40.5160   26.4560   32.8010 H   0  0  0  0  0  0  0  0  0  0  0  0
   34.3050   29.5960   33.8530 C   0  0  0  0  0  0  0  0  0  0  0  0
   33.7770   28.6320   34.0640 H   0  0  0  0  0  0  0  0  0  0  0  0
   33.8710   30.1570   33.0180 H   0  0  0  0  0  0  0  0  0  0  0  0
   34.1010   30.4440   35.0740 C   0  0  0  0  0  0  0  0  0  0  0  0
   32.8770   30.4630   35.7170 C   0  0  0  0  0  0  0  0  0  0  0  0
   32.0500   29.8600   35.3390 H   0  0  0  0  0  0  0  0  0  0  0  0
   32.6500   31.2370   36.8500 C   0  0  0  0  0  3  0  0  0  0  0  0
   33.7190   31.9810   37.2910 C   0  0  0  0  0  0  0  0  0  0  0  0
   33.5790   32.5890   38.1610 H   0  0  0  0  0  0  0  0  0  0  0  0
   34.9520   31.9810   36.6690 C   0  0  0  0  0  0  0  0  0  0  0  0
   35.7780   32.5770   37.0370 H   0  0  0  0  0  0  0  0  0  0  0  0
   35.1460   31.2110   35.5560 C   0  0  0  0  0  3  0  0  0  0  0  0
  1  4  1  6  0  0  0
  1  2  1  0  0  0  0
  1  8  1  0  0  0  0
  2 17  1  0  0  0  0
  2  5  1  1  0  0  0
  3  1  1  0  0  0  0
  3  2  1  0  0  0  0
  6  3  1  0  0  0  0
  7  3  1  0  0  0  0
  8  9  1  0  0  0  0
  9 10  2  0  0  0  0
  9 14  1  0  0  0  0
 10 15  1  0  0  0  0
 11 10  1  0  0  0  0
 12 11  2  0  0  0  0
 13 12  1  0  0  0  0
 13  8  2  0  0  0  0
 16 12  1  0  0  0  0
 17 18  1  0  0  0  0
 17 20  1  0  0  0  0
 19 17  1  0  0  0  0
 20 28  2  0  0  0  0
 20 21  1  0  0  0  0
 21 23  2  0  0  0  0
 22 21  1  0  0  0  0
 23 24  1  0  0  0  0
 24 25  1  0  0  0  0
 26 27  1  0  0  0  0
 26 24  2  0  0  0  0
 28 26  1  0  0  0  0
M  END
>  <minimizedAffinity>
-4.68214655

$$$$

 OpenBabel03272501133D

 28 30  0  0  1  0  0  0  0  0999 V2000
   38.1410   26.3610   33.1280 C   0  0  1  0  0  0  0  0  0  0  0  0
   38.0190   25.3350   34.1390 C   0  0  1  0  0  0  0  0  0  0  0  0
   37.3770   25.0810   32.7940 C   0  0  0  0  0  0  0  0  0  0  0  0
   39.0520   26.5200   32.5080 H   0  0  0  0  0  0  0  0  0  0  0  0
   37.2380   25.5200   34.9360 H   0  0  0  0  0  0  0  0  0  0  0  0
   36.2860   25.1310   32.6810 H   0  0  0  0  0  0  0  0  0  0  0  0
   37.9320   24.3590   32.1770 H   0  0  0  0  0  0  0  0  0  0  0  0
   37.2340   27.5760   33.1330 C   0  0  0  0  0  0  0  0  0  0  0  0
   36.6830   27.9230   34.3670 C   0  0  0  0  0  0  0  0  0  0  0  0
   35.8390   29.0330   34.3410 C   0  0  0  0  0  0  0  0  0  0  0  0
   35.6000   29.6950   33.1790 N   0  0  0  0  0  0  0  0  0  0  0  0
   36.1620   29.3200   31.9930 C   0  0  0  0  0  0  0  0  0  0  0  0
   36.9940   28.2350   31.9870 N   0  0  0  0  0  0  0  0  0  0  0  0
   36.9230   27.3430   35.2440 H   0  0  0  0  0  0  0  0  0  0  0  0
   35.3860   29.3410   35.2740 H   0  0  0  0  0  0  0  0  0  0  0  0
   35.9660   29.8510   31.0730 H   0  0  0  0  0  0  0  0  0  0  0  0
   39.2630   24.5940   34.5490 C   0  0  0  0  0  0  0  0  0  0  0  0
   40.1500   25.2760   34.5430 H   0  0  0  0  0  0  0  0  0  0  0  0
   39.4160   23.6750   33.9730 H   0  0  0  0  0  0  0  0  0  0  0  0
   39.0900   24.1660   35.9770 C   0  0  0  0  0  0  0  0  0  0  0  0
   38.0930   24.7200   36.7580 C   0  0  0  0  0  0  0  0  0  0  0  0
   37.4240   25.4740   36.3390 H   0  0  0  0  0  0  0  0  0  0  0  0
   37.9010   24.3490   38.0840 C   0  0  0  0  0  3  0  0  0  0  0  0
   38.7660   23.3970   38.5700 C   0  0  0  0  0  0  0  0  0  0  0  0
   38.6480   23.0890   39.5890 H   0  0  0  0  0  0  0  0  0  0  0  0
   39.7710   22.8280   37.8140 C   0  0  0  0  0  0  0  0  0  0  0  0
   40.4390   22.0790   38.2210 H   0  0  0  0  0  0  0  0  0  0  0  0
   39.9350   23.2120   36.5120 C   0  0  0  0  0  3  0  0  0  0  0  0
  1  4  1  6  0  0  0
  1  8  1  0  0  0  0
  1  2  1  0  0  0  0
  2 17  1  0  0  0  0
  2  5  1  1  0  0  0
  3  1  1  0  0  0  0
  3  2  1  0  0  0  0
  6  3  1  0  0  0  0
  7  3  1  0  0  0  0
  8  9  1  0  0  0  0
  9 14  1  0  0  0  0
 10  9  2  0  0  0  0
 10 15  1  0  0  0  0
 11 10  1  0  0  0  0
 12 11  2  0  0  0  0
 13 12  1  0  0  0  0
 13  8  2  0  0  0  0
 16 12  1  0  0  0  0
 17 20  1  0  0  0  0
 18 17  1  0  0  0  0
 19 17  1  0  0  0  0
 20 28  2  0  0  0  0
 20 21  1  0  0  0  0
 21 23  2  0  0  0  0
 22 21  1  0  0  0  0
 23 24  1  0  0  0  0
 24 25  1  0  0  0  0
 26 27  1  0  0  0  0
 26 24  2  0  0  0  0
 28 26  1  0  0  0  0
M  END
>  <minimizedAffinity>
-4.67249537

$$$$

 OpenBabel03272501133D

 28 30  0  0  1  0  0  0  0  0999 V2000
   36.6680   25.0960   31.4260 C   0  0  1  0  0  0  0  0  0  0  0  0
   36.1100   23.7870   31.6790 C   0  0  1  0  0  0  0  0  0  0  0  0
   35.2350   24.8050   30.9850 C   0  0  0  0  0  0  0  0  0  0  0  0
   37.3630   25.3270   30.5870 H   0  0  0  0  0  0  0  0  0  0  0  0
   35.7580   23.5980   32.7360 H   0  0  0  0  0  0  0  0  0  0  0  0
   34.4080   25.2860   31.5240 H   0  0  0  0  0  0  0  0  0  0  0  0
   35.1130   24.6120   29.9090 H   0  0  0  0  0  0  0  0  0  0  0  0
   36.7220   26.1480   32.5170 C   0  0  0  0  0  0  0  0  0  0  0  0
   37.2760   25.7410   33.7320 C   0  0  0  0  0  0  0  0  0  0  0  0
   37.2970   26.7210   34.7240 C   0  0  0  0  0  0  0  0  0  0  0  0
   36.8040   27.9630   34.4810 N   0  0  0  0  0  0  0  0  0  0  0  0
   36.2710   28.3180   33.2760 C   0  0  0  0  0  0  0  0  0  0  0  0
   36.2360   27.3780   32.2840 N   0  0  0  0  0  0  0  0  0  0  0  0
   37.6450   24.7340   33.8430 H   0  0  0  0  0  0  0  0  0  0  0  0
   37.7170   26.4530   35.6840 H   0  0  0  0  0  0  0  0  0  0  0  0
   35.8800   29.3080   33.0920 H   0  0  0  0  0  0  0  0  0  0  0  0
   36.6780   22.6180   30.9210 C   0  0  0  0  0  0  0  0  0  0  0  0
   37.7970   22.6220   30.9650 H   0  0  0  0  0  0  0  0  0  0  0  0
   36.2830   22.5430   29.9010 H   0  0  0  0  0  0  0  0  0  0  0  0
   36.2490   21.3640   31.6250 C   0  0  0  0  0  0  0  0  0  0  0  0
   35.9770   21.3810   32.9800 C   0  0  0  0  0  0  0  0  0  0  0  0
   36.0730   22.3090   33.5470 H   0  0  0  0  0  0  0  0  0  0  0  0
   35.5770   20.2410   33.6680 C   0  0  0  0  0  3  0  0  0  0  0  0
   35.4690   19.0950   32.9150 C   0  0  0  0  0  0  0  0  0  0  0  0
   35.1640   18.1970   33.4130 H   0  0  0  0  0  0  0  0  0  0  0  0
   35.7350   19.0490   31.5610 C   0  0  0  0  0  0  0  0  0  0  0  0
   35.6430   18.1330   30.9910 H   0  0  0  0  0  0  0  0  0  0  0  0
   36.1270   20.1870   30.9110 C   0  0  0  0  0  3  0  0  0  0  0  0
  1  4  1  6  0  0  0
  1  2  1  0  0  0  0
  1  8  1  0  0  0  0
  2  5  1  1  0  0  0
  3  1  1  0  0  0  0
  3  6  1  0  0  0  0
  3  2  1  0  0  0  0
  7  3  1  0  0  0  0
  8  9  1  0  0  0  0
  9 14  1  0  0  0  0
  9 10  2  0  0  0  0
 10 15  1  0  0  0  0
 11 10  1  0  0  0  0
 12 11  2  0  0  0  0
 13  8  2  0  0  0  0
 13 12  1  0  0  0  0
 16 12  1  0  0  0  0
 17 18  1  0  0  0  0
 17 20  1  0  0  0  0
 17  2  1  0  0  0  0
 19 17  1  0  0  0  0
 20 21  1  0  0  0  0
 21 22  1  0  0  0  0
 21 23  2  0  0  0  0
 24 25  1  0  0  0  0
 24 23  1  0  0  0  0
 26 24  2  0  0  0  0
 27 26  1  0  0  0  0
 28 26  1  0  0  0  0
 28 20  2  0  0  0  0
M  END
>  <minimizedAffinity>
-4.67152548

$$$$

 OpenBabel03272501133D

 28 30  0  0  1  0  0  0  0  0999 V2000
   35.5650   30.2370   33.1070 C   0  0  1  0  0  0  0  0  0  0  0  0
   35.5230   28.8440   33.4890 C   0  0  1  0  0  0  0  0  0  0  0  0
   34.2870   29.4380   32.8550 C   0  0  0  0  0  0  0  0  0  0  0  0
   36.0520   30.6150   32.1800 H   0  0  0  0  0  0  0  0  0  0  0  0
   35.3610   28.6390   34.5890 H   0  0  0  0  0  0  0  0  0  0  0  0
   33.4000   29.6550   33.4650 H   0  0  0  0  0  0  0  0  0  0  0  0
   34.1370   29.1220   31.8130 H   0  0  0  0  0  0  0  0  0  0  0  0
   35.3530   31.3350   34.1300 C   0  0  0  0  0  0  0  0  0  0  0  0
   35.7190   31.0280   35.4420 C   0  0  0  0  0  0  0  0  0  0  0  0
   35.4980   32.0480   36.3660 C   0  0  0  0  0  0  0  0  0  0  0  0
   34.9650   33.2350   35.9750 N   0  0  0  0  0  0  0  0  0  0  0  0
   34.6220   33.4920   34.6790 C   0  0  0  0  0  0  0  0  0  0  0  0
   34.8270   32.5110   33.7500 N   0  0  0  0  0  0  0  0  0  0  0  0
   36.1360   30.0600   35.6690 H   0  0  0  0  0  0  0  0  0  0  0  0
   35.7650   31.8570   37.3970 H   0  0  0  0  0  0  0  0  0  0  0  0
   34.1980   34.4380   34.3760 H   0  0  0  0  0  0  0  0  0  0  0  0
   36.3870   27.8750   32.7270 C   0  0  0  0  0  0  0  0  0  0  0  0
   36.8270   28.3640   31.8210 H   0  0  0  0  0  0  0  0  0  0  0  0
   35.8720   26.9330   32.5070 H   0  0  0  0  0  0  0  0  0  0  0  0
   37.5540   27.5180   33.6000 C   0  0  0  0  0  0  0  0  0  0  0  0
   37.4420   27.5800   34.9770 C   0  0  0  0  0  0  0  0  0  0  0  0
   36.5020   27.8910   35.4370 H   0  0  0  0  0  0  0  0  0  0  0  0
   38.5000   27.2570   35.8190 C   0  0  0  0  0  3  0  0  0  0  0  0
   39.6640   26.8710   35.1970 C   0  0  0  0  0  0  0  0  0  0  0  0
   40.5000   26.6150   35.8160 H   0  0  0  0  0  0  0  0  0  0  0  0
   39.8040   26.7990   33.8250 C   0  0  0  0  0  0  0  0  0  0  0  0
   40.7320   26.4920   33.3600 H   0  0  0  0  0  0  0  0  0  0  0  0
   38.7460   27.1230   33.0220 C   0  0  0  0  0  3  0  0  0  0  0  0
  1  4  1  6  0  0  0
  1  2  1  0  0  0  0
  1  8  1  0  0  0  0
  2  5  1  1  0  0  0
  3  1  1  0  0  0  0
  3  6  1  0  0  0  0
  3  2  1  0  0  0  0
  7  3  1  0  0  0  0
  8  9  1  0  0  0  0
  9 14  1  0  0  0  0
  9 10  2  0  0  0  0
 10 15  1  0  0  0  0
 11 10  1  0  0  0  0
 12 11  2  0  0  0  0
 13  8  2  0  0  0  0
 13 12  1  0  0  0  0
 16 12  1  0  0  0  0
 17  2  1  0  0  0  0
 17 20  1  0  0  0  0
 18 17  1  0  0  0  0
 19 17  1  0  0  0  0
 20 21  1  0  0  0  0
 21 22  1  0  0  0  0
 21 23  2  0  0  0  0
 24 25  1  0  0  0  0
 24 23  1  0  0  0  0
 26 24  2  0  0  0  0
 27 26  1  0  0  0  0
 28 20  2  0  0  0  0
 28 26  1  0  0  0  0
M  END
>  <minimizedAffinity>
-4.60122299

$$$$

 OpenBabel03272501133D

 28 30  0  0  1  0  0  0  0  0999 V2000
   37.5770   23.3910   32.9720 C   0  0  1  0  0  0  0  0  0  0  0  0
   38.7550   23.2620   33.7980 C   0  0  1  0  0  0  0  0  0  0  0  0
   38.9410   23.2440   32.2980 C   0  0  0  0  0  0  0  0  0  0  0  0
   37.0680   24.3580   32.7580 H   0  0  0  0  0  0  0  0  0  0  0  0
   38.9340   22.2380   34.2440 H   0  0  0  0  0  0  0  0  0  0  0  0
   39.1750   22.3060   31.7790 H   0  0  0  0  0  0  0  0  0  0  0  0
   39.3630   24.1790   31.9010 H   0  0  0  0  0  0  0  0  0  0  0  0
   36.6790   22.2000   32.6970 C   0  0  0  0  0  0  0  0  0  0  0  0
   36.0880   22.1580   31.4330 C   0  0  0  0  0  0  0  0  0  0  0  0
   35.2530   21.0630   31.2130 C   0  0  0  0  0  0  0  0  0  0  0  0
   35.0590   20.1330   32.1830 N   0  0  0  0  0  0  0  0  0  0  0  0
   35.6590   20.2140   33.4070 C   0  0  0  0  0  0  0  0  0  0  0  0
   36.4840   21.2760   33.6520 N   0  0  0  0  0  0  0  0  0  0  0  0
   36.2940   22.9390   30.7190 H   0  0  0  0  0  0  0  0  0  0  0  0
   34.7710   20.9870   30.2470 H   0  0  0  0  0  0  0  0  0  0  0  0
   35.4990   19.4700   34.1730 H   0  0  0  0  0  0  0  0  0  0  0  0
   39.1830   24.4540   34.6110 C   0  0  0  0  0  0  0  0  0  0  0  0
   38.4840   25.3130   34.4530 H   0  0  0  0  0  0  0  0  0  0  0  0
   40.2370   24.7140   34.4560 H   0  0  0  0  0  0  0  0  0  0  0  0
   39.0550   24.0880   36.0610 C   0  0  0  0  0  0  0  0  0  0  0  0
   38.0850   24.6800   36.8480 C   0  0  0  0  0  0  0  0  0  0  0  0
   37.4060   25.4190   36.4190 H   0  0  0  0  0  0  0  0  0  0  0  0
   37.9340   24.3680   38.1950 C   0  0  0  0  0  3  0  0  0  0  0  0
   38.8120   23.4330   38.6940 C   0  0  0  0  0  0  0  0  0  0  0  0
   38.7250   23.1690   39.7280 H   0  0  0  0  0  0  0  0  0  0  0  0
   39.7890   22.8260   37.9310 C   0  0  0  0  0  0  0  0  0  0  0  0
   40.4670   22.0930   38.3490 H   0  0  0  0  0  0  0  0  0  0  0  0
   39.9130   23.1530   36.6090 C   0  0  0  0  0  3  0  0  0  0  0  0
  1  4  1  6  0  0  0
  1  2  1  0  0  0  0
  2  5  1  1  0  0  0
  2 17  1  0  0  0  0
  3  1  1  0  0  0  0
  3  2  1  0  0  0  0
  6  3  1  0  0  0  0
  7  3  1  0  0  0  0
  8  1  1  0  0  0  0
  8 13  1  0  0  0  0
  9  8  2  0  0  0  0
 10  9  1  0  0  0  0
 10 11  2  0  0  0  0
 11 12  1  0  0  0  0
 12 13  2  0  0  0  0
 12 16  1  0  0  0  0
 14  9  1  0  0  0  0
 15 10  1  0  0  0  0
 17 20  1  0  0  0  0
 18 17  1  0  0  0  0
 19 17  1  0  0  0  0
 20 28  2  0  0  0  0
 20 21  1  0  0  0  0
 21 23  2  0  0  0  0
 22 21  1  0  0  0  0
 23 24  1  0  0  0  0
 24 25  1  0  0  0  0
 26 27  1  0  0  0  0
 26 24  2  0  0  0  0
 28 26  1  0  0  0  0
M  END
>  <minimizedAffinity>
-4.518291

$$$$

 OpenBabel03272501133D

 28 30  0  0  1  0  0  0  0  0999 V2000
   36.0320   25.0130   31.9050 C   0  0  1  0  0  0  0  0  0  0  0  0
   36.4320   26.2810   31.3370 C   0  0  1  0  0  0  0  0  0  0  0  0
   35.1600   25.6470   30.8220 C   0  0  0  0  0  0  0  0  0  0  0  0
   35.5240   24.9040   32.8900 H   0  0  0  0  0  0  0  0  0  0  0  0
   37.2540   26.2350   30.5620 H   0  0  0  0  0  0  0  0  0  0  0  0
   35.1330   25.1840   29.8270 H   0  0  0  0  0  0  0  0  0  0  0  0
   34.2490   26.1390   31.1920 H   0  0  0  0  0  0  0  0  0  0  0  0
   36.6590   23.7140   31.4380 C   0  0  0  0  0  0  0  0  0  0  0  0
   37.9520   23.8090   30.9210 C   0  0  0  0  0  0  0  0  0  0  0  0
   38.4980   22.6040   30.4830 C   0  0  0  0  0  0  0  0  0  0  0  0
   37.7890   21.4490   30.5710 N   0  0  0  0  0  0  0  0  0  0  0  0
   36.5250   21.4020   31.0850 C   0  0  0  0  0  0  0  0  0  0  0  0
   35.9630   22.5680   31.5230 N   0  0  0  0  0  0  0  0  0  0  0  0
   38.4460   24.7670   30.8860 H   0  0  0  0  0  0  0  0  0  0  0  0
   39.4990   22.6270   30.0730 H   0  0  0  0  0  0  0  0  0  0  0  0
   35.9680   20.4790   31.1510 H   0  0  0  0  0  0  0  0  0  0  0  0
   36.3810   27.4990   32.2190 C   0  0  0  0  0  0  0  0  0  0  0  0
   35.4100   27.5480   32.7710 H   0  0  0  0  0  0  0  0  0  0  0  0
   36.6240   28.4210   31.6790 H   0  0  0  0  0  0  0  0  0  0  0  0
   37.4390   27.3450   33.2730 C   0  0  0  0  0  0  0  0  0  0  0  0
   37.1090   27.4240   34.6120 C   0  0  0  0  0  0  0  0  0  0  0  0
   36.0740   27.6000   34.9120 H   0  0  0  0  0  0  0  0  0  0  0  0
   38.0600   27.2870   35.6180 C   0  0  0  0  0  3  0  0  0  0  0  0
   39.3500   27.0670   35.1940 C   0  0  0  0  0  0  0  0  0  0  0  0
   40.1090   26.9570   35.9420 H   0  0  0  0  0  0  0  0  0  0  0  0
   39.7080   26.9830   33.8640 C   0  0  0  0  0  0  0  0  0  0  0  0
   40.7320   26.8090   33.5570 H   0  0  0  0  0  0  0  0  0  0  0  0
   38.7510   27.1220   32.8970 C   0  0  0  0  0  3  0  0  0  0  0  0
  1  4  1  1  0  0  0
  2  5  1  6  0  0  0
  2  1  1  0  0  0  0
  2 17  1  0  0  0  0
  3  7  1  0  0  0  0
  3  2  1  0  0  0  0
  3  1  1  0  0  0  0
  6  3  1  0  0  0  0
  8 13  1  0  0  0  0
  8  1  1  0  0  0  0
  9  8  2  0  0  0  0
 10 11  2  0  0  0  0
 10  9  1  0  0  0  0
 11 12  1  0  0  0  0
 12 16  1  0  0  0  0
 12 13  2  0  0  0  0
 14  9  1  0  0  0  0
 15 10  1  0  0  0  0
 17 18  1  0  0  0  0
 17 20  1  0  0  0  0
 19 17  1  0  0  0  0
 20 21  1  0  0  0  0
 21 22  1  0  0  0  0
 21 23  2  0  0  0  0
 24 23  1  0  0  0  0
 24 25  1  0  0  0  0
 26 24  2  0  0  0  0
 27 26  1  0  0  0  0
 28 20  2  0  0  0  0
 28 26  1  0  0  0  0
M  END
>  <minimizedAffinity>
-4.47224426

$$$$
