
 OpenBabel03272508283D

 38 41  0  0  1  0  0  0  0  0999 V2000
   32.2750   28.8710   47.0520 C   0  0  2  0  0  0  0  0  0  0  0  0
   33.1600   27.7190   47.4980 C   0  0  2  0  0  0  0  0  0  0  0  0
   32.4630   27.0870   48.4880 O   0  0  0  0  0  0  0  0  0  0  0  0
   31.1300   27.3140   48.3600 C   0  0  0  0  0  0  0  0  0  0  0  0
   30.9100   28.1780   47.1400 C   0  0  1  0  0  0  0  0  0  0  0  0
   32.2810   29.7190   47.7530 H   0  0  0  0  0  0  0  0  0  0  0  0
   33.2920   27.0470   46.6450 H   0  0  0  0  0  0  0  0  0  0  0  0
   30.6350   27.6770   49.2660 H   0  0  0  0  0  0  0  0  0  0  0  0
   30.6400   26.3220   48.1330 H   0  0  0  0  0  0  0  0  0  0  0  0
   30.8060   27.5580   46.2330 H   0  0  0  0  0  0  0  0  0  0  0  0
   34.5030   29.5720   48.7090 C   0  0  1  0  0  0  0  0  0  0  0  0
   34.4340   28.3130   48.0060 C   0  0  1  0  0  0  0  0  0  0  0  0
   34.8070   28.2600   49.4510 C   0  0  0  0  0  0  0  0  0  0  0  0
   33.6920   30.1280   49.2090 H   0  0  0  0  0  0  0  0  0  0  0  0
   35.2950   28.1040   47.3060 H   0  0  0  0  0  0  0  0  0  0  0  0
   35.8710   28.0540   49.7330 H   0  0  0  0  0  0  0  0  0  0  0  0
   34.0760   27.9050   50.1900 H   0  0  0  0  0  0  0  0  0  0  0  0
   35.7370   30.4580   48.6040 C   0  0  0  0  0  0  0  0  0  0  0  0
   36.0990   31.1810   49.7510 C   0  0  0  0  0  0  0  0  0  0  0  0
   37.2100   31.9840   49.6130 C   0  0  0  0  0  0  0  0  0  0  0  0
   37.8910   32.0470   48.4210 N   0  0  0  0  0  0  0  0  0  0  0  0
   37.5050   31.3310   47.3420 C   0  0  0  0  0  0  0  0  0  0  0  0
   36.4120   30.5220   47.4280 N   0  0  0  0  0  0  0  0  0  0  0  0
   35.5300   31.0940   50.6570 H   0  0  0  0  0  0  0  0  0  0  0  0
   37.5530   32.5730   50.4540 H   0  0  0  0  0  0  0  0  0  0  0  0
   38.0340   31.3760   46.4050 H   0  0  0  0  0  0  0  0  0  0  0  0
   32.5350   29.3140   45.7700 O   0  0  0  0  0  0  0  0  0  0  0  0
   32.5150   28.5080   45.1690 H   0  0  0  0  0  0  0  0  0  0  0  0
   29.8850   29.0760   47.2450 O   0  0  0  0  0  0  0  0  0  0  0  0
   28.6480   28.9280   47.8120 C   0  0  0  0  0  0  0  0  0  0  0  0
   28.2640   29.3620   49.0670 C   0  0  0  0  0  0  0  0  0  0  0  0
   29.0130   29.8680   49.6610 H   0  0  0  0  0  0  0  0  0  0  0  0
   26.9880   29.1690   49.5620 C   0  0  0  0  0  0  0  0  0  0  0  0
   26.1110   28.5130   48.7240 C   0  0  0  0  0  0  0  0  0  0  0  0
   25.1030   28.3570   49.1080 H   0  0  0  0  0  0  0  0  0  0  0  0
   26.4130   28.0490   47.4600 C   0  0  0  0  0  0  0  0  0  0  0  0
   25.6580   27.5400   46.8640 H   0  0  0  0  0  0  0  0  0  0  0  0
   27.7180   28.2770   47.0250 C   0  0  0  0  0  0  0  0  0  0  0  0
  1  5  1  0  0  0  0
  1  2  1  0  0  0  0
  1  6  1  1  0  0  0
  2  7  1  6  0  0  0
  2 12  1  0  0  0  0
  2  3  1  0  0  0  0
  4  3  1  0  0  0  0
  4  8  1  0  0  0  0
  5 10  1  6  0  0  0
  5 29  1  0  0  0  0
  5  4  1  0  0  0  0
  9  4  1  0  0  0  0
 11 14  1  1  0  0  0
 11 13  1  0  0  0  0
 12 15  1  6  0  0  0
 12 11  1  0  0  0  0
 12 13  1  0  0  0  0
 13 16  1  0  0  0  0
 13 17  1  0  0  0  0
 18 11  1  0  0  0  0
 18 19  1  0  0  0  0
 19 24  1  0  0  0  0
 20 19  2  0  0  0  0
 20 25  1  0  0  0  0
 21 20  1  0  0  0  0
 22 23  1  0  0  0  0
 22 21  2  0  0  0  0
 23 18  2  0  0  0  0
 26 22  1  0  0  0  0
 27  1  1  0  0  0  0
 28 27  1  0  0  0  0
 29 30  1  0  0  0  0
 30 31  1  0  0  0  0
 31 33  2  0  0  0  0
 31 32  1  0  0  0  0
 34 35  1  0  0  0  0
 34 33  1  0  0  0  0
 36 34  2  0  0  0  0
 37 36  1  0  0  0  0
 38 36  1  0  0  0  0
 38 30  2  0  0  0  0
M  END
>  <minimizedAffinity>
-5.77906704

>  <minimizedRMSD>
2.73458481

$$$$
