
 OpenBabel03262521523D

 22 23  0  0  0  0  0  0  0  0999 V2000
   38.6400   23.9840   34.4690 C   0  0  0  0  0  0  0  0  0  0  0  0
   39.6410   23.6110   34.0990 H   0  0  0  0  0  0  0  0  0  0  0  0
   37.9120   23.2560   34.0150 H   0  0  0  0  0  0  0  0  0  0  0  0
   38.6030   23.8590   35.9200 C   0  0  0  0  0  0  0  0  0  0  0  0
   37.7500   24.4080   36.8540 C   0  0  0  0  0  0  0  0  0  0  0  0
   36.9720   25.0100   36.4490 H   0  0  0  0  0  0  0  0  0  0  0  0
   37.8670   24.1980   38.2070 C   0  0  0  0  0  3  0  0  0  0  0  0
   38.8990   23.3840   38.6920 C   0  0  0  0  0  0  0  0  0  0  0  0
   38.9690   23.2330   39.7630 H   0  0  0  0  0  0  0  0  0  0  0  0
   39.8060   22.7880   37.8230 C   0  0  0  0  0  0  0  0  0  0  0  0
   40.6030   22.1630   38.1750 H   0  0  0  0  0  0  0  0  0  0  0  0
   39.6110   23.0570   36.4740 C   0  0  0  0  0  3  0  0  0  0  0  0
   38.4510   25.6300   33.7990 S   0  0  0  0  0  0  0  0  0  0  0  0
   37.1330   25.5760   32.5960 C   0  0  0  0  0  0  0  0  0  0  0  0
   36.8110   24.2620   32.2700 C   0  0  0  0  0  0  0  0  0  0  0  0
   35.7670   24.0970   31.3250 C   0  0  0  0  0  0  0  0  0  0  0  0
   35.1490   25.1910   30.7980 N   0  0  0  0  0  0  0  0  0  0  0  0
   35.5240   26.4300   31.1700 C   0  0  0  0  0  0  0  0  0  0  0  0
   36.4970   26.5930   32.0510 N   0  0  0  0  0  0  0  0  0  0  0  0
   37.1760   23.2900   32.5710 H   0  0  0  0  0  0  0  0  0  0  0  0
   35.3970   23.1730   30.9660 H   0  0  0  0  0  0  0  0  0  0  0  0
   35.0190   27.2690   30.7400 H   0  0  0  0  0  0  0  0  0  0  0  0
  1  4  1  0  0  0  0
  2  1  1  0  0  0  0
  3  1  1  0  0  0  0
  4 12  2  0  0  0  0
  4  5  1  0  0  0  0
  5  7  2  0  0  0  0
  6  5  1  0  0  0  0
  7  8  1  0  0  0  0
  8  9  1  0  0  0  0
 10 11  1  0  0  0  0
 10  8  2  0  0  0  0
 12 10  1  0  0  0  0
 13  1  1  0  0  0  0
 14 13  1  0  0  0  0
 15 20  1  0  0  0  0
 15 14  1  0  0  0  0
 16 15  2  0  0  0  0
 17 18  2  0  0  0  0
 17 16  1  0  0  0  0
 18 19  1  0  0  0  0
 19 14  2  0  0  0  0
 21 16  1  0  0  0  0
 22 18  1  0  0  0  0
M  END
>  <minimizedAffinity>
-4.3400259

$$$$

 OpenBabel03262521523D

 22 23  0  0  0  0  0  0  0  0999 V2000
   38.5120   22.7490   33.4120 C   0  0  0  0  0  0  0  0  0  0  0  0
   38.9930   22.0420   34.1520 H   0  0  0  0  0  0  0  0  0  0  0  0
   39.2790   22.8220   32.5920 H   0  0  0  0  0  0  0  0  0  0  0  0
   37.3050   22.1220   32.8870 C   0  0  0  0  0  0  0  0  0  0  0  0
   36.6690   22.2630   31.6720 C   0  0  0  0  0  0  0  0  0  0  0  0
   37.1480   22.9240   30.9910 H   0  0  0  0  0  0  0  0  0  0  0  0
   35.5120   21.6000   31.3390 C   0  0  0  0  0  3  0  0  0  0  0  0
   34.9270   20.7270   32.2640 C   0  0  0  0  0  0  0  0  0  0  0  0
   34.0150   20.2150   31.9770 H   0  0  0  0  0  0  0  0  0  0  0  0
   35.4990   20.5230   33.5150 C   0  0  0  0  0  0  0  0  0  0  0  0
   35.0660   19.8580   34.2370 H   0  0  0  0  0  0  0  0  0  0  0  0
   36.6660   21.2340   33.7640 C   0  0  0  0  0  3  0  0  0  0  0  0
   38.3020   24.2980   34.2780 S   0  0  0  0  0  0  0  0  0  0  0  0
   38.4580   23.9670   36.0250 C   0  0  0  0  0  0  0  0  0  0  0  0
   39.5540   23.1460   36.2790 C   0  0  0  0  0  0  0  0  0  0  0  0
   39.7810   22.8230   37.6410 C   0  0  0  0  0  0  0  0  0  0  0  0
   38.9480   23.3110   38.6030 N   0  0  0  0  0  0  0  0  0  0  0  0
   37.9100   24.1010   38.2680 C   0  0  0  0  0  0  0  0  0  0  0  0
   37.6910   24.4080   37.0010 N   0  0  0  0  0  0  0  0  0  0  0  0
   40.3080   22.6700   35.6690 H   0  0  0  0  0  0  0  0  0  0  0  0
   40.5620   22.2140   38.0100 H   0  0  0  0  0  0  0  0  0  0  0  0
   37.2760   24.4700   39.0460 H   0  0  0  0  0  0  0  0  0  0  0  0
  1  2  1  0  0  0  0
  1 13  1  0  0  0  0
  3  1  1  0  0  0  0
  4  1  1  0  0  0  0
  4 12  1  0  0  0  0
  5  4  2  0  0  0  0
  6  5  1  0  0  0  0
  7  5  1  0  0  0  0
  7  8  2  0  0  0  0
  8 10  1  0  0  0  0
  9  8  1  0  0  0  0
 10 12  2  0  0  0  0
 10 11  1  0  0  0  0
 13 14  1  0  0  0  0
 14 15  2  0  0  0  0
 14 19  1  0  0  0  0
 15 16  1  0  0  0  0
 16 21  1  0  0  0  0
 16 17  2  0  0  0  0
 18 17  1  0  0  0  0
 18 22  1  0  0  0  0
 19 18  2  0  0  0  0
 20 15  1  0  0  0  0
M  END
>  <minimizedAffinity>
-4.26658201

$$$$

 OpenBabel03262521523D

 22 23  0  0  0  0  0  0  0  0999 V2000
   38.2670   24.3350   34.5930 C   0  0  0  0  0  0  0  0  0  0  0  0
   37.1460   24.4680   34.5340 H   0  0  0  0  0  0  0  0  0  0  0  0
   38.6570   25.3710   34.3940 H   0  0  0  0  0  0  0  0  0  0  0  0
   38.6190   23.9400   35.9500 C   0  0  0  0  0  0  0  0  0  0  0  0
   39.6140   23.1100   36.4210 C   0  0  0  0  0  0  0  0  0  0  0  0
   40.2480   22.7030   35.6710 H   0  0  0  0  0  0  0  0  0  0  0  0
   39.8010   22.8260   37.7520 C   0  0  0  0  0  3  0  0  0  0  0  0
   38.9500   23.3990   38.7060 C   0  0  0  0  0  0  0  0  0  0  0  0
   39.1190   23.1610   39.7500 H   0  0  0  0  0  0  0  0  0  0  0  0
   37.9180   24.2490   38.3220 C   0  0  0  0  0  0  0  0  0  0  0  0
   37.2560   24.6970   39.0380 H   0  0  0  0  0  0  0  0  0  0  0  0
   37.8050   24.4780   36.9570 C   0  0  0  0  0  3  0  0  0  0  0  0
   38.6950   23.1930   33.2860 S   0  0  0  0  0  0  0  0  0  0  0  0
   37.2220   22.2790   32.8630 C   0  0  0  0  0  0  0  0  0  0  0  0
   36.8420   21.4370   33.9050 C   0  0  0  0  0  0  0  0  0  0  0  0
   35.6740   20.6650   33.6810 C   0  0  0  0  0  0  0  0  0  0  0  0
   35.0010   20.7770   32.5020 N   0  0  0  0  0  0  0  0  0  0  0  0
   35.4380   21.6190   31.5450 C   0  0  0  0  0  0  0  0  0  0  0  0
   36.5270   22.3420   31.7450 N   0  0  0  0  0  0  0  0  0  0  0  0
   37.2350   21.2140   34.8860 H   0  0  0  0  0  0  0  0  0  0  0  0
   35.2470   19.9780   34.3620 H   0  0  0  0  0  0  0  0  0  0  0  0
   34.8880   21.6860   30.6320 H   0  0  0  0  0  0  0  0  0  0  0  0
  1  4  1  0  0  0  0
  2  1  1  0  0  0  0
  3  1  1  0  0  0  0
  4  5  2  0  0  0  0
  4 12  1  0  0  0  0
  5  7  1  0  0  0  0
  6  5  1  0  0  0  0
  7  8  2  0  0  0  0
  8  9  1  0  0  0  0
 10  8  1  0  0  0  0
 10 11  1  0  0  0  0
 12 10  2  0  0  0  0
 13  1  1  0  0  0  0
 14 13  1  0  0  0  0
 14 15  1  0  0  0  0
 15 20  1  0  0  0  0
 16 15  2  0  0  0  0
 16 21  1  0  0  0  0
 17 16  1  0  0  0  0
 18 19  1  0  0  0  0
 18 17  2  0  0  0  0
 19 14  2  0  0  0  0
 22 18  1  0  0  0  0
M  END
>  <minimizedAffinity>
-4.25435352

$$$$

 OpenBabel03262521523D

 22 23  0  0  0  0  0  0  0  0999 V2000
   38.3860   23.8350   33.3460 C   0  0  0  0  0  0  0  0  0  0  0  0
   37.5390   23.9630   32.6080 H   0  0  0  0  0  0  0  0  0  0  0  0
   39.2800   23.6720   32.6830 H   0  0  0  0  0  0  0  0  0  0  0  0
   38.5540   25.0810   34.0830 C   0  0  0  0  0  0  0  0  0  0  0  0
   39.6830   25.6800   34.6000 C   0  0  0  0  0  0  0  0  0  0  0  0
   40.5910   25.1580   34.4140 H   0  0  0  0  0  0  0  0  0  0  0  0
   39.6650   26.8660   35.2930 C   0  0  0  0  0  3  0  0  0  0  0  0
   38.4460   27.5250   35.5000 C   0  0  0  0  0  0  0  0  0  0  0  0
   38.4580   28.4600   36.0490 H   0  0  0  0  0  0  0  0  0  0  0  0
   37.2560   26.9940   35.0140 C   0  0  0  0  0  0  0  0  0  0  0  0
   36.3130   27.4840   35.1620 H   0  0  0  0  0  0  0  0  0  0  0  0
   37.3720   25.7930   34.3260 C   0  0  0  0  0  3  0  0  0  0  0  0
   37.9860   22.3810   34.3060 S   0  0  0  0  0  0  0  0  0  0  0  0
   38.3290   22.7530   36.0180 C   0  0  0  0  0  0  0  0  0  0  0  0
   39.6410   22.4240   36.3450 C   0  0  0  0  0  0  0  0  0  0  0  0
   40.0290   22.6850   37.6840 C   0  0  0  0  0  0  0  0  0  0  0  0
   39.1340   23.2260   38.5570 N   0  0  0  0  0  0  0  0  0  0  0  0
   37.8810   23.5160   38.1560 C   0  0  0  0  0  0  0  0  0  0  0  0
   37.5100   23.2750   36.9090 N   0  0  0  0  0  0  0  0  0  0  0  0
   40.4760   21.9970   35.8090 H   0  0  0  0  0  0  0  0  0  0  0  0
   40.9820   22.4960   38.1000 H   0  0  0  0  0  0  0  0  0  0  0  0
   37.2020   23.9410   38.8630 H   0  0  0  0  0  0  0  0  0  0  0  0
  1  4  1  0  0  0  0
  1 13  1  0  0  0  0
  2  1  1  0  0  0  0
  3  1  1  0  0  0  0
  4 12  2  0  0  0  0
  4  5  1  0  0  0  0
  5  7  2  0  0  0  0
  6  5  1  0  0  0  0
  7  8  1  0  0  0  0
  8  9  1  0  0  0  0
 10 11  1  0  0  0  0
 10  8  2  0  0  0  0
 12 10  1  0  0  0  0
 13 14  1  0  0  0  0
 14 15  2  0  0  0  0
 14 19  1  0  0  0  0
 15 16  1  0  0  0  0
 16 21  1  0  0  0  0
 16 17  2  0  0  0  0
 18 17  1  0  0  0  0
 18 22  1  0  0  0  0
 19 18  2  0  0  0  0
 20 15  1  0  0  0  0
M  END
>  <minimizedAffinity>
-4.24919939

$$$$

 OpenBabel03262521523D

 22 23  0  0  0  0  0  0  0  0999 V2000
   39.1740   24.5750   34.5120 C   0  0  0  0  0  0  0  0  0  0  0  0
   39.1980   25.7000   34.4100 H   0  0  0  0  0  0  0  0  0  0  0  0
   40.2170   24.2700   34.2190 H   0  0  0  0  0  0  0  0  0  0  0  0
   38.9500   24.2380   35.9120 C   0  0  0  0  0  0  0  0  0  0  0  0
   38.0220   24.7080   36.8170 C   0  0  0  0  0  0  0  0  0  0  0  0
   37.3380   25.4220   36.4260 H   0  0  0  0  0  0  0  0  0  0  0  0
   37.9560   24.2900   38.1240 C   0  0  0  0  0  3  0  0  0  0  0  0
   38.8690   23.3350   38.5900 C   0  0  0  0  0  0  0  0  0  0  0  0
   38.7970   23.0220   39.6250 H   0  0  0  0  0  0  0  0  0  0  0  0
   39.8400   22.8060   37.7470 C   0  0  0  0  0  0  0  0  0  0  0  0
   40.5480   22.0740   38.0860 H   0  0  0  0  0  0  0  0  0  0  0  0
   39.8310   23.2860   36.4440 C   0  0  0  0  0  3  0  0  0  0  0  0
   37.9520   24.0010   33.3410 S   0  0  0  0  0  0  0  0  0  0  0  0
   37.0950   25.4350   32.7080 C   0  0  0  0  0  0  0  0  0  0  0  0
   37.2370   26.5190   33.5700 C   0  0  0  0  0  0  0  0  0  0  0  0
   36.6020   27.7190   33.1610 C   0  0  0  0  0  0  0  0  0  0  0  0
   35.9080   27.7570   31.9890 N   0  0  0  0  0  0  0  0  0  0  0  0
   35.8220   26.6590   31.2140 C   0  0  0  0  0  0  0  0  0  0  0  0
   36.4110   25.5350   31.5870 N   0  0  0  0  0  0  0  0  0  0  0  0
   37.7320   26.6810   34.5160 H   0  0  0  0  0  0  0  0  0  0  0  0
   36.6080   28.6340   33.6930 H   0  0  0  0  0  0  0  0  0  0  0  0
   35.2730   26.7200   30.2990 H   0  0  0  0  0  0  0  0  0  0  0  0
  1  4  1  0  0  0  0
  2  1  1  0  0  0  0
  3  1  1  0  0  0  0
  4 12  2  0  0  0  0
  4  5  1  0  0  0  0
  5  7  2  0  0  0  0
  6  5  1  0  0  0  0
  7  8  1  0  0  0  0
  8  9  1  0  0  0  0
 10 11  1  0  0  0  0
 10  8  2  0  0  0  0
 12 10  1  0  0  0  0
 13  1  1  0  0  0  0
 14 13  1  0  0  0  0
 14 15  1  0  0  0  0
 15 20  1  0  0  0  0
 16 15  2  0  0  0  0
 16 21  1  0  0  0  0
 17 16  1  0  0  0  0
 18 19  1  0  0  0  0
 18 17  2  0  0  0  0
 19 14  2  0  0  0  0
 22 18  1  0  0  0  0
M  END
>  <minimizedAffinity>
-4.2283988

$$$$

 OpenBabel03262521523D

 22 23  0  0  0  0  0  0  0  0999 V2000
   39.0270   25.9960   34.0350 C   0  0  0  0  0  0  0  0  0  0  0  0
   39.8610   25.9370   33.2740 H   0  0  0  0  0  0  0  0  0  0  0  0
   39.5450   26.3970   34.9500 H   0  0  0  0  0  0  0  0  0  0  0  0
   38.0430   26.9660   33.5740 C   0  0  0  0  0  0  0  0  0  0  0  0
   37.7740   27.4510   32.3120 C   0  0  0  0  0  0  0  0  0  0  0  0
   38.3690   27.0330   31.5370 H   0  0  0  0  0  0  0  0  0  0  0  0
   36.8070   28.3910   32.0490 C   0  0  0  0  0  3  0  0  0  0  0  0
   36.0370   28.9020   33.1020 C   0  0  0  0  0  0  0  0  0  0  0  0
   35.2800   29.6420   32.8690 H   0  0  0  0  0  0  0  0  0  0  0  0
   36.2390   28.4710   34.4080 C   0  0  0  0  0  0  0  0  0  0  0  0
   35.6600   28.8510   35.2280 H   0  0  0  0  0  0  0  0  0  0  0  0
   37.2370   27.5200   34.5790 C   0  0  0  0  0  3  0  0  0  0  0  0
   38.4550   24.3190   34.2680 S   0  0  0  0  0  0  0  0  0  0  0  0
   38.7510   23.8780   35.9720 C   0  0  0  0  0  0  0  0  0  0  0  0
   37.8160   24.4780   36.8110 C   0  0  0  0  0  0  0  0  0  0  0  0
   37.9500   24.1890   38.1930 C   0  0  0  0  0  0  0  0  0  0  0  0
   38.9500   23.3690   38.6220 N   0  0  0  0  0  0  0  0  0  0  0  0
   39.8130   22.8290   37.7400 C   0  0  0  0  0  0  0  0  0  0  0  0
   39.6960   23.0930   36.4490 N   0  0  0  0  0  0  0  0  0  0  0  0
   36.9750   25.1400   36.6650 H   0  0  0  0  0  0  0  0  0  0  0  0
   37.3300   24.5590   38.9650 H   0  0  0  0  0  0  0  0  0  0  0  0
   40.5860   22.1880   38.1060 H   0  0  0  0  0  0  0  0  0  0  0  0
  1 13  1  0  0  0  0
  1  3  1  0  0  0  0
  2  1  1  0  0  0  0
  4  1  1  0  0  0  0
  4 12  1  0  0  0  0
  5  4  2  0  0  0  0
  6  5  1  0  0  0  0
  7  5  1  0  0  0  0
  7  8  2  0  0  0  0
  8 10  1  0  0  0  0
  9  8  1  0  0  0  0
 10 12  2  0  0  0  0
 10 11  1  0  0  0  0
 13 14  1  0  0  0  0
 14 19  2  0  0  0  0
 14 15  1  0  0  0  0
 15 16  2  0  0  0  0
 16 17  1  0  0  0  0
 16 21  1  0  0  0  0
 18 22  1  0  0  0  0
 18 17  2  0  0  0  0
 19 18  1  0  0  0  0
 20 15  1  0  0  0  0
M  END
>  <minimizedAffinity>
-4.19609594

$$$$

 OpenBabel03262521523D

 22 23  0  0  0  0  0  0  0  0999 V2000
   38.4140   24.3250   33.4010 C   0  0  0  0  0  0  0  0  0  0  0  0
   39.3420   24.2420   32.7610 H   0  0  0  0  0  0  0  0  0  0  0  0
   38.6770   25.1430   34.1270 H   0  0  0  0  0  0  0  0  0  0  0  0
   37.3060   24.7620   32.5620 C   0  0  0  0  0  0  0  0  0  0  0  0
   36.8350   26.0250   32.2740 C   0  0  0  0  0  0  0  0  0  0  0  0
   37.3820   26.8190   32.7210 H   0  0  0  0  0  0  0  0  0  0  0  0
   35.7510   26.2660   31.4630 C   0  0  0  0  0  3  0  0  0  0  0  0
   35.0710   25.1870   30.8840 C   0  0  0  0  0  0  0  0  0  0  0  0
   34.2200   25.4030   30.2480 H   0  0  0  0  0  0  0  0  0  0  0  0
   35.4760   23.8780   31.1200 C   0  0  0  0  0  0  0  0  0  0  0  0
   34.9670   23.0390   30.6850 H   0  0  0  0  0  0  0  0  0  0  0  0
   36.5790   23.7320   31.9500 C   0  0  0  0  0  3  0  0  0  0  0  0
   38.2330   22.7410   34.2100 S   0  0  0  0  0  0  0  0  0  0  0  0
   38.4490   23.0020   35.9630 C   0  0  0  0  0  0  0  0  0  0  0  0
   39.7020   22.5620   36.3810 C   0  0  0  0  0  0  0  0  0  0  0  0
   39.9880   22.7290   37.7600 C   0  0  0  0  0  0  0  0  0  0  0  0
   39.0590   23.2900   38.5830 N   0  0  0  0  0  0  0  0  0  0  0  0
   37.8690   23.6900   38.0940 C   0  0  0  0  0  0  0  0  0  0  0  0
   37.5930   23.5380   36.8090 N   0  0  0  0  0  0  0  0  0  0  0  0
   40.5500   22.1030   35.8940 H   0  0  0  0  0  0  0  0  0  0  0  0
   40.8860   22.4510   38.2430 H   0  0  0  0  0  0  0  0  0  0  0  0
   37.1610   24.1290   38.7650 H   0  0  0  0  0  0  0  0  0  0  0  0
  1  3  1  0  0  0  0
  1 13  1  0  0  0  0
  2  1  1  0  0  0  0
  4  1  1  0  0  0  0
  5  4  1  0  0  0  0
  5  6  1  0  0  0  0
  7  5  2  0  0  0  0
  8 10  2  0  0  0  0
  8  7  1  0  0  0  0
  9  8  1  0  0  0  0
 10 12  1  0  0  0  0
 11 10  1  0  0  0  0
 12  4  2  0  0  0  0
 13 14  1  0  0  0  0
 14 15  2  0  0  0  0
 14 19  1  0  0  0  0
 15 16  1  0  0  0  0
 16 21  1  0  0  0  0
 16 17  2  0  0  0  0
 18 17  1  0  0  0  0
 18 22  1  0  0  0  0
 19 18  2  0  0  0  0
 20 15  1  0  0  0  0
M  END
>  <minimizedAffinity>
-4.17972326

$$$$

 OpenBabel03262521523D

 22 23  0  0  0  0  0  0  0  0999 V2000
   38.7200   24.4200   34.4740 C   0  0  0  0  0  0  0  0  0  0  0  0
   39.1610   23.6320   33.7940 H   0  0  0  0  0  0  0  0  0  0  0  0
   37.6240   24.3920   34.2180 H   0  0  0  0  0  0  0  0  0  0  0  0
   38.9030   24.0000   35.8560 C   0  0  0  0  0  0  0  0  0  0  0  0
   39.8360   23.1640   36.4310 C   0  0  0  0  0  0  0  0  0  0  0  0
   40.5610   22.7730   35.7580 H   0  0  0  0  0  0  0  0  0  0  0  0
   39.8580   22.8550   37.7700 C   0  0  0  0  0  3  0  0  0  0  0  0
   38.8910   23.4060   38.6210 C   0  0  0  0  0  0  0  0  0  0  0  0
   38.9300   23.1480   39.6730 H   0  0  0  0  0  0  0  0  0  0  0  0
   37.9110   24.2600   38.1280 C   0  0  0  0  0  0  0  0  0  0  0  0
   37.1620   24.6920   38.7640 H   0  0  0  0  0  0  0  0  0  0  0  0
   37.9670   24.5150   36.7640 C   0  0  0  0  0  3  0  0  0  0  0  0
   39.4820   25.9640   33.9950 S   0  0  0  0  0  0  0  0  0  0  0  0
   38.1800   27.0790   33.4980 C   0  0  0  0  0  0  0  0  0  0  0  0
   37.3770   27.4210   34.5820 C   0  0  0  0  0  0  0  0  0  0  0  0
   36.3100   28.3130   34.3050 C   0  0  0  0  0  0  0  0  0  0  0  0
   36.1250   28.7780   33.0370 N   0  0  0  0  0  0  0  0  0  0  0  0
   36.9520   28.3960   32.0450 C   0  0  0  0  0  0  0  0  0  0  0  0
   37.9490   27.5640   32.2940 N   0  0  0  0  0  0  0  0  0  0  0  0
   37.3620   27.1620   35.6310 H   0  0  0  0  0  0  0  0  0  0  0  0
   35.6070   28.6740   35.0070 H   0  0  0  0  0  0  0  0  0  0  0  0
   36.7830   28.7790   31.0610 H   0  0  0  0  0  0  0  0  0  0  0  0
  1  4  1  0  0  0  0
  2  1  1  0  0  0  0
  3  1  1  0  0  0  0
  4  5  2  0  0  0  0
  4 12  1  0  0  0  0
  5  7  1  0  0  0  0
  6  5  1  0  0  0  0
  7  8  2  0  0  0  0
  8  9  1  0  0  0  0
 10  8  1  0  0  0  0
 10 11  1  0  0  0  0
 12 10  2  0  0  0  0
 13  1  1  0  0  0  0
 14 13  1  0  0  0  0
 14 15  1  0  0  0  0
 15 20  1  0  0  0  0
 16 15  2  0  0  0  0
 16 21  1  0  0  0  0
 17 16  1  0  0  0  0
 18 19  1  0  0  0  0
 18 17  2  0  0  0  0
 19 14  2  0  0  0  0
 22 18  1  0  0  0  0
M  END
>  <minimizedAffinity>
-4.17891359

$$$$

 OpenBabel03262521523D

 22 23  0  0  0  0  0  0  0  0999 V2000
   39.2170   23.5720   34.0880 C   0  0  0  0  0  0  0  0  0  0  0  0
   39.3310   24.6640   33.8160 H   0  0  0  0  0  0  0  0  0  0  0  0
   40.1710   23.1140   33.7070 H   0  0  0  0  0  0  0  0  0  0  0  0
   39.1720   23.4560   35.5390 C   0  0  0  0  0  0  0  0  0  0  0  0
   40.0170   22.8170   36.4210 C   0  0  0  0  0  0  0  0  0  0  0  0
   40.8570   22.3440   35.9730 H   0  0  0  0  0  0  0  0  0  0  0  0
   39.8180   22.7900   37.7810 C   0  0  0  0  0  3  0  0  0  0  0  0
   38.7050   23.4420   38.3280 C   0  0  0  0  0  0  0  0  0  0  0  0
   38.5710   23.4070   39.4030 H   0  0  0  0  0  0  0  0  0  0  0  0
   37.7990   24.1130   37.5140 C   0  0  0  0  0  0  0  0  0  0  0  0
   36.9410   24.6170   37.9140 H   0  0  0  0  0  0  0  0  0  0  0  0
   38.0810   24.0860   36.1540 C   0  0  0  0  0  3  0  0  0  0  0  0
   37.7850   22.9890   33.1900 S   0  0  0  0  0  0  0  0  0  0  0  0
   36.9720   24.4140   32.4860 C   0  0  0  0  0  0  0  0  0  0  0  0
   35.9930   24.0270   31.5740 C   0  0  0  0  0  0  0  0  0  0  0  0
   35.2730   25.0810   30.9570 C   0  0  0  0  0  0  0  0  0  0  0  0
   35.5600   26.3760   31.2700 N   0  0  0  0  0  0  0  0  0  0  0  0
   36.5250   26.6610   32.1660 C   0  0  0  0  0  0  0  0  0  0  0  0
   37.2020   25.6840   32.7470 N   0  0  0  0  0  0  0  0  0  0  0  0
   35.6300   23.0800   31.2020 H   0  0  0  0  0  0  0  0  0  0  0  0
   34.5010   24.9670   30.2430 H   0  0  0  0  0  0  0  0  0  0  0  0
   36.7260   27.6860   32.3930 H   0  0  0  0  0  0  0  0  0  0  0  0
  1  4  1  0  0  0  0
  2  1  1  0  0  0  0
  3  1  1  0  0  0  0
  4 12  2  0  0  0  0
  4  5  1  0  0  0  0
  5  7  2  0  0  0  0
  6  5  1  0  0  0  0
  7  8  1  0  0  0  0
  8  9  1  0  0  0  0
 10 11  1  0  0  0  0
 10  8  2  0  0  0  0
 12 10  1  0  0  0  0
 13  1  1  0  0  0  0
 14 19  1  0  0  0  0
 14 13  1  0  0  0  0
 15 14  2  0  0  0  0
 16 17  2  0  0  0  0
 16 15  1  0  0  0  0
 17 18  1  0  0  0  0
 18 22  1  0  0  0  0
 18 19  2  0  0  0  0
 20 15  1  0  0  0  0
 21 16  1  0  0  0  0
M  END
>  <minimizedAffinity>
-4.13419914

$$$$
