
 OpenBabel03262521513D

 22 23  0  0  0  0  0  0  0  0999 V2000
   38.4460   31.4980   49.9280 C   0  0  0  0  0  0  0  0  0  0  0  0
   38.7790   31.9960   50.8870 H   0  0  0  0  0  0  0  0  0  0  0  0
   39.2780   30.7710   49.7160 H   0  0  0  0  0  0  0  0  0  0  0  0
   37.2160   30.7620   50.1870 C   0  0  0  0  0  0  0  0  0  0  0  0
   36.9070   29.8320   51.1570 C   0  0  0  0  0  0  0  0  0  0  0  0
   37.6890   29.6310   51.8480 H   0  0  0  0  0  0  0  0  0  0  0  0
   35.6850   29.2110   51.2510 C   0  0  0  0  0  0  0  0  0  0  0  0
   34.6800   29.5210   50.3260 C   0  0  0  0  0  0  0  0  0  0  0  0
   33.7240   29.0180   50.4230 H   0  0  0  0  0  0  0  0  0  0  0  0
   34.9030   30.4470   49.3140 C   0  0  0  0  0  0  0  0  0  0  0  0
   34.1460   30.6970   48.5950 H   0  0  0  0  0  0  0  0  0  0  0  0
   36.1670   31.0240   49.2960 C   0  0  0  0  0  0  0  0  0  0  0  0
   38.3630   32.7980   48.7040 S   0  0  0  0  0  0  0  0  0  0  0  0
   39.0770   32.1670   47.1950 C   0  0  0  0  0  0  0  0  0  0  0  0
   39.8890   33.1220   46.5910 C   0  0  0  0  0  0  0  0  0  0  0  0
   40.5180   32.7250   45.3840 C   0  0  0  0  0  0  0  0  0  0  0  0
   40.3080   31.4730   44.8880 N   0  0  0  0  0  0  0  0  0  0  0  0
   39.5060   30.6090   45.5390 C   0  0  0  0  0  0  0  0  0  0  0  0
   38.9140   30.9710   46.6650 N   0  0  0  0  0  0  0  0  0  0  0  0
   40.1710   34.1390   46.8220 H   0  0  0  0  0  0  0  0  0  0  0  0
   41.1640   33.3230   44.7970 H   0  0  0  0  0  0  0  0  0  0  0  0
   39.3620   29.6340   45.1260 H   0  0  0  0  0  0  0  0  0  0  0  0
  1  4  1  0  0  0  0
  1  2  1  0  0  0  0
  3  1  1  0  0  0  0
  4  5  1  0  0  0  0
  5  7  2  0  0  0  0
  5  6  1  0  0  0  0
  8  9  1  0  0  0  0
  8  7  1  0  0  0  0
 10  8  2  0  0  0  0
 11 10  1  0  0  0  0
 12 10  1  0  0  0  0
 12  4  2  0  0  0  0
 13  1  1  0  0  0  0
 14 13  1  0  0  0  0
 15 20  1  0  0  0  0
 15 14  2  0  0  0  0
 16 15  1  0  0  0  0
 17 16  2  0  0  0  0
 17 18  1  0  0  0  0
 18 19  2  0  0  0  0
 19 14  1  0  0  0  0
 21 16  1  0  0  0  0
 22 18  1  0  0  0  0
M  END
>  <minimizedAffinity>
-5.44667196

>  <minimizedRMSD>
3.40642858

$$$$
