
 OpenBabel03272510303D

 28 30  0  0  0  0  0  0  0  0999 V2000
   37.3430   31.3920   49.2460 C   0  0  0  0  0  0  0  0  0  0  0  0
   37.5530   32.7040   49.6700 C   0  0  0  0  0  0  0  0  0  0  0  0
   38.4600   33.4330   48.9410 C   0  0  0  0  0  0  0  0  0  0  0  0
   39.0900   32.8740   47.8770 N   0  0  0  0  0  0  0  0  0  0  0  0
   38.8580   31.5870   47.4920 C   0  0  0  0  0  0  0  0  0  0  0  0
   37.9610   30.8150   48.1890 N   0  0  0  0  0  0  0  0  0  0  0  0
   37.0000   33.0490   50.5270 H   0  0  0  0  0  0  0  0  0  0  0  0
   38.6500   34.4550   49.2410 H   0  0  0  0  0  0  0  0  0  0  0  0
   36.3350   30.5570   49.9940 C   0  0  0  0  0  0  0  0  0  0  0  0
   36.3060   29.1180   49.9350 C   0  0  0  0  0  0  0  0  0  0  0  0
   36.9770   29.7540   51.1380 C   0  0  0  0  0  0  0  0  0  0  0  0
   35.4370   31.1410   50.2910 H   0  0  0  0  0  0  0  0  0  0  0  0
   35.3140   28.6270   50.1460 H   0  0  0  0  0  0  0  0  0  0  0  0
   37.0050   28.5030   49.3330 H   0  0  0  0  0  0  0  0  0  0  0  0
   36.4040   29.7540   52.0880 H   0  0  0  0  0  0  0  0  0  0  0  0
   38.0780   29.7270   51.2150 H   0  0  0  0  0  0  0  0  0  0  0  0
   39.5160   30.9840   46.3400 C   0  0  0  0  0  0  0  0  0  0  0  0
   40.5990   31.2270   46.3700 H   0  0  0  0  0  0  0  0  0  0  0  0
   39.3450   29.8890   46.2830 H   0  0  0  0  0  0  0  0  0  0  0  0
   38.9750   31.6270   45.1090 C   0  0  0  0  0  0  0  0  0  0  0  0
   39.8590   32.1720   44.1750 C   0  0  0  0  0  0  0  0  0  0  0  0
   40.9220   32.0880   44.4160 H   0  0  0  0  0  0  0  0  0  0  0  0
   39.5170   32.7950   42.9970 C   0  0  0  0  0  3  0  0  0  0  0  0
   38.1500   32.8850   42.7190 C   0  0  0  0  0  0  0  0  0  0  0  0
   37.8770   33.3710   41.7980 H   0  0  0  0  0  0  0  0  0  0  0  0
   37.2540   32.3500   43.6320 C   0  0  0  0  0  0  0  0  0  0  0  0
   36.1850   32.4290   43.4000 H   0  0  0  0  0  0  0  0  0  0  0  0
   37.6180   31.7350   44.7980 C   0  0  0  0  0  3  0  0  0  0  0  0
  1  2  1  0  0  0  0
  1  9  1  0  0  0  0
  2  7  1  0  0  0  0
  3  8  1  0  0  0  0
  3  2  2  0  0  0  0
  4  3  1  0  0  0  0
  5  4  2  0  0  0  0
  5  6  1  0  0  0  0
  6  1  2  0  0  0  0
  9 12  1  0  0  0  0
  9 11  1  0  0  0  0
 10  9  1  0  0  0  0
 10 13  1  0  0  0  0
 10 11  1  0  0  0  0
 11 16  1  0  0  0  0
 11 15  1  0  0  0  0
 14 10  1  0  0  0  0
 17 18  1  0  0  0  0
 17  5  1  0  0  0  0
 19 17  1  0  0  0  0
 20 17  1  0  0  0  0
 21 22  1  0  0  0  0
 21 20  2  0  0  0  0
 23 21  1  0  0  0  0
 24 23  2  0  0  0  0
 24 26  1  0  0  0  0
 25 24  1  0  0  0  0
 26 28  2  0  0  0  0
 27 26  1  0  0  0  0
 28 20  1  0  0  0  0
M  END
>  <minimizedAffinity>
-5.41768885

>  <minimizedRMSD>
0.917116046

$$$$
