
 OpenBabel03272510303D

 28 30  0  0  0  0  0  0  0  0999 V2000
   37.5500   31.5420   49.3030 C   0  0  0  0  0  0  0  0  0  0  0  0
   37.8370   32.8760   49.5930 C   0  0  0  0  0  0  0  0  0  0  0  0
   38.6950   33.5080   48.7270 C   0  0  0  0  0  0  0  0  0  0  0  0
   39.2090   32.8400   47.6640 N   0  0  0  0  0  0  0  0  0  0  0  0
   38.9040   31.5350   47.4130 C   0  0  0  0  0  0  0  0  0  0  0  0
   38.0530   30.8570   48.2490 N   0  0  0  0  0  0  0  0  0  0  0  0
   37.3740   33.3110   50.4620 H   0  0  0  0  0  0  0  0  0  0  0  0
   38.9410   34.5430   48.9200 H   0  0  0  0  0  0  0  0  0  0  0  0
   36.5910   30.8100   50.2060 C   0  0  0  0  0  0  0  0  0  0  0  0
   36.5660   29.3750   50.3290 C   0  0  0  0  0  0  0  0  0  0  0  0
   37.2990   30.1550   51.4040 C   0  0  0  0  0  0  0  0  0  0  0  0
   35.7070   31.4290   50.4780 H   0  0  0  0  0  0  0  0  0  0  0  0
   35.5890   28.9170   50.6570 H   0  0  0  0  0  0  0  0  0  0  0  0
   37.2320   28.6870   49.7710 H   0  0  0  0  0  0  0  0  0  0  0  0
   36.7820   30.2760   52.3770 H   0  0  0  0  0  0  0  0  0  0  0  0
   38.4040   30.1360   51.4210 H   0  0  0  0  0  0  0  0  0  0  0  0
   39.4370   30.8150   46.2630 C   0  0  0  0  0  0  0  0  0  0  0  0
   40.5470   30.8380   46.3010 H   0  0  0  0  0  0  0  0  0  0  0  0
   39.0520   29.7760   46.2020 H   0  0  0  0  0  0  0  0  0  0  0  0
   39.0430   31.5530   45.0300 C   0  0  0  0  0  0  0  0  0  0  0  0
   37.6890   31.6760   44.7090 C   0  0  0  0  0  0  0  0  0  0  0  0
   36.9870   31.2070   45.4030 H   0  0  0  0  0  0  0  0  0  0  0  0
   37.1690   32.3230   43.6110 C   0  0  0  0  0  3  0  0  0  0  0  0
   38.0940   32.9110   42.7440 C   0  0  0  0  0  0  0  0  0  0  0  0
   37.6900   33.4200   41.8840 H   0  0  0  0  0  0  0  0  0  0  0  0
   39.4430   32.8030   43.0440 C   0  0  0  0  0  0  0  0  0  0  0  0
   40.1550   33.2690   42.3540 H   0  0  0  0  0  0  0  0  0  0  0  0
   39.9360   32.1530   44.1420 C   0  0  0  0  0  3  0  0  0  0  0  0
  1  2  1  0  0  0  0
  1  9  1  0  0  0  0
  2  7  1  0  0  0  0
  3  8  1  0  0  0  0
  3  2  2  0  0  0  0
  4  3  1  0  0  0  0
  5  4  2  0  0  0  0
  5  6  1  0  0  0  0
  6  1  2  0  0  0  0
  9 10  1  0  0  0  0
  9 12  1  0  0  0  0
  9 11  1  0  0  0  0
 10 13  1  0  0  0  0
 10 11  1  0  0  0  0
 11 16  1  0  0  0  0
 11 15  1  0  0  0  0
 14 10  1  0  0  0  0
 17 18  1  0  0  0  0
 17  5  1  0  0  0  0
 19 17  1  0  0  0  0
 20 17  1  0  0  0  0
 21 20  1  0  0  0  0
 21 22  1  0  0  0  0
 23 21  2  0  0  0  0
 24 26  2  0  0  0  0
 24 23  1  0  0  0  0
 25 24  1  0  0  0  0
 26 28  1  0  0  0  0
 27 26  1  0  0  0  0
 28 20  2  0  0  0  0
M  END
>  <minimizedAffinity>
-5.38491774

>  <minimizedRMSD>
1.12528145

$$$$
