
 OpenBabel03272510303D

 28 30  0  0  0  0  0  0  0  0999 V2000
   37.3430   31.3940   49.2470 C   0  0  0  0  0  0  0  0  0  0  0  0
   37.5540   32.7060   49.6710 C   0  0  0  0  0  0  0  0  0  0  0  0
   38.4610   33.4340   48.9410 C   0  0  0  0  0  0  0  0  0  0  0  0
   39.0900   32.8740   47.8770 N   0  0  0  0  0  0  0  0  0  0  0  0
   38.8570   31.5880   47.4930 C   0  0  0  0  0  0  0  0  0  0  0  0
   37.9610   30.8160   48.1910 N   0  0  0  0  0  0  0  0  0  0  0  0
   37.0010   33.0520   50.5280 H   0  0  0  0  0  0  0  0  0  0  0  0
   38.6510   34.4560   49.2400 H   0  0  0  0  0  0  0  0  0  0  0  0
   36.3350   30.5600   49.9970 C   0  0  0  0  0  0  0  0  0  0  0  0
   36.3050   29.1210   49.9360 C   0  0  0  0  0  0  0  0  0  0  0  0
   36.9780   29.7540   51.1390 C   0  0  0  0  0  0  0  0  0  0  0  0
   35.4380   31.1450   50.2960 H   0  0  0  0  0  0  0  0  0  0  0  0
   35.3120   28.6310   50.1480 H   0  0  0  0  0  0  0  0  0  0  0  0
   37.0010   28.5050   49.3320 H   0  0  0  0  0  0  0  0  0  0  0  0
   36.4070   29.7540   52.0890 H   0  0  0  0  0  0  0  0  0  0  0  0
   38.0800   29.7260   51.2140 H   0  0  0  0  0  0  0  0  0  0  0  0
   39.5140   30.9840   46.3400 C   0  0  0  0  0  0  0  0  0  0  0  0
   40.5980   31.2260   46.3710 H   0  0  0  0  0  0  0  0  0  0  0  0
   39.3420   29.8890   46.2840 H   0  0  0  0  0  0  0  0  0  0  0  0
   38.9740   31.6270   45.1090 C   0  0  0  0  0  0  0  0  0  0  0  0
   39.8580   32.1720   44.1770 C   0  0  0  0  0  0  0  0  0  0  0  0
   40.9210   32.0900   44.4190 H   0  0  0  0  0  0  0  0  0  0  0  0
   39.5170   32.7950   42.9990 C   0  0  0  0  0  3  0  0  0  0  0  0
   38.1490   32.8850   42.7210 C   0  0  0  0  0  0  0  0  0  0  0  0
   37.8770   33.3730   41.7990 H   0  0  0  0  0  0  0  0  0  0  0  0
   37.2530   32.3500   43.6320 C   0  0  0  0  0  0  0  0  0  0  0  0
   36.1850   32.4280   43.4000 H   0  0  0  0  0  0  0  0  0  0  0  0
   37.6170   31.7350   44.7990 C   0  0  0  0  0  3  0  0  0  0  0  0
  1  2  1  0  0  0  0
  1  9  1  0  0  0  0
  2  7  1  0  0  0  0
  3  8  1  0  0  0  0
  3  2  2  0  0  0  0
  4  3  1  0  0  0  0
  5  4  2  0  0  0  0
  5  6  1  0  0  0  0
  6  1  2  0  0  0  0
  9 12  1  0  0  0  0
  9 11  1  0  0  0  0
 10  9  1  0  0  0  0
 10 13  1  0  0  0  0
 10 11  1  0  0  0  0
 11 16  1  0  0  0  0
 11 15  1  0  0  0  0
 14 10  1  0  0  0  0
 17 18  1  0  0  0  0
 17  5  1  0  0  0  0
 19 17  1  0  0  0  0
 20 17  1  0  0  0  0
 21 22  1  0  0  0  0
 21 20  2  0  0  0  0
 23 21  1  0  0  0  0
 24 23  2  0  0  0  0
 24 26  1  0  0  0  0
 25 24  1  0  0  0  0
 26 28  2  0  0  0  0
 27 26  1  0  0  0  0
 28 20  1  0  0  0  0
M  END
>  <minimizedAffinity>
-5.4170332

>  <minimizedRMSD>
1.0812006

$$$$
