
     RDKit          3D

 33 35  0  0  0  0  0  0  0  0999 V2000
   37.4107   29.9326   50.5642 C   0  0  0  0  0  0  0  0  0  0  0  0
   37.8700   30.3966   49.3201 C   0  0  0  0  0  0  0  0  0  0  0  0
   37.0024   30.6659   48.2934 C   0  0  0  0  0  0  0  0  0  0  0  0
   35.6711   30.4688   48.5135 N   0  0  0  0  0  0  0  0  0  0  0  0
   35.2008   30.0182   49.7134 C   0  0  0  0  0  0  0  0  0  0  0  0
   36.0663   29.7521   50.7322 N   0  0  0  0  0  0  0  0  0  0  0  0
   37.4447   31.1331   47.0531 N   0  0  0  0  0  0  0  0  0  0  0  0
   36.8076   30.8008   45.8977 C   0  0  0  0  0  0  0  0  0  0  0  0
   37.2331   31.2608   44.6588 C   0  0  0  0  0  0  0  0  0  0  0  0
   38.3653   32.0959   44.6428 C   0  0  0  0  0  0  0  0  0  0  0  0
   38.7856   32.5350   43.5460 O   0  0  0  0  0  0  0  0  0  0  0  0
   39.0031   32.4279   45.8043 N   0  0  0  0  0  0  0  0  0  0  0  0
   38.4955   31.9214   46.9299 C   0  0  0  0  0  0  0  0  0  0  0  0
   39.1050   32.2482   47.9732 O   0  0  0  0  0  0  0  0  0  0  0  0
   40.1701   33.2863   45.7777 C   0  0  0  0  0  0  0  0  0  0  0  0
   40.0380   34.2201   44.8025 F   0  0  0  0  0  0  0  0  0  0  0  0
   41.3394   32.5915   45.5058 F   0  0  0  0  0  0  0  0  0  0  0  0
   40.2701   33.9379   47.0004 F   0  0  0  0  0  0  0  0  0  0  0  0
   38.0209   29.7027   51.4073 H   0  0  0  0  0  0  0  0  0  0  0  0
   38.9380   30.4790   49.3318 H   0  0  0  0  0  0  0  0  0  0  0  0
   34.1290   29.8782   49.8351 H   0  0  0  0  0  0  0  0  0  0  0  0
   35.9398   30.1576   45.9339 H   0  0  0  0  0  0  0  0  0  0  0  0
   36.5545   30.9086   43.4159 C   0  0  0  0  0  0  0  0  0  0  0  0
   35.9107   29.6727   43.3531 C   0  0  0  0  0  0  0  0  0  0  0  0
   35.8939   28.9769   44.1735 H   0  0  0  0  0  0  0  0  0  0  0  0
   35.2413   29.2560   42.2129 C   0  0  0  0  0  0  0  0  0  0  0  0
   35.2077   30.0808   41.1085 C   0  0  0  0  0  0  0  0  0  0  0  0
   34.6774   29.7519   40.2035 H   0  0  0  0  0  0  0  0  0  0  0  0
   35.8500   31.3146   41.1697 C   0  0  0  0  0  0  0  0  0  0  0  0
   35.8344   31.9822   40.3040 H   0  0  0  0  0  0  0  0  0  0  0  0
   36.5065   31.7135   42.3002 C   0  0  0  0  0  0  0  0  0  0  0  0
   34.7425   28.2820   42.1849 H   0  0  0  0  0  0  0  0  0  0  0  0
   37.0080   32.6788   42.3456 H   0  0  0  0  0  0  0  0  0  0  0  0
  1  6  2  0
  2  1  1  0
  3  4  1  0
  3  2  2  0
  4  5  2  0
  5  6  1  0
  7  3  1  0
  8  7  1  0
  9  8  2  0
 10  9  1  0
 10 12  1  0
 11 10  2  0
 12 13  1  0
 13  7  1  0
 13 14  2  0
 15 12  1  0
 15 18  1  0
 16 15  1  0
 17 15  1  0
  1 19  1  0
  2 20  1  0
  5 21  1  0
  8 22  1  0
 23 24  2  0
 24 25  1  0
 24 26  1  0
 26 27  2  0
 27 28  1  0
 27 29  1  0
 29 30  1  0
 29 31  2  0
 31 23  1  0
 26 32  1  0
 31 33  1  0
  9 23  1  0
M  ISO  7  19  14  20  14  21  14  22  14  25  16  28  16  30  16
M  END
>  <DihAtoms>  (1) 
7,8,22,23

>  <DihDeg>  (1) 
134.99687170151086

$$$$
