
 OpenBabel03272507553D

 23 24  0  0  0  0  0  0  0  0999 V2000
   34.9180   29.1580   50.0530 C   0  0  0  0  0  0  0  0  0  0  0  0
   36.1290   29.8320   49.7320 C   0  0  0  0  0  0  0  0  0  0  0  0
   36.2490   30.4370   48.4900 C   0  0  0  0  0  0  0  0  0  0  0  0
   35.1730   30.3470   47.6360 N   0  0  0  0  0  0  0  0  0  0  0  0
   34.0370   29.7070   47.9590 C   0  0  0  0  0  0  0  0  0  0  0  0
   33.9080   29.1220   49.1460 N   0  0  0  0  0  0  0  0  0  0  0  0
   33.0620   29.7480   46.9420 N   0  0  0  0  0  0  0  0  0  0  0  0
   34.8360   28.6880   51.0270 H   0  0  0  0  0  0  0  0  0  0  0  0
   32.6360   28.8110   46.6850 H   0  0  0  0  0  0  0  0  0  0  0  0
   32.6930   30.5610   46.4010 H   0  0  0  0  0  0  0  0  0  0  0  0
   37.3850   31.2010   48.0250 C   0  0  0  0  0  0  0  0  0  0  0  0
   37.9950   32.3850   48.3390 C   0  0  0  0  0  0  0  0  0  0  0  0
   37.5530   32.8690   49.1880 H   0  0  0  0  0  0  0  0  0  0  0  0
   39.0760   32.8890   47.6630 C   0  0  0  0  0  3  0  0  0  0  0  0
   39.6410   32.2250   46.5970 C   0  0  0  0  0  0  0  0  0  0  0  0
   40.4820   32.7560   46.1780 H   0  0  0  0  0  0  0  0  0  0  0  0
   39.0660   31.0250   46.2370 C   0  0  0  0  0  0  0  0  0  0  0  0
   39.5450   30.5460   45.3980 H   0  0  0  0  0  0  0  0  0  0  0  0
   37.9780   30.5410   46.9330 C   0  0  0  0  0  3  0  0  0  0  0  0
   37.2090   29.8810   50.7520 C   0  0  0  0  0  0  0  0  0  0  0  0
   38.4340   29.5840   50.2210 F   0  0  0  0  0  0  0  0  0  0  0  0
   37.2350   31.1550   51.2830 F   0  0  0  0  0  0  0  0  0  0  0  0
   36.9800   29.0020   51.8000 F   0  0  0  0  0  0  0  0  0  0  0  0
  1  8  1  0  0  0  0
  2  1  1  0  0  0  0
  2 20  1  0  0  0  0
  3  2  2  0  0  0  0
  4  5  2  0  0  0  0
  4  3  1  0  0  0  0
  5  6  1  0  0  0  0
  6  1  2  0  0  0  0
  7  5  1  0  0  0  0
  9  7  1  0  0  0  0
 10  7  1  0  0  0  0
 11 12  1  0  0  0  0
 11  3  1  0  0  0  0
 12 13  1  0  0  0  0
 14 12  2  0  0  0  0
 15 14  1  0  0  0  0
 16 15  1  0  0  0  0
 17 15  2  0  0  0  0
 17 19  1  0  0  0  0
 18 17  1  0  0  0  0
 19 11  2  0  0  0  0
 20 22  1  0  0  0  0
 20 23  1  0  0  0  0
 21 20  1  0  0  0  0
M  END
>  <minimizedAffinity>
-5.95334339

>  <minimizedRMSD>
1.37112963

$$$$
