
     RDKit          3D

 25 26  0  0  0  0  0  0  0  0999 V2000
   35.6446   28.9957   50.1751 C   0  0  0  0  0  0  0  0  0  0  0  0
   36.3071   30.1385   49.6446 C   0  0  0  0  0  0  0  0  0  0  0  0
   36.0507   30.5113   48.3345 C   0  0  0  0  0  0  0  0  0  0  0  0
   35.1599   29.7432   47.6205 N   0  0  0  0  0  0  0  0  0  0  0  0
   34.5440   28.6684   48.1396 C   0  0  0  0  0  0  0  0  0  0  0  0
   34.7803   28.2981   49.3952 N   0  0  0  0  0  0  0  0  0  0  0  0
   33.6637   28.0349   47.2377 N   0  0  0  0  0  0  0  0  0  0  0  0
   37.2278   30.9006   50.5267 C   0  0  0  0  0  0  0  0  0  0  0  0
   38.5319   30.7946   50.1259 F   0  0  0  0  0  0  0  0  0  0  0  0
   36.8450   32.2266   50.4968 F   0  0  0  0  0  0  0  0  0  0  0  0
   37.1580   30.4811   51.8473 F   0  0  0  0  0  0  0  0  0  0  0  0
   35.8544   28.7138   51.2014 H   0  0  0  0  0  0  0  0  0  0  0  0
   33.7903   26.9868   47.1432 H   0  0  0  0  0  0  0  0  0  0  0  0
   32.9047   28.4425   46.6479 H   0  0  0  0  0  0  0  0  0  0  0  0
   36.5972   31.6675   47.6589 C   0  0  0  0  0  0  0  0  0  0  0  0
   37.1821   32.8526   48.0126 C   0  0  0  0  0  0  0  0  0  0  0  0
   37.3249   32.9480   49.0724 H   0  0  0  0  0  0  0  0  0  0  0  0
   37.5751   33.8091   47.1119 C   0  0  0  0  0  0  0  0  0  0  0  0
   37.4071   33.6420   45.7553 C   0  0  0  0  0  0  0  0  0  0  0  0
   37.7686   34.4856   45.1874 H   0  0  0  0  0  0  0  0  0  0  0  0
   36.8233   32.4646   45.3427 C   0  0  0  0  0  0  0  0  0  0  0  0
   36.7151   32.3831   44.2723 H   0  0  0  0  0  0  0  0  0  0  0  0
   36.4362   31.5186   46.2690 C   0  0  0  0  0  0  0  0  0  0  0  0
   38.0184   34.6830   47.5687 H   0  0  0  0  0  0  0  0  0  0  0  0
   35.9974   30.6614   45.7549 H   0  0  0  0  0  0  0  0  0  0  0  0
  2  1  2  0
  2  8  1  0
  3  2  1  0
  4  5  1  0
  4  3  2  0
  5  6  2  0
  6  1  1  0
  7  5  1  0
  8 11  1  0
  9  8  1  0
 10  8  1  0
  1 12  1  0
  7 13  1  0
  7 14  1  0
 15 16  2  0
 16 17  1  0
 16 18  1  0
 18 19  2  0
 19 20  1  0
 19 21  1  0
 21 22  1  0
 21 23  2  0
 23 15  1  0
 18 24  1  0
 23 25  1  0
  3 15  1  0
M  ISO  4  12  14  17  16  20  16  22  16
M  END
>  <DihAtoms>  (1) 
1,2,14,15

>  <DihDeg>  (1) 
55.98415369841971

$$$$
