
 OpenBabel03272508153D

 28 30  0  0  0  0  0  0  0  0999 V2000
   38.0030   22.9720   33.6280 Cl  0  0  0  0  0  0  0  0  0  0  0  0
   36.9890   23.9600   32.6110 C   0  0  0  0  0  0  0  0  0  0  0  0
   36.1860   23.2440   31.7620 C   0  0  0  0  0  0  0  0  0  0  0  0
   35.3320   23.9500   30.9000 C   0  0  0  0  0  0  0  0  0  0  0  0
   35.2880   25.3090   30.8930 C   0  0  0  0  0  0  0  0  0  0  0  0
   36.1030   26.0130   31.7550 C   0  0  0  0  0  0  0  0  0  0  0  0
   36.0740   27.7570   31.7730 Cl  0  0  0  0  0  0  0  0  0  0  0  0
   36.9330   25.3420   32.5920 C   0  0  0  0  0  0  0  0  0  0  0  0
   34.6620   23.4760   30.1960 H   0  0  0  0  0  0  0  0  0  0  0  0
   34.6290   25.8820   30.2300 H   0  0  0  0  0  0  0  0  0  0  0  0
   35.0220   21.1260   32.2690 C   0  0  0  0  0  0  0  0  0  0  0  0
   36.0690   21.7890   31.6000 C   0  0  0  0  0  0  0  0  0  0  0  0
   36.9460   21.0180   30.8120 C   0  0  0  0  0  0  0  0  0  0  0  0
   36.7350   19.6800   30.7390 N   0  0  0  0  0  0  0  0  0  0  0  0
   35.7090   19.0790   31.4030 C   0  0  0  0  0  0  0  0  0  0  0  0
   34.8600   19.8040   32.1630 N   0  0  0  0  0  0  0  0  0  0  0  0
   34.3270   21.6520   32.8790 H   0  0  0  0  0  0  0  0  0  0  0  0
   37.7200   21.5590   30.3250 H   0  0  0  0  0  0  0  0  0  0  0  0
   35.7470   18.0200   31.1930 H   0  0  0  0  0  0  0  0  0  0  0  0
   37.8320   25.9970   33.5380 C   0  0  0  0  0  0  0  0  0  0  0  0
   39.1420   26.3510   33.2350 C   0  0  0  0  0  0  0  0  0  0  0  0
   39.4970   26.1220   32.2400 H   0  0  0  0  0  0  0  0  0  0  0  0
   39.8810   26.9650   34.2250 C   0  0  0  0  0  3  0  0  0  0  0  0
   39.3930   27.2390   35.4790 C   0  0  0  0  0  0  0  0  0  0  0  0
   39.9940   27.7200   36.2350 H   0  0  0  0  0  0  0  0  0  0  0  0
   38.0980   26.8950   35.7970 C   0  0  0  0  0  0  0  0  0  0  0  0
   37.6490   27.0780   36.7590 H   0  0  0  0  0  0  0  0  0  0  0  0
   37.3640   26.2860   34.8190 C   0  0  0  0  0  3  0  0  0  0  0  0
  2  1  1  0  0  0  0
  3  2  2  0  0  0  0
  4  3  1  0  0  0  0
  5  4  2  0  0  0  0
  5  6  1  0  0  0  0
  6  7  1  0  0  0  0
  6  8  2  0  0  0  0
  8  2  1  0  0  0  0
  8 20  1  0  0  0  0
  9  4  1  0  0  0  0
 10  5  1  0  0  0  0
 11 17  1  0  0  0  0
 12  3  1  0  0  0  0
 12 11  2  0  0  0  0
 13 12  1  0  0  0  0
 14 13  2  0  0  0  0
 14 15  1  0  0  0  0
 15 16  2  0  0  0  0
 16 11  1  0  0  0  0
 18 13  1  0  0  0  0
 19 15  1  0  0  0  0
 20 28  1  0  0  0  0
 21 20  2  0  0  0  0
 21 23  1  0  0  0  0
 22 21  1  0  0  0  0
 23 24  2  0  0  0  0
 24 26  1  0  0  0  0
 24 25  1  0  0  0  0
 26 27  1  0  0  0  0
 28 26  2  0  0  0  0
M  END
>  <minimizedAffinity>
-5.60249949

$$$$

 OpenBabel03272508153D

 28 30  0  0  0  0  0  0  0  0999 V2000
   36.4660   28.0420   34.8820 Cl  0  0  0  0  0  0  0  0  0  0  0  0
   36.1500   28.8980   33.3980 C   0  0  0  0  0  0  0  0  0  0  0  0
   36.6010   28.2530   32.2760 C   0  0  0  0  0  0  0  0  0  0  0  0
   36.3950   28.8640   31.0290 C   0  0  0  0  0  0  0  0  0  0  0  0
   35.7650   30.0640   30.9160 C   0  0  0  0  0  0  0  0  0  0  0  0
   35.3170   30.6980   32.0570 C   0  0  0  0  0  0  0  0  0  0  0  0
   34.5050   32.2380   31.9500 Cl  0  0  0  0  0  0  0  0  0  0  0  0
   35.5110   30.1180   33.2670 C   0  0  0  0  0  0  0  0  0  0  0  0
   36.7140   28.4340   30.0890 H   0  0  0  0  0  0  0  0  0  0  0  0
   35.5920   30.5590   29.9530 H   0  0  0  0  0  0  0  0  0  0  0  0
   36.5240   25.7970   32.0280 C   0  0  0  0  0  0  0  0  0  0  0  0
   37.3000   26.9660   32.1620 C   0  0  0  0  0  0  0  0  0  0  0  0
   38.7020   26.8340   32.1790 C   0  0  0  0  0  0  0  0  0  0  0  0
   39.2300   25.5900   32.0650 N   0  0  0  0  0  0  0  0  0  0  0  0
   38.4440   24.4860   31.9370 C   0  0  0  0  0  0  0  0  0  0  0  0
   37.0980   24.5950   31.9190 N   0  0  0  0  0  0  0  0  0  0  0  0
   35.4620   25.8310   32.0080 H   0  0  0  0  0  0  0  0  0  0  0  0
   39.2460   27.7400   32.2810 H   0  0  0  0  0  0  0  0  0  0  0  0
   39.0870   23.6210   31.8630 H   0  0  0  0  0  0  0  0  0  0  0  0
   35.0750   30.7100   34.5280 C   0  0  0  0  0  0  0  0  0  0  0  0
   35.8900   31.5030   35.3290 C   0  0  0  0  0  0  0  0  0  0  0  0
   36.8990   31.6800   34.9830 H   0  0  0  0  0  0  0  0  0  0  0  0
   35.3480   31.9990   36.4960 C   0  0  0  0  0  3  0  0  0  0  0  0
   34.0610   31.7510   36.9020 C   0  0  0  0  0  0  0  0  0  0  0  0
   33.6620   32.1520   37.8220 H   0  0  0  0  0  0  0  0  0  0  0  0
   33.2380   30.9690   36.1220 C   0  0  0  0  0  0  0  0  0  0  0  0
   32.2190   30.7320   36.3770 H   0  0  0  0  0  0  0  0  0  0  0  0
   33.7720   30.4750   34.9650 C   0  0  0  0  0  3  0  0  0  0  0  0
  2  1  1  0  0  0  0
  3  2  2  0  0  0  0
  4  3  1  0  0  0  0
  5  4  2  0  0  0  0
  5  6  1  0  0  0  0
  6  8  2  0  0  0  0
  7  6  1  0  0  0  0
  8  2  1  0  0  0  0
  8 20  1  0  0  0  0
  9  4  1  0  0  0  0
 10  5  1  0  0  0  0
 11 12  1  0  0  0  0
 12 13  2  0  0  0  0
 12  3  1  0  0  0  0
 13 18  1  0  0  0  0
 14 13  1  0  0  0  0
 15 14  2  0  0  0  0
 16 15  1  0  0  0  0
 16 11  2  0  0  0  0
 17 11  1  0  0  0  0
 19 15  1  0  0  0  0
 20 28  2  0  0  0  0
 20 21  1  0  0  0  0
 21 23  2  0  0  0  0
 22 21  1  0  0  0  0
 23 24  1  0  0  0  0
 24 25  1  0  0  0  0
 26 27  1  0  0  0  0
 26 24  2  0  0  0  0
 28 26  1  0  0  0  0
M  END
>  <minimizedAffinity>
-5.13770485

$$$$

 OpenBabel03272508153D

 28 30  0  0  0  0  0  0  0  0999 V2000
   36.2660   28.1920   34.5010 Cl  0  0  0  0  0  0  0  0  0  0  0  0
   36.0440   29.2400   33.1260 C   0  0  0  0  0  0  0  0  0  0  0  0
   36.5460   28.7350   31.9550 C   0  0  0  0  0  0  0  0  0  0  0  0
   36.4160   29.5060   30.7880 C   0  0  0  0  0  0  0  0  0  0  0  0
   35.8120   30.7240   30.8000 C   0  0  0  0  0  0  0  0  0  0  0  0
   35.3120   31.2150   31.9890 C   0  0  0  0  0  0  0  0  0  0  0  0
   34.5310   32.7740   32.0410 Cl  0  0  0  0  0  0  0  0  0  0  0  0
   35.4320   30.4800   33.1220 C   0  0  0  0  0  0  0  0  0  0  0  0
   36.7790   29.1950   29.8180 H   0  0  0  0  0  0  0  0  0  0  0  0
   35.6990   31.3430   29.9020 H   0  0  0  0  0  0  0  0  0  0  0  0
   38.6310   27.4170   31.8510 C   0  0  0  0  0  0  0  0  0  0  0  0
   37.2300   27.4590   31.7110 C   0  0  0  0  0  0  0  0  0  0  0  0
   36.5640   26.2740   31.3430 C   0  0  0  0  0  0  0  0  0  0  0  0
   37.3070   25.1560   31.1450 N   0  0  0  0  0  0  0  0  0  0  0  0
   38.6610   25.1590   31.2920 C   0  0  0  0  0  0  0  0  0  0  0  0
   39.3140   26.2870   31.6430 N   0  0  0  0  0  0  0  0  0  0  0  0
   39.1910   28.2780   32.1260 H   0  0  0  0  0  0  0  0  0  0  0  0
   35.5090   26.3510   31.2500 H   0  0  0  0  0  0  0  0  0  0  0  0
   39.0240   24.1630   31.0830 H   0  0  0  0  0  0  0  0  0  0  0  0
   34.9370   30.9140   34.4250 C   0  0  0  0  0  0  0  0  0  0  0  0
   33.6620   30.6220   34.8990 C   0  0  0  0  0  0  0  0  0  0  0  0
   33.0170   30.0410   34.2550 H   0  0  0  0  0  0  0  0  0  0  0  0
   33.3240   31.0960   36.1500 C   0  0  0  0  0  3  0  0  0  0  0  0
   34.1730   31.8320   36.9390 C   0  0  0  0  0  0  0  0  0  0  0  0
   33.8820   32.1910   37.9150 H   0  0  0  0  0  0  0  0  0  0  0  0
   35.4380   32.1310   36.4860 C   0  0  0  0  0  0  0  0  0  0  0  0
   36.1570   32.7040   37.0490 H   0  0  0  0  0  0  0  0  0  0  0  0
   35.7760   31.6640   35.2470 C   0  0  0  0  0  3  0  0  0  0  0  0
  2  1  1  0  0  0  0
  3  2  2  0  0  0  0
  4  5  2  0  0  0  0
  4  3  1  0  0  0  0
  5  6  1  0  0  0  0
  6  7  1  0  0  0  0
  6  8  2  0  0  0  0
  8  2  1  0  0  0  0
  8 20  1  0  0  0  0
  9  4  1  0  0  0  0
 10  5  1  0  0  0  0
 11 17  1  0  0  0  0
 12 11  1  0  0  0  0
 12  3  1  0  0  0  0
 13 12  2  0  0  0  0
 14 15  2  0  0  0  0
 14 13  1  0  0  0  0
 15 16  1  0  0  0  0
 16 11  2  0  0  0  0
 18 13  1  0  0  0  0
 19 15  1  0  0  0  0
 20 21  2  0  0  0  0
 20 28  1  0  0  0  0
 21 23  1  0  0  0  0
 22 21  1  0  0  0  0
 23 24  2  0  0  0  0
 24 25  1  0  0  0  0
 26 24  1  0  0  0  0
 26 27  1  0  0  0  0
 28 26  2  0  0  0  0
M  END
>  <minimizedAffinity>
-5.04036903

$$$$

 OpenBabel03272508153D

 28 30  0  0  0  0  0  0  0  0999 V2000
   36.5240   27.9460   34.7540 Cl  0  0  0  0  0  0  0  0  0  0  0  0
   36.3120   28.8460   33.2770 C   0  0  0  0  0  0  0  0  0  0  0  0
   35.6430   30.0310   33.4390 C   0  0  0  0  0  0  0  0  0  0  0  0
   35.4210   30.8300   32.3060 C   0  0  0  0  0  0  0  0  0  0  0  0
   35.8510   30.4550   31.0720 C   0  0  0  0  0  0  0  0  0  0  0  0
   36.5240   29.2590   30.9290 C   0  0  0  0  0  0  0  0  0  0  0  0
   37.0900   28.7460   29.3610 Cl  0  0  0  0  0  0  0  0  0  0  0  0
   36.7440   28.4790   32.0160 C   0  0  0  0  0  0  0  0  0  0  0  0
   34.9040   31.7800   32.3310 H   0  0  0  0  0  0  0  0  0  0  0  0
   35.6900   31.0630   30.1730 H   0  0  0  0  0  0  0  0  0  0  0  0
   33.7300   30.4210   34.9510 C   0  0  0  0  0  0  0  0  0  0  0  0
   35.0940   30.6290   34.6630 C   0  0  0  0  0  0  0  0  0  0  0  0
   35.8530   31.3990   35.5650 C   0  0  0  0  0  0  0  0  0  0  0  0
   35.2320   31.8980   36.6630 N   0  0  0  0  0  0  0  0  0  0  0  0
   33.9100   31.6730   36.9040 C   0  0  0  0  0  0  0  0  0  0  0  0
   33.1690   30.9380   36.0490 N   0  0  0  0  0  0  0  0  0  0  0  0
   33.1040   29.8490   34.3100 H   0  0  0  0  0  0  0  0  0  0  0  0
   36.8750   31.5290   35.3090 H   0  0  0  0  0  0  0  0  0  0  0  0
   33.6480   32.1670   37.8280 H   0  0  0  0  0  0  0  0  0  0  0  0
   37.4440   27.1990   31.9650 C   0  0  0  0  0  0  0  0  0  0  0  0
   38.8210   27.0690   32.1110 C   0  0  0  0  0  0  0  0  0  0  0  0
   39.3870   27.9760   32.2700 H   0  0  0  0  0  0  0  0  0  0  0  0
   39.3520   25.7980   32.0420 C   0  0  0  0  0  3  0  0  0  0  0  0
   38.5980   24.6690   31.8380 C   0  0  0  0  0  0  0  0  0  0  0  0
   39.0390   23.6850   31.7870 H   0  0  0  0  0  0  0  0  0  0  0  0
   37.2330   24.7780   31.6910 C   0  0  0  0  0  0  0  0  0  0  0  0
   36.5790   23.9370   31.5290 H   0  0  0  0  0  0  0  0  0  0  0  0
   36.7030   26.0360   31.7590 C   0  0  0  0  0  3  0  0  0  0  0  0
  2  3  1  0  0  0  0
  2  1  1  0  0  0  0
  3 12  1  0  0  0  0
  4  9  1  0  0  0  0
  4  3  2  0  0  0  0
  5  4  1  0  0  0  0
  6  5  2  0  0  0  0
  6  8  1  0  0  0  0
  7  6  1  0  0  0  0
  8  2  2  0  0  0  0
 10  5  1  0  0  0  0
 11 16  1  0  0  0  0
 12 11  2  0  0  0  0
 12 13  1  0  0  0  0
 13 14  2  0  0  0  0
 14 15  1  0  0  0  0
 15 19  1  0  0  0  0
 16 15  2  0  0  0  0
 17 11  1  0  0  0  0
 18 13  1  0  0  0  0
 20  8  1  0  0  0  0
 20 21  1  0  0  0  0
 21 22  1  0  0  0  0
 23 21  2  0  0  0  0
 24 23  1  0  0  0  0
 25 24  1  0  0  0  0
 26 28  1  0  0  0  0
 26 24  2  0  0  0  0
 27 26  1  0  0  0  0
 28 20  2  0  0  0  0
M  END
>  <minimizedAffinity>
-4.99087381

$$$$

 OpenBabel03272508153D

 28 30  0  0  0  0  0  0  0  0999 V2000
   36.3990   27.9330   34.5570 Cl  0  0  0  0  0  0  0  0  0  0  0  0
   36.2600   28.9150   33.1230 C   0  0  0  0  0  0  0  0  0  0  0  0
   35.6090   30.1030   33.3250 C   0  0  0  0  0  0  0  0  0  0  0  0
   35.4450   30.9660   32.2280 C   0  0  0  0  0  0  0  0  0  0  0  0
   35.9140   30.6480   30.9920 C   0  0  0  0  0  0  0  0  0  0  0  0
   36.5680   29.4470   30.8100 C   0  0  0  0  0  0  0  0  0  0  0  0
   37.1830   29.0060   29.2380 Cl  0  0  0  0  0  0  0  0  0  0  0  0
   36.7320   28.6050   31.8600 C   0  0  0  0  0  0  0  0  0  0  0  0
   34.9460   31.9240   32.2860 H   0  0  0  0  0  0  0  0  0  0  0  0
   35.7990   31.3060   30.1230 H   0  0  0  0  0  0  0  0  0  0  0  0
   35.8500   31.4190   35.4000 C   0  0  0  0  0  0  0  0  0  0  0  0
   35.0260   30.6470   34.5580 C   0  0  0  0  0  0  0  0  0  0  0  0
   33.6880   30.4400   34.9460 C   0  0  0  0  0  0  0  0  0  0  0  0
   33.2650   30.9950   36.1100 N   0  0  0  0  0  0  0  0  0  0  0  0
   34.0960   31.7350   36.8950 C   0  0  0  0  0  0  0  0  0  0  0  0
   35.3810   31.9420   36.5370 N   0  0  0  0  0  0  0  0  0  0  0  0
   36.8690   31.6110   35.1620 H   0  0  0  0  0  0  0  0  0  0  0  0
   33.1040   29.8530   34.2820 H   0  0  0  0  0  0  0  0  0  0  0  0
   33.5370   32.0660   37.7580 H   0  0  0  0  0  0  0  0  0  0  0  0
   37.4080   27.3150   31.7670 C   0  0  0  0  0  0  0  0  0  0  0  0
   38.7700   27.1430   31.9900 C   0  0  0  0  0  0  0  0  0  0  0  0
   39.3430   28.0230   32.2470 H   0  0  0  0  0  0  0  0  0  0  0  0
   39.2800   25.8660   31.8680 C   0  0  0  0  0  3  0  0  0  0  0  0
   38.5180   24.7730   31.5390 C   0  0  0  0  0  0  0  0  0  0  0  0
   38.9420   23.7840   31.4500 H   0  0  0  0  0  0  0  0  0  0  0  0
   37.1680   24.9240   31.3140 C   0  0  0  0  0  0  0  0  0  0  0  0
   36.5090   24.1120   31.0530 H   0  0  0  0  0  0  0  0  0  0  0  0
   36.6600   26.1870   31.4340 C   0  0  0  0  0  3  0  0  0  0  0  0
  2  3  1  0  0  0  0
  2  1  1  0  0  0  0
  3 12  1  0  0  0  0
  4  9  1  0  0  0  0
  4  3  2  0  0  0  0
  5  4  1  0  0  0  0
  6  5  2  0  0  0  0
  6  8  1  0  0  0  0
  7  6  1  0  0  0  0
  8  2  2  0  0  0  0
 10  5  1  0  0  0  0
 11 16  1  0  0  0  0
 12 13  1  0  0  0  0
 12 11  2  0  0  0  0
 13 14  2  0  0  0  0
 14 15  1  0  0  0  0
 15 19  1  0  0  0  0
 16 15  2  0  0  0  0
 17 11  1  0  0  0  0
 18 13  1  0  0  0  0
 20  8  1  0  0  0  0
 20 21  1  0  0  0  0
 21 22  1  0  0  0  0
 23 21  2  0  0  0  0
 24 23  1  0  0  0  0
 25 24  1  0  0  0  0
 26 28  1  0  0  0  0
 26 24  2  0  0  0  0
 27 26  1  0  0  0  0
 28 20  2  0  0  0  0
M  END
>  <minimizedAffinity>
-4.95280027

$$$$

 OpenBabel03272508153D

 28 30  0  0  0  0  0  0  0  0999 V2000
   36.5170   27.9600   34.6480 Cl  0  0  0  0  0  0  0  0  0  0  0  0
   36.3200   28.8970   33.1920 C   0  0  0  0  0  0  0  0  0  0  0  0
   35.6520   30.0790   33.3770 C   0  0  0  0  0  0  0  0  0  0  0  0
   35.4420   30.9070   32.2620 C   0  0  0  0  0  0  0  0  0  0  0  0
   35.8840   30.5620   31.0230 C   0  0  0  0  0  0  0  0  0  0  0  0
   36.5560   29.3690   30.8570 C   0  0  0  0  0  0  0  0  0  0  0  0
   37.1360   28.8940   29.2820 Cl  0  0  0  0  0  0  0  0  0  0  0  0
   36.7630   28.5610   31.9260 C   0  0  0  0  0  0  0  0  0  0  0  0
   34.9260   31.8560   32.3070 H   0  0  0  0  0  0  0  0  0  0  0  0
   35.7320   31.1920   30.1390 H   0  0  0  0  0  0  0  0  0  0  0  0
   33.7200   30.4520   34.8700 C   0  0  0  0  0  0  0  0  0  0  0  0
   35.0910   30.6470   34.6100 C   0  0  0  0  0  0  0  0  0  0  0  0
   35.8470   31.3750   35.5480 C   0  0  0  0  0  0  0  0  0  0  0  0
   35.2160   31.8500   36.6510 N   0  0  0  0  0  0  0  0  0  0  0  0
   33.8870   31.6380   36.8640 C   0  0  0  0  0  0  0  0  0  0  0  0
   33.1490   30.9420   35.9740 N   0  0  0  0  0  0  0  0  0  0  0  0
   33.0960   29.9100   34.2010 H   0  0  0  0  0  0  0  0  0  0  0  0
   36.8750   31.4970   35.3120 H   0  0  0  0  0  0  0  0  0  0  0  0
   33.6180   32.1070   37.7990 H   0  0  0  0  0  0  0  0  0  0  0  0
   37.4620   27.2810   31.8500 C   0  0  0  0  0  0  0  0  0  0  0  0
   36.8260   26.0720   31.5880 C   0  0  0  0  0  0  0  0  0  0  0  0
   35.7560   26.1010   31.4340 H   0  0  0  0  0  0  0  0  0  0  0  0
   37.6090   24.9370   31.5440 C   0  0  0  0  0  3  0  0  0  0  0  0
   38.9670   24.9420   31.7450 C   0  0  0  0  0  0  0  0  0  0  0  0
   39.5560   24.0380   31.7060 H   0  0  0  0  0  0  0  0  0  0  0  0
   39.6130   26.1290   32.0060 C   0  0  0  0  0  0  0  0  0  0  0  0
   40.6750   26.2090   32.1740 H   0  0  0  0  0  0  0  0  0  0  0  0
   38.8410   27.2560   32.0500 C   0  0  0  0  0  3  0  0  0  0  0  0
  2  3  1  0  0  0  0
  2  1  1  0  0  0  0
  3 12  1  0  0  0  0
  4  9  1  0  0  0  0
  4  3  2  0  0  0  0
  5  4  1  0  0  0  0
  6  5  2  0  0  0  0
  6  8  1  0  0  0  0
  7  6  1  0  0  0  0
  8  2  2  0  0  0  0
 10  5  1  0  0  0  0
 11 16  1  0  0  0  0
 12 11  2  0  0  0  0
 12 13  1  0  0  0  0
 13 14  2  0  0  0  0
 14 15  1  0  0  0  0
 15 19  1  0  0  0  0
 16 15  2  0  0  0  0
 17 11  1  0  0  0  0
 18 13  1  0  0  0  0
 20  8  1  0  0  0  0
 20 28  1  0  0  0  0
 21 20  2  0  0  0  0
 22 21  1  0  0  0  0
 23 21  1  0  0  0  0
 23 24  2  0  0  0  0
 24 26  1  0  0  0  0
 25 24  1  0  0  0  0
 26 28  2  0  0  0  0
 26 27  1  0  0  0  0
M  END
>  <minimizedAffinity>
-4.93437338

$$$$

 OpenBabel03272508153D

 28 30  0  0  0  0  0  0  0  0999 V2000
   38.4920   26.6090   34.8340 Cl  0  0  0  0  0  0  0  0  0  0  0  0
   37.8940   25.3230   33.8200 C   0  0  0  0  0  0  0  0  0  0  0  0
   37.2980   25.7580   32.6650 C   0  0  0  0  0  0  0  0  0  0  0  0
   36.7830   24.7960   31.7800 C   0  0  0  0  0  0  0  0  0  0  0  0
   36.8640   23.4650   32.0450 C   0  0  0  0  0  0  0  0  0  0  0  0
   37.4690   23.0470   33.2130 C   0  0  0  0  0  0  0  0  0  0  0  0
   37.5910   21.3480   33.5850 Cl  0  0  0  0  0  0  0  0  0  0  0  0
   37.9690   23.9660   34.0750 C   0  0  0  0  0  0  0  0  0  0  0  0
   36.2960   25.0390   30.8460 H   0  0  0  0  0  0  0  0  0  0  0  0
   36.4700   22.6970   31.3690 H   0  0  0  0  0  0  0  0  0  0  0  0
   37.9170   27.5880   31.1270 C   0  0  0  0  0  0  0  0  0  0  0  0
   37.1000   27.1290   32.1800 C   0  0  0  0  0  0  0  0  0  0  0  0
   36.1400   28.0140   32.7080 C   0  0  0  0  0  0  0  0  0  0  0  0
   36.0520   29.2580   32.1740 N   0  0  0  0  0  0  0  0  0  0  0  0
   36.8620   29.6610   31.1560 C   0  0  0  0  0  0  0  0  0  0  0  0
   37.7880   28.8250   30.6390 N   0  0  0  0  0  0  0  0  0  0  0  0
   38.6600   26.9680   30.6860 H   0  0  0  0  0  0  0  0  0  0  0  0
   35.5470   27.6270   33.4980 H   0  0  0  0  0  0  0  0  0  0  0  0
   36.6060   30.6800   30.9060 H   0  0  0  0  0  0  0  0  0  0  0  0
   38.6250   23.6230   35.3340 C   0  0  0  0  0  0  0  0  0  0  0  0
   39.9740   23.3000   35.4350 C   0  0  0  0  0  0  0  0  0  0  0  0
   40.5530   23.3100   34.5220 H   0  0  0  0  0  0  0  0  0  0  0  0
   40.4640   22.9960   36.6880 C   0  0  0  0  0  3  0  0  0  0  0  0
   39.6950   22.9940   37.8250 C   0  0  0  0  0  0  0  0  0  0  0  0
   40.1040   22.7510   38.7940 H   0  0  0  0  0  0  0  0  0  0  0  0
   38.3570   23.3110   37.7440 C   0  0  0  0  0  0  0  0  0  0  0  0
   37.6940   23.3300   38.5930 H   0  0  0  0  0  0  0  0  0  0  0  0
   37.8690   23.6130   36.5040 C   0  0  0  0  0  3  0  0  0  0  0  0
  2  8  1  0  0  0  0
  2  1  1  0  0  0  0
  3  2  2  0  0  0  0
  4  5  2  0  0  0  0
  4  3  1  0  0  0  0
  5  6  1  0  0  0  0
  6  7  1  0  0  0  0
  6  8  2  0  0  0  0
  8 20  1  0  0  0  0
  9  4  1  0  0  0  0
 10  5  1  0  0  0  0
 11 12  1  0  0  0  0
 12  3  1  0  0  0  0
 12 13  2  0  0  0  0
 13 18  1  0  0  0  0
 14 13  1  0  0  0  0
 15 14  2  0  0  0  0
 16 11  2  0  0  0  0
 16 15  1  0  0  0  0
 17 11  1  0  0  0  0
 19 15  1  0  0  0  0
 20 21  2  0  0  0  0
 20 28  1  0  0  0  0
 21 23  1  0  0  0  0
 22 21  1  0  0  0  0
 23 24  2  0  0  0  0
 24 25  1  0  0  0  0
 26 24  1  0  0  0  0
 26 27  1  0  0  0  0
 28 26  2  0  0  0  0
M  END
>  <minimizedAffinity>
-4.91606188

$$$$

 OpenBabel03272508153D

 28 30  0  0  0  0  0  0  0  0999 V2000
   35.7650   24.9320   30.8830 Cl  0  0  0  0  0  0  0  0  0  0  0  0
   36.9230   24.8390   32.1820 C   0  0  0  0  0  0  0  0  0  0  0  0
   37.2140   23.5590   32.5770 C   0  0  0  0  0  0  0  0  0  0  0  0
   38.1370   23.3780   33.6200 C   0  0  0  0  0  0  0  0  0  0  0  0
   38.7380   24.4330   34.2330 C   0  0  0  0  0  0  0  0  0  0  0  0
   38.4340   25.7140   33.8200 C   0  0  0  0  0  0  0  0  0  0  0  0
   39.1850   27.0900   34.5840 Cl  0  0  0  0  0  0  0  0  0  0  0  0
   37.5430   25.9010   32.8150 C   0  0  0  0  0  0  0  0  0  0  0  0
   38.4300   22.4100   34.0020 H   0  0  0  0  0  0  0  0  0  0  0  0
   39.4620   24.3160   35.0480 H   0  0  0  0  0  0  0  0  0  0  0  0
   37.4370   21.6080   31.0810 C   0  0  0  0  0  0  0  0  0  0  0  0
   36.6900   22.2870   32.0650 C   0  0  0  0  0  0  0  0  0  0  0  0
   35.4840   21.7060   32.5010 C   0  0  0  0  0  0  0  0  0  0  0  0
   35.1050   20.5240   31.9510 N   0  0  0  0  0  0  0  0  0  0  0  0
   35.8570   19.9010   31.0020 C   0  0  0  0  0  0  0  0  0  0  0  0
   37.0160   20.4460   30.5730 N   0  0  0  0  0  0  0  0  0  0  0  0
   38.3560   21.9950   30.7110 H   0  0  0  0  0  0  0  0  0  0  0  0
   34.9550   22.2510   33.2430 H   0  0  0  0  0  0  0  0  0  0  0  0
   35.3550   18.9870   30.7220 H   0  0  0  0  0  0  0  0  0  0  0  0
   37.1570   27.2150   32.3100 C   0  0  0  0  0  0  0  0  0  0  0  0
   36.1440   27.9870   32.8690 C   0  0  0  0  0  0  0  0  0  0  0  0
   35.6260   27.5760   33.7240 H   0  0  0  0  0  0  0  0  0  0  0  0
   35.8830   29.2120   32.2910 C   0  0  0  0  0  3  0  0  0  0  0  0
   36.5640   29.6990   31.2030 C   0  0  0  0  0  0  0  0  0  0  0  0
   36.3390   30.6620   30.7690 H   0  0  0  0  0  0  0  0  0  0  0  0
   37.5700   28.9490   30.6360 C   0  0  0  0  0  0  0  0  0  0  0  0
   38.1460   29.2670   29.7820 H   0  0  0  0  0  0  0  0  0  0  0  0
   37.8310   27.7350   31.2060 C   0  0  0  0  0  3  0  0  0  0  0  0
  1  2  1  0  0  0  0
  2  3  2  0  0  0  0
  2  8  1  0  0  0  0
  3  4  1  0  0  0  0
  4  9  1  0  0  0  0
  4  5  2  0  0  0  0
  5 10  1  0  0  0  0
  6  5  1  0  0  0  0
  6  7  1  0  0  0  0
  8  6  2  0  0  0  0
 11 12  1  0  0  0  0
 12 13  2  0  0  0  0
 12  3  1  0  0  0  0
 13 18  1  0  0  0  0
 14 13  1  0  0  0  0
 15 14  2  0  0  0  0
 16 15  1  0  0  0  0
 16 11  2  0  0  0  0
 17 11  1  0  0  0  0
 19 15  1  0  0  0  0
 20  8  1  0  0  0  0
 20 21  1  0  0  0  0
 21 22  1  0  0  0  0
 23 21  2  0  0  0  0
 24 23  1  0  0  0  0
 25 24  1  0  0  0  0
 26 24  2  0  0  0  0
 26 28  1  0  0  0  0
 27 26  1  0  0  0  0
 28 20  2  0  0  0  0
M  END
>  <minimizedAffinity>
-4.9066081

$$$$

 OpenBabel03272508153D

 28 30  0  0  0  0  0  0  0  0999 V2000
   36.7370   27.8690   34.7330 Cl  0  0  0  0  0  0  0  0  0  0  0  0
   36.4860   28.6900   33.2170 C   0  0  0  0  0  0  0  0  0  0  0  0
   37.0980   28.0870   32.1500 C   0  0  0  0  0  0  0  0  0  0  0  0
   36.9560   28.6740   30.8820 C   0  0  0  0  0  0  0  0  0  0  0  0
   36.2330   29.8110   30.6980 C   0  0  0  0  0  0  0  0  0  0  0  0
   35.6230   30.4030   31.7850 C   0  0  0  0  0  0  0  0  0  0  0  0
   34.6870   31.8620   31.5860 Cl  0  0  0  0  0  0  0  0  0  0  0  0
   35.7530   29.8460   33.0140 C   0  0  0  0  0  0  0  0  0  0  0  0
   37.4000   28.2740   29.9810 H   0  0  0  0  0  0  0  0  0  0  0  0
   36.1070   30.2870   29.7180 H   0  0  0  0  0  0  0  0  0  0  0  0
   37.2730   25.6370   31.8950 C   0  0  0  0  0  0  0  0  0  0  0  0
   37.9190   26.8700   32.1150 C   0  0  0  0  0  0  0  0  0  0  0  0
   39.3160   26.8650   32.2900 C   0  0  0  0  0  0  0  0  0  0  0  0
   39.9650   25.6750   32.2360 N   0  0  0  0  0  0  0  0  0  0  0  0
   39.3020   24.5050   32.0210 C   0  0  0  0  0  0  0  0  0  0  0  0
   37.9620   24.4930   31.8520 N   0  0  0  0  0  0  0  0  0  0  0  0
   36.2210   25.5750   31.7550 H   0  0  0  0  0  0  0  0  0  0  0  0
   39.7610   27.8150   32.4530 H   0  0  0  0  0  0  0  0  0  0  0  0
   40.0260   23.7030   32.0210 H   0  0  0  0  0  0  0  0  0  0  0  0
   35.1470   30.3970   34.2220 C   0  0  0  0  0  0  0  0  0  0  0  0
   33.8380   30.1360   34.6130 C   0  0  0  0  0  0  0  0  0  0  0  0
   33.2530   29.4880   33.9770 H   0  0  0  0  0  0  0  0  0  0  0  0
   33.3920   30.7240   35.7790 C   0  0  0  0  0  3  0  0  0  0  0  0
   34.1670   31.5440   36.5610 C   0  0  0  0  0  0  0  0  0  0  0  0
   33.7930   31.9920   37.4700 H   0  0  0  0  0  0  0  0  0  0  0  0
   35.4660   31.8140   36.1900 C   0  0  0  0  0  0  0  0  0  0  0  0
   36.1310   32.4470   36.7530 H   0  0  0  0  0  0  0  0  0  0  0  0
   35.9100   31.2340   35.0350 C   0  0  0  0  0  3  0  0  0  0  0  0
  2  1  1  0  0  0  0
  3  2  2  0  0  0  0
  4  3  1  0  0  0  0
  5  4  2  0  0  0  0
  5  6  1  0  0  0  0
  6  8  2  0  0  0  0
  7  6  1  0  0  0  0
  8  2  1  0  0  0  0
  8 20  1  0  0  0  0
  9  4  1  0  0  0  0
 10  5  1  0  0  0  0
 11 12  1  0  0  0  0
 12  3  1  0  0  0  0
 12 13  2  0  0  0  0
 13 18  1  0  0  0  0
 14 13  1  0  0  0  0
 15 14  2  0  0  0  0
 16 11  2  0  0  0  0
 16 15  1  0  0  0  0
 17 11  1  0  0  0  0
 19 15  1  0  0  0  0
 20 21  2  0  0  0  0
 20 28  1  0  0  0  0
 21 23  1  0  0  0  0
 22 21  1  0  0  0  0
 23 24  2  0  0  0  0
 24 25  1  0  0  0  0
 26 24  1  0  0  0  0
 26 27  1  0  0  0  0
 28 26  2  0  0  0  0
M  END
>  <minimizedAffinity>
-4.86980057

$$$$
