REMARK  Name = 
REMARK  2 active torsions:
REMARK  status: ('A' for Active; 'I' for Inactive)
REMARK    1  A    between atoms: C_3  and  C_10
REMARK    2  A    between atoms: C_8  and  C_20
REMARK                            x       y       z     vdW  Elec       q    Type
REMARK                         _______ _______ _______ _____ _____    ______ ____
ROOT
ATOM      1 CL   UNL     1      38.265  33.453  49.550  0.00  0.00    +0.000 Cl
ATOM      2  C   UNL     1      38.660  32.535  48.122  0.00  0.00    +0.000 A 
ATOM      3  C   UNL     1      38.080  31.294  48.081  0.00  0.00    +0.000 A 
ATOM      4  C   UNL     1      38.338  30.476  46.969  0.00  0.00    +0.000 A 
ATOM      5  C   UNL     1      39.139  30.887  45.950  0.00  0.00    +0.000 A 
ATOM      6  C   UNL     1      39.713  32.140  46.009  0.00  0.00    +0.000 A 
ATOM      7 CL   UNL     1      40.746  32.700  44.720  0.00  0.00    +0.000 Cl
ATOM      8  C   UNL     1      39.472  32.939  47.078  0.00  0.00    +0.000 A 
ATOM      9  H   UNL     1      37.928  29.483  46.845  0.00  0.00    +0.000 HD
ATOM     10  H   UNL     1      39.354  30.266  45.072  0.00  0.00    +0.000 HD
ENDROOT
BRANCH   3  12
ATOM     11  C   UNL     1      37.778  29.971  50.144  0.00  0.00    +0.000 A 
ATOM     12  C   UNL     1      37.192  30.650  49.057  0.00  0.00    +0.000 A 
ATOM     13  C   UNL     1      35.787  30.672  48.968  0.00  0.00    +0.000 A 
ATOM     14  N   UNL     1      35.073  30.040  49.933  0.00  0.00    +0.000 NA
ATOM     15  C   UNL     1      35.680  29.395  50.968  0.00  0.00    +0.000 A 
ATOM     16  N   UNL     1      37.026  29.364  51.067  0.00  0.00    +0.000 NA
ATOM     17  H   UNL     1      38.833  29.919  50.267  0.00  0.00    +0.000 HD
ATOM     18  H   UNL     1      35.389  31.195  48.134  0.00  0.00    +0.000 HD
ATOM     19  H   UNL     1      34.911  28.974  51.599  0.00  0.00    +0.000 HD
ENDBRANCH   3  12
BRANCH   8  20
ATOM     20  C   UNL     1      40.033  34.278  47.231  0.00  0.00    +0.000 A 
ATOM     21  C   UNL     1      41.261  34.662  46.703  0.00  0.00    +0.000 A 
ATOM     22  H   UNL     1      41.816  33.916  46.152  0.00  0.00    +0.000 HD
ATOM     23  C   UNL     1      41.671  35.961  46.923  0.00  0.00    +0.000 A 
ATOM     24  C   UNL     1      40.936  36.880  47.630  0.00  0.00    +0.000 A 
ATOM     25  H   UNL     1      41.281  37.891  47.788  0.00  0.00    +0.000 HD
ATOM     26  C   UNL     1      39.718  36.518  48.160  0.00  0.00    +0.000 A 
ATOM     27  H   UNL     1      39.088  37.185  48.725  0.00  0.00    +0.000 HD
ATOM     28  C   UNL     1      39.309  35.232  47.944  0.00  0.00    +0.000 A 
ENDBRANCH   8  20
TORSDOF 2
