REMARK  Name = 
REMARK  3 active torsions:
REMARK  status: ('A' for Active; 'I' for Inactive)
REMARK    1  A    between atoms: C_3  and  N_7
REMARK    2  A    between atoms: C_9  and  C_23
REMARK    3  A    between atoms: N_12  and  C_15
REMARK                            x       y       z     vdW  Elec       q    Type
REMARK                         _______ _______ _______ _____ _____    ______ ____
ROOT
ATOM      1  N   UNL     1      37.445  31.133  47.053  0.00  0.00    +0.000 N 
ATOM      2  C   UNL     1      36.808  30.801  45.898  0.00  0.00    +0.000 A 
ATOM      3  C   UNL     1      37.233  31.261  44.659  0.00  0.00    +0.000 A 
ATOM      4  C   UNL     1      38.365  32.096  44.643  0.00  0.00    +0.000 A 
ATOM      5  O   UNL     1      38.786  32.535  43.546  0.00  0.00    +0.000 OA
ATOM      6  N   UNL     1      39.003  32.428  45.804  0.00  0.00    +0.000 N 
ATOM      7  C   UNL     1      38.495  31.921  46.930  0.00  0.00    +0.000 A 
ATOM      8  O   UNL     1      39.105  32.248  47.973  0.00  0.00    +0.000 OA
ATOM      9  H   UNL     1      35.940  30.158  45.934  0.00  0.00    +0.000 HD
ENDROOT
BRANCH   1  12
ATOM     10  C   UNL     1      37.411  29.933  50.564  0.00  0.00    +0.000 A 
ATOM     11  C   UNL     1      37.870  30.397  49.320  0.00  0.00    +0.000 A 
ATOM     12  C   UNL     1      37.002  30.666  48.293  0.00  0.00    +0.000 A 
ATOM     13  N   UNL     1      35.671  30.469  48.514  0.00  0.00    +0.000 NA
ATOM     14  C   UNL     1      35.201  30.018  49.713  0.00  0.00    +0.000 A 
ATOM     15  N   UNL     1      36.066  29.752  50.732  0.00  0.00    +0.000 NA
ATOM     16  H   UNL     1      38.021  29.703  51.407  0.00  0.00    +0.000 HD
ATOM     17  H   UNL     1      38.938  30.479  49.332  0.00  0.00    +0.000 HD
ATOM     18  H   UNL     1      34.129  29.878  49.835  0.00  0.00    +0.000 HD
ENDBRANCH   1  12
BRANCH   3  19
ATOM     19  C   UNL     1      36.554  30.909  43.416  0.00  0.00    +0.000 A 
ATOM     20  C   UNL     1      35.911  29.673  43.353  0.00  0.00    +0.000 A 
ATOM     21  H   UNL     1      35.894  28.977  44.173  0.00  0.00    +0.000 HD
ATOM     22  C   UNL     1      35.241  29.256  42.213  0.00  0.00    +0.000 A 
ATOM     23  C   UNL     1      35.208  30.081  41.108  0.00  0.00    +0.000 A 
ATOM     24  H   UNL     1      34.677  29.752  40.203  0.00  0.00    +0.000 HD
ATOM     25  C   UNL     1      35.850  31.315  41.170  0.00  0.00    +0.000 A 
ATOM     26  H   UNL     1      35.834  31.982  40.304  0.00  0.00    +0.000 HD
ATOM     27  C   UNL     1      36.507  31.713  42.300  0.00  0.00    +0.000 A 
ENDBRANCH   3  19
BRANCH   6  28
ATOM     28  C   UNL     1      40.170  33.286  45.778  0.00  0.00    +0.000 C 
ATOM     29  F   UNL     1      40.038  34.220  44.803  0.00  0.00    +0.000 F 
ATOM     30  F   UNL     1      41.339  32.592  45.506  0.00  0.00    +0.000 F 
ATOM     31  F   UNL     1      40.270  33.938  47.000  0.00  0.00    +0.000 F 
ENDBRANCH   6  28
TORSDOF 3
