
 OpenBabel03272506023D

 46 49  0  0  1  0  0  0  0  0999 V2000
   35.3290   30.1750   49.5970 C   0  0  2  0  0  0  0  0  0  0  0  0
   36.2360   31.2500   49.2050 C   0  0  0  0  0  0  0  0  0  0  0  0
   37.7360   30.8310   49.3020 C   0  0  2  0  0  0  0  0  0  0  0  0
   38.1290   30.4030   50.6210 C   0  0  0  0  0  0  0  0  0  0  0  0
   37.0730   29.5570   51.3350 C   0  0  0  0  0  0  0  0  0  0  0  0
   36.0410   29.0560   50.3700 C   0  0  0  0  0  0  0  0  0  0  0  0
   34.5820   30.5580   50.3550 H   0  0  0  0  0  0  0  0  0  0  0  0
   36.2020   31.7210   48.2450 H   0  0  0  0  0  0  0  0  0  0  0  0
   36.1920   32.1100   49.9540 H   0  0  0  0  0  0  0  0  0  0  0  0
   37.9130   30.0710   48.5180 H   0  0  0  0  0  0  0  0  0  0  0  0
   39.1020   29.8730   50.5660 H   0  0  0  0  0  0  0  0  0  0  0  0
   38.3080   31.2580   51.3000 H   0  0  0  0  0  0  0  0  0  0  0  0
   37.5970   28.6670   51.7240 H   0  0  0  0  0  0  0  0  0  0  0  0
   36.6130   30.0610   52.1870 H   0  0  0  0  0  0  0  0  0  0  0  0
   36.5300   28.3640   49.6470 H   0  0  0  0  0  0  0  0  0  0  0  0
   35.2880   28.4960   50.9360 H   0  0  0  0  0  0  0  0  0  0  0  0
   38.5500   30.9760   46.4670 Cl  0  0  0  0  0  0  0  0  0  0  0  0
   38.9270   32.2380   47.6180 C   0  0  0  0  0  0  0  0  0  0  0  0
   38.4560   32.0800   48.8970 C   0  0  0  0  0  0  0  0  0  0  0  0
   38.7680   33.1350   49.7290 C   0  0  0  0  0  0  0  0  0  0  0  0
   39.4850   34.2430   49.3220 C   0  0  0  0  0  0  0  0  0  0  0  0
   39.9290   34.3250   48.0030 C   0  0  0  0  0  0  0  0  0  0  0  0
   39.6390   33.2910   47.1300 C   0  0  0  0  0  0  0  0  0  0  0  0
   38.4300   33.0940   50.7560 H   0  0  0  0  0  0  0  0  0  0  0  0
   39.6840   35.0220   50.0440 H   0  0  0  0  0  0  0  0  0  0  0  0
   40.4920   35.1880   47.6710 H   0  0  0  0  0  0  0  0  0  0  0  0
   40.0780   33.3630   45.7760 N   0  0  0  0  0  0  0  0  0  0  0  0
   39.7090   32.6770   45.0780 H   0  0  0  0  0  0  0  0  0  0  0  0
   40.7630   34.0990   45.4980 H   0  0  0  0  0  0  0  0  0  0  0  0
   34.5890   29.5310   48.5160 C   0  0  0  0  0  0  0  0  0  0  0  0
   34.2670   30.3750   47.4630 C   0  0  0  0  0  0  0  0  0  0  0  0
   33.5870   29.8510   46.3680 C   0  0  0  0  0  0  0  0  0  0  0  0
   33.2610   28.5010   46.3820 N   0  0  0  0  0  0  0  0  0  0  0  0
   33.5850   27.7030   47.4210 C   0  0  0  0  0  0  0  0  0  0  0  0
   34.2390   28.2590   48.4470 N   0  0  0  0  0  0  0  0  0  0  0  0
   34.3760   31.4140   47.1830 H   0  0  0  0  0  0  0  0  0  0  0  0
   33.2310   30.2730   45.4540 H   0  0  0  0  0  0  0  0  0  0  0  0
   33.2350   26.2860   47.4200 C   0  0  0  0  0  0  0  0  0  0  0  0
   31.9310   25.9270   47.6900 C   0  0  0  0  0  0  0  0  0  0  0  0
   31.1590   26.6260   47.9010 H   0  0  0  0  0  0  0  0  0  0  0  0
   31.6210   24.5760   47.6840 C   0  0  0  0  0  3  0  0  0  0  0  0
   32.6030   23.6400   47.4120 C   0  0  0  0  0  0  0  0  0  0  0  0
   32.4120   22.5640   47.3950 H   0  0  0  0  0  0  0  0  0  0  0  0
   33.8990   24.0600   47.1470 C   0  0  0  0  0  0  0  0  0  0  0  0
   34.7080   23.3560   46.9280 H   0  0  0  0  0  0  0  0  0  0  0  0
   34.2700   25.4070   47.1390 C   0  0  0  0  0  3  0  0  0  0  0  0
  1  7  1  1  0  0  0
  1  6  1  0  0  0  0
  2  3  1  0  0  0  0
  2  1  1  0  0  0  0
  2  9  1  0  0  0  0
  3 10  1  6  0  0  0
  3  4  1  0  0  0  0
  4 12  1  0  0  0  0
  4  5  1  0  0  0  0
  5 13  1  0  0  0  0
  5 14  1  0  0  0  0
  6 16  1  0  0  0  0
  6  5  1  0  0  0  0
  8  2  1  0  0  0  0
 11  4  1  0  0  0  0
 15  6  1  0  0  0  0
 17 18  1  0  0  0  0
 18 19  1  0  0  0  0
 19  3  1  0  0  0  0
 19 20  2  0  0  0  0
 20 24  1  0  0  0  0
 21 20  1  0  0  0  0
 21 25  1  0  0  0  0
 22 21  2  0  0  0  0
 23 18  2  0  0  0  0
 23 22  1  0  0  0  0
 26 22  1  0  0  0  0
 27 23  1  0  0  0  0
 28 27  1  0  0  0  0
 29 27  1  0  0  0  0
 30  1  1  0  0  0  0
 31 30  2  0  0  0  0
 32 33  2  0  0  0  0
 32 31  1  0  0  0  0
 33 34  1  0  0  0  0
 34 35  2  0  0  0  0
 35 30  1  0  0  0  0
 36 31  1  0  0  0  0
 37 32  1  0  0  0  0
 38 34  1  0  0  0  0
 38 39  1  0  0  0  0
 39 40  1  0  0  0  0
 41 39  2  0  0  0  0
 42 41  1  0  0  0  0
 43 42  1  0  0  0  0
 44 42  2  0  0  0  0
 45 44  1  0  0  0  0
 46 44  1  0  0  0  0
 46 38  2  0  0  0  0
M  END
>  <minimizedAffinity>
-7.54606533

>  <minimizedRMSD>
1.1583885

$$$$
