
 OpenBabel03272506023D

 46 49  0  0  1  0  0  0  0  0999 V2000
   35.1890   30.0130   49.2350 C   0  0  2  0  0  0  0  0  0  0  0  0
   36.1260   31.0810   48.8970 C   0  0  0  0  0  0  0  0  0  0  0  0
   37.6140   30.6210   48.9910 C   0  0  2  0  0  0  0  0  0  0  0  0
   37.9830   30.1290   50.2940 C   0  0  0  0  0  0  0  0  0  0  0  0
   36.9000   29.2810   50.9630 C   0  0  0  0  0  0  0  0  0  0  0  0
   35.8660   28.8450   49.9680 C   0  0  0  0  0  0  0  0  0  0  0  0
   34.4440   30.3820   50.0020 H   0  0  0  0  0  0  0  0  0  0  0  0
   36.1130   31.5910   47.9570 H   0  0  0  0  0  0  0  0  0  0  0  0
   36.0950   31.9100   49.6800 H   0  0  0  0  0  0  0  0  0  0  0  0
   37.7810   29.8900   48.1770 H   0  0  0  0  0  0  0  0  0  0  0  0
   38.9440   29.5780   50.2270 H   0  0  0  0  0  0  0  0  0  0  0  0
   38.1750   30.9510   51.0110 H   0  0  0  0  0  0  0  0  0  0  0  0
   37.3980   28.3630   51.3190 H   0  0  0  0  0  0  0  0  0  0  0  0
   36.4430   29.7610   51.8310 H   0  0  0  0  0  0  0  0  0  0  0  0
   36.3460   28.1730   49.2220 H   0  0  0  0  0  0  0  0  0  0  0  0
   35.0940   28.2820   50.5030 H   0  0  0  0  0  0  0  0  0  0  0  0
   38.7450   30.7160   46.2640 Cl  0  0  0  0  0  0  0  0  0  0  0  0
   38.9810   32.0040   47.4250 C   0  0  0  0  0  0  0  0  0  0  0  0
   38.3690   31.8670   48.6450 C   0  0  0  0  0  0  0  0  0  0  0  0
   38.5780   32.9410   49.4850 C   0  0  0  0  0  0  0  0  0  0  0  0
   39.3300   34.0470   49.1390 C   0  0  0  0  0  0  0  0  0  0  0  0
   39.9200   34.1060   47.8780 C   0  0  0  0  0  0  0  0  0  0  0  0
   39.7380   33.0530   46.9990 C   0  0  0  0  0  0  0  0  0  0  0  0
   38.1250   32.9180   50.4670 H   0  0  0  0  0  0  0  0  0  0  0  0
   39.4410   34.8420   49.8630 H   0  0  0  0  0  0  0  0  0  0  0  0
   40.5130   34.9670   47.5950 H   0  0  0  0  0  0  0  0  0  0  0  0
   40.3280   33.1010   45.7030 N   0  0  0  0  0  0  0  0  0  0  0  0
   40.0440   32.3980   44.9810 H   0  0  0  0  0  0  0  0  0  0  0  0
   41.0360   33.8380   45.4890 H   0  0  0  0  0  0  0  0  0  0  0  0
   34.4450   29.4320   48.1220 C   0  0  0  0  0  0  0  0  0  0  0  0
   33.9610   30.3620   47.2130 C   0  0  0  0  0  0  0  0  0  0  0  0
   33.2630   29.9090   46.0990 C   0  0  0  0  0  0  0  0  0  0  0  0
   33.0820   28.5390   45.9490 N   0  0  0  0  0  0  0  0  0  0  0  0
   33.5630   27.6570   46.8490 C   0  0  0  0  0  0  0  0  0  0  0  0
   34.2280   28.1480   47.9020 N   0  0  0  0  0  0  0  0  0  0  0  0
   33.9390   31.4340   47.0710 H   0  0  0  0  0  0  0  0  0  0  0  0
   32.7990   30.4010   45.2720 H   0  0  0  0  0  0  0  0  0  0  0  0
   33.3650   26.2210   46.6770 C   0  0  0  0  0  0  0  0  0  0  0  0
   33.9770   25.3580   47.5610 C   0  0  0  0  0  0  0  0  0  0  0  0
   34.5900   25.6770   48.3680 H   0  0  0  0  0  0  0  0  0  0  0  0
   33.7730   24.0000   47.3770 C   0  0  0  0  0  3  0  0  0  0  0  0
   32.9810   23.5500   46.3370 C   0  0  0  0  0  0  0  0  0  0  0  0
   32.7890   22.4900   46.1480 H   0  0  0  0  0  0  0  0  0  0  0  0
   32.3910   24.4650   45.4770 C   0  0  0  0  0  0  0  0  0  0  0  0
   31.7550   24.1560   44.6410 H   0  0  0  0  0  0  0  0  0  0  0  0
   32.5580   25.8460   45.6120 C   0  0  0  0  0  3  0  0  0  0  0  0
  1  6  1  0  0  0  0
  1  7  1  1  0  0  0
  2  3  1  0  0  0  0
  2  1  1  0  0  0  0
  2  9  1  0  0  0  0
  3 10  1  6  0  0  0
  3  4  1  0  0  0  0
  4  5  1  0  0  0  0
  4 12  1  0  0  0  0
  5 13  1  0  0  0  0
  5 14  1  0  0  0  0
  6 16  1  0  0  0  0
  6  5  1  0  0  0  0
  8  2  1  0  0  0  0
 11  4  1  0  0  0  0
 15  6  1  0  0  0  0
 17 18  1  0  0  0  0
 18 19  1  0  0  0  0
 19  3  1  0  0  0  0
 19 20  2  0  0  0  0
 20 24  1  0  0  0  0
 21 20  1  0  0  0  0
 21 25  1  0  0  0  0
 22 21  2  0  0  0  0
 23 18  2  0  0  0  0
 23 22  1  0  0  0  0
 26 22  1  0  0  0  0
 27 23  1  0  0  0  0
 28 27  1  0  0  0  0
 29 27  1  0  0  0  0
 30  1  1  0  0  0  0
 31 30  2  0  0  0  0
 32 31  1  0  0  0  0
 33 32  2  0  0  0  0
 33 34  1  0  0  0  0
 34 35  2  0  0  0  0
 35 30  1  0  0  0  0
 36 31  1  0  0  0  0
 37 32  1  0  0  0  0
 38 34  1  0  0  0  0
 38 39  1  0  0  0  0
 39 40  1  0  0  0  0
 41 39  2  0  0  0  0
 42 41  1  0  0  0  0
 43 42  1  0  0  0  0
 44 46  1  0  0  0  0
 44 42  2  0  0  0  0
 45 44  1  0  0  0  0
 46 38  2  0  0  0  0
M  END
>  <minimizedAffinity>
-7.34077883

>  <minimizedRMSD>
1.64397979

$$$$
