
 OpenBabel03272510213D

 36 39  0  0  0  0  0  0  0  0999 V2000
   37.4650   29.1870   50.8300 Br  0  0  0  0  0  0  0  0  0  0  0  0
   36.0330   29.2740   49.5740 C   0  0  0  0  0  0  0  0  0  0  0  0
   36.0100   30.2710   48.6030 C   0  0  0  0  0  0  0  0  0  0  0  0
   34.9410   30.2710   47.7270 C   0  0  0  0  0  0  0  0  0  0  0  0
   33.9170   29.3420   47.7760 C   0  0  0  0  0  0  0  0  0  0  0  0
   33.9730   28.3830   48.7380 C   0  0  0  0  0  0  0  0  0  0  0  0
   35.0320   28.3630   49.6240 C   0  0  0  0  0  0  0  0  0  0  0  0
   34.8690   31.0220   46.9500 H   0  0  0  0  0  0  0  0  0  0  0  0
   33.2240   27.6100   48.8630 H   0  0  0  0  0  0  0  0  0  0  0  0
   35.0810   27.5920   50.4010 H   0  0  0  0  0  0  0  0  0  0  0  0
   38.0230   33.1960   49.4350 C   0  0  0  0  0  0  0  0  0  0  0  0
   39.0360   33.1920   48.4350 C   0  0  0  0  0  0  0  0  0  0  0  0
   39.0060   32.1780   47.4900 C   0  0  0  0  0  0  0  0  0  0  0  0
   38.0180   31.2350   47.5560 N   0  0  0  0  0  0  0  0  0  0  0  0
   37.0700   31.2670   48.5190 C   0  0  0  0  0  0  0  0  0  0  0  0
   37.0840   32.2530   49.4520 N   0  0  0  0  0  0  0  0  0  0  0  0
   38.0860   34.0100   50.1530 H   0  0  0  0  0  0  0  0  0  0  0  0
   39.8310   33.9210   48.3550 H   0  0  0  0  0  0  0  0  0  0  0  0
   39.7070   32.0600   46.6900 H   0  0  0  0  0  0  0  0  0  0  0  0
   32.8010   29.3600   46.8450 C   0  0  0  0  0  0  0  0  0  0  0  0
   31.8970   28.3290   46.6880 C   0  0  0  0  0  0  0  0  0  0  0  0
   30.8450   28.3790   45.7910 C   0  0  0  0  0  0  0  0  0  0  0  0
   30.6910   29.4810   45.0340 N   0  0  0  0  0  0  0  0  0  0  0  0
   31.5590   30.4900   45.1740 C   0  0  0  0  0  0  0  0  0  0  0  0
   32.5590   30.4110   46.0450 N   0  0  0  0  0  0  0  0  0  0  0  0
   32.0240   27.4340   47.3030 H   0  0  0  0  0  0  0  0  0  0  0  0
   30.1690   27.5260   45.7210 H   0  0  0  0  0  0  0  0  0  0  0  0
   31.3960   31.6870   44.3560 C   0  0  0  0  0  0  0  0  0  0  0  0
   32.5100   32.3180   43.8140 C   0  0  0  0  0  0  0  0  0  0  0  0
   33.4660   31.8650   44.0400 H   0  0  0  0  0  0  0  0  0  0  0  0
   32.3290   33.4480   43.0440 C   0  0  0  0  0  3  0  0  0  0  0  0
   31.1000   33.9990   42.7750 C   0  0  0  0  0  0  0  0  0  0  0  0
   31.1250   34.8810   42.1590 H   0  0  0  0  0  0  0  0  0  0  0  0
   29.9950   33.3710   43.3150 C   0  0  0  0  0  0  0  0  0  0  0  0
   29.0380   33.8170   43.0920 H   0  0  0  0  0  0  0  0  0  0  0  0
   30.1750   32.2380   44.0850 C   0  0  0  0  0  3  0  0  0  0  0  0
  2  7  1  0  0  0  0
  2  1  1  0  0  0  0
  3  2  2  0  0  0  0
  4  5  2  0  0  0  0
  4  3  1  0  0  0  0
  5  6  1  0  0  0  0
  6  9  1  0  0  0  0
  6  7  2  0  0  0  0
  7 10  1  0  0  0  0
  8  4  1  0  0  0  0
 11 16  1  0  0  0  0
 11 17  1  0  0  0  0
 12 11  2  0  0  0  0
 13 14  2  0  0  0  0
 13 12  1  0  0  0  0
 14 15  1  0  0  0  0
 15  3  1  0  0  0  0
 15 16  2  0  0  0  0
 18 12  1  0  0  0  0
 19 13  1  0  0  0  0
 20  5  1  0  0  0  0
 21 20  1  0  0  0  0
 21 26  1  0  0  0  0
 22 21  2  0  0  0  0
 23 24  2  0  0  0  0
 23 22  1  0  0  0  0
 24 25  1  0  0  0  0
 25 20  2  0  0  0  0
 27 22  1  0  0  0  0
 28 24  1  0  0  0  0
 29 30  1  0  0  0  0
 29 28  2  0  0  0  0
 31 29  1  0  0  0  0
 32 31  2  0  0  0  0
 32 34  1  0  0  0  0
 33 32  1  0  0  0  0
 34 36  2  0  0  0  0
 35 34  1  0  0  0  0
 36 28  1  0  0  0  0
M  END
>  <minimizedAffinity>
-6.39909077

>  <minimizedRMSD>
0.46140942

$$$$
