
 OpenBabel03272500203D

 34 36  0  0  0  0  0  0  0  0999 V2000
   36.6720   29.2810   31.2440 C   0  0  0  0  0  0  0  0  0  0  0  0
   35.9360   30.0910   32.1390 C   0  0  0  0  0  0  0  0  0  0  0  0
   35.6280   29.5870   33.3910 C   0  0  0  0  0  0  0  0  0  0  0  0
   36.0620   28.3230   33.6910 N   0  0  0  0  0  0  0  0  0  0  0  0
   36.7530   27.5740   32.8390 C   0  0  0  0  0  0  0  0  0  0  0  0
   37.0560   28.0440   31.6280 N   0  0  0  0  0  0  0  0  0  0  0  0
   36.9000   29.6900   30.2760 H   0  0  0  0  0  0  0  0  0  0  0  0
   37.9020   27.3350   35.6330 Cl  0  0  0  0  0  0  0  0  0  0  0  0
   37.7170   25.9970   34.4970 C   0  0  0  0  0  0  0  0  0  0  0  0
   37.1760   26.2270   33.2350 C   0  0  0  0  0  0  0  0  0  0  0  0
   37.0110   25.1980   32.3010 C   0  0  0  0  0  0  0  0  0  0  0  0
   37.4170   23.9290   32.7020 C   0  0  0  0  0  0  0  0  0  0  0  0
   37.9510   23.6770   33.9360 C   0  0  0  0  0  0  0  0  0  0  0  0
   38.4220   22.0420   34.3220 Cl  0  0  0  0  0  0  0  0  0  0  0  0
   38.0980   24.7260   34.8330 C   0  0  0  0  0  0  0  0  0  0  0  0
   36.5960   25.3800   31.3330 H   0  0  0  0  0  0  0  0  0  0  0  0
   37.2750   23.1580   31.9550 H   0  0  0  0  0  0  0  0  0  0  0  0
   38.6740   24.4620   36.1690 C   0  0  0  0  0  0  0  0  0  0  0  0
   38.4340   25.5270   37.0300 F   0  0  0  0  0  0  0  0  0  0  0  0
   40.0200   24.2030   36.1120 F   0  0  0  0  0  0  0  0  0  0  0  0
   38.0540   23.3530   36.7310 F   0  0  0  0  0  0  0  0  0  0  0  0
   34.9360   30.2300   34.4780 C   0  0  0  0  0  0  0  0  0  0  0  0
   33.6460   30.3740   34.8910 C   0  0  0  0  0  0  0  0  0  0  0  0
   32.9330   29.8340   34.3290 H   0  0  0  0  0  0  0  0  0  0  0  0
   33.2590   31.1180   35.9740 C   0  0  0  0  0  3  0  0  0  0  0  0
   34.1760   31.7940   36.7500 C   0  0  0  0  0  0  0  0  0  0  0  0
   33.7460   32.3430   37.5730 H   0  0  0  0  0  0  0  0  0  0  0  0
   35.5010   31.6870   36.3880 C   0  0  0  0  0  0  0  0  0  0  0  0
   36.1840   32.2280   37.0180 H   0  0  0  0  0  0  0  0  0  0  0  0
   35.8460   30.9300   35.2920 C   0  0  0  0  0  3  0  0  0  0  0  0
   35.5360   31.4610   31.7180 C   0  0  0  0  0  0  0  0  0  0  0  0
   36.1970   32.4290   32.4550 F   0  0  0  0  0  0  0  0  0  0  0  0
   35.8360   31.6270   30.3760 F   0  0  0  0  0  0  0  0  0  0  0  0
   34.1750   31.6730   31.8600 F   0  0  0  0  0  0  0  0  0  0  0  0
  1  6  2  0  0  0  0
  1  2  1  0  0  0  0
  2  3  2  0  0  0  0
  3  4  1  0  0  0  0
  3 22  1  0  0  0  0
  5 10  1  0  0  0  0
  5  4  2  0  0  0  0
  6  5  1  0  0  0  0
  7  1  1  0  0  0  0
  9 15  1  0  0  0  0
  9  8  1  0  0  0  0
 10  9  2  0  0  0  0
 11 12  2  0  0  0  0
 11 10  1  0  0  0  0
 12 13  1  0  0  0  0
 13 14  1  0  0  0  0
 13 15  2  0  0  0  0
 15 18  1  0  0  0  0
 16 11  1  0  0  0  0
 17 12  1  0  0  0  0
 18 21  1  0  0  0  0
 18 19  1  0  0  0  0
 20 18  1  0  0  0  0
 22 23  2  0  0  0  0
 22 30  1  0  0  0  0
 23 25  1  0  0  0  0
 24 23  1  0  0  0  0
 25 26  2  0  0  0  0
 26 27  1  0  0  0  0
 28 26  1  0  0  0  0
 28 29  1  0  0  0  0
 30 28  2  0  0  0  0
 31 34  1  0  0  0  0
 31  2  1  0  0  0  0
 31 32  1  0  0  0  0
 33 31  1  0  0  0  0
M  END
>  <minimizedAffinity>
-6.46345282

$$$$

 OpenBabel03272500203D

 34 36  0  0  0  0  0  0  0  0999 V2000
   36.4070   29.2740   30.9880 C   0  0  0  0  0  0  0  0  0  0  0  0
   37.2780   28.2720   31.4730 C   0  0  0  0  0  0  0  0  0  0  0  0
   37.0650   27.7660   32.7440 C   0  0  0  0  0  0  0  0  0  0  0  0
   36.0130   28.2710   33.4610 N   0  0  0  0  0  0  0  0  0  0  0  0
   35.2030   29.2130   32.9910 C   0  0  0  0  0  0  0  0  0  0  0  0
   35.3950   29.7120   31.7690 N   0  0  0  0  0  0  0  0  0  0  0  0
   36.5890   29.6550   29.9990 H   0  0  0  0  0  0  0  0  0  0  0  0
   36.0200   30.8390   35.4150 Cl  0  0  0  0  0  0  0  0  0  0  0  0
   34.3550   30.4640   34.9620 C   0  0  0  0  0  0  0  0  0  0  0  0
   34.1000   29.7040   33.8240 C   0  0  0  0  0  0  0  0  0  0  0  0
   32.7990   29.3810   33.4250 C   0  0  0  0  0  0  0  0  0  0  0  0
   31.7690   29.8600   34.2290 C   0  0  0  0  0  0  0  0  0  0  0  0
   31.9940   30.6090   35.3520 C   0  0  0  0  0  0  0  0  0  0  0  0
   30.6190   31.1530   36.2790 Cl  0  0  0  0  0  0  0  0  0  0  0  0
   33.3010   30.9070   35.7130 C   0  0  0  0  0  0  0  0  0  0  0  0
   32.6070   28.7960   32.5500 H   0  0  0  0  0  0  0  0  0  0  0  0
   30.7760   29.5920   33.8920 H   0  0  0  0  0  0  0  0  0  0  0  0
   33.5510   31.7150   36.9250 C   0  0  0  0  0  0  0  0  0  0  0  0
   32.9940   32.9830   36.7960 F   0  0  0  0  0  0  0  0  0  0  0  0
   34.8880   31.8200   37.2110 F   0  0  0  0  0  0  0  0  0  0  0  0
   32.9300   31.1210   38.0160 F   0  0  0  0  0  0  0  0  0  0  0  0
   37.7810   26.7230   33.4330 C   0  0  0  0  0  0  0  0  0  0  0  0
   37.8000   25.3620   33.4360 C   0  0  0  0  0  0  0  0  0  0  0  0
   37.1850   24.9040   32.7100 H   0  0  0  0  0  0  0  0  0  0  0  0
   38.5730   24.6000   34.2710 C   0  0  0  0  0  3  0  0  0  0  0  0
   39.4180   25.1750   35.1970 C   0  0  0  0  0  0  0  0  0  0  0  0
   39.9730   24.4690   35.7940 H   0  0  0  0  0  0  0  0  0  0  0  0
   39.4490   26.5520   35.2440 C   0  0  0  0  0  0  0  0  0  0  0  0
   40.1200   26.9610   35.9780 H   0  0  0  0  0  0  0  0  0  0  0  0
   38.6540   27.2780   34.3880 C   0  0  0  0  0  3  0  0  0  0  0  0
   38.3760   27.7780   30.6000 C   0  0  0  0  0  0  0  0  0  0  0  0
   38.1970   26.4460   30.2680 F   0  0  0  0  0  0  0  0  0  0  0  0
   38.4050   28.5350   29.4400 F   0  0  0  0  0  0  0  0  0  0  0  0
   39.6170   27.9050   31.2010 F   0  0  0  0  0  0  0  0  0  0  0  0
  1  2  2  0  0  0  0
  1  6  1  0  0  0  0
  2  3  1  0  0  0  0
  3 22  1  0  0  0  0
  3  4  2  0  0  0  0
  5  4  1  0  0  0  0
  5 10  1  0  0  0  0
  6  5  2  0  0  0  0
  7  1  1  0  0  0  0
  9  8  1  0  0  0  0
  9 15  1  0  0  0  0
 10  9  2  0  0  0  0
 11 10  1  0  0  0  0
 11 12  2  0  0  0  0
 12 13  1  0  0  0  0
 13 15  2  0  0  0  0
 13 14  1  0  0  0  0
 15 18  1  0  0  0  0
 16 11  1  0  0  0  0
 17 12  1  0  0  0  0
 18 20  1  0  0  0  0
 18 21  1  0  0  0  0
 19 18  1  0  0  0  0
 22 23  2  0  0  0  0
 22 30  1  0  0  0  0
 23 25  1  0  0  0  0
 24 23  1  0  0  0  0
 25 26  2  0  0  0  0
 26 28  1  0  0  0  0
 26 27  1  0  0  0  0
 28 29  1  0  0  0  0
 30 28  2  0  0  0  0
 31 34  1  0  0  0  0
 31  2  1  0  0  0  0
 32 31  1  0  0  0  0
 33 31  1  0  0  0  0
M  END
>  <minimizedAffinity>
-6.29930687

$$$$

 OpenBabel03272500203D

 34 36  0  0  0  0  0  0  0  0999 V2000
   36.9410   28.5030   31.7780 C   0  0  0  0  0  0  0  0  0  0  0  0
   36.1000   29.4300   32.4360 C   0  0  0  0  0  0  0  0  0  0  0  0
   35.8070   29.2260   33.7740 C   0  0  0  0  0  0  0  0  0  0  0  0
   36.3550   28.1300   34.3850 N   0  0  0  0  0  0  0  0  0  0  0  0
   37.1440   27.2680   33.7520 C   0  0  0  0  0  0  0  0  0  0  0  0
   37.4350   27.4490   32.4630 N   0  0  0  0  0  0  0  0  0  0  0  0
   37.1550   28.6780   30.7390 H   0  0  0  0  0  0  0  0  0  0  0  0
   36.9040   24.5990   32.3350 Cl  0  0  0  0  0  0  0  0  0  0  0  0
   37.6350   24.8390   33.9240 C   0  0  0  0  0  0  0  0  0  0  0  0
   37.6880   26.1150   34.4770 C   0  0  0  0  0  0  0  0  0  0  0  0
   38.2580   26.3560   35.7330 C   0  0  0  0  0  0  0  0  0  0  0  0
   38.7710   25.2480   36.4000 C   0  0  0  0  0  0  0  0  0  0  0  0
   38.7310   23.9840   35.8770 C   0  0  0  0  0  0  0  0  0  0  0  0
   39.4080   22.6740   36.8110 Cl  0  0  0  0  0  0  0  0  0  0  0  0
   38.1570   23.7890   34.6290 C   0  0  0  0  0  0  0  0  0  0  0  0
   38.2950   27.3370   36.1550 H   0  0  0  0  0  0  0  0  0  0  0  0
   39.2040   25.4690   37.3680 H   0  0  0  0  0  0  0  0  0  0  0  0
   38.1110   22.4260   34.0570 C   0  0  0  0  0  0  0  0  0  0  0  0
   39.3920   21.9020   33.9260 F   0  0  0  0  0  0  0  0  0  0  0  0
   37.4680   22.3930   32.8460 F   0  0  0  0  0  0  0  0  0  0  0  0
   37.4260   21.5820   34.9220 F   0  0  0  0  0  0  0  0  0  0  0  0
   35.0210   30.0440   34.6610 C   0  0  0  0  0  0  0  0  0  0  0  0
   33.6990   30.2620   34.9060 C   0  0  0  0  0  0  0  0  0  0  0  0
   33.0360   29.6390   34.3690 H   0  0  0  0  0  0  0  0  0  0  0  0
   33.2200   31.1780   35.8040 C   0  0  0  0  0  3  0  0  0  0  0  0
   34.0670   31.9690   36.5500 C   0  0  0  0  0  0  0  0  0  0  0  0
   33.5670   32.6510   37.2210 H   0  0  0  0  0  0  0  0  0  0  0  0
   35.4190   31.7980   36.3510 C   0  0  0  0  0  0  0  0  0  0  0  0
   36.0460   32.4330   36.9520 H   0  0  0  0  0  0  0  0  0  0  0  0
   35.8580   30.8670   35.4380 C   0  0  0  0  0  3  0  0  0  0  0  0
   35.5780   30.6010   31.6820 C   0  0  0  0  0  0  0  0  0  0  0  0
   35.9950   31.7930   32.2480 F   0  0  0  0  0  0  0  0  0  0  0  0
   36.0320   30.5350   30.3750 F   0  0  0  0  0  0  0  0  0  0  0  0
   34.1940   30.6130   31.6320 F   0  0  0  0  0  0  0  0  0  0  0  0
  1  2  2  0  0  0  0
  1  6  1  0  0  0  0
  2  3  1  0  0  0  0
  3  4  2  0  0  0  0
  3 22  1  0  0  0  0
  5  4  1  0  0  0  0
  5 10  1  0  0  0  0
  6  5  2  0  0  0  0
  7  1  1  0  0  0  0
  8  9  1  0  0  0  0
  9 10  2  0  0  0  0
  9 15  1  0  0  0  0
 10 11  1  0  0  0  0
 11 16  1  0  0  0  0
 11 12  2  0  0  0  0
 12 17  1  0  0  0  0
 13 12  1  0  0  0  0
 13 14  1  0  0  0  0
 15 13  2  0  0  0  0
 18 15  1  0  0  0  0
 18 21  1  0  0  0  0
 19 18  1  0  0  0  0
 20 18  1  0  0  0  0
 22 23  2  0  0  0  0
 22 30  1  0  0  0  0
 23 25  1  0  0  0  0
 24 23  1  0  0  0  0
 25 26  2  0  0  0  0
 26 27  1  0  0  0  0
 28 26  1  0  0  0  0
 28 29  1  0  0  0  0
 30 28  2  0  0  0  0
 31 32  1  0  0  0  0
 31  2  1  0  0  0  0
 33 31  1  0  0  0  0
 34 31  1  0  0  0  0
M  END
>  <minimizedAffinity>
-6.2799387

$$$$

 OpenBabel03272500203D

 34 36  0  0  0  0  0  0  0  0999 V2000
   36.7380   28.4600   31.8450 C   0  0  0  0  0  0  0  0  0  0  0  0
   35.9110   29.3700   32.5420 C   0  0  0  0  0  0  0  0  0  0  0  0
   35.8100   29.2540   33.9190 C   0  0  0  0  0  0  0  0  0  0  0  0
   36.5240   28.2560   34.5260 N   0  0  0  0  0  0  0  0  0  0  0  0
   37.2970   27.4080   33.8560 C   0  0  0  0  0  0  0  0  0  0  0  0
   37.4040   27.5060   32.5310 N   0  0  0  0  0  0  0  0  0  0  0  0
   36.8020   28.5650   30.7770 H   0  0  0  0  0  0  0  0  0  0  0  0
   40.2390   27.1560   33.1750 Cl  0  0  0  0  0  0  0  0  0  0  0  0
   39.3840   26.1570   34.3530 C   0  0  0  0  0  0  0  0  0  0  0  0
   38.0270   26.3640   34.5820 C   0  0  0  0  0  0  0  0  0  0  0  0
   37.3060   25.5970   35.5050 C   0  0  0  0  0  0  0  0  0  0  0  0
   38.0210   24.6150   36.1840 C   0  0  0  0  0  0  0  0  0  0  0  0
   39.3550   24.3930   35.9770 C   0  0  0  0  0  0  0  0  0  0  0  0
   40.1410   23.1310   36.8900 Cl  0  0  0  0  0  0  0  0  0  0  0  0
   40.0320   25.1750   35.0520 C   0  0  0  0  0  0  0  0  0  0  0  0
   36.2630   25.7590   35.6780 H   0  0  0  0  0  0  0  0  0  0  0  0
   37.4330   24.0420   36.8900 H   0  0  0  0  0  0  0  0  0  0  0  0
   41.4740   24.9410   34.8220 C   0  0  0  0  0  0  0  0  0  0  0  0
   41.7170   24.6280   33.4890 F   0  0  0  0  0  0  0  0  0  0  0  0
   41.9750   23.9540   35.6320 F   0  0  0  0  0  0  0  0  0  0  0  0
   42.1820   26.1060   35.0890 F   0  0  0  0  0  0  0  0  0  0  0  0
   35.0750   30.0800   34.8430 C   0  0  0  0  0  0  0  0  0  0  0  0
   33.7780   30.2330   35.2280 C   0  0  0  0  0  0  0  0  0  0  0  0
   33.1020   29.5380   34.8090 H   0  0  0  0  0  0  0  0  0  0  0  0
   33.3430   31.1750   36.1210 C   0  0  0  0  0  3  0  0  0  0  0  0
   34.2130   32.0620   36.7160 C   0  0  0  0  0  0  0  0  0  0  0  0
   33.7480   32.7540   37.4010 H   0  0  0  0  0  0  0  0  0  0  0  0
   35.5430   31.9600   36.3710 C   0  0  0  0  0  0  0  0  0  0  0  0
   36.1900   32.6690   36.8570 H   0  0  0  0  0  0  0  0  0  0  0  0
   35.9380   30.9990   35.4680 C   0  0  0  0  0  3  0  0  0  0  0  0
   35.1980   30.4320   31.7840 C   0  0  0  0  0  0  0  0  0  0  0  0
   35.5580   31.6950   32.2230 F   0  0  0  0  0  0  0  0  0  0  0  0
   35.5090   30.3130   30.4390 F   0  0  0  0  0  0  0  0  0  0  0  0
   33.8220   30.3180   31.8960 F   0  0  0  0  0  0  0  0  0  0  0  0
  1  6  2  0  0  0  0
  1  2  1  0  0  0  0
  2  3  2  0  0  0  0
  3  4  1  0  0  0  0
  3 22  1  0  0  0  0
  5  4  2  0  0  0  0
  5 10  1  0  0  0  0
  6  5  1  0  0  0  0
  7  1  1  0  0  0  0
  8  9  1  0  0  0  0
  9 10  2  0  0  0  0
  9 15  1  0  0  0  0
 10 11  1  0  0  0  0
 11 16  1  0  0  0  0
 11 12  2  0  0  0  0
 12 17  1  0  0  0  0
 13 12  1  0  0  0  0
 13 14  1  0  0  0  0
 15 13  2  0  0  0  0
 18 15  1  0  0  0  0
 18 21  1  0  0  0  0
 18 20  1  0  0  0  0
 19 18  1  0  0  0  0
 22 23  2  0  0  0  0
 22 30  1  0  0  0  0
 23 25  1  0  0  0  0
 24 23  1  0  0  0  0
 25 26  2  0  0  0  0
 26 27  1  0  0  0  0
 28 26  1  0  0  0  0
 28 29  1  0  0  0  0
 30 28  2  0  0  0  0
 31 34  1  0  0  0  0
 31 32  1  0  0  0  0
 31  2  1  0  0  0  0
 33 31  1  0  0  0  0
M  END
>  <minimizedAffinity>
-6.25079346

$$$$

 OpenBabel03272500203D

 34 36  0  0  0  0  0  0  0  0999 V2000
   35.4330   28.3300   32.0120 C   0  0  0  0  0  0  0  0  0  0  0  0
   36.4160   27.3990   32.4170 C   0  0  0  0  0  0  0  0  0  0  0  0
   36.9840   27.5380   33.6730 C   0  0  0  0  0  0  0  0  0  0  0  0
   36.5550   28.5790   34.4520 N   0  0  0  0  0  0  0  0  0  0  0  0
   35.6300   29.4460   34.0560 C   0  0  0  0  0  0  0  0  0  0  0  0
   35.0740   29.3270   32.8500 N   0  0  0  0  0  0  0  0  0  0  0  0
   35.0050   28.2060   31.0330 H   0  0  0  0  0  0  0  0  0  0  0  0
   32.7830   29.3080   35.0880 Cl  0  0  0  0  0  0  0  0  0  0  0  0
   33.9440   30.5770   35.4880 C   0  0  0  0  0  0  0  0  0  0  0  0
   35.2280   30.5370   34.9510 C   0  0  0  0  0  0  0  0  0  0  0  0
   36.1820   31.5190   35.2380 C   0  0  0  0  0  0  0  0  0  0  0  0
   35.7780   32.5410   36.0920 C   0  0  0  0  0  0  0  0  0  0  0  0
   34.5230   32.6020   36.6320 C   0  0  0  0  0  0  0  0  0  0  0  0
   34.1360   33.9350   37.6900 Cl  0  0  0  0  0  0  0  0  0  0  0  0
   33.6060   31.6080   36.3210 C   0  0  0  0  0  0  0  0  0  0  0  0
   37.1670   31.4850   34.8230 H   0  0  0  0  0  0  0  0  0  0  0  0
   36.5400   33.2840   36.2930 H   0  0  0  0  0  0  0  0  0  0  0  0
   32.2480   31.6670   36.9010 C   0  0  0  0  0  0  0  0  0  0  0  0
   31.2850   31.4200   35.9290 F   0  0  0  0  0  0  0  0  0  0  0  0
   31.9960   32.8690   37.5120 F   0  0  0  0  0  0  0  0  0  0  0  0
   32.1070   30.6700   37.8580 F   0  0  0  0  0  0  0  0  0  0  0  0
   37.9610   26.7000   34.3200 C   0  0  0  0  0  0  0  0  0  0  0  0
   39.2970   26.4600   34.2100 C   0  0  0  0  0  0  0  0  0  0  0  0
   39.8070   27.0760   33.5200 H   0  0  0  0  0  0  0  0  0  0  0  0
   39.9780   25.5290   34.9470 C   0  0  0  0  0  3  0  0  0  0  0  0
   39.3420   24.7450   35.8860 C   0  0  0  0  0  0  0  0  0  0  0  0
   39.9880   24.0510   36.4010 H   0  0  0  0  0  0  0  0  0  0  0  0
   37.9880   24.9400   36.0490 C   0  0  0  0  0  0  0  0  0  0  0  0
   37.5290   24.3110   36.7910 H   0  0  0  0  0  0  0  0  0  0  0  0
   37.3420   25.8860   35.2860 C   0  0  0  0  0  3  0  0  0  0  0  0
   36.7910   26.2910   31.4990 C   0  0  0  0  0  0  0  0  0  0  0  0
   35.9560   26.2450   30.3960 F   0  0  0  0  0  0  0  0  0  0  0  0
   38.0960   26.4810   31.0720 F   0  0  0  0  0  0  0  0  0  0  0  0
   36.7420   25.0570   32.1230 F   0  0  0  0  0  0  0  0  0  0  0  0
  1  2  2  0  0  0  0
  1  6  1  0  0  0  0
  2  3  1  0  0  0  0
  3 22  1  0  0  0  0
  3  4  2  0  0  0  0
  5  4  1  0  0  0  0
  5 10  1  0  0  0  0
  6  5  2  0  0  0  0
  7  1  1  0  0  0  0
  8  9  1  0  0  0  0
  9 15  1  0  0  0  0
 10 11  1  0  0  0  0
 10  9  2  0  0  0  0
 11 12  2  0  0  0  0
 12 17  1  0  0  0  0
 12 13  1  0  0  0  0
 13 14  1  0  0  0  0
 15 13  2  0  0  0  0
 15 18  1  0  0  0  0
 16 11  1  0  0  0  0
 18 20  1  0  0  0  0
 18 21  1  0  0  0  0
 19 18  1  0  0  0  0
 22 30  1  0  0  0  0
 23 22  2  0  0  0  0
 23 25  1  0  0  0  0
 24 23  1  0  0  0  0
 25 26  2  0  0  0  0
 26 28  1  0  0  0  0
 26 27  1  0  0  0  0
 28 29  1  0  0  0  0
 30 28  2  0  0  0  0
 31 34  1  0  0  0  0
 31  2  1  0  0  0  0
 32 31  1  0  0  0  0
 33 31  1  0  0  0  0
M  END
>  <minimizedAffinity>
-6.23074627

$$$$

 OpenBabel03272500203D

 34 36  0  0  0  0  0  0  0  0999 V2000
   36.1080   30.7450   31.1000 C   0  0  0  0  0  0  0  0  0  0  0  0
   36.4840   29.3970   30.9040 C   0  0  0  0  0  0  0  0  0  0  0  0
   35.8380   28.4140   31.6350 C   0  0  0  0  0  0  0  0  0  0  0  0
   34.8640   28.8120   32.5110 N   0  0  0  0  0  0  0  0  0  0  0  0
   34.5220   30.0840   32.6850 C   0  0  0  0  0  0  0  0  0  0  0  0
   35.1350   31.0420   31.9900 N   0  0  0  0  0  0  0  0  0  0  0  0
   36.6220   31.4940   30.5250 H   0  0  0  0  0  0  0  0  0  0  0  0
   35.4890   30.9900   35.4110 Cl  0  0  0  0  0  0  0  0  0  0  0  0
   33.7960   30.8580   34.9300 C   0  0  0  0  0  0  0  0  0  0  0  0
   33.4700   30.4270   33.6470 C   0  0  0  0  0  0  0  0  0  0  0  0
   32.1430   30.3060   33.2210 C   0  0  0  0  0  0  0  0  0  0  0  0
   31.1630   30.6410   34.1500 C   0  0  0  0  0  0  0  0  0  0  0  0
   31.4570   31.0670   35.4170 C   0  0  0  0  0  0  0  0  0  0  0  0
   30.1390   31.4580   36.4920 Cl  0  0  0  0  0  0  0  0  0  0  0  0
   32.7870   31.1730   35.8000 C   0  0  0  0  0  0  0  0  0  0  0  0
   31.8970   29.9740   32.2350 H   0  0  0  0  0  0  0  0  0  0  0  0
   30.1480   30.5360   33.7880 H   0  0  0  0  0  0  0  0  0  0  0  0
   33.1130   31.6330   37.1660 C   0  0  0  0  0  0  0  0  0  0  0  0
   32.6950   30.7030   38.1130 F   0  0  0  0  0  0  0  0  0  0  0  0
   32.5670   32.8590   37.4450 F   0  0  0  0  0  0  0  0  0  0  0  0
   34.4910   31.7420   37.3030 F   0  0  0  0  0  0  0  0  0  0  0  0
   36.0120   26.9860   31.5790 C   0  0  0  0  0  0  0  0  0  0  0  0
   35.5070   25.9480   30.8560 C   0  0  0  0  0  0  0  0  0  0  0  0
   34.8540   26.2240   30.0730 H   0  0  0  0  0  0  0  0  0  0  0  0
   35.8240   24.6320   31.0660 C   0  0  0  0  0  3  0  0  0  0  0  0
   36.7070   24.2510   32.0530 C   0  0  0  0  0  0  0  0  0  0  0  0
   36.8740   23.1870   32.1180 H   0  0  0  0  0  0  0  0  0  0  0  0
   37.2580   25.2540   32.8200 C   0  0  0  0  0  0  0  0  0  0  0  0
   37.9430   24.9170   33.5780 H   0  0  0  0  0  0  0  0  0  0  0  0
   36.9110   26.5630   32.5760 C   0  0  0  0  0  3  0  0  0  0  0  0
   37.5400   29.0750   29.9070 C   0  0  0  0  0  0  0  0  0  0  0  0
   37.0240   28.3680   28.8340 F   0  0  0  0  0  0  0  0  0  0  0  0
   38.1010   30.2550   29.4460 F   0  0  0  0  0  0  0  0  0  0  0  0
   38.5650   28.3240   30.4580 F   0  0  0  0  0  0  0  0  0  0  0  0
  1  6  1  0  0  0  0
  2  1  2  0  0  0  0
  2  3  1  0  0  0  0
  3  4  2  0  0  0  0
  4  5  1  0  0  0  0
  5 10  1  0  0  0  0
  6  5  2  0  0  0  0
  7  1  1  0  0  0  0
  9  8  1  0  0  0  0
  9 15  1  0  0  0  0
 10  9  2  0  0  0  0
 11 10  1  0  0  0  0
 11 12  2  0  0  0  0
 12 13  1  0  0  0  0
 13 15  2  0  0  0  0
 13 14  1  0  0  0  0
 15 18  1  0  0  0  0
 16 11  1  0  0  0  0
 17 12  1  0  0  0  0
 18 21  1  0  0  0  0
 18 20  1  0  0  0  0
 18 19  1  0  0  0  0
 22  3  1  0  0  0  0
 22 30  1  0  0  0  0
 23 25  1  0  0  0  0
 23 22  2  0  0  0  0
 24 23  1  0  0  0  0
 25 26  2  0  0  0  0
 26 27  1  0  0  0  0
 26 28  1  0  0  0  0
 28 29  1  0  0  0  0
 30 28  2  0  0  0  0
 31 34  1  0  0  0  0
 31  2  1  0  0  0  0
 32 31  1  0  0  0  0
 33 31  1  0  0  0  0
M  END
>  <minimizedAffinity>
-6.21360302

$$$$

 OpenBabel03272500203D

 34 36  0  0  0  0  0  0  0  0999 V2000
   38.8050   25.5250   32.4480 C   0  0  0  0  0  0  0  0  0  0  0  0
   38.8260   25.5360   33.8610 C   0  0  0  0  0  0  0  0  0  0  0  0
   38.4900   24.3760   34.5380 C   0  0  0  0  0  0  0  0  0  0  0  0
   38.1540   23.2780   33.7910 N   0  0  0  0  0  0  0  0  0  0  0  0
   38.1390   23.2850   32.4630 C   0  0  0  0  0  0  0  0  0  0  0  0
   38.4600   24.3930   31.7950 N   0  0  0  0  0  0  0  0  0  0  0  0
   39.0680   26.4350   31.9400 H   0  0  0  0  0  0  0  0  0  0  0  0
   35.8020   21.7390   33.6200 Cl  0  0  0  0  0  0  0  0  0  0  0  0
   36.7040   21.2780   32.1740 C   0  0  0  0  0  0  0  0  0  0  0  0
   37.7640   22.0670   31.7370 C   0  0  0  0  0  0  0  0  0  0  0  0
   38.5080   21.7420   30.5970 C   0  0  0  0  0  0  0  0  0  0  0  0
   38.1320   20.5850   29.9230 C   0  0  0  0  0  0  0  0  0  0  0  0
   37.0940   19.7930   30.3330 C   0  0  0  0  0  0  0  0  0  0  0  0
   36.7170   18.3650   29.4020 Cl  0  0  0  0  0  0  0  0  0  0  0  0
   36.3810   20.1510   31.4690 C   0  0  0  0  0  0  0  0  0  0  0  0
   39.3220   22.3510   30.2650 H   0  0  0  0  0  0  0  0  0  0  0  0
   38.7280   20.3630   29.0470 H   0  0  0  0  0  0  0  0  0  0  0  0
   35.2590   19.3010   31.9180 C   0  0  0  0  0  0  0  0  0  0  0  0
   35.1880   18.1360   31.1610 F   0  0  0  0  0  0  0  0  0  0  0  0
   34.0570   19.9600   31.8710 F   0  0  0  0  0  0  0  0  0  0  0  0
   35.4730   18.9040   33.2320 F   0  0  0  0  0  0  0  0  0  0  0  0
   38.4800   24.1300   35.9580 C   0  0  0  0  0  0  0  0  0  0  0  0
   37.7370   24.5190   37.0310 C   0  0  0  0  0  0  0  0  0  0  0  0
   36.8930   25.1100   36.8010 H   0  0  0  0  0  0  0  0  0  0  0  0
   38.0030   24.1600   38.3260 C   0  0  0  0  0  3  0  0  0  0  0  0
   39.0720   23.3520   38.6460 C   0  0  0  0  0  0  0  0  0  0  0  0
   39.1740   23.1410   39.6990 H   0  0  0  0  0  0  0  0  0  0  0  0
   39.8640   22.9200   37.6040 C   0  0  0  0  0  0  0  0  0  0  0  0
   40.6870   22.2910   37.8950 H   0  0  0  0  0  0  0  0  0  0  0  0
   39.5620   23.3060   36.3180 C   0  0  0  0  0  3  0  0  0  0  0  0
   39.2300   26.7780   34.5720 C   0  0  0  0  0  0  0  0  0  0  0  0
   38.1760   27.3110   35.2950 F   0  0  0  0  0  0  0  0  0  0  0  0
   40.2710   26.4850   35.4370 F   0  0  0  0  0  0  0  0  0  0  0  0
   39.6850   27.7540   33.7010 F   0  0  0  0  0  0  0  0  0  0  0  0
  1  2  1  0  0  0  0
  2  3  2  0  0  0  0
  2 31  1  0  0  0  0
  3 22  1  0  0  0  0
  4  3  1  0  0  0  0
  5  4  2  0  0  0  0
  6  1  2  0  0  0  0
  6  5  1  0  0  0  0
  7  1  1  0  0  0  0
  9  8  1  0  0  0  0
 10  9  1  0  0  0  0
 10  5  1  0  0  0  0
 11 10  2  0  0  0  0
 12 13  2  0  0  0  0
 12 11  1  0  0  0  0
 13 15  1  0  0  0  0
 14 13  1  0  0  0  0
 15 18  1  0  0  0  0
 15  9  2  0  0  0  0
 16 11  1  0  0  0  0
 17 12  1  0  0  0  0
 18 21  1  0  0  0  0
 19 18  1  0  0  0  0
 20 18  1  0  0  0  0
 22 30  2  0  0  0  0
 22 23  1  0  0  0  0
 23 25  2  0  0  0  0
 24 23  1  0  0  0  0
 25 26  1  0  0  0  0
 26 27  1  0  0  0  0
 28 29  1  0  0  0  0
 28 26  2  0  0  0  0
 30 28  1  0  0  0  0
 31 32  1  0  0  0  0
 31 33  1  0  0  0  0
 34 31  1  0  0  0  0
M  END
>  <minimizedAffinity>
-6.20509529

$$$$

 OpenBabel03272500203D

 34 36  0  0  0  0  0  0  0  0999 V2000
   39.4140   27.1380   31.1760 C   0  0  0  0  0  0  0  0  0  0  0  0
   38.2070   27.8630   31.3040 C   0  0  0  0  0  0  0  0  0  0  0  0
   37.4260   27.6580   32.4290 C   0  0  0  0  0  0  0  0  0  0  0  0
   37.8750   26.7570   33.3580 N   0  0  0  0  0  0  0  0  0  0  0  0
   39.0120   26.0830   33.2220 C   0  0  0  0  0  0  0  0  0  0  0  0
   39.7750   26.2690   32.1450 N   0  0  0  0  0  0  0  0  0  0  0  0
   40.0050   27.3110   30.2950 H   0  0  0  0  0  0  0  0  0  0  0  0
   37.2050   25.9470   35.6520 Cl  0  0  0  0  0  0  0  0  0  0  0  0
   38.6650   24.9830   35.4220 C   0  0  0  0  0  0  0  0  0  0  0  0
   39.4200   25.1320   34.2620 C   0  0  0  0  0  0  0  0  0  0  0  0
   40.5850   24.3910   34.0350 C   0  0  0  0  0  0  0  0  0  0  0  0
   40.9490   23.4930   35.0330 C   0  0  0  0  0  0  0  0  0  0  0  0
   40.2240   23.3280   36.1820 C   0  0  0  0  0  0  0  0  0  0  0  0
   40.7850   22.1690   37.3610 Cl  0  0  0  0  0  0  0  0  0  0  0  0
   39.0750   24.0830   36.3680 C   0  0  0  0  0  0  0  0  0  0  0  0
   41.1620   24.5090   33.1420 H   0  0  0  0  0  0  0  0  0  0  0  0
   41.8540   22.9360   34.8250 H   0  0  0  0  0  0  0  0  0  0  0  0
   38.2870   23.9100   37.6060 C   0  0  0  0  0  0  0  0  0  0  0  0
   37.0770   23.2790   37.3370 F   0  0  0  0  0  0  0  0  0  0  0  0
   38.0590   25.1010   38.2470 F   0  0  0  0  0  0  0  0  0  0  0  0
   38.9760   23.0820   38.4840 F   0  0  0  0  0  0  0  0  0  0  0  0
   36.1930   28.3020   32.8030 C   0  0  0  0  0  0  0  0  0  0  0  0
   34.9440   28.4430   32.2790 C   0  0  0  0  0  0  0  0  0  0  0  0
   34.7670   27.8980   31.3910 H   0  0  0  0  0  0  0  0  0  0  0  0
   33.9470   29.1890   32.8460 C   0  0  0  0  0  3  0  0  0  0  0  0
   34.1390   29.8720   34.0280 C   0  0  0  0  0  0  0  0  0  0  0  0
   33.2780   30.4230   34.3720 H   0  0  0  0  0  0  0  0  0  0  0  0
   35.3820   29.7700   34.6130 C   0  0  0  0  0  0  0  0  0  0  0  0
   35.4930   30.3150   35.5340 H   0  0  0  0  0  0  0  0  0  0  0  0
   36.3570   29.0100   34.0080 C   0  0  0  0  0  3  0  0  0  0  0  0
   37.8270   28.8360   30.2450 C   0  0  0  0  0  0  0  0  0  0  0  0
   36.7520   28.3790   29.5020 F   0  0  0  0  0  0  0  0  0  0  0  0
   37.4890   30.0410   30.8390 F   0  0  0  0  0  0  0  0  0  0  0  0
   38.8710   29.0910   29.3720 F   0  0  0  0  0  0  0  0  0  0  0  0
  1  2  2  0  0  0  0
  1  6  1  0  0  0  0
  2  3  1  0  0  0  0
  3 22  1  0  0  0  0
  3  4  2  0  0  0  0
  5  4  1  0  0  0  0
  5 10  1  0  0  0  0
  6  5  2  0  0  0  0
  7  1  1  0  0  0  0
  9  8  1  0  0  0  0
  9 15  1  0  0  0  0
 10  9  2  0  0  0  0
 11 10  1  0  0  0  0
 11 12  2  0  0  0  0
 12 13  1  0  0  0  0
 13 15  2  0  0  0  0
 13 14  1  0  0  0  0
 15 18  1  0  0  0  0
 16 11  1  0  0  0  0
 17 12  1  0  0  0  0
 18 20  1  0  0  0  0
 18 21  1  0  0  0  0
 19 18  1  0  0  0  0
 22 30  1  0  0  0  0
 23 22  2  0  0  0  0
 23 25  1  0  0  0  0
 24 23  1  0  0  0  0
 25 26  2  0  0  0  0
 26 27  1  0  0  0  0
 26 28  1  0  0  0  0
 28 29  1  0  0  0  0
 30 28  2  0  0  0  0
 31 33  1  0  0  0  0
 31  2  1  0  0  0  0
 32 31  1  0  0  0  0
 34 31  1  0  0  0  0
M  END
>  <minimizedAffinity>
-6.1865778

$$$$

 OpenBabel03272500203D

 34 36  0  0  0  0  0  0  0  0999 V2000
   36.8930   28.9400   30.4990 C   0  0  0  0  0  0  0  0  0  0  0  0
   36.2490   29.7950   31.4210 C   0  0  0  0  0  0  0  0  0  0  0  0
   35.9050   29.2930   32.6650 C   0  0  0  0  0  0  0  0  0  0  0  0
   36.2140   27.9850   32.9290 N   0  0  0  0  0  0  0  0  0  0  0  0
   36.8200   27.1930   32.0510 C   0  0  0  0  0  0  0  0  0  0  0  0
   37.1570   27.6610   30.8490 N   0  0  0  0  0  0  0  0  0  0  0  0
   37.1510   29.3480   29.5390 H   0  0  0  0  0  0  0  0  0  0  0  0
   35.0230   25.1090   30.7800 Cl  0  0  0  0  0  0  0  0  0  0  0  0
   36.3540   24.7590   31.8860 C   0  0  0  0  0  0  0  0  0  0  0  0
   37.1120   25.8020   32.4110 C   0  0  0  0  0  0  0  0  0  0  0  0
   38.1760   25.5740   33.2910 C   0  0  0  0  0  0  0  0  0  0  0  0
   38.4370   24.2460   33.6140 C   0  0  0  0  0  0  0  0  0  0  0  0
   37.7060   23.2040   33.1110 C   0  0  0  0  0  0  0  0  0  0  0  0
   38.1300   21.5810   33.5910 Cl  0  0  0  0  0  0  0  0  0  0  0  0
   36.6590   23.4730   32.2410 C   0  0  0  0  0  0  0  0  0  0  0  0
   38.7560   26.3780   33.6920 H   0  0  0  0  0  0  0  0  0  0  0  0
   39.2650   24.1050   34.2960 H   0  0  0  0  0  0  0  0  0  0  0  0
   35.8650   22.3530   31.6930 C   0  0  0  0  0  0  0  0  0  0  0  0
   35.1120   22.7690   30.6010 F   0  0  0  0  0  0  0  0  0  0  0  0
   35.0450   21.7880   32.6370 F   0  0  0  0  0  0  0  0  0  0  0  0
   36.7200   21.3620   31.2280 F   0  0  0  0  0  0  0  0  0  0  0  0
   35.2890   29.9730   33.7750 C   0  0  0  0  0  0  0  0  0  0  0  0
   35.6800   30.8300   34.7590 C   0  0  0  0  0  0  0  0  0  0  0  0
   36.6800   31.1620   34.6930 H   0  0  0  0  0  0  0  0  0  0  0  0
   34.8600   31.2880   35.7560 C   0  0  0  0  0  3  0  0  0  0  0  0
   33.5390   30.9050   35.8370 C   0  0  0  0  0  0  0  0  0  0  0  0
   32.9980   31.3340   36.6660 H   0  0  0  0  0  0  0  0  0  0  0  0
   33.0780   30.0390   34.8690 C   0  0  0  0  0  0  0  0  0  0  0  0
   32.0420   29.7660   34.9660 H   0  0  0  0  0  0  0  0  0  0  0  0
   33.9360   29.6020   33.8860 C   0  0  0  0  0  3  0  0  0  0  0  0
   35.9820   31.2080   31.0380 C   0  0  0  0  0  0  0  0  0  0  0  0
   36.7160   32.0890   31.8140 F   0  0  0  0  0  0  0  0  0  0  0  0
   36.3190   31.3860   29.7070 F   0  0  0  0  0  0  0  0  0  0  0  0
   34.6440   31.5390   31.1680 F   0  0  0  0  0  0  0  0  0  0  0  0
  1  6  2  0  0  0  0
  1  2  1  0  0  0  0
  2  3  2  0  0  0  0
  3  4  1  0  0  0  0
  3 22  1  0  0  0  0
  5 10  1  0  0  0  0
  5  4  2  0  0  0  0
  6  5  1  0  0  0  0
  7  1  1  0  0  0  0
  8  9  1  0  0  0  0
  9 15  2  0  0  0  0
  9 10  1  0  0  0  0
 10 11  2  0  0  0  0
 11 12  1  0  0  0  0
 11 16  1  0  0  0  0
 12 17  1  0  0  0  0
 13 14  1  0  0  0  0
 13 12  2  0  0  0  0
 15 13  1  0  0  0  0
 18 15  1  0  0  0  0
 18 20  1  0  0  0  0
 19 18  1  0  0  0  0
 21 18  1  0  0  0  0
 22 30  2  0  0  0  0
 22 23  1  0  0  0  0
 23 25  2  0  0  0  0
 24 23  1  0  0  0  0
 25 26  1  0  0  0  0
 26 27  1  0  0  0  0
 28 29  1  0  0  0  0
 28 26  2  0  0  0  0
 30 28  1  0  0  0  0
 31 34  1  0  0  0  0
 31  2  1  0  0  0  0
 31 32  1  0  0  0  0
 33 31  1  0  0  0  0
M  END
>  <minimizedAffinity>
-6.13531542

$$$$
