
 OpenBabel03272510233D

 31 34  0  0  0  0  0  0  0  0999 V2000
   36.0900   30.1580   46.1930 C   0  0  0  0  0  0  0  0  0  0  0  0
   37.0910   30.9450   46.7260 C   0  0  0  0  0  0  0  0  0  0  0  0
   37.7490   31.8460   45.9320 C   0  0  0  0  0  0  0  0  0  0  0  0
   37.3830   31.9390   44.5940 C   0  0  0  0  0  0  0  0  0  0  0  0
   37.8920   32.7530   43.6280 N   0  0  0  0  0  0  0  0  0  0  0  0
   37.2160   32.4800   42.4920 C   0  0  0  0  0  0  0  0  0  0  0  0
   36.3040   31.5250   42.7180 N   0  0  0  0  0  0  0  0  0  0  0  0
   36.3890   31.1730   44.0180 C   0  0  0  0  0  0  0  0  0  0  0  0
   35.7360   30.2650   44.8480 C   0  0  0  0  0  0  0  0  0  0  0  0
   35.5060   29.4140   46.7310 H   0  0  0  0  0  0  0  0  0  0  0  0
   38.5250   32.4560   46.3440 H   0  0  0  0  0  0  0  0  0  0  0  0
   38.6690   33.4570   43.7630 H   0  0  0  0  0  0  0  0  0  0  0  0
   34.9490   29.6560   44.4020 H   0  0  0  0  0  0  0  0  0  0  0  0
   38.4280   31.3060   50.2190 C   0  0  0  0  0  0  0  0  0  0  0  0
   38.2220   31.5860   48.8690 C   0  0  0  0  0  0  0  0  0  0  0  0
   37.3800   30.7510   48.1420 C   0  0  0  0  0  0  0  0  0  0  0  0
   36.8040   29.7100   48.7890 N   0  0  0  0  0  0  0  0  0  0  0  0
   37.0150   29.4540   50.1020 C   0  0  0  0  0  0  0  0  0  0  0  0
   37.8210   30.2490   50.8010 N   0  0  0  0  0  0  0  0  0  0  0  0
   39.0670   31.9170   50.8220 H   0  0  0  0  0  0  0  0  0  0  0  0
   38.6900   32.4150   48.3800 H   0  0  0  0  0  0  0  0  0  0  0  0
   36.4730   28.5770   50.4590 H   0  0  0  0  0  0  0  0  0  0  0  0
   37.4180   33.1090   41.1910 C   0  0  0  0  0  0  0  0  0  0  0  0
   38.6380   33.0570   40.5230 C   0  0  0  0  0  0  0  0  0  0  0  0
   39.4380   32.5150   41.0310 H   0  0  0  0  0  0  0  0  0  0  0  0
   38.8870   33.6290   39.2970 C   0  0  0  0  0  3  0  0  0  0  0  0
   37.8660   34.3100   38.6700 C   0  0  0  0  0  0  0  0  0  0  0  0
   38.1420   34.7300   37.7120 H   0  0  0  0  0  0  0  0  0  0  0  0
   36.6420   34.3840   39.3010 C   0  0  0  0  0  0  0  0  0  0  0  0
   35.8970   34.9350   38.7420 H   0  0  0  0  0  0  0  0  0  0  0  0
   36.4280   33.7970   40.5320 C   0  0  0  0  0  3  0  0  0  0  0  0
  1  2  1  0  0  0  0
  1 10  1  0  0  0  0
  2 16  1  0  0  0  0
  3 11  1  0  0  0  0
  3  2  2  0  0  0  0
  4  3  1  0  0  0  0
  5 12  1  0  0  0  0
  5  4  1  0  0  0  0
  6  7  2  0  0  0  0
  6  5  1  0  0  0  0
  7  8  1  0  0  0  0
  8  4  2  0  0  0  0
  8  9  1  0  0  0  0
  9  1  2  0  0  0  0
 13  9  1  0  0  0  0
 14 19  1  0  0  0  0
 14 20  1  0  0  0  0
 15 14  2  0  0  0  0
 16 17  2  0  0  0  0
 16 15  1  0  0  0  0
 17 18  1  0  0  0  0
 18 22  1  0  0  0  0
 18 19  2  0  0  0  0
 21 15  1  0  0  0  0
 23  6  1  0  0  0  0
 24 25  1  0  0  0  0
 24 23  2  0  0  0  0
 26 24  1  0  0  0  0
 27 26  2  0  0  0  0
 27 29  1  0  0  0  0
 28 27  1  0  0  0  0
 29 31  2  0  0  0  0
 30 29  1  0  0  0  0
 31 23  1  0  0  0  0
M  END
>  <minimizedAffinity>
-4.9585743

>  <minimizedRMSD>
3.56128287

$$$$
