
 OpenBabel03272501273D

 39 42  0  0  1  0  0  0  0  0999 V2000
   34.8640   29.9070   47.3750 C   0  0  0  0  0  0  0  0  0  0  0  0
   35.5020   29.9710   46.1340 C   0  0  0  0  0  0  0  0  0  0  0  0
   36.7120   30.6480   46.3170 C   0  0  0  0  0  0  0  0  0  0  0  0
   36.7640   30.9620   47.6260 N   0  0  0  0  0  0  0  0  0  0  0  0
   35.6650   30.5110   48.2130 N   0  0  0  0  0  0  0  0  0  0  0  0
   35.1400   29.5780   45.2040 H   0  0  0  0  0  0  0  0  0  0  0  0
   37.4760   30.8920   45.5950 H   0  0  0  0  0  0  0  0  0  0  0  0
   38.4870   32.6330   47.5350 N   0  0  0  0  0  0  0  0  0  0  0  0
   39.1530   33.4890   48.5090 C   0  0  0  0  0  0  0  0  0  0  0  0
   38.4890   33.2750   49.8440 C   0  0  0  0  0  0  0  0  0  0  0  0
   37.2380   32.4900   49.4590 C   0  0  0  0  0  0  0  0  0  0  0  0
   37.7770   31.6500   48.3460 C   0  0  1  0  0  0  0  0  0  0  0  0
   39.2020   32.0780   47.0030 H   0  0  0  0  0  0  0  0  0  0  0  0
   39.1710   34.5590   48.1960 H   0  0  0  0  0  0  0  0  0  0  0  0
   40.2090   33.1270   48.6150 H   0  0  0  0  0  0  0  0  0  0  0  0
   39.1090   32.7420   50.5780 H   0  0  0  0  0  0  0  0  0  0  0  0
   38.1120   34.2050   50.3140 H   0  0  0  0  0  0  0  0  0  0  0  0
   36.9070   31.8430   50.3120 H   0  0  0  0  0  0  0  0  0  0  0  0
   36.4150   33.1510   49.1890 H   0  0  0  0  0  0  0  0  0  0  0  0
   38.7020   30.6820   48.9000 N   0  0  0  0  0  0  0  0  0  0  0  0
   39.5400   31.1030   49.3320 H   0  0  0  0  0  0  0  0  0  0  0  0
   38.1660   30.0670   49.5300 H   0  0  0  0  0  0  0  0  0  0  0  0
   33.2730   28.4410   48.6310 C   0  0  0  0  0  0  0  0  0  0  0  0
   33.5700   29.2630   47.5410 C   0  0  0  0  0  0  0  0  0  0  0  0
   32.5740   29.4600   46.5890 C   0  0  0  0  0  0  0  0  0  0  0  0
   31.3840   28.8320   46.7980 N   0  0  0  0  0  0  0  0  0  0  0  0
   31.1360   28.0480   47.8600 C   0  0  0  0  0  0  0  0  0  0  0  0
   32.1050   27.8500   48.7970 N   0  0  0  0  0  0  0  0  0  0  0  0
   34.1050   28.3430   49.3250 H   0  0  0  0  0  0  0  0  0  0  0  0
   32.7520   30.0880   45.7230 H   0  0  0  0  0  0  0  0  0  0  0  0
   29.8380   27.4280   47.9860 C   0  0  0  0  0  0  0  0  0  0  0  0
   29.2230   26.7790   46.9370 C   0  0  0  0  0  0  0  0  0  0  0  0
   29.7530   26.7450   45.9930 H   0  0  0  0  0  0  0  0  0  0  0  0
   27.9830   26.1800   47.0320 C   0  0  0  0  0  0  0  0  0  0  0  0
   27.3920   26.2780   48.2750 C   0  0  0  0  0  0  0  0  0  0  0  0
   26.4030   25.8280   48.4440 H   0  0  0  0  0  0  0  0  0  0  0  0
   27.9480   26.9150   49.3830 C   0  0  0  0  0  0  0  0  0  0  0  0
   27.4070   26.9410   50.3190 H   0  0  0  0  0  0  0  0  0  0  0  0
   29.2060   27.5020   49.2180 C   0  0  0  0  0  0  0  0  0  0  0  0
  1 24  1  0  0  0  0
  1  5  2  0  0  0  0
  2  3  2  0  0  0  0
  2  1  1  0  0  0  0
  3  4  1  0  0  0  0
  4  5  1  0  0  0  0
  4 12  1  0  0  0  0
  6  2  1  0  0  0  0
  7  3  1  0  0  0  0
  8 12  1  0  0  0  0
  8  9  1  0  0  0  0
  9 15  1  0  0  0  0
  9 10  1  0  0  0  0
 10 17  1  0  0  0  0
 10 16  1  0  0  0  0
 11 10  1  0  0  0  0
 11 18  1  0  0  0  0
 12 20  1  1  0  0  0
 12 11  1  0  0  0  0
 13  8  1  0  0  0  0
 14  9  1  0  0  0  0
 19 11  1  0  0  0  0
 20 21  1  0  0  0  0
 20 22  1  0  0  0  0
 23 28  1  0  0  0  0
 23 29  1  0  0  0  0
 24 23  2  0  0  0  0
 25 26  2  0  0  0  0
 25 24  1  0  0  0  0
 26 27  1  0  0  0  0
 27 31  1  0  0  0  0
 27 28  2  0  0  0  0
 30 25  1  0  0  0  0
 31 39  1  0  0  0  0
 32 34  1  0  0  0  0
 32 31  2  0  0  0  0
 33 32  1  0  0  0  0
 34 35  2  0  0  0  0
 35 36  1  0  0  0  0
 35 37  1  0  0  0  0
 37 38  1  0  0  0  0
 39 37  2  0  0  0  0
M  END
>  <minimizedAffinity>
-5.95030355

>  <minimizedRMSD>
0.60893923

$$$$
