REMARK  Name = 
REMARK  2 active torsions:
REMARK  status: ('A' for Active; 'I' for Inactive)
REMARK    1  A    between atoms: C_2  and  C_12
REMARK    2  A    between atoms: C_6  and  C_23
REMARK                            x       y       z     vdW  Elec       q    Type
REMARK                         _______ _______ _______ _____ _____    ______ ____
ROOT
ATOM      1  C   UNL     1      37.058  30.719  46.783  0.00  0.00    +0.000 A 
ATOM      2  C   UNL     1      37.707  31.147  47.924  0.00  0.00    +0.000 A 
ATOM      3  C   UNL     1      38.719  32.064  47.832  0.00  0.00    +0.000 A 
ATOM      4  C   UNL     1      39.066  32.541  46.574  0.00  0.00    +0.000 A 
ATOM      5  N   UNL     1      40.029  33.446  46.244  0.00  0.00    +0.000 N 
ATOM      6  C   UNL     1      39.989  33.588  44.902  0.00  0.00    +0.000 A 
ATOM      7  N   UNL     1      39.033  32.803  44.386  0.00  0.00    +0.000 NA
ATOM      8  C   UNL     1      38.446  32.143  45.406  0.00  0.00    +0.000 A 
ATOM      9  C   UNL     1      37.420  31.209  45.529  0.00  0.00    +0.000 A 
ATOM     10  H   UNL     1      36.244  29.997  46.742  0.00  0.00    +0.000 HD
ATOM     11  H   UNL     1      39.222  32.396  48.716  0.00  0.00    +0.000 HD
ATOM     12  H   UNL     1      40.676  33.933  46.925  0.00  0.00    +0.000 HD
ATOM     13  H   UNL     1      36.924  30.888  44.612  0.00  0.00    +0.000 HD
ENDROOT
BRANCH   2  16
ATOM     14  C   UNL     1      37.378  30.161  51.535  0.00  0.00    +0.000 A 
ATOM     15  C   UNL     1      37.906  30.761  50.393  0.00  0.00    +0.000 A 
ATOM     16  C   UNL     1      37.248  30.570  49.182  0.00  0.00    +0.000 A 
ATOM     17  N   UNL     1      36.127  29.810  49.182  0.00  0.00    +0.000 NA
ATOM     18  C   UNL     1      35.629  29.235  50.302  0.00  0.00    +0.000 A 
ATOM     19  N   UNL     1      36.255  29.414  51.462  0.00  0.00    +0.000 NA
ATOM     20  H   UNL     1      37.847  30.277  52.490  0.00  0.00    +0.000 HD
ATOM     21  H   UNL     1      38.794  31.357  50.419  0.00  0.00    +0.000 HD
ATOM     22  H   UNL     1      34.721  28.658  50.119  0.00  0.00    +0.000 HD
ENDBRANCH   2  16
BRANCH   6  23
ATOM     23  C   UNL     1      40.840  34.456  44.096  0.00  0.00    +0.000 A 
ATOM     24  C   UNL     1      41.825  35.261  44.661  0.00  0.00    +0.000 A 
ATOM     25  H   UNL     1      41.924  35.205  45.747  0.00  0.00    +0.000 HD
ATOM     26  C   UNL     1      42.656  36.098  43.953  0.00  0.00    +0.000 A 
ATOM     27  C   UNL     1      42.518  36.157  42.583  0.00  0.00    +0.000 A 
ATOM     28  H   UNL     1      43.208  36.838  42.101  0.00  0.00    +0.000 HD
ATOM     29  C   UNL     1      41.553  35.374  41.987  0.00  0.00    +0.000 A 
ATOM     30  H   UNL     1      41.511  35.479  40.911  0.00  0.00    +0.000 HD
ATOM     31  C   UNL     1      40.736  34.545  42.729  0.00  0.00    +0.000 A 
ENDBRANCH   6  23
TORSDOF 2
