
 OpenBabel03272509133D

 40 43  0  0  1  0  0  0  0  0999 V2000
   37.1310   31.6660   48.1380 N   0  0  0  0  0  0  0  0  0  0  0  0
   38.2230   32.5790   48.5440 C   0  0  0  0  0  0  0  0  0  0  0  0
   38.8570   31.8410   49.7020 C   0  0  0  0  0  0  0  0  0  0  0  0
   37.6710   31.1700   50.3760 C   0  0  0  0  0  0  0  0  0  0  0  0
   36.5140   31.4690   49.4360 C   0  0  2  0  0  0  0  0  0  0  0  0
   38.9400   32.6840   47.7080 H   0  0  0  0  0  0  0  0  0  0  0  0
   37.7690   33.5240   48.8580 H   0  0  0  0  0  0  0  0  0  0  0  0
   39.3500   32.5960   50.3330 H   0  0  0  0  0  0  0  0  0  0  0  0
   39.5420   31.0580   49.3330 H   0  0  0  0  0  0  0  0  0  0  0  0
   37.4440   31.6910   51.3360 H   0  0  0  0  0  0  0  0  0  0  0  0
   37.8260   30.0980   50.5450 H   0  0  0  0  0  0  0  0  0  0  0  0
   35.9670   32.3730   49.7750 H   0  0  0  0  0  0  0  0  0  0  0  0
   35.6600   30.2600   49.4890 C   0  0  0  0  0  0  0  0  0  0  0  0
   36.1280   28.9710   49.3370 C   0  0  0  0  0  0  0  0  0  0  0  0
   37.2050   28.8250   49.1640 H   0  0  0  0  0  0  0  0  0  0  0  0
   35.3430   27.8370   49.3850 C   0  0  0  0  0  0  0  0  0  0  0  0
   33.9880   27.9720   49.5990 C   0  0  0  0  0  0  0  0  0  0  0  0
   33.3540   27.1110   49.6410 H   0  0  0  0  0  0  0  0  0  0  0  0
   33.4540   29.2530   49.7600 C   0  0  0  0  0  0  0  0  0  0  0  0
   32.3890   29.3280   49.9260 H   0  0  0  0  0  0  0  0  0  0  0  0
   34.3000   30.3160   49.6990 C   0  0  0  0  0  0  0  0  0  0  0  0
   35.3450   30.5170   47.0440 C   0  0  0  0  0  0  0  0  0  0  0  0
   36.6590   31.0580   46.9560 C   0  0  0  0  0  0  0  0  0  0  0  0
   37.3260   30.9210   45.7360 C   0  0  0  0  0  0  0  0  0  0  0  0
   36.6890   30.2830   44.7120 N   0  0  0  0  0  0  0  0  0  0  0  0
   35.4490   29.7860   44.8330 C   0  0  0  0  0  0  0  0  0  0  0  0
   34.7810   29.9040   46.0010 N   0  0  0  0  0  0  0  0  0  0  0  0
   34.7420   30.5750   47.9350 H   0  0  0  0  0  0  0  0  0  0  0  0
   34.9420   29.2760   44.0130 H   0  0  0  0  0  0  0  0  0  0  0  0
   38.6480   31.4360   45.5330 C   0  0  0  0  0  0  0  0  0  0  0  0
   38.7950   32.7070   45.0310 C   0  0  0  0  0  0  0  0  0  0  0  0
   40.0240   33.2960   44.8000 C   0  0  0  0  0  0  0  0  0  0  0  0
   41.1390   32.5320   45.1050 C   0  0  0  0  0  0  0  0  0  0  0  0
   41.0750   31.2300   45.6190 C   0  0  0  0  0  0  0  0  0  0  0  0
   39.7860   30.7260   45.8160 C   0  0  0  0  0  0  0  0  0  0  0  0
   37.9350   33.3460   44.7760 H   0  0  0  0  0  0  0  0  0  0  0  0
   40.1350   34.2830   44.4110 H   0  0  0  0  0  0  0  0  0  0  0  0
   42.1320   32.9440   44.9440 H   0  0  0  0  0  0  0  0  0  0  0  0
   41.9780   30.6760   45.8400 H   0  0  0  0  0  0  0  0  0  0  0  0
   39.7480   29.7260   46.2090 H   0  0  0  0  0  0  0  0  0  0  0  0
  1  2  1  0  0  0  0
  1  5  1  0  0  0  0
  2  7  1  0  0  0  0
  2  3  1  0  0  0  0
  3  8  1  0  0  0  0
  3  4  1  0  0  0  0
  4 11  1  0  0  0  0
  4 10  1  0  0  0  0
  5 13  1  0  0  0  0
  5 12  1  1  0  0  0
  5  4  1  0  0  0  0
  6  2  1  0  0  0  0
  9  3  1  0  0  0  0
 13 21  1  0  0  0  0
 14 16  1  0  0  0  0
 14 13  2  0  0  0  0
 15 14  1  0  0  0  0
 16 17  2  0  0  0  0
 17 18  1  0  0  0  0
 17 19  1  0  0  0  0
 19 20  1  0  0  0  0
 21 19  2  0  0  0  0
 22 28  1  0  0  0  0
 23 22  1  0  0  0  0
 23  1  1  0  0  0  0
 24 23  2  0  0  0  0
 25 26  2  0  0  0  0
 25 24  1  0  0  0  0
 26 27  1  0  0  0  0
 27 22  2  0  0  0  0
 29 26  1  0  0  0  0
 30 24  1  0  0  0  0
 30 35  1  0  0  0  0
 31 30  2  0  0  0  0
 32 31  1  0  0  0  0
 32 33  2  0  0  0  0
 33 34  1  0  0  0  0
 34 35  2  0  0  0  0
 34 39  1  0  0  0  0
 35 40  1  0  0  0  0
 36 31  1  0  0  0  0
 37 32  1  0  0  0  0
 38 33  1  0  0  0  0
M  END
>  <minimizedAffinity>
-5.73755741

>  <minimizedRMSD>
1.15714693

$$$$
