
 OpenBabel03272510233D

 31 34  0  0  0  0  0  0  0  0999 V2000
   35.6830   29.8550   46.9490 C   0  0  0  0  0  0  0  0  0  0  0  0
   36.6820   30.6050   47.5360 C   0  0  0  0  0  0  0  0  0  0  0  0
   37.3920   31.5040   46.7870 C   0  0  0  0  0  0  0  0  0  0  0  0
   37.0790   31.6330   45.4390 C   0  0  0  0  0  0  0  0  0  0  0  0
   37.6450   32.4540   44.5110 N   0  0  0  0  0  0  0  0  0  0  0  0
   37.0080   32.2210   43.3440 C   0  0  0  0  0  0  0  0  0  0  0  0
   36.0640   31.2860   43.5150 N   0  0  0  0  0  0  0  0  0  0  0  0
   36.0900   30.9050   44.8090 C   0  0  0  0  0  0  0  0  0  0  0  0
   35.3830   29.9980   45.5950 C   0  0  0  0  0  0  0  0  0  0  0  0
   35.0590   29.1150   47.4500 H   0  0  0  0  0  0  0  0  0  0  0  0
   38.1660   32.0860   47.2420 H   0  0  0  0  0  0  0  0  0  0  0  0
   38.4340   33.1350   44.6900 H   0  0  0  0  0  0  0  0  0  0  0  0
   34.5990   29.4180   45.1070 H   0  0  0  0  0  0  0  0  0  0  0  0
   38.1420   30.5760   50.9980 C   0  0  0  0  0  0  0  0  0  0  0  0
   38.0250   30.8560   49.6380 C   0  0  0  0  0  0  0  0  0  0  0  0
   36.9100   30.3750   48.9580 C   0  0  0  0  0  0  0  0  0  0  0  0
   35.9990   29.6600   49.6600 N   0  0  0  0  0  0  0  0  0  0  0  0
   36.1300   29.3980   50.9810 C   0  0  0  0  0  0  0  0  0  0  0  0
   37.1940   29.8550   51.6360 N   0  0  0  0  0  0  0  0  0  0  0  0
   38.9810   30.9220   51.5660 H   0  0  0  0  0  0  0  0  0  0  0  0
   38.7600   31.4230   49.1060 H   0  0  0  0  0  0  0  0  0  0  0  0
   35.3040   28.8090   51.3850 H   0  0  0  0  0  0  0  0  0  0  0  0
   37.2750   32.8710   42.0650 C   0  0  0  0  0  0  0  0  0  0  0  0
   36.2890   33.5580   41.3630 C   0  0  0  0  0  0  0  0  0  0  0  0
   35.3010   33.5840   41.8260 H   0  0  0  0  0  0  0  0  0  0  0  0
   36.4810   34.1900   40.1550 C   0  0  0  0  0  3  0  0  0  0  0  0
   37.7350   34.1490   39.5850 C   0  0  0  0  0  0  0  0  0  0  0  0
   37.8030   34.6680   38.6370 H   0  0  0  0  0  0  0  0  0  0  0  0
   38.7380   33.4770   40.2500 C   0  0  0  0  0  0  0  0  0  0  0  0
   39.6880   33.4920   39.7350 H   0  0  0  0  0  0  0  0  0  0  0  0
   38.5090   32.8540   41.4610 C   0  0  0  0  0  3  0  0  0  0  0  0
  1 10  1  0  0  0  0
  1  2  1  0  0  0  0
  2 16  1  0  0  0  0
  3 11  1  0  0  0  0
  3  2  2  0  0  0  0
  4  3  1  0  0  0  0
  5 12  1  0  0  0  0
  5  4  1  0  0  0  0
  6  7  2  0  0  0  0
  6  5  1  0  0  0  0
  7  8  1  0  0  0  0
  8  4  2  0  0  0  0
  8  9  1  0  0  0  0
  9  1  2  0  0  0  0
 13  9  1  0  0  0  0
 14 20  1  0  0  0  0
 14 19  1  0  0  0  0
 15 14  2  0  0  0  0
 16 15  1  0  0  0  0
 16 17  2  0  0  0  0
 17 18  1  0  0  0  0
 18 22  1  0  0  0  0
 18 19  2  0  0  0  0
 21 15  1  0  0  0  0
 23  6  1  0  0  0  0
 24 25  1  0  0  0  0
 24 23  2  0  0  0  0
 26 24  1  0  0  0  0
 27 26  2  0  0  0  0
 27 29  1  0  0  0  0
 28 27  1  0  0  0  0
 29 31  2  0  0  0  0
 30 29  1  0  0  0  0
 31 23  1  0  0  0  0
M  END
>  <minimizedAffinity>
-4.80331516

>  <minimizedRMSD>
3.3275106

$$$$
