
 OpenBabel03272502203D

 28 30  0  0  0  0  0  0  0  0999 V2000
   37.6970   31.7220   46.7630 C   0  0  0  0  0  0  0  0  0  0  0  0
   37.9300   31.5610   45.3820 C   0  0  0  0  0  0  0  0  0  0  0  0
   37.1160   30.6430   44.6970 C   0  0  0  0  0  0  0  0  0  0  0  0
   36.1590   29.9670   45.3920 N   0  0  0  0  0  0  0  0  0  0  0  0
   35.9770   30.1610   46.7160 C   0  0  0  0  0  0  0  0  0  0  0  0
   36.7430   31.0370   47.4120 N   0  0  0  0  0  0  0  0  0  0  0  0
   38.7000   32.1180   44.8710 H   0  0  0  0  0  0  0  0  0  0  0  0
   37.3010   30.5290   43.6510 H   0  0  0  0  0  0  0  0  0  0  0  0
   36.8260   29.3810   49.6290 Br  0  0  0  0  0  0  0  0  0  0  0  0
   35.1650   29.0200   48.7600 C   0  0  0  0  0  0  0  0  0  0  0  0
   34.9510   29.4350   47.4590 C   0  0  0  0  0  0  0  0  0  0  0  0
   33.7180   29.1290   46.9030 C   0  0  0  0  0  0  0  0  0  0  0  0
   32.7170   28.4480   47.5630 C   0  0  0  0  0  0  0  0  0  0  0  0
   32.9860   28.0550   48.8700 C   0  0  0  0  0  0  0  0  0  0  0  0
   34.2180   28.3450   49.4640 C   0  0  0  0  0  0  0  0  0  0  0  0
   33.5860   29.4690   45.8840 H   0  0  0  0  0  0  0  0  0  0  0  0
   31.7790   28.2450   47.0640 H   0  0  0  0  0  0  0  0  0  0  0  0
   32.2160   27.5220   49.4010 H   0  0  0  0  0  0  0  0  0  0  0  0
   34.3350   27.9990   50.4820 H   0  0  0  0  0  0  0  0  0  0  0  0
   38.4920   32.6510   47.5560 C   0  0  0  0  0  0  0  0  0  0  0  0
   38.1820   32.8090   48.8910 C   0  0  0  0  0  0  0  0  0  0  0  0
   37.3790   32.2800   49.3850 H   0  0  0  0  0  0  0  0  0  0  0  0
   38.8940   33.6790   49.7240 C   0  0  0  0  0  0  0  0  0  0  0  0
   39.9450   34.4170   49.2200 C   0  0  0  0  0  0  0  0  0  0  0  0
   40.4620   35.0750   49.9070 H   0  0  0  0  0  0  0  0  0  0  0  0
   40.2600   34.2660   47.8950 C   0  0  0  0  0  0  0  0  0  0  0  0
   41.0710   34.8360   47.5060 H   0  0  0  0  0  0  0  0  0  0  0  0
   39.5480   33.4090   47.1010 C   0  0  0  0  0  0  0  0  0  0  0  0
  1  6  1  0  0  0  0
  1 20  1  0  0  0  0
  2  1  2  0  0  0  0
  3  2  1  0  0  0  0
  3  4  2  0  0  0  0
  4  5  1  0  0  0  0
  5  6  2  0  0  0  0
  5 11  1  0  0  0  0
  7  2  1  0  0  0  0
  8  3  1  0  0  0  0
 10 15  1  0  0  0  0
 10  9  1  0  0  0  0
 11 10  2  0  0  0  0
 12 11  1  0  0  0  0
 12 13  2  0  0  0  0
 13 14  1  0  0  0  0
 14 18  1  0  0  0  0
 14 15  2  0  0  0  0
 15 19  1  0  0  0  0
 16 12  1  0  0  0  0
 17 13  1  0  0  0  0
 20 21  1  0  0  0  0
 21 22  1  0  0  0  0
 21 23  2  0  0  0  0
 24 23  1  0  0  0  0
 24 25  1  0  0  0  0
 26 24  2  0  0  0  0
 27 26  1  0  0  0  0
 28 20  2  0  0  0  0
 28 26  1  0  0  0  0
M  END
>  <minimizedAffinity>
-5.35759449

>  <minimizedRMSD>
2.93404412

$$$$
