
 OpenBabel03272510213D

 36 39  0  0  0  0  0  0  0  0999 V2000
   37.4090   29.1720   50.8070 Br  0  0  0  0  0  0  0  0  0  0  0  0
   35.9960   29.2750   49.5300 C   0  0  0  0  0  0  0  0  0  0  0  0
   35.9920   30.2800   48.5670 C   0  0  0  0  0  0  0  0  0  0  0  0
   34.9350   30.2910   47.6750 C   0  0  0  0  0  0  0  0  0  0  0  0
   33.9060   29.3670   47.7020 C   0  0  0  0  0  0  0  0  0  0  0  0
   33.9440   28.4010   48.6570 C   0  0  0  0  0  0  0  0  0  0  0  0
   34.9890   28.3680   49.5590 C   0  0  0  0  0  0  0  0  0  0  0  0
   34.8780   31.0490   46.9040 H   0  0  0  0  0  0  0  0  0  0  0  0
   33.1890   27.6310   48.7650 H   0  0  0  0  0  0  0  0  0  0  0  0
   35.0230   27.5910   50.3310 H   0  0  0  0  0  0  0  0  0  0  0  0
   38.0130   33.1810   49.4590 C   0  0  0  0  0  0  0  0  0  0  0  0
   39.0340   33.1860   48.4660 C   0  0  0  0  0  0  0  0  0  0  0  0
   39.0060   32.1860   47.5060 C   0  0  0  0  0  0  0  0  0  0  0  0
   38.0130   31.2480   47.5500 N   0  0  0  0  0  0  0  0  0  0  0  0
   37.0570   31.2710   48.5060 C   0  0  0  0  0  0  0  0  0  0  0  0
   37.0690   32.2430   49.4540 N   0  0  0  0  0  0  0  0  0  0  0  0
   38.0760   33.9840   50.1890 H   0  0  0  0  0  0  0  0  0  0  0  0
   39.8340   33.9120   48.4030 H   0  0  0  0  0  0  0  0  0  0  0  0
   39.7140   32.0770   46.7090 H   0  0  0  0  0  0  0  0  0  0  0  0
   32.8040   29.3980   46.7550 C   0  0  0  0  0  0  0  0  0  0  0  0
   31.9770   28.3270   46.4840 C   0  0  0  0  0  0  0  0  0  0  0  0
   30.9360   28.3910   45.5740 C   0  0  0  0  0  0  0  0  0  0  0  0
   30.7150   29.5470   44.9230 N   0  0  0  0  0  0  0  0  0  0  0  0
   31.5080   30.5950   45.1750 C   0  0  0  0  0  0  0  0  0  0  0  0
   32.5000   30.5030   46.0540 N   0  0  0  0  0  0  0  0  0  0  0  0
   32.1580   27.3890   47.0130 H   0  0  0  0  0  0  0  0  0  0  0  0
   30.3230   27.5040   45.4100 H   0  0  0  0  0  0  0  0  0  0  0  0
   31.2720   31.8520   44.4710 C   0  0  0  0  0  0  0  0  0  0  0  0
   30.5360   31.8630   43.2910 C   0  0  0  0  0  0  0  0  0  0  0  0
   30.1700   30.9040   42.9540 H   0  0  0  0  0  0  0  0  0  0  0  0
   30.3290   33.0640   42.6460 C   0  0  0  0  0  3  0  0  0  0  0  0
   30.8090   34.2680   43.1000 C   0  0  0  0  0  0  0  0  0  0  0  0
   30.5630   35.1160   42.4850 H   0  0  0  0  0  0  0  0  0  0  0  0
   31.5390   34.2530   44.2720 C   0  0  0  0  0  0  0  0  0  0  0  0
   31.9090   35.2090   44.6140 H   0  0  0  0  0  0  0  0  0  0  0  0
   31.7480   33.0520   44.9200 C   0  0  0  0  0  3  0  0  0  0  0  0
  2  7  1  0  0  0  0
  2  1  1  0  0  0  0
  3  2  2  0  0  0  0
  4  5  2  0  0  0  0
  4  3  1  0  0  0  0
  5  6  1  0  0  0  0
  6  9  1  0  0  0  0
  6  7  2  0  0  0  0
  7 10  1  0  0  0  0
  8  4  1  0  0  0  0
 11 17  1  0  0  0  0
 12 11  2  0  0  0  0
 13 14  2  0  0  0  0
 13 12  1  0  0  0  0
 14 15  1  0  0  0  0
 15  3  1  0  0  0  0
 15 16  2  0  0  0  0
 16 11  1  0  0  0  0
 18 12  1  0  0  0  0
 19 13  1  0  0  0  0
 20  5  1  0  0  0  0
 21 20  1  0  0  0  0
 21 26  1  0  0  0  0
 22 21  2  0  0  0  0
 23 24  2  0  0  0  0
 23 22  1  0  0  0  0
 24 25  1  0  0  0  0
 25 20  2  0  0  0  0
 27 22  1  0  0  0  0
 28 36  1  0  0  0  0
 28 24  1  0  0  0  0
 29 28  2  0  0  0  0
 30 29  1  0  0  0  0
 31 32  2  0  0  0  0
 31 29  1  0  0  0  0
 32 34  1  0  0  0  0
 33 32  1  0  0  0  0
 34 35  1  0  0  0  0
 34 36  2  0  0  0  0
M  END
>  <minimizedAffinity>
-6.69729805

>  <minimizedRMSD>
0.339478642

$$$$
