
 OpenBabel03272505463D

 25 27  0  0  0  0  0  0  0  0999 V2000
   35.6420   30.0480   47.6250 C   0  0  0  0  0  0  0  0  0  0  0  0
   34.7360   28.9940   47.1840 C   0  0  0  0  0  0  0  0  0  0  0  0
   34.1970   30.3630   47.4570 C   0  0  0  0  0  0  0  0  0  0  0  0
   34.4810   28.1820   47.8960 H   0  0  0  0  0  0  0  0  0  0  0  0
   34.7920   28.6140   46.1400 H   0  0  0  0  0  0  0  0  0  0  0  0
   33.5700   30.4660   48.3760 H   0  0  0  0  0  0  0  0  0  0  0  0
   33.9570   31.0360   46.6030 H   0  0  0  0  0  0  0  0  0  0  0  0
   38.3630   32.2420   46.3810 C   0  0  0  0  0  0  0  0  0  0  0  0
   38.4580   31.8870   45.0330 C   0  0  0  0  0  0  0  0  0  0  0  0
   37.5730   30.8830   44.5550 C   0  0  0  0  0  0  0  0  0  0  0  0
   36.6840   30.3230   45.4250 N   0  0  0  0  0  0  0  0  0  0  0  0
   36.6260   30.6960   46.7210 C   0  0  0  0  0  0  0  0  0  0  0  0
   37.4540   31.6440   47.2010 N   0  0  0  0  0  0  0  0  0  0  0  0
   38.9840   32.9910   46.8520 H   0  0  0  0  0  0  0  0  0  0  0  0
   39.1940   32.3950   44.4460 H   0  0  0  0  0  0  0  0  0  0  0  0
   37.6670   30.6340   43.5240 H   0  0  0  0  0  0  0  0  0  0  0  0
   36.2010   29.8960   49.0170 C   0  0  0  0  0  0  0  0  0  0  0  0
   35.2800   29.5810   50.0220 C   0  0  0  0  0  0  0  0  0  0  0  0
   34.2370   29.4570   49.8000 H   0  0  0  0  0  0  0  0  0  0  0  0
   35.7680   29.4380   51.3040 C   0  0  0  0  0  0  0  0  0  0  0  0
   37.1400   29.6130   51.5310 C   0  0  0  0  0  0  0  0  0  0  0  0
   37.5130   29.4980   52.5410 H   0  0  0  0  0  0  0  0  0  0  0  0
   38.0140   29.9240   50.5070 C   0  0  0  0  0  0  0  0  0  0  0  0
   39.0840   30.0590   50.6930 H   0  0  0  0  0  0  0  0  0  0  0  0
   37.5540   30.0730   49.2230 C   0  0  0  0  0  0  0  0  0  0  0  0
  1 17  1  0  0  0  0
  2  3  1  0  0  0  0
  2  1  1  0  0  0  0
  2  4  1  0  0  0  0
  3  1  1  0  0  0  0
  3  6  1  0  0  0  0
  5  2  1  0  0  0  0
  7  3  1  0  0  0  0
  8 14  1  0  0  0  0
  8 13  1  0  0  0  0
  9  8  2  0  0  0  0
 10  9  1  0  0  0  0
 10 11  2  0  0  0  0
 11 12  1  0  0  0  0
 12 13  2  0  0  0  0
 12  1  1  0  0  0  0
 15  9  1  0  0  0  0
 16 10  1  0  0  0  0
 17 25  2  0  0  0  0
 17 18  1  0  0  0  0
 18 20  2  0  0  0  0
 19 18  1  0  0  0  0
 20 21  1  0  0  0  0
 21 22  1  0  0  0  0
 23 24  1  0  0  0  0
 23 21  2  0  0  0  0
 25 23  1  0  0  0  0
M  END
>  <minimizedAffinity>
-5.11816406

>  <minimizedRMSD>
3.54621506

$$$$
