
 OpenBabel03272507453D

 33 35  0  0  0  0  0  0  0  0999 V2000
   32.6660   28.2440   47.4100 N   0  0  0  0  0  0  0  0  0  0  0  0
   33.2090   27.8010   48.6680 C   0  0  0  0  0  0  0  0  0  0  0  0
   34.4570   28.4260   49.1390 C   0  0  0  0  0  0  0  0  0  0  0  0
   35.3870   28.9550   48.1270 C   0  0  0  0  0  0  0  0  0  0  0  0
   34.7500   29.3100   46.8070 C   0  0  0  0  0  0  0  0  0  0  0  0
   33.7380   28.2380   46.4410 C   0  0  0  0  0  0  0  0  0  0  0  0
   32.3990   27.9620   49.4330 H   0  0  0  0  0  0  0  0  0  0  0  0
   33.3300   26.6960   48.6030 H   0  0  0  0  0  0  0  0  0  0  0  0
   34.1910   29.2710   49.8400 H   0  0  0  0  0  0  0  0  0  0  0  0
   34.9870   27.6970   49.7890 H   0  0  0  0  0  0  0  0  0  0  0  0
   36.1770   28.1900   47.8730 H   0  0  0  0  0  0  0  0  0  0  0  0
   35.5280   29.2860   46.0110 H   0  0  0  0  0  0  0  0  0  0  0  0
   34.3130   30.3170   46.8000 H   0  0  0  0  0  0  0  0  0  0  0  0
   33.3790   28.4640   45.4080 H   0  0  0  0  0  0  0  0  0  0  0  0
   34.2640   27.2730   46.3800 H   0  0  0  0  0  0  0  0  0  0  0  0
   31.3150   28.6190   47.1600 C   0  0  0  0  0  0  0  0  0  0  0  0
   30.9050   29.4560   46.1230 C   0  0  0  0  0  0  0  0  0  0  0  0
   29.5330   29.7250   46.0190 C   0  0  0  0  0  0  0  0  0  0  0  0
   28.6910   29.1610   46.9250 N   0  0  0  0  0  0  0  0  0  0  0  0
   29.1320   28.3660   47.9030 C   0  0  0  0  0  0  0  0  0  0  0  0
   30.4370   28.0890   48.0290 N   0  0  0  0  0  0  0  0  0  0  0  0
   31.6990   29.8160   45.4960 H   0  0  0  0  0  0  0  0  0  0  0  0
   29.2760   30.3710   45.2080 H   0  0  0  0  0  0  0  0  0  0  0  0
   28.3570   27.9840   48.5530 H   0  0  0  0  0  0  0  0  0  0  0  0
   36.1440   30.1570   48.5620 C   0  0  0  0  0  0  0  0  0  0  0  0
   35.8560   30.7960   49.7610 C   0  0  0  0  0  0  0  0  0  0  0  0
   35.0590   30.4130   50.4030 H   0  0  0  0  0  0  0  0  0  0  0  0
   36.5850   31.9190   50.1380 C   0  0  0  0  0  0  0  0  0  0  0  0
   37.5960   32.4090   49.3290 C   0  0  0  0  0  0  0  0  0  0  0  0
   38.1480   33.2950   49.6570 H   0  0  0  0  0  0  0  0  0  0  0  0
   37.9130   31.7910   48.1140 C   0  0  0  0  0  0  0  0  0  0  0  0
   38.6980   32.1630   47.4750 H   0  0  0  0  0  0  0  0  0  0  0  0
   37.1590   30.6760   47.7850 C   0  0  0  0  0  0  0  0  0  0  0  0
  1  2  1  0  0  0  0
  2  3  1  0  0  0  0
  2  7  1  0  0  0  0
  3 10  1  0  0  0  0
  3  9  1  0  0  0  0
  4 25  1  0  0  0  0
  4  3  1  0  0  0  0
  5  4  1  0  0  0  0
  6  5  1  0  0  0  0
  6  1  1  0  0  0  0
  8  2  1  0  0  0  0
 11  4  1  0  0  0  0
 12  5  1  0  0  0  0
 13  5  1  0  0  0  0
 14  6  1  0  0  0  0
 15  6  1  0  0  0  0
 16  1  1  0  0  0  0
 16 21  1  0  0  0  0
 17 16  2  0  0  0  0
 18 17  1  0  0  0  0
 18 19  2  0  0  0  0
 19 20  1  0  0  0  0
 20 21  2  0  0  0  0
 20 24  1  0  0  0  0
 22 17  1  0  0  0  0
 23 18  1  0  0  0  0
 25 26  1  0  0  0  0
 26 28  2  0  0  0  0
 26 27  1  0  0  0  0
 29 30  1  0  0  0  0
 29 28  1  0  0  0  0
 31 29  2  0  0  0  0
 32 31  1  0  0  0  0
 33 31  1  0  0  0  0
 33 25  2  0  0  0  0
M  END
>  <minimizedAffinity>
-5.2837429

>  <minimizedRMSD>
4.21463633

$$$$
