
 OpenBabel03272510173D

 28 30  0  0  0  0  0  0  0  0999 V2000
   37.3240   29.3230   51.0150 Br  0  0  0  0  0  0  0  0  0  0  0  0
   35.9740   29.3350   49.6720 C   0  0  0  0  0  0  0  0  0  0  0  0
   35.9860   30.2700   48.6570 C   0  0  0  0  0  0  0  0  0  0  0  0
   34.9680   30.2230   47.7140 C   0  0  0  0  0  0  0  0  0  0  0  0
   33.9550   29.2870   47.7510 C   0  0  0  0  0  0  0  0  0  0  0  0
   33.9690   28.3730   48.7690 C   0  0  0  0  0  0  0  0  0  0  0  0
   34.9710   28.4060   49.7130 C   0  0  0  0  0  0  0  0  0  0  0  0
   35.0150   30.9810   46.9260 H   0  0  0  0  0  0  0  0  0  0  0  0
   33.2050   27.6110   48.8600 H   0  0  0  0  0  0  0  0  0  0  0  0
   34.9580   27.6690   50.5080 H   0  0  0  0  0  0  0  0  0  0  0  0
   37.9970   33.2010   49.4680 C   0  0  0  0  0  0  0  0  0  0  0  0
   39.0290   33.2000   48.4980 C   0  0  0  0  0  0  0  0  0  0  0  0
   39.0080   32.1690   47.5700 C   0  0  0  0  0  0  0  0  0  0  0  0
   38.0180   31.2210   47.6270 N   0  0  0  0  0  0  0  0  0  0  0  0
   37.0430   31.2710   48.5880 C   0  0  0  0  0  0  0  0  0  0  0  0
   37.0470   32.2610   49.4950 N   0  0  0  0  0  0  0  0  0  0  0  0
   37.9300   33.9670   50.2340 H   0  0  0  0  0  0  0  0  0  0  0  0
   39.7700   33.9720   48.5110 H   0  0  0  0  0  0  0  0  0  0  0  0
   39.7750   32.1210   46.8050 H   0  0  0  0  0  0  0  0  0  0  0  0
   32.9100   29.2760   46.7400 C   0  0  0  0  0  0  0  0  0  0  0  0
   32.6760   30.5000   46.1030 C   0  0  0  0  0  0  0  0  0  0  0  0
   33.2290   31.3830   46.3450 H   0  0  0  0  0  0  0  0  0  0  0  0
   31.7110   30.6280   45.1240 C   0  0  0  0  0  0  0  0  0  0  0  0
   30.9530   29.5400   44.7530 C   0  0  0  0  0  0  0  0  0  0  0  0
   30.1950   29.6710   43.9730 H   0  0  0  0  0  0  0  0  0  0  0  0
   31.1820   28.3190   45.3830 C   0  0  0  0  0  0  0  0  0  0  0  0
   30.5990   27.4740   45.1010 H   0  0  0  0  0  0  0  0  0  0  0  0
   32.1500   28.1890   46.3680 C   0  0  0  0  0  0  0  0  0  0  0  0
  2  7  1  0  0  0  0
  2  1  1  0  0  0  0
  3  2  2  0  0  0  0
  4  5  2  0  0  0  0
  4  3  1  0  0  0  0
  5  6  1  0  0  0  0
  6  9  1  0  0  0  0
  6  7  2  0  0  0  0
  7 10  1  0  0  0  0
  8  4  1  0  0  0  0
 11 16  1  0  0  0  0
 11 17  1  0  0  0  0
 12 18  1  0  0  0  0
 12 11  2  0  0  0  0
 13 14  2  0  0  0  0
 13 12  1  0  0  0  0
 14 15  1  0  0  0  0
 15  3  1  0  0  0  0
 15 16  2  0  0  0  0
 19 13  1  0  0  0  0
 20  5  1  0  0  0  0
 21 22  1  0  0  0  0
 21 20  2  0  0  0  0
 23 21  1  0  0  0  0
 24 23  2  0  0  0  0
 24 26  1  0  0  0  0
 25 24  1  0  0  0  0
 26 28  2  0  0  0  0
 27 26  1  0  0  0  0
 28 20  1  0  0  0  0
M  END
>  <minimizedAffinity>
-5.96116924

>  <minimizedRMSD>
0.220723554

$$$$
