
 OpenBabel03272510343D

 28 30  0  0  0  0  0  0  0  0999 V2000
   34.5040   29.2010   47.3370 C   0  0  0  0  0  0  0  0  0  0  0  0
   33.5170   28.5910   46.5990 C   0  0  0  0  0  0  0  0  0  0  0  0
   32.4960   27.9070   47.2410 C   0  0  0  0  0  0  0  0  0  0  0  0
   32.5020   27.8580   48.6210 C   0  0  0  0  0  0  0  0  0  0  0  0
   33.4900   28.4670   49.3640 C   0  0  0  0  0  0  0  0  0  0  0  0
   34.5090   29.1510   48.7230 C   0  0  0  0  0  0  0  0  0  0  0  0
   33.5170   28.6320   45.5070 H   0  0  0  0  0  0  0  0  0  0  0  0
   31.7180   27.4270   46.6650 H   0  0  0  0  0  0  0  0  0  0  0  0
   31.7280   27.3370   49.1850 H   0  0  0  0  0  0  0  0  0  0  0  0
   33.5650   28.4740   50.4500 H   0  0  0  0  0  0  0  0  0  0  0  0
   36.1350   30.8310   44.5070 C   0  0  0  0  0  0  0  0  0  0  0  0
   37.3860   31.2120   44.9910 C   0  0  0  0  0  0  0  0  0  0  0  0
   37.6680   30.8930   46.3380 C   0  0  0  0  0  0  0  0  0  0  0  0
   36.7300   30.2470   47.0760 N   0  0  0  0  0  0  0  0  0  0  0  0
   35.5420   29.9000   46.5680 C   0  0  0  0  0  0  0  0  0  0  0  0
   35.2430   30.1950   45.2730 N   0  0  0  0  0  0  0  0  0  0  0  0
   35.8810   31.0590   43.4760 H   0  0  0  0  0  0  0  0  0  0  0  0
   38.1300   31.7270   44.3960 H   0  0  0  0  0  0  0  0  0  0  0  0
   38.6270   31.1660   46.7700 H   0  0  0  0  0  0  0  0  0  0  0  0
   35.6350   29.8540   49.3400 C   0  0  0  0  0  0  0  0  0  0  0  0
   36.7000   29.0700   49.7880 C   0  0  0  0  0  0  0  0  0  0  0  0
   36.7390   27.9800   49.7050 H   0  0  0  0  0  0  0  0  0  0  0  0
   37.8070   29.6650   50.3850 C   0  0  0  0  0  3  0  0  0  0  0  0
   37.8350   31.0570   50.5290 C   0  0  0  0  0  0  0  0  0  0  0  0
   38.7120   31.4890   50.9980 H   0  0  0  0  0  0  0  0  0  0  0  0
   36.7570   31.8210   50.0730 C   0  0  0  0  0  0  0  0  0  0  0  0
   36.7900   32.9120   50.1920 H   0  0  0  0  0  0  0  0  0  0  0  0
   35.6780   31.2260   49.4900 C   0  0  0  0  0  3  0  0  0  0  0  0
  1  6  1  0  0  0  0
  2  3  1  0  0  0  0
  2  1  2  0  0  0  0
  3  4  2  0  0  0  0
  4  9  1  0  0  0  0
  4  5  1  0  0  0  0
  5 10  1  0  0  0  0
  6 20  1  0  0  0  0
  6  5  2  0  0  0  0
  7  2  1  0  0  0  0
  8  3  1  0  0  0  0
 11 12  2  0  0  0  0
 11 16  1  0  0  0  0
 12 13  1  0  0  0  0
 13 19  1  0  0  0  0
 13 14  2  0  0  0  0
 15 14  1  0  0  0  0
 15  1  1  0  0  0  0
 16 15  2  0  0  0  0
 17 11  1  0  0  0  0
 18 12  1  0  0  0  0
 20 28  2  0  0  0  0
 20 21  1  0  0  0  0
 21 23  2  0  0  0  0
 22 21  1  0  0  0  0
 23 24  1  0  0  0  0
 24 25  1  0  0  0  0
 26 27  1  0  0  0  0
 26 24  2  0  0  0  0
 28 26  1  0  0  0  0
M  END
>  <minimizedAffinity>
-5.5248518

>  <minimizedRMSD>
2.87016678

$$$$
