
 OpenBabel03272509513D

 33 35  0  0  0  0  0  0  0  0999 V2000
   37.1710   30.1240   51.4480 C   0  0  0  0  0  0  0  0  0  0  0  0
   37.7310   30.7600   50.3350 C   0  0  0  0  0  0  0  0  0  0  0  0
   37.2200   30.5150   49.0760 C   0  0  0  0  0  0  0  0  0  0  0  0
   36.1770   29.6450   49.0040 N   0  0  0  0  0  0  0  0  0  0  0  0
   35.6440   29.0360   50.0830 C   0  0  0  0  0  0  0  0  0  0  0  0
   36.1570   29.2870   51.3120 N   0  0  0  0  0  0  0  0  0  0  0  0
   37.5350   30.2850   52.4360 H   0  0  0  0  0  0  0  0  0  0  0  0
   38.5420   31.4300   50.4460 H   0  0  0  0  0  0  0  0  0  0  0  0
   37.7220   31.1210   47.8470 C   0  0  0  0  0  0  0  0  0  0  0  0
   38.7900   31.9860   47.9740 C   0  0  0  0  0  0  0  0  0  0  0  0
   39.2910   32.2590   48.8950 H   0  0  0  0  0  0  0  0  0  0  0  0
   39.2850   32.5750   46.8140 C   0  0  0  0  0  0  0  0  0  0  0  0
   38.7060   32.2840   45.5940 C   0  0  0  0  0  0  0  0  0  0  0  0
   39.0650   32.7260   44.6510 H   0  0  0  0  0  0  0  0  0  0  0  0
   37.6400   31.4210   45.4590 C   0  0  0  0  0  0  0  0  0  0  0  0
   37.1850   31.1910   44.4990 H   0  0  0  0  0  0  0  0  0  0  0  0
   37.1630   30.8440   46.6340 C   0  0  0  0  0  0  0  0  0  0  0  0
   34.5950   28.1980   49.7590 O   0  0  0  0  0  0  0  0  0  0  0  0
   33.7280   28.5950   48.7080 C   0  0  0  0  0  0  0  0  0  0  0  0
   34.3490   28.9090   47.8340 H   0  0  0  0  0  0  0  0  0  0  0  0
   33.1460   29.4890   49.0480 H   0  0  0  0  0  0  0  0  0  0  0  0
   32.8150   27.4710   48.3250 C   0  0  0  0  0  0  0  0  0  0  0  0
   33.0750   27.1160   47.2970 H   0  0  0  0  0  0  0  0  0  0  0  0
   32.9480   26.6030   49.0300 H   0  0  0  0  0  0  0  0  0  0  0  0
   31.3840   27.8660   48.3410 C   0  0  0  0  0  0  0  0  0  0  0  0
   30.7040   27.7390   49.5350 C   0  0  0  0  0  0  0  0  0  0  0  0
   29.3660   28.0800   49.6550 C   0  0  0  0  0  0  0  0  0  0  0  0
   28.7120   28.5430   48.5950 N   0  0  0  0  0  0  0  0  0  0  0  0
   29.3800   28.6680   47.4280 C   0  0  0  0  0  0  0  0  0  0  0  0
   30.6790   28.3410   47.2920 N   0  0  0  0  0  0  0  0  0  0  0  0
   31.1470   27.3690   50.4590 H   0  0  0  0  0  0  0  0  0  0  0  0
   28.8250   27.9820   50.5910 H   0  0  0  0  0  0  0  0  0  0  0  0
   28.8640   29.0440   46.5510 H   0  0  0  0  0  0  0  0  0  0  0  0
  1  7  1  0  0  0  0
  2  8  1  0  0  0  0
  2  1  2  0  0  0  0
  3  2  1  0  0  0  0
  4  3  2  0  0  0  0
  4  5  1  0  0  0  0
  5  6  2  0  0  0  0
  6  1  1  0  0  0  0
  9 10  1  0  0  0  0
  9  3  1  0  0  0  0
 10 11  1  0  0  0  0
 12 10  2  0  0  0  0
 13 12  1  0  0  0  0
 14 13  1  0  0  0  0
 15 13  2  0  0  0  0
 15 17  1  0  0  0  0
 16 15  1  0  0  0  0
 17  9  2  0  0  0  0
 18  5  1  0  0  0  0
 19 21  1  0  0  0  0
 19 18  1  0  0  0  0
 20 19  1  0  0  0  0
 22 25  1  0  0  0  0
 22 19  1  0  0  0  0
 22 24  1  0  0  0  0
 23 22  1  0  0  0  0
 25 26  1  0  0  0  0
 26 27  2  0  0  0  0
 26 31  1  0  0  0  0
 27 32  1  0  0  0  0
 28 27  1  0  0  0  0
 29 28  2  0  0  0  0
 30 29  1  0  0  0  0
 30 25  2  0  0  0  0
 33 29  1  0  0  0  0
M  END
>  <minimizedAffinity>
-5.95751762

>  <minimizedRMSD>
0.515621603

$$$$
