
     RDKit          3D

 30 32  0  0  0  0  0  0  0  0999 V2000
   37.9815   33.1684   49.4233 C   0  0  0  0  0  0  0  0  0  0  0  0
   39.0210   33.1646   48.4605 C   0  0  0  0  0  0  0  0  0  0  0  0
   39.0144   32.1247   47.5421 C   0  0  0  0  0  0  0  0  0  0  0  0
   38.0301   31.1696   47.6014 N   0  0  0  0  0  0  0  0  0  0  0  0
   37.0481   31.2231   48.5551 C   0  0  0  0  0  0  0  0  0  0  0  0
   37.0380   32.2211   49.4519 N   0  0  0  0  0  0  0  0  0  0  0  0
   37.2717   29.3582   51.0518 Br  0  0  0  0  0  0  0  0  0  0  0  0
   35.9629   29.3144   49.6699 C   0  0  0  0  0  0  0  0  0  0  0  0
   35.9974   30.2152   48.6250 C   0  0  0  0  0  0  0  0  0  0  0  0
   35.0089   30.1268   47.6554 C   0  0  0  0  0  0  0  0  0  0  0  0
   34.0029   29.1844   47.6929 C   0  0  0  0  0  0  0  0  0  0  0  0
   33.9943   28.3038   48.7414 C   0  0  0  0  0  0  0  0  0  0  0  0
   34.9669   28.3768   49.7123 C   0  0  0  0  0  0  0  0  0  0  0  0
   37.9025   33.9398   50.1806 H   0  0  0  0  0  0  0  0  0  0  0  0
   39.7556   33.9416   48.4724 H   0  0  0  0  0  0  0  0  0  0  0  0
   39.7870   32.0746   46.7843 H   0  0  0  0  0  0  0  0  0  0  0  0
   35.0731   30.8593   46.8445 H   0  0  0  0  0  0  0  0  0  0  0  0
   33.2340   27.5376   48.8345 H   0  0  0  0  0  0  0  0  0  0  0  0
   34.9357   27.6666   50.5309 H   0  0  0  0  0  0  0  0  0  0  0  0
   32.9884   29.1300   46.6524 C   0  0  0  0  0  0  0  0  0  0  0  0
   32.0265   30.1461   46.6956 C   0  0  0  0  0  0  0  0  0  0  0  0
   32.0389   30.9101   47.4442 H   0  0  0  0  0  0  0  0  0  0  0  0
   31.0077   30.2120   45.7674 C   0  0  0  0  0  0  0  0  0  0  0  0
   30.9184   29.2667   44.7692 C   0  0  0  0  0  0  0  0  0  0  0  0
   30.0988   29.3448   44.0456 H   0  0  0  0  0  0  0  0  0  0  0  0
   31.8726   28.2533   44.7207 C   0  0  0  0  0  0  0  0  0  0  0  0
   31.8094   27.5197   43.9517 H   0  0  0  0  0  0  0  0  0  0  0  0
   32.8974   28.1854   45.6529 C   0  0  0  0  0  0  0  0  0  0  0  0
   30.2693   30.9856   45.7945 H   0  0  0  0  0  0  0  0  0  0  0  0
   33.6455   27.4335   45.6562 H   0  0  0  0  0  0  0  0  0  0  0  0
  1  6  2  0
  2  1  1  0
  3  4  1  0
  3  2  2  0
  4  5  2  0
  5  9  1  0
  5  6  1  0
  8 13  2  0
  8  7  1  0
  9  8  1  0
 10 11  1  0
 10  9  2  0
 11 12  2  0
 12 13  1  0
  1 14  1  0
  2 15  1  0
  3 16  1  0
 10 17  1  0
 12 18  1  0
 13 19  1  0
 20 21  2  0
 21 22  1  0
 21 23  1  0
 23 24  2  0
 24 25  1  0
 24 26  1  0
 26 27  1  0
 26 28  2  0
 28 20  1  0
 23 29  1  0
 28 30  1  0
 11 20  1  0
M  ISO  8  14  14  15  14  16  14  17  14  18  14  19  14  22  16  25  16
M  ISO  1  27  16
M  END
>  <DihAtoms>  (1) 
9,10,19,20

>  <DihDeg>  (1) 
-148.83145271240028

$$$$
