
 OpenBabel03272507593D

 32 34  0  0  0  0  0  0  0  0999 V2000
   39.6580   24.8290   34.8590 C   0  0  0  0  0  0  0  0  0  0  0  0
   40.4450   25.9650   34.8860 C   0  0  0  0  0  0  0  0  0  0  0  0
   40.1150   27.0270   34.0570 C   0  0  0  0  0  0  0  0  0  0  0  0
   39.0110   26.9310   33.2240 C   0  0  0  0  0  0  0  0  0  0  0  0
   38.2560   25.7820   33.2290 C   0  0  0  0  0  0  0  0  0  0  0  0
   38.5850   24.7680   34.0320 N   0  0  0  0  0  0  0  0  0  0  0  0
   41.3220   26.1590   35.4860 H   0  0  0  0  0  0  0  0  0  0  0  0
   40.6810   27.9510   34.0200 H   0  0  0  0  0  0  0  0  0  0  0  0
   38.7610   27.7520   32.5880 H   0  0  0  0  0  0  0  0  0  0  0  0
   39.9150   22.5450   37.8390 C   0  0  0  0  0  0  0  0  0  0  0  0
   39.4280   23.5510   36.9590 C   0  0  0  0  0  0  0  0  0  0  0  0
   40.1340   23.7980   35.7880 C   0  0  0  0  0  0  0  0  0  0  0  0
   41.2600   23.0640   35.5370 N   0  0  0  0  0  0  0  0  0  0  0  0
   41.6900   22.1090   36.4090 C   0  0  0  0  0  0  0  0  0  0  0  0
   41.0300   21.8480   37.5480 N   0  0  0  0  0  0  0  0  0  0  0  0
   42.8730   21.4810   35.9410 N   0  0  0  0  0  0  0  0  0  0  0  0
   39.3740   22.3410   38.7560 H   0  0  0  0  0  0  0  0  0  0  0  0
   42.8750   20.9100   35.0540 H   0  0  0  0  0  0  0  0  0  0  0  0
   43.7360   21.6140   36.5240 H   0  0  0  0  0  0  0  0  0  0  0  0
   38.1950   24.2860   37.3340 C   0  0  0  0  0  0  0  0  0  0  0  0
   37.1020   23.8390   36.5960 F   0  0  0  0  0  0  0  0  0  0  0  0
   37.9380   24.0840   38.6540 F   0  0  0  0  0  0  0  0  0  0  0  0
   38.2950   25.6520   37.1170 F   0  0  0  0  0  0  0  0  0  0  0  0
   37.0810   25.6060   32.3820 C   0  0  0  0  0  0  0  0  0  0  0  0
   36.6840   24.3250   32.0590 C   0  0  0  0  0  0  0  0  0  0  0  0
   37.2260   23.4430   32.4220 H   0  0  0  0  0  0  0  0  0  0  0  0
   35.5810   24.0360   31.2590 C   0  0  0  0  0  3  0  0  0  0  0  0
   34.8310   25.0770   30.7500 C   0  0  0  0  0  0  0  0  0  0  0  0
   33.9750   24.8920   30.1310 H   0  0  0  0  0  0  0  0  0  0  0  0
   35.2290   26.3370   31.0740 C   0  0  0  0  0  0  0  0  0  0  0  0
   34.6810   27.2080   30.7060 H   0  0  0  0  0  0  0  0  0  0  0  0
   36.3160   26.6290   31.8620 C   0  0  0  0  0  3  0  0  0  0  0  0
  1  2  1  0  0  0  0
  1 12  1  0  0  0  0
  2  7  1  0  0  0  0
  3  2  2  0  0  0  0
  4  5  2  0  0  0  0
  4  3  1  0  0  0  0
  5  6  1  0  0  0  0
  6  1  2  0  0  0  0
  8  3  1  0  0  0  0
  9  4  1  0  0  0  0
 10 17  1  0  0  0  0
 11 20  1  0  0  0  0
 11 10  2  0  0  0  0
 12 11  1  0  0  0  0
 13 12  2  0  0  0  0
 13 14  1  0  0  0  0
 14 15  2  0  0  0  0
 15 10  1  0  0  0  0
 16 14  1  0  0  0  0
 16 19  1  0  0  0  0
 18 16  1  0  0  0  0
 20 22  1  0  0  0  0
 21 20  1  0  0  0  0
 23 20  1  0  0  0  0
 24  5  1  0  0  0  0
 25 24  1  0  0  0  0
 25 26  1  0  0  0  0
 27 25  2  0  0  0  0
 28 30  2  0  0  0  0
 28 27  1  0  0  0  0
 29 28  1  0  0  0  0
 30 32  1  0  0  0  0
 31 30  1  0  0  0  0
 32 24  2  0  0  0  0
M  END
>  <minimizedAffinity>
-6.03044748

$$$$

 OpenBabel03272507593D

 32 34  0  0  0  0  0  0  0  0999 V2000
   37.6420   22.7180   32.4190 C   0  0  0  0  0  0  0  0  0  0  0  0
   37.4180   23.9340   31.8010 C   0  0  0  0  0  0  0  0  0  0  0  0
   37.5360   25.0950   32.5490 C   0  0  0  0  0  0  0  0  0  0  0  0
   37.8740   25.0170   33.8910 C   0  0  0  0  0  0  0  0  0  0  0  0
   38.0880   23.7860   34.4650 C   0  0  0  0  0  0  0  0  0  0  0  0
   37.9720   22.6760   33.7330 N   0  0  0  0  0  0  0  0  0  0  0  0
   37.1510   24.1240   30.7720 H   0  0  0  0  0  0  0  0  0  0  0  0
   37.3770   26.0860   32.1390 H   0  0  0  0  0  0  0  0  0  0  0  0
   37.9640   25.9140   34.4640 H   0  0  0  0  0  0  0  0  0  0  0  0
   36.1780   19.7560   30.6160 C   0  0  0  0  0  0  0  0  0  0  0  0
   36.3040   20.8470   31.5190 C   0  0  0  0  0  0  0  0  0  0  0  0
   37.4800   21.5860   31.4990 C   0  0  0  0  0  0  0  0  0  0  0  0
   38.4590   21.2290   30.6130 N   0  0  0  0  0  0  0  0  0  0  0  0
   38.2960   20.1760   29.7640 C   0  0  0  0  0  0  0  0  0  0  0  0
   37.1700   19.4440   29.7610 N   0  0  0  0  0  0  0  0  0  0  0  0
   39.4370   19.9960   28.9420 N   0  0  0  0  0  0  0  0  0  0  0  0
   35.2650   19.1710   30.6210 H   0  0  0  0  0  0  0  0  0  0  0  0
   39.7290   20.7300   28.2420 H   0  0  0  0  0  0  0  0  0  0  0  0
   39.9690   19.0990   29.0680 H   0  0  0  0  0  0  0  0  0  0  0  0
   35.1770   21.1420   32.4380 C   0  0  0  0  0  0  0  0  0  0  0  0
   34.7730   22.4700   32.3250 F   0  0  0  0  0  0  0  0  0  0  0  0
   34.1230   20.3420   32.1240 F   0  0  0  0  0  0  0  0  0  0  0  0
   35.4980   20.9310   33.7710 F   0  0  0  0  0  0  0  0  0  0  0  0
   38.4470   23.6220   35.8710 C   0  0  0  0  0  0  0  0  0  0  0  0
   37.6840   24.2570   36.8270 C   0  0  0  0  0  0  0  0  0  0  0  0
   36.8190   24.8780   36.5580 H   0  0  0  0  0  0  0  0  0  0  0  0
   37.9310   24.1730   38.1950 C   0  0  0  0  0  3  0  0  0  0  0  0
   38.9970   23.4160   38.6380 C   0  0  0  0  0  0  0  0  0  0  0  0
   39.2170   23.3290   39.6840 H   0  0  0  0  0  0  0  0  0  0  0  0
   39.7450   22.7930   37.6880 C   0  0  0  0  0  0  0  0  0  0  0  0
   40.6040   22.1770   37.9680 H   0  0  0  0  0  0  0  0  0  0  0  0
   39.5060   22.8710   36.3380 C   0  0  0  0  0  3  0  0  0  0  0  0
  1  6  1  0  0  0  0
  2  1  2  0  0  0  0
  2  3  1  0  0  0  0
  3  4  2  0  0  0  0
  4  9  1  0  0  0  0
  4  5  1  0  0  0  0
  5 24  1  0  0  0  0
  6  5  2  0  0  0  0
  7  2  1  0  0  0  0
  8  3  1  0  0  0  0
 10 17  1  0  0  0  0
 10 11  1  0  0  0  0
 11 20  1  0  0  0  0
 12 11  2  0  0  0  0
 12  1  1  0  0  0  0
 13 12  1  0  0  0  0
 14 13  2  0  0  0  0
 15 14  1  0  0  0  0
 15 10  2  0  0  0  0
 16 19  1  0  0  0  0
 16 14  1  0  0  0  0
 18 16  1  0  0  0  0
 20 23  1  0  0  0  0
 21 20  1  0  0  0  0
 22 20  1  0  0  0  0
 24 32  2  0  0  0  0
 24 25  1  0  0  0  0
 25 27  2  0  0  0  0
 26 25  1  0  0  0  0
 27 28  1  0  0  0  0
 28 29  1  0  0  0  0
 30 31  1  0  0  0  0
 30 28  2  0  0  0  0
 32 30  1  0  0  0  0
M  END
>  <minimizedAffinity>
-5.94849968

$$$$

 OpenBabel03272507593D

 32 34  0  0  0  0  0  0  0  0999 V2000
   36.6230   27.7210   32.7490 C   0  0  0  0  0  0  0  0  0  0  0  0
   37.0060   28.3410   31.5740 C   0  0  0  0  0  0  0  0  0  0  0  0
   36.7240   29.6880   31.4080 C   0  0  0  0  0  0  0  0  0  0  0  0
   36.0690   30.3830   32.4120 C   0  0  0  0  0  0  0  0  0  0  0  0
   35.7070   29.7270   33.5650 C   0  0  0  0  0  0  0  0  0  0  0  0
   35.9850   28.4300   33.7120 N   0  0  0  0  0  0  0  0  0  0  0  0
   37.5170   27.9120   30.7250 H   0  0  0  0  0  0  0  0  0  0  0  0
   36.9910   30.2470   30.5170 H   0  0  0  0  0  0  0  0  0  0  0  0
   35.8540   31.4210   32.2790 H   0  0  0  0  0  0  0  0  0  0  0  0
   38.4210   24.5060   33.5250 C   0  0  0  0  0  0  0  0  0  0  0  0
   38.0900   25.8900   33.5190 C   0  0  0  0  0  0  0  0  0  0  0  0
   36.9910   26.3010   32.7760 C   0  0  0  0  0  0  0  0  0  0  0  0
   36.2790   25.3570   32.0870 N   0  0  0  0  0  0  0  0  0  0  0  0
   36.6320   24.0410   32.1210 C   0  0  0  0  0  0  0  0  0  0  0  0
   37.6880   23.6150   32.8300 N   0  0  0  0  0  0  0  0  0  0  0  0
   35.7530   23.2540   31.3350 N   0  0  0  0  0  0  0  0  0  0  0  0
   39.2760   24.1720   34.1010 H   0  0  0  0  0  0  0  0  0  0  0  0
   34.7320   23.1590   31.5830 H   0  0  0  0  0  0  0  0  0  0  0  0
   36.1730   22.7730   30.5010 H   0  0  0  0  0  0  0  0  0  0  0  0
   38.9340   26.8240   34.3040 C   0  0  0  0  0  0  0  0  0  0  0  0
   39.8610   26.1320   35.0780 F   0  0  0  0  0  0  0  0  0  0  0  0
   39.6070   27.6420   33.4510 F   0  0  0  0  0  0  0  0  0  0  0  0
   38.1970   27.6170   35.1720 F   0  0  0  0  0  0  0  0  0  0  0  0
   35.0150   30.3890   34.6660 C   0  0  0  0  0  0  0  0  0  0  0  0
   35.7480   31.1750   35.5310 C   0  0  0  0  0  0  0  0  0  0  0  0
   36.8300   31.3140   35.4090 H   0  0  0  0  0  0  0  0  0  0  0  0
   35.1970   31.8530   36.6150 C   0  0  0  0  0  3  0  0  0  0  0  0
   33.8430   31.7440   36.8560 C   0  0  0  0  0  0  0  0  0  0  0  0
   33.3850   32.2530   37.6810 H   0  0  0  0  0  0  0  0  0  0  0  0
   33.1270   30.9670   35.9990 C   0  0  0  0  0  0  0  0  0  0  0  0
   32.0490   30.8370   36.1300 H   0  0  0  0  0  0  0  0  0  0  0  0
   33.6640   30.2960   34.9270 C   0  0  0  0  0  3  0  0  0  0  0  0
  1 12  1  0  0  0  0
  1  6  1  0  0  0  0
  2  1  2  0  0  0  0
  3  2  1  0  0  0  0
  3  4  2  0  0  0  0
  4  5  1  0  0  0  0
  5  6  2  0  0  0  0
  5 24  1  0  0  0  0
  7  2  1  0  0  0  0
  8  3  1  0  0  0  0
  9  4  1  0  0  0  0
 10 17  1  0  0  0  0
 11 10  1  0  0  0  0
 11 20  1  0  0  0  0
 12 11  2  0  0  0  0
 13 14  2  0  0  0  0
 13 12  1  0  0  0  0
 14 15  1  0  0  0  0
 15 10  2  0  0  0  0
 16 18  1  0  0  0  0
 16 14  1  0  0  0  0
 19 16  1  0  0  0  0
 20 21  1  0  0  0  0
 20 23  1  0  0  0  0
 22 20  1  0  0  0  0
 24 32  2  0  0  0  0
 24 25  1  0  0  0  0
 25 27  2  0  0  0  0
 26 25  1  0  0  0  0
 27 28  1  0  0  0  0
 28 29  1  0  0  0  0
 30 31  1  0  0  0  0
 30 28  2  0  0  0  0
 32 30  1  0  0  0  0
M  END
>  <minimizedAffinity>
-5.89173937

$$$$

 OpenBabel03272507593D

 32 34  0  0  0  0  0  0  0  0999 V2000
   34.6110   29.8180   34.4240 C   0  0  0  0  0  0  0  0  0  0  0  0
   34.1570   29.9880   33.1300 C   0  0  0  0  0  0  0  0  0  0  0  0
   34.8180   29.3360   32.1000 C   0  0  0  0  0  0  0  0  0  0  0  0
   35.9100   28.5320   32.3830 C   0  0  0  0  0  0  0  0  0  0  0  0
   36.3280   28.3910   33.6860 C   0  0  0  0  0  0  0  0  0  0  0  0
   35.6830   29.0240   34.6680 N   0  0  0  0  0  0  0  0  0  0  0  0
   33.3250   30.5820   32.7830 H   0  0  0  0  0  0  0  0  0  0  0  0
   34.5240   29.4180   31.0580 H   0  0  0  0  0  0  0  0  0  0  0  0
   36.4160   28.0320   31.5860 H   0  0  0  0  0  0  0  0  0  0  0  0
   33.5390   32.4210   36.9230 C   0  0  0  0  0  0  0  0  0  0  0  0
   34.3380   31.7150   35.9810 C   0  0  0  0  0  0  0  0  0  0  0  0
   33.8120   30.5680   35.3990 C   0  0  0  0  0  0  0  0  0  0  0  0
   32.5530   30.1730   35.7590 N   0  0  0  0  0  0  0  0  0  0  0  0
   31.8220   30.8800   36.6660 C   0  0  0  0  0  0  0  0  0  0  0  0
   32.3040   31.9910   37.2440 N   0  0  0  0  0  0  0  0  0  0  0  0
   30.5540   30.2830   36.8810 N   0  0  0  0  0  0  0  0  0  0  0  0
   33.9370   33.3170   37.3840 H   0  0  0  0  0  0  0  0  0  0  0  0
   29.8410   30.2190   36.1060 H   0  0  0  0  0  0  0  0  0  0  0  0
   30.3670   29.9140   37.8470 H   0  0  0  0  0  0  0  0  0  0  0  0
   35.6910   32.2360   35.6670 C   0  0  0  0  0  0  0  0  0  0  0  0
   35.8510   32.4220   34.2960 F   0  0  0  0  0  0  0  0  0  0  0  0
   35.8650   33.4330   36.2880 F   0  0  0  0  0  0  0  0  0  0  0  0
   36.7060   31.3840   36.0780 F   0  0  0  0  0  0  0  0  0  0  0  0
   37.4690   27.5630   34.0640 C   0  0  0  0  0  0  0  0  0  0  0  0
   37.9070   27.5970   35.3710 C   0  0  0  0  0  0  0  0  0  0  0  0
   37.4210   28.2270   36.1280 H   0  0  0  0  0  0  0  0  0  0  0  0
   38.9840   26.8520   35.8450 C   0  0  0  0  0  3  0  0  0  0  0  0
   39.6640   26.0270   34.9730 C   0  0  0  0  0  0  0  0  0  0  0  0
   40.4970   25.4390   35.3040 H   0  0  0  0  0  0  0  0  0  0  0  0
   39.2250   25.9990   33.6860 C   0  0  0  0  0  0  0  0  0  0  0  0
   39.7170   25.3670   32.9410 H   0  0  0  0  0  0  0  0  0  0  0  0
   38.1640   26.7310   33.2110 C   0  0  0  0  0  3  0  0  0  0  0  0
  1  6  1  0  0  0  0
  1 12  1  0  0  0  0
  2  1  2  0  0  0  0
  3  4  2  0  0  0  0
  3  2  1  0  0  0  0
  4  5  1  0  0  0  0
  5 24  1  0  0  0  0
  5  6  2  0  0  0  0
  7  2  1  0  0  0  0
  8  3  1  0  0  0  0
  9  4  1  0  0  0  0
 10 15  1  0  0  0  0
 10 17  1  0  0  0  0
 11 10  2  0  0  0  0
 12 13  2  0  0  0  0
 12 11  1  0  0  0  0
 13 14  1  0  0  0  0
 14 16  1  0  0  0  0
 14 15  2  0  0  0  0
 16 19  1  0  0  0  0
 18 16  1  0  0  0  0
 20 11  1  0  0  0  0
 20 23  1  0  0  0  0
 20 22  1  0  0  0  0
 21 20  1  0  0  0  0
 24 25  1  0  0  0  0
 25 27  2  0  0  0  0
 25 26  1  0  0  0  0
 28 29  1  0  0  0  0
 28 27  1  0  0  0  0
 30 28  2  0  0  0  0
 31 30  1  0  0  0  0
 32 30  1  0  0  0  0
 32 24  2  0  0  0  0
M  END
>  <minimizedAffinity>
-5.85754919

$$$$

 OpenBabel03272507593D

 32 34  0  0  0  0  0  0  0  0999 V2000
   37.3020   24.9630   32.5700 C   0  0  0  0  0  0  0  0  0  0  0  0
   36.4750   25.7930   31.8370 C   0  0  0  0  0  0  0  0  0  0  0  0
   35.4270   25.2290   31.1250 C   0  0  0  0  0  0  0  0  0  0  0  0
   35.2290   23.8580   31.1610 C   0  0  0  0  0  0  0  0  0  0  0  0
   36.0760   23.0710   31.9040 C   0  0  0  0  0  0  0  0  0  0  0  0
   37.0810   23.6260   32.5850 N   0  0  0  0  0  0  0  0  0  0  0  0
   36.5250   26.8660   31.7300 H   0  0  0  0  0  0  0  0  0  0  0  0
   34.7340   25.8110   30.5260 H   0  0  0  0  0  0  0  0  0  0  0  0
   34.4200   23.4300   30.6100 H   0  0  0  0  0  0  0  0  0  0  0  0
   40.6410   26.4810   33.4200 C   0  0  0  0  0  0  0  0  0  0  0  0
   39.6360   25.7550   32.7200 C   0  0  0  0  0  0  0  0  0  0  0  0
   38.3600   25.7040   33.2660 C   0  0  0  0  0  0  0  0  0  0  0  0
   38.1300   26.3540   34.4480 N   0  0  0  0  0  0  0  0  0  0  0  0
   39.1220   27.0380   35.0840 C   0  0  0  0  0  0  0  0  0  0  0  0
   40.3640   27.1040   34.5800 N   0  0  0  0  0  0  0  0  0  0  0  0
   38.6510   27.6270   36.2850 N   0  0  0  0  0  0  0  0  0  0  0  0
   41.6410   26.5280   33.0050 H   0  0  0  0  0  0  0  0  0  0  0  0
   37.9110   28.3790   36.2720 H   0  0  0  0  0  0  0  0  0  0  0  0
   39.0790   27.2770   37.1780 H   0  0  0  0  0  0  0  0  0  0  0  0
   40.0010   25.0880   31.4460 C   0  0  0  0  0  0  0  0  0  0  0  0
   39.2440   25.5840   30.3870 F   0  0  0  0  0  0  0  0  0  0  0  0
   41.3150   25.3140   31.1820 F   0  0  0  0  0  0  0  0  0  0  0  0
   39.7960   23.7160   31.4780 F   0  0  0  0  0  0  0  0  0  0  0  0
   35.9330   21.6210   31.9920 C   0  0  0  0  0  0  0  0  0  0  0  0
   36.2300   20.8580   30.8820 C   0  0  0  0  0  0  0  0  0  0  0  0
   36.5700   21.3120   29.9420 H   0  0  0  0  0  0  0  0  0  0  0  0
   36.1300   19.4690   30.8500 C   0  0  0  0  0  3  0  0  0  0  0  0
   35.7110   18.8010   31.9820 C   0  0  0  0  0  0  0  0  0  0  0  0
   35.6230   17.7320   31.9920 H   0  0  0  0  0  0  0  0  0  0  0  0
   35.4200   19.5610   33.0720 C   0  0  0  0  0  0  0  0  0  0  0  0
   35.0820   19.0970   34.0030 H   0  0  0  0  0  0  0  0  0  0  0  0
   35.5170   20.9300   33.1110 C   0  0  0  0  0  3  0  0  0  0  0  0
  1  6  1  0  0  0  0
  1 12  1  0  0  0  0
  2  1  2  0  0  0  0
  3  4  2  0  0  0  0
  3  2  1  0  0  0  0
  4  5  1  0  0  0  0
  5 24  1  0  0  0  0
  5  6  2  0  0  0  0
  7  2  1  0  0  0  0
  8  3  1  0  0  0  0
  9  4  1  0  0  0  0
 10 15  1  0  0  0  0
 11 12  1  0  0  0  0
 11 10  2  0  0  0  0
 12 13  2  0  0  0  0
 13 14  1  0  0  0  0
 14 16  1  0  0  0  0
 15 14  2  0  0  0  0
 16 19  1  0  0  0  0
 17 10  1  0  0  0  0
 18 16  1  0  0  0  0
 20 23  1  0  0  0  0
 20 11  1  0  0  0  0
 21 20  1  0  0  0  0
 22 20  1  0  0  0  0
 24 32  1  0  0  0  0
 25 24  2  0  0  0  0
 26 25  1  0  0  0  0
 27 25  1  0  0  0  0
 27 28  2  0  0  0  0
 28 29  1  0  0  0  0
 28 30  1  0  0  0  0
 30 32  2  0  0  0  0
 30 31  1  0  0  0  0
M  END
>  <minimizedAffinity>
-5.84068775

$$$$

 OpenBabel03272507593D

 32 34  0  0  0  0  0  0  0  0999 V2000
   37.7180   25.1740   32.4290 C   0  0  0  0  0  0  0  0  0  0  0  0
   36.8510   26.0680   31.8300 C   0  0  0  0  0  0  0  0  0  0  0  0
   35.6720   25.5880   31.2790 C   0  0  0  0  0  0  0  0  0  0  0  0
   35.3880   24.2330   31.3380 C   0  0  0  0  0  0  0  0  0  0  0  0
   36.2790   23.3790   31.9430 C   0  0  0  0  0  0  0  0  0  0  0  0
   37.4090   23.8550   32.4700 N   0  0  0  0  0  0  0  0  0  0  0  0
   36.9580   27.1370   31.7210 H   0  0  0  0  0  0  0  0  0  0  0  0
   34.9400   26.2240   30.7910 H   0  0  0  0  0  0  0  0  0  0  0  0
   34.4780   23.8680   30.9110 H   0  0  0  0  0  0  0  0  0  0  0  0
   40.1700   26.7530   34.8080 C   0  0  0  0  0  0  0  0  0  0  0  0
   38.9960   26.1140   34.3210 C   0  0  0  0  0  0  0  0  0  0  0  0
   38.9160   25.8310   32.9630 C   0  0  0  0  0  0  0  0  0  0  0  0
   39.9680   26.1790   32.1610 N   0  0  0  0  0  0  0  0  0  0  0  0
   41.0750   26.7890   32.6710 C   0  0  0  0  0  0  0  0  0  0  0  0
   41.1800   27.0740   33.9780 N   0  0  0  0  0  0  0  0  0  0  0  0
   42.0300   27.0520   31.6560 N   0  0  0  0  0  0  0  0  0  0  0  0
   40.2460   26.9790   35.8650 H   0  0  0  0  0  0  0  0  0  0  0  0
   42.5000   26.2680   31.1290 H   0  0  0  0  0  0  0  0  0  0  0  0
   42.2420   28.0620   31.4630 H   0  0  0  0  0  0  0  0  0  0  0  0
   37.9160   25.7840   35.2830 C   0  0  0  0  0  0  0  0  0  0  0  0
   37.7050   24.4090   35.3460 F   0  0  0  0  0  0  0  0  0  0  0  0
   38.2700   26.2250   36.5200 F   0  0  0  0  0  0  0  0  0  0  0  0
   36.7010   26.3640   34.9490 F   0  0  0  0  0  0  0  0  0  0  0  0
   36.0500   21.9410   32.0450 C   0  0  0  0  0  0  0  0  0  0  0  0
   35.8160   21.3940   33.2890 C   0  0  0  0  0  0  0  0  0  0  0  0
   35.7970   22.0110   34.1970 H   0  0  0  0  0  0  0  0  0  0  0  0
   35.5860   20.0390   33.5070 C   0  0  0  0  0  3  0  0  0  0  0  0
   35.5900   19.1760   32.4300 C   0  0  0  0  0  0  0  0  0  0  0  0
   35.4160   18.1260   32.5610 H   0  0  0  0  0  0  0  0  0  0  0  0
   35.8210   19.7230   31.2060 C   0  0  0  0  0  0  0  0  0  0  0  0
   35.8380   19.0990   30.3090 H   0  0  0  0  0  0  0  0  0  0  0  0
   36.0490   21.0600   30.9840 C   0  0  0  0  0  3  0  0  0  0  0  0
  1  6  1  0  0  0  0
  1 12  1  0  0  0  0
  2  1  2  0  0  0  0
  3  4  2  0  0  0  0
  3  2  1  0  0  0  0
  4  5  1  0  0  0  0
  5 24  1  0  0  0  0
  5  6  2  0  0  0  0
  7  2  1  0  0  0  0
  8  3  1  0  0  0  0
  9  4  1  0  0  0  0
 10 17  1  0  0  0  0
 11 10  1  0  0  0  0
 11 20  1  0  0  0  0
 12 11  2  0  0  0  0
 13 14  2  0  0  0  0
 13 12  1  0  0  0  0
 14 15  1  0  0  0  0
 15 10  2  0  0  0  0
 16 14  1  0  0  0  0
 18 16  1  0  0  0  0
 19 16  1  0  0  0  0
 20 21  1  0  0  0  0
 20 22  1  0  0  0  0
 23 20  1  0  0  0  0
 24 25  1  0  0  0  0
 25 27  2  0  0  0  0
 25 26  1  0  0  0  0
 28 29  1  0  0  0  0
 28 27  1  0  0  0  0
 30 28  2  0  0  0  0
 31 30  1  0  0  0  0
 32 30  1  0  0  0  0
 32 24  2  0  0  0  0
M  END
>  <minimizedAffinity>
-5.73488426

$$$$

 OpenBabel03272507593D

 32 34  0  0  0  0  0  0  0  0999 V2000
   37.3680   26.9000   33.2170 C   0  0  0  0  0  0  0  0  0  0  0  0
   37.5850   27.1920   31.8840 C   0  0  0  0  0  0  0  0  0  0  0  0
   37.0750   28.3740   31.3690 C   0  0  0  0  0  0  0  0  0  0  0  0
   36.3640   29.2330   32.1920 C   0  0  0  0  0  0  0  0  0  0  0  0
   36.1710   28.9020   33.5120 C   0  0  0  0  0  0  0  0  0  0  0  0
   36.6680   27.7620   33.9960 N   0  0  0  0  0  0  0  0  0  0  0  0
   38.1180   26.6100   31.1470 H   0  0  0  0  0  0  0  0  0  0  0  0
   37.2020   28.6760   30.3340 H   0  0  0  0  0  0  0  0  0  0  0  0
   35.9730   30.1430   31.7890 H   0  0  0  0  0  0  0  0  0  0  0  0
   39.7190   24.3530   34.6850 C   0  0  0  0  0  0  0  0  0  0  0  0
   39.1640   25.6100   34.3170 C   0  0  0  0  0  0  0  0  0  0  0  0
   37.9660   25.6200   33.6120 C   0  0  0  0  0  0  0  0  0  0  0  0
   37.3790   24.4220   33.3080 N   0  0  0  0  0  0  0  0  0  0  0  0
   37.9470   23.2410   33.6810 C   0  0  0  0  0  0  0  0  0  0  0  0
   39.1020   23.2010   34.3620 N   0  0  0  0  0  0  0  0  0  0  0  0
   37.1630   22.1380   33.2570 N   0  0  0  0  0  0  0  0  0  0  0  0
   40.6530   24.3310   35.2350 H   0  0  0  0  0  0  0  0  0  0  0  0
   36.1890   21.9820   33.6330 H   0  0  0  0  0  0  0  0  0  0  0  0
   37.6030   21.4920   32.5560 H   0  0  0  0  0  0  0  0  0  0  0  0
   39.8890   26.8460   34.7000 C   0  0  0  0  0  0  0  0  0  0  0  0
   40.0950   27.6690   33.5960 F   0  0  0  0  0  0  0  0  0  0  0  0
   39.1540   27.5290   35.6180 F   0  0  0  0  0  0  0  0  0  0  0  0
   41.1370   26.5900   35.2490 F   0  0  0  0  0  0  0  0  0  0  0  0
   35.4340   29.7540   34.4400 C   0  0  0  0  0  0  0  0  0  0  0  0
   34.0630   29.6250   34.5110 C   0  0  0  0  0  0  0  0  0  0  0  0
   33.5180   28.9030   33.8890 H   0  0  0  0  0  0  0  0  0  0  0  0
   33.2580   30.3830   35.3570 C   0  0  0  0  0  3  0  0  0  0  0  0
   33.8460   31.3210   36.1800 C   0  0  0  0  0  0  0  0  0  0  0  0
   33.2570   31.9220   36.8440 H   0  0  0  0  0  0  0  0  0  0  0  0
   35.1990   31.4420   36.1050 C   0  0  0  0  0  0  0  0  0  0  0  0
   35.7310   32.1650   36.7280 H   0  0  0  0  0  0  0  0  0  0  0  0
   36.0000   30.6980   35.2730 C   0  0  0  0  0  3  0  0  0  0  0  0
  1 12  1  0  0  0  0
  1  6  1  0  0  0  0
  2  1  2  0  0  0  0
  3  2  1  0  0  0  0
  3  4  2  0  0  0  0
  4  5  1  0  0  0  0
  5  6  2  0  0  0  0
  5 24  1  0  0  0  0
  7  2  1  0  0  0  0
  8  3  1  0  0  0  0
  9  4  1  0  0  0  0
 10 17  1  0  0  0  0
 11 10  2  0  0  0  0
 11 20  1  0  0  0  0
 12 11  1  0  0  0  0
 13 12  2  0  0  0  0
 13 14  1  0  0  0  0
 14 15  2  0  0  0  0
 15 10  1  0  0  0  0
 16 18  1  0  0  0  0
 16 14  1  0  0  0  0
 19 16  1  0  0  0  0
 20 23  1  0  0  0  0
 20 22  1  0  0  0  0
 21 20  1  0  0  0  0
 24 25  2  0  0  0  0
 24 32  1  0  0  0  0
 25 27  1  0  0  0  0
 26 25  1  0  0  0  0
 27 28  2  0  0  0  0
 28 29  1  0  0  0  0
 30 28  1  0  0  0  0
 30 31  1  0  0  0  0
 32 30  2  0  0  0  0
M  END
>  <minimizedAffinity>
-5.73161793

$$$$

 OpenBabel03272507593D

 32 34  0  0  0  0  0  0  0  0999 V2000
   37.6080   25.4170   32.2340 C   0  0  0  0  0  0  0  0  0  0  0  0
   38.5150   25.7690   31.2530 C   0  0  0  0  0  0  0  0  0  0  0  0
   38.8260   24.8440   30.2680 C   0  0  0  0  0  0  0  0  0  0  0  0
   38.2270   23.5950   30.2830 C   0  0  0  0  0  0  0  0  0  0  0  0
   37.3290   23.2870   31.2780 C   0  0  0  0  0  0  0  0  0  0  0  0
   37.0390   24.1860   32.2200 N   0  0  0  0  0  0  0  0  0  0  0  0
   39.0450   26.7030   31.1330 H   0  0  0  0  0  0  0  0  0  0  0  0
   39.5280   25.0440   29.4640 H   0  0  0  0  0  0  0  0  0  0  0  0
   38.4700   22.8860   29.5220 H   0  0  0  0  0  0  0  0  0  0  0  0
   36.2280   28.4990   33.8960 C   0  0  0  0  0  0  0  0  0  0  0  0
   36.4220   27.4650   32.9390 C   0  0  0  0  0  0  0  0  0  0  0  0
   37.3830   26.4970   33.2010 C   0  0  0  0  0  0  0  0  0  0  0  0
   38.0960   26.5840   34.3650 N   0  0  0  0  0  0  0  0  0  0  0  0
   37.8770   27.5920   35.2550 C   0  0  0  0  0  0  0  0  0  0  0  0
   36.9550   28.5410   35.0280 N   0  0  0  0  0  0  0  0  0  0  0  0
   38.7290   27.4770   36.3830 N   0  0  0  0  0  0  0  0  0  0  0  0
   35.4820   29.2610   33.7040 H   0  0  0  0  0  0  0  0  0  0  0  0
   38.6570   26.6550   37.0410 H   0  0  0  0  0  0  0  0  0  0  0  0
   39.4260   28.2490   36.5240 H   0  0  0  0  0  0  0  0  0  0  0  0
   35.5920   27.4710   31.7090 C   0  0  0  0  0  0  0  0  0  0  0  0
   34.5340   28.3690   31.8250 F   0  0  0  0  0  0  0  0  0  0  0  0
   36.3610   27.8430   30.6510 F   0  0  0  0  0  0  0  0  0  0  0  0
   35.0380   26.2310   31.4270 F   0  0  0  0  0  0  0  0  0  0  0  0
   36.6570   21.9930   31.3620 C   0  0  0  0  0  0  0  0  0  0  0  0
   35.5150   21.8890   32.1270 C   0  0  0  0  0  0  0  0  0  0  0  0
   35.1020   22.7500   32.6700 H   0  0  0  0  0  0  0  0  0  0  0  0
   34.7920   20.7090   32.2810 C   0  0  0  0  0  3  0  0  0  0  0  0
   35.2280   19.5680   31.6400 C   0  0  0  0  0  0  0  0  0  0  0  0
   34.6960   18.6420   31.7360 H   0  0  0  0  0  0  0  0  0  0  0  0
   36.3560   19.6790   30.8870 C   0  0  0  0  0  0  0  0  0  0  0  0
   36.7570   18.8140   30.3520 H   0  0  0  0  0  0  0  0  0  0  0  0
   37.0730   20.8400   30.7310 C   0  0  0  0  0  3  0  0  0  0  0  0
  1 12  1  0  0  0  0
  2  1  2  0  0  0  0
  3  4  2  0  0  0  0
  3  2  1  0  0  0  0
  4  5  1  0  0  0  0
  5 24  1  0  0  0  0
  5  6  2  0  0  0  0
  6  1  1  0  0  0  0
  7  2  1  0  0  0  0
  8  3  1  0  0  0  0
  9  4  1  0  0  0  0
 10 15  1  0  0  0  0
 11 12  1  0  0  0  0
 11 10  2  0  0  0  0
 12 13  2  0  0  0  0
 13 14  1  0  0  0  0
 14 16  1  0  0  0  0
 15 14  2  0  0  0  0
 16 19  1  0  0  0  0
 16 18  1  0  0  0  0
 17 10  1  0  0  0  0
 20 21  1  0  0  0  0
 20 11  1  0  0  0  0
 22 20  1  0  0  0  0
 23 20  1  0  0  0  0
 24 25  1  0  0  0  0
 25 27  2  0  0  0  0
 25 26  1  0  0  0  0
 28 29  1  0  0  0  0
 28 27  1  0  0  0  0
 30 28  2  0  0  0  0
 31 30  1  0  0  0  0
 32 30  1  0  0  0  0
 32 24  2  0  0  0  0
M  END
>  <minimizedAffinity>
-5.69346428

$$$$

 OpenBabel03272507593D

 32 34  0  0  0  0  0  0  0  0999 V2000
   39.8300   26.6660   33.2260 C   0  0  0  0  0  0  0  0  0  0  0  0
   40.9390   27.4760   33.0720 C   0  0  0  0  0  0  0  0  0  0  0  0
   42.1020   27.1530   33.7550 C   0  0  0  0  0  0  0  0  0  0  0  0
   42.1310   26.0330   34.5710 C   0  0  0  0  0  0  0  0  0  0  0  0
   41.0040   25.2560   34.6950 C   0  0  0  0  0  0  0  0  0  0  0  0
   39.8910   25.5780   34.0320 N   0  0  0  0  0  0  0  0  0  0  0  0
   41.0410   28.3670   32.4700 H   0  0  0  0  0  0  0  0  0  0  0  0
   43.0140   27.7370   33.6870 H   0  0  0  0  0  0  0  0  0  0  0  0
   43.0290   25.7890   35.0950 H   0  0  0  0  0  0  0  0  0  0  0  0
   36.4070   27.9330   32.3030 C   0  0  0  0  0  0  0  0  0  0  0  0
   37.5020   27.4810   33.0910 C   0  0  0  0  0  0  0  0  0  0  0  0
   38.6820   27.1370   32.4430 C   0  0  0  0  0  0  0  0  0  0  0  0
   38.7340   27.2500   31.0800 N   0  0  0  0  0  0  0  0  0  0  0  0
   37.6600   27.6880   30.3650 C   0  0  0  0  0  0  0  0  0  0  0  0
   36.5080   28.0270   30.9640 N   0  0  0  0  0  0  0  0  0  0  0  0
   37.9470   27.7230   28.9770 N   0  0  0  0  0  0  0  0  0  0  0  0
   35.4810   28.2050   32.7970 H   0  0  0  0  0  0  0  0  0  0  0  0
   38.6830   28.3700   28.5860 H   0  0  0  0  0  0  0  0  0  0  0  0
   37.3890   27.0760   28.3660 H   0  0  0  0  0  0  0  0  0  0  0  0
   37.3310   27.3970   34.5620 C   0  0  0  0  0  0  0  0  0  0  0  0
   36.2310   28.1410   34.9820 F   0  0  0  0  0  0  0  0  0  0  0  0
   37.1370   26.0990   34.9170 F   0  0  0  0  0  0  0  0  0  0  0  0
   38.4300   27.8760   35.2610 F   0  0  0  0  0  0  0  0  0  0  0  0
   40.9560   24.0630   35.5350 C   0  0  0  0  0  0  0  0  0  0  0  0
   42.1420   23.4500   35.8830 C   0  0  0  0  0  0  0  0  0  0  0  0
   43.1130   23.8370   35.5460 H   0  0  0  0  0  0  0  0  0  0  0  0
   42.2190   22.3090   36.6770 C   0  0  0  0  0  3  0  0  0  0  0  0
   41.0530   21.7430   37.1520 C   0  0  0  0  0  0  0  0  0  0  0  0
   41.0740   20.8650   37.7660 H   0  0  0  0  0  0  0  0  0  0  0  0
   39.8880   22.3530   36.8040 C   0  0  0  0  0  0  0  0  0  0  0  0
   38.9270   21.9590   37.1460 H   0  0  0  0  0  0  0  0  0  0  0  0
   39.8050   23.4790   36.0220 C   0  0  0  0  0  3  0  0  0  0  0  0
  1  6  1  0  0  0  0
  2  1  2  0  0  0  0
  2  3  1  0  0  0  0
  3  4  2  0  0  0  0
  4  5  1  0  0  0  0
  4  9  1  0  0  0  0
  5 24  1  0  0  0  0
  6  5  2  0  0  0  0
  7  2  1  0  0  0  0
  8  3  1  0  0  0  0
 10 17  1  0  0  0  0
 10 11  1  0  0  0  0
 11 20  1  0  0  0  0
 12 11  2  0  0  0  0
 12  1  1  0  0  0  0
 13 12  1  0  0  0  0
 14 15  1  0  0  0  0
 14 13  2  0  0  0  0
 15 10  2  0  0  0  0
 16 14  1  0  0  0  0
 18 16  1  0  0  0  0
 19 16  1  0  0  0  0
 20 22  1  0  0  0  0
 20 21  1  0  0  0  0
 20 23  1  0  0  0  0
 24 25  2  0  0  0  0
 24 32  1  0  0  0  0
 25 27  1  0  0  0  0
 26 25  1  0  0  0  0
 27 28  2  0  0  0  0
 28 29  1  0  0  0  0
 30 31  1  0  0  0  0
 30 28  1  0  0  0  0
 32 30  2  0  0  0  0
M  END
>  <minimizedAffinity>
-5.66987276

$$$$
