
 OpenBabel03272510343D

 28 30  0  0  0  0  0  0  0  0999 V2000
   35.8620   30.1130   47.1920 C   0  0  0  0  0  0  0  0  0  0  0  0
   35.3960   30.1910   45.9010 C   0  0  0  0  0  0  0  0  0  0  0  0
   34.3630   29.3650   45.4870 C   0  0  0  0  0  0  0  0  0  0  0  0
   33.8260   28.4760   46.3970 C   0  0  0  0  0  0  0  0  0  0  0  0
   34.2890   28.3940   47.6910 C   0  0  0  0  0  0  0  0  0  0  0  0
   35.3210   29.2200   48.1050 C   0  0  0  0  0  0  0  0  0  0  0  0
   35.8250   30.8960   45.1850 H   0  0  0  0  0  0  0  0  0  0  0  0
   33.9940   29.4230   44.4730 H   0  0  0  0  0  0  0  0  0  0  0  0
   33.0120   27.7990   46.1330 H   0  0  0  0  0  0  0  0  0  0  0  0
   33.9210   27.7220   48.4650 H   0  0  0  0  0  0  0  0  0  0  0  0
   37.7060   32.7010   48.9880 C   0  0  0  0  0  0  0  0  0  0  0  0
   38.9210   32.8040   48.3120 C   0  0  0  0  0  0  0  0  0  0  0  0
   39.1020   31.9500   47.2000 C   0  0  0  0  0  0  0  0  0  0  0  0
   38.1080   31.0920   46.8560 N   0  0  0  0  0  0  0  0  0  0  0  0
   36.9580   31.0290   47.5370 C   0  0  0  0  0  0  0  0  0  0  0  0
   36.7570   31.8400   48.6110 N   0  0  0  0  0  0  0  0  0  0  0  0
   37.5300   33.3420   49.8480 H   0  0  0  0  0  0  0  0  0  0  0  0
   39.7090   33.4910   48.5910 H   0  0  0  0  0  0  0  0  0  0  0  0
   40.0290   31.9850   46.6350 H   0  0  0  0  0  0  0  0  0  0  0  0
   35.9400   29.2750   49.4310 C   0  0  0  0  0  0  0  0  0  0  0  0
   35.0940   29.5170   50.5140 C   0  0  0  0  0  0  0  0  0  0  0  0
   34.0140   29.6670   50.4280 H   0  0  0  0  0  0  0  0  0  0  0  0
   35.6080   29.5820   51.8050 C   0  0  0  0  0  3  0  0  0  0  0  0
   36.9820   29.4010   51.9980 C   0  0  0  0  0  0  0  0  0  0  0  0
   37.3500   29.4570   53.0190 H   0  0  0  0  0  0  0  0  0  0  0  0
   37.8100   29.1590   50.8990 C   0  0  0  0  0  0  0  0  0  0  0  0
   38.8870   29.0180   51.0640 H   0  0  0  0  0  0  0  0  0  0  0  0
   37.2940   29.0980   49.6390 C   0  0  0  0  0  3  0  0  0  0  0  0
  1 15  1  0  0  0  0
  1  6  1  0  0  0  0
  2  1  2  0  0  0  0
  3  2  1  0  0  0  0
  3  4  2  0  0  0  0
  4  5  1  0  0  0  0
  5  6  2  0  0  0  0
  5 10  1  0  0  0  0
  6 20  1  0  0  0  0
  7  2  1  0  0  0  0
  8  3  1  0  0  0  0
  9  4  1  0  0  0  0
 11 17  1  0  0  0  0
 12 18  1  0  0  0  0
 12 11  2  0  0  0  0
 13 12  1  0  0  0  0
 14 13  2  0  0  0  0
 14 15  1  0  0  0  0
 15 16  2  0  0  0  0
 16 11  1  0  0  0  0
 19 13  1  0  0  0  0
 20 28  2  0  0  0  0
 20 21  1  0  0  0  0
 21 23  2  0  0  0  0
 22 21  1  0  0  0  0
 23 24  1  0  0  0  0
 24 25  1  0  0  0  0
 26 27  1  0  0  0  0
 26 24  2  0  0  0  0
 28 26  1  0  0  0  0
M  END
>  <minimizedAffinity>
-4.83648586

>  <minimizedRMSD>
1.66379917

$$$$
