
 OpenBabel03272507063D

 31 34  0  0  0  0  0  0  0  0999 V2000
   36.5290   28.8420   31.7680 C   0  0  0  0  0  0  0  0  0  0  0  0
   35.8830   29.7790   32.6010 C   0  0  0  0  0  0  0  0  0  0  0  0
   35.7740   29.4520   33.9610 C   0  0  0  0  0  0  0  0  0  0  0  0
   36.2880   28.2730   34.3910 N   0  0  0  0  0  0  0  0  0  0  0  0
   36.8950   27.4050   33.5790 C   0  0  0  0  0  0  0  0  0  0  0  0
   37.0180   27.6850   32.2660 N   0  0  0  0  0  0  0  0  0  0  0  0
   36.6050   29.1090   30.7210 H   0  0  0  0  0  0  0  0  0  0  0  0
   35.5030   30.6880   32.1960 H   0  0  0  0  0  0  0  0  0  0  0  0
   37.8040   25.1420   33.2340 C   0  0  0  0  0  0  0  0  0  0  0  0
   37.4190   26.1640   34.1110 C   0  0  0  0  0  0  0  0  0  0  0  0
   37.5370   25.9980   35.4820 C   0  0  0  0  0  0  0  0  0  0  0  0
   38.0330   24.8330   36.0190 C   0  0  0  0  0  0  0  0  0  0  0  0
   38.2560   24.3990   37.2700 N   0  0  0  0  0  0  0  0  0  0  0  0
   38.7670   23.1360   37.1120 C   0  0  0  0  0  0  0  0  0  0  0  0
   38.8540   22.8050   35.8020 N   0  0  0  0  0  0  0  0  0  0  0  0
   38.4020   23.8480   35.1060 C   0  0  0  0  0  0  0  0  0  0  0  0
   38.3070   23.9570   33.7430 C   0  0  0  0  0  0  0  0  0  0  0  0
   37.6980   25.3080   32.1780 H   0  0  0  0  0  0  0  0  0  0  0  0
   37.2400   26.7850   36.1660 H   0  0  0  0  0  0  0  0  0  0  0  0
   38.0840   24.8990   38.1480 H   0  0  0  0  0  0  0  0  0  0  0  0
   39.0590   22.4960   37.9380 H   0  0  0  0  0  0  0  0  0  0  0  0
   38.6060   23.1680   33.0770 H   0  0  0  0  0  0  0  0  0  0  0  0
   35.1340   30.3420   34.8910 C   0  0  0  0  0  0  0  0  0  0  0  0
   33.7840   30.4040   35.1230 C   0  0  0  0  0  0  0  0  0  0  0  0
   33.1230   29.7490   34.5850 H   0  0  0  0  0  0  0  0  0  0  0  0
   33.1610   31.2460   36.0070 C   0  0  0  0  0  3  0  0  0  0  0  0
   33.9590   32.1260   36.7420 C   0  0  0  0  0  0  0  0  0  0  0  0
   33.4940   32.8030   37.4460 H   0  0  0  0  0  0  0  0  0  0  0  0
   35.3180   32.1020   36.5440 C   0  0  0  0  0  0  0  0  0  0  0  0
   35.9600   32.7790   37.1060 H   0  0  0  0  0  0  0  0  0  0  0  0
   35.8820   31.2230   35.6350 C   0  0  0  0  0  3  0  0  0  0  0  0
  1  6  2  0  0  0  0
  1  2  1  0  0  0  0
  2  3  2  0  0  0  0
  3  4  1  0  0  0  0
  3 23  1  0  0  0  0
  5 10  1  0  0  0  0
  5  4  2  0  0  0  0
  6  5  1  0  0  0  0
  7  1  1  0  0  0  0
  8  2  1  0  0  0  0
  9 17  2  0  0  0  0
  9 10  1  0  0  0  0
 10 11  2  0  0  0  0
 11 12  1  0  0  0  0
 11 19  1  0  0  0  0
 12 13  1  0  0  0  0
 13 20  1  0  0  0  0
 14 13  1  0  0  0  0
 14 21  1  0  0  0  0
 15 14  2  0  0  0  0
 16 15  1  0  0  0  0
 16 12  2  0  0  0  0
 17 16  1  0  0  0  0
 18  9  1  0  0  0  0
 22 17  1  0  0  0  0
 23 24  2  0  0  0  0
 23 31  1  0  0  0  0
 24 26  1  0  0  0  0
 25 24  1  0  0  0  0
 26 27  2  0  0  0  0
 27 28  1  0  0  0  0
 29 27  1  0  0  0  0
 29 30  1  0  0  0  0
 31 29  2  0  0  0  0
M  END
>  <minimizedAffinity>
-6.01675987

$$$$

 OpenBabel03272507063D

 31 34  0  0  0  0  0  0  0  0999 V2000
   38.6150   24.6460   32.2960 C   0  0  0  0  0  0  0  0  0  0  0  0
   38.8660   24.0720   33.5600 C   0  0  0  0  0  0  0  0  0  0  0  0
   38.3890   24.7680   34.6810 C   0  0  0  0  0  0  0  0  0  0  0  0
   37.7240   25.9340   34.4900 N   0  0  0  0  0  0  0  0  0  0  0  0
   37.5010   26.4530   33.2800 C   0  0  0  0  0  0  0  0  0  0  0  0
   37.9440   25.8130   32.1800 N   0  0  0  0  0  0  0  0  0  0  0  0
   38.9890   24.0970   31.4410 H   0  0  0  0  0  0  0  0  0  0  0  0
   39.3950   23.1510   33.6380 H   0  0  0  0  0  0  0  0  0  0  0  0
   36.3150   28.3540   34.3040 C   0  0  0  0  0  0  0  0  0  0  0  0
   36.7820   27.7060   33.1540 C   0  0  0  0  0  0  0  0  0  0  0  0
   36.5650   28.2520   31.8990 C   0  0  0  0  0  0  0  0  0  0  0  0
   35.8890   29.4400   31.7450 C   0  0  0  0  0  0  0  0  0  0  0  0
   35.5400   30.1880   30.6870 N   0  0  0  0  0  0  0  0  0  0  0  0
   34.8760   31.2610   31.2260 C   0  0  0  0  0  0  0  0  0  0  0  0
   34.8200   31.1730   32.5760 N   0  0  0  0  0  0  0  0  0  0  0  0
   35.4450   30.0460   32.9180 C   0  0  0  0  0  0  0  0  0  0  0  0
   35.6310   29.5520   34.1840 C   0  0  0  0  0  0  0  0  0  0  0  0
   36.5030   27.9000   35.2590 H   0  0  0  0  0  0  0  0  0  0  0  0
   36.9250   27.7540   31.0050 H   0  0  0  0  0  0  0  0  0  0  0  0
   35.7260   30.0010   29.6970 H   0  0  0  0  0  0  0  0  0  0  0  0
   34.4560   32.0680   30.6360 H   0  0  0  0  0  0  0  0  0  0  0  0
   35.2690   30.0570   35.0610 H   0  0  0  0  0  0  0  0  0  0  0  0
   38.5940   24.2660   36.0120 C   0  0  0  0  0  0  0  0  0  0  0  0
   39.5460   23.3470   36.3710 C   0  0  0  0  0  0  0  0  0  0  0  0
   40.2100   22.9510   35.6250 H   0  0  0  0  0  0  0  0  0  0  0  0
   39.7520   22.8600   37.6360 C   0  0  0  0  0  3  0  0  0  0  0  0
   38.9260   23.3320   38.6590 C   0  0  0  0  0  0  0  0  0  0  0  0
   39.0650   22.9640   39.6670 H   0  0  0  0  0  0  0  0  0  0  0  0
   37.9550   24.2520   38.3480 C   0  0  0  0  0  0  0  0  0  0  0  0
   37.2990   24.6340   39.1290 H   0  0  0  0  0  0  0  0  0  0  0  0
   37.8030   24.7030   37.0470 C   0  0  0  0  0  3  0  0  0  0  0  0
  1  2  1  0  0  0  0
  2  8  1  0  0  0  0
  2  3  2  0  0  0  0
  3 23  1  0  0  0  0
  4  3  1  0  0  0  0
  5  4  2  0  0  0  0
  6  1  2  0  0  0  0
  6  5  1  0  0  0  0
  7  1  1  0  0  0  0
  9 18  1  0  0  0  0
 10  5  1  0  0  0  0
 10  9  2  0  0  0  0
 11 10  1  0  0  0  0
 12 11  2  0  0  0  0
 12 16  1  0  0  0  0
 13 14  1  0  0  0  0
 13 12  1  0  0  0  0
 14 15  2  0  0  0  0
 15 16  1  0  0  0  0
 16 17  2  0  0  0  0
 17  9  1  0  0  0  0
 17 22  1  0  0  0  0
 19 11  1  0  0  0  0
 20 13  1  0  0  0  0
 21 14  1  0  0  0  0
 23 24  2  0  0  0  0
 23 31  1  0  0  0  0
 24 26  1  0  0  0  0
 25 24  1  0  0  0  0
 26 27  2  0  0  0  0
 27 28  1  0  0  0  0
 29 27  1  0  0  0  0
 29 30  1  0  0  0  0
 31 29  2  0  0  0  0
M  END
>  <minimizedAffinity>
-6.01375675

$$$$

 OpenBabel03272507063D

 31 34  0  0  0  0  0  0  0  0999 V2000
   37.9680   23.6790   38.1470 C   0  0  0  0  0  0  0  0  0  0  0  0
   39.2110   23.0200   38.0500 C   0  0  0  0  0  0  0  0  0  0  0  0
   39.9740   23.2660   36.8980 C   0  0  0  0  0  0  0  0  0  0  0  0
   39.4810   24.1100   35.9580 N   0  0  0  0  0  0  0  0  0  0  0  0
   38.2990   24.7200   36.0770 C   0  0  0  0  0  0  0  0  0  0  0  0
   37.5390   24.5080   37.1690 N   0  0  0  0  0  0  0  0  0  0  0  0
   37.3910   23.4790   39.0410 H   0  0  0  0  0  0  0  0  0  0  0  0
   39.5380   22.3700   38.8280 H   0  0  0  0  0  0  0  0  0  0  0  0
   37.4630   26.9190   35.3480 C   0  0  0  0  0  0  0  0  0  0  0  0
   37.8370   25.6080   35.0290 C   0  0  0  0  0  0  0  0  0  0  0  0
   37.7730   25.1550   33.7210 C   0  0  0  0  0  0  0  0  0  0  0  0
   37.3420   25.9740   32.7030 C   0  0  0  0  0  0  0  0  0  0  0  0
   37.1790   25.8160   31.3800 N   0  0  0  0  0  0  0  0  0  0  0  0
   36.7130   27.0300   30.9420 C   0  0  0  0  0  0  0  0  0  0  0  0
   36.5940   27.9060   31.9670 N   0  0  0  0  0  0  0  0  0  0  0  0
   36.9810   27.2680   33.0720 C   0  0  0  0  0  0  0  0  0  0  0  0
   37.0250   27.7690   34.3470 C   0  0  0  0  0  0  0  0  0  0  0  0
   37.5270   27.2330   36.3740 H   0  0  0  0  0  0  0  0  0  0  0  0
   38.0620   24.1410   33.4670 H   0  0  0  0  0  0  0  0  0  0  0  0
   37.3610   24.9770   30.8200 H   0  0  0  0  0  0  0  0  0  0  0  0
   36.4760   27.2460   29.9060 H   0  0  0  0  0  0  0  0  0  0  0  0
   36.7350   28.7770   34.5830 H   0  0  0  0  0  0  0  0  0  0  0  0
   41.2550   22.6430   36.7070 C   0  0  0  0  0  0  0  0  0  0  0  0
   42.3260   23.2170   36.0740 C   0  0  0  0  0  0  0  0  0  0  0  0
   42.2370   24.2120   35.6780 H   0  0  0  0  0  0  0  0  0  0  0  0
   43.5520   22.6340   35.8850 C   0  0  0  0  0  3  0  0  0  0  0  0
   43.7400   21.3390   36.3750 C   0  0  0  0  0  0  0  0  0  0  0  0
   44.6980   20.8530   36.2390 H   0  0  0  0  0  0  0  0  0  0  0  0
   42.6950   20.7210   37.0160 C   0  0  0  0  0  0  0  0  0  0  0  0
   42.8190   19.7110   37.4050 H   0  0  0  0  0  0  0  0  0  0  0  0
   41.4820   21.3700   37.1730 C   0  0  0  0  0  3  0  0  0  0  0  0
  1  7  1  0  0  0  0
  2  1  1  0  0  0  0
  2  8  1  0  0  0  0
  3  2  2  0  0  0  0
  4  5  2  0  0  0  0
  4  3  1  0  0  0  0
  5  6  1  0  0  0  0
  6  1  2  0  0  0  0
  9 18  1  0  0  0  0
 10  9  1  0  0  0  0
 10  5  1  0  0  0  0
 11 10  2  0  0  0  0
 12 16  2  0  0  0  0
 12 11  1  0  0  0  0
 13 12  1  0  0  0  0
 14 13  1  0  0  0  0
 14 15  2  0  0  0  0
 15 16  1  0  0  0  0
 16 17  1  0  0  0  0
 17 22  1  0  0  0  0
 17  9  2  0  0  0  0
 19 11  1  0  0  0  0
 20 13  1  0  0  0  0
 21 14  1  0  0  0  0
 23  3  1  0  0  0  0
 23 31  1  0  0  0  0
 24 23  2  0  0  0  0
 25 24  1  0  0  0  0
 26 24  1  0  0  0  0
 26 27  2  0  0  0  0
 27 29  1  0  0  0  0
 28 27  1  0  0  0  0
 29 31  2  0  0  0  0
 29 30  1  0  0  0  0
M  END
>  <minimizedAffinity>
-5.86086798

$$$$

 OpenBabel03272507063D

 31 34  0  0  0  0  0  0  0  0999 V2000
   37.5860   22.7030   32.5080 C   0  0  0  0  0  0  0  0  0  0  0  0
   37.9160   22.5360   33.8690 C   0  0  0  0  0  0  0  0  0  0  0  0
   38.0300   23.7000   34.6440 C   0  0  0  0  0  0  0  0  0  0  0  0
   37.8200   24.9010   34.0510 N   0  0  0  0  0  0  0  0  0  0  0  0
   37.5090   25.0290   32.7590 C   0  0  0  0  0  0  0  0  0  0  0  0
   37.3910   23.9330   31.9830 N   0  0  0  0  0  0  0  0  0  0  0  0
   37.5020   21.7960   31.9230 H   0  0  0  0  0  0  0  0  0  0  0  0
   38.0670   21.5610   34.2710 H   0  0  0  0  0  0  0  0  0  0  0  0
   36.8020   27.3750   33.0030 C   0  0  0  0  0  0  0  0  0  0  0  0
   37.3000   26.3470   32.1940 C   0  0  0  0  0  0  0  0  0  0  0  0
   37.5970   26.5800   30.8610 C   0  0  0  0  0  0  0  0  0  0  0  0
   37.4120   27.8200   30.2950 C   0  0  0  0  0  0  0  0  0  0  0  0
   37.6050   28.3280   29.0670 N   0  0  0  0  0  0  0  0  0  0  0  0
   37.2210   29.6410   29.1710 C   0  0  0  0  0  0  0  0  0  0  0  0
   36.8030   29.9290   30.4260 N   0  0  0  0  0  0  0  0  0  0  0  0
   36.9150   28.8090   31.1410 C   0  0  0  0  0  0  0  0  0  0  0  0
   36.6050   28.6360   32.4650 C   0  0  0  0  0  0  0  0  0  0  0  0
   36.5840   27.1560   34.0320 H   0  0  0  0  0  0  0  0  0  0  0  0
   37.9830   25.7870   30.2290 H   0  0  0  0  0  0  0  0  0  0  0  0
   37.9610   27.8440   28.2370 H   0  0  0  0  0  0  0  0  0  0  0  0
   37.2520   30.3450   28.3470 H   0  0  0  0  0  0  0  0  0  0  0  0
   36.2220   29.4310   33.0790 H   0  0  0  0  0  0  0  0  0  0  0  0
   38.3620   23.6340   36.0410 C   0  0  0  0  0  0  0  0  0  0  0  0
   37.6550   24.2340   37.0500 C   0  0  0  0  0  0  0  0  0  0  0  0
   36.7750   24.8060   36.8150 H   0  0  0  0  0  0  0  0  0  0  0  0
   37.9600   24.1790   38.3850 C   0  0  0  0  0  3  0  0  0  0  0  0
   39.0910   23.4520   38.7660 C   0  0  0  0  0  0  0  0  0  0  0  0
   39.3570   23.3920   39.8130 H   0  0  0  0  0  0  0  0  0  0  0  0
   39.8340   22.8340   37.7900 C   0  0  0  0  0  0  0  0  0  0  0  0
   40.7200   22.2620   38.0630 H   0  0  0  0  0  0  0  0  0  0  0  0
   39.4660   22.9300   36.4580 C   0  0  0  0  0  3  0  0  0  0  0  0
  1  2  1  0  0  0  0
  2  8  1  0  0  0  0
  2  3  2  0  0  0  0
  3 23  1  0  0  0  0
  4  3  1  0  0  0  0
  5  4  2  0  0  0  0
  6  1  2  0  0  0  0
  6  5  1  0  0  0  0
  7  1  1  0  0  0  0
  9 18  1  0  0  0  0
 10  5  1  0  0  0  0
 10  9  2  0  0  0  0
 11 10  1  0  0  0  0
 12 11  2  0  0  0  0
 12 16  1  0  0  0  0
 13 14  1  0  0  0  0
 13 12  1  0  0  0  0
 14 15  2  0  0  0  0
 15 16  1  0  0  0  0
 16 17  2  0  0  0  0
 17  9  1  0  0  0  0
 17 22  1  0  0  0  0
 19 11  1  0  0  0  0
 20 13  1  0  0  0  0
 21 14  1  0  0  0  0
 23 31  2  0  0  0  0
 23 24  1  0  0  0  0
 24 26  2  0  0  0  0
 25 24  1  0  0  0  0
 26 27  1  0  0  0  0
 27 28  1  0  0  0  0
 29 30  1  0  0  0  0
 29 27  2  0  0  0  0
 31 29  1  0  0  0  0
M  END
>  <minimizedAffinity>
-5.80873585

$$$$

 OpenBabel03272507063D

 31 34  0  0  0  0  0  0  0  0999 V2000
   36.3670   28.8750   31.8230 C   0  0  0  0  0  0  0  0  0  0  0  0
   35.7580   29.8280   32.6670 C   0  0  0  0  0  0  0  0  0  0  0  0
   35.7210   29.5320   34.0380 C   0  0  0  0  0  0  0  0  0  0  0  0
   36.2630   28.3660   34.4680 N   0  0  0  0  0  0  0  0  0  0  0  0
   36.8330   27.4830   33.6450 C   0  0  0  0  0  0  0  0  0  0  0  0
   36.8870   27.7330   32.3220 N   0  0  0  0  0  0  0  0  0  0  0  0
   36.3870   29.1180   30.7680 H   0  0  0  0  0  0  0  0  0  0  0  0
   35.3520   30.7260   32.2620 H   0  0  0  0  0  0  0  0  0  0  0  0
   37.7410   26.1860   35.5320 C   0  0  0  0  0  0  0  0  0  0  0  0
   37.3910   26.2560   34.1790 C   0  0  0  0  0  0  0  0  0  0  0  0
   37.5720   25.1630   33.3460 C   0  0  0  0  0  0  0  0  0  0  0  0
   38.0960   23.9840   33.8220 C   0  0  0  0  0  0  0  0  0  0  0  0
   38.3780   22.7940   33.2680 N   0  0  0  0  0  0  0  0  0  0  0  0
   38.8860   22.0440   34.2980 C   0  0  0  0  0  0  0  0  0  0  0  0
   38.9160   22.7540   35.4500 N   0  0  0  0  0  0  0  0  0  0  0  0
   38.4280   23.9640   35.1740 C   0  0  0  0  0  0  0  0  0  0  0  0
   38.2710   25.0140   36.0430 C   0  0  0  0  0  0  0  0  0  0  0  0
   37.5850   27.0540   36.1460 H   0  0  0  0  0  0  0  0  0  0  0  0
   37.3030   25.2110   32.2960 H   0  0  0  0  0  0  0  0  0  0  0  0
   38.2440   22.5070   32.2930 H   0  0  0  0  0  0  0  0  0  0  0  0
   39.2170   21.0170   34.1910 H   0  0  0  0  0  0  0  0  0  0  0  0
   38.5430   24.9510   37.0810 H   0  0  0  0  0  0  0  0  0  0  0  0
   35.1230   30.4400   34.9790 C   0  0  0  0  0  0  0  0  0  0  0  0
   35.8070   31.3500   35.7430 C   0  0  0  0  0  0  0  0  0  0  0  0
   36.8760   31.4180   35.6560 H   0  0  0  0  0  0  0  0  0  0  0  0
   35.2490   32.2200   36.6430 C   0  0  0  0  0  3  0  0  0  0  0  0
   33.8630   32.1870   36.8080 C   0  0  0  0  0  0  0  0  0  0  0  0
   33.3950   32.8620   37.5130 H   0  0  0  0  0  0  0  0  0  0  0  0
   33.1340   31.2910   36.0660 C   0  0  0  0  0  0  0  0  0  0  0  0
   32.0510   31.2470   36.1780 H   0  0  0  0  0  0  0  0  0  0  0  0
   33.7630   30.4400   35.1730 C   0  0  0  0  0  3  0  0  0  0  0  0
  1  6  2  0  0  0  0
  1  2  1  0  0  0  0
  2  3  2  0  0  0  0
  3  4  1  0  0  0  0
  3 23  1  0  0  0  0
  5 10  1  0  0  0  0
  5  4  2  0  0  0  0
  6  5  1  0  0  0  0
  7  1  1  0  0  0  0
  8  2  1  0  0  0  0
  9 17  1  0  0  0  0
  9 18  1  0  0  0  0
 10  9  2  0  0  0  0
 11 12  2  0  0  0  0
 11 10  1  0  0  0  0
 12 16  1  0  0  0  0
 13 12  1  0  0  0  0
 13 14  1  0  0  0  0
 14 15  2  0  0  0  0
 16 15  1  0  0  0  0
 16 17  2  0  0  0  0
 17 22  1  0  0  0  0
 19 11  1  0  0  0  0
 20 13  1  0  0  0  0
 21 14  1  0  0  0  0
 23 31  2  0  0  0  0
 23 24  1  0  0  0  0
 24 26  2  0  0  0  0
 25 24  1  0  0  0  0
 26 27  1  0  0  0  0
 27 28  1  0  0  0  0
 29 30  1  0  0  0  0
 29 27  2  0  0  0  0
 31 29  1  0  0  0  0
M  END
>  <minimizedAffinity>
-5.79360723

$$$$

 OpenBabel03272507063D

 31 34  0  0  0  0  0  0  0  0999 V2000
   38.8100   24.7640   32.3490 C   0  0  0  0  0  0  0  0  0  0  0  0
   38.9980   24.1880   33.6230 C   0  0  0  0  0  0  0  0  0  0  0  0
   38.4550   24.8760   34.7190 C   0  0  0  0  0  0  0  0  0  0  0  0
   37.7920   26.0380   34.4950 N   0  0  0  0  0  0  0  0  0  0  0  0
   37.6300   26.5590   33.2780 C   0  0  0  0  0  0  0  0  0  0  0  0
   38.1370   25.9270   32.2010 N   0  0  0  0  0  0  0  0  0  0  0  0
   39.2350   24.2220   31.5140 H   0  0  0  0  0  0  0  0  0  0  0  0
   39.5290   23.2700   33.7270 H   0  0  0  0  0  0  0  0  0  0  0  0
   36.8500   28.4140   31.8570 C   0  0  0  0  0  0  0  0  0  0  0  0
   36.9090   27.8070   33.1170 C   0  0  0  0  0  0  0  0  0  0  0  0
   36.2840   28.3850   34.2100 C   0  0  0  0  0  0  0  0  0  0  0  0
   35.5890   29.5670   34.0900 C   0  0  0  0  0  0  0  0  0  0  0  0
   34.9030   30.3410   34.9460 N   0  0  0  0  0  0  0  0  0  0  0  0
   34.4510   31.3860   34.1820 C   0  0  0  0  0  0  0  0  0  0  0  0
   34.8490   31.2580   32.8940 N   0  0  0  0  0  0  0  0  0  0  0  0
   35.5590   30.1320   32.8170 C   0  0  0  0  0  0  0  0  0  0  0  0
   36.1590   29.6040   31.7030 C   0  0  0  0  0  0  0  0  0  0  0  0
   37.3470   27.9350   31.0340 H   0  0  0  0  0  0  0  0  0  0  0  0
   36.3260   27.9200   35.1880 H   0  0  0  0  0  0  0  0  0  0  0  0
   34.7500   30.1860   35.9480 H   0  0  0  0  0  0  0  0  0  0  0  0
   33.8540   32.2040   34.5710 H   0  0  0  0  0  0  0  0  0  0  0  0
   36.1070   30.0770   30.7390 H   0  0  0  0  0  0  0  0  0  0  0  0
   38.5920   24.3700   36.0570 C   0  0  0  0  0  0  0  0  0  0  0  0
   37.8570   24.7850   37.1370 C   0  0  0  0  0  0  0  0  0  0  0  0
   37.1100   25.5470   37.0100 H   0  0  0  0  0  0  0  0  0  0  0  0
   37.9780   24.3100   38.4180 C   0  0  0  0  0  3  0  0  0  0  0  0
   38.9300   23.3170   38.6580 C   0  0  0  0  0  0  0  0  0  0  0  0
   39.0480   22.9240   39.6600 H   0  0  0  0  0  0  0  0  0  0  0  0
   39.6920   22.8690   37.6070 C   0  0  0  0  0  0  0  0  0  0  0  0
   40.4410   22.0950   37.7710 H   0  0  0  0  0  0  0  0  0  0  0  0
   39.5170   23.3920   36.3370 C   0  0  0  0  0  3  0  0  0  0  0  0
  1  2  1  0  0  0  0
  2  8  1  0  0  0  0
  2  3  2  0  0  0  0
  3 23  1  0  0  0  0
  4  3  1  0  0  0  0
  5  4  2  0  0  0  0
  6  1  2  0  0  0  0
  6  5  1  0  0  0  0
  7  1  1  0  0  0  0
  9 10  1  0  0  0  0
 10  5  1  0  0  0  0
 10 11  2  0  0  0  0
 11 19  1  0  0  0  0
 12 11  1  0  0  0  0
 12 13  1  0  0  0  0
 13 20  1  0  0  0  0
 14 21  1  0  0  0  0
 14 13  1  0  0  0  0
 15 14  2  0  0  0  0
 16 15  1  0  0  0  0
 16 12  2  0  0  0  0
 17  9  2  0  0  0  0
 17 16  1  0  0  0  0
 18  9  1  0  0  0  0
 22 17  1  0  0  0  0
 23 31  2  0  0  0  0
 23 24  1  0  0  0  0
 24 26  2  0  0  0  0
 25 24  1  0  0  0  0
 26 27  1  0  0  0  0
 27 28  1  0  0  0  0
 29 30  1  0  0  0  0
 29 27  2  0  0  0  0
 31 29  1  0  0  0  0
M  END
>  <minimizedAffinity>
-5.77466106

$$$$

 OpenBabel03272507063D

 31 34  0  0  0  0  0  0  0  0999 V2000
   36.4070   30.6430   31.4350 C   0  0  0  0  0  0  0  0  0  0  0  0
   35.8290   31.2190   32.5860 C   0  0  0  0  0  0  0  0  0  0  0  0
   35.4190   30.3390   33.5990 C   0  0  0  0  0  0  0  0  0  0  0  0
   35.5980   29.0070   33.4180 N   0  0  0  0  0  0  0  0  0  0  0  0
   36.1480   28.4910   32.3170 C   0  0  0  0  0  0  0  0  0  0  0  0
   36.5550   29.3050   31.3230 N   0  0  0  0  0  0  0  0  0  0  0  0
   36.7190   31.3350   30.6620 H   0  0  0  0  0  0  0  0  0  0  0  0
   35.7190   32.2760   32.6630 H   0  0  0  0  0  0  0  0  0  0  0  0
   35.6070   26.3650   31.1980 C   0  0  0  0  0  0  0  0  0  0  0  0
   36.3060   27.0560   32.1940 C   0  0  0  0  0  0  0  0  0  0  0  0
   37.1500   26.3800   33.0620 C   0  0  0  0  0  0  0  0  0  0  0  0
   37.3240   25.0180   32.9700 C   0  0  0  0  0  0  0  0  0  0  0  0
   38.0540   24.1200   33.6510 N   0  0  0  0  0  0  0  0  0  0  0  0
   37.7750   22.9200   33.0480 C   0  0  0  0  0  0  0  0  0  0  0  0
   36.8990   23.0780   32.0270 N   0  0  0  0  0  0  0  0  0  0  0  0
   36.6070   24.3770   31.9630 C   0  0  0  0  0  0  0  0  0  0  0  0
   35.7600   24.9940   31.0790 C   0  0  0  0  0  0  0  0  0  0  0  0
   34.9620   26.9240   30.5450 H   0  0  0  0  0  0  0  0  0  0  0  0
   37.6950   26.9090   33.8360 H   0  0  0  0  0  0  0  0  0  0  0  0
   38.6800   24.2910   34.4440 H   0  0  0  0  0  0  0  0  0  0  0  0
   38.2060   21.9740   33.3580 H   0  0  0  0  0  0  0  0  0  0  0  0
   35.2260   24.4560   30.3160 H   0  0  0  0  0  0  0  0  0  0  0  0
   34.8190   30.8280   34.8110 C   0  0  0  0  0  0  0  0  0  0  0  0
   33.5340   30.5750   35.2130 C   0  0  0  0  0  0  0  0  0  0  0  0
   32.8950   29.9660   34.6000 H   0  0  0  0  0  0  0  0  0  0  0  0
   32.9500   31.0350   36.3660 C   0  0  0  0  0  3  0  0  0  0  0  0
   33.7220   31.8340   37.2130 C   0  0  0  0  0  0  0  0  0  0  0  0
   33.2870   32.2110   38.1290 H   0  0  0  0  0  0  0  0  0  0  0  0
   35.0160   32.1160   36.8520 C   0  0  0  0  0  0  0  0  0  0  0  0
   35.6360   32.7370   37.4970 H   0  0  0  0  0  0  0  0  0  0  0  0
   35.5430   31.6170   35.6720 C   0  0  0  0  0  3  0  0  0  0  0  0
  1  2  1  0  0  0  0
  2  8  1  0  0  0  0
  2  3  2  0  0  0  0
  3 23  1  0  0  0  0
  4  3  1  0  0  0  0
  5  4  2  0  0  0  0
  6  1  2  0  0  0  0
  6  5  1  0  0  0  0
  7  1  1  0  0  0  0
  9 10  1  0  0  0  0
 10  5  1  0  0  0  0
 10 11  2  0  0  0  0
 11 19  1  0  0  0  0
 12 11  1  0  0  0  0
 12 13  1  0  0  0  0
 13 20  1  0  0  0  0
 14 21  1  0  0  0  0
 14 13  1  0  0  0  0
 15 14  2  0  0  0  0
 16 15  1  0  0  0  0
 16 12  2  0  0  0  0
 17  9  2  0  0  0  0
 17 16  1  0  0  0  0
 18  9  1  0  0  0  0
 22 17  1  0  0  0  0
 23 24  2  0  0  0  0
 23 31  1  0  0  0  0
 24 26  1  0  0  0  0
 25 24  1  0  0  0  0
 26 27  2  0  0  0  0
 27 28  1  0  0  0  0
 29 27  1  0  0  0  0
 29 30  1  0  0  0  0
 31 29  2  0  0  0  0
M  END
>  <minimizedAffinity>
-5.6727519

$$$$

 OpenBabel03272507063D

 31 34  0  0  0  0  0  0  0  0999 V2000
   35.9160   28.5570   31.7320 C   0  0  0  0  0  0  0  0  0  0  0  0
   35.2740   29.4520   32.6130 C   0  0  0  0  0  0  0  0  0  0  0  0
   35.6570   29.4020   33.9620 C   0  0  0  0  0  0  0  0  0  0  0  0
   36.6070   28.5090   34.3370 N   0  0  0  0  0  0  0  0  0  0  0  0
   37.1970   27.6740   33.4800 C   0  0  0  0  0  0  0  0  0  0  0  0
   36.8550   27.6940   32.1770 N   0  0  0  0  0  0  0  0  0  0  0  0
   35.6100   28.6080   30.6950 H   0  0  0  0  0  0  0  0  0  0  0  0
   34.5350   30.1290   32.2510 H   0  0  0  0  0  0  0  0  0  0  0  0
   37.8360   25.4400   34.2970 C   0  0  0  0  0  0  0  0  0  0  0  0
   38.2050   26.7460   33.9550 C   0  0  0  0  0  0  0  0  0  0  0  0
   39.5230   27.1590   34.0650 C   0  0  0  0  0  0  0  0  0  0  0  0
   40.5040   26.3030   34.5100 C   0  0  0  0  0  0  0  0  0  0  0  0
   41.8260   26.4180   34.7130 N   0  0  0  0  0  0  0  0  0  0  0  0
   42.2140   25.1840   35.1680 C   0  0  0  0  0  0  0  0  0  0  0  0
   41.1610   24.3370   35.2420 N   0  0  0  0  0  0  0  0  0  0  0  0
   40.0870   25.0150   34.8360 C   0  0  0  0  0  0  0  0  0  0  0  0
   38.7990   24.5530   34.7470 C   0  0  0  0  0  0  0  0  0  0  0  0
   36.8050   25.1570   34.1970 H   0  0  0  0  0  0  0  0  0  0  0  0
   39.8140   28.1700   33.8020 H   0  0  0  0  0  0  0  0  0  0  0  0
   42.4140   27.2430   34.5630 H   0  0  0  0  0  0  0  0  0  0  0  0
   43.2360   24.9320   35.4310 H   0  0  0  0  0  0  0  0  0  0  0  0
   38.5250   23.5470   35.0110 H   0  0  0  0  0  0  0  0  0  0  0  0
   35.0610   30.2740   34.9380 C   0  0  0  0  0  0  0  0  0  0  0  0
   35.7380   31.2040   35.6820 C   0  0  0  0  0  0  0  0  0  0  0  0
   36.7980   31.3200   35.5510 H   0  0  0  0  0  0  0  0  0  0  0  0
   35.1820   32.0410   36.6150 C   0  0  0  0  0  3  0  0  0  0  0  0
   33.8060   31.9470   36.8380 C   0  0  0  0  0  0  0  0  0  0  0  0
   33.3410   32.5950   37.5690 H   0  0  0  0  0  0  0  0  0  0  0  0
   33.0850   31.0280   36.1170 C   0  0  0  0  0  0  0  0  0  0  0  0
   32.0110   30.9370   36.2740 H   0  0  0  0  0  0  0  0  0  0  0  0
   33.7110   30.2130   35.1880 C   0  0  0  0  0  3  0  0  0  0  0  0
  1  6  2  0  0  0  0
  1  2  1  0  0  0  0
  2  3  2  0  0  0  0
  3  4  1  0  0  0  0
  3 23  1  0  0  0  0
  5 10  1  0  0  0  0
  5  4  2  0  0  0  0
  6  5  1  0  0  0  0
  7  1  1  0  0  0  0
  8  2  1  0  0  0  0
  9 17  1  0  0  0  0
 10 11  1  0  0  0  0
 10  9  2  0  0  0  0
 11 12  2  0  0  0  0
 12 13  1  0  0  0  0
 12 16  1  0  0  0  0
 13 14  1  0  0  0  0
 14 15  2  0  0  0  0
 14 21  1  0  0  0  0
 16 15  1  0  0  0  0
 17 16  2  0  0  0  0
 17 22  1  0  0  0  0
 18  9  1  0  0  0  0
 19 11  1  0  0  0  0
 20 13  1  0  0  0  0
 23 31  2  0  0  0  0
 23 24  1  0  0  0  0
 24 26  2  0  0  0  0
 25 24  1  0  0  0  0
 26 27  1  0  0  0  0
 27 28  1  0  0  0  0
 29 30  1  0  0  0  0
 29 27  2  0  0  0  0
 31 29  1  0  0  0  0
M  END
>  <minimizedAffinity>
-5.64677572

$$$$

 OpenBabel03272507063D

 31 34  0  0  0  0  0  0  0  0999 V2000
   36.6560   28.7770   31.8830 C   0  0  0  0  0  0  0  0  0  0  0  0
   37.2000   27.5760   32.3840 C   0  0  0  0  0  0  0  0  0  0  0  0
   37.0390   27.3290   33.7560 C   0  0  0  0  0  0  0  0  0  0  0  0
   36.3800   28.2440   34.5110 N   0  0  0  0  0  0  0  0  0  0  0  0
   35.8760   29.3720   34.0080 C   0  0  0  0  0  0  0  0  0  0  0  0
   36.0110   29.6440   32.6940 N   0  0  0  0  0  0  0  0  0  0  0  0
   36.7890   28.9540   30.8230 H   0  0  0  0  0  0  0  0  0  0  0  0
   37.7050   26.9010   31.7340 H   0  0  0  0  0  0  0  0  0  0  0  0
   35.9230   31.1690   35.6920 C   0  0  0  0  0  0  0  0  0  0  0  0
   35.1840   30.3040   34.8770 C   0  0  0  0  0  0  0  0  0  0  0  0
   33.7980   30.3310   34.8920 C   0  0  0  0  0  0  0  0  0  0  0  0
   33.1120   31.2050   35.7030 C   0  0  0  0  0  0  0  0  0  0  0  0
   31.8110   31.4510   35.9250 N   0  0  0  0  0  0  0  0  0  0  0  0
   31.8030   32.4540   36.8610 C   0  0  0  0  0  0  0  0  0  0  0  0
   33.0630   32.8110   37.2040 N   0  0  0  0  0  0  0  0  0  0  0  0
   33.8920   32.0450   36.4950 C   0  0  0  0  0  0  0  0  0  0  0  0
   35.2630   32.0610   36.5200 C   0  0  0  0  0  0  0  0  0  0  0  0
   36.9950   31.1180   35.6510 H   0  0  0  0  0  0  0  0  0  0  0  0
   33.2200   29.6630   34.2630 H   0  0  0  0  0  0  0  0  0  0  0  0
   31.0020   30.9940   35.4910 H   0  0  0  0  0  0  0  0  0  0  0  0
   30.8980   32.8940   37.2650 H   0  0  0  0  0  0  0  0  0  0  0  0
   35.8220   32.7290   37.1490 H   0  0  0  0  0  0  0  0  0  0  0  0
   37.5570   26.1330   34.3630 C   0  0  0  0  0  0  0  0  0  0  0  0
   37.8460   24.9710   33.6960 C   0  0  0  0  0  0  0  0  0  0  0  0
   37.6860   24.9140   32.6350 H   0  0  0  0  0  0  0  0  0  0  0  0
   38.3410   23.8250   34.2620 C   0  0  0  0  0  3  0  0  0  0  0  0
   38.5730   23.8260   35.6400 C   0  0  0  0  0  0  0  0  0  0  0  0
   38.9630   22.9340   36.1130 H   0  0  0  0  0  0  0  0  0  0  0  0
   38.2970   24.9670   36.3520 C   0  0  0  0  0  0  0  0  0  0  0  0
   38.4710   24.9910   37.4270 H   0  0  0  0  0  0  0  0  0  0  0  0
   37.8000   26.0920   35.7150 C   0  0  0  0  0  3  0  0  0  0  0  0
  1  2  2  0  0  0  0
  1  6  1  0  0  0  0
  2  3  1  0  0  0  0
  3 23  1  0  0  0  0
  3  4  2  0  0  0  0
  5  4  1  0  0  0  0
  5 10  1  0  0  0  0
  6  5  2  0  0  0  0
  7  1  1  0  0  0  0
  8  2  1  0  0  0  0
  9 17  1  0  0  0  0
 10 11  1  0  0  0  0
 10  9  2  0  0  0  0
 11 12  2  0  0  0  0
 12 13  1  0  0  0  0
 12 16  1  0  0  0  0
 13 14  1  0  0  0  0
 14 15  2  0  0  0  0
 14 21  1  0  0  0  0
 16 17  2  0  0  0  0
 16 15  1  0  0  0  0
 17 22  1  0  0  0  0
 18  9  1  0  0  0  0
 19 11  1  0  0  0  0
 20 13  1  0  0  0  0
 23 31  1  0  0  0  0
 24 26  1  0  0  0  0
 24 23  2  0  0  0  0
 25 24  1  0  0  0  0
 26 27  2  0  0  0  0
 27 28  1  0  0  0  0
 27 29  1  0  0  0  0
 29 30  1  0  0  0  0
 31 29  2  0  0  0  0
M  END
>  <minimizedAffinity>
-5.64148283

$$$$
