
 OpenBabel03272509093D

 40 43  0  0  0  0  0  0  0  0999 V2000
   33.1680   28.0330   47.8200 C   0  0  0  0  0  0  0  0  0  0  0  0
   32.4170   28.7260   47.4520 H   0  0  0  0  0  0  0  0  0  0  0  0
   32.6680   27.5070   48.6900 H   0  0  0  0  0  0  0  0  0  0  0  0
   33.5870   26.9610   46.8980 C   0  0  0  0  0  0  0  0  0  0  0  0
   33.7580   25.6420   47.3170 C   0  0  0  0  0  0  0  0  0  0  0  0
   34.1740   24.6530   46.4450 C   0  0  0  0  0  0  0  0  0  0  0  0
   34.4330   24.9460   45.1220 C   0  0  0  0  0  0  0  0  0  0  0  0
   34.2630   26.2390   44.7150 C   0  0  0  0  0  0  0  0  0  0  0  0
   33.8470   27.2430   45.5770 C   0  0  0  0  0  0  0  0  0  0  0  0
   33.5370   25.4890   48.3660 H   0  0  0  0  0  0  0  0  0  0  0  0
   34.2530   23.6990   46.9350 H   0  0  0  0  0  0  0  0  0  0  0  0
   34.7530   24.1160   44.5080 H   0  0  0  0  0  0  0  0  0  0  0  0
   34.4860   26.3900   43.6590 H   0  0  0  0  0  0  0  0  0  0  0  0
   33.7090   28.5270   44.9100 C   0  0  0  0  0  0  0  0  0  0  0  0
   34.9170   29.2150   44.7400 C   0  0  0  0  0  0  0  0  0  0  0  0
   35.8720   28.8130   45.0980 H   0  0  0  0  0  0  0  0  0  0  0  0
   35.0280   30.4410   44.1180 C   0  0  0  0  0  3  0  0  0  0  0  0
   33.9110   31.0550   43.6240 C   0  0  0  0  0  0  0  0  0  0  0  0
   33.8710   32.0070   43.1220 H   0  0  0  0  0  0  0  0  0  0  0  0
   32.7160   30.3920   43.7820 C   0  0  0  0  0  0  0  0  0  0  0  0
   31.7980   30.8320   43.4090 H   0  0  0  0  0  0  0  0  0  0  0  0
   32.6020   29.1680   44.4010 C   0  0  0  0  0  3  0  0  0  0  0  0
   34.9970   28.3780   49.4710 C   0  0  0  0  0  3  0  0  0  0  0  0
   34.3020   28.7670   48.4320 C   0  0  0  0  0  3  0  0  0  0  0  0
   37.3900   30.1630   51.5740 C   0  0  0  0  0  0  0  0  0  0  0  0
   38.1000   30.9360   50.6280 C   0  0  0  0  0  0  0  0  0  0  0  0
   37.7260   30.8170   49.2770 C   0  0  0  0  0  0  0  0  0  0  0  0
   36.6990   29.9620   48.9370 N   0  0  0  0  0  0  0  0  0  0  0  0
   36.0710   29.2570   49.9090 C   0  0  0  0  0  0  0  0  0  0  0  0
   36.4130   29.3570   51.2070 N   0  0  0  0  0  0  0  0  0  0  0  0
   37.6900   30.2680   52.6010 H   0  0  0  0  0  0  0  0  0  0  0  0
   38.9040   31.6110   50.8520 H   0  0  0  0  0  0  0  0  0  0  0  0
   38.3810   31.5690   48.1970 C   0  0  0  0  0  0  0  0  0  0  0  0
   38.5850   31.0420   46.9490 C   0  0  0  0  0  0  0  0  0  0  0  0
   39.2240   32.0310   46.1870 C   0  0  0  0  0  0  0  0  0  0  0  0
   39.3740   33.1040   47.0090 N   0  0  0  0  0  0  0  0  0  0  0  0
   38.8720   32.8280   48.2050 N   0  0  0  0  0  0  0  0  0  0  0  0
   38.3300   30.0540   46.5480 H   0  0  0  0  0  0  0  0  0  0  0  0
   39.5440   31.9810   45.1560 H   0  0  0  0  0  0  0  0  0  0  0  0
   39.8090   34.0350   46.7970 H   0  0  0  0  0  0  0  0  0  0  0  0
  1 24  1  0  0  0  0
  1  3  1  0  0  0  0
  2  1  1  0  0  0  0
  4  5  1  0  0  0  0
  4  1  1  0  0  0  0
  5 10  1  0  0  0  0
  6 11  1  0  0  0  0
  6  5  2  0  0  0  0
  7  6  1  0  0  0  0
  8  7  2  0  0  0  0
  8  9  1  0  0  0  0
  9  4  2  0  0  0  0
 12  7  1  0  0  0  0
 13  8  1  0  0  0  0
 14  9  1  0  0  0  0
 15 14  1  0  0  0  0
 15 16  1  0  0  0  0
 17 15  2  0  0  0  0
 18 20  2  0  0  0  0
 18 17  1  0  0  0  0
 19 18  1  0  0  0  0
 20 22  1  0  0  0  0
 21 20  1  0  0  0  0
 22 14  2  0  0  0  0
 23 29  1  0  0  0  0
 24 23  2  0  0  0  0
 25 31  1  0  0  0  0
 26 32  1  0  0  0  0
 26 25  2  0  0  0  0
 27 26  1  0  0  0  0
 28 27  2  0  0  0  0
 28 29  1  0  0  0  0
 29 30  2  0  0  0  0
 30 25  1  0  0  0  0
 33 37  2  0  0  0  0
 33 27  1  0  0  0  0
 34 33  1  0  0  0  0
 35 34  2  0  0  0  0
 35 36  1  0  0  0  0
 36 37  1  0  0  0  0
 38 34  1  0  0  0  0
 39 35  1  0  0  0  0
 40 36  1  0  0  0  0
M  END
>  <minimizedAffinity>
-6.36882496

>  <minimizedRMSD>
0.548076808

$$$$
