
 OpenBabel03272509273D

 41 43  0  0  1  0  0  0  0  0999 V2000
   38.2740   31.7300   48.7290 C   0  0  2  0  0  0  0  0  0  0  0  0
   38.8520   32.6590   49.7840 C   0  0  0  0  0  0  0  0  0  0  0  0
   39.4040   33.8990   49.1600 C   0  0  0  0  0  0  0  0  0  0  0  0
   39.9640   33.5740   47.7840 C   0  0  0  0  0  0  0  0  0  0  0  0
   38.7190   33.5030   46.9480 C   0  0  0  0  0  0  0  0  0  0  0  0
   37.8790   32.3710   47.4900 C   0  0  1  0  0  0  0  0  0  0  0  0
   39.0360   30.9050   48.6680 H   0  0  0  0  0  0  0  0  0  0  0  0
   39.5880   32.1870   50.4370 H   0  0  0  0  0  0  0  0  0  0  0  0
   38.0250   33.0050   50.4720 H   0  0  0  0  0  0  0  0  0  0  0  0
   40.2190   34.3250   49.7560 H   0  0  0  0  0  0  0  0  0  0  0  0
   38.6300   34.6870   49.0400 H   0  0  0  0  0  0  0  0  0  0  0  0
   40.5280   34.4700   47.4650 H   0  0  0  0  0  0  0  0  0  0  0  0
   40.5510   32.6520   47.7860 H   0  0  0  0  0  0  0  0  0  0  0  0
   38.2090   34.4980   47.1170 H   0  0  0  0  0  0  0  0  0  0  0  0
   38.9920   33.4900   45.9090 H   0  0  0  0  0  0  0  0  0  0  0  0
   36.8560   32.7470   47.5090 H   0  0  0  0  0  0  0  0  0  0  0  0
   38.0660   31.4080   46.3140 C   0  0  0  0  0  0  0  0  0  0  0  0
   39.2800   30.7980   46.0480 C   0  0  0  0  0  0  0  0  0  0  0  0
   40.1150   31.0190   46.7040 H   0  0  0  0  0  0  0  0  0  0  0  0
   39.5410   29.9190   45.0250 C   0  0  0  0  0  3  0  0  0  0  0  0
   38.4890   29.6220   44.1880 C   0  0  0  0  0  0  0  0  0  0  0  0
   38.6590   28.9410   43.3810 H   0  0  0  0  0  0  0  0  0  0  0  0
   37.2550   30.1900   44.3910 C   0  0  0  0  0  0  0  0  0  0  0  0
   36.4730   29.9250   43.7130 H   0  0  0  0  0  0  0  0  0  0  0  0
   37.0620   31.0640   45.4370 C   0  0  0  0  0  3  0  0  0  0  0  0
   36.8340   30.9390   49.5070 S   0  0  0  0  0  0  0  0  0  0  0  0
   36.1080   29.6490   48.4750 C   0  0  0  0  0  0  0  0  0  0  0  0
   36.8080   29.5680   47.5830 H   0  0  0  0  0  0  0  0  0  0  0  0
   36.2500   28.6890   48.9650 H   0  0  0  0  0  0  0  0  0  0  0  0
   34.7390   30.0350   48.0370 C   0  0  0  0  0  0  0  0  0  0  0  0
   34.8120   30.5610   47.0560 H   0  0  0  0  0  0  0  0  0  0  0  0
   34.1890   30.6460   48.7870 H   0  0  0  0  0  0  0  0  0  0  0  0
   33.3000   26.6020   47.7700 C   0  0  0  0  0  0  0  0  0  0  0  0
   34.1310   27.6440   48.1580 C   0  0  0  0  0  0  0  0  0  0  0  0
   33.8950   28.9080   47.7030 C   0  0  0  0  0  0  0  0  0  0  0  0
   32.8150   29.0670   46.8670 N   0  0  0  0  0  0  0  0  0  0  0  0
   32.0370   28.0500   46.5130 C   0  0  0  0  0  0  0  0  0  0  0  0
   32.2560   26.8080   46.9500 N   0  0  0  0  0  0  0  0  0  0  0  0
   33.4330   25.5820   48.0930 H   0  0  0  0  0  0  0  0  0  0  0  0
   34.9070   27.3040   48.8220 H   0  0  0  0  0  0  0  0  0  0  0  0
   31.1960   28.2360   45.8490 H   0  0  0  0  0  0  0  0  0  0  0  0
  1  7  1  6  0  0  0
  1 26  1  0  0  0  0
  1  2  1  0  0  0  0
  2  8  1  0  0  0  0
  2  9  1  0  0  0  0
  3 10  1  0  0  0  0
  3  2  1  0  0  0  0
  4 13  1  0  0  0  0
  4  3  1  0  0  0  0
  5 14  1  0  0  0  0
  5  6  1  0  0  0  0
  5  4  1  0  0  0  0
  6 16  1  1  0  0  0
  6  1  1  0  0  0  0
 11  3  1  0  0  0  0
 12  4  1  0  0  0  0
 15  5  1  0  0  0  0
 17  6  1  0  0  0  0
 18 17  1  0  0  0  0
 18 19  1  0  0  0  0
 20 18  2  0  0  0  0
 21 23  2  0  0  0  0
 21 20  1  0  0  0  0
 22 21  1  0  0  0  0
 23 25  1  0  0  0  0
 24 23  1  0  0  0  0
 25 17  2  0  0  0  0
 27 29  1  0  0  0  0
 27 26  1  0  0  0  0
 28 27  1  0  0  0  0
 30 27  1  0  0  0  0
 30 32  1  0  0  0  0
 31 30  1  0  0  0  0
 33 39  1  0  0  0  0
 33 34  1  0  0  0  0
 34 40  1  0  0  0  0
 35 30  1  0  0  0  0
 35 34  2  0  0  0  0
 36 35  1  0  0  0  0
 37 36  2  0  0  0  0
 37 38  1  0  0  0  0
 38 33  2  0  0  0  0
 41 37  1  0  0  0  0
M  END
>  <minimizedAffinity>
-3.64371967

>  <minimizedRMSD>
1.30947053

$$$$
