
 OpenBabel03272509093D

 40 43  0  0  0  0  0  0  0  0999 V2000
   33.1700   28.0330   47.8160 C   0  0  0  0  0  0  0  0  0  0  0  0
   32.4200   28.7260   47.4470 H   0  0  0  0  0  0  0  0  0  0  0  0
   32.6700   27.5080   48.6860 H   0  0  0  0  0  0  0  0  0  0  0  0
   33.5890   26.9610   46.8940 C   0  0  0  0  0  0  0  0  0  0  0  0
   33.7610   25.6420   47.3130 C   0  0  0  0  0  0  0  0  0  0  0  0
   34.1770   24.6530   46.4410 C   0  0  0  0  0  0  0  0  0  0  0  0
   34.4350   24.9450   45.1190 C   0  0  0  0  0  0  0  0  0  0  0  0
   34.2650   26.2390   44.7110 C   0  0  0  0  0  0  0  0  0  0  0  0
   33.8490   27.2420   45.5730 C   0  0  0  0  0  0  0  0  0  0  0  0
   33.5400   25.4890   48.3630 H   0  0  0  0  0  0  0  0  0  0  0  0
   34.2560   23.6990   46.9320 H   0  0  0  0  0  0  0  0  0  0  0  0
   34.7550   24.1150   44.5050 H   0  0  0  0  0  0  0  0  0  0  0  0
   34.4870   26.3890   43.6550 H   0  0  0  0  0  0  0  0  0  0  0  0
   33.7110   28.5270   44.9050 C   0  0  0  0  0  0  0  0  0  0  0  0
   34.9190   29.2140   44.7370 C   0  0  0  0  0  0  0  0  0  0  0  0
   35.8720   28.8140   45.0960 H   0  0  0  0  0  0  0  0  0  0  0  0
   35.0290   30.4420   44.1160 C   0  0  0  0  0  3  0  0  0  0  0  0
   33.9130   31.0560   43.6200 C   0  0  0  0  0  0  0  0  0  0  0  0
   33.8720   32.0070   43.1180 H   0  0  0  0  0  0  0  0  0  0  0  0
   32.7170   30.3910   43.7780 C   0  0  0  0  0  0  0  0  0  0  0  0
   31.7990   30.8310   43.4030 H   0  0  0  0  0  0  0  0  0  0  0  0
   32.6030   29.1670   44.3960 C   0  0  0  0  0  3  0  0  0  0  0  0
   34.9940   28.3810   49.4730 C   0  0  0  0  0  3  0  0  0  0  0  0
   34.3050   28.7660   48.4280 C   0  0  0  0  0  3  0  0  0  0  0  0
   37.3910   30.1620   51.5740 C   0  0  0  0  0  0  0  0  0  0  0  0
   38.1010   30.9350   50.6280 C   0  0  0  0  0  0  0  0  0  0  0  0
   37.7260   30.8170   49.2770 C   0  0  0  0  0  0  0  0  0  0  0  0
   36.6980   29.9640   48.9380 N   0  0  0  0  0  0  0  0  0  0  0  0
   36.0700   29.2590   49.9100 C   0  0  0  0  0  0  0  0  0  0  0  0
   36.4130   29.3580   51.2080 N   0  0  0  0  0  0  0  0  0  0  0  0
   37.6920   30.2660   52.6010 H   0  0  0  0  0  0  0  0  0  0  0  0
   38.9060   31.6090   50.8510 H   0  0  0  0  0  0  0  0  0  0  0  0
   38.3810   31.5690   48.1970 C   0  0  0  0  0  0  0  0  0  0  0  0
   38.5830   31.0420   46.9490 C   0  0  0  0  0  0  0  0  0  0  0  0
   39.2230   32.0300   46.1860 C   0  0  0  0  0  0  0  0  0  0  0  0
   39.3740   33.1030   47.0090 N   0  0  0  0  0  0  0  0  0  0  0  0
   38.8720   32.8270   48.2050 N   0  0  0  0  0  0  0  0  0  0  0  0
   38.3280   30.0540   46.5480 H   0  0  0  0  0  0  0  0  0  0  0  0
   39.5420   31.9800   45.1560 H   0  0  0  0  0  0  0  0  0  0  0  0
   39.8100   34.0340   46.7960 H   0  0  0  0  0  0  0  0  0  0  0  0
  1 24  1  0  0  0  0
  1  3  1  0  0  0  0
  2  1  1  0  0  0  0
  4  5  1  0  0  0  0
  4  1  1  0  0  0  0
  5 10  1  0  0  0  0
  6 11  1  0  0  0  0
  6  5  2  0  0  0  0
  7  6  1  0  0  0  0
  8  7  2  0  0  0  0
  8  9  1  0  0  0  0
  9  4  2  0  0  0  0
 12  7  1  0  0  0  0
 13  8  1  0  0  0  0
 14  9  1  0  0  0  0
 15 14  1  0  0  0  0
 15 16  1  0  0  0  0
 17 15  2  0  0  0  0
 18 20  2  0  0  0  0
 18 17  1  0  0  0  0
 19 18  1  0  0  0  0
 20 22  1  0  0  0  0
 21 20  1  0  0  0  0
 22 14  2  0  0  0  0
 23 29  1  0  0  0  0
 24 23  2  0  0  0  0
 25 31  1  0  0  0  0
 26 32  1  0  0  0  0
 26 25  2  0  0  0  0
 27 26  1  0  0  0  0
 28 27  2  0  0  0  0
 28 29  1  0  0  0  0
 29 30  2  0  0  0  0
 30 25  1  0  0  0  0
 33 37  2  0  0  0  0
 33 27  1  0  0  0  0
 34 33  1  0  0  0  0
 35 34  2  0  0  0  0
 35 36  1  0  0  0  0
 36 37  1  0  0  0  0
 38 34  1  0  0  0  0
 39 35  1  0  0  0  0
 40 36  1  0  0  0  0
M  END
>  <minimizedAffinity>
-6.36876822

>  <minimizedRMSD>
0.287366688

$$$$
