
 OpenBabel03272506563D

 20 21  0  0  0  0  0  0  0  0999 V2000
   40.2720   23.3390   36.0040 C   0  0  0  0  0  0  0  0  0  0  0  0
   39.7510   22.8470   37.2010 C   0  0  0  0  0  0  0  0  0  0  0  0
   38.5280   23.3960   37.6220 C   0  0  0  0  0  0  0  0  0  0  0  0
   37.9280   24.3560   36.8590 N   0  0  0  0  0  0  0  0  0  0  0  0
   38.4760   24.7900   35.7160 C   0  0  0  0  0  0  0  0  0  0  0  0
   39.6580   24.2930   35.2620 N   0  0  0  0  0  0  0  0  0  0  0  0
   41.2130   22.9850   35.5820 H   0  0  0  0  0  0  0  0  0  0  0  0
   38.1170   23.0300   38.5370 H   0  0  0  0  0  0  0  0  0  0  0  0
   37.8450   25.8160   34.8920 C   0  0  0  0  0  0  0  0  0  0  0  0
   37.5300   25.5740   33.5630 C   0  0  0  0  0  0  0  0  0  0  0  0
   37.7450   24.6140   33.0980 H   0  0  0  0  0  0  0  0  0  0  0  0
   36.9270   26.5560   32.7770 C   0  0  0  0  0  3  0  0  0  0  0  0
   36.6320   27.7850   33.3060 C   0  0  0  0  0  0  0  0  0  0  0  0
   36.1580   28.6100   32.7590 H   0  0  0  0  0  0  0  0  0  0  0  0
   36.9260   28.0620   34.6150 C   0  0  0  0  0  0  0  0  0  0  0  0
   36.7240   29.0110   35.1090 H   0  0  0  0  0  0  0  0  0  0  0  0
   37.5220   27.0700   35.3630 C   0  0  0  0  0  3  0  0  0  0  0  0
   40.4590   21.8440   37.9180 N   0  0  0  0  0  0  0  0  0  0  0  0
   40.3230   20.8030   37.8750 H   0  0  0  0  0  0  0  0  0  0  0  0
   41.1160   22.4610   38.4660 H   0  0  0  0  0  0  0  0  0  0  0  0
  1  2  1  0  0  0  0
  2  3  2  0  0  0  0
  2 18  1  0  0  0  0
  3  8  1  0  0  0  0
  4  3  1  0  0  0  0
  5  4  2  0  0  0  0
  6  5  1  0  0  0  0
  6  1  2  0  0  0  0
  7  1  1  0  0  0  0
  9 17  1  0  0  0  0
  9  5  1  0  0  0  0
 10  9  2  0  0  0  0
 11 10  1  0  0  0  0
 12 13  2  0  0  0  0
 12 10  1  0  0  0  0
 13 15  1  0  0  0  0
 14 13  1  0  0  0  0
 15 16  1  0  0  0  0
 15 17  2  0  0  0  0
 18 20  1  0  0  0  0
 19 18  1  0  0  0  0
M  END
>  <minimizedAffinity>
-4.55841923

$$$$

 OpenBabel03272506563D

 20 21  0  0  0  0  0  0  0  0999 V2000
   38.5390   23.5910   37.5340 C   0  0  0  0  0  0  0  0  0  0  0  0
   39.6800   22.8970   37.1320 C   0  0  0  0  0  0  0  0  0  0  0  0
   40.2060   23.2340   35.8730 C   0  0  0  0  0  0  0  0  0  0  0  0
   39.5890   24.1970   35.1280 N   0  0  0  0  0  0  0  0  0  0  0  0
   38.4920   24.8320   35.5660 C   0  0  0  0  0  0  0  0  0  0  0  0
   37.9430   24.5440   36.7760 N   0  0  0  0  0  0  0  0  0  0  0  0
   38.0460   23.4120   38.4900 H   0  0  0  0  0  0  0  0  0  0  0  0
   41.0790   22.7110   35.5520 H   0  0  0  0  0  0  0  0  0  0  0  0
   37.8250   25.8630   34.7780 C   0  0  0  0  0  0  0  0  0  0  0  0
   37.4700   27.0790   35.3440 C   0  0  0  0  0  0  0  0  0  0  0  0
   37.6790   27.2980   36.3890 H   0  0  0  0  0  0  0  0  0  0  0  0
   36.8310   28.0630   34.5890 C   0  0  0  0  0  3  0  0  0  0  0  0
   36.5400   27.8460   33.2670 C   0  0  0  0  0  0  0  0  0  0  0  0
   36.0420   28.5660   32.6050 H   0  0  0  0  0  0  0  0  0  0  0  0
   36.8760   26.6580   32.6730 C   0  0  0  0  0  0  0  0  0  0  0  0
   36.6800   26.4090   31.6310 H   0  0  0  0  0  0  0  0  0  0  0  0
   37.5050   25.7080   33.4470 C   0  0  0  0  0  3  0  0  0  0  0  0
   40.2430   21.9110   37.9880 N   0  0  0  0  0  0  0  0  0  0  0  0
   41.0230   22.0290   38.6820 H   0  0  0  0  0  0  0  0  0  0  0  0
   39.6510   21.0860   37.7050 H   0  0  0  0  0  0  0  0  0  0  0  0
  1  7  1  0  0  0  0
  2  1  1  0  0  0  0
  2 18  1  0  0  0  0
  3  2  2  0  0  0  0
  4  5  2  0  0  0  0
  4  3  1  0  0  0  0
  5  6  1  0  0  0  0
  6  1  2  0  0  0  0
  8  3  1  0  0  0  0
  9 10  1  0  0  0  0
  9  5  1  0  0  0  0
 10 11  1  0  0  0  0
 12 10  2  0  0  0  0
 13 12  1  0  0  0  0
 14 13  1  0  0  0  0
 15 13  2  0  0  0  0
 15 17  1  0  0  0  0
 16 15  1  0  0  0  0
 17  9  2  0  0  0  0
 18 19  1  0  0  0  0
 20 18  1  0  0  0  0
M  END
>  <minimizedAffinity>
-4.44714737

$$$$

 OpenBabel03272506563D

 20 21  0  0  0  0  0  0  0  0999 V2000
   35.6780   29.8260   31.0470 C   0  0  0  0  0  0  0  0  0  0  0  0
   36.1950   28.5310   31.0270 C   0  0  0  0  0  0  0  0  0  0  0  0
   36.2950   27.8790   32.2670 C   0  0  0  0  0  0  0  0  0  0  0  0
   35.8910   28.5280   33.3980 N   0  0  0  0  0  0  0  0  0  0  0  0
   35.4000   29.7750   33.3560 C   0  0  0  0  0  0  0  0  0  0  0  0
   35.2820   30.4520   32.1830 N   0  0  0  0  0  0  0  0  0  0  0  0
   35.5550   30.4260   30.1440 H   0  0  0  0  0  0  0  0  0  0  0  0
   36.6900   26.8870   32.2680 H   0  0  0  0  0  0  0  0  0  0  0  0
   34.9650   30.4790   34.5580 C   0  0  0  0  0  0  0  0  0  0  0  0
   33.6580   30.3810   35.0120 C   0  0  0  0  0  0  0  0  0  0  0  0
   32.9220   29.7770   34.4860 H   0  0  0  0  0  0  0  0  0  0  0  0
   33.2440   31.0550   36.1610 C   0  0  0  0  0  3  0  0  0  0  0  0
   34.1250   31.8320   36.8670 C   0  0  0  0  0  0  0  0  0  0  0  0
   33.8820   32.3930   37.7790 H   0  0  0  0  0  0  0  0  0  0  0  0
   35.4250   31.9530   36.4500 C   0  0  0  0  0  0  0  0  0  0  0  0
   36.1850   32.5500   36.9540 H   0  0  0  0  0  0  0  0  0  0  0  0
   35.8000   31.2750   35.3120 C   0  0  0  0  0  3  0  0  0  0  0  0
   36.5870   27.9480   29.7900 N   0  0  0  0  0  0  0  0  0  0  0  0
   36.0200   27.3220   29.1650 H   0  0  0  0  0  0  0  0  0  0  0  0
   37.5670   28.3330   29.7260 H   0  0  0  0  0  0  0  0  0  0  0  0
  1  6  1  0  0  0  0
  2  1  2  0  0  0  0
  2  3  1  0  0  0  0
  3  8  1  0  0  0  0
  3  4  2  0  0  0  0
  5  4  1  0  0  0  0
  5  9  1  0  0  0  0
  6  5  2  0  0  0  0
  7  1  1  0  0  0  0
  9 10  2  0  0  0  0
  9 17  1  0  0  0  0
 10 12  1  0  0  0  0
 11 10  1  0  0  0  0
 12 13  2  0  0  0  0
 13 14  1  0  0  0  0
 15 13  1  0  0  0  0
 15 16  1  0  0  0  0
 17 15  2  0  0  0  0
 18  2  1  0  0  0  0
 19 18  1  0  0  0  0
 20 18  1  0  0  0  0
M  END
>  <minimizedAffinity>
-4.2757802

$$$$

 OpenBabel03272506563D

 20 21  0  0  0  0  0  0  0  0999 V2000
   37.4150   25.9990   33.1020 C   0  0  0  0  0  0  0  0  0  0  0  0
   37.4270   25.1020   32.0340 C   0  0  0  0  0  0  0  0  0  0  0  0
   37.7870   23.7770   32.3340 C   0  0  0  0  0  0  0  0  0  0  0  0
   38.0990   23.4450   33.6210 N   0  0  0  0  0  0  0  0  0  0  0  0
   38.0700   24.3510   34.6090 C   0  0  0  0  0  0  0  0  0  0  0  0
   37.7280   25.6450   34.3730 N   0  0  0  0  0  0  0  0  0  0  0  0
   37.1510   27.0500   32.9860 H   0  0  0  0  0  0  0  0  0  0  0  0
   37.8020   23.0790   31.5260 H   0  0  0  0  0  0  0  0  0  0  0  0
   38.4000   24.0070   35.9880 C   0  0  0  0  0  0  0  0  0  0  0  0
   39.4840   23.1920   36.2830 C   0  0  0  0  0  0  0  0  0  0  0  0
   40.1170   22.7880   35.4960 H   0  0  0  0  0  0  0  0  0  0  0  0
   39.7980   22.8640   37.6020 C   0  0  0  0  0  3  0  0  0  0  0  0
   39.0370   23.3430   38.6370 C   0  0  0  0  0  0  0  0  0  0  0  0
   39.2150   23.1340   39.7000 H   0  0  0  0  0  0  0  0  0  0  0  0
   37.9590   24.1510   38.3860 C   0  0  0  0  0  0  0  0  0  0  0  0
   37.3070   24.5700   39.1500 H   0  0  0  0  0  0  0  0  0  0  0  0
   37.6770   24.4540   37.0720 C   0  0  0  0  0  3  0  0  0  0  0  0
   37.0850   25.5550   30.7300 N   0  0  0  0  0  0  0  0  0  0  0  0
   36.1470   25.5130   30.2580 H   0  0  0  0  0  0  0  0  0  0  0  0
   38.0270   25.9180   30.4260 H   0  0  0  0  0  0  0  0  0  0  0  0
  1  6  1  0  0  0  0
  2  3  1  0  0  0  0
  2  1  2  0  0  0  0
  3  4  2  0  0  0  0
  4  5  1  0  0  0  0
  5  9  1  0  0  0  0
  6  5  2  0  0  0  0
  7  1  1  0  0  0  0
  8  3  1  0  0  0  0
  9 10  2  0  0  0  0
  9 17  1  0  0  0  0
 10 12  1  0  0  0  0
 11 10  1  0  0  0  0
 12 13  2  0  0  0  0
 13 14  1  0  0  0  0
 15 13  1  0  0  0  0
 15 16  1  0  0  0  0
 17 15  2  0  0  0  0
 18  2  1  0  0  0  0
 19 18  1  0  0  0  0
 20 18  1  0  0  0  0
M  END
>  <minimizedAffinity>
-4.26613283

$$$$

 OpenBabel03272506563D

 20 21  0  0  0  0  0  0  0  0999 V2000
   38.1730   23.9260   32.3790 C   0  0  0  0  0  0  0  0  0  0  0  0
   37.5850   25.1350   32.0110 C   0  0  0  0  0  0  0  0  0  0  0  0
   37.2750   26.0230   33.0550 C   0  0  0  0  0  0  0  0  0  0  0  0
   37.5590   25.6660   34.3420 N   0  0  0  0  0  0  0  0  0  0  0  0
   38.1280   24.4870   34.6360 C   0  0  0  0  0  0  0  0  0  0  0  0
   38.4470   23.5920   33.6640 N   0  0  0  0  0  0  0  0  0  0  0  0
   38.4560   23.1620   31.6530 H   0  0  0  0  0  0  0  0  0  0  0  0
   36.8230   26.9530   32.7900 H   0  0  0  0  0  0  0  0  0  0  0  0
   38.4360   24.0950   36.0070 C   0  0  0  0  0  0  0  0  0  0  0  0
   37.7090   24.5970   37.0770 C   0  0  0  0  0  0  0  0  0  0  0  0
   36.8890   25.2950   36.9240 H   0  0  0  0  0  0  0  0  0  0  0  0
   38.0060   24.2210   38.3870 C   0  0  0  0  0  3  0  0  0  0  0  0
   39.0280   23.3440   38.6440 C   0  0  0  0  0  0  0  0  0  0  0  0
   39.3260   22.9970   39.6420 H   0  0  0  0  0  0  0  0  0  0  0  0
   39.7690   22.8260   37.6140 C   0  0  0  0  0  0  0  0  0  0  0  0
   40.5950   22.1270   37.7340 H   0  0  0  0  0  0  0  0  0  0  0  0
   39.4490   23.2190   36.3320 C   0  0  0  0  0  3  0  0  0  0  0  0
   37.3310   25.4070   30.6380 N   0  0  0  0  0  0  0  0  0  0  0  0
   37.9380   25.9350   29.9630 H   0  0  0  0  0  0  0  0  0  0  0  0
   36.3950   24.9300   30.5430 H   0  0  0  0  0  0  0  0  0  0  0  0
  1  6  1  0  0  0  0
  2  1  2  0  0  0  0
  2  3  1  0  0  0  0
  3  4  2  0  0  0  0
  4  5  1  0  0  0  0
  5  9  1  0  0  0  0
  6  5  2  0  0  0  0
  7  1  1  0  0  0  0
  8  3  1  0  0  0  0
  9 17  2  0  0  0  0
  9 10  1  0  0  0  0
 10 12  2  0  0  0  0
 11 10  1  0  0  0  0
 12 13  1  0  0  0  0
 13 14  1  0  0  0  0
 15 16  1  0  0  0  0
 15 13  2  0  0  0  0
 17 15  1  0  0  0  0
 18  2  1  0  0  0  0
 19 18  1  0  0  0  0
 20 18  1  0  0  0  0
M  END
>  <minimizedAffinity>
-4.24732113

$$$$

 OpenBabel03272506563D

 20 21  0  0  0  0  0  0  0  0999 V2000
   37.2160   25.9520   32.9340 C   0  0  0  0  0  0  0  0  0  0  0  0
   36.8020   27.2500   33.2320 C   0  0  0  0  0  0  0  0  0  0  0  0
   36.9780   27.6730   34.5600 C   0  0  0  0  0  0  0  0  0  0  0  0
   37.5300   26.8140   35.4680 N   0  0  0  0  0  0  0  0  0  0  0  0
   37.9110   25.5760   35.1230 C   0  0  0  0  0  0  0  0  0  0  0  0
   37.7630   25.1170   33.8520 N   0  0  0  0  0  0  0  0  0  0  0  0
   37.1290   25.5190   31.9370 H   0  0  0  0  0  0  0  0  0  0  0  0
   36.6650   28.6640   34.8040 H   0  0  0  0  0  0  0  0  0  0  0  0
   38.5020   24.6500   36.0840 C   0  0  0  0  0  0  0  0  0  0  0  0
   39.6300   23.9090   35.7630 C   0  0  0  0  0  0  0  0  0  0  0  0
   40.1040   23.9960   34.7880 H   0  0  0  0  0  0  0  0  0  0  0  0
   40.1930   23.0240   36.6830 C   0  0  0  0  0  3  0  0  0  0  0  0
   39.6400   22.8690   37.9270 C   0  0  0  0  0  0  0  0  0  0  0  0
   40.0200   22.1970   38.7080 H   0  0  0  0  0  0  0  0  0  0  0  0
   38.5260   23.5850   38.2810 C   0  0  0  0  0  0  0  0  0  0  0  0
   38.0280   23.5190   39.2480 H   0  0  0  0  0  0  0  0  0  0  0  0
   37.9950   24.4490   37.3490 C   0  0  0  0  0  3  0  0  0  0  0  0
   36.2390   28.0610   32.2090 N   0  0  0  0  0  0  0  0  0  0  0  0
   36.7280   28.7650   31.6010 H   0  0  0  0  0  0  0  0  0  0  0  0
   35.2370   27.7350   32.2690 H   0  0  0  0  0  0  0  0  0  0  0  0
  1  2  2  0  0  0  0
  1  6  1  0  0  0  0
  2  3  1  0  0  0  0
  3  8  1  0  0  0  0
  3  4  2  0  0  0  0
  5  4  1  0  0  0  0
  5  9  1  0  0  0  0
  6  5  2  0  0  0  0
  7  1  1  0  0  0  0
  9 17  1  0  0  0  0
 10  9  2  0  0  0  0
 10 12  1  0  0  0  0
 11 10  1  0  0  0  0
 12 13  2  0  0  0  0
 13 15  1  0  0  0  0
 13 14  1  0  0  0  0
 15 16  1  0  0  0  0
 17 15  2  0  0  0  0
 18 20  1  0  0  0  0
 18  2  1  0  0  0  0
 19 18  1  0  0  0  0
M  END
>  <minimizedAffinity>
-4.24597263

$$$$

 OpenBabel03272506563D

 20 21  0  0  0  0  0  0  0  0999 V2000
   37.9650   23.8660   32.3250 C   0  0  0  0  0  0  0  0  0  0  0  0
   37.5240   25.1380   31.9620 C   0  0  0  0  0  0  0  0  0  0  0  0
   37.3910   26.0740   33.0020 C   0  0  0  0  0  0  0  0  0  0  0  0
   37.6920   25.7000   34.2800 N   0  0  0  0  0  0  0  0  0  0  0  0
   38.1130   24.4610   34.5700 C   0  0  0  0  0  0  0  0  0  0  0  0
   38.2590   23.5170   33.6020 N   0  0  0  0  0  0  0  0  0  0  0  0
   38.1050   23.0620   31.6020 H   0  0  0  0  0  0  0  0  0  0  0  0
   37.0540   27.0530   32.7390 H   0  0  0  0  0  0  0  0  0  0  0  0
   38.4390   24.0500   35.9320 C   0  0  0  0  0  0  0  0  0  0  0  0
   39.5550   23.2710   36.1970 C   0  0  0  0  0  0  0  0  0  0  0  0
   40.2190   22.9450   35.4000 H   0  0  0  0  0  0  0  0  0  0  0  0
   39.8640   22.8790   37.5000 C   0  0  0  0  0  3  0  0  0  0  0  0
   39.0660   23.2580   38.5480 C   0  0  0  0  0  0  0  0  0  0  0  0
   39.2380   22.9950   39.6000 H   0  0  0  0  0  0  0  0  0  0  0  0
   37.9550   24.0290   38.3260 C   0  0  0  0  0  0  0  0  0  0  0  0
   37.2720   24.3710   39.1020 H   0  0  0  0  0  0  0  0  0  0  0  0
   37.6790   24.3980   37.0270 C   0  0  0  0  0  3  0  0  0  0  0  0
   37.2370   25.4220   30.5980 N   0  0  0  0  0  0  0  0  0  0  0  0
   37.8730   25.8550   29.8820 H   0  0  0  0  0  0  0  0  0  0  0  0
   36.2420   25.0740   30.5600 H   0  0  0  0  0  0  0  0  0  0  0  0
  1  6  1  0  0  0  0
  2  1  2  0  0  0  0
  2  3  1  0  0  0  0
  3  4  2  0  0  0  0
  4  5  1  0  0  0  0
  5  9  1  0  0  0  0
  6  5  2  0  0  0  0
  7  1  1  0  0  0  0
  8  3  1  0  0  0  0
  9 10  2  0  0  0  0
  9 17  1  0  0  0  0
 10 12  1  0  0  0  0
 11 10  1  0  0  0  0
 12 13  2  0  0  0  0
 13 14  1  0  0  0  0
 15 13  1  0  0  0  0
 15 16  1  0  0  0  0
 17 15  2  0  0  0  0
 18  2  1  0  0  0  0
 19 18  1  0  0  0  0
 20 18  1  0  0  0  0
M  END
>  <minimizedAffinity>
-4.22593212

$$$$

 OpenBabel03272506563D

 20 21  0  0  0  0  0  0  0  0999 V2000
   37.9110   24.4340   37.5750 C   0  0  0  0  0  0  0  0  0  0  0  0
   38.6270   23.3020   37.9630 C   0  0  0  0  0  0  0  0  0  0  0  0
   39.7120   22.9390   37.1470 C   0  0  0  0  0  0  0  0  0  0  0  0
   40.0010   23.6930   36.0450 N   0  0  0  0  0  0  0  0  0  0  0  0
   39.2760   24.7730   35.7220 C   0  0  0  0  0  0  0  0  0  0  0  0
   38.2170   25.1680   36.4770 N   0  0  0  0  0  0  0  0  0  0  0  0
   37.0520   24.8080   38.1330 H   0  0  0  0  0  0  0  0  0  0  0  0
   40.2700   22.0740   37.4300 H   0  0  0  0  0  0  0  0  0  0  0  0
   39.5760   25.5860   34.5480 C   0  0  0  0  0  0  0  0  0  0  0  0
   38.8330   25.4640   33.3830 C   0  0  0  0  0  0  0  0  0  0  0  0
   38.0070   24.7600   33.3120 H   0  0  0  0  0  0  0  0  0  0  0  0
   39.1220   26.2420   32.2610 C   0  0  0  0  0  3  0  0  0  0  0  0
   40.1520   27.1460   32.2890 C   0  0  0  0  0  0  0  0  0  0  0  0
   40.4440   27.7960   31.4540 H   0  0  0  0  0  0  0  0  0  0  0  0
   40.9080   27.2960   33.4220 C   0  0  0  0  0  0  0  0  0  0  0  0
   41.7410   27.9910   33.5240 H   0  0  0  0  0  0  0  0  0  0  0  0
   40.5960   26.5120   34.5110 C   0  0  0  0  0  3  0  0  0  0  0  0
   38.2390   22.5890   39.1300 N   0  0  0  0  0  0  0  0  0  0  0  0
   38.6170   22.6940   40.1050 H   0  0  0  0  0  0  0  0  0  0  0  0
   37.4990   21.9670   38.7090 H   0  0  0  0  0  0  0  0  0  0  0  0
  1  2  1  0  0  0  0
  1  7  1  0  0  0  0
  2 18  1  0  0  0  0
  3  8  1  0  0  0  0
  3  2  2  0  0  0  0
  4  3  1  0  0  0  0
  5  4  2  0  0  0  0
  5  6  1  0  0  0  0
  6  1  2  0  0  0  0
  9  5  1  0  0  0  0
 10  9  2  0  0  0  0
 11 10  1  0  0  0  0
 12 13  2  0  0  0  0
 12 10  1  0  0  0  0
 13 15  1  0  0  0  0
 14 13  1  0  0  0  0
 15 16  1  0  0  0  0
 15 17  2  0  0  0  0
 17  9  1  0  0  0  0
 18 19  1  0  0  0  0
 20 18  1  0  0  0  0
M  END
>  <minimizedAffinity>
-4.18171692

$$$$

 OpenBabel03272506563D

 20 21  0  0  0  0  0  0  0  0999 V2000
   37.2800   25.2880   32.6580 C   0  0  0  0  0  0  0  0  0  0  0  0
   36.4770   26.2130   31.9910 C   0  0  0  0  0  0  0  0  0  0  0  0
   35.4740   25.6850   31.1600 C   0  0  0  0  0  0  0  0  0  0  0  0
   35.3400   24.3300   31.0530 N   0  0  0  0  0  0  0  0  0  0  0  0
   36.1420   23.4890   31.7200 C   0  0  0  0  0  0  0  0  0  0  0  0
   37.1280   23.9470   32.5370 N   0  0  0  0  0  0  0  0  0  0  0  0
   38.0880   25.5840   33.3280 H   0  0  0  0  0  0  0  0  0  0  0  0
   34.8510   26.3800   30.6420 H   0  0  0  0  0  0  0  0  0  0  0  0
   36.0080   22.0400   31.6130 C   0  0  0  0  0  0  0  0  0  0  0  0
   36.9280   21.2860   30.8990 C   0  0  0  0  0  0  0  0  0  0  0  0
   37.7740   21.7530   30.4010 H   0  0  0  0  0  0  0  0  0  0  0  0
   36.7980   19.9010   30.7980 C   0  0  0  0  0  3  0  0  0  0  0  0
   35.7520   19.2550   31.4040 C   0  0  0  0  0  0  0  0  0  0  0  0
   35.5770   18.1710   31.3740 H   0  0  0  0  0  0  0  0  0  0  0  0
   34.8230   19.9650   32.1190 C   0  0  0  0  0  0  0  0  0  0  0  0
   33.9650   19.5270   32.6280 H   0  0  0  0  0  0  0  0  0  0  0  0
   34.9810   21.3310   32.1980 C   0  0  0  0  0  3  0  0  0  0  0  0
   36.7030   27.6050   32.1750 N   0  0  0  0  0  0  0  0  0  0  0  0
   36.2250   28.2520   32.8510 H   0  0  0  0  0  0  0  0  0  0  0  0
   37.4580   27.7490   31.4520 H   0  0  0  0  0  0  0  0  0  0  0  0
  1  7  1  0  0  0  0
  2 18  1  0  0  0  0
  2  1  2  0  0  0  0
  3  2  1  0  0  0  0
  4  3  2  0  0  0  0
  4  5  1  0  0  0  0
  5  6  2  0  0  0  0
  6  1  1  0  0  0  0
  8  3  1  0  0  0  0
  9  5  1  0  0  0  0
  9 17  1  0  0  0  0
 10  9  2  0  0  0  0
 11 10  1  0  0  0  0
 12 10  1  0  0  0  0
 12 13  2  0  0  0  0
 13 15  1  0  0  0  0
 14 13  1  0  0  0  0
 15 17  2  0  0  0  0
 15 16  1  0  0  0  0
 18 19  1  0  0  0  0
 20 18  1  0  0  0  0
M  END
>  <minimizedAffinity>
-4.09199619

$$$$
