
 OpenBabel03272502533D

 27 29  0  0  0  0  0  0  0  0999 V2000
   38.4490   24.5580   36.1390 C   0  0  0  0  0  0  0  0  0  0  0  0
   37.7300   24.4200   37.3210 C   0  0  0  0  0  0  0  0  0  0  0  0
   38.2300   23.6310   38.3470 C   0  0  0  0  0  0  0  0  0  0  0  0
   39.4570   23.0160   38.1090 C   0  0  0  0  0  0  0  0  0  0  0  0
   40.1740   23.1540   36.9330 C   0  0  0  0  0  0  0  0  0  0  0  0
   39.6200   23.9400   35.9800 N   0  0  0  0  0  0  0  0  0  0  0  0
   36.7860   24.9340   37.4160 H   0  0  0  0  0  0  0  0  0  0  0  0
   37.6970   23.5000   39.2790 H   0  0  0  0  0  0  0  0  0  0  0  0
   39.8410   22.4030   38.9130 H   0  0  0  0  0  0  0  0  0  0  0  0
   36.9310   27.4010   34.4040 C   0  0  0  0  0  0  0  0  0  0  0  0
   36.8800   26.9850   33.0720 C   0  0  0  0  0  0  0  0  0  0  0  0
   37.3750   25.6990   32.7750 C   0  0  0  0  0  0  0  0  0  0  0  0
   37.8750   24.9470   33.8070 N   0  0  0  0  0  0  0  0  0  0  0  0
   37.9030   25.3990   35.0820 C   0  0  0  0  0  0  0  0  0  0  0  0
   37.4310   26.6130   35.3500 N   0  0  0  0  0  0  0  0  0  0  0  0
   36.5340   28.3970   34.5570 H   0  0  0  0  0  0  0  0  0  0  0  0
   36.4760   27.6090   32.2810 H   0  0  0  0  0  0  0  0  0  0  0  0
   37.3660   25.3080   31.7640 H   0  0  0  0  0  0  0  0  0  0  0  0
   41.4460   22.5100   36.6980 C   0  0  0  0  0  0  0  0  0  0  0  0
   42.5110   23.1110   36.0630 C   0  0  0  0  0  0  0  0  0  0  0  0
   42.4230   24.1200   35.7090 H   0  0  0  0  0  0  0  0  0  0  0  0
   43.7360   22.5240   35.8230 C   0  0  0  0  0  3  0  0  0  0  0  0
   43.8940   21.2080   36.2680 C   0  0  0  0  0  0  0  0  0  0  0  0
   44.8540   20.7280   36.0880 H   0  0  0  0  0  0  0  0  0  0  0  0
   42.8530   20.5390   36.9200 C   0  0  0  0  0  0  0  0  0  0  0  0
   43.0490   19.5420   37.2280 H   0  0  0  0  0  0  0  0  0  0  0  0
   41.6460   21.2130   37.1190 C   0  0  0  0  0  3  0  0  0  0  0  0
  1  2  1  0  0  0  0
  2  7  1  0  0  0  0
  2  3  2  0  0  0  0
  3  8  1  0  0  0  0
  4  3  1  0  0  0  0
  4  9  1  0  0  0  0
  5  4  2  0  0  0  0
  6  1  2  0  0  0  0
  6  5  1  0  0  0  0
 10 16  1  0  0  0  0
 10 15  1  0  0  0  0
 11 10  2  0  0  0  0
 12 11  1  0  0  0  0
 12 13  2  0  0  0  0
 13 14  1  0  0  0  0
 14 15  2  0  0  0  0
 14  1  1  0  0  0  0
 17 11  1  0  0  0  0
 18 12  1  0  0  0  0
 19  5  1  0  0  0  0
 19 27  1  0  0  0  0
 20 19  2  0  0  0  0
 21 20  1  0  0  0  0
 22 20  1  0  0  0  0
 22 23  2  0  0  0  0
 23 25  1  0  0  0  0
 24 23  1  0  0  0  0
 25 27  2  0  0  0  0
 25 26  1  0  0  0  0
M  END
>  <minimizedAffinity>
-5.25573826

$$$$

 OpenBabel03272502533D

 27 29  0  0  0  0  0  0  0  0999 V2000
   36.9020   27.4110   33.7320 C   0  0  0  0  0  0  0  0  0  0  0  0
   37.0450   27.6550   32.3700 C   0  0  0  0  0  0  0  0  0  0  0  0
   36.5400   28.8250   31.8210 C   0  0  0  0  0  0  0  0  0  0  0  0
   35.9070   29.6980   32.7040 C   0  0  0  0  0  0  0  0  0  0  0  0
   35.7650   29.4550   34.0600 C   0  0  0  0  0  0  0  0  0  0  0  0
   36.2840   28.2910   34.5190 N   0  0  0  0  0  0  0  0  0  0  0  0
   37.5500   26.9220   31.7620 H   0  0  0  0  0  0  0  0  0  0  0  0
   36.6320   29.0480   30.7670 H   0  0  0  0  0  0  0  0  0  0  0  0
   35.5160   30.6070   32.2690 H   0  0  0  0  0  0  0  0  0  0  0  0
   38.2680   24.0230   33.9630 C   0  0  0  0  0  0  0  0  0  0  0  0
   38.4910   23.8500   35.3310 C   0  0  0  0  0  0  0  0  0  0  0  0
   38.1580   24.9230   36.1820 C   0  0  0  0  0  0  0  0  0  0  0  0
   37.6430   26.0600   35.6150 N   0  0  0  0  0  0  0  0  0  0  0  0
   37.4480   26.1770   34.2810 C   0  0  0  0  0  0  0  0  0  0  0  0
   37.7650   25.1580   33.4880 N   0  0  0  0  0  0  0  0  0  0  0  0
   38.5460   23.1600   33.3720 H   0  0  0  0  0  0  0  0  0  0  0  0
   38.9000   22.9340   35.7440 H   0  0  0  0  0  0  0  0  0  0  0  0
   38.3020   24.8610   37.2560 H   0  0  0  0  0  0  0  0  0  0  0  0
   35.1060   30.3670   34.9660 C   0  0  0  0  0  0  0  0  0  0  0  0
   33.7450   30.4030   35.1720 C   0  0  0  0  0  0  0  0  0  0  0  0
   33.1050   29.7250   34.6420 H   0  0  0  0  0  0  0  0  0  0  0  0
   33.0860   31.2610   36.0280 C   0  0  0  0  0  3  0  0  0  0  0  0
   33.8830   32.1630   36.7400 C   0  0  0  0  0  0  0  0  0  0  0  0
   33.3810   32.8480   37.4210 H   0  0  0  0  0  0  0  0  0  0  0  0
   35.2720   32.1790   36.5780 C   0  0  0  0  0  0  0  0  0  0  0  0
   35.8080   32.8940   37.1530 H   0  0  0  0  0  0  0  0  0  0  0  0
   35.8520   31.2740   35.6880 C   0  0  0  0  0  3  0  0  0  0  0  0
  1 14  1  0  0  0  0
  1  6  1  0  0  0  0
  2  1  2  0  0  0  0
  3  2  1  0  0  0  0
  3  4  2  0  0  0  0
  4  5  1  0  0  0  0
  5  6  2  0  0  0  0
  5 19  1  0  0  0  0
  7  2  1  0  0  0  0
  8  3  1  0  0  0  0
  9  4  1  0  0  0  0
 10 11  1  0  0  0  0
 11 17  1  0  0  0  0
 11 12  2  0  0  0  0
 12 18  1  0  0  0  0
 13 12  1  0  0  0  0
 14 13  2  0  0  0  0
 15 10  2  0  0  0  0
 15 14  1  0  0  0  0
 16 10  1  0  0  0  0
 19 20  2  0  0  0  0
 19 27  1  0  0  0  0
 20 22  1  0  0  0  0
 21 20  1  0  0  0  0
 22 23  2  0  0  0  0
 23 24  1  0  0  0  0
 25 23  1  0  0  0  0
 25 26  1  0  0  0  0
 27 25  2  0  0  0  0
M  END
>  <minimizedAffinity>
-5.2253952

$$$$

 OpenBabel03272502533D

 27 29  0  0  0  0  0  0  0  0999 V2000
   38.1210   24.7840   34.7350 C   0  0  0  0  0  0  0  0  0  0  0  0
   38.3990   23.9940   33.6240 C   0  0  0  0  0  0  0  0  0  0  0  0
   38.1220   24.4700   32.3510 C   0  0  0  0  0  0  0  0  0  0  0  0
   37.5690   25.7470   32.2760 C   0  0  0  0  0  0  0  0  0  0  0  0
   37.2920   26.5330   33.3810 C   0  0  0  0  0  0  0  0  0  0  0  0
   37.5900   25.9990   34.5890 N   0  0  0  0  0  0  0  0  0  0  0  0
   38.8280   23.0170   33.7780 H   0  0  0  0  0  0  0  0  0  0  0  0
   38.3240   23.8840   31.4650 H   0  0  0  0  0  0  0  0  0  0  0  0
   37.3560   26.1110   31.2800 H   0  0  0  0  0  0  0  0  0  0  0  0
   37.9840   24.1770   38.3410 C   0  0  0  0  0  0  0  0  0  0  0  0
   39.0120   23.2570   38.5600 C   0  0  0  0  0  0  0  0  0  0  0  0
   39.7620   22.8460   37.4410 C   0  0  0  0  0  0  0  0  0  0  0  0
   39.4360   23.3720   36.2170 N   0  0  0  0  0  0  0  0  0  0  0  0
   38.4280   24.2610   36.0590 C   0  0  0  0  0  0  0  0  0  0  0  0
   37.7270   24.6420   37.1230 N   0  0  0  0  0  0  0  0  0  0  0  0
   37.4510   24.4470   39.2450 H   0  0  0  0  0  0  0  0  0  0  0  0
   39.2410   22.8630   39.5440 H   0  0  0  0  0  0  0  0  0  0  0  0
   40.5770   22.1360   37.5340 H   0  0  0  0  0  0  0  0  0  0  0  0
   36.7170   27.8550   33.2910 C   0  0  0  0  0  0  0  0  0  0  0  0
   36.1540   28.5280   34.3540 C   0  0  0  0  0  0  0  0  0  0  0  0
   36.1260   28.0680   35.3230 H   0  0  0  0  0  0  0  0  0  0  0  0
   35.5970   29.7890   34.3010 C   0  0  0  0  0  3  0  0  0  0  0  0
   35.6140   30.4250   33.0560 C   0  0  0  0  0  0  0  0  0  0  0  0
   35.1790   31.4200   32.9940 H   0  0  0  0  0  0  0  0  0  0  0  0
   36.1690   29.7980   31.9360 C   0  0  0  0  0  0  0  0  0  0  0  0
   36.1440   30.3450   31.0250 H   0  0  0  0  0  0  0  0  0  0  0  0
   36.7100   28.5200   32.0840 C   0  0  0  0  0  3  0  0  0  0  0  0
  1 14  1  0  0  0  0
  2  7  1  0  0  0  0
  2  1  2  0  0  0  0
  3  2  1  0  0  0  0
  4  3  2  0  0  0  0
  4  5  1  0  0  0  0
  5  6  2  0  0  0  0
  6  1  1  0  0  0  0
  8  3  1  0  0  0  0
  9  4  1  0  0  0  0
 10 11  1  0  0  0  0
 10 16  1  0  0  0  0
 11 17  1  0  0  0  0
 12 18  1  0  0  0  0
 12 11  2  0  0  0  0
 13 12  1  0  0  0  0
 14 13  2  0  0  0  0
 14 15  1  0  0  0  0
 15 10  2  0  0  0  0
 19  5  1  0  0  0  0
 19 20  1  0  0  0  0
 20 21  1  0  0  0  0
 22 20  2  0  0  0  0
 23 22  1  0  0  0  0
 24 23  1  0  0  0  0
 25 27  1  0  0  0  0
 25 23  2  0  0  0  0
 26 25  1  0  0  0  0
 27 19  2  0  0  0  0
M  END
>  <minimizedAffinity>
-5.19504452

$$$$

 OpenBabel03272502533D

 27 29  0  0  0  0  0  0  0  0999 V2000
   36.0690   28.4040   32.1820 C   0  0  0  0  0  0  0  0  0  0  0  0
   36.5200   29.2190   31.1510 C   0  0  0  0  0  0  0  0  0  0  0  0
   36.4320   30.5990   31.2720 C   0  0  0  0  0  0  0  0  0  0  0  0
   35.8820   31.0800   32.4580 C   0  0  0  0  0  0  0  0  0  0  0  0
   35.4340   30.2690   33.4850 C   0  0  0  0  0  0  0  0  0  0  0  0
   35.5520   28.9330   33.2920 N   0  0  0  0  0  0  0  0  0  0  0  0
   36.9310   28.7580   30.2670 H   0  0  0  0  0  0  0  0  0  0  0  0
   36.7720   31.2640   30.4900 H   0  0  0  0  0  0  0  0  0  0  0  0
   35.8180   32.1560   32.5450 H   0  0  0  0  0  0  0  0  0  0  0  0
   35.4920   24.9860   31.0060 C   0  0  0  0  0  0  0  0  0  0  0  0
   36.4030   24.2260   31.7430 C   0  0  0  0  0  0  0  0  0  0  0  0
   37.2240   24.9090   32.6620 C   0  0  0  0  0  0  0  0  0  0  0  0
   37.0770   26.2690   32.7700 N   0  0  0  0  0  0  0  0  0  0  0  0
   36.1790   26.9590   32.0300 C   0  0  0  0  0  0  0  0  0  0  0  0
   35.4090   26.3030   31.1670 N   0  0  0  0  0  0  0  0  0  0  0  0
   34.8960   24.3950   30.3210 H   0  0  0  0  0  0  0  0  0  0  0  0
   36.4900   23.1500   31.6300 H   0  0  0  0  0  0  0  0  0  0  0  0
   37.9530   24.3850   33.2700 H   0  0  0  0  0  0  0  0  0  0  0  0
   34.8640   30.7790   34.7110 C   0  0  0  0  0  0  0  0  0  0  0  0
   33.5730   30.5340   35.1240 C   0  0  0  0  0  0  0  0  0  0  0  0
   32.9230   29.9300   34.5210 H   0  0  0  0  0  0  0  0  0  0  0  0
   33.0000   31.0070   36.2870 C   0  0  0  0  0  3  0  0  0  0  0  0
   33.8120   31.7990   37.1030 C   0  0  0  0  0  0  0  0  0  0  0  0
   33.3780   32.1820   38.0250 H   0  0  0  0  0  0  0  0  0  0  0  0
   35.1330   32.0870   36.7430 C   0  0  0  0  0  0  0  0  0  0  0  0
   35.6860   32.6960   37.4150 H   0  0  0  0  0  0  0  0  0  0  0  0
   35.6280   31.5660   35.5460 C   0  0  0  0  0  3  0  0  0  0  0  0
  1  6  1  0  0  0  0
  2  3  1  0  0  0  0
  2  1  2  0  0  0  0
  3  4  2  0  0  0  0
  4  9  1  0  0  0  0
  4  5  1  0  0  0  0
  5 19  1  0  0  0  0
  6  5  2  0  0  0  0
  7  2  1  0  0  0  0
  8  3  1  0  0  0  0
 10 15  2  0  0  0  0
 10 11  1  0  0  0  0
 11 12  2  0  0  0  0
 12 13  1  0  0  0  0
 12 18  1  0  0  0  0
 14  1  1  0  0  0  0
 14 13  2  0  0  0  0
 15 14  1  0  0  0  0
 16 10  1  0  0  0  0
 17 11  1  0  0  0  0
 19 20  2  0  0  0  0
 19 27  1  0  0  0  0
 20 22  1  0  0  0  0
 21 20  1  0  0  0  0
 22 23  2  0  0  0  0
 23 24  1  0  0  0  0
 25 23  1  0  0  0  0
 25 26  1  0  0  0  0
 27 25  2  0  0  0  0
M  END
>  <minimizedAffinity>
-5.18862343

$$$$

 OpenBabel03272502533D

 27 29  0  0  0  0  0  0  0  0999 V2000
   39.8950   22.9940   36.8460 C   0  0  0  0  0  0  0  0  0  0  0  0
   39.3780   22.9660   38.1360 C   0  0  0  0  0  0  0  0  0  0  0  0
   38.3400   23.8190   38.4820 C   0  0  0  0  0  0  0  0  0  0  0  0
   37.8760   24.6660   37.4780 C   0  0  0  0  0  0  0  0  0  0  0  0
   38.3900   24.6930   36.1930 C   0  0  0  0  0  0  0  0  0  0  0  0
   39.4030   23.8320   35.9330 N   0  0  0  0  0  0  0  0  0  0  0  0
   39.8010   22.2770   38.8490 H   0  0  0  0  0  0  0  0  0  0  0  0
   37.9140   23.8260   39.4760 H   0  0  0  0  0  0  0  0  0  0  0  0
   37.0670   25.3270   37.7560 H   0  0  0  0  0  0  0  0  0  0  0  0
   42.5720   20.5190   37.1680 C   0  0  0  0  0  0  0  0  0  0  0  0
   43.0290   20.3540   35.8580 C   0  0  0  0  0  0  0  0  0  0  0  0
   42.4000   21.1150   34.8530 C   0  0  0  0  0  0  0  0  0  0  0  0
   41.3860   21.9610   35.2230 N   0  0  0  0  0  0  0  0  0  0  0  0
   40.9810   22.0820   36.5090 C   0  0  0  0  0  0  0  0  0  0  0  0
   41.5830   21.3600   37.4490 N   0  0  0  0  0  0  0  0  0  0  0  0
   43.1010   19.9030   37.8860 H   0  0  0  0  0  0  0  0  0  0  0  0
   43.8350   19.6740   35.6030 H   0  0  0  0  0  0  0  0  0  0  0  0
   42.7020   21.0410   33.8140 H   0  0  0  0  0  0  0  0  0  0  0  0
   37.9020   25.5770   35.1600 C   0  0  0  0  0  0  0  0  0  0  0  0
   37.4880   26.8720   35.3820 C   0  0  0  0  0  0  0  0  0  0  0  0
   37.5170   27.2810   36.3730 H   0  0  0  0  0  0  0  0  0  0  0  0
   37.0170   27.7390   34.4180 C   0  0  0  0  0  3  0  0  0  0  0  0
   36.9630   27.2470   33.1110 C   0  0  0  0  0  0  0  0  0  0  0  0
   36.5930   27.9170   32.3360 H   0  0  0  0  0  0  0  0  0  0  0  0
   37.3670   25.9410   32.8170 C   0  0  0  0  0  0  0  0  0  0  0  0
   37.2960   25.6390   31.8000 H   0  0  0  0  0  0  0  0  0  0  0  0
   37.8300   25.1330   33.8570 C   0  0  0  0  0  3  0  0  0  0  0  0
  1  2  1  0  0  0  0
  2  3  2  0  0  0  0
  2  7  1  0  0  0  0
  3  8  1  0  0  0  0
  4  9  1  0  0  0  0
  4  3  1  0  0  0  0
  5  4  2  0  0  0  0
  6  5  1  0  0  0  0
  6  1  2  0  0  0  0
 10 15  1  0  0  0  0
 10 16  1  0  0  0  0
 11 10  2  0  0  0  0
 12 13  2  0  0  0  0
 12 11  1  0  0  0  0
 13 14  1  0  0  0  0
 14  1  1  0  0  0  0
 14 15  2  0  0  0  0
 17 11  1  0  0  0  0
 18 12  1  0  0  0  0
 19 20  1  0  0  0  0
 19  5  1  0  0  0  0
 20 21  1  0  0  0  0
 22 20  2  0  0  0  0
 23 22  1  0  0  0  0
 24 23  1  0  0  0  0
 25 23  2  0  0  0  0
 25 27  1  0  0  0  0
 26 25  1  0  0  0  0
 27 19  2  0  0  0  0
M  END
>  <minimizedAffinity>
-5.17888546

$$$$

 OpenBabel03272502533D

 27 29  0  0  0  0  0  0  0  0999 V2000
   37.2810   24.9480   32.5980 C   0  0  0  0  0  0  0  0  0  0  0  0
   36.4420   25.7800   31.8660 C   0  0  0  0  0  0  0  0  0  0  0  0
   35.4140   25.2340   31.1110 C   0  0  0  0  0  0  0  0  0  0  0  0
   35.2940   23.8470   31.1440 C   0  0  0  0  0  0  0  0  0  0  0  0
   36.1290   23.0180   31.8740 C   0  0  0  0  0  0  0  0  0  0  0  0
   37.1090   23.6260   32.5850 N   0  0  0  0  0  0  0  0  0  0  0  0
   36.6110   26.8450   31.8990 H   0  0  0  0  0  0  0  0  0  0  0  0
   34.7430   25.8510   30.5290 H   0  0  0  0  0  0  0  0  0  0  0  0
   34.4910   23.4280   30.5540 H   0  0  0  0  0  0  0  0  0  0  0  0
   40.6060   25.7100   33.9260 C   0  0  0  0  0  0  0  0  0  0  0  0
   40.3610   26.7020   34.8780 C   0  0  0  0  0  0  0  0  0  0  0  0
   39.0240   27.1080   35.0620 C   0  0  0  0  0  0  0  0  0  0  0  0
   38.0570   26.5070   34.2980 N   0  0  0  0  0  0  0  0  0  0  0  0
   38.3480   25.5500   33.3870 C   0  0  0  0  0  0  0  0  0  0  0  0
   39.6130   25.1740   33.2230 N   0  0  0  0  0  0  0  0  0  0  0  0
   41.6530   25.4490   33.8400 H   0  0  0  0  0  0  0  0  0  0  0  0
   41.1530   27.1550   35.4650 H   0  0  0  0  0  0  0  0  0  0  0  0
   38.7580   27.8720   35.7840 H   0  0  0  0  0  0  0  0  0  0  0  0
   35.9950   21.5790   31.9000 C   0  0  0  0  0  0  0  0  0  0  0  0
   36.2570   20.7590   30.8250 C   0  0  0  0  0  0  0  0  0  0  0  0
   36.5830   21.1820   29.8950 H   0  0  0  0  0  0  0  0  0  0  0  0
   36.1390   19.3840   30.8190 C   0  0  0  0  0  3  0  0  0  0  0  0
   35.7180   18.7900   32.0120 C   0  0  0  0  0  0  0  0  0  0  0  0
   35.6190   17.7060   32.0260 H   0  0  0  0  0  0  0  0  0  0  0  0
   35.4350   19.5650   33.1410 C   0  0  0  0  0  0  0  0  0  0  0  0
   35.1200   19.0410   34.0100 H   0  0  0  0  0  0  0  0  0  0  0  0
   35.5820   20.9510   33.0550 C   0  0  0  0  0  3  0  0  0  0  0  0
  1 14  1  0  0  0  0
  2  7  1  0  0  0  0
  2  1  2  0  0  0  0
  3  4  2  0  0  0  0
  3  2  1  0  0  0  0
  4  5  1  0  0  0  0
  5 19  1  0  0  0  0
  5  6  2  0  0  0  0
  6  1  1  0  0  0  0
  8  3  1  0  0  0  0
  9  4  1  0  0  0  0
 10 11  1  0  0  0  0
 11 12  2  0  0  0  0
 11 17  1  0  0  0  0
 12 18  1  0  0  0  0
 13 12  1  0  0  0  0
 14 13  2  0  0  0  0
 15 14  1  0  0  0  0
 15 10  2  0  0  0  0
 16 10  1  0  0  0  0
 19 27  1  0  0  0  0
 20 19  2  0  0  0  0
 21 20  1  0  0  0  0
 22 20  1  0  0  0  0
 22 23  2  0  0  0  0
 23 24  1  0  0  0  0
 23 25  1  0  0  0  0
 25 26  1  0  0  0  0
 27 25  2  0  0  0  0
M  END
>  <minimizedAffinity>
-5.16841841

$$$$

 OpenBabel03272502533D

 27 29  0  0  0  0  0  0  0  0999 V2000
   37.3350   26.6330   33.4100 C   0  0  0  0  0  0  0  0  0  0  0  0
   37.6350   25.9520   32.2360 C   0  0  0  0  0  0  0  0  0  0  0  0
   38.2280   24.6990   32.2960 C   0  0  0  0  0  0  0  0  0  0  0  0
   38.4860   24.1990   33.5710 C   0  0  0  0  0  0  0  0  0  0  0  0
   38.1870   24.8770   34.7400 C   0  0  0  0  0  0  0  0  0  0  0  0
   37.6100   26.0950   34.5980 N   0  0  0  0  0  0  0  0  0  0  0  0
   37.3990   26.4170   31.2920 H   0  0  0  0  0  0  0  0  0  0  0  0
   38.4760   24.1400   31.4040 H   0  0  0  0  0  0  0  0  0  0  0  0
   38.9480   23.2230   33.6100 H   0  0  0  0  0  0  0  0  0  0  0  0
   36.0350   29.7650   32.0330 C   0  0  0  0  0  0  0  0  0  0  0  0
   35.5050   30.4210   33.1470 C   0  0  0  0  0  0  0  0  0  0  0  0
   35.6050   29.7670   34.3910 C   0  0  0  0  0  0  0  0  0  0  0  0
   36.2100   28.5360   34.4270 N   0  0  0  0  0  0  0  0  0  0  0  0
   36.7060   27.9440   33.3160 C   0  0  0  0  0  0  0  0  0  0  0  0
   36.6070   28.5720   32.1470 N   0  0  0  0  0  0  0  0  0  0  0  0
   35.9230   30.3260   31.1130 H   0  0  0  0  0  0  0  0  0  0  0  0
   35.0330   31.3950   33.0810 H   0  0  0  0  0  0  0  0  0  0  0  0
   35.2180   30.2150   35.3000 H   0  0  0  0  0  0  0  0  0  0  0  0
   38.4600   24.3500   36.0570 C   0  0  0  0  0  0  0  0  0  0  0  0
   37.7850   24.7280   37.1970 C   0  0  0  0  0  0  0  0  0  0  0  0
   37.0010   25.4580   37.1370 H   0  0  0  0  0  0  0  0  0  0  0  0
   38.0220   24.2440   38.4670 C   0  0  0  0  0  3  0  0  0  0  0  0
   39.0370   23.2900   38.5900 C   0  0  0  0  0  0  0  0  0  0  0  0
   39.2390   22.8970   39.5850 H   0  0  0  0  0  0  0  0  0  0  0  0
   39.7620   22.8630   37.4730 C   0  0  0  0  0  0  0  0  0  0  0  0
   40.5170   22.1360   37.6470 H   0  0  0  0  0  0  0  0  0  0  0  0
   39.4530   23.4090   36.2260 C   0  0  0  0  0  3  0  0  0  0  0  0
  1  6  1  0  0  0  0
  2  3  1  0  0  0  0
  2  1  2  0  0  0  0
  3  4  2  0  0  0  0
  4  9  1  0  0  0  0
  4  5  1  0  0  0  0
  5 19  1  0  0  0  0
  6  5  2  0  0  0  0
  7  2  1  0  0  0  0
  8  3  1  0  0  0  0
 10 15  2  0  0  0  0
 10 11  1  0  0  0  0
 11 12  2  0  0  0  0
 12 13  1  0  0  0  0
 12 18  1  0  0  0  0
 14  1  1  0  0  0  0
 14 13  2  0  0  0  0
 15 14  1  0  0  0  0
 16 10  1  0  0  0  0
 17 11  1  0  0  0  0
 19 27  2  0  0  0  0
 19 20  1  0  0  0  0
 20 22  2  0  0  0  0
 21 20  1  0  0  0  0
 22 23  1  0  0  0  0
 23 24  1  0  0  0  0
 25 26  1  0  0  0  0
 25 23  2  0  0  0  0
 27 25  1  0  0  0  0
M  END
>  <minimizedAffinity>
-5.10109711

$$$$

 OpenBabel03272502533D

 27 29  0  0  0  0  0  0  0  0999 V2000
   37.4760   25.2600   32.7620 C   0  0  0  0  0  0  0  0  0  0  0  0
   37.5900   24.2150   31.8520 C   0  0  0  0  0  0  0  0  0  0  0  0
   37.9970   22.9620   32.2860 C   0  0  0  0  0  0  0  0  0  0  0  0
   38.2680   22.8380   33.6460 C   0  0  0  0  0  0  0  0  0  0  0  0
   38.1550   23.8770   34.5530 C   0  0  0  0  0  0  0  0  0  0  0  0
   37.7530   25.0700   34.0530 N   0  0  0  0  0  0  0  0  0  0  0  0
   37.3590   24.4040   30.8160 H   0  0  0  0  0  0  0  0  0  0  0  0
   38.0970   22.1270   31.6060 H   0  0  0  0  0  0  0  0  0  0  0  0
   38.5840   21.8580   33.9770 H   0  0  0  0  0  0  0  0  0  0  0  0
   36.6250   28.0180   30.5120 C   0  0  0  0  0  0  0  0  0  0  0  0
   36.2060   29.0310   31.3760 C   0  0  0  0  0  0  0  0  0  0  0  0
   36.2230   28.7530   32.7570 C   0  0  0  0  0  0  0  0  0  0  0  0
   36.6450   27.5120   33.1600 N   0  0  0  0  0  0  0  0  0  0  0  0
   37.0410   26.5640   32.2800 C   0  0  0  0  0  0  0  0  0  0  0  0
   37.0220   26.8380   30.9790 N   0  0  0  0  0  0  0  0  0  0  0  0
   36.5860   28.3020   29.4680 H   0  0  0  0  0  0  0  0  0  0  0  0
   35.8780   30.0030   31.0210 H   0  0  0  0  0  0  0  0  0  0  0  0
   35.9120   29.4920   33.4880 H   0  0  0  0  0  0  0  0  0  0  0  0
   38.4410   23.7380   35.9620 C   0  0  0  0  0  0  0  0  0  0  0  0
   37.7010   24.3270   36.9640 C   0  0  0  0  0  0  0  0  0  0  0  0
   36.8520   24.9340   36.7150 H   0  0  0  0  0  0  0  0  0  0  0  0
   37.9480   24.2130   38.3160 C   0  0  0  0  0  3  0  0  0  0  0  0
   39.0450   23.4300   38.6850 C   0  0  0  0  0  0  0  0  0  0  0  0
   39.2570   23.3280   39.7480 H   0  0  0  0  0  0  0  0  0  0  0  0
   39.8390   22.8030   37.7180 C   0  0  0  0  0  0  0  0  0  0  0  0
   40.6560   22.2250   38.0760 H   0  0  0  0  0  0  0  0  0  0  0  0
   39.5140   22.9750   36.3720 C   0  0  0  0  0  3  0  0  0  0  0  0
  1  6  1  0  0  0  0
  2  3  1  0  0  0  0
  2  1  2  0  0  0  0
  3  4  2  0  0  0  0
  4  9  1  0  0  0  0
  4  5  1  0  0  0  0
  5 19  1  0  0  0  0
  6  5  2  0  0  0  0
  7  2  1  0  0  0  0
  8  3  1  0  0  0  0
 10 15  2  0  0  0  0
 10 11  1  0  0  0  0
 11 12  2  0  0  0  0
 12 13  1  0  0  0  0
 12 18  1  0  0  0  0
 14  1  1  0  0  0  0
 14 13  2  0  0  0  0
 15 14  1  0  0  0  0
 16 10  1  0  0  0  0
 17 11  1  0  0  0  0
 19 27  2  0  0  0  0
 19 20  1  0  0  0  0
 20 22  2  0  0  0  0
 21 20  1  0  0  0  0
 22 23  1  0  0  0  0
 23 24  1  0  0  0  0
 25 26  1  0  0  0  0
 25 23  2  0  0  0  0
 27 25  1  0  0  0  0
M  END
>  <minimizedAffinity>
-5.04786205

$$$$

 OpenBabel03272502533D

 27 29  0  0  0  0  0  0  0  0999 V2000
   37.8390   24.7260   34.6750 C   0  0  0  0  0  0  0  0  0  0  0  0
   37.9510   23.8570   33.5950 C   0  0  0  0  0  0  0  0  0  0  0  0
   37.5930   24.2840   32.3240 C   0  0  0  0  0  0  0  0  0  0  0  0
   37.1340   25.5950   32.2200 C   0  0  0  0  0  0  0  0  0  0  0  0
   37.0230   26.4610   33.2940 C   0  0  0  0  0  0  0  0  0  0  0  0
   37.3910   25.9700   34.5020 N   0  0  0  0  0  0  0  0  0  0  0  0
   38.3170   22.8580   33.7700 H   0  0  0  0  0  0  0  0  0  0  0  0
   37.6670   23.6350   31.4620 H   0  0  0  0  0  0  0  0  0  0  0  0
   36.8570   25.9200   31.2270 H   0  0  0  0  0  0  0  0  0  0  0  0
   37.9940   24.3300   38.3100 C   0  0  0  0  0  0  0  0  0  0  0  0
   38.9650   23.3430   38.4930 C   0  0  0  0  0  0  0  0  0  0  0  0
   39.5750   22.8120   37.3380 C   0  0  0  0  0  0  0  0  0  0  0  0
   39.1760   23.2950   36.1180 N   0  0  0  0  0  0  0  0  0  0  0  0
   38.2280   24.2530   35.9970 C   0  0  0  0  0  0  0  0  0  0  0  0
   37.6610   24.7470   37.0930 N   0  0  0  0  0  0  0  0  0  0  0  0
   37.5700   24.6910   39.2390 H   0  0  0  0  0  0  0  0  0  0  0  0
   39.2560   22.9860   39.4750 H   0  0  0  0  0  0  0  0  0  0  0  0
   40.3380   22.0440   37.4030 H   0  0  0  0  0  0  0  0  0  0  0  0
   36.5440   27.8180   33.1750 C   0  0  0  0  0  0  0  0  0  0  0  0
   36.5840   28.5530   32.0100 C   0  0  0  0  0  0  0  0  0  0  0  0
   36.9910   28.1190   31.1180 H   0  0  0  0  0  0  0  0  0  0  0  0
   36.1370   29.8500   31.8650 C   0  0  0  0  0  3  0  0  0  0  0  0
   35.5980   30.4540   33.0040 C   0  0  0  0  0  0  0  0  0  0  0  0
   35.2390   31.4770   32.9090 H   0  0  0  0  0  0  0  0  0  0  0  0
   35.5270   29.7650   34.2190 C   0  0  0  0  0  0  0  0  0  0  0  0
   35.1060   30.2910   35.0400 H   0  0  0  0  0  0  0  0  0  0  0  0
   36.0060   28.4540   34.2730 C   0  0  0  0  0  3  0  0  0  0  0  0
  1 14  1  0  0  0  0
  2  7  1  0  0  0  0
  2  1  2  0  0  0  0
  3  2  1  0  0  0  0
  4  3  2  0  0  0  0
  4  5  1  0  0  0  0
  5  6  2  0  0  0  0
  6  1  1  0  0  0  0
  8  3  1  0  0  0  0
  9  4  1  0  0  0  0
 10 11  1  0  0  0  0
 10 16  1  0  0  0  0
 11 17  1  0  0  0  0
 12 18  1  0  0  0  0
 12 11  2  0  0  0  0
 13 12  1  0  0  0  0
 14 13  2  0  0  0  0
 14 15  1  0  0  0  0
 15 10  2  0  0  0  0
 19  5  1  0  0  0  0
 19 27  1  0  0  0  0
 20 19  2  0  0  0  0
 21 20  1  0  0  0  0
 22 20  1  0  0  0  0
 22 23  2  0  0  0  0
 23 25  1  0  0  0  0
 24 23  1  0  0  0  0
 25 27  2  0  0  0  0
 25 26  1  0  0  0  0
M  END
>  <minimizedAffinity>
-5.026896

$$$$
