REMARK  Name = 
REMARK  5 active torsions:
REMARK  status: ('A' for Active; 'I' for Inactive)
REMARK    1  A    between atoms: C_1  and  C_4
REMARK    2  A    between atoms: C_1  and  C_8
REMARK    3  A    between atoms: C_8  and  S_9
REMARK    4  A    between atoms: S_9  and  C_10
REMARK    5  A    between atoms: C_15  and  C_33
REMARK                            x       y       z     vdW  Elec       q    Type
REMARK                         _______ _______ _______ _____ _____    ______ ____
ROOT
ATOM      1  C   UNL     1      38.641  32.024  48.835  0.00  0.00    +0.000 C 
ATOM      2  C   UNL     1      38.825  33.363  49.531  0.00  0.00    +0.000 C 
ATOM      3  C   UNL     1      39.349  34.391  48.582  0.00  0.00    +0.000 C 
ATOM      4  C   UNL     1      40.261  33.728  47.561  0.00  0.00    +0.000 C 
ATOM      5  C   UNL     1      39.273  33.110  46.614  0.00  0.00    +0.000 C 
ATOM      6  C   UNL     1      38.478  32.092  47.396  0.00  0.00    +0.000 C 
ATOM      7  H   UNL     1      39.494  31.408  49.234  0.00  0.00    +0.000 HD
ATOM      8  H   UNL     1      39.436  33.314  50.434  0.00  0.00    +0.000 HD
ATOM      9  H   UNL     1      37.820  33.748  49.874  0.00  0.00    +0.000 HD
ATOM     10  H   UNL     1      39.936  35.159  49.099  0.00  0.00    +0.000 HD
ATOM     11  H   UNL     1      38.534  34.907  48.032  0.00  0.00    +0.000 HD
ATOM     12  H   UNL     1      40.767  34.552  47.024  0.00  0.00    +0.000 HD
ATOM     13  H   UNL     1      40.942  33.009  48.024  0.00  0.00    +0.000 HD
ATOM     14  H   UNL     1      38.616  33.972  46.292  0.00  0.00    +0.000 HD
ATOM     15  H   UNL     1      39.788  32.791  45.727  0.00  0.00    +0.000 HD
ATOM     16  H   UNL     1      37.442  32.229  47.088  0.00  0.00    +0.000 HD
ENDROOT
BRANCH   6  17
ATOM     17  C   UNL     1      39.064  30.839  46.738  0.00  0.00    +0.000 A 
ATOM     18  C   UNL     1      40.416  30.547  46.786  0.00  0.00    +0.000 A 
ATOM     19  H   UNL     1      41.068  31.236  47.311  0.00  0.00    +0.000 HD
ATOM     20  C   UNL     1      41.029  29.449  46.233  0.00  0.00    +0.000 A 
ATOM     21  C   UNL     1      40.215  28.559  45.571  0.00  0.00    +0.000 A 
ATOM     22  H   UNL     1      40.662  27.693  45.129  0.00  0.00    +0.000 HD
ATOM     23  C   UNL     1      38.863  28.784  45.484  0.00  0.00    +0.000 A 
ATOM     24  H   UNL     1      38.276  28.062  44.959  0.00  0.00    +0.000 HD
ATOM     25  C   UNL     1      38.312  29.906  46.061  0.00  0.00    +0.000 A 
ENDBRANCH   6  17
BRANCH   1  26
ATOM     26  S   UNL     1      37.169  31.275  49.594  0.00  0.00    +0.000 S 
BRANCH  26  27
ATOM     27  C   UNL     1      36.572  29.837  48.681  0.00  0.00    +0.000 C 
ATOM     28  H   UNL     1      37.498  29.416  48.173  0.00  0.00    +0.000 HD
ATOM     29  H   UNL     1      36.324  29.052  49.390  0.00  0.00    +0.000 HD
BRANCH  27  30
ATOM     30  C   UNL     1      35.555  30.241  47.672  0.00  0.00    +0.000 C 
ATOM     31  H   UNL     1      35.927  29.963  46.657  0.00  0.00    +0.000 HD
ATOM     32  H   UNL     1      35.281  31.318  47.725  0.00  0.00    +0.000 HD
BRANCH  30  35
ATOM     33  C   UNL     1      32.787  28.030  48.847  0.00  0.00    +0.000 A 
ATOM     34  C   UNL     1      33.966  28.763  48.852  0.00  0.00    +0.000 A 
ATOM     35  C   UNL     1      34.325  29.483  47.751  0.00  0.00    +0.000 A 
ATOM     36  N   UNL     1      33.465  29.433  46.679  0.00  0.00    +0.000 NA
ATOM     37  C   UNL     1      32.342  28.723  46.703  0.00  0.00    +0.000 A 
ATOM     38  N   UNL     1      31.979  28.013  47.773  0.00  0.00    +0.000 NA
ATOM     39  H   UNL     1      32.448  27.440  49.683  0.00  0.00    +0.000 HD
ATOM     40  H   UNL     1      34.483  28.672  49.792  0.00  0.00    +0.000 HD
ATOM     41  H   UNL     1      31.700  28.721  45.825  0.00  0.00    +0.000 HD
ENDBRANCH  30  35
ENDBRANCH  27  30
ENDBRANCH  26  27
ENDBRANCH   1  26
TORSDOF 5
