
 OpenBabel03272500493D

 39 43  0  0  1  0  0  0  0  0999 V2000
   38.2540   26.7150   34.4930 C   0  0  1  0  0  0  0  0  0  0  0  0
   38.7660   27.2790   35.8630 C   0  0  0  0  0  0  0  0  0  0  0  0
   37.8830   26.0880   35.7750 C   0  0  2  0  0  0  0  0  0  0  0  0
   39.0440   26.2230   33.8880 H   0  0  0  0  0  0  0  0  0  0  0  0
   38.3400   28.2710   36.1070 H   0  0  0  0  0  0  0  0  0  0  0  0
   39.8300   27.0650   36.0920 H   0  0  0  0  0  0  0  0  0  0  0  0
   36.8530   26.2190   36.1040 H   0  0  0  0  0  0  0  0  0  0  0  0
   35.5370   28.8480   33.4590 C   0  0  0  0  0  0  0  0  0  0  0  0
   36.1270   28.5910   32.2410 C   0  0  0  0  0  0  0  0  0  0  0  0
   37.2310   27.7520   32.4650 C   0  0  0  0  0  0  0  0  0  0  0  0
   37.2780   27.5290   33.7920 N   0  0  0  0  0  0  0  0  0  0  0  0
   36.2840   28.1790   34.3250 N   0  0  0  0  0  0  0  0  0  0  0  0
   35.8120   28.9620   31.2560 H   0  0  0  0  0  0  0  0  0  0  0  0
   37.9100   27.3660   31.6880 H   0  0  0  0  0  0  0  0  0  0  0  0
   34.2400   30.6210   34.6880 C   0  0  0  0  0  0  0  0  0  0  0  0
   34.3690   29.6770   33.6380 C   0  0  0  0  0  0  0  0  0  0  0  0
   33.3060   29.5600   32.7470 C   0  0  0  0  0  0  0  0  0  0  0  0
   32.2110   30.3540   32.9340 N   0  0  0  0  0  0  0  0  0  0  0  0
   32.1430   31.2380   33.9540 C   0  0  0  0  0  0  0  0  0  0  0  0
   33.1600   31.3780   34.8410 N   0  0  0  0  0  0  0  0  0  0  0  0
   35.1120   30.6420   35.3290 H   0  0  0  0  0  0  0  0  0  0  0  0
   33.4000   28.8410   31.9450 H   0  0  0  0  0  0  0  0  0  0  0  0
   31.2770   31.8670   34.1020 H   0  0  0  0  0  0  0  0  0  0  0  0
   38.4470   24.7410   36.1050 C   0  0  0  0  0  0  0  0  0  0  0  0
   37.7410   23.7400   36.7960 C   0  0  0  0  0  0  0  0  0  0  0  0
   38.5640   22.6650   36.9150 N   0  0  0  0  0  0  0  0  0  0  0  0
   39.7420   22.9760   36.3220 C   0  0  0  0  0  0  0  0  0  0  0  0
   39.6760   24.2250   35.8340 N   0  0  0  0  0  0  0  0  0  0  0  0
   36.7150   23.7610   37.1910 H   0  0  0  0  0  0  0  0  0  0  0  0
   38.3190   21.7670   37.3810 H   0  0  0  0  0  0  0  0  0  0  0  0
   40.8890   22.0780   36.2400 C   0  0  0  0  0  0  0  0  0  0  0  0
   41.4660   21.8010   35.0180 C   0  0  0  0  0  0  0  0  0  0  0  0
   41.0910   22.2360   34.1110 H   0  0  0  0  0  0  0  0  0  0  0  0
   42.5550   20.9370   35.0190 C   0  0  0  0  0  3  0  0  0  0  0  0
   43.0660   20.3600   36.1640 C   0  0  0  0  0  0  0  0  0  0  0  0
   43.9070   19.6950   36.1400 H   0  0  0  0  0  0  0  0  0  0  0  0
   42.4720   20.6470   37.3990 C   0  0  0  0  0  0  0  0  0  0  0  0
   42.8140   20.2350   38.3370 H   0  0  0  0  0  0  0  0  0  0  0  0
   41.3950   21.5040   37.3880 C   0  0  0  0  0  3  0  0  0  0  0  0
  1  4  1  6  0  0  0
  1  3  1  0  0  0  0
  1  2  1  0  0  0  0
  2  6  1  0  0  0  0
  2  5  1  0  0  0  0
  3  2  1  0  0  0  0
  3  7  1  1  0  0  0
  3 24  1  0  0  0  0
  8 16  1  0  0  0  0
  8 12  2  0  0  0  0
  9 10  2  0  0  0  0
  9  8  1  0  0  0  0
 10 11  1  0  0  0  0
 11 12  1  0  0  0  0
 11  1  1  0  0  0  0
 13  9  1  0  0  0  0
 14 10  1  0  0  0  0
 15 20  1  0  0  0  0
 15 21  1  0  0  0  0
 16 15  2  0  0  0  0
 17 18  2  0  0  0  0
 17 16  1  0  0  0  0
 18 19  1  0  0  0  0
 19 23  1  0  0  0  0
 19 20  2  0  0  0  0
 22 17  1  0  0  0  0
 24 25  2  0  0  0  0
 25 26  1  0  0  0  0
 25 29  1  0  0  0  0
 26 30  1  0  0  0  0
 27 26  1  0  0  0  0
 28 24  1  0  0  0  0
 28 27  2  0  0  0  0
 31 27  1  0  0  0  0
 31 39  1  0  0  0  0
 32 34  1  0  0  0  0
 32 31  2  0  0  0  0
 33 32  1  0  0  0  0
 34 35  2  0  0  0  0
 35 37  1  0  0  0  0
 36 35  1  0  0  0  0
 37 38  1  0  0  0  0
 39 37  2  0  0  0  0
M  END
>  <minimizedAffinity>
-5.9282012

$$$$

 OpenBabel03272500493D

 39 43  0  0  1  0  0  0  0  0999 V2000
   38.6970   25.7800   35.1620 C   0  0  1  0  0  0  0  0  0  0  0  0
   38.1940   26.0910   36.6140 C   0  0  0  0  0  0  0  0  0  0  0  0
   38.2250   24.7130   36.0620 C   0  0  2  0  0  0  0  0  0  0  0  0
   39.7930   25.8980   35.0330 H   0  0  0  0  0  0  0  0  0  0  0  0
   37.2480   26.6640   36.6290 H   0  0  0  0  0  0  0  0  0  0  0  0
   38.9910   26.3260   37.3480 H   0  0  0  0  0  0  0  0  0  0  0  0
   37.2620   24.2620   35.8230 H   0  0  0  0  0  0  0  0  0  0  0  0
   36.6110   27.5750   32.8330 C   0  0  0  0  0  0  0  0  0  0  0  0
   36.5930   26.3210   32.2640 C   0  0  0  0  0  0  0  0  0  0  0  0
   37.3770   25.4740   33.0640 C   0  0  0  0  0  0  0  0  0  0  0  0
   37.8400   26.2280   34.0790 N   0  0  0  0  0  0  0  0  0  0  0  0
   37.3740   27.4300   33.9060 N   0  0  0  0  0  0  0  0  0  0  0  0
   36.0680   26.0100   31.3500 H   0  0  0  0  0  0  0  0  0  0  0  0
   37.5600   24.4030   32.8770 H   0  0  0  0  0  0  0  0  0  0  0  0
   36.3380   29.4050   31.1260 C   0  0  0  0  0  0  0  0  0  0  0  0
   35.9170   28.7210   32.2950 C   0  0  0  0  0  0  0  0  0  0  0  0
   34.7770   29.1930   32.9380 C   0  0  0  0  0  0  0  0  0  0  0  0
   34.1360   30.2780   32.4110 N   0  0  0  0  0  0  0  0  0  0  0  0
   34.5830   30.8920   31.2930 C   0  0  0  0  0  0  0  0  0  0  0  0
   35.6900   30.4580   30.6410 N   0  0  0  0  0  0  0  0  0  0  0  0
   37.2300   28.9690   30.6950 H   0  0  0  0  0  0  0  0  0  0  0  0
   34.4520   28.6750   33.8290 H   0  0  0  0  0  0  0  0  0  0  0  0
   34.0760   31.7500   30.8760 H   0  0  0  0  0  0  0  0  0  0  0  0
   39.2230   23.7360   36.6030 C   0  0  0  0  0  0  0  0  0  0  0  0
   39.1020   23.0990   37.8510 C   0  0  0  0  0  0  0  0  0  0  0  0
   40.1860   22.2930   38.0060 N   0  0  0  0  0  0  0  0  0  0  0  0
   40.9570   22.4160   36.8990 C   0  0  0  0  0  0  0  0  0  0  0  0
   40.3820   23.2850   36.0520 N   0  0  0  0  0  0  0  0  0  0  0  0
   38.3080   23.1930   38.6060 H   0  0  0  0  0  0  0  0  0  0  0  0
   40.3760   21.6910   38.8330 H   0  0  0  0  0  0  0  0  0  0  0  0
   42.2140   21.7070   36.6830 C   0  0  0  0  0  0  0  0  0  0  0  0
   42.3780   20.4260   37.1690 C   0  0  0  0  0  0  0  0  0  0  0  0
   41.5940   19.9280   37.7080 H   0  0  0  0  0  0  0  0  0  0  0  0
   43.6020   19.8150   36.9250 C   0  0  0  0  0  3  0  0  0  0  0  0
   44.6320   20.4230   36.2360 C   0  0  0  0  0  0  0  0  0  0  0  0
   45.5680   19.9310   36.0610 H   0  0  0  0  0  0  0  0  0  0  0  0
   44.4540   21.7230   35.7480 C   0  0  0  0  0  0  0  0  0  0  0  0
   45.2120   22.2650   35.2010 H   0  0  0  0  0  0  0  0  0  0  0  0
   43.2390   22.3210   35.9940 C   0  0  0  0  0  3  0  0  0  0  0  0
  1  4  1  6  0  0  0
  1  3  1  0  0  0  0
  1  2  1  0  0  0  0
  2  5  1  0  0  0  0
  2  6  1  0  0  0  0
  3  7  1  6  0  0  0
  3 24  1  0  0  0  0
  3  2  1  0  0  0  0
  8 12  2  0  0  0  0
  9  8  1  0  0  0  0
  9 10  2  0  0  0  0
 10 11  1  0  0  0  0
 11  1  1  0  0  0  0
 12 11  1  0  0  0  0
 13  9  1  0  0  0  0
 14 10  1  0  0  0  0
 15 16  1  0  0  0  0
 16  8  1  0  0  0  0
 16 17  2  0  0  0  0
 17 22  1  0  0  0  0
 18 17  1  0  0  0  0
 19 18  2  0  0  0  0
 20 15  2  0  0  0  0
 20 19  1  0  0  0  0
 21 15  1  0  0  0  0
 23 19  1  0  0  0  0
 24 25  2  0  0  0  0
 25 26  1  0  0  0  0
 25 29  1  0  0  0  0
 26 30  1  0  0  0  0
 27 26  1  0  0  0  0
 28 24  1  0  0  0  0
 28 27  2  0  0  0  0
 31 27  1  0  0  0  0
 31 32  1  0  0  0  0
 32 33  1  0  0  0  0
 34 32  2  0  0  0  0
 35 34  1  0  0  0  0
 36 35  1  0  0  0  0
 37 39  1  0  0  0  0
 37 35  2  0  0  0  0
 38 37  1  0  0  0  0
 39 31  2  0  0  0  0
M  END
>  <minimizedAffinity>
-5.90388298

$$$$

 OpenBabel03272500493D

 39 43  0  0  1  0  0  0  0  0999 V2000
   37.0860   27.7220   31.4200 C   0  0  1  0  0  0  0  0  0  0  0  0
   38.6260   27.5140   31.6250 C   0  0  0  0  0  0  0  0  0  0  0  0
   37.6130   26.6540   32.2890 C   0  0  2  0  0  0  0  0  0  0  0  0
   36.7260   27.4340   30.4100 H   0  0  0  0  0  0  0  0  0  0  0  0
   39.1030   28.3420   32.1810 H   0  0  0  0  0  0  0  0  0  0  0  0
   39.1560   27.0480   30.7690 H   0  0  0  0  0  0  0  0  0  0  0  0
   37.4870   26.7890   33.3620 H   0  0  0  0  0  0  0  0  0  0  0  0
   35.5770   30.2200   33.5360 C   0  0  0  0  0  0  0  0  0  0  0  0
   35.7840   30.9590   32.3920 C   0  0  0  0  0  0  0  0  0  0  0  0
   36.3810   30.1180   31.4380 C   0  0  0  0  0  0  0  0  0  0  0  0
   36.5160   28.9120   32.0240 N   0  0  0  0  0  0  0  0  0  0  0  0
   36.0400   29.0180   33.2300 N   0  0  0  0  0  0  0  0  0  0  0  0
   35.5380   32.0170   32.2260 H   0  0  0  0  0  0  0  0  0  0  0  0
   36.6720   30.4110   30.4170 H   0  0  0  0  0  0  0  0  0  0  0  0
   35.7120   31.4570   35.7240 C   0  0  0  0  0  0  0  0  0  0  0  0
   34.9800   30.7420   34.7420 C   0  0  0  0  0  0  0  0  0  0  0  0
   33.6220   30.5460   34.9730 C   0  0  0  0  0  0  0  0  0  0  0  0
   33.0780   31.0480   36.1200 N   0  0  0  0  0  0  0  0  0  0  0  0
   33.8250   31.7230   37.0220 C   0  0  0  0  0  0  0  0  0  0  0  0
   35.1510   31.9330   36.8300 N   0  0  0  0  0  0  0  0  0  0  0  0
   36.7570   31.5610   35.4610 H   0  0  0  0  0  0  0  0  0  0  0  0
   33.0600   30.0010   34.2270 H   0  0  0  0  0  0  0  0  0  0  0  0
   33.3950   32.1220   37.9300 H   0  0  0  0  0  0  0  0  0  0  0  0
   37.4670   25.2310   31.8460 C   0  0  0  0  0  0  0  0  0  0  0  0
   38.0220   24.7150   30.6600 C   0  0  0  0  0  0  0  0  0  0  0  0
   37.6840   23.4000   30.5880 N   0  0  0  0  0  0  0  0  0  0  0  0
   36.9470   23.1000   31.6840 C   0  0  0  0  0  0  0  0  0  0  0  0
   36.8130   24.1990   32.4440 N   0  0  0  0  0  0  0  0  0  0  0  0
   38.6240   25.2260   29.8950 H   0  0  0  0  0  0  0  0  0  0  0  0
   37.9510   22.7510   29.8200 H   0  0  0  0  0  0  0  0  0  0  0  0
   36.3930   21.7810   31.9720 C   0  0  0  0  0  0  0  0  0  0  0  0
   36.1490   20.8930   30.9450 C   0  0  0  0  0  0  0  0  0  0  0  0
   36.3590   21.1490   29.9230 H   0  0  0  0  0  0  0  0  0  0  0  0
   35.6210   19.6560   31.2960 C   0  0  0  0  0  3  0  0  0  0  0  0
   35.3390   19.2920   32.5970 C   0  0  0  0  0  0  0  0  0  0  0  0
   34.9310   18.3310   32.8430 H   0  0  0  0  0  0  0  0  0  0  0  0
   35.5900   20.2010   33.6320 C   0  0  0  0  0  0  0  0  0  0  0  0
   35.3960   19.9900   34.6730 H   0  0  0  0  0  0  0  0  0  0  0  0
   36.1130   21.4230   33.2750 C   0  0  0  0  0  3  0  0  0  0  0  0
  1  4  1  6  0  0  0
  1  2  1  0  0  0  0
  1 11  1  0  0  0  0
  1  3  1  0  0  0  0
  2  5  1  0  0  0  0
  2  3  1  0  0  0  0
  3  7  1  1  0  0  0
  6  2  1  0  0  0  0
  8 16  1  0  0  0  0
  9  8  1  0  0  0  0
 10 11  1  0  0  0  0
 10  9  2  0  0  0  0
 11 12  1  0  0  0  0
 12  8  2  0  0  0  0
 13  9  1  0  0  0  0
 14 10  1  0  0  0  0
 15 20  1  0  0  0  0
 16 17  1  0  0  0  0
 16 15  2  0  0  0  0
 17 18  2  0  0  0  0
 18 19  1  0  0  0  0
 19 23  1  0  0  0  0
 20 19  2  0  0  0  0
 21 15  1  0  0  0  0
 22 17  1  0  0  0  0
 24  3  1  0  0  0  0
 24 28  1  0  0  0  0
 25 24  2  0  0  0  0
 26 25  1  0  0  0  0
 26 27  1  0  0  0  0
 27 31  1  0  0  0  0
 27 28  2  0  0  0  0
 29 25  1  0  0  0  0
 30 26  1  0  0  0  0
 31 39  1  0  0  0  0
 32 34  1  0  0  0  0
 32 31  2  0  0  0  0
 33 32  1  0  0  0  0
 34 35  2  0  0  0  0
 35 36  1  0  0  0  0
 35 37  1  0  0  0  0
 37 38  1  0  0  0  0
 39 37  2  0  0  0  0
M  END
>  <minimizedAffinity>
-5.84478235

$$$$

 OpenBabel03272500493D

 39 43  0  0  1  0  0  0  0  0999 V2000
   36.3480   27.7330   31.6080 C   0  0  1  0  0  0  0  0  0  0  0  0
   37.8320   27.2450   31.7260 C   0  0  0  0  0  0  0  0  0  0  0  0
   36.7130   26.5610   32.4230 C   0  0  2  0  0  0  0  0  0  0  0  0
   35.8930   27.5480   30.6130 H   0  0  0  0  0  0  0  0  0  0  0  0
   38.4780   27.9550   32.2760 H   0  0  0  0  0  0  0  0  0  0  0  0
   38.2270   26.7180   30.8330 H   0  0  0  0  0  0  0  0  0  0  0  0
   36.6650   26.6820   33.5040 H   0  0  0  0  0  0  0  0  0  0  0  0
   35.3120   30.3880   33.8170 C   0  0  0  0  0  0  0  0  0  0  0  0
   35.7910   31.1240   32.7550 C   0  0  0  0  0  0  0  0  0  0  0  0
   36.2470   30.2230   31.7780 C   0  0  0  0  0  0  0  0  0  0  0  0
   36.0340   28.9870   32.2690 N   0  0  0  0  0  0  0  0  0  0  0  0
   35.4950   29.1300   33.4440 N   0  0  0  0  0  0  0  0  0  0  0  0
   35.8240   32.2180   32.6620 H   0  0  0  0  0  0  0  0  0  0  0  0
   36.6870   30.5000   30.8070 H   0  0  0  0  0  0  0  0  0  0  0  0
   33.4020   30.8010   35.4030 C   0  0  0  0  0  0  0  0  0  0  0  0
   34.7570   30.9640   35.0180 C   0  0  0  0  0  0  0  0  0  0  0  0
   35.5730   31.7190   35.8550 C   0  0  0  0  0  0  0  0  0  0  0  0
   35.0280   32.2540   36.9870 N   0  0  0  0  0  0  0  0  0  0  0  0
   33.7270   32.0650   37.3040 C   0  0  0  0  0  0  0  0  0  0  0  0
   32.9030   31.3350   36.5120 N   0  0  0  0  0  0  0  0  0  0  0  0
   32.8440   30.2010   34.6950 H   0  0  0  0  0  0  0  0  0  0  0  0
   36.6070   31.8460   35.5650 H   0  0  0  0  0  0  0  0  0  0  0  0
   33.2950   32.4880   38.2000 H   0  0  0  0  0  0  0  0  0  0  0  0
   36.2900   25.2020   31.9560 C   0  0  0  0  0  0  0  0  0  0  0  0
   35.3330   24.9800   30.9490 C   0  0  0  0  0  0  0  0  0  0  0  0
   35.2040   23.6350   30.7960 N   0  0  0  0  0  0  0  0  0  0  0  0
   36.0470   23.0350   31.6700 C   0  0  0  0  0  0  0  0  0  0  0  0
   36.7020   23.9740   32.3710 N   0  0  0  0  0  0  0  0  0  0  0  0
   34.7610   25.7120   30.3600 H   0  0  0  0  0  0  0  0  0  0  0  0
   34.5680   23.1640   30.1210 H   0  0  0  0  0  0  0  0  0  0  0  0
   36.2010   21.5910   31.8110 C   0  0  0  0  0  0  0  0  0  0  0  0
   37.1650   20.9230   31.0850 C   0  0  0  0  0  0  0  0  0  0  0  0
   37.8170   21.4440   30.4080 H   0  0  0  0  0  0  0  0  0  0  0  0
   37.2520   19.5480   31.2710 C   0  0  0  0  0  3  0  0  0  0  0  0
   36.4330   18.8440   32.1320 C   0  0  0  0  0  0  0  0  0  0  0  0
   36.5190   17.7840   32.2590 H   0  0  0  0  0  0  0  0  0  0  0  0
   35.4580   19.5330   32.8640 C   0  0  0  0  0  0  0  0  0  0  0  0
   34.7810   19.0540   33.5560 H   0  0  0  0  0  0  0  0  0  0  0  0
   35.3790   20.8940   32.6730 C   0  0  0  0  0  3  0  0  0  0  0  0
  1  4  1  6  0  0  0
  1  2  1  0  0  0  0
  1 11  1  0  0  0  0
  1  3  1  0  0  0  0
  2  5  1  0  0  0  0
  2  3  1  0  0  0  0
  3  7  1  1  0  0  0
  6  2  1  0  0  0  0
  8 16  1  0  0  0  0
  9  8  1  0  0  0  0
 10 11  1  0  0  0  0
 10  9  2  0  0  0  0
 11 12  1  0  0  0  0
 12  8  2  0  0  0  0
 13  9  1  0  0  0  0
 14 10  1  0  0  0  0
 15 20  1  0  0  0  0
 16 15  2  0  0  0  0
 16 17  1  0  0  0  0
 17 18  2  0  0  0  0
 18 19  1  0  0  0  0
 19 23  1  0  0  0  0
 20 19  2  0  0  0  0
 21 15  1  0  0  0  0
 22 17  1  0  0  0  0
 24 28  1  0  0  0  0
 24  3  1  0  0  0  0
 25 24  2  0  0  0  0
 26 25  1  0  0  0  0
 26 27  1  0  0  0  0
 27 31  1  0  0  0  0
 27 28  2  0  0  0  0
 29 25  1  0  0  0  0
 30 26  1  0  0  0  0
 31 39  1  0  0  0  0
 32 34  1  0  0  0  0
 32 31  2  0  0  0  0
 33 32  1  0  0  0  0
 34 35  2  0  0  0  0
 35 36  1  0  0  0  0
 35 37  1  0  0  0  0
 37 38  1  0  0  0  0
 39 37  2  0  0  0  0
M  END
>  <minimizedAffinity>
-5.80354548

$$$$

 OpenBabel03272500493D

 39 43  0  0  1  0  0  0  0  0999 V2000
   38.0350   26.6390   33.0180 C   0  0  1  0  0  0  0  0  0  0  0  0
   38.4000   27.3570   31.6740 C   0  0  0  0  0  0  0  0  0  0  0  0
   37.0100   27.3060   32.1950 C   0  0  2  0  0  0  0  0  0  0  0  0
   38.3960   27.1710   33.9220 H   0  0  0  0  0  0  0  0  0  0  0  0
   38.7230   26.6540   30.8830 H   0  0  0  0  0  0  0  0  0  0  0  0
   38.9130   28.3340   31.7860 H   0  0  0  0  0  0  0  0  0  0  0  0
   36.3130   26.6600   31.6630 H   0  0  0  0  0  0  0  0  0  0  0  0
   37.5030   23.0810   32.7740 C   0  0  0  0  0  0  0  0  0  0  0  0
   38.8180   23.1060   33.1810 C   0  0  0  0  0  0  0  0  0  0  0  0
   39.1980   24.4510   33.3290 C   0  0  0  0  0  0  0  0  0  0  0  0
   38.1180   25.1890   33.0110 N   0  0  0  0  0  0  0  0  0  0  0  0
   37.1660   24.3600   32.6980 N   0  0  0  0  0  0  0  0  0  0  0  0
   39.4770   22.2460   33.3660 H   0  0  0  0  0  0  0  0  0  0  0  0
   40.1920   24.8050   33.6450 H   0  0  0  0  0  0  0  0  0  0  0  0
   36.1760   21.0850   33.5420 C   0  0  0  0  0  0  0  0  0  0  0  0
   36.7560   21.8730   32.5160 C   0  0  0  0  0  0  0  0  0  0  0  0
   36.5840   21.4440   31.2030 C   0  0  0  0  0  0  0  0  0  0  0  0
   35.8730   20.2980   30.9820 N   0  0  0  0  0  0  0  0  0  0  0  0
   35.3420   19.5860   32.0000 C   0  0  0  0  0  0  0  0  0  0  0  0
   35.4900   19.9750   33.2910 N   0  0  0  0  0  0  0  0  0  0  0  0
   36.3600   21.4940   34.5270 H   0  0  0  0  0  0  0  0  0  0  0  0
   37.0240   22.0420   30.4180 H   0  0  0  0  0  0  0  0  0  0  0  0
   34.7790   18.6800   31.8250 H   0  0  0  0  0  0  0  0  0  0  0  0
   36.3820   28.5640   32.7110 C   0  0  0  0  0  0  0  0  0  0  0  0
   36.1840   29.7200   31.9350 C   0  0  0  0  0  0  0  0  0  0  0  0
   35.5970   30.6530   32.7300 N   0  0  0  0  0  0  0  0  0  0  0  0
   35.4320   30.1060   33.9590 C   0  0  0  0  0  0  0  0  0  0  0  0
   35.9030   28.8490   33.9520 N   0  0  0  0  0  0  0  0  0  0  0  0
   36.4350   29.8990   30.8790 H   0  0  0  0  0  0  0  0  0  0  0  0
   35.3270   31.6130   32.4350 H   0  0  0  0  0  0  0  0  0  0  0  0
   34.8330   30.7950   35.0970 C   0  0  0  0  0  0  0  0  0  0  0  0
   35.6020   31.6240   35.8870 C   0  0  0  0  0  0  0  0  0  0  0  0
   36.6450   31.7800   35.6850 H   0  0  0  0  0  0  0  0  0  0  0  0
   34.9630   32.2460   36.9530 C   0  0  0  0  0  3  0  0  0  0  0  0
   33.6240   32.0710   37.2440 C   0  0  0  0  0  0  0  0  0  0  0  0
   33.1530   32.5620   38.0720 H   0  0  0  0  0  0  0  0  0  0  0  0
   32.8530   31.2270   36.4350 C   0  0  0  0  0  0  0  0  0  0  0  0
   31.8020   31.0400   36.5980 H   0  0  0  0  0  0  0  0  0  0  0  0
   33.4950   30.6160   35.3820 C   0  0  0  0  0  3  0  0  0  0  0  0
  1  4  1  1  0  0  0
  2  6  1  0  0  0  0
  2  3  1  0  0  0  0
  2  1  1  0  0  0  0
  3  7  1  6  0  0  0
  3 24  1  0  0  0  0
  3  1  1  0  0  0  0
  5  2  1  0  0  0  0
  8  9  1  0  0  0  0
  9 10  2  0  0  0  0
  9 13  1  0  0  0  0
 10 14  1  0  0  0  0
 11  1  1  0  0  0  0
 11 10  1  0  0  0  0
 12  8  2  0  0  0  0
 12 11  1  0  0  0  0
 15 21  1  0  0  0  0
 16  8  1  0  0  0  0
 16 15  2  0  0  0  0
 17 16  1  0  0  0  0
 18 17  2  0  0  0  0
 18 19  1  0  0  0  0
 19 20  2  0  0  0  0
 20 15  1  0  0  0  0
 22 17  1  0  0  0  0
 23 19  1  0  0  0  0
 24 28  1  0  0  0  0
 25 24  2  0  0  0  0
 25 26  1  0  0  0  0
 26 27  1  0  0  0  0
 27 31  1  0  0  0  0
 28 27  2  0  0  0  0
 29 25  1  0  0  0  0
 30 26  1  0  0  0  0
 31 39  2  0  0  0  0
 31 32  1  0  0  0  0
 32 34  2  0  0  0  0
 33 32  1  0  0  0  0
 34 35  1  0  0  0  0
 35 36  1  0  0  0  0
 37 38  1  0  0  0  0
 37 35  2  0  0  0  0
 39 37  1  0  0  0  0
M  END
>  <minimizedAffinity>
-5.78342628

$$$$

 OpenBabel03272500493D

 39 43  0  0  1  0  0  0  0  0999 V2000
   37.7480   25.8690   35.8960 C   0  0  1  0  0  0  0  0  0  0  0  0
   38.5090   27.2390   35.9190 C   0  0  0  0  0  0  0  0  0  0  0  0
   38.2680   26.4870   34.6620 C   0  0  2  0  0  0  0  0  0  0  0  0
   36.6610   25.9580   36.0980 H   0  0  0  0  0  0  0  0  0  0  0  0
   39.4920   27.1780   36.4250 H   0  0  0  0  0  0  0  0  0  0  0  0
   37.8680   28.1320   36.0690 H   0  0  0  0  0  0  0  0  0  0  0  0
   39.1350   26.0110   34.2040 H   0  0  0  0  0  0  0  0  0  0  0  0
   39.8980   23.0820   36.6750 C   0  0  0  0  0  0  0  0  0  0  0  0
   39.1220   23.1200   37.8120 C   0  0  0  0  0  0  0  0  0  0  0  0
   38.2060   24.1760   37.6730 C   0  0  0  0  0  0  0  0  0  0  0  0
   38.4500   24.7380   36.4740 N   0  0  0  0  0  0  0  0  0  0  0  0
   39.4320   24.0770   35.9340 N   0  0  0  0  0  0  0  0  0  0  0  0
   39.1860   22.4570   38.6860 H   0  0  0  0  0  0  0  0  0  0  0  0
   37.4450   24.4660   38.4160 H   0  0  0  0  0  0  0  0  0  0  0  0
   41.5870   21.4030   37.4890 C   0  0  0  0  0  0  0  0  0  0  0  0
   40.9570   22.1280   36.4460 C   0  0  0  0  0  0  0  0  0  0  0  0
   41.3960   21.8930   35.1460 C   0  0  0  0  0  0  0  0  0  0  0  0
   42.3980   20.9860   34.9520 N   0  0  0  0  0  0  0  0  0  0  0  0
   42.9630   20.3230   35.9860 C   0  0  0  0  0  0  0  0  0  0  0  0
   42.5600   20.5270   37.2650 N   0  0  0  0  0  0  0  0  0  0  0  0
   41.1830   21.6500   38.4620 H   0  0  0  0  0  0  0  0  0  0  0  0
   40.9180   22.4440   34.3480 H   0  0  0  0  0  0  0  0  0  0  0  0
   43.7560   19.6040   35.8330 H   0  0  0  0  0  0  0  0  0  0  0  0
   37.2920   27.0320   33.6660 C   0  0  0  0  0  0  0  0  0  0  0  0
   37.0010   26.4200   32.4340 C   0  0  0  0  0  0  0  0  0  0  0  0
   36.0800   27.1930   31.7990 N   0  0  0  0  0  0  0  0  0  0  0  0
   35.8020   28.2490   32.6000 C   0  0  0  0  0  0  0  0  0  0  0  0
   36.5300   28.1570   33.7240 N   0  0  0  0  0  0  0  0  0  0  0  0
   37.4060   25.4910   32.0060 H   0  0  0  0  0  0  0  0  0  0  0  0
   35.6690   26.9950   30.8640 H   0  0  0  0  0  0  0  0  0  0  0  0
   34.8570   29.3110   32.2700 C   0  0  0  0  0  0  0  0  0  0  0  0
   35.2280   30.3270   31.4150 C   0  0  0  0  0  0  0  0  0  0  0  0
   36.2080   30.3590   30.9760 H   0  0  0  0  0  0  0  0  0  0  0  0
   34.2750   31.3030   31.1470 C   0  0  0  0  0  3  0  0  0  0  0  0
   33.0050   31.2950   31.6910 C   0  0  0  0  0  0  0  0  0  0  0  0
   32.2870   32.0590   31.4700 H   0  0  0  0  0  0  0  0  0  0  0  0
   32.6400   30.2580   32.5590 C   0  0  0  0  0  0  0  0  0  0  0  0
   31.6680   30.1830   33.0230 H   0  0  0  0  0  0  0  0  0  0  0  0
   33.5900   29.2970   32.8170 C   0  0  0  0  0  3  0  0  0  0  0  0
  1  2  1  0  0  0  0
  1  4  1  1  0  0  0
  1 11  1  0  0  0  0
  2  6  1  0  0  0  0
  2  5  1  0  0  0  0
  3  7  1  6  0  0  0
  3  1  1  0  0  0  0
  3  2  1  0  0  0  0
  8  9  1  0  0  0  0
  9 13  1  0  0  0  0
 10  9  2  0  0  0  0
 10 14  1  0  0  0  0
 11 10  1  0  0  0  0
 12 11  1  0  0  0  0
 12  8  2  0  0  0  0
 15 21  1  0  0  0  0
 16  8  1  0  0  0  0
 16 15  2  0  0  0  0
 17 16  1  0  0  0  0
 18 17  2  0  0  0  0
 18 19  1  0  0  0  0
 19 20  2  0  0  0  0
 20 15  1  0  0  0  0
 22 17  1  0  0  0  0
 23 19  1  0  0  0  0
 24 28  1  0  0  0  0
 24  3  1  0  0  0  0
 25 24  2  0  0  0  0
 26 25  1  0  0  0  0
 26 27  1  0  0  0  0
 27 28  2  0  0  0  0
 29 25  1  0  0  0  0
 30 26  1  0  0  0  0
 31 27  1  0  0  0  0
 31 39  1  0  0  0  0
 32 31  2  0  0  0  0
 33 32  1  0  0  0  0
 34 32  1  0  0  0  0
 34 35  2  0  0  0  0
 35 37  1  0  0  0  0
 36 35  1  0  0  0  0
 37 39  2  0  0  0  0
 37 38  1  0  0  0  0
M  END
>  <minimizedAffinity>
-5.78123188

$$$$

 OpenBabel03272500493D

 39 43  0  0  1  0  0  0  0  0999 V2000
   36.7890   26.4710   32.5600 C   0  0  1  0  0  0  0  0  0  0  0  0
   37.8800   27.2600   31.7580 C   0  0  0  0  0  0  0  0  0  0  0  0
   36.4500   27.6590   31.7560 C   0  0  2  0  0  0  0  0  0  0  0  0
   36.8630   26.5970   33.6600 H   0  0  0  0  0  0  0  0  0  0  0  0
   38.2970   26.6800   30.9130 H   0  0  0  0  0  0  0  0  0  0  0  0
   38.5490   27.8950   32.3730 H   0  0  0  0  0  0  0  0  0  0  0  0
   35.8960   27.4840   30.8350 H   0  0  0  0  0  0  0  0  0  0  0  0
   36.5910   22.9780   31.6890 C   0  0  0  0  0  0  0  0  0  0  0  0
   35.4760   23.4580   31.0380 C   0  0  0  0  0  0  0  0  0  0  0  0
   35.3990   24.8400   31.2780 C   0  0  0  0  0  0  0  0  0  0  0  0
   36.4530   25.1520   32.0550 N   0  0  0  0  0  0  0  0  0  0  0  0
   37.1110   24.0500   32.2670 N   0  0  0  0  0  0  0  0  0  0  0  0
   34.7580   22.8870   30.4330 H   0  0  0  0  0  0  0  0  0  0  0  0
   34.6180   25.5150   30.8920 H   0  0  0  0  0  0  0  0  0  0  0  0
   36.1430   20.5300   31.3150 C   0  0  0  0  0  0  0  0  0  0  0  0
   37.0050   21.5960   31.6770 C   0  0  0  0  0  0  0  0  0  0  0  0
   38.3100   21.2700   32.0350 C   0  0  0  0  0  0  0  0  0  0  0  0
   38.6810   19.9560   32.0170 N   0  0  0  0  0  0  0  0  0  0  0  0
   37.8160   18.9800   31.6620 C   0  0  0  0  0  0  0  0  0  0  0  0
   36.5370   19.2610   31.3070 N   0  0  0  0  0  0  0  0  0  0  0  0
   35.1520   20.8760   31.0520 H   0  0  0  0  0  0  0  0  0  0  0  0
   38.9710   22.0800   32.3130 H   0  0  0  0  0  0  0  0  0  0  0  0
   38.1090   17.9400   31.6470 H   0  0  0  0  0  0  0  0  0  0  0  0
   36.0460   28.9140   32.4660 C   0  0  0  0  0  0  0  0  0  0  0  0
   36.2000   30.2050   31.9290 C   0  0  0  0  0  0  0  0  0  0  0  0
   35.7310   31.0900   32.8480 N   0  0  0  0  0  0  0  0  0  0  0  0
   35.2980   30.3840   33.9200 C   0  0  0  0  0  0  0  0  0  0  0  0
   35.4860   29.0750   33.6950 N   0  0  0  0  0  0  0  0  0  0  0  0
   36.6150   30.5090   30.9570 H   0  0  0  0  0  0  0  0  0  0  0  0
   35.7120   32.1240   32.7350 H   0  0  0  0  0  0  0  0  0  0  0  0
   34.7210   30.9780   35.1230 C   0  0  0  0  0  0  0  0  0  0  0  0
   35.4580   31.8660   35.8780 C   0  0  0  0  0  0  0  0  0  0  0  0
   36.4590   32.1400   35.6010 H   0  0  0  0  0  0  0  0  0  0  0  0
   34.8430   32.3900   37.0090 C   0  0  0  0  0  3  0  0  0  0  0  0
   33.5580   32.0640   37.3960 C   0  0  0  0  0  0  0  0  0  0  0  0
   33.1050   32.4810   38.2730 H   0  0  0  0  0  0  0  0  0  0  0  0
   32.8200   31.1600   36.6220 C   0  0  0  0  0  0  0  0  0  0  0  0
   31.8110   30.8560   36.8590 H   0  0  0  0  0  0  0  0  0  0  0  0
   33.4370   30.6470   35.5040 C   0  0  0  0  0  3  0  0  0  0  0  0
  1  4  1  1  0  0  0
  2  6  1  0  0  0  0
  2  1  1  0  0  0  0
  3  7  1  6  0  0  0
  3  2  1  0  0  0  0
  3 24  1  0  0  0  0
  3  1  1  0  0  0  0
  5  2  1  0  0  0  0
  8 12  2  0  0  0  0
  9 10  2  0  0  0  0
  9  8  1  0  0  0  0
 10 11  1  0  0  0  0
 11 12  1  0  0  0  0
 11  1  1  0  0  0  0
 13  9  1  0  0  0  0
 14 10  1  0  0  0  0
 15 16  1  0  0  0  0
 16  8  1  0  0  0  0
 16 17  2  0  0  0  0
 17 22  1  0  0  0  0
 18 17  1  0  0  0  0
 19 18  2  0  0  0  0
 20 15  2  0  0  0  0
 20 19  1  0  0  0  0
 21 15  1  0  0  0  0
 23 19  1  0  0  0  0
 24 28  1  0  0  0  0
 25 24  2  0  0  0  0
 25 26  1  0  0  0  0
 26 27  1  0  0  0  0
 27 31  1  0  0  0  0
 28 27  2  0  0  0  0
 29 25  1  0  0  0  0
 30 26  1  0  0  0  0
 31 39  2  0  0  0  0
 31 32  1  0  0  0  0
 32 34  2  0  0  0  0
 33 32  1  0  0  0  0
 34 35  1  0  0  0  0
 35 36  1  0  0  0  0
 37 38  1  0  0  0  0
 37 35  2  0  0  0  0
 39 37  1  0  0  0  0
M  END
>  <minimizedAffinity>
-5.7801795

$$$$

 OpenBabel03272500493D

 39 43  0  0  1  0  0  0  0  0999 V2000
   38.3750   26.5440   34.0810 C   0  0  1  0  0  0  0  0  0  0  0  0
   38.8220   27.1770   32.7190 C   0  0  0  0  0  0  0  0  0  0  0  0
   37.3960   26.9160   33.0430 C   0  0  2  0  0  0  0  0  0  0  0  0
   38.4890   27.2250   34.9500 H   0  0  0  0  0  0  0  0  0  0  0  0
   39.3850   26.4720   32.0790 H   0  0  0  0  0  0  0  0  0  0  0  0
   39.1340   28.2400   32.7730 H   0  0  0  0  0  0  0  0  0  0  0  0
   36.9160   26.0990   32.5070 H   0  0  0  0  0  0  0  0  0  0  0  0
   39.7650   23.3490   35.0090 C   0  0  0  0  0  0  0  0  0  0  0  0
   38.7310   22.9420   34.1950 C   0  0  0  0  0  0  0  0  0  0  0  0
   38.0670   24.0900   33.7340 C   0  0  0  0  0  0  0  0  0  0  0  0
   38.7070   25.1440   34.2740 N   0  0  0  0  0  0  0  0  0  0  0  0
   39.6770   24.6710   35.0010 N   0  0  0  0  0  0  0  0  0  0  0  0
   38.4530   21.9110   33.9340 H   0  0  0  0  0  0  0  0  0  0  0  0
   37.1940   24.1000   33.0610 H   0  0  0  0  0  0  0  0  0  0  0  0
   41.6850   21.7230   34.9890 C   0  0  0  0  0  0  0  0  0  0  0  0
   40.6780   22.4510   35.6730 C   0  0  0  0  0  0  0  0  0  0  0  0
   40.5850   22.2750   37.0500 C   0  0  0  0  0  0  0  0  0  0  0  0
   41.4600   21.4210   37.6580 N   0  0  0  0  0  0  0  0  0  0  0  0
   42.4010   20.7520   36.9550 C   0  0  0  0  0  0  0  0  0  0  0  0
   42.5200   20.8980   35.6120 N   0  0  0  0  0  0  0  0  0  0  0  0
   41.6830   21.9210   33.9250 H   0  0  0  0  0  0  0  0  0  0  0  0
   39.8180   22.8280   37.5750 H   0  0  0  0  0  0  0  0  0  0  0  0
   43.0930   20.0760   37.4350 H   0  0  0  0  0  0  0  0  0  0  0  0
   36.4860   28.0780   33.2980 C   0  0  0  0  0  0  0  0  0  0  0  0
   35.7830   28.7620   32.2910 C   0  0  0  0  0  0  0  0  0  0  0  0
   35.0670   29.7510   32.8890 N   0  0  0  0  0  0  0  0  0  0  0  0
   35.3100   29.6900   34.2210 C   0  0  0  0  0  0  0  0  0  0  0  0
   36.1640   28.6860   34.4720 N   0  0  0  0  0  0  0  0  0  0  0  0
   35.7720   28.5810   31.2060 H   0  0  0  0  0  0  0  0  0  0  0  0
   34.4460   30.4260   32.3990 H   0  0  0  0  0  0  0  0  0  0  0  0
   34.7230   30.5900   35.2090 C   0  0  0  0  0  0  0  0  0  0  0  0
   33.3680   30.5500   35.4630 C   0  0  0  0  0  0  0  0  0  0  0  0
   32.7220   29.8640   34.9480 H   0  0  0  0  0  0  0  0  0  0  0  0
   32.8810   31.4360   36.4170 C   0  0  0  0  0  3  0  0  0  0  0  0
   33.6810   32.3310   37.1010 C   0  0  0  0  0  0  0  0  0  0  0  0
   33.2820   33.0060   37.8330 H   0  0  0  0  0  0  0  0  0  0  0  0
   35.0550   32.3630   36.8350 C   0  0  0  0  0  0  0  0  0  0  0  0
   35.7440   33.0330   37.3270 H   0  0  0  0  0  0  0  0  0  0  0  0
   35.5270   31.4810   35.8890 C   0  0  0  0  0  3  0  0  0  0  0  0
  1 11  1  0  0  0  0
  1  4  1  1  0  0  0
  2  6  1  0  0  0  0
  2  3  1  0  0  0  0
  2  1  1  0  0  0  0
  3  7  1  6  0  0  0
  3 24  1  0  0  0  0
  3  1  1  0  0  0  0
  5  2  1  0  0  0  0
  8 16  1  0  0  0  0
  9  8  1  0  0  0  0
 10  9  2  0  0  0  0
 10 11  1  0  0  0  0
 11 12  1  0  0  0  0
 12  8  2  0  0  0  0
 13  9  1  0  0  0  0
 14 10  1  0  0  0  0
 15 20  2  0  0  0  0
 15 16  1  0  0  0  0
 16 17  2  0  0  0  0
 17 22  1  0  0  0  0
 17 18  1  0  0  0  0
 19 23  1  0  0  0  0
 19 18  2  0  0  0  0
 20 19  1  0  0  0  0
 21 15  1  0  0  0  0
 24 28  1  0  0  0  0
 25 26  1  0  0  0  0
 25 24  2  0  0  0  0
 26 27  1  0  0  0  0
 27 28  2  0  0  0  0
 27 31  1  0  0  0  0
 29 25  1  0  0  0  0
 30 26  1  0  0  0  0
 31 32  2  0  0  0  0
 31 39  1  0  0  0  0
 32 34  1  0  0  0  0
 33 32  1  0  0  0  0
 34 35  2  0  0  0  0
 35 36  1  0  0  0  0
 37 35  1  0  0  0  0
 37 38  1  0  0  0  0
 39 37  2  0  0  0  0
M  END
>  <minimizedAffinity>
-5.71521568

$$$$

 OpenBabel03272500493D

 39 43  0  0  1  0  0  0  0  0999 V2000
   38.8430   25.9110   35.6400 C   0  0  1  0  0  0  0  0  0  0  0  0
   37.8690   25.5780   36.8220 C   0  0  0  0  0  0  0  0  0  0  0  0
   38.4270   24.5280   35.9340 C   0  0  2  0  0  0  0  0  0  0  0  0
   39.8550   26.2260   35.9700 H   0  0  0  0  0  0  0  0  0  0  0  0
   36.8430   25.9600   36.6570 H   0  0  0  0  0  0  0  0  0  0  0  0
   38.3200   25.6330   37.8340 H   0  0  0  0  0  0  0  0  0  0  0  0
   37.7360   24.0650   35.2310 H   0  0  0  0  0  0  0  0  0  0  0  0
   38.0290   27.3940   32.4560 C   0  0  0  0  0  0  0  0  0  0  0  0
   36.9260   27.7690   33.1920 C   0  0  0  0  0  0  0  0  0  0  0  0
   37.0830   27.2610   34.4920 C   0  0  0  0  0  0  0  0  0  0  0  0
   38.2580   26.6030   34.5060 N   0  0  0  0  0  0  0  0  0  0  0  0
   38.7680   26.7060   33.3140 N   0  0  0  0  0  0  0  0  0  0  0  0
   36.0640   28.3580   32.8500 H   0  0  0  0  0  0  0  0  0  0  0  0
   36.3690   27.3900   35.3210 H   0  0  0  0  0  0  0  0  0  0  0  0
   37.2720   28.4290   30.2900 C   0  0  0  0  0  0  0  0  0  0  0  0
   38.2310   27.7310   31.0680 C   0  0  0  0  0  0  0  0  0  0  0  0
   39.4180   27.3630   30.4410 C   0  0  0  0  0  0  0  0  0  0  0  0
   39.5890   27.6920   29.1260 N   0  0  0  0  0  0  0  0  0  0  0  0
   38.6390   28.3590   28.4340 C   0  0  0  0  0  0  0  0  0  0  0  0
   37.4710   28.7330   29.0130 N   0  0  0  0  0  0  0  0  0  0  0  0
   36.3840   28.6730   30.8590 H   0  0  0  0  0  0  0  0  0  0  0  0
   40.1520   26.8300   31.0290 H   0  0  0  0  0  0  0  0  0  0  0  0
   38.7740   28.6200   27.3940 H   0  0  0  0  0  0  0  0  0  0  0  0
   39.4420   23.5750   36.4850 C   0  0  0  0  0  0  0  0  0  0  0  0
   39.3380   22.9570   37.7440 C   0  0  0  0  0  0  0  0  0  0  0  0
   40.4340   22.1690   37.9060 N   0  0  0  0  0  0  0  0  0  0  0  0
   41.1970   22.2860   36.7930 C   0  0  0  0  0  0  0  0  0  0  0  0
   40.6050   23.1320   35.9360 N   0  0  0  0  0  0  0  0  0  0  0  0
   38.5450   23.0510   38.5010 H   0  0  0  0  0  0  0  0  0  0  0  0
   40.6370   21.5830   38.7420 H   0  0  0  0  0  0  0  0  0  0  0  0
   42.4640   21.5920   36.5830 C   0  0  0  0  0  0  0  0  0  0  0  0
   43.5000   22.2250   35.9290 C   0  0  0  0  0  0  0  0  0  0  0  0
   43.4000   23.2310   35.5650 H   0  0  0  0  0  0  0  0  0  0  0  0
   44.6750   21.5010   35.7650 C   0  0  0  0  0  3  0  0  0  0  0  0
   44.8410   20.2080   36.2190 C   0  0  0  0  0  0  0  0  0  0  0  0
   45.7570   19.6690   36.0810 H   0  0  0  0  0  0  0  0  0  0  0  0
   43.7820   19.5750   36.8810 C   0  0  0  0  0  0  0  0  0  0  0  0
   43.8350   18.5660   37.2650 H   0  0  0  0  0  0  0  0  0  0  0  0
   42.6220   20.3000   37.0390 C   0  0  0  0  0  3  0  0  0  0  0  0
  1  3  1  0  0  0  0
  1  4  1  1  0  0  0
  1  2  1  0  0  0  0
  2  6  1  0  0  0  0
  3  7  1  6  0  0  0
  3 24  1  0  0  0  0
  3  2  1  0  0  0  0
  5  2  1  0  0  0  0
  8  9  1  0  0  0  0
  8 12  2  0  0  0  0
  9 10  2  0  0  0  0
 10 11  1  0  0  0  0
 10 14  1  0  0  0  0
 11  1  1  0  0  0  0
 12 11  1  0  0  0  0
 13  9  1  0  0  0  0
 15 21  1  0  0  0  0
 15 16  1  0  0  0  0
 16  8  1  0  0  0  0
 17 22  1  0  0  0  0
 17 16  2  0  0  0  0
 18 17  1  0  0  0  0
 19 20  1  0  0  0  0
 19 18  2  0  0  0  0
 20 15  2  0  0  0  0
 23 19  1  0  0  0  0
 24 25  2  0  0  0  0
 25 26  1  0  0  0  0
 25 29  1  0  0  0  0
 26 30  1  0  0  0  0
 27 26  1  0  0  0  0
 28 24  1  0  0  0  0
 28 27  2  0  0  0  0
 31 27  1  0  0  0  0
 31 39  1  0  0  0  0
 32 31  2  0  0  0  0
 33 32  1  0  0  0  0
 34 32  1  0  0  0  0
 34 35  2  0  0  0  0
 35 37  1  0  0  0  0
 36 35  1  0  0  0  0
 37 39  2  0  0  0  0
 37 38  1  0  0  0  0
M  END
>  <minimizedAffinity>
-5.69286299

$$$$
