
 OpenBabel03272505323D

 40 43  0  0  0  0  0  0  0  0999 V2000
   37.3880   31.1880   47.0840 N   0  0  0  0  0  0  0  0  0  0  0  0
   36.7150   30.9470   45.9250 C   0  0  0  0  0  0  0  0  0  0  0  0
   37.1420   31.4690   44.7100 C   0  0  0  0  0  0  0  0  0  0  0  0
   38.2930   32.2520   44.7230 C   0  0  0  0  0  0  0  0  0  0  0  0
   38.7170   32.7450   43.6450 O   0  0  0  0  0  0  0  0  0  0  0  0
   38.9710   32.4940   45.8910 N   0  0  0  0  0  0  0  0  0  0  0  0
   38.4620   31.9390   46.9840 C   0  0  0  0  0  0  0  0  0  0  0  0
   39.1030   32.1770   48.0340 O   0  0  0  0  0  0  0  0  0  0  0  0
   35.8180   30.3350   45.9300 H   0  0  0  0  0  0  0  0  0  0  0  0
   37.3900   29.5240   50.4130 C   0  0  0  0  0  0  0  0  0  0  0  0
   37.8180   30.0610   49.1920 C   0  0  0  0  0  0  0  0  0  0  0  0
   36.9460   30.6550   48.2990 C   0  0  0  0  0  0  0  0  0  0  0  0
   35.6570   30.6950   48.6600 N   0  0  0  0  0  0  0  0  0  0  0  0
   35.1960   30.1880   49.8330 C   0  0  0  0  0  0  0  0  0  0  0  0
   36.0810   29.6030   50.7020 N   0  0  0  0  0  0  0  0  0  0  0  0
   38.1170   29.0690   51.0760 H   0  0  0  0  0  0  0  0  0  0  0  0
   38.8690   30.0190   48.9190 H   0  0  0  0  0  0  0  0  0  0  0  0
   34.1560   30.2220   50.1170 H   0  0  0  0  0  0  0  0  0  0  0  0
   36.4580   31.2420   43.4440 C   0  0  0  0  0  0  0  0  0  0  0  0
   36.7120   30.1700   42.6390 C   0  0  0  0  0  0  0  0  0  0  0  0
   36.0750   29.9350   41.4330 C   0  0  0  0  0  0  0  0  0  0  0  0
   35.1110   30.8510   41.0120 C   0  0  0  0  0  0  0  0  0  0  0  0
   34.8870   31.9200   41.8580 C   0  0  0  0  0  0  0  0  0  0  0  0
   35.5290   32.0980   43.0080 N   0  0  0  0  0  0  0  0  0  0  0  0
   37.4520   29.4340   42.9260 H   0  0  0  0  0  0  0  0  0  0  0  0
   36.2920   29.0800   40.8140 H   0  0  0  0  0  0  0  0  0  0  0  0
   34.6060   30.6950   40.0890 H   0  0  0  0  0  0  0  0  0  0  0  0
   33.8980   32.9330   41.5080 C   0  0  0  0  0  0  0  0  0  0  0  0
   33.3160   33.7120   42.4960 C   0  0  0  0  0  0  0  0  0  0  0  0
   33.6000   33.5640   43.5490 H   0  0  0  0  0  0  0  0  0  0  0  0
   32.3650   34.7050   42.2800 C   0  0  0  0  0  0  0  0  0  0  0  0
   31.9710   34.9370   41.0000 C   0  0  0  0  0  0  0  0  0  0  0  0
   31.2380   35.6910   40.7440 H   0  0  0  0  0  0  0  0  0  0  0  0
   32.5140   34.1990   39.9880 C   0  0  0  0  0  0  0  0  0  0  0  0
   32.2240   34.3540   38.9470 H   0  0  0  0  0  0  0  0  0  0  0  0
   33.4500   33.2260   40.2360 C   0  0  0  0  0  0  0  0  0  0  0  0
   40.1570   33.3040   45.8840 C   0  0  0  0  0  0  0  0  0  0  0  0
   40.0920   34.2510   44.9320 F   0  0  0  0  0  0  0  0  0  0  0  0
   41.3180   32.5750   45.6200 F   0  0  0  0  0  0  0  0  0  0  0  0
   40.2810   33.9210   47.1260 F   0  0  0  0  0  0  0  0  0  0  0  0
  1 12  1  0  0  0  0
  2  9  1  0  0  0  0
  2  1  1  0  0  0  0
  3  4  1  0  0  0  0
  3  2  2  0  0  0  0
  4  6  1  0  0  0  0
  5  4  2  0  0  0  0
  6  7  1  0  0  0  0
  7  1  1  0  0  0  0
  7  8  2  0  0  0  0
 10 15  1  0  0  0  0
 10 16  1  0  0  0  0
 11 10  2  0  0  0  0
 12 13  2  0  0  0  0
 12 11  1  0  0  0  0
 13 14  1  0  0  0  0
 14 18  1  0  0  0  0
 14 15  2  0  0  0  0
 17 11  1  0  0  0  0
 19  3  1  0  0  0  0
 20 25  1  0  0  0  0
 20 19  2  0  0  0  0
 21 20  1  0  0  0  0
 22 21  2  0  0  0  0
 22 23  1  0  0  0  0
 23 24  2  0  0  0  0
 24 19  1  0  0  0  0
 26 21  1  0  0  0  0
 27 22  1  0  0  0  0
 28 23  1  0  0  0  0
 28 29  1  0  0  0  0
 29 30  1  0  0  0  0
 31 29  2  0  0  0  0
 32 31  1  0  0  0  0
 33 32  1  0  0  0  0
 34 36  1  0  0  0  0
 34 32  2  0  0  0  0
 35 34  1  0  0  0  0
 36 28  2  0  0  0  0
 37  6  1  0  0  0  0
 37 40  1  0  0  0  0
 38 37  1  0  0  0  0
 39 37  1  0  0  0  0
M  END
>  <minimizedAffinity>
-6.54987669

>  <minimizedRMSD>
0.474091262

$$$$
