
 OpenBabel03272509273D

 41 43  0  0  1  0  0  0  0  0999 V2000
   38.3840   32.0690   48.6200 C   0  0  2  0  0  0  0  0  0  0  0  0
   38.9410   32.9480   49.7290 C   0  0  0  0  0  0  0  0  0  0  0  0
   39.6190   34.1540   49.1650 C   0  0  0  0  0  0  0  0  0  0  0  0
   40.2590   33.8040   47.8300 C   0  0  0  0  0  0  0  0  0  0  0  0
   39.0790   33.8240   46.9020 C   0  0  0  0  0  0  0  0  0  0  0  0
   38.1270   32.7460   47.3640 C   0  0  1  0  0  0  0  0  0  0  0  0
   39.0930   31.1950   48.6060 H   0  0  0  0  0  0  0  0  0  0  0  0
   39.5930   32.4220   50.4280 H   0  0  0  0  0  0  0  0  0  0  0  0
   38.0890   33.3430   50.3570 H   0  0  0  0  0  0  0  0  0  0  0  0
   40.4140   34.5190   49.8260 H   0  0  0  0  0  0  0  0  0  0  0  0
   38.9110   34.9930   48.9980 H   0  0  0  0  0  0  0  0  0  0  0  0
   40.9040   34.6640   47.5670 H   0  0  0  0  0  0  0  0  0  0  0  0
   40.7820   32.8450   47.8640 H   0  0  0  0  0  0  0  0  0  0  0  0
   38.6250   34.8490   47.0470 H   0  0  0  0  0  0  0  0  0  0  0  0
   39.4280   33.8020   45.8870 H   0  0  0  0  0  0  0  0  0  0  0  0
   37.1330   33.1890   47.3120 H   0  0  0  0  0  0  0  0  0  0  0  0
   38.3390   31.7830   46.1920 C   0  0  0  0  0  0  0  0  0  0  0  0
   37.6240   31.8910   45.0130 C   0  0  0  0  0  0  0  0  0  0  0  0
   36.8940   32.6900   44.9300 H   0  0  0  0  0  0  0  0  0  0  0  0
   37.7490   31.0820   43.9090 C   0  0  0  0  0  3  0  0  0  0  0  0
   38.6770   30.0690   43.9930 C   0  0  0  0  0  0  0  0  0  0  0  0
   38.7980   29.4210   43.1510 H   0  0  0  0  0  0  0  0  0  0  0  0
   39.4230   29.9020   45.1330 C   0  0  0  0  0  0  0  0  0  0  0  0
   40.1300   29.1000   45.1470 H   0  0  0  0  0  0  0  0  0  0  0  0
   39.2480   30.7490   46.2040 C   0  0  0  0  0  3  0  0  0  0  0  0
   36.8410   31.3690   49.2780 S   0  0  0  0  0  0  0  0  0  0  0  0
   36.3970   29.8060   48.4920 C   0  0  0  0  0  0  0  0  0  0  0  0
   37.3790   29.4010   48.0860 H   0  0  0  0  0  0  0  0  0  0  0  0
   36.1540   29.0830   49.2660 H   0  0  0  0  0  0  0  0  0  0  0  0
   35.4230   30.0310   47.3890 C   0  0  0  0  0  0  0  0  0  0  0  0
   35.8240   29.5680   46.4560 H   0  0  0  0  0  0  0  0  0  0  0  0
   35.1680   31.1030   47.2350 H   0  0  0  0  0  0  0  0  0  0  0  0
   32.7190   27.8240   48.7110 C   0  0  0  0  0  0  0  0  0  0  0  0
   33.9240   28.5090   48.6290 C   0  0  0  0  0  0  0  0  0  0  0  0
   34.1770   29.3160   47.5590 C   0  0  0  0  0  0  0  0  0  0  0  0
   33.1880   29.4000   46.6070 N   0  0  0  0  0  0  0  0  0  0  0  0
   32.0430   28.7330   46.7130 C   0  0  0  0  0  0  0  0  0  0  0  0
   31.7830   27.9390   47.7540 N   0  0  0  0  0  0  0  0  0  0  0  0
   32.4590   27.1700   49.5280 H   0  0  0  0  0  0  0  0  0  0  0  0
   34.5500   28.3100   49.4820 H   0  0  0  0  0  0  0  0  0  0  0  0
   31.2960   28.8380   45.9300 H   0  0  0  0  0  0  0  0  0  0  0  0
  1  7  1  6  0  0  0
  1 26  1  0  0  0  0
  1  2  1  0  0  0  0
  2  9  1  0  0  0  0
  2  8  1  0  0  0  0
  3  2  1  0  0  0  0
  3 10  1  0  0  0  0
  4 13  1  0  0  0  0
  4  3  1  0  0  0  0
  5 14  1  0  0  0  0
  5  6  1  0  0  0  0
  5  4  1  0  0  0  0
  6 16  1  6  0  0  0
  6  1  1  0  0  0  0
 11  3  1  0  0  0  0
 12  4  1  0  0  0  0
 15  5  1  0  0  0  0
 17 25  1  0  0  0  0
 17  6  1  0  0  0  0
 18 17  2  0  0  0  0
 19 18  1  0  0  0  0
 20 21  2  0  0  0  0
 20 18  1  0  0  0  0
 21 23  1  0  0  0  0
 22 21  1  0  0  0  0
 23 24  1  0  0  0  0
 23 25  2  0  0  0  0
 27 29  1  0  0  0  0
 27 26  1  0  0  0  0
 28 27  1  0  0  0  0
 30 35  1  0  0  0  0
 30 27  1  0  0  0  0
 31 30  1  0  0  0  0
 32 30  1  0  0  0  0
 33 39  1  0  0  0  0
 34 33  1  0  0  0  0
 34 40  1  0  0  0  0
 35 34  2  0  0  0  0
 36 37  2  0  0  0  0
 36 35  1  0  0  0  0
 37 38  1  0  0  0  0
 38 33  2  0  0  0  0
 41 37  1  0  0  0  0
M  END
>  <minimizedAffinity>
-3.48186374

>  <minimizedRMSD>
1.2438513

$$$$
