
 OpenBabel03272501173D

 35 38  0  0  1  0  0  0  0  0999 V2000
   37.4120   26.7100   33.1380 C   0  0  0  0  0  0  0  0  0  0  0  0
   36.7680   27.6060   33.0220 H   0  0  0  0  0  0  0  0  0  0  0  0
   38.3540   26.9130   32.5670 H   0  0  0  0  0  0  0  0  0  0  0  0
   38.8580   25.5830   34.8880 C   0  0  1  0  0  0  0  0  0  0  0  0
   37.7510   26.4280   34.5680 C   0  0  1  0  0  0  0  0  0  0  0  0
   38.9190   27.0770   35.2610 C   0  0  0  0  0  0  0  0  0  0  0  0
   39.5860   25.2560   34.1210 H   0  0  0  0  0  0  0  0  0  0  0  0
   36.8490   26.3710   35.2420 H   0  0  0  0  0  0  0  0  0  0  0  0
   38.8580   27.3600   36.3160 H   0  0  0  0  0  0  0  0  0  0  0  0
   39.5510   27.6700   34.5910 H   0  0  0  0  0  0  0  0  0  0  0  0
   38.8600   24.7030   36.1260 C   0  0  0  0  0  0  0  0  0  0  0  0
   39.8180   23.7040   36.1590 C   0  0  0  0  0  0  0  0  0  0  0  0
   39.7810   22.8860   37.3020 C   0  0  0  0  0  0  0  0  0  0  0  0
   38.8510   23.1040   38.2760 N   0  0  0  0  0  0  0  0  0  0  0  0
   37.9340   24.1000   38.1920 C   0  0  0  0  0  0  0  0  0  0  0  0
   37.9360   24.9210   37.0930 N   0  0  0  0  0  0  0  0  0  0  0  0
   40.5310   23.5750   35.3600 H   0  0  0  0  0  0  0  0  0  0  0  0
   40.5040   22.0890   37.3840 H   0  0  0  0  0  0  0  0  0  0  0  0
   37.2060   24.2630   38.9690 H   0  0  0  0  0  0  0  0  0  0  0  0
   36.7910   25.5430   32.4550 C   0  0  0  0  0  0  0  0  0  0  0  0
   35.8530   25.6740   31.4590 C   0  0  0  0  0  0  0  0  0  0  0  0
   35.4470   24.4750   31.0120 N   0  0  0  0  0  0  0  0  0  0  0  0
   36.1490   23.5700   31.7460 C   0  0  0  0  0  0  0  0  0  0  0  0
   36.9540   24.2210   32.6110 N   0  0  0  0  0  0  0  0  0  0  0  0
   35.4580   26.6000   31.0510 H   0  0  0  0  0  0  0  0  0  0  0  0
   34.7470   24.2510   30.2640 H   0  0  0  0  0  0  0  0  0  0  0  0
   36.0250   22.1210   31.5960 C   0  0  0  0  0  0  0  0  0  0  0  0
   34.9970   21.4680   32.2440 C   0  0  0  0  0  0  0  0  0  0  0  0
   34.2540   21.9600   32.8730 H   0  0  0  0  0  0  0  0  0  0  0  0
   34.8750   20.0940   32.1050 C   0  0  0  0  0  3  0  0  0  0  0  0
   35.7860   19.3990   31.3190 C   0  0  0  0  0  0  0  0  0  0  0  0
   35.7590   18.3180   31.1580 H   0  0  0  0  0  0  0  0  0  0  0  0
   36.8230   20.0770   30.6680 C   0  0  0  0  0  0  0  0  0  0  0  0
   37.5490   19.5820   30.0510 H   0  0  0  0  0  0  0  0  0  0  0  0
   36.9390   21.4440   30.8100 C   0  0  0  0  0  3  0  0  0  0  0  0
  1  5  1  0  0  0  0
  2  1  1  0  0  0  0
  3  1  1  0  0  0  0
  4  7  1  6  0  0  0
  4  6  1  0  0  0  0
  4 11  1  0  0  0  0
  5  4  1  0  0  0  0
  5  8  1  1  0  0  0
  5  6  1  0  0  0  0
  6  9  1  0  0  0  0
 10  6  1  0  0  0  0
 11 12  2  0  0  0  0
 11 16  1  0  0  0  0
 12 13  1  0  0  0  0
 13 18  1  0  0  0  0
 13 14  2  0  0  0  0
 15 14  1  0  0  0  0
 15 19  1  0  0  0  0
 16 15  2  0  0  0  0
 17 12  1  0  0  0  0
 20 24  1  0  0  0  0
 20  1  1  0  0  0  0
 21 20  2  0  0  0  0
 22 21  1  0  0  0  0
 22 23  1  0  0  0  0
 23 24  2  0  0  0  0
 25 21  1  0  0  0  0
 26 22  1  0  0  0  0
 27 23  1  0  0  0  0
 27 28  1  0  0  0  0
 28 29  1  0  0  0  0
 30 28  2  0  0  0  0
 31 30  1  0  0  0  0
 32 31  1  0  0  0  0
 33 35  1  0  0  0  0
 33 31  2  0  0  0  0
 34 33  1  0  0  0  0
 35 27  2  0  0  0  0
M  END
>  <minimizedAffinity>
-5.87479925

$$$$

 OpenBabel03272501173D

 35 38  0  0  1  0  0  0  0  0999 V2000
   37.6520   24.8730   36.4940 C   0  0  0  0  0  0  0  0  0  0  0  0
   37.1880   25.3430   37.3860 H   0  0  0  0  0  0  0  0  0  0  0  0
   36.8710   24.2160   36.0320 H   0  0  0  0  0  0  0  0  0  0  0  0
   37.2140   26.8980   35.0340 C   0  0  1  0  0  0  0  0  0  0  0  0
   38.1100   25.8820   35.4870 C   0  0  1  0  0  0  0  0  0  0  0  0
   38.4480   27.2990   35.8650 C   0  0  0  0  0  0  0  0  0  0  0  0
   36.2370   27.0770   35.5220 H   0  0  0  0  0  0  0  0  0  0  0  0
   38.8410   25.4680   34.7360 H   0  0  0  0  0  0  0  0  0  0  0  0
   39.2670   27.8310   35.3710 H   0  0  0  0  0  0  0  0  0  0  0  0
   38.2140   27.5420   36.9080 H   0  0  0  0  0  0  0  0  0  0  0  0
   37.2890   27.4600   33.6250 C   0  0  0  0  0  0  0  0  0  0  0  0
   36.3620   28.4390   33.3120 C   0  0  0  0  0  0  0  0  0  0  0  0
   36.4340   28.9230   31.9940 C   0  0  0  0  0  0  0  0  0  0  0  0
   37.3680   28.4310   31.1290 N   0  0  0  0  0  0  0  0  0  0  0  0
   38.2540   27.4700   31.4900 C   0  0  0  0  0  0  0  0  0  0  0  0
   38.2180   26.9700   32.7680 N   0  0  0  0  0  0  0  0  0  0  0  0
   35.6430   28.7930   34.0350 H   0  0  0  0  0  0  0  0  0  0  0  0
   35.7360   29.6880   31.6910 H   0  0  0  0  0  0  0  0  0  0  0  0
   38.9870   27.0900   30.7990 H   0  0  0  0  0  0  0  0  0  0  0  0
   38.7390   23.9460   36.9110 C   0  0  0  0  0  0  0  0  0  0  0  0
   38.7600   23.3250   38.1360 C   0  0  0  0  0  0  0  0  0  0  0  0
   39.8450   22.5460   38.2700 N   0  0  0  0  0  0  0  0  0  0  0  0
   40.5200   22.6830   37.0970 C   0  0  0  0  0  0  0  0  0  0  0  0
   39.8480   23.5250   36.2860 N   0  0  0  0  0  0  0  0  0  0  0  0
   38.0210   23.4180   38.9290 H   0  0  0  0  0  0  0  0  0  0  0  0
   40.1360   21.9520   39.0830 H   0  0  0  0  0  0  0  0  0  0  0  0
   41.7800   22.0050   36.7940 C   0  0  0  0  0  0  0  0  0  0  0  0
   41.9730   20.7180   37.2530 C   0  0  0  0  0  0  0  0  0  0  0  0
   41.2430   20.1570   37.8360 H   0  0  0  0  0  0  0  0  0  0  0  0
   43.1660   20.0710   36.9680 C   0  0  0  0  0  3  0  0  0  0  0  0
   44.1430   20.7250   36.2280 C   0  0  0  0  0  0  0  0  0  0  0  0
   45.1080   20.2850   35.9620 H   0  0  0  0  0  0  0  0  0  0  0  0
   43.9310   22.0300   35.7700 C   0  0  0  0  0  0  0  0  0  0  0  0
   44.6570   22.5740   35.1950 H   0  0  0  0  0  0  0  0  0  0  0  0
   42.7420   22.6680   36.0560 C   0  0  0  0  0  3  0  0  0  0  0  0
  1 20  1  0  0  0  0
  1  2  1  0  0  0  0
  3  1  1  0  0  0  0
  4  5  1  0  0  0  0
  4  7  1  1  0  0  0
  4  6  1  0  0  0  0
  5  8  1  6  0  0  0
  5  6  1  0  0  0  0
  5  1  1  0  0  0  0
  6 10  1  0  0  0  0
  9  6  1  0  0  0  0
 11  4  1  0  0  0  0
 12 11  1  0  0  0  0
 12 17  1  0  0  0  0
 13 12  2  0  0  0  0
 14 15  2  0  0  0  0
 14 13  1  0  0  0  0
 15 16  1  0  0  0  0
 16 11  2  0  0  0  0
 18 13  1  0  0  0  0
 19 15  1  0  0  0  0
 20 21  2  0  0  0  0
 21 22  1  0  0  0  0
 21 25  1  0  0  0  0
 22 26  1  0  0  0  0
 23 22  1  0  0  0  0
 24 20  1  0  0  0  0
 24 23  2  0  0  0  0
 27 23  1  0  0  0  0
 27 28  1  0  0  0  0
 28 29  1  0  0  0  0
 30 28  2  0  0  0  0
 31 30  1  0  0  0  0
 32 31  1  0  0  0  0
 33 35  1  0  0  0  0
 33 31  2  0  0  0  0
 34 33  1  0  0  0  0
 35 27  2  0  0  0  0
M  END
>  <minimizedAffinity>
-5.85855865

$$$$

 OpenBabel03272501173D

 35 38  0  0  1  0  0  0  0  0999 V2000
   37.6310   26.7740   33.3470 C   0  0  0  0  0  0  0  0  0  0  0  0
   38.3280   26.9490   32.5010 H   0  0  0  0  0  0  0  0  0  0  0  0
   36.9360   25.9560   33.0300 H   0  0  0  0  0  0  0  0  0  0  0  0
   38.8670   25.0400   34.7220 C   0  0  1  0  0  0  0  0  0  0  0  0
   38.3410   26.3620   34.5990 C   0  0  1  0  0  0  0  0  0  0  0  0
   39.8390   26.2340   34.6690 C   0  0  0  0  0  0  0  0  0  0  0  0
   38.9200   24.3480   33.8580 H   0  0  0  0  0  0  0  0  0  0  0  0
   37.9220   26.8370   35.5310 H   0  0  0  0  0  0  0  0  0  0  0  0
   40.3840   26.5120   35.5770 H   0  0  0  0  0  0  0  0  0  0  0  0
   40.3350   26.3540   33.6990 H   0  0  0  0  0  0  0  0  0  0  0  0
   38.9370   24.3270   36.0610 C   0  0  0  0  0  0  0  0  0  0  0  0
   37.9700   24.6810   36.9870 C   0  0  0  0  0  0  0  0  0  0  0  0
   38.0730   24.0280   38.2280 C   0  0  0  0  0  0  0  0  0  0  0  0
   39.0690   23.1220   38.4500 N   0  0  0  0  0  0  0  0  0  0  0  0
   39.9910   22.8120   37.5050 C   0  0  0  0  0  0  0  0  0  0  0  0
   39.9260   23.4270   36.2800 N   0  0  0  0  0  0  0  0  0  0  0  0
   37.2040   25.4060   36.7600 H   0  0  0  0  0  0  0  0  0  0  0  0
   37.3480   24.2640   38.9910 H   0  0  0  0  0  0  0  0  0  0  0  0
   40.7710   22.0950   37.6920 H   0  0  0  0  0  0  0  0  0  0  0  0
   36.7610   27.9640   33.5470 C   0  0  0  0  0  0  0  0  0  0  0  0
   36.1990   28.6600   32.5050 C   0  0  0  0  0  0  0  0  0  0  0  0
   35.4630   29.6920   32.9480 N   0  0  0  0  0  0  0  0  0  0  0  0
   35.5680   29.6400   34.3040 C   0  0  0  0  0  0  0  0  0  0  0  0
   36.3490   28.5990   34.6550 N   0  0  0  0  0  0  0  0  0  0  0  0
   36.3040   28.4470   31.4440 H   0  0  0  0  0  0  0  0  0  0  0  0
   34.9180   30.3990   32.3990 H   0  0  0  0  0  0  0  0  0  0  0  0
   34.9190   30.5850   35.2120 C   0  0  0  0  0  0  0  0  0  0  0  0
   33.5450   30.5600   35.3310 C   0  0  0  0  0  0  0  0  0  0  0  0
   32.8930   29.8750   34.7890 H   0  0  0  0  0  0  0  0  0  0  0  0
   32.9250   31.4540   36.1910 C   0  0  0  0  0  3  0  0  0  0  0  0
   33.6940   32.3560   36.9160 C   0  0  0  0  0  0  0  0  0  0  0  0
   33.2830   33.0910   37.6130 H   0  0  0  0  0  0  0  0  0  0  0  0
   35.0870   32.3680   36.7830 C   0  0  0  0  0  0  0  0  0  0  0  0
   35.7210   33.0470   37.3220 H   0  0  0  0  0  0  0  0  0  0  0  0
   35.6970   31.4760   35.9260 C   0  0  0  0  0  3  0  0  0  0  0  0
  1 20  1  0  0  0  0
  1  5  1  0  0  0  0
  2  1  1  0  0  0  0
  3  1  1  0  0  0  0
  4  7  1  6  0  0  0
  4 11  1  0  0  0  0
  5  6  1  0  0  0  0
  5  4  1  0  0  0  0
  5  8  1  1  0  0  0
  6  4  1  0  0  0  0
  6  9  1  0  0  0  0
 10  6  1  0  0  0  0
 11 16  2  0  0  0  0
 11 12  1  0  0  0  0
 12 13  2  0  0  0  0
 13 14  1  0  0  0  0
 13 18  1  0  0  0  0
 15 19  1  0  0  0  0
 15 14  2  0  0  0  0
 16 15  1  0  0  0  0
 17 12  1  0  0  0  0
 20 24  1  0  0  0  0
 21 22  1  0  0  0  0
 21 20  2  0  0  0  0
 22 23  1  0  0  0  0
 23 24  2  0  0  0  0
 23 27  1  0  0  0  0
 25 21  1  0  0  0  0
 26 22  1  0  0  0  0
 27 28  2  0  0  0  0
 27 35  1  0  0  0  0
 28 30  1  0  0  0  0
 29 28  1  0  0  0  0
 30 31  2  0  0  0  0
 31 32  1  0  0  0  0
 33 31  1  0  0  0  0
 33 34  1  0  0  0  0
 35 33  2  0  0  0  0
M  END
>  <minimizedAffinity>
-5.73320675

$$$$

 OpenBabel03272501173D

 35 38  0  0  1  0  0  0  0  0999 V2000
   39.3010   24.6980   35.7720 C   0  0  0  0  0  0  0  0  0  0  0  0
   40.3780   24.4640   35.6360 H   0  0  0  0  0  0  0  0  0  0  0  0
   39.1340   24.8260   36.8720 H   0  0  0  0  0  0  0  0  0  0  0  0
   37.5820   26.4860   35.2510 C   0  0  1  0  0  0  0  0  0  0  0  0
   38.8920   25.9500   35.0600 C   0  0  1  0  0  0  0  0  0  0  0  0
   38.8020   27.2790   35.7590 C   0  0  0  0  0  0  0  0  0  0  0  0
   36.9030   26.1060   36.0380 H   0  0  0  0  0  0  0  0  0  0  0  0
   39.3450   26.0520   34.0330 H   0  0  0  0  0  0  0  0  0  0  0  0
   39.0810   28.2030   35.2450 H   0  0  0  0  0  0  0  0  0  0  0  0
   38.9450   27.2150   36.8440 H   0  0  0  0  0  0  0  0  0  0  0  0
   36.8550   27.2350   34.1460 C   0  0  0  0  0  0  0  0  0  0  0  0
   36.9230   26.6690   32.8850 C   0  0  0  0  0  0  0  0  0  0  0  0
   36.2660   27.3950   31.8750 C   0  0  0  0  0  0  0  0  0  0  0  0
   35.6250   28.5630   32.1720 N   0  0  0  0  0  0  0  0  0  0  0  0
   35.5900   29.0710   33.4290 C   0  0  0  0  0  0  0  0  0  0  0  0
   36.2190   28.3930   34.4430 N   0  0  0  0  0  0  0  0  0  0  0  0
   37.4450   25.7420   32.7040 H   0  0  0  0  0  0  0  0  0  0  0  0
   36.2850   27.0040   30.8700 H   0  0  0  0  0  0  0  0  0  0  0  0
   35.0800   29.9930   33.6500 H   0  0  0  0  0  0  0  0  0  0  0  0
   38.4710   23.5240   35.3890 C   0  0  0  0  0  0  0  0  0  0  0  0
   37.8970   22.6840   36.3120 C   0  0  0  0  0  0  0  0  0  0  0  0
   37.2040   21.7020   35.7140 N   0  0  0  0  0  0  0  0  0  0  0  0
   37.3480   21.9340   34.3810 C   0  0  0  0  0  0  0  0  0  0  0  0
   38.1110   23.0300   34.1950 N   0  0  0  0  0  0  0  0  0  0  0  0
   37.9630   22.7590   37.3950 H   0  0  0  0  0  0  0  0  0  0  0  0
   36.6610   20.9170   36.1470 H   0  0  0  0  0  0  0  0  0  0  0  0
   36.7540   21.1010   33.3360 C   0  0  0  0  0  0  0  0  0  0  0  0
   37.2940   21.1360   32.0660 C   0  0  0  0  0  0  0  0  0  0  0  0
   38.1470   21.7510   31.7770 H   0  0  0  0  0  0  0  0  0  0  0  0
   36.7340   20.3480   31.0720 C   0  0  0  0  0  3  0  0  0  0  0  0
   35.6440   19.5400   31.3690 C   0  0  0  0  0  0  0  0  0  0  0  0
   35.1460   18.8910   30.6430 H   0  0  0  0  0  0  0  0  0  0  0  0
   35.1090   19.5160   32.6610 C   0  0  0  0  0  0  0  0  0  0  0  0
   34.2680   18.9070   32.9360 H   0  0  0  0  0  0  0  0  0  0  0  0
   35.6710   20.3010   33.6460 C   0  0  0  0  0  3  0  0  0  0  0  0
  1  3  1  0  0  0  0
  2  1  1  0  0  0  0
  4  6  1  0  0  0  0
  4  7  1  1  0  0  0
  5  8  1  6  0  0  0
  5  4  1  0  0  0  0
  5  6  1  0  0  0  0
  5  1  1  0  0  0  0
  6 10  1  0  0  0  0
  9  6  1  0  0  0  0
 11 16  1  0  0  0  0
 11  4  1  0  0  0  0
 12 11  2  0  0  0  0
 13 14  2  0  0  0  0
 13 12  1  0  0  0  0
 14 15  1  0  0  0  0
 15 19  1  0  0  0  0
 15 16  2  0  0  0  0
 17 12  1  0  0  0  0
 18 13  1  0  0  0  0
 20  1  1  0  0  0  0
 20 21  2  0  0  0  0
 21 25  1  0  0  0  0
 22 26  1  0  0  0  0
 22 21  1  0  0  0  0
 23 22  1  0  0  0  0
 24 23  2  0  0  0  0
 24 20  1  0  0  0  0
 27 35  1  0  0  0  0
 27 23  1  0  0  0  0
 28 27  2  0  0  0  0
 29 28  1  0  0  0  0
 30 31  2  0  0  0  0
 30 28  1  0  0  0  0
 31 33  1  0  0  0  0
 32 31  1  0  0  0  0
 33 34  1  0  0  0  0
 33 35  2  0  0  0  0
M  END
>  <minimizedAffinity>
-5.56512213

$$$$

 OpenBabel03272501173D

 35 38  0  0  1  0  0  0  0  0999 V2000
   36.2790   27.9950   33.3160 C   0  0  0  0  0  0  0  0  0  0  0  0
   35.7430   27.2110   32.7430 H   0  0  0  0  0  0  0  0  0  0  0  0
   37.0430   28.4350   32.6260 H   0  0  0  0  0  0  0  0  0  0  0  0
   35.6400   30.4430   33.4770 C   0  0  1  0  0  0  0  0  0  0  0  0
   35.3650   29.0790   33.7980 C   0  0  1  0  0  0  0  0  0  0  0  0
   34.3860   29.7700   32.8870 C   0  0  0  0  0  0  0  0  0  0  0  0
   36.4170   30.7260   32.7410 H   0  0  0  0  0  0  0  0  0  0  0  0
   34.9120   28.8690   34.8090 H   0  0  0  0  0  0  0  0  0  0  0  0
   33.4010   30.0770   33.2510 H   0  0  0  0  0  0  0  0  0  0  0  0
   34.4950   29.4880   31.8330 H   0  0  0  0  0  0  0  0  0  0  0  0
   35.2690   31.5760   34.4180 C   0  0  0  0  0  0  0  0  0  0  0  0
   35.5770   31.3810   35.7540 C   0  0  0  0  0  0  0  0  0  0  0  0
   35.1980   32.4320   36.6080 C   0  0  0  0  0  0  0  0  0  0  0  0
   34.5780   33.5390   36.1050 N   0  0  0  0  0  0  0  0  0  0  0  0
   34.3010   33.6780   34.7850 C   0  0  0  0  0  0  0  0  0  0  0  0
   34.6540   32.6750   33.9180 N   0  0  0  0  0  0  0  0  0  0  0  0
   36.0680   30.4840   36.0990 H   0  0  0  0  0  0  0  0  0  0  0  0
   35.4110   32.3370   37.6610 H   0  0  0  0  0  0  0  0  0  0  0  0
   33.8120   34.5570   34.4010 H   0  0  0  0  0  0  0  0  0  0  0  0
   37.0640   27.3770   34.4180 C   0  0  0  0  0  0  0  0  0  0  0  0
   37.6590   28.1130   35.4140 C   0  0  0  0  0  0  0  0  0  0  0  0
   38.3110   27.3220   36.2810 N   0  0  0  0  0  0  0  0  0  0  0  0
   38.1180   26.0580   35.8170 C   0  0  0  0  0  0  0  0  0  0  0  0
   37.3680   26.1010   34.6970 N   0  0  0  0  0  0  0  0  0  0  0  0
   37.6370   29.1940   35.5300 H   0  0  0  0  0  0  0  0  0  0  0  0
   38.8560   27.5880   37.1370 H   0  0  0  0  0  0  0  0  0  0  0  0
   38.6560   24.8590   36.4570 C   0  0  0  0  0  0  0  0  0  0  0  0
   39.6550   24.1520   35.8190 C   0  0  0  0  0  0  0  0  0  0  0  0
   40.0810   24.4250   34.8540 H   0  0  0  0  0  0  0  0  0  0  0  0
   40.1690   23.0140   36.4230 C   0  0  0  0  0  3  0  0  0  0  0  0
   39.6720   22.6070   37.6550 C   0  0  0  0  0  0  0  0  0  0  0  0
   40.0230   21.7230   38.1950 H   0  0  0  0  0  0  0  0  0  0  0  0
   38.6600   23.3350   38.2890 C   0  0  0  0  0  0  0  0  0  0  0  0
   38.2470   23.0580   39.2400 H   0  0  0  0  0  0  0  0  0  0  0  0
   38.1530   24.4660   37.6830 C   0  0  0  0  0  3  0  0  0  0  0  0
  1  5  1  0  0  0  0
  1 20  1  0  0  0  0
  2  1  1  0  0  0  0
  3  1  1  0  0  0  0
  4  7  1  6  0  0  0
  4  5  1  0  0  0  0
  4 11  1  0  0  0  0
  5  8  1  1  0  0  0
  6  9  1  0  0  0  0
  6  4  1  0  0  0  0
  6  5  1  0  0  0  0
 10  6  1  0  0  0  0
 11 12  1  0  0  0  0
 12 17  1  0  0  0  0
 12 13  2  0  0  0  0
 13 18  1  0  0  0  0
 14 13  1  0  0  0  0
 15 14  2  0  0  0  0
 16 11  2  0  0  0  0
 16 15  1  0  0  0  0
 19 15  1  0  0  0  0
 20 24  1  0  0  0  0
 20 21  2  0  0  0  0
 21 25  1  0  0  0  0
 21 22  1  0  0  0  0
 22 26  1  0  0  0  0
 23 22  1  0  0  0  0
 23 27  1  0  0  0  0
 24 23  2  0  0  0  0
 27 35  1  0  0  0  0
 28 30  1  0  0  0  0
 28 27  2  0  0  0  0
 29 28  1  0  0  0  0
 30 31  2  0  0  0  0
 31 32  1  0  0  0  0
 31 33  1  0  0  0  0
 33 34  1  0  0  0  0
 35 33  2  0  0  0  0
M  END
>  <minimizedAffinity>
-5.47569132

$$$$

 OpenBabel03272501173D

 35 38  0  0  1  0  0  0  0  0999 V2000
   36.6860   28.3390   33.0420 C   0  0  0  0  0  0  0  0  0  0  0  0
   36.2950   28.1390   32.0230 H   0  0  0  0  0  0  0  0  0  0  0  0
   37.6000   28.9750   32.9190 H   0  0  0  0  0  0  0  0  0  0  0  0
   35.2610   30.3710   33.5560 C   0  0  1  0  0  0  0  0  0  0  0  0
   35.6960   29.0560   33.9060 C   0  0  1  0  0  0  0  0  0  0  0  0
   34.2510   29.2080   33.5170 C   0  0  0  0  0  0  0  0  0  0  0  0
   35.4990   30.8240   32.5750 H   0  0  0  0  0  0  0  0  0  0  0  0
   35.8080   28.8260   35.0040 H   0  0  0  0  0  0  0  0  0  0  0  0
   33.4600   29.1700   34.2720 H   0  0  0  0  0  0  0  0  0  0  0  0
   34.0300   28.8530   32.5040 H   0  0  0  0  0  0  0  0  0  0  0  0
   34.8850   31.3960   34.6120 C   0  0  0  0  0  0  0  0  0  0  0  0
   35.5620   31.3040   35.8150 C   0  0  0  0  0  0  0  0  0  0  0  0
   35.1760   32.2460   36.7850 C   0  0  0  0  0  0  0  0  0  0  0  0
   34.2020   33.1610   36.5080 N   0  0  0  0  0  0  0  0  0  0  0  0
   33.5710   33.2060   35.3090 C   0  0  0  0  0  0  0  0  0  0  0  0
   33.9180   32.3040   34.3340 N   0  0  0  0  0  0  0  0  0  0  0  0
   36.3250   30.5590   35.9830 H   0  0  0  0  0  0  0  0  0  0  0  0
   35.6690   32.2230   37.7450 H   0  0  0  0  0  0  0  0  0  0  0  0
   32.8050   33.9340   35.1020 H   0  0  0  0  0  0  0  0  0  0  0  0
   37.1750   27.0760   33.6580 C   0  0  0  0  0  0  0  0  0  0  0  0
   37.4590   25.9490   32.9240 C   0  0  0  0  0  0  0  0  0  0  0  0
   37.8780   24.9470   33.7130 N   0  0  0  0  0  0  0  0  0  0  0  0
   37.8560   25.4590   34.9730 C   0  0  0  0  0  0  0  0  0  0  0  0
   37.4330   26.7380   34.9310 N   0  0  0  0  0  0  0  0  0  0  0  0
   37.3740   25.8320   31.8470 H   0  0  0  0  0  0  0  0  0  0  0  0
   38.1660   23.9740   33.4480 H   0  0  0  0  0  0  0  0  0  0  0  0
   38.2390   24.7090   36.1690 C   0  0  0  0  0  0  0  0  0  0  0  0
   39.1540   23.6840   36.0490 C   0  0  0  0  0  0  0  0  0  0  0  0
   39.6240   23.3840   35.1120 H   0  0  0  0  0  0  0  0  0  0  0  0
   39.5210   22.9700   37.1800 C   0  0  0  0  0  3  0  0  0  0  0  0
   38.9630   23.2970   38.4100 C   0  0  0  0  0  0  0  0  0  0  0  0
   39.1990   22.7840   39.3460 H   0  0  0  0  0  0  0  0  0  0  0  0
   38.0360   24.3400   38.5130 C   0  0  0  0  0  0  0  0  0  0  0  0
   37.5790   24.6270   39.4410 H   0  0  0  0  0  0  0  0  0  0  0  0
   37.6760   25.0470   37.3850 C   0  0  0  0  0  3  0  0  0  0  0  0
  1 20  1  0  0  0  0
  1  5  1  0  0  0  0
  2  1  1  0  0  0  0
  3  1  1  0  0  0  0
  4  7  1  6  0  0  0
  4  5  1  0  0  0  0
  4 11  1  0  0  0  0
  5  8  1  1  0  0  0
  6  4  1  0  0  0  0
  6  5  1  0  0  0  0
  6  9  1  0  0  0  0
 10  6  1  0  0  0  0
 11 12  1  0  0  0  0
 12 17  1  0  0  0  0
 12 13  2  0  0  0  0
 13 18  1  0  0  0  0
 14 13  1  0  0  0  0
 15 14  2  0  0  0  0
 16 11  2  0  0  0  0
 16 15  1  0  0  0  0
 19 15  1  0  0  0  0
 20 24  1  0  0  0  0
 21 20  2  0  0  0  0
 21 22  1  0  0  0  0
 22 23  1  0  0  0  0
 23 27  1  0  0  0  0
 24 23  2  0  0  0  0
 25 21  1  0  0  0  0
 26 22  1  0  0  0  0
 27 35  1  0  0  0  0
 28 27  2  0  0  0  0
 28 30  1  0  0  0  0
 29 28  1  0  0  0  0
 30 31  2  0  0  0  0
 31 33  1  0  0  0  0
 31 32  1  0  0  0  0
 33 34  1  0  0  0  0
 35 33  2  0  0  0  0
M  END
>  <minimizedAffinity>
-5.32558727

$$$$

 OpenBabel03272501173D

 35 38  0  0  1  0  0  0  0  0999 V2000
   37.3810   27.3870   32.2880 C   0  0  0  0  0  0  0  0  0  0  0  0
   37.3960   27.0750   31.2230 H   0  0  0  0  0  0  0  0  0  0  0  0
   38.2510   28.0760   32.4360 H   0  0  0  0  0  0  0  0  0  0  0  0
   36.1710   29.4280   33.1820 C   0  0  1  0  0  0  0  0  0  0  0  0
   36.1170   28.0990   32.6590 C   0  0  1  0  0  0  0  0  0  0  0  0
   35.5270   29.1870   31.8030 C   0  0  0  0  0  0  0  0  0  0  0  0
   37.1040   30.0230   33.1710 H   0  0  0  0  0  0  0  0  0  0  0  0
   35.3200   27.4170   33.0690 H   0  0  0  0  0  0  0  0  0  0  0  0
   34.4430   29.2950   31.7010 H   0  0  0  0  0  0  0  0  0  0  0  0
   36.1670   29.4800   30.9630 H   0  0  0  0  0  0  0  0  0  0  0  0
   35.1520   29.9330   34.1890 C   0  0  0  0  0  0  0  0  0  0  0  0
   35.5550   30.9970   34.9770 C   0  0  0  0  0  0  0  0  0  0  0  0
   34.6040   31.4270   35.9200 C   0  0  0  0  0  0  0  0  0  0  0  0
   33.3910   30.8080   36.0080 N   0  0  0  0  0  0  0  0  0  0  0  0
   33.0490   29.7680   35.2080 C   0  0  0  0  0  0  0  0  0  0  0  0
   33.9480   29.3170   34.2740 N   0  0  0  0  0  0  0  0  0  0  0  0
   36.5280   31.4500   34.8660 H   0  0  0  0  0  0  0  0  0  0  0  0
   34.8610   32.2540   36.5640 H   0  0  0  0  0  0  0  0  0  0  0  0
   32.0880   29.2880   35.2860 H   0  0  0  0  0  0  0  0  0  0  0  0
   37.6590   26.2190   33.1680 C   0  0  0  0  0  0  0  0  0  0  0  0
   37.6500   24.9240   32.7110 C   0  0  0  0  0  0  0  0  0  0  0  0
   37.9260   24.0570   33.6990 N   0  0  0  0  0  0  0  0  0  0  0  0
   38.1130   24.8310   34.8020 C   0  0  0  0  0  0  0  0  0  0  0  0
   37.9510   26.1290   34.4730 N   0  0  0  0  0  0  0  0  0  0  0  0
   37.4520   24.5890   31.6960 H   0  0  0  0  0  0  0  0  0  0  0  0
   37.9910   23.0110   33.6620 H   0  0  0  0  0  0  0  0  0  0  0  0
   38.4390   24.3040   36.1270 C   0  0  0  0  0  0  0  0  0  0  0  0
   37.7130   24.7410   37.2160 C   0  0  0  0  0  0  0  0  0  0  0  0
   36.8990   25.4640   37.1630 H   0  0  0  0  0  0  0  0  0  0  0  0
   38.0180   24.2430   38.4740 C   0  0  0  0  0  3  0  0  0  0  0  0
   39.0440   23.3170   38.6160 C   0  0  0  0  0  0  0  0  0  0  0  0
   39.3460   22.8790   39.5720 H   0  0  0  0  0  0  0  0  0  0  0  0
   39.7700   22.8850   37.5010 C   0  0  0  0  0  0  0  0  0  0  0  0
   40.5700   22.1720   37.5640 H   0  0  0  0  0  0  0  0  0  0  0  0
   39.4610   23.3830   36.2530 C   0  0  0  0  0  3  0  0  0  0  0  0
  1  3  1  0  0  0  0
  1  5  1  0  0  0  0
  1 20  1  0  0  0  0
  2  1  1  0  0  0  0
  4  7  1  1  0  0  0
  4 11  1  0  0  0  0
  5  8  1  1  0  0  0
  5  4  1  0  0  0  0
  6  5  1  0  0  0  0
  6  4  1  0  0  0  0
  9  6  1  0  0  0  0
 10  6  1  0  0  0  0
 11 16  2  0  0  0  0
 11 12  1  0  0  0  0
 12 13  2  0  0  0  0
 13 14  1  0  0  0  0
 13 18  1  0  0  0  0
 15 19  1  0  0  0  0
 15 14  2  0  0  0  0
 16 15  1  0  0  0  0
 17 12  1  0  0  0  0
 20 24  1  0  0  0  0
 21 20  2  0  0  0  0
 21 22  1  0  0  0  0
 22 23  1  0  0  0  0
 23 27  1  0  0  0  0
 24 23  2  0  0  0  0
 25 21  1  0  0  0  0
 26 22  1  0  0  0  0
 27 35  2  0  0  0  0
 27 28  1  0  0  0  0
 28 30  2  0  0  0  0
 29 28  1  0  0  0  0
 30 31  1  0  0  0  0
 31 32  1  0  0  0  0
 33 34  1  0  0  0  0
 33 31  2  0  0  0  0
 35 33  1  0  0  0  0
M  END
>  <minimizedAffinity>
-5.31696653

$$$$

 OpenBabel03272501173D

 35 38  0  0  1  0  0  0  0  0999 V2000
   35.5380   29.0970   31.5790 C   0  0  0  0  0  0  0  0  0  0  0  0
   34.4430   29.0110   31.4180 H   0  0  0  0  0  0  0  0  0  0  0  0
   35.9230   29.8080   30.8030 H   0  0  0  0  0  0  0  0  0  0  0  0
   34.8530   29.7810   33.9210 C   0  0  1  0  0  0  0  0  0  0  0  0
   35.8790   29.6170   32.9400 C   0  0  1  0  0  0  0  0  0  0  0  0
   35.9490   28.7220   34.1480 C   0  0  0  0  0  0  0  0  0  0  0  0
   33.8320   29.3810   33.7730 H   0  0  0  0  0  0  0  0  0  0  0  0
   36.7140   30.3740   32.9360 H   0  0  0  0  0  0  0  0  0  0  0  0
   36.6950   28.8940   34.9310 H   0  0  0  0  0  0  0  0  0  0  0  0
   35.6150   27.6970   33.9540 H   0  0  0  0  0  0  0  0  0  0  0  0
   34.9180   30.8790   34.9690 C   0  0  0  0  0  0  0  0  0  0  0  0
   33.8580   30.9320   35.8590 C   0  0  0  0  0  0  0  0  0  0  0  0
   33.9280   31.9730   36.8010 C   0  0  0  0  0  0  0  0  0  0  0  0
   34.9840   32.8380   36.7950 N   0  0  0  0  0  0  0  0  0  0  0  0
   35.9970   32.7390   35.8990 C   0  0  0  0  0  0  0  0  0  0  0  0
   35.9670   31.7370   34.9630 N   0  0  0  0  0  0  0  0  0  0  0  0
   33.0470   30.2210   35.8180 H   0  0  0  0  0  0  0  0  0  0  0  0
   33.1300   32.0660   37.5200 H   0  0  0  0  0  0  0  0  0  0  0  0
   36.8250   33.4280   35.9060 H   0  0  0  0  0  0  0  0  0  0  0  0
   36.2020   27.8000   31.2770 C   0  0  0  0  0  0  0  0  0  0  0  0
   37.4330   27.7160   30.6730 C   0  0  0  0  0  0  0  0  0  0  0  0
   37.8090   26.4380   30.5090 N   0  0  0  0  0  0  0  0  0  0  0  0
   36.7860   25.7030   31.0240 C   0  0  0  0  0  0  0  0  0  0  0  0
   35.8250   26.5290   31.4830 N   0  0  0  0  0  0  0  0  0  0  0  0
   38.0620   28.5420   30.3510 H   0  0  0  0  0  0  0  0  0  0  0  0
   38.6880   26.0560   30.0830 H   0  0  0  0  0  0  0  0  0  0  0  0
   36.7640   24.2410   31.0580 C   0  0  0  0  0  0  0  0  0  0  0  0
   35.6050   23.5990   31.4430 C   0  0  0  0  0  0  0  0  0  0  0  0
   34.6850   24.1100   31.7310 H   0  0  0  0  0  0  0  0  0  0  0  0
   35.5790   22.2130   31.4770 C   0  0  0  0  0  3  0  0  0  0  0  0
   36.7150   21.4960   31.1230 C   0  0  0  0  0  0  0  0  0  0  0  0
   36.7760   20.4040   31.1230 H   0  0  0  0  0  0  0  0  0  0  0  0
   37.8820   22.1620   30.7340 C   0  0  0  0  0  0  0  0  0  0  0  0
   38.7830   21.6500   30.4520 H   0  0  0  0  0  0  0  0  0  0  0  0
   37.9010   23.5410   30.7020 C   0  0  0  0  0  3  0  0  0  0  0  0
  1  5  1  0  0  0  0
  2  1  1  0  0  0  0
  3  1  1  0  0  0  0
  4  7  1  6  0  0  0
  4  6  1  0  0  0  0
  4 11  1  0  0  0  0
  5  8  1  6  0  0  0
  5  4  1  0  0  0  0
  5  6  1  0  0  0  0
  6  9  1  0  0  0  0
 10  6  1  0  0  0  0
 11 12  1  0  0  0  0
 12 13  2  0  0  0  0
 13 18  1  0  0  0  0
 14 13  1  0  0  0  0
 15 19  1  0  0  0  0
 15 14  2  0  0  0  0
 16 11  2  0  0  0  0
 16 15  1  0  0  0  0
 17 12  1  0  0  0  0
 20 24  1  0  0  0  0
 20  1  1  0  0  0  0
 21 20  2  0  0  0  0
 22 21  1  0  0  0  0
 22 23  1  0  0  0  0
 23 27  1  0  0  0  0
 23 24  2  0  0  0  0
 25 21  1  0  0  0  0
 26 22  1  0  0  0  0
 27 28  1  0  0  0  0
 28 30  2  0  0  0  0
 28 29  1  0  0  0  0
 31 30  1  0  0  0  0
 32 31  1  0  0  0  0
 33 31  2  0  0  0  0
 34 33  1  0  0  0  0
 35 33  1  0  0  0  0
 35 27  2  0  0  0  0
M  END
>  <minimizedAffinity>
-5.0998435

$$$$

 OpenBabel03272501173D

 35 38  0  0  1  0  0  0  0  0999 V2000
   36.3960   27.3660   32.6450 C   0  0  0  0  0  0  0  0  0  0  0  0
   35.4480   27.8870   32.8910 H   0  0  0  0  0  0  0  0  0  0  0  0
   36.1170   26.4240   32.1070 H   0  0  0  0  0  0  0  0  0  0  0  0
   37.2710   28.0120   30.3560 C   0  0  1  0  0  0  0  0  0  0  0  0
   37.2940   28.1870   31.7730 C   0  0  1  0  0  0  0  0  0  0  0  0
   36.7830   29.3440   30.9580 C   0  0  0  0  0  0  0  0  0  0  0  0
   36.4920   27.4070   29.8540 H   0  0  0  0  0  0  0  0  0  0  0  0
   38.2900   28.4220   32.2470 H   0  0  0  0  0  0  0  0  0  0  0  0
   37.3930   30.2420   30.8150 H   0  0  0  0  0  0  0  0  0  0  0  0
   35.6920   29.4440   30.9750 H   0  0  0  0  0  0  0  0  0  0  0  0
   38.5140   28.2110   29.5050 C   0  0  0  0  0  0  0  0  0  0  0  0
   39.7240   27.9940   30.1410 C   0  0  0  0  0  0  0  0  0  0  0  0
   40.8600   28.2110   29.3400 C   0  0  0  0  0  0  0  0  0  0  0  0
   40.7220   28.6040   28.0410 N   0  0  0  0  0  0  0  0  0  0  0  0
   39.5090   28.8010   27.4680 C   0  0  0  0  0  0  0  0  0  0  0  0
   38.3750   28.6000   28.2150 N   0  0  0  0  0  0  0  0  0  0  0  0
   39.7770   27.6830   31.1730 H   0  0  0  0  0  0  0  0  0  0  0  0
   41.8330   28.0580   29.7810 H   0  0  0  0  0  0  0  0  0  0  0  0
   39.4130   29.1110   26.4410 H   0  0  0  0  0  0  0  0  0  0  0  0
   37.0680   26.9120   33.8930 C   0  0  0  0  0  0  0  0  0  0  0  0
   37.3800   27.7650   34.9240 C   0  0  0  0  0  0  0  0  0  0  0  0
   37.9840   27.1140   35.9300 N   0  0  0  0  0  0  0  0  0  0  0  0
   38.0510   25.8180   35.5190 C   0  0  0  0  0  0  0  0  0  0  0  0
   37.4980   25.7070   34.2940 N   0  0  0  0  0  0  0  0  0  0  0  0
   37.1870   28.8340   34.9690 H   0  0  0  0  0  0  0  0  0  0  0  0
   38.3370   27.4890   36.8430 H   0  0  0  0  0  0  0  0  0  0  0  0
   38.6390   24.7370   36.3090 C   0  0  0  0  0  0  0  0  0  0  0  0
   39.7260   24.0550   35.8020 C   0  0  0  0  0  0  0  0  0  0  0  0
   40.1890   24.2650   34.8380 H   0  0  0  0  0  0  0  0  0  0  0  0
   40.2870   23.0300   36.5480 C   0  0  0  0  0  3  0  0  0  0  0  0
   39.7490   22.7070   37.7870 C   0  0  0  0  0  0  0  0  0  0  0  0
   40.1330   21.9140   38.4350 H   0  0  0  0  0  0  0  0  0  0  0  0
   38.6470   23.4090   38.2870 C   0  0  0  0  0  0  0  0  0  0  0  0
   38.1980   23.1950   39.2380 H   0  0  0  0  0  0  0  0  0  0  0  0
   38.0930   24.4290   37.5400 C   0  0  0  0  0  3  0  0  0  0  0  0
  1  2  1  0  0  0  0
  1 20  1  0  0  0  0
  3  1  1  0  0  0  0
  4  7  1  6  0  0  0
  4  6  1  0  0  0  0
  4  5  1  0  0  0  0
  5  8  1  1  0  0  0
  5  1  1  0  0  0  0
  6 10  1  0  0  0  0
  6  5  1  0  0  0  0
  9  6  1  0  0  0  0
 11 12  1  0  0  0  0
 11  4  1  0  0  0  0
 12 17  1  0  0  0  0
 13 18  1  0  0  0  0
 13 12  2  0  0  0  0
 14 13  1  0  0  0  0
 15 14  2  0  0  0  0
 15 16  1  0  0  0  0
 16 11  2  0  0  0  0
 19 15  1  0  0  0  0
 20 24  1  0  0  0  0
 20 21  2  0  0  0  0
 21 25  1  0  0  0  0
 21 22  1  0  0  0  0
 22 26  1  0  0  0  0
 23 22  1  0  0  0  0
 23 27  1  0  0  0  0
 24 23  2  0  0  0  0
 27 35  1  0  0  0  0
 28 27  2  0  0  0  0
 28 30  1  0  0  0  0
 29 28  1  0  0  0  0
 30 31  2  0  0  0  0
 31 33  1  0  0  0  0
 31 32  1  0  0  0  0
 33 34  1  0  0  0  0
 35 33  2  0  0  0  0
M  END
>  <minimizedAffinity>
-5.06378174

$$$$
