
     RDKit          3D

 43 45  0  0  0  0  0  0  0  0999 V2000
   35.5548   30.2409   47.6724 C   0  0  0  0  0  0  0  0  0  0  0  0
   32.7868   28.0298   48.8475 C   0  0  0  0  0  0  0  0  0  0  0  0
   33.9658   28.7628   48.8521 C   0  0  0  0  0  0  0  0  0  0  0  0
   34.3249   29.4832   47.7512 C   0  0  0  0  0  0  0  0  0  0  0  0
   33.4650   29.4332   46.6795 N   0  0  0  0  0  0  0  0  0  0  0  0
   32.3419   28.7230   46.7035 C   0  0  0  0  0  0  0  0  0  0  0  0
   31.9793   28.0130   47.7726 N   0  0  0  0  0  0  0  0  0  0  0  0
   36.5719   29.8369   48.6805 C   0  0  0  0  0  0  0  0  0  0  0  0
   37.1688   31.2748   49.5941 S   0  0  0  0  0  0  0  0  0  0  0  0
   38.6411   32.0239   48.8352 C   0  0  2  0  0  0  0  0  0  0  0  0
   38.8251   33.3634   49.5310 C   0  0  0  0  0  0  0  0  0  0  0  0
   39.3489   34.3911   48.5824 C   0  0  0  0  0  0  0  0  0  0  0  0
   40.2607   33.7284   47.5612 C   0  0  0  0  0  0  0  0  0  0  0  0
   39.2729   33.1100   46.6138 C   0  0  0  0  0  0  0  0  0  0  0  0
   38.4780   32.0916   47.3959 C   0  0  1  0  0  0  0  0  0  0  0  0
   35.9272   29.9634   46.6565 H   0  0  0  0  0  0  0  0  0  0  0  0
   35.2806   31.3176   47.7246 H   0  0  0  0  0  0  0  0  0  0  0  0
   32.4477   27.4402   49.6830 H   0  0  0  0  0  0  0  0  0  0  0  0
   34.4829   28.6720   49.7916 H   0  0  0  0  0  0  0  0  0  0  0  0
   31.6999   28.7211   45.8253 H   0  0  0  0  0  0  0  0  0  0  0  0
   37.4984   29.4157   48.1726 H   0  0  0  0  0  0  0  0  0  0  0  0
   36.3242   29.0520   49.3903 H   0  0  0  0  0  0  0  0  0  0  0  0
   39.4941   31.4083   49.2344 H   0  0  0  0  0  0  0  0  0  0  0  0
   39.4361   33.3140   50.4344 H   0  0  0  0  0  0  0  0  0  0  0  0
   37.8202   33.7483   49.8745 H   0  0  0  0  0  0  0  0  0  0  0  0
   39.9363   35.1586   49.0993 H   0  0  0  0  0  0  0  0  0  0  0  0
   38.5339   34.9073   48.0325 H   0  0  0  0  0  0  0  0  0  0  0  0
   40.7670   34.5524   47.0241 H   0  0  0  0  0  0  0  0  0  0  0  0
   40.9424   33.0086   48.0242 H   0  0  0  0  0  0  0  0  0  0  0  0
   38.6156   33.9725   46.2923 H   0  0  0  0  0  0  0  0  0  0  0  0
   39.7877   32.7914   45.7272 H   0  0  0  0  0  0  0  0  0  0  0  0
   37.4421   32.2290   47.0876 H   0  0  0  0  0  0  0  0  0  0  0  0
   39.0639   30.8387   46.7378 C   0  0  0  0  0  0  0  0  0  0  0  0
   40.3544   30.8050   46.2401 C   0  0  0  0  0  0  0  0  0  0  0  0
   40.9584   31.7017   46.3273 H   0  0  0  0  0  0  0  0  0  0  0  0
   40.9663   29.7298   45.6417 C   0  0  0  0  0  0  0  0  0  0  0  0
   40.2171   28.5806   45.5309 C   0  0  0  0  0  0  0  0  0  0  0  0
   40.6640   27.7255   45.0697 H   0  0  0  0  0  0  0  0  0  0  0  0
   38.9281   28.5415   46.0037 C   0  0  0  0  0  0  0  0  0  0  0  0
   38.3904   27.6252   45.8930 H   0  0  0  0  0  0  0  0  0  0  0  0
   38.3755   29.6565   46.5934 C   0  0  0  0  0  0  0  0  0  0  0  0
   41.9882   29.8004   45.2807 H   0  0  0  0  0  0  0  0  0  0  0  0
   37.3845   29.5277   46.9337 H   0  0  0  0  0  0  0  0  0  0  0  0
  1  4  1  0
  1  8  1  0
  2  3  2  0
  4  3  1  0
  5  6  1  0
  5  4  2  0
  6  7  2  0
  7  2  1  0
  8  9  1  0
 10 11  1  0
 10  9  1  0
 12 11  1  0
 13 12  1  0
 14 15  1  0
 14 13  1  0
 15 10  1  0
  1 16  1  0
  1 17  1  0
  2 18  1  0
  3 19  1  0
  6 20  1  0
  8 21  1  0
  8 22  1  0
 10 23  1  6
 11 24  1  0
 11 25  1  0
 12 26  1  0
 12 27  1  0
 13 28  1  0
 13 29  1  0
 14 30  1  0
 14 31  1  0
 15 32  1  1
 33 34  2  0
 34 35  1  0
 34 36  1  0
 36 37  2  0
 37 38  1  0
 37 39  1  0
 39 40  1  0
 39 41  2  0
 41 33  1  0
 36 42  1  0
 41 43  1  0
 15 33  1  0
M  ISO  8  16   8  17   8  18  14  19  14  20  14  21   8  22   8  23  13
M  ISO  8  24  13  25  13  26  13  27  13  28  13  29  13  30  13  31  13
M  ISO  4  32  13  35  16  38  16  40  16
M  END
>  <DihAtoms>  (1) 
13,14,32,33

>  <DihDeg>  (1) 
-90.13528352720303

$$$$
