
 OpenBabel03262520183D

 18 19  0  0  0  0  0  0  0  0999 V2000
   37.0250   27.4110   34.1520 C   0  0  0  0  0  0  0  0  0  0  0  0
   37.5450   26.6850   35.2590 C   0  0  0  0  0  0  0  0  0  0  0  0
   37.9550   25.3730   35.0360 C   0  0  0  0  0  0  0  0  0  0  0  0
   37.8450   24.8460   33.7920 N   0  0  0  0  0  0  0  0  0  0  0  0
   37.3400   25.5770   32.7570 C   0  0  0  0  0  0  0  0  0  0  0  0
   36.9370   26.8440   32.9430 N   0  0  0  0  0  0  0  0  0  0  0  0
   36.7340   28.4090   34.4180 H   0  0  0  0  0  0  0  0  0  0  0  0
   37.6250   27.1130   36.2340 H   0  0  0  0  0  0  0  0  0  0  0  0
   37.3020   25.0590   31.8270 H   0  0  0  0  0  0  0  0  0  0  0  0
   38.5040   24.5310   36.0910 C   0  0  0  0  0  0  0  0  0  0  0  0
   37.8860   24.5850   37.3230 C   0  0  0  0  0  0  0  0  0  0  0  0
   37.0360   25.2070   37.5330 H   0  0  0  0  0  0  0  0  0  0  0  0
   38.3350   23.8170   38.4000 C   0  0  0  0  0  3  0  0  0  0  0  0
   39.4250   23.0000   38.1850 C   0  0  0  0  0  0  0  0  0  0  0  0
   39.8190   22.3790   38.9860 H   0  0  0  0  0  0  0  0  0  0  0  0
   40.0780   22.9120   36.9670 C   0  0  0  0  0  0  0  0  0  0  0  0
   40.9320   22.2770   36.7820 H   0  0  0  0  0  0  0  0  0  0  0  0
   39.5740   23.7050   35.9410 C   0  0  0  0  0  3  0  0  0  0  0  0
  1  7  1  0  0  0  0
  1  2  1  0  0  0  0
  2  8  1  0  0  0  0
  3  2  2  0  0  0  0
  3 10  1  0  0  0  0
  4  3  1  0  0  0  0
  5  6  1  0  0  0  0
  5  4  2  0  0  0  0
  6  1  2  0  0  0  0
  9  5  1  0  0  0  0
 10 11  1  0  0  0  0
 11 12  1  0  0  0  0
 11 13  2  0  0  0  0
 14 13  1  0  0  0  0
 14 15  1  0  0  0  0
 16 14  2  0  0  0  0
 17 16  1  0  0  0  0
 18 10  2  0  0  0  0
 18 16  1  0  0  0  0
M  END
>  <minimizedAffinity>
-4.08396244

$$$$

 OpenBabel03262520183D

 18 19  0  0  0  0  0  0  0  0999 V2000
   38.7270   23.3920   38.3130 C   0  0  0  0  0  0  0  0  0  0  0  0
   38.0850   24.3700   37.5040 C   0  0  0  0  0  0  0  0  0  0  0  0
   38.6190   24.6160   36.2420 C   0  0  0  0  0  0  0  0  0  0  0  0
   39.7130   23.9250   35.8380 N   0  0  0  0  0  0  0  0  0  0  0  0
   40.2990   22.9950   36.6460 C   0  0  0  0  0  0  0  0  0  0  0  0
   39.8050   22.7370   37.8670 N   0  0  0  0  0  0  0  0  0  0  0  0
   38.2480   23.2700   39.2650 H   0  0  0  0  0  0  0  0  0  0  0  0
   37.2230   24.9070   37.8360 H   0  0  0  0  0  0  0  0  0  0  0  0
   41.1510   22.5150   36.2230 H   0  0  0  0  0  0  0  0  0  0  0  0
   38.0490   25.5940   35.3240 C   0  0  0  0  0  0  0  0  0  0  0  0
   37.7860   25.1700   34.0390 C   0  0  0  0  0  0  0  0  0  0  0  0
   37.9790   24.1710   33.6930 H   0  0  0  0  0  0  0  0  0  0  0  0
   37.2400   26.0290   33.0830 C   0  0  0  0  0  3  0  0  0  0  0  0
   36.9730   27.3240   33.4740 C   0  0  0  0  0  0  0  0  0  0  0  0
   36.5470   28.0400   32.7740 H   0  0  0  0  0  0  0  0  0  0  0  0
   37.2200   27.7970   34.7520 C   0  0  0  0  0  0  0  0  0  0  0  0
   37.0170   28.8080   35.0750 H   0  0  0  0  0  0  0  0  0  0  0  0
   37.7640   26.8830   35.6500 C   0  0  0  0  0  3  0  0  0  0  0  0
  1  7  1  0  0  0  0
  2  8  1  0  0  0  0
  2  1  2  0  0  0  0
  3  2  1  0  0  0  0
  4  3  2  0  0  0  0
  4  5  1  0  0  0  0
  5  6  2  0  0  0  0
  6  1  1  0  0  0  0
  9  5  1  0  0  0  0
 10 18  1  0  0  0  0
 10  3  1  0  0  0  0
 11 10  2  0  0  0  0
 12 11  1  0  0  0  0
 13 14  2  0  0  0  0
 13 11  1  0  0  0  0
 14 16  1  0  0  0  0
 15 14  1  0  0  0  0
 16 17  1  0  0  0  0
 16 18  2  0  0  0  0
M  END
>  <minimizedAffinity>
-4.01713896

$$$$

 OpenBabel03262520183D

 18 19  0  0  0  0  0  0  0  0999 V2000
   35.5320   25.8330   31.2280 C   0  0  0  0  0  0  0  0  0  0  0  0
   35.2900   24.4420   31.0550 C   0  0  0  0  0  0  0  0  0  0  0  0
   36.1140   23.5530   31.7400 C   0  0  0  0  0  0  0  0  0  0  0  0
   37.1000   24.0390   32.5330 N   0  0  0  0  0  0  0  0  0  0  0  0
   37.2980   25.3810   32.6720 C   0  0  0  0  0  0  0  0  0  0  0  0
   36.5190   26.2610   32.0230 N   0  0  0  0  0  0  0  0  0  0  0  0
   34.8510   26.4400   30.6630 H   0  0  0  0  0  0  0  0  0  0  0  0
   34.5090   24.0740   30.4270 H   0  0  0  0  0  0  0  0  0  0  0  0
   38.1010   25.6450   33.3200 H   0  0  0  0  0  0  0  0  0  0  0  0
   35.9630   22.1070   31.6420 C   0  0  0  0  0  0  0  0  0  0  0  0
   36.8880   21.4290   30.8760 C   0  0  0  0  0  0  0  0  0  0  0  0
   37.6970   21.9120   30.3590 H   0  0  0  0  0  0  0  0  0  0  0  0
   36.8310   20.0430   30.7180 C   0  0  0  0  0  3  0  0  0  0  0  0
   35.8110   19.3740   31.3600 C   0  0  0  0  0  0  0  0  0  0  0  0
   35.7150   18.2930   31.2740 H   0  0  0  0  0  0  0  0  0  0  0  0
   34.8590   20.0090   32.1390 C   0  0  0  0  0  0  0  0  0  0  0  0
   34.0540   19.5000   32.6490 H   0  0  0  0  0  0  0  0  0  0  0  0
   34.9800   21.3910   32.2510 C   0  0  0  0  0  3  0  0  0  0  0  0
  1  6  1  0  0  0  0
  2  1  2  0  0  0  0
  2  3  1  0  0  0  0
  3  4  2  0  0  0  0
  4  5  1  0  0  0  0
  5  9  1  0  0  0  0
  6  5  2  0  0  0  0
  7  1  1  0  0  0  0
  8  2  1  0  0  0  0
 10  3  1  0  0  0  0
 10 18  1  0  0  0  0
 11 10  2  0  0  0  0
 12 11  1  0  0  0  0
 13 11  1  0  0  0  0
 13 14  2  0  0  0  0
 14 16  1  0  0  0  0
 15 14  1  0  0  0  0
 16 18  2  0  0  0  0
 16 17  1  0  0  0  0
M  END
>  <minimizedAffinity>
-3.97374344

$$$$

 OpenBabel03262520183D

 18 19  0  0  0  0  0  0  0  0999 V2000
   37.5730   25.9930   32.6960 C   0  0  0  0  0  0  0  0  0  0  0  0
   38.1040   25.0760   33.6450 C   0  0  0  0  0  0  0  0  0  0  0  0
   38.0110   25.4160   34.9920 C   0  0  0  0  0  0  0  0  0  0  0  0
   37.4270   26.5880   35.3420 N   0  0  0  0  0  0  0  0  0  0  0  0
   36.9310   27.4390   34.3990 C   0  0  0  0  0  0  0  0  0  0  0  0
   37.0070   27.1380   33.0940 N   0  0  0  0  0  0  0  0  0  0  0  0
   37.6900   25.6490   31.6860 H   0  0  0  0  0  0  0  0  0  0  0  0
   38.5610   24.1560   33.3540 H   0  0  0  0  0  0  0  0  0  0  0  0
   36.4960   28.3290   34.7920 H   0  0  0  0  0  0  0  0  0  0  0  0
   38.5180   24.5580   36.0560 C   0  0  0  0  0  0  0  0  0  0  0  0
   39.6200   23.7810   35.7650 C   0  0  0  0  0  0  0  0  0  0  0  0
   40.1090   23.7820   34.8080 H   0  0  0  0  0  0  0  0  0  0  0  0
   40.1820   22.9260   36.7140 C   0  0  0  0  0  3  0  0  0  0  0  0
   39.5910   22.8860   37.9600 C   0  0  0  0  0  0  0  0  0  0  0  0
   39.9850   22.2380   38.7400 H   0  0  0  0  0  0  0  0  0  0  0  0
   38.4850   23.6460   38.2990 C   0  0  0  0  0  0  0  0  0  0  0  0
   38.0110   23.6260   39.2700 H   0  0  0  0  0  0  0  0  0  0  0  0
   37.9800   24.4750   37.3020 C   0  0  0  0  0  3  0  0  0  0  0  0
  1  6  2  0  0  0  0
  1  2  1  0  0  0  0
  2  3  2  0  0  0  0
  3  4  1  0  0  0  0
  3 10  1  0  0  0  0
  5  9  1  0  0  0  0
  5  4  2  0  0  0  0
  6  5  1  0  0  0  0
  7  1  1  0  0  0  0
  8  2  1  0  0  0  0
 10 18  1  0  0  0  0
 11 10  2  0  0  0  0
 11 13  1  0  0  0  0
 12 11  1  0  0  0  0
 13 14  2  0  0  0  0
 14 16  1  0  0  0  0
 14 15  1  0  0  0  0
 16 17  1  0  0  0  0
 18 16  2  0  0  0  0
M  END
>  <minimizedAffinity>
-3.94377351

$$$$

 OpenBabel03262520183D

 18 19  0  0  0  0  0  0  0  0999 V2000
   35.6780   25.3000   31.2480 C   0  0  0  0  0  0  0  0  0  0  0  0
   35.4080   23.9050   31.1780 C   0  0  0  0  0  0  0  0  0  0  0  0
   36.2170   23.0530   31.9250 C   0  0  0  0  0  0  0  0  0  0  0  0
   37.2160   23.5760   32.6770 N   0  0  0  0  0  0  0  0  0  0  0  0
   37.4420   24.9210   32.7150 C   0  0  0  0  0  0  0  0  0  0  0  0
   36.6770   25.7660   32.0060 N   0  0  0  0  0  0  0  0  0  0  0  0
   35.0070   25.8770   30.6420 H   0  0  0  0  0  0  0  0  0  0  0  0
   34.6180   23.5080   30.5810 H   0  0  0  0  0  0  0  0  0  0  0  0
   38.2530   25.2160   33.3400 H   0  0  0  0  0  0  0  0  0  0  0  0
   36.0380   21.6060   31.9340 C   0  0  0  0  0  0  0  0  0  0  0  0
   35.6350   21.0320   33.1220 C   0  0  0  0  0  0  0  0  0  0  0  0
   35.4520   21.5930   34.0200 H   0  0  0  0  0  0  0  0  0  0  0  0
   35.4340   19.6550   33.2360 C   0  0  0  0  0  3  0  0  0  0  0  0
   35.6560   18.8870   32.1120 C   0  0  0  0  0  0  0  0  0  0  0  0
   35.5160   17.8090   32.1400 H   0  0  0  0  0  0  0  0  0  0  0  0
   36.0600   19.4170   30.8990 C   0  0  0  0  0  0  0  0  0  0  0  0
   36.2380   18.8300   30.0100 H   0  0  0  0  0  0  0  0  0  0  0  0
   36.2390   20.7970   30.8610 C   0  0  0  0  0  3  0  0  0  0  0  0
  1  6  1  0  0  0  0
  2  1  2  0  0  0  0
  2  3  1  0  0  0  0
  3 10  1  0  0  0  0
  3  4  2  0  0  0  0
  4  5  1  0  0  0  0
  5  9  1  0  0  0  0
  6  5  2  0  0  0  0
  7  1  1  0  0  0  0
  8  2  1  0  0  0  0
 10 11  1  0  0  0  0
 11 13  2  0  0  0  0
 11 12  1  0  0  0  0
 14 15  1  0  0  0  0
 14 13  1  0  0  0  0
 16 14  2  0  0  0  0
 17 16  1  0  0  0  0
 18 16  1  0  0  0  0
 18 10  2  0  0  0  0
M  END
>  <minimizedAffinity>
-3.90258908

$$$$

 OpenBabel03262520183D

 18 19  0  0  0  0  0  0  0  0999 V2000
   37.0070   27.1520   33.5390 C   0  0  0  0  0  0  0  0  0  0  0  0
   36.5890   28.1440   34.4680 C   0  0  0  0  0  0  0  0  0  0  0  0
   35.6610   29.0870   34.0330 C   0  0  0  0  0  0  0  0  0  0  0  0
   35.1980   29.0250   32.7610 N   0  0  0  0  0  0  0  0  0  0  0  0
   35.6260   28.0560   31.9010 C   0  0  0  0  0  0  0  0  0  0  0  0
   36.5190   27.1350   32.2930 N   0  0  0  0  0  0  0  0  0  0  0  0
   37.7210   26.4720   33.9600 H   0  0  0  0  0  0  0  0  0  0  0  0
   36.9620   28.1810   35.4680 H   0  0  0  0  0  0  0  0  0  0  0  0
   35.1930   28.1060   30.9280 H   0  0  0  0  0  0  0  0  0  0  0  0
   35.1580   30.1510   34.8940 C   0  0  0  0  0  0  0  0  0  0  0  0
   33.7900   30.2510   35.0330 C   0  0  0  0  0  0  0  0  0  0  0  0
   33.0950   29.5940   34.5450 H   0  0  0  0  0  0  0  0  0  0  0  0
   33.2080   31.2360   35.8350 C   0  0  0  0  0  3  0  0  0  0  0  0
   34.0560   32.1080   36.4840 C   0  0  0  0  0  0  0  0  0  0  0  0
   33.6610   32.8950   37.1220 H   0  0  0  0  0  0  0  0  0  0  0  0
   35.4350   32.0460   36.3750 C   0  0  0  0  0  0  0  0  0  0  0  0
   36.1130   32.7220   36.8770 H   0  0  0  0  0  0  0  0  0  0  0  0
   35.9430   31.0390   35.5600 C   0  0  0  0  0  3  0  0  0  0  0  0
  1  7  1  0  0  0  0
  1  2  1  0  0  0  0
  2  8  1  0  0  0  0
  3  2  2  0  0  0  0
  3 10  1  0  0  0  0
  4  3  1  0  0  0  0
  5  6  1  0  0  0  0
  5  4  2  0  0  0  0
  6  1  2  0  0  0  0
  9  5  1  0  0  0  0
 10 11  2  0  0  0  0
 10 18  1  0  0  0  0
 11 13  1  0  0  0  0
 12 11  1  0  0  0  0
 13 14  2  0  0  0  0
 14 15  1  0  0  0  0
 16 14  1  0  0  0  0
 16 17  1  0  0  0  0
 18 16  2  0  0  0  0
M  END
>  <minimizedAffinity>
-3.84852529

$$$$

 OpenBabel03262520183D

 18 19  0  0  0  0  0  0  0  0999 V2000
   37.8010   24.0230   32.4140 C   0  0  0  0  0  0  0  0  0  0  0  0
   38.2200   24.2220   33.7580 C   0  0  0  0  0  0  0  0  0  0  0  0
   38.0600   23.1620   34.6470 C   0  0  0  0  0  0  0  0  0  0  0  0
   37.5200   22.0010   34.2050 N   0  0  0  0  0  0  0  0  0  0  0  0
   37.1310   21.8520   32.9060 C   0  0  0  0  0  0  0  0  0  0  0  0
   37.2730   22.8560   32.0280 N   0  0  0  0  0  0  0  0  0  0  0  0
   37.9620   24.8910   31.8030 H   0  0  0  0  0  0  0  0  0  0  0  0
   38.6450   25.1430   34.0920 H   0  0  0  0  0  0  0  0  0  0  0  0
   36.7200   20.8960   32.6740 H   0  0  0  0  0  0  0  0  0  0  0  0
   38.4520   23.2460   36.0490 C   0  0  0  0  0  0  0  0  0  0  0  0
   37.6240   23.9590   36.8910 C   0  0  0  0  0  0  0  0  0  0  0  0
   36.7220   24.4430   36.5640 H   0  0  0  0  0  0  0  0  0  0  0  0
   37.9100   24.0990   38.2500 C   0  0  0  0  0  3  0  0  0  0  0  0
   39.0570   23.4960   38.7220 C   0  0  0  0  0  0  0  0  0  0  0  0
   39.3320   23.5710   39.7720 H   0  0  0  0  0  0  0  0  0  0  0  0
   39.9190   22.7710   37.9160 C   0  0  0  0  0  0  0  0  0  0  0  0
   40.8220   22.2940   38.2700 H   0  0  0  0  0  0  0  0  0  0  0  0
   39.5690   22.6740   36.5730 C   0  0  0  0  0  3  0  0  0  0  0  0
  1  2  1  0  0  0  0
  2  8  1  0  0  0  0
  2  3  2  0  0  0  0
  3 10  1  0  0  0  0
  4  3  1  0  0  0  0
  5  4  2  0  0  0  0
  6  1  2  0  0  0  0
  6  5  1  0  0  0  0
  7  1  1  0  0  0  0
  9  5  1  0  0  0  0
 10 18  2  0  0  0  0
 10 11  1  0  0  0  0
 11 13  2  0  0  0  0
 12 11  1  0  0  0  0
 13 14  1  0  0  0  0
 14 15  1  0  0  0  0
 16 17  1  0  0  0  0
 16 14  2  0  0  0  0
 18 16  1  0  0  0  0
M  END
>  <minimizedAffinity>
-3.82800722

$$$$

 OpenBabel03262520183D

 18 19  0  0  0  0  0  0  0  0999 V2000
   36.3840   30.1410   31.6560 C   0  0  0  0  0  0  0  0  0  0  0  0
   35.6950   30.8140   32.7020 C   0  0  0  0  0  0  0  0  0  0  0  0
   35.4580   30.1080   33.8780 C   0  0  0  0  0  0  0  0  0  0  0  0
   35.8860   28.8250   33.9800 N   0  0  0  0  0  0  0  0  0  0  0  0
   36.5440   28.2170   32.9520 C   0  0  0  0  0  0  0  0  0  0  0  0
   36.7860   28.8740   31.8070 N   0  0  0  0  0  0  0  0  0  0  0  0
   36.5210   30.7610   30.7910 H   0  0  0  0  0  0  0  0  0  0  0  0
   35.3640   31.8250   32.6080 H   0  0  0  0  0  0  0  0  0  0  0  0
   36.8320   27.2090   33.1460 H   0  0  0  0  0  0  0  0  0  0  0  0
   34.7620   30.6910   35.0190 C   0  0  0  0  0  0  0  0  0  0  0  0
   35.4820   31.5550   35.8180 C   0  0  0  0  0  0  0  0  0  0  0  0
   36.5100   31.8100   35.6390 H   0  0  0  0  0  0  0  0  0  0  0  0
   34.9070   32.1660   36.9350 C   0  0  0  0  0  3  0  0  0  0  0  0
   33.5890   31.8710   37.2100 C   0  0  0  0  0  0  0  0  0  0  0  0
   33.0880   32.3170   38.0670 H   0  0  0  0  0  0  0  0  0  0  0  0
   32.8270   31.0110   36.4380 C   0  0  0  0  0  0  0  0  0  0  0  0
   31.7930   30.7700   36.6410 H   0  0  0  0  0  0  0  0  0  0  0  0
   33.4660   30.4400   35.3420 C   0  0  0  0  0  3  0  0  0  0  0  0
  1  6  2  0  0  0  0
  1  2  1  0  0  0  0
  2  3  2  0  0  0  0
  3  4  1  0  0  0  0
  3 10  1  0  0  0  0
  5  9  1  0  0  0  0
  5  4  2  0  0  0  0
  6  5  1  0  0  0  0
  7  1  1  0  0  0  0
  8  2  1  0  0  0  0
 10 18  2  0  0  0  0
 10 11  1  0  0  0  0
 11 13  2  0  0  0  0
 12 11  1  0  0  0  0
 13 14  1  0  0  0  0
 14 15  1  0  0  0  0
 16 17  1  0  0  0  0
 16 14  2  0  0  0  0
 18 16  1  0  0  0  0
M  END
>  <minimizedAffinity>
-3.82078218

$$$$

 OpenBabel03262520183D

 18 19  0  0  0  0  0  0  0  0999 V2000
   31.1920   28.4450   33.6550 C   0  0  0  0  0  0  0  0  0  0  0  0
   32.1930   29.4190   33.9240 C   0  0  0  0  0  0  0  0  0  0  0  0
   32.5780   29.6000   35.2500 C   0  0  0  0  0  0  0  0  0  0  0  0
   31.9930   28.8540   36.2180 N   0  0  0  0  0  0  0  0  0  0  0  0
   31.0350   27.9300   35.9170 C   0  0  0  0  0  0  0  0  0  0  0  0
   30.6450   27.7340   34.6480 N   0  0  0  0  0  0  0  0  0  0  0  0
   30.9600   28.3760   32.6100 H   0  0  0  0  0  0  0  0  0  0  0  0
   32.6450   29.9990   33.1500 H   0  0  0  0  0  0  0  0  0  0  0  0
   30.6480   27.4030   36.7580 H   0  0  0  0  0  0  0  0  0  0  0  0
   33.5930   30.5670   35.6490 C   0  0  0  0  0  0  0  0  0  0  0  0
   34.7560   30.5980   34.9080 C   0  0  0  0  0  0  0  0  0  0  0  0
   34.9410   29.9530   34.0690 H   0  0  0  0  0  0  0  0  0  0  0  0
   35.7890   31.4870   35.2090 C   0  0  0  0  0  3  0  0  0  0  0  0
   35.6030   32.3370   36.2780 C   0  0  0  0  0  0  0  0  0  0  0  0
   36.3740   33.0520   36.5600 H   0  0  0  0  0  0  0  0  0  0  0  0
   34.4550   32.3440   37.0510 C   0  0  0  0  0  0  0  0  0  0  0  0
   34.2930   33.0020   37.8920 H   0  0  0  0  0  0  0  0  0  0  0  0
   33.4680   31.4300   36.6920 C   0  0  0  0  0  3  0  0  0  0  0  0
  1  2  2  0  0  0  0
  1  6  1  0  0  0  0
  2  3  1  0  0  0  0
  3 10  1  0  0  0  0
  3  4  2  0  0  0  0
  5  4  1  0  0  0  0
  5  9  1  0  0  0  0
  6  5  2  0  0  0  0
  7  1  1  0  0  0  0
  8  2  1  0  0  0  0
 10 18  1  0  0  0  0
 11 13  1  0  0  0  0
 11 10  2  0  0  0  0
 12 11  1  0  0  0  0
 13 14  2  0  0  0  0
 14 15  1  0  0  0  0
 14 16  1  0  0  0  0
 16 17  1  0  0  0  0
 18 16  2  0  0  0  0
M  END
>  <minimizedAffinity>
-3.72126102

$$$$
