
 OpenBabel03272506193D

 34 36  0  0  0  0  0  0  0  0999 V2000
   34.7700   29.4390   48.8420 C   0  0  0  0  0  0  0  0  0  0  0  0
   34.2070   30.0950   47.7330 C   0  0  0  0  0  0  0  0  0  0  0  0
   33.4750   29.3240   46.8400 C   0  0  0  0  0  0  0  0  0  0  0  0
   33.3320   27.9890   47.0650 N   0  0  0  0  0  0  0  0  0  0  0  0
   33.8900   27.3780   48.1530 C   0  0  0  0  0  0  0  0  0  0  0  0
   34.5990   28.1090   49.0220 N   0  0  0  0  0  0  0  0  0  0  0  0
   34.2970   31.1490   47.5240 H   0  0  0  0  0  0  0  0  0  0  0  0
   33.7380   26.3280   48.2660 H   0  0  0  0  0  0  0  0  0  0  0  0
   35.5450   30.2760   49.8010 C   0  0  0  0  0  0  0  0  0  0  0  0
   36.4560   31.2140   49.0360 C   0  0  0  0  0  0  0  0  0  0  0  0
   37.9050   30.8660   49.2010 C   0  0  0  0  0  0  0  0  0  0  0  0
   38.3380   30.7650   50.6360 C   0  0  0  0  0  0  0  0  0  0  0  0
   37.3210   30.1120   51.5230 C   0  0  0  0  0  0  0  0  0  0  0  0
   36.2690   29.3630   50.7280 C   0  0  0  0  0  0  0  0  0  0  0  0
   34.7780   30.8440   50.3700 H   0  0  0  0  0  0  0  0  0  0  0  0
   36.2440   31.2710   47.9570 H   0  0  0  0  0  0  0  0  0  0  0  0
   36.3210   32.2220   49.4790 H   0  0  0  0  0  0  0  0  0  0  0  0
   38.4960   31.6630   48.7050 H   0  0  0  0  0  0  0  0  0  0  0  0
   38.1300   29.9290   48.6260 H   0  0  0  0  0  0  0  0  0  0  0  0
   38.7410   31.7180   51.0090 H   0  0  0  0  0  0  0  0  0  0  0  0
   39.2260   30.0650   50.6330 H   0  0  0  0  0  0  0  0  0  0  0  0
   37.7460   29.4670   52.3060 H   0  0  0  0  0  0  0  0  0  0  0  0
   36.7870   30.9390   52.0600 H   0  0  0  0  0  0  0  0  0  0  0  0
   35.5490   28.9560   51.4670 H   0  0  0  0  0  0  0  0  0  0  0  0
   36.7130   28.4680   50.2350 H   0  0  0  0  0  0  0  0  0  0  0  0
   32.8300   29.8470   45.6460 C   0  0  0  0  0  0  0  0  0  0  0  0
   32.1980   31.0700   45.7130 C   0  0  0  0  0  0  0  0  0  0  0  0
   32.1550   31.6710   46.6170 H   0  0  0  0  0  0  0  0  0  0  0  0
   31.5630   31.6260   44.6080 C   0  0  0  0  0  3  0  0  0  0  0  0
   31.5380   30.9760   43.3910 C   0  0  0  0  0  0  0  0  0  0  0  0
   31.0690   31.3350   42.4870 H   0  0  0  0  0  0  0  0  0  0  0  0
   32.1720   29.7530   43.3360 C   0  0  0  0  0  0  0  0  0  0  0  0
   32.1810   29.2000   42.4020 H   0  0  0  0  0  0  0  0  0  0  0  0
   32.8030   29.2000   44.4300 C   0  0  0  0  0  3  0  0  0  0  0  0
  1  6  1  0  0  0  0
  1  9  1  0  0  0  0
  2  1  2  0  0  0  0
  3  4  2  0  0  0  0
  3  2  1  0  0  0  0
  4  5  1  0  0  0  0
  5  8  1  0  0  0  0
  5  6  2  0  0  0  0
  7  2  1  0  0  0  0
  9 15  1  0  0  0  0
  9 14  1  0  0  0  0
 10 11  1  0  0  0  0
 10 17  1  0  0  0  0
 10  9  1  0  0  0  0
 11 12  1  0  0  0  0
 12 20  1  0  0  0  0
 12 13  1  0  0  0  0
 13 23  1  0  0  0  0
 13 22  1  0  0  0  0
 14 24  1  0  0  0  0
 14 13  1  0  0  0  0
 16 10  1  0  0  0  0
 18 11  1  0  0  0  0
 19 11  1  0  0  0  0
 21 12  1  0  0  0  0
 25 14  1  0  0  0  0
 26 27  1  0  0  0  0
 26  3  1  0  0  0  0
 27 28  1  0  0  0  0
 29 27  2  0  0  0  0
 30 29  1  0  0  0  0
 31 30  1  0  0  0  0
 32 30  2  0  0  0  0
 32 34  1  0  0  0  0
 33 32  1  0  0  0  0
 34 26  2  0  0  0  0
M  END
>  <minimizedAffinity>
-5.29913521

>  <minimizedRMSD>
0.220142141

$$$$
