
 OpenBabel03272506183D

 34 36  0  0  0  0  0  0  0  0999 V2000
   34.7610   29.4840   48.8850 C   0  0  0  0  0  0  0  0  0  0  0  0
   34.1800   30.1690   47.8030 C   0  0  0  0  0  0  0  0  0  0  0  0
   33.4350   29.4210   46.9010 C   0  0  0  0  0  0  0  0  0  0  0  0
   33.2950   28.0790   47.0940 N   0  0  0  0  0  0  0  0  0  0  0  0
   33.8710   27.4410   48.1570 C   0  0  0  0  0  0  0  0  0  0  0  0
   34.5930   28.1500   49.0330 N   0  0  0  0  0  0  0  0  0  0  0  0
   34.2670   31.2270   47.6200 H   0  0  0  0  0  0  0  0  0  0  0  0
   33.7200   26.3880   48.2450 H   0  0  0  0  0  0  0  0  0  0  0  0
   35.5500   30.2970   49.8540 C   0  0  0  0  0  0  0  0  0  0  0  0
   36.4640   31.2400   49.0990 C   0  0  0  0  0  0  0  0  0  0  0  0
   37.9110   30.8770   49.2470 C   0  0  0  0  0  0  0  0  0  0  0  0
   38.3540   30.7450   50.6760 C   0  0  0  0  0  0  0  0  0  0  0  0
   37.3370   30.0850   51.5590 C   0  0  0  0  0  0  0  0  0  0  0  0
   36.2730   29.3600   50.7580 C   0  0  0  0  0  0  0  0  0  0  0  0
   34.7930   30.8610   50.4390 H   0  0  0  0  0  0  0  0  0  0  0  0
   36.2450   31.3190   48.0230 H   0  0  0  0  0  0  0  0  0  0  0  0
   36.3410   32.2410   49.5620 H   0  0  0  0  0  0  0  0  0  0  0  0
   38.5050   31.6770   48.7610 H   0  0  0  0  0  0  0  0  0  0  0  0
   38.1240   29.9480   48.6530 H   0  0  0  0  0  0  0  0  0  0  0  0
   38.7680   31.6880   51.0640 H   0  0  0  0  0  0  0  0  0  0  0  0
   39.2350   30.0380   50.6540 H   0  0  0  0  0  0  0  0  0  0  0  0
   37.7620   29.4220   52.3270 H   0  0  0  0  0  0  0  0  0  0  0  0
   36.8150   30.9070   52.1150 H   0  0  0  0  0  0  0  0  0  0  0  0
   35.5540   28.9460   51.4950 H   0  0  0  0  0  0  0  0  0  0  0  0
   36.7050   28.4700   50.2460 H   0  0  0  0  0  0  0  0  0  0  0  0
   32.7710   29.9740   45.7320 C   0  0  0  0  0  0  0  0  0  0  0  0
   31.4030   30.1340   45.7570 C   0  0  0  0  0  0  0  0  0  0  0  0
   30.7860   29.8660   46.6110 H   0  0  0  0  0  0  0  0  0  0  0  0
   30.7070   30.6560   44.6720 C   0  0  0  0  0  3  0  0  0  0  0  0
   31.3600   31.0400   43.5180 C   0  0  0  0  0  0  0  0  0  0  0  0
   30.8980   31.4530   42.6340 H   0  0  0  0  0  0  0  0  0  0  0  0
   32.7290   30.8750   43.5040 C   0  0  0  0  0  0  0  0  0  0  0  0
   33.2890   31.1610   42.6190 H   0  0  0  0  0  0  0  0  0  0  0  0
   33.4190   30.3570   44.5790 C   0  0  0  0  0  3  0  0  0  0  0  0
  1  6  1  0  0  0  0
  1  9  1  0  0  0  0
  2  1  2  0  0  0  0
  3  4  2  0  0  0  0
  3  2  1  0  0  0  0
  4  5  1  0  0  0  0
  5  8  1  0  0  0  0
  5  6  2  0  0  0  0
  7  2  1  0  0  0  0
  9 15  1  0  0  0  0
  9 14  1  0  0  0  0
 10 11  1  0  0  0  0
 10 17  1  0  0  0  0
 10  9  1  0  0  0  0
 11 12  1  0  0  0  0
 12 20  1  0  0  0  0
 12 13  1  0  0  0  0
 13 23  1  0  0  0  0
 13 22  1  0  0  0  0
 14 24  1  0  0  0  0
 14 13  1  0  0  0  0
 16 10  1  0  0  0  0
 18 11  1  0  0  0  0
 19 11  1  0  0  0  0
 21 12  1  0  0  0  0
 25 14  1  0  0  0  0
 26 27  1  0  0  0  0
 26  3  1  0  0  0  0
 27 28  1  0  0  0  0
 29 27  2  0  0  0  0
 30 29  1  0  0  0  0
 31 30  1  0  0  0  0
 32 30  2  0  0  0  0
 32 34  1  0  0  0  0
 33 32  1  0  0  0  0
 34 26  2  0  0  0  0
M  END
>  <minimizedAffinity>
-5.27267838

>  <minimizedRMSD>
0.254315645

$$$$
