
 OpenBabel03262521033D

 18 19  0  0  0  0  0  0  0  0999 V2000
   37.8520   24.9720   33.7770 C   0  0  0  0  0  0  0  0  0  0  0  0
   37.9330   25.4860   35.1010 C   0  0  0  0  0  0  0  0  0  0  0  0
   37.4640   26.7820   35.3070 C   0  0  0  0  0  0  0  0  0  0  0  0
   36.9640   27.4710   34.2510 N   0  0  0  0  0  0  0  0  0  0  0  0
   36.8980   26.9590   33.0030 C   0  0  0  0  0  0  0  0  0  0  0  0
   37.3450   25.7070   32.7760 N   0  0  0  0  0  0  0  0  0  0  0  0
   38.1740   23.9870   33.4640 H   0  0  0  0  0  0  0  0  0  0  0  0
   37.5370   27.1390   36.3080 H   0  0  0  0  0  0  0  0  0  0  0  0
   36.4950   27.5260   32.1770 H   0  0  0  0  0  0  0  0  0  0  0  0
   38.5020   24.5950   36.1060 C   0  0  0  0  0  0  0  0  0  0  0  0
   39.6460   23.9140   35.7410 C   0  0  0  0  0  0  0  0  0  0  0  0
   40.1170   24.0150   34.7700 H   0  0  0  0  0  0  0  0  0  0  0  0
   40.3230   23.0300   36.5590 C   0  0  0  0  0  3  0  0  0  0  0  0
   39.8260   22.8000   37.8470 C   0  0  0  0  0  0  0  0  0  0  0  0
   40.3350   22.1130   38.5090 H   0  0  0  0  0  0  0  0  0  0  0  0
   38.6770   23.4870   38.2040 C   0  0  0  0  0  0  0  0  0  0  0  0
   38.2810   23.3100   39.2160 H   0  0  0  0  0  0  0  0  0  0  0  0
   38.0090   24.3680   37.3800 C   0  0  0  0  0  3  0  0  0  0  0  0
  1  2  1  0  0  0  0
  2  3  2  0  0  0  0
  2 10  1  0  0  0  0
  3  8  1  0  0  0  0
  4  3  1  0  0  0  0
  5  4  2  0  0  0  0
  6  5  1  0  0  0  0
  6  1  2  0  0  0  0
  7  1  1  0  0  0  0
  9  5  1  0  0  0  0
 10 18  1  0  0  0  0
 11 10  2  0  0  0  0
 11 13  1  0  0  0  0
 12 11  1  0  0  0  0
 13 14  2  0  0  0  0
 14 16  1  0  0  0  0
 14 15  1  0  0  0  0
 16 17  1  0  0  0  0
 18 16  2  0  0  0  0
M  END
>  <minimizedAffinity>
-4.00356531

$$$$

 OpenBabel03262521033D

 18 19  0  0  0  0  0  0  0  0999 V2000
   37.5410   26.7090   35.3050 C   0  0  0  0  0  0  0  0  0  0  0  0
   37.9540   25.4170   34.8790 C   0  0  0  0  0  0  0  0  0  0  0  0
   37.7630   25.1020   33.5350 C   0  0  0  0  0  0  0  0  0  0  0  0
   37.2030   26.0320   32.7210 N   0  0  0  0  0  0  0  0  0  0  0  0
   36.8190   27.2520   33.1500 C   0  0  0  0  0  0  0  0  0  0  0  0
   36.9930   27.5830   34.4460 N   0  0  0  0  0  0  0  0  0  0  0  0
   37.6250   27.0960   36.3130 H   0  0  0  0  0  0  0  0  0  0  0  0
   38.0830   24.1290   33.2460 H   0  0  0  0  0  0  0  0  0  0  0  0
   36.3760   27.9770   32.4840 H   0  0  0  0  0  0  0  0  0  0  0  0
   38.5360   24.5550   35.9020 C   0  0  0  0  0  0  0  0  0  0  0  0
   37.9060   24.5530   37.1300 C   0  0  0  0  0  0  0  0  0  0  0  0
   37.0270   25.1470   37.3510 H   0  0  0  0  0  0  0  0  0  0  0  0
   38.3130   23.8020   38.2150 C   0  0  0  0  0  3  0  0  0  0  0  0
   39.4400   22.9840   38.0740 C   0  0  0  0  0  0  0  0  0  0  0  0
   39.7820   22.3850   38.9070 H   0  0  0  0  0  0  0  0  0  0  0  0
   40.0670   22.9930   36.8380 C   0  0  0  0  0  0  0  0  0  0  0  0
   40.9540   22.3510   36.7210 H   0  0  0  0  0  0  0  0  0  0  0  0
   39.6510   23.7460   35.7610 C   0  0  0  0  0  3  0  0  0  0  0  0
  1  7  1  0  0  0  0
  2  1  1  0  0  0  0
  2 10  1  0  0  0  0
  3  2  2  0  0  0  0
  4  5  2  0  0  0  0
  4  3  1  0  0  0  0
  5  6  1  0  0  0  0
  6  1  2  0  0  0  0
  8  3  1  0  0  0  0
  9  5  1  0  0  0  0
 10 11  1  0  0  0  0
 11 12  1  0  0  0  0
 11 13  2  0  0  0  0
 14 13  1  0  0  0  0
 14 15  1  0  0  0  0
 16 14  2  0  0  0  0
 17 16  1  0  0  0  0
 18 10  2  0  0  0  0
 18 16  1  0  0  0  0
M  END
>  <minimizedAffinity>
-3.98775053

$$$$

 OpenBabel03262521033D

 18 19  0  0  0  0  0  0  0  0999 V2000
   40.1470   23.8570   35.6700 C   0  0  0  0  0  0  0  0  0  0  0  0
   38.9410   24.4090   36.1830 C   0  0  0  0  0  0  0  0  0  0  0  0
   38.4960   23.9260   37.4120 C   0  0  0  0  0  0  0  0  0  0  0  0
   39.2260   22.9710   38.0400 N   0  0  0  0  0  0  0  0  0  0  0  0
   40.3690   22.4630   37.5310 C   0  0  0  0  0  0  0  0  0  0  0  0
   40.8230   22.9130   36.3440 N   0  0  0  0  0  0  0  0  0  0  0  0
   40.6150   24.1310   34.7320 H   0  0  0  0  0  0  0  0  0  0  0  0
   37.5910   24.3580   37.7700 H   0  0  0  0  0  0  0  0  0  0  0  0
   40.9350   21.7040   38.0500 H   0  0  0  0  0  0  0  0  0  0  0  0
   38.2960   25.4270   35.3610 C   0  0  0  0  0  0  0  0  0  0  0  0
   38.1940   26.6870   35.9180 C   0  0  0  0  0  0  0  0  0  0  0  0
   38.5640   26.9350   36.9060 H   0  0  0  0  0  0  0  0  0  0  0  0
   37.6150   27.7720   35.2910 C   0  0  0  0  0  3  0  0  0  0  0  0
   37.0910   27.5980   34.0040 C   0  0  0  0  0  0  0  0  0  0  0  0
   36.6320   28.4310   33.4890 H   0  0  0  0  0  0  0  0  0  0  0  0
   37.1970   26.3300   33.4540 C   0  0  0  0  0  0  0  0  0  0  0  0
   36.7870   26.1870   32.4430 H   0  0  0  0  0  0  0  0  0  0  0  0
   37.7780   25.2530   34.0890 C   0  0  0  0  0  3  0  0  0  0  0  0
  1  2  2  0  0  0  0
  1  6  1  0  0  0  0
  2  3  1  0  0  0  0
  3  8  1  0  0  0  0
  3  4  2  0  0  0  0
  5  4  1  0  0  0  0
  5  9  1  0  0  0  0
  6  5  2  0  0  0  0
  7  1  1  0  0  0  0
 10 11  1  0  0  0  0
 10  2  1  0  0  0  0
 11 12  1  0  0  0  0
 13 11  2  0  0  0  0
 14 13  1  0  0  0  0
 15 14  1  0  0  0  0
 16 14  2  0  0  0  0
 16 18  1  0  0  0  0
 17 16  1  0  0  0  0
 18 10  2  0  0  0  0
M  END
>  <minimizedAffinity>
-3.94269633

$$$$

 OpenBabel03262521033D

 18 19  0  0  0  0  0  0  0  0999 V2000
   36.4000   28.2520   34.3590 C   0  0  0  0  0  0  0  0  0  0  0  0
   35.4330   29.1690   33.8610 C   0  0  0  0  0  0  0  0  0  0  0  0
   35.0760   29.0470   32.5200 C   0  0  0  0  0  0  0  0  0  0  0  0
   35.6600   28.0740   31.7750 N   0  0  0  0  0  0  0  0  0  0  0  0
   36.5760   27.2160   32.2730 C   0  0  0  0  0  0  0  0  0  0  0  0
   36.9400   27.3120   33.5680 N   0  0  0  0  0  0  0  0  0  0  0  0
   36.7750   28.2240   35.3740 H   0  0  0  0  0  0  0  0  0  0  0  0
   34.3500   29.7460   32.1760 H   0  0  0  0  0  0  0  0  0  0  0  0
   37.0270   26.4490   31.6610 H   0  0  0  0  0  0  0  0  0  0  0  0
   34.9180   30.1460   34.8140 C   0  0  0  0  0  0  0  0  0  0  0  0
   35.8530   30.9680   35.4120 C   0  0  0  0  0  0  0  0  0  0  0  0
   36.9150   30.9140   35.2040 H   0  0  0  0  0  0  0  0  0  0  0  0
   35.5520   31.9480   36.3370 C   0  0  0  0  0  3  0  0  0  0  0  0
   34.2130   32.1310   36.7030 C   0  0  0  0  0  0  0  0  0  0  0  0
   33.9480   32.8920   37.4250 H   0  0  0  0  0  0  0  0  0  0  0  0
   33.2820   31.3010   36.0980 C   0  0  0  0  0  0  0  0  0  0  0  0
   32.2280   31.4400   36.3830 H   0  0  0  0  0  0  0  0  0  0  0  0
   33.5940   30.3260   35.1760 C   0  0  0  0  0  3  0  0  0  0  0  0
  1  7  1  0  0  0  0
  2  1  1  0  0  0  0
  2 10  1  0  0  0  0
  3  2  2  0  0  0  0
  4  5  2  0  0  0  0
  4  3  1  0  0  0  0
  5  6  1  0  0  0  0
  6  1  2  0  0  0  0
  8  3  1  0  0  0  0
  9  5  1  0  0  0  0
 10 18  2  0  0  0  0
 10 11  1  0  0  0  0
 11 13  2  0  0  0  0
 12 11  1  0  0  0  0
 13 14  1  0  0  0  0
 14 15  1  0  0  0  0
 16 17  1  0  0  0  0
 16 14  2  0  0  0  0
 18 16  1  0  0  0  0
M  END
>  <minimizedAffinity>
-3.87222362

$$$$

 OpenBabel03262521033D

 18 19  0  0  0  0  0  0  0  0999 V2000
   39.0920   24.0110   33.6160 C   0  0  0  0  0  0  0  0  0  0  0  0
   38.4520   24.6920   34.6880 C   0  0  0  0  0  0  0  0  0  0  0  0
   37.6560   25.7870   34.3580 C   0  0  0  0  0  0  0  0  0  0  0  0
   37.5380   26.1370   33.0520 N   0  0  0  0  0  0  0  0  0  0  0  0
   38.1560   25.4730   32.0530 C   0  0  0  0  0  0  0  0  0  0  0  0
   38.9320   24.4090   32.3450 N   0  0  0  0  0  0  0  0  0  0  0  0
   39.7380   23.1470   33.7150 H   0  0  0  0  0  0  0  0  0  0  0  0
   37.1900   26.2760   35.1810 H   0  0  0  0  0  0  0  0  0  0  0  0
   38.0470   25.7690   31.0200 H   0  0  0  0  0  0  0  0  0  0  0  0
   38.7010   24.1680   36.0270 C   0  0  0  0  0  0  0  0  0  0  0  0
   37.8720   24.6320   37.0280 C   0  0  0  0  0  0  0  0  0  0  0  0
   37.0730   25.3450   36.8600 H   0  0  0  0  0  0  0  0  0  0  0  0
   37.9580   24.2500   38.3520 C   0  0  0  0  0  3  0  0  0  0  0  0
   38.9480   23.3300   38.7180 C   0  0  0  0  0  0  0  0  0  0  0  0
   39.0380   23.0130   39.7480 H   0  0  0  0  0  0  0  0  0  0  0  0
   39.7760   22.8700   37.7060 C   0  0  0  0  0  0  0  0  0  0  0  0
   40.5560   22.1470   37.9880 H   0  0  0  0  0  0  0  0  0  0  0  0
   39.6810   23.2580   36.3870 C   0  0  0  0  0  3  0  0  0  0  0  0
  1  7  1  0  0  0  0
  1  2  1  0  0  0  0
  2 10  1  0  0  0  0
  3  2  2  0  0  0  0
  3  8  1  0  0  0  0
  4  3  1  0  0  0  0
  5  6  1  0  0  0  0
  5  4  2  0  0  0  0
  6  1  2  0  0  0  0
  9  5  1  0  0  0  0
 10 18  2  0  0  0  0
 10 11  1  0  0  0  0
 11 13  2  0  0  0  0
 12 11  1  0  0  0  0
 13 14  1  0  0  0  0
 14 15  1  0  0  0  0
 16 17  1  0  0  0  0
 16 14  2  0  0  0  0
 18 16  1  0  0  0  0
M  END
>  <minimizedAffinity>
-3.86024833

$$$$

 OpenBabel03262521033D

 18 19  0  0  0  0  0  0  0  0999 V2000
   37.3190   23.7180   32.3590 C   0  0  0  0  0  0  0  0  0  0  0  0
   36.1610   23.1610   31.7510 C   0  0  0  0  0  0  0  0  0  0  0  0
   35.2940   24.0450   31.1100 C   0  0  0  0  0  0  0  0  0  0  0  0
   35.6000   25.3660   31.1020 N   0  0  0  0  0  0  0  0  0  0  0  0
   36.7080   25.8700   31.6870 C   0  0  0  0  0  0  0  0  0  0  0  0
   37.5630   25.0360   32.3140 N   0  0  0  0  0  0  0  0  0  0  0  0
   38.0800   23.1600   32.8900 H   0  0  0  0  0  0  0  0  0  0  0  0
   34.4370   23.5980   30.6650 H   0  0  0  0  0  0  0  0  0  0  0  0
   36.9310   26.9260   31.6670 H   0  0  0  0  0  0  0  0  0  0  0  0
   36.0020   21.7150   31.8650 C   0  0  0  0  0  0  0  0  0  0  0  0
   35.6730   21.2330   33.1170 C   0  0  0  0  0  0  0  0  0  0  0  0
   35.5340   21.8690   33.9840 H   0  0  0  0  0  0  0  0  0  0  0  0
   35.4840   19.8980   33.4140 C   0  0  0  0  0  3  0  0  0  0  0  0
   35.6330   18.9590   32.3870 C   0  0  0  0  0  0  0  0  0  0  0  0
   35.4910   17.9060   32.5910 H   0  0  0  0  0  0  0  0  0  0  0  0
   35.9640   19.4510   31.1350 C   0  0  0  0  0  0  0  0  0  0  0  0
   36.0830   18.7170   30.3230 H   0  0  0  0  0  0  0  0  0  0  0  0
   36.1500   20.7860   30.8480 C   0  0  0  0  0  3  0  0  0  0  0  0
  1  7  1  0  0  0  0
  2 10  1  0  0  0  0
  2  1  2  0  0  0  0
  3  2  1  0  0  0  0
  4  3  2  0  0  0  0
  4  5  1  0  0  0  0
  5  6  2  0  0  0  0
  6  1  1  0  0  0  0
  8  3  1  0  0  0  0
  9  5  1  0  0  0  0
 10 11  1  0  0  0  0
 11 13  2  0  0  0  0
 11 12  1  0  0  0  0
 14 15  1  0  0  0  0
 14 13  1  0  0  0  0
 16 14  2  0  0  0  0
 17 16  1  0  0  0  0
 18 16  1  0  0  0  0
 18 10  2  0  0  0  0
M  END
>  <minimizedAffinity>
-3.82518983

$$$$

 OpenBabel03262521033D

 18 19  0  0  0  0  0  0  0  0999 V2000
   39.4160   23.6590   35.8530 C   0  0  0  0  0  0  0  0  0  0  0  0
   40.0520   23.0500   36.9690 C   0  0  0  0  0  0  0  0  0  0  0  0
   39.3500   23.0450   38.1730 C   0  0  0  0  0  0  0  0  0  0  0  0
   38.1180   23.6120   38.2120 N   0  0  0  0  0  0  0  0  0  0  0  0
   37.5360   24.1830   37.1370 C   0  0  0  0  0  0  0  0  0  0  0  0
   38.1930   24.2020   35.9590 N   0  0  0  0  0  0  0  0  0  0  0  0
   39.8340   23.7390   34.8570 H   0  0  0  0  0  0  0  0  0  0  0  0
   39.8520   22.5820   38.9910 H   0  0  0  0  0  0  0  0  0  0  0  0
   36.5530   24.6280   37.1910 H   0  0  0  0  0  0  0  0  0  0  0  0
   41.3800   22.4940   36.7330 C   0  0  0  0  0  0  0  0  0  0  0  0
   42.3190   23.3580   36.2070 C   0  0  0  0  0  0  0  0  0  0  0  0
   42.1110   24.3960   35.9730 H   0  0  0  0  0  0  0  0  0  0  0  0
   43.6240   23.0100   35.9170 C   0  0  0  0  0  3  0  0  0  0  0  0
   44.0350   21.6960   36.1680 C   0  0  0  0  0  0  0  0  0  0  0  0
   45.0510   21.3960   35.9510 H   0  0  0  0  0  0  0  0  0  0  0  0
   43.0850   20.8360   36.6950 C   0  0  0  0  0  0  0  0  0  0  0  0
   43.4030   19.8010   36.8940 H   0  0  0  0  0  0  0  0  0  0  0  0
   41.7850   21.1930   36.9810 C   0  0  0  0  0  3  0  0  0  0  0  0
  1  6  2  0  0  0  0
  1  2  1  0  0  0  0
  2  3  2  0  0  0  0
  3  4  1  0  0  0  0
  3  8  1  0  0  0  0
  5  9  1  0  0  0  0
  5  4  2  0  0  0  0
  6  5  1  0  0  0  0
  7  1  1  0  0  0  0
 10  2  1  0  0  0  0
 10 18  1  0  0  0  0
 11 10  2  0  0  0  0
 12 11  1  0  0  0  0
 13 14  2  0  0  0  0
 13 11  1  0  0  0  0
 14 16  1  0  0  0  0
 15 14  1  0  0  0  0
 16 17  1  0  0  0  0
 16 18  2  0  0  0  0
M  END
>  <minimizedAffinity>
-3.7403028

$$$$

 OpenBabel03262521033D

 18 19  0  0  0  0  0  0  0  0999 V2000
   38.1240   25.3210   34.1150 C   0  0  0  0  0  0  0  0  0  0  0  0
   38.2530   23.9900   34.5980 C   0  0  0  0  0  0  0  0  0  0  0  0
   38.2050   22.9660   33.6540 C   0  0  0  0  0  0  0  0  0  0  0  0
   38.0420   23.2920   32.3470 N   0  0  0  0  0  0  0  0  0  0  0  0
   37.9230   24.5650   31.9140 C   0  0  0  0  0  0  0  0  0  0  0  0
   37.9660   25.5750   32.8070 N   0  0  0  0  0  0  0  0  0  0  0  0
   38.1420   26.2160   34.7240 H   0  0  0  0  0  0  0  0  0  0  0  0
   38.3050   21.9810   34.0450 H   0  0  0  0  0  0  0  0  0  0  0  0
   37.7950   24.8000   30.8680 H   0  0  0  0  0  0  0  0  0  0  0  0
   38.4200   23.8390   36.0390 C   0  0  0  0  0  0  0  0  0  0  0  0
   39.4890   23.0680   36.4530 C   0  0  0  0  0  0  0  0  0  0  0  0
   40.1810   22.5920   35.7690 H   0  0  0  0  0  0  0  0  0  0  0  0
   39.8030   22.8140   37.7730 C   0  0  0  0  0  3  0  0  0  0  0  0
   38.9910   23.3680   38.7700 C   0  0  0  0  0  0  0  0  0  0  0  0
   39.2130   23.1860   39.8130 H   0  0  0  0  0  0  0  0  0  0  0  0
   37.9200   24.1390   38.3460 C   0  0  0  0  0  0  0  0  0  0  0  0
   37.2780   24.5770   39.1250 H   0  0  0  0  0  0  0  0  0  0  0  0
   37.6160   24.3870   37.0240 C   0  0  0  0  0  3  0  0  0  0  0  0
  1  2  1  0  0  0  0
  1  7  1  0  0  0  0
  2 10  1  0  0  0  0
  3  8  1  0  0  0  0
  3  2  2  0  0  0  0
  4  3  1  0  0  0  0
  5  4  2  0  0  0  0
  5  6  1  0  0  0  0
  6  1  2  0  0  0  0
  9  5  1  0  0  0  0
 10 11  2  0  0  0  0
 10 18  1  0  0  0  0
 11 13  1  0  0  0  0
 12 11  1  0  0  0  0
 13 14  2  0  0  0  0
 14 15  1  0  0  0  0
 16 14  1  0  0  0  0
 16 17  1  0  0  0  0
 18 16  2  0  0  0  0
M  END
>  <minimizedAffinity>
-3.73066711

$$$$

 OpenBabel03262521033D

 18 19  0  0  0  0  0  0  0  0999 V2000
   31.9650   29.3120   34.4810 C   0  0  0  0  0  0  0  0  0  0  0  0
   32.2830   29.5690   35.8430 C   0  0  0  0  0  0  0  0  0  0  0  0
   31.6280   28.7980   36.8020 C   0  0  0  0  0  0  0  0  0  0  0  0
   30.7380   27.8610   36.3890 N   0  0  0  0  0  0  0  0  0  0  0  0
   30.4550   27.6370   35.0890 C   0  0  0  0  0  0  0  0  0  0  0  0
   31.0750   28.3690   34.1400 N   0  0  0  0  0  0  0  0  0  0  0  0
   32.3910   29.8270   33.6280 H   0  0  0  0  0  0  0  0  0  0  0  0
   31.8870   29.0130   37.8130 H   0  0  0  0  0  0  0  0  0  0  0  0
   29.7430   26.8850   34.7830 H   0  0  0  0  0  0  0  0  0  0  0  0
   33.2660   30.6180   36.0910 C   0  0  0  0  0  0  0  0  0  0  0  0
   34.3330   30.6760   35.2170 C   0  0  0  0  0  0  0  0  0  0  0  0
   34.4590   29.9940   34.3840 H   0  0  0  0  0  0  0  0  0  0  0  0
   35.3570   31.5980   35.2950 C   0  0  0  0  0  3  0  0  0  0  0  0
   35.3250   32.5440   36.3270 C   0  0  0  0  0  0  0  0  0  0  0  0
   36.1140   33.2790   36.4120 H   0  0  0  0  0  0  0  0  0  0  0  0
   34.2510   32.4780   37.2000 C   0  0  0  0  0  0  0  0  0  0  0  0
   34.2210   33.2200   38.0130 H   0  0  0  0  0  0  0  0  0  0  0  0
   33.2330   31.5530   37.1120 C   0  0  0  0  0  3  0  0  0  0  0  0
  1  2  1  0  0  0  0
  2 10  1  0  0  0  0
  2  3  2  0  0  0  0
  3  8  1  0  0  0  0
  4  3  1  0  0  0  0
  5  4  2  0  0  0  0
  6  1  2  0  0  0  0
  6  5  1  0  0  0  0
  7  1  1  0  0  0  0
  9  5  1  0  0  0  0
 10 18  1  0  0  0  0
 11 13  1  0  0  0  0
 11 10  2  0  0  0  0
 12 11  1  0  0  0  0
 13 14  2  0  0  0  0
 14 15  1  0  0  0  0
 14 16  1  0  0  0  0
 16 17  1  0  0  0  0
 18 16  2  0  0  0  0
M  END
>  <minimizedAffinity>
-3.71264195

$$$$
