
 OpenBabel03272507423D

 39 41  0  0  0  0  0  0  0  0999 V2000
   36.7370   32.3000   49.3060 O   0  0  0  0  0  0  0  0  0  0  0  0
   38.2450   32.2810   47.3480 C   0  0  0  0  0  0  0  0  0  0  0  0
   37.8570   32.7140   48.5990 C   0  0  0  0  0  0  0  0  0  0  0  0
   38.6190   33.6550   49.2700 C   0  0  0  0  0  0  0  0  0  0  0  0
   39.7710   34.1570   48.6780 C   0  0  0  0  0  0  0  0  0  0  0  0
   40.1460   33.7180   47.4320 C   0  0  0  0  0  0  0  0  0  0  0  0
   39.3740   32.7830   46.7840 C   0  0  0  0  0  0  0  0  0  0  0  0
   38.3760   34.0380   50.2500 H   0  0  0  0  0  0  0  0  0  0  0  0
   40.3650   34.8960   49.2110 H   0  0  0  0  0  0  0  0  0  0  0  0
   41.0350   34.0950   46.9550 H   0  0  0  0  0  0  0  0  0  0  0  0
   39.7880   32.3190   45.4440 C   0  0  0  0  0  0  0  0  0  0  0  0
   40.6320   31.2860   45.1030 C   0  0  0  0  0  0  0  0  0  0  0  0
   40.6930   31.2630   43.7070 C   0  0  0  0  0  0  0  0  0  0  0  0
   39.8810   32.2840   43.2940 C   0  0  0  0  0  0  0  0  0  0  0  0
   39.3560   32.8980   44.3370 O   0  0  0  0  0  0  0  0  0  0  0  0
   41.0770   30.7050   45.8920 H   0  0  0  0  0  0  0  0  0  0  0  0
   41.3210   30.5010   43.2680 H   0  0  0  0  0  0  0  0  0  0  0  0
   39.7670   32.4660   42.2370 H   0  0  0  0  0  0  0  0  0  0  0  0
   36.7300   30.5320   46.1980 N   0  0  0  0  0  0  0  0  0  0  0  0
   37.4100   31.3080   46.7140 C   0  0  0  0  0  0  0  0  0  0  0  0
   36.6960   31.2070   50.1040 C   0  0  0  0  0  0  0  0  0  0  0  0
   35.5770   30.4100   49.8460 C   0  0  0  0  0  0  0  0  0  0  0  0
   35.3590   29.2440   50.5640 C   0  0  0  0  0  0  0  0  0  0  0  0
   36.2750   28.9170   51.5170 N   0  0  0  0  0  0  0  0  0  0  0  0
   37.3590   29.7070   51.7520 C   0  0  0  0  0  0  0  0  0  0  0  0
   37.5490   30.8120   51.0600 N   0  0  0  0  0  0  0  0  0  0  0  0
   34.5270   28.5870   50.4220 H   0  0  0  0  0  0  0  0  0  0  0  0
   38.0940   29.4420   52.5190 H   0  0  0  0  0  0  0  0  0  0  0  0
   34.1690   29.6310   48.0130 C   0  0  0  0  0  0  0  0  0  0  0  0
   34.5920   28.4350   47.7840 O   0  0  0  0  0  0  0  0  0  0  0  0
   34.5890   30.6710   48.8880 N   0  0  0  0  0  0  0  0  0  0  0  0
   34.1360   31.5680   48.7630 H   0  0  0  0  0  0  0  0  0  0  0  0
   33.0770   29.8150   47.1690 O   0  0  0  0  0  0  0  0  0  0  0  0
   33.0030   30.8910   44.7130 O   0  0  0  0  0  0  0  0  0  0  0  0
   33.1710   29.5800   45.4720 P   0  0  0  0  0  0  0  0  0  0  0  0
   34.5810   28.8420   44.9750 O   0  0  0  0  0  0  0  0  0  0  0  0
   35.1750   29.5140   44.6080 H   0  0  0  0  0  0  0  0  0  0  0  0
   31.8080   28.6420   45.0490 O   0  0  0  0  0  0  0  0  0  0  0  0
   31.0130   29.1740   45.3680 H   0  0  0  0  0  0  0  0  0  0  0  0
  1 21  1  0  0  0  0
  2  3  1  0  0  0  0
  3  4  2  0  0  0  0
  3  1  1  0  0  0  0
  4  8  1  0  0  0  0
  5  9  1  0  0  0  0
  5  4  1  0  0  0  0
  6  5  2  0  0  0  0
  7  2  2  0  0  0  0
  7  6  1  0  0  0  0
 10  6  1  0  0  0  0
 11  7  1  0  0  0  0
 12 11  2  0  0  0  0
 12 16  1  0  0  0  0
 13 12  1  0  0  0  0
 14 13  2  0  0  0  0
 14 15  1  0  0  0  0
 15 11  1  0  0  0  0
 17 13  1  0  0  0  0
 18 14  1  0  0  0  0
 19 20  3  0  0  0  0
 20  2  1  0  0  0  0
 21 26  1  0  0  0  0
 22 21  2  0  0  0  0
 22 23  1  0  0  0  0
 23 24  2  0  0  0  0
 24 25  1  0  0  0  0
 25 28  1  0  0  0  0
 26 25  2  0  0  0  0
 27 23  1  0  0  0  0
 29 31  1  0  0  0  0
 30 29  2  0  0  0  0
 31 22  1  0  0  0  0
 32 31  1  0  0  0  0
 33 29  1  0  0  0  0
 34 35  2  0  0  0  0
 35 33  1  0  0  0  0
 36 35  1  0  0  0  0
 37 36  1  0  0  0  0
 38 39  1  0  0  0  0
 38 35  1  0  0  0  0
M  END
>  <minimizedAffinity>
-5.62788868

>  <minimizedRMSD>
0.552760661

$$$$
