
     RDKit          3D

 18 18  0  0  0  0  0  0  0  0999 V2000
   37.3548   30.2254   51.3580 C   0  0  0  0  0  0  0  0  0  0  0  0
   38.0528   30.7690   50.2791 C   0  0  0  0  0  0  0  0  0  0  0  0
   37.5741   30.4116   49.0261 C   0  0  0  0  0  0  0  0  0  0  0  0
   36.4937   29.5840   48.8948 N   0  0  0  0  0  0  0  0  0  0  0  0
   35.8687   29.0963   49.9831 C   0  0  0  0  0  0  0  0  0  0  0  0
   36.2965   29.4149   51.2043 N   0  0  0  0  0  0  0  0  0  0  0  0
   38.2128   30.9106   47.8248 C   0  0  0  0  0  0  0  0  0  0  0  0
   39.0056   31.8993   47.7918 O   0  0  0  0  0  0  0  0  0  0  0  0
   37.6955   30.4789   52.3544 H   0  0  0  0  0  0  0  0  0  0  0  0
   38.8962   31.4147   50.4129 H   0  0  0  0  0  0  0  0  0  0  0  0
   35.0109   28.4384   49.9824 H   0  0  0  0  0  0  0  0  0  0  0  0
   35.9830   28.6849   46.9339 O   0  0  0  0  0  0  0  0  0  0  0  0
   36.4114   29.8450   46.0692 P   0  0  0  0  0  0  0  0  0  0  0  0
   35.3003   31.1101   46.1335 O   0  0  0  0  0  0  0  0  0  0  0  0
   36.5485   29.3629   44.4417 O   0  0  0  0  0  0  0  0  0  0  0  0
   37.9707   30.2943   46.5932 O   0  0  0  0  0  0  0  0  0  0  0  0
   35.4691   31.7537   46.8639 H   0  0  0  0  0  0  0  0  0  0  0  0
   36.9512   28.4599   44.4383 H   0  0  0  0  0  0  0  0  0  0  0  0
  2  1  2  0
  3  2  1  0
  4  3  2  0
  4  5  1  0
  5  6  2  0
  6  1  1  0
  7  3  1  0
  8  7  2  0
  1  9  1  0
  2 10  1  0
  5 11  1  0
 12 13  2  0
 13 14  1  0
 13 15  1  0
 13 16  1  0
 14 17  1  0
 15 18  1  0
  7 16  1  0
M  ISO  3   9  14  10  14  11  14
M  END
>  <DihAtoms>  (1) 
2,6,15,12

>  <DihDeg>  (1) 
-179.9990797442354

$$$$
