
 OpenBabel03272508423D

 18 18  0  0  0  0  0  0  0  0999 V2000
   37.5680   30.4290   50.8640 C   0  0  0  0  0  0  0  0  0  0  0  0
   38.3560   31.3410   50.1440 C   0  0  0  0  0  0  0  0  0  0  0  0
   37.9740   31.6520   48.8260 C   0  0  0  0  0  0  0  0  0  0  0  0
   36.8640   31.0510   48.3270 N   0  0  0  0  0  0  0  0  0  0  0  0
   36.1440   30.1860   49.0520 C   0  0  0  0  0  0  0  0  0  0  0  0
   36.4760   29.8700   50.2990 N   0  0  0  0  0  0  0  0  0  0  0  0
   37.8670   30.1950   51.8760 H   0  0  0  0  0  0  0  0  0  0  0  0
   39.2410   31.8190   50.5470 H   0  0  0  0  0  0  0  0  0  0  0  0
   38.5180   32.3430   48.1950 H   0  0  0  0  0  0  0  0  0  0  0  0
   34.9430   29.5330   48.5160 C   0  0  0  0  0  0  0  0  0  0  0  0
   33.9260   29.2550   49.2110 O   0  0  0  0  0  0  0  0  0  0  0  0
   35.0500   29.2600   47.1740 O   0  0  0  0  0  0  0  0  0  0  0  0
   33.1190   28.8210   45.5030 O   0  0  0  0  0  0  0  0  0  0  0  0
   33.9390   29.9570   46.0640 P   0  0  0  0  0  0  0  0  0  0  0  0
   32.9080   31.0480   46.8010 O   0  0  0  0  0  0  0  0  0  0  0  0
   33.3450   31.8940   47.0640 H   0  0  0  0  0  0  0  0  0  0  0  0
   34.8460   30.6500   44.8190 O   0  0  0  0  0  0  0  0  0  0  0  0
   35.7510   30.9310   45.1270 H   0  0  0  0  0  0  0  0  0  0  0  0
  1  7  1  0  0  0  0
  2  8  1  0  0  0  0
  2  1  2  0  0  0  0
  3  2  1  0  0  0  0
  4  3  2  0  0  0  0
  4  5  1  0  0  0  0
  5  6  2  0  0  0  0
  6  1  1  0  0  0  0
  9  3  1  0  0  0  0
 10  5  1  0  0  0  0
 10 11  2  0  0  0  0
 12 10  1  0  0  0  0
 13 14  2  0  0  0  0
 14 15  1  0  0  0  0
 14 12  1  0  0  0  0
 15 16  1  0  0  0  0
 17 18  1  0  0  0  0
 17 14  1  0  0  0  0
M  END
>  <minimizedAffinity>
-3.83801222

>  <minimizedRMSD>
3.07937241

$$$$
