REMARK  Name = 
REMARK  5 active torsions:
REMARK  status: ('A' for Active; 'I' for Inactive)
REMARK    1  A    between atoms: C_5  and  C_7
REMARK    2  A    between atoms: C_7  and  O_16
REMARK    3  A    between atoms: P_13  and  O_14
REMARK    4  A    between atoms: P_13  and  O_15
REMARK    5  A    between atoms: P_13  and  O_16
REMARK                            x       y       z     vdW  Elec       q    Type
REMARK                         _______ _______ _______ _____ _____    ______ ____
ROOT
ATOM      1  C   UNL     1      37.268  30.182  51.431  0.00  0.00    +0.000 A 
ATOM      2  C   UNL     1      38.095  30.755  50.452  0.00  0.00    +0.000 A 
ATOM      3  C   UNL     1      37.803  30.493  49.100  0.00  0.00    +0.000 A 
ATOM      4  N   UNL     1      36.737  29.700  48.822  0.00  0.00    +0.000 NA
ATOM      5  C   UNL     1      35.977  29.175  49.791  0.00  0.00    +0.000 A 
ATOM      6  N   UNL     1      36.224  29.402  51.076  0.00  0.00    +0.000 NA
ATOM      7  H   UNL     1      37.498  30.388  52.467  0.00  0.00    +0.000 HD
ATOM      8  H   UNL     1      38.945  31.388  50.678  0.00  0.00    +0.000 HD
ATOM      9  H   UNL     1      38.383  30.890  48.277  0.00  0.00    +0.000 HD
ENDROOT
BRANCH   5  10
ATOM     10  C   UNL     1      34.823  28.317  49.495  0.00  0.00    +0.000 C 
ATOM     11  O   UNL     1      33.624  28.708  49.551  0.00  0.00    +0.000 OA
BRANCH  10  12
ATOM     12  O   UNL     1      35.195  27.040  49.150  0.00  0.00    +0.000 OA
BRANCH  12  14
ATOM     13  O   UNL     1      34.190  24.721  49.721  0.00  0.00    +0.000 OA
ATOM     14  P   UNL     1      33.996  25.871  48.764  0.00  0.00    +0.000 P 
BRANCH  14  15
ATOM     15  O   UNL     1      32.446  26.469  48.950  0.00  0.00    +0.000 OA
ATOM     16  H   UNL     1      32.186  27.125  48.259  0.00  0.00    +0.000 HD
ENDBRANCH  14  15
BRANCH  14  17
ATOM     17  O   UNL     1      34.308  25.337  47.192  0.00  0.00    +0.000 OA
ATOM     18  H   UNL     1      34.768  26.032  46.644  0.00  0.00    +0.000 HD
ENDBRANCH  14  17
ENDBRANCH  12  14
ENDBRANCH  10  12
ENDBRANCH   5  10
TORSDOF 5
