
 OpenBabel03272507423D

 39 41  0  0  0  0  0  0  0  0999 V2000
   36.6750   32.2330   49.2640 O   0  0  0  0  0  0  0  0  0  0  0  0
   38.1920   32.2250   47.3120 C   0  0  0  0  0  0  0  0  0  0  0  0
   37.7990   32.6500   48.5650 C   0  0  0  0  0  0  0  0  0  0  0  0
   38.5600   33.5840   49.2460 C   0  0  0  0  0  0  0  0  0  0  0  0
   39.7150   34.0880   48.6630 C   0  0  0  0  0  0  0  0  0  0  0  0
   40.0960   33.6570   47.4160 C   0  0  0  0  0  0  0  0  0  0  0  0
   39.3250   32.7280   46.7580 C   0  0  0  0  0  0  0  0  0  0  0  0
   38.3130   33.9600   50.2280 H   0  0  0  0  0  0  0  0  0  0  0  0
   40.3090   34.8220   49.2040 H   0  0  0  0  0  0  0  0  0  0  0  0
   40.9880   34.0350   46.9460 H   0  0  0  0  0  0  0  0  0  0  0  0
   39.7440   32.2730   45.4170 C   0  0  0  0  0  0  0  0  0  0  0  0
   40.5780   31.2340   45.0710 C   0  0  0  0  0  0  0  0  0  0  0  0
   40.6500   31.2240   43.6750 C   0  0  0  0  0  0  0  0  0  0  0  0
   39.8550   32.2600   43.2660 C   0  0  0  0  0  0  0  0  0  0  0  0
   39.3280   32.8690   44.3120 O   0  0  0  0  0  0  0  0  0  0  0  0
   41.0080   30.6390   45.8570 H   0  0  0  0  0  0  0  0  0  0  0  0
   41.2720   30.4590   43.2330 H   0  0  0  0  0  0  0  0  0  0  0  0
   39.7510   32.4550   42.2100 H   0  0  0  0  0  0  0  0  0  0  0  0
   36.6790   30.4880   46.1430 N   0  0  0  0  0  0  0  0  0  0  0  0
   37.3580   31.2580   46.6670 C   0  0  0  0  0  0  0  0  0  0  0  0
   36.6470   31.1740   50.1080 C   0  0  0  0  0  0  0  0  0  0  0  0
   35.5490   30.3420   49.8700 C   0  0  0  0  0  0  0  0  0  0  0  0
   35.3460   29.2040   50.6350 C   0  0  0  0  0  0  0  0  0  0  0  0
   36.2560   28.9380   51.6120 N   0  0  0  0  0  0  0  0  0  0  0  0
   37.3190   29.7620   51.8280 C   0  0  0  0  0  0  0  0  0  0  0  0
   37.4940   30.8400   51.0910 N   0  0  0  0  0  0  0  0  0  0  0  0
   34.5310   28.5230   50.5100 H   0  0  0  0  0  0  0  0  0  0  0  0
   38.0480   29.5460   52.6150 H   0  0  0  0  0  0  0  0  0  0  0  0
   34.2000   29.4600   48.0390 C   0  0  0  0  0  0  0  0  0  0  0  0
   34.6680   28.2730   47.8530 O   0  0  0  0  0  0  0  0  0  0  0  0
   34.5690   30.5390   48.8890 N   0  0  0  0  0  0  0  0  0  0  0  0
   34.0870   31.4160   48.7290 H   0  0  0  0  0  0  0  0  0  0  0  0
   33.1170   29.5810   47.1720 O   0  0  0  0  0  0  0  0  0  0  0  0
   31.9410   27.7020   45.6600 O   0  0  0  0  0  0  0  0  0  0  0  0
   31.9100   28.3680   47.0310 P   0  0  0  0  0  0  0  0  0  0  0  0
   31.9970   27.1920   48.2090 O   0  0  0  0  0  0  0  0  0  0  0  0
   32.4050   26.3990   47.8310 H   0  0  0  0  0  0  0  0  0  0  0  0
   30.4100   29.1860   47.0930 O   0  0  0  0  0  0  0  0  0  0  0  0
   30.4450   29.8550   46.3380 H   0  0  0  0  0  0  0  0  0  0  0  0
  1 21  1  0  0  0  0
  2  3  1  0  0  0  0
  3  4  2  0  0  0  0
  3  1  1  0  0  0  0
  4  8  1  0  0  0  0
  5  9  1  0  0  0  0
  5  4  1  0  0  0  0
  6  5  2  0  0  0  0
  7  2  2  0  0  0  0
  7  6  1  0  0  0  0
 10  6  1  0  0  0  0
 11  7  1  0  0  0  0
 12 11  2  0  0  0  0
 12 16  1  0  0  0  0
 13 12  1  0  0  0  0
 14 13  2  0  0  0  0
 14 15  1  0  0  0  0
 15 11  1  0  0  0  0
 17 13  1  0  0  0  0
 18 14  1  0  0  0  0
 19 20  3  0  0  0  0
 20  2  1  0  0  0  0
 21 26  1  0  0  0  0
 22 21  2  0  0  0  0
 22 23  1  0  0  0  0
 23 24  2  0  0  0  0
 24 25  1  0  0  0  0
 25 28  1  0  0  0  0
 26 25  2  0  0  0  0
 27 23  1  0  0  0  0
 29 31  1  0  0  0  0
 30 29  2  0  0  0  0
 31 22  1  0  0  0  0
 32 31  1  0  0  0  0
 33 29  1  0  0  0  0
 34 35  2  0  0  0  0
 35 38  1  0  0  0  0
 35 33  1  0  0  0  0
 35 36  1  0  0  0  0
 37 36  1  0  0  0  0
 39 38  1  0  0  0  0
M  END
>  <minimizedAffinity>
-5.89821148

>  <minimizedRMSD>
0.286864847

$$$$
