REMARK  Name = 
REMARK  8 active torsions:
REMARK  status: ('A' for Active; 'I' for Inactive)
REMARK    1  A    between atoms: C_2  and  S_8
REMARK    2  A    between atoms: C_6  and  N_7
REMARK    3  A    between atoms: S_8  and  C_11
REMARK    4  A    between atoms: C_13  and  C_15
REMARK    5  A    between atoms: C_15  and  O_33
REMARK    6  A    between atoms: P_30  and  O_31
REMARK    7  A    between atoms: P_30  and  O_32
REMARK    8  A    between atoms: P_30  and  O_33
REMARK                            x       y       z     vdW  Elec       q    Type
REMARK                         _______ _______ _______ _____ _____    ______ ____
ROOT
ATOM      1  S   UNL     1      38.127  30.586  46.565  0.00  0.00    +0.000 S 
ENDROOT
BRANCH   1   3
ATOM      2  N   UNL     1      39.591  32.866  46.298  0.00  0.00    +0.000 NA
ATOM      3  C   UNL     1      38.267  32.350  46.066  0.00  0.00    +0.000 C 
ATOM      4  C   UNL     1      37.931  32.401  44.604  0.00  0.00    +0.000 C 
ATOM      5  N   UNL     1      38.934  31.595  43.912  0.00  0.00    +0.000 NA
ATOM      6  C   UNL     1      40.183  32.364  44.024  0.00  0.00    +0.000 C 
ATOM      7  C   UNL     1      40.599  32.267  45.489  0.00  0.00    +0.000 C 
ATOM      8  H   UNL     1      39.559  33.871  46.103  0.00  0.00    +0.000 HD
ATOM      9  H   UNL     1      37.577  32.948  46.685  0.00  0.00    +0.000 HD
ATOM     10  H   UNL     1      37.913  33.444  44.268  0.00  0.00    +0.000 HD
ATOM     11  H   UNL     1      36.944  31.890  44.480  0.00  0.00    +0.000 HD
ATOM     12  H   UNL     1      39.046  30.704  44.438  0.00  0.00    +0.000 HD
ATOM     13  H   UNL     1      40.036  33.419  43.760  0.00  0.00    +0.000 HD
ATOM     14  H   UNL     1      40.964  31.890  43.405  0.00  0.00    +0.000 HD
ATOM     15  H   UNL     1      41.527  32.873  45.574  0.00  0.00    +0.000 HD
BRANCH   7  16
ATOM     16  N   UNL     1      40.838  30.880  45.800  0.00  0.00    +0.000 NA
ATOM     17  H   UNL     1      41.123  30.729  46.774  0.00  0.00    +0.000 HD
ATOM     18  H   UNL     1      41.603  30.547  45.169  0.00  0.00    +0.000 HD
ENDBRANCH   7  16
ENDBRANCH   1   3
BRANCH   1  21
ATOM     19  C   UNL     1      37.892  30.936  50.599  0.00  0.00    +0.000 A 
ATOM     20  C   UNL     1      38.361  31.086  49.315  0.00  0.00    +0.000 A 
ATOM     21  C   UNL     1      37.664  30.493  48.287  0.00  0.00    +0.000 A 
ATOM     22  N   UNL     1      36.520  29.771  48.591  0.00  0.00    +0.000 NA
ATOM     23  C   UNL     1      36.126  29.670  49.861  0.00  0.00    +0.000 A 
ATOM     24  N   UNL     1      36.780  30.232  50.873  0.00  0.00    +0.000 NA
ATOM     25  H   UNL     1      38.418  31.390  51.420  0.00  0.00    +0.000 HD
ATOM     26  H   UNL     1      39.254  31.648  49.059  0.00  0.00    +0.000 HD
BRANCH  23  27
ATOM     27  C   UNL     1      34.912  28.909  50.148  0.00  0.00    +0.000 C 
ATOM     28  O   UNL     1      34.486  27.969  49.449  0.00  0.00    +0.000 OA
BRANCH  27  29
ATOM     29  O   UNL     1      34.165  29.238  51.272  0.00  0.00    +0.000 OA
BRANCH  29  31
ATOM     30  O   UNL     1      31.869  29.081  52.445  0.00  0.00    +0.000 OA
ATOM     31  P   UNL     1      32.536  29.747  51.243  0.00  0.00    +0.000 P 
BRANCH  31  32
ATOM     32  O   UNL     1      31.726  29.348  49.840  0.00  0.00    +0.000 OA
ATOM     33  H   UNL     1      32.074  28.515  49.436  0.00  0.00    +0.000 HD
ENDBRANCH  31  32
BRANCH  31  34
ATOM     34  O   UNL     1      32.425  31.426  51.551  0.00  0.00    +0.000 OA
ATOM     35  H   UNL     1      33.243  31.713  52.049  0.00  0.00    +0.000 HD
ENDBRANCH  31  34
ENDBRANCH  29  31
ENDBRANCH  27  29
ENDBRANCH  23  27
ENDBRANCH   1  21
TORSDOF 8
