
 OpenBabel03272507433D

 39 41  0  0  0  0  0  0  0  0999 V2000
   38.7560   26.1070   32.2550 O   0  0  0  0  0  0  0  0  0  0  0  0
   37.0640   27.7760   32.9360 C   0  0  0  0  0  0  0  0  0  0  0  0
   37.9270   27.1960   32.0280 C   0  0  0  0  0  0  0  0  0  0  0  0
   38.0200   27.7050   30.7440 C   0  0  0  0  0  0  0  0  0  0  0  0
   37.2440   28.7970   30.3780 C   0  0  0  0  0  0  0  0  0  0  0  0
   36.3900   29.3650   31.2910 C   0  0  0  0  0  0  0  0  0  0  0  0
   36.3130   28.8430   32.5600 C   0  0  0  0  0  0  0  0  0  0  0  0
   38.6720   27.3020   29.9830 H   0  0  0  0  0  0  0  0  0  0  0  0
   37.3220   29.1920   29.3670 H   0  0  0  0  0  0  0  0  0  0  0  0
   35.7790   30.2130   31.0280 H   0  0  0  0  0  0  0  0  0  0  0  0
   35.3910   29.4640   33.5330 C   0  0  0  0  0  0  0  0  0  0  0  0
   35.6330   30.4670   34.4450 C   0  0  0  0  0  0  0  0  0  0  0  0
   34.4320   30.6880   35.1250 C   0  0  0  0  0  0  0  0  0  0  0  0
   33.5410   29.8040   34.5810 C   0  0  0  0  0  0  0  0  0  0  0  0
   34.1280   29.0870   33.6410 O   0  0  0  0  0  0  0  0  0  0  0  0
   36.6200   30.8910   34.4910 H   0  0  0  0  0  0  0  0  0  0  0  0
   34.4480   31.4550   35.8870 H   0  0  0  0  0  0  0  0  0  0  0  0
   32.5280   29.7870   34.9520 H   0  0  0  0  0  0  0  0  0  0  0  0
   36.9930   26.7250   35.2950 N   0  0  0  0  0  0  0  0  0  0  0  0
   37.0200   27.1980   34.2440 C   0  0  0  0  0  0  0  0  0  0  0  0
   38.6020   24.8930   31.6760 C   0  0  0  0  0  0  0  0  0  0  0  0
   38.3410   23.8920   32.6160 C   0  0  0  0  0  0  0  0  0  0  0  0
   38.1530   22.5780   32.2160 C   0  0  0  0  0  0  0  0  0  0  0  0
   38.2320   22.3140   30.8830 N   0  0  0  0  0  0  0  0  0  0  0  0
   38.4860   23.3040   29.9820 C   0  0  0  0  0  0  0  0  0  0  0  0
   38.6630   24.5470   30.3820 N   0  0  0  0  0  0  0  0  0  0  0  0
   37.9510   21.7620   32.8770 H   0  0  0  0  0  0  0  0  0  0  0  0
   38.5500   23.0890   28.9110 H   0  0  0  0  0  0  0  0  0  0  0  0
   39.4060   23.9450   34.8100 C   0  0  0  0  0  0  0  0  0  0  0  0
   40.6110   23.5500   34.5800 O   0  0  0  0  0  0  0  0  0  0  0  0
   38.2430   24.0750   34.0010 N   0  0  0  0  0  0  0  0  0  0  0  0
   37.3840   24.2990   34.4890 H   0  0  0  0  0  0  0  0  0  0  0  0
   39.3700   24.2860   36.1600 O   0  0  0  0  0  0  0  0  0  0  0  0
   37.7650   24.2990   38.3090 O   0  0  0  0  0  0  0  0  0  0  0  0
   38.4730   23.3870   37.3150 P   0  0  0  0  0  0  0  0  0  0  0  0
   37.3560   22.3490   36.6390 O   0  0  0  0  0  0  0  0  0  0  0  0
   36.4740   22.7450   36.7150 H   0  0  0  0  0  0  0  0  0  0  0  0
   39.6240   22.5270   38.2400 O   0  0  0  0  0  0  0  0  0  0  0  0
   40.2350   23.2330   38.6200 H   0  0  0  0  0  0  0  0  0  0  0  0
  2 20  1  0  0  0  0
  3  1  1  0  0  0  0
  3  2  2  0  0  0  0
  4  3  1  0  0  0  0
  5  4  2  0  0  0  0
  5  6  1  0  0  0  0
  6  7  2  0  0  0  0
  7  2  1  0  0  0  0
  7 11  1  0  0  0  0
  8  4  1  0  0  0  0
  9  5  1  0  0  0  0
 10  6  1  0  0  0  0
 11 15  1  0  0  0  0
 11 12  2  0  0  0  0
 12 16  1  0  0  0  0
 12 13  1  0  0  0  0
 13 17  1  0  0  0  0
 14 18  1  0  0  0  0
 14 13  2  0  0  0  0
 15 14  1  0  0  0  0
 20 19  3  0  0  0  0
 21  1  1  0  0  0  0
 21 22  1  0  0  0  0
 22 31  1  0  0  0  0
 23 22  2  0  0  0  0
 23 27  1  0  0  0  0
 24 23  1  0  0  0  0
 25 26  1  0  0  0  0
 25 24  2  0  0  0  0
 26 21  2  0  0  0  0
 28 25  1  0  0  0  0
 29 33  1  0  0  0  0
 30 29  2  0  0  0  0
 31 32  1  0  0  0  0
 31 29  1  0  0  0  0
 33 35  1  0  0  0  0
 35 38  1  0  0  0  0
 35 34  2  0  0  0  0
 36 37  1  0  0  0  0
 36 35  1  0  0  0  0
 38 39  1  0  0  0  0
M  END
>  <minimizedAffinity>
-5.53604364

$$$$

 OpenBabel03272507433D

 39 41  0  0  0  0  0  0  0  0999 V2000
   37.6650   25.7750   33.5420 O   0  0  0  0  0  0  0  0  0  0  0  0
   36.9150   23.7120   32.4050 C   0  0  0  0  0  0  0  0  0  0  0  0
   36.9040   25.0760   32.6160 C   0  0  0  0  0  0  0  0  0  0  0  0
   36.0720   25.8830   31.8590 C   0  0  0  0  0  0  0  0  0  0  0  0
   35.2540   25.3150   30.8920 C   0  0  0  0  0  0  0  0  0  0  0  0
   35.2740   23.9560   30.6930 C   0  0  0  0  0  0  0  0  0  0  0  0
   36.1080   23.1740   31.4560 C   0  0  0  0  0  0  0  0  0  0  0  0
   36.0130   26.9560   31.9690 H   0  0  0  0  0  0  0  0  0  0  0  0
   34.6030   25.9550   30.3010 H   0  0  0  0  0  0  0  0  0  0  0  0
   34.6470   23.4940   29.9490 H   0  0  0  0  0  0  0  0  0  0  0  0
   36.1200   21.7130   31.2320 C   0  0  0  0  0  0  0  0  0  0  0  0
   35.2710   20.7490   31.7280 C   0  0  0  0  0  0  0  0  0  0  0  0
   35.7130   19.5260   31.2160 C   0  0  0  0  0  0  0  0  0  0  0  0
   36.8010   19.8290   30.4450 C   0  0  0  0  0  0  0  0  0  0  0  0
   37.0270   21.1280   30.4670 O   0  0  0  0  0  0  0  0  0  0  0  0
   34.4680   21.0570   32.3740 H   0  0  0  0  0  0  0  0  0  0  0  0
   35.1480   18.6520   31.5120 H   0  0  0  0  0  0  0  0  0  0  0  0
   37.3210   19.0310   29.9380 H   0  0  0  0  0  0  0  0  0  0  0  0
   38.5180   22.3280   33.8860 N   0  0  0  0  0  0  0  0  0  0  0  0
   37.7990   22.9400   33.2240 C   0  0  0  0  0  0  0  0  0  0  0  0
   38.9420   26.1780   33.3360 C   0  0  0  0  0  0  0  0  0  0  0  0
   39.8000   25.7410   34.3490 C   0  0  0  0  0  0  0  0  0  0  0  0
   41.1500   26.0540   34.3160 C   0  0  0  0  0  0  0  0  0  0  0  0
   41.5930   26.7960   33.2640 N   0  0  0  0  0  0  0  0  0  0  0  0
   40.7400   27.2120   32.2860 C   0  0  0  0  0  0  0  0  0  0  0  0
   39.4600   26.9050   32.3360 N   0  0  0  0  0  0  0  0  0  0  0  0
   41.8640   25.7550   35.0540 H   0  0  0  0  0  0  0  0  0  0  0  0
   41.0990   27.8090   31.4420 H   0  0  0  0  0  0  0  0  0  0  0  0
   38.6500   25.5700   36.4930 C   0  0  0  0  0  0  0  0  0  0  0  0
   38.2650   26.7770   36.7360 O   0  0  0  0  0  0  0  0  0  0  0  0
   39.4300   24.9770   35.4630 N   0  0  0  0  0  0  0  0  0  0  0  0
   39.6800   24.0050   35.5980 H   0  0  0  0  0  0  0  0  0  0  0  0
   38.1280   24.7920   37.5230 O   0  0  0  0  0  0  0  0  0  0  0  0
   40.0810   22.9520   37.4860 O   0  0  0  0  0  0  0  0  0  0  0  0
   38.5990   23.1610   37.7760 P   0  0  0  0  0  0  0  0  0  0  0  0
   38.2600   22.5930   39.3070 O   0  0  0  0  0  0  0  0  0  0  0  0
   39.0780   22.5890   39.8280 H   0  0  0  0  0  0  0  0  0  0  0  0
   37.7800   22.2440   36.5900 O   0  0  0  0  0  0  0  0  0  0  0  0
   38.0610   22.6450   35.7080 H   0  0  0  0  0  0  0  0  0  0  0  0
  2  3  1  0  0  0  0
  2 20  1  0  0  0  0
  3  1  1  0  0  0  0
  4  8  1  0  0  0  0
  4  3  2  0  0  0  0
  5  4  1  0  0  0  0
  6  5  2  0  0  0  0
  6  7  1  0  0  0  0
  7  2  2  0  0  0  0
  9  5  1  0  0  0  0
 10  6  1  0  0  0  0
 11  7  1  0  0  0  0
 11 12  2  0  0  0  0
 12 16  1  0  0  0  0
 13 17  1  0  0  0  0
 13 12  1  0  0  0  0
 14 15  1  0  0  0  0
 14 13  2  0  0  0  0
 15 11  1  0  0  0  0
 18 14  1  0  0  0  0
 20 19  3  0  0  0  0
 21  1  1  0  0  0  0
 21 22  1  0  0  0  0
 22 31  1  0  0  0  0
 23 22  2  0  0  0  0
 23 27  1  0  0  0  0
 24 23  1  0  0  0  0
 25 26  1  0  0  0  0
 25 24  2  0  0  0  0
 26 21  2  0  0  0  0
 28 25  1  0  0  0  0
 29 30  2  0  0  0  0
 29 33  1  0  0  0  0
 31 32  1  0  0  0  0
 31 29  1  0  0  0  0
 33 35  1  0  0  0  0
 34 35  2  0  0  0  0
 35 36  1  0  0  0  0
 36 37  1  0  0  0  0
 38 35  1  0  0  0  0
 39 38  1  0  0  0  0
M  END
>  <minimizedAffinity>
-5.46296787

$$$$

 OpenBabel03272507433D

 39 41  0  0  0  0  0  0  0  0999 V2000
   37.4810   25.6180   32.3840 O   0  0  0  0  0  0  0  0  0  0  0  0
   38.0450   25.0020   34.7100 C   0  0  0  0  0  0  0  0  0  0  0  0
   37.7460   25.9090   33.7140 C   0  0  0  0  0  0  0  0  0  0  0  0
   37.6890   27.2610   34.0080 C   0  0  0  0  0  0  0  0  0  0  0  0
   37.9330   27.6940   35.3040 C   0  0  0  0  0  0  0  0  0  0  0  0
   38.2300   26.7810   36.2860 C   0  0  0  0  0  0  0  0  0  0  0  0
   38.2810   25.4440   35.9720 C   0  0  0  0  0  0  0  0  0  0  0  0
   37.4610   28.0250   33.2800 H   0  0  0  0  0  0  0  0  0  0  0  0
   37.8870   28.7580   35.5280 H   0  0  0  0  0  0  0  0  0  0  0  0
   38.4230   27.0970   37.2980 H   0  0  0  0  0  0  0  0  0  0  0  0
   38.6020   24.4720   37.0370 C   0  0  0  0  0  0  0  0  0  0  0  0
   37.9750   24.2670   38.2460 C   0  0  0  0  0  0  0  0  0  0  0  0
   38.6650   23.2330   38.8840 C   0  0  0  0  0  0  0  0  0  0  0  0
   39.6660   22.8800   38.0200 C   0  0  0  0  0  0  0  0  0  0  0  0
   39.6120   23.6250   36.9330 O   0  0  0  0  0  0  0  0  0  0  0  0
   37.1250   24.8780   38.4930 H   0  0  0  0  0  0  0  0  0  0  0  0
   38.2980   22.9430   39.8590 H   0  0  0  0  0  0  0  0  0  0  0  0
   40.3430   22.0880   38.3000 H   0  0  0  0  0  0  0  0  0  0  0  0
   38.1150   22.5120   34.0220 N   0  0  0  0  0  0  0  0  0  0  0  0
   38.0870   23.6220   34.3340 C   0  0  0  0  0  0  0  0  0  0  0  0
   38.4310   25.3750   31.4490 C   0  0  0  0  0  0  0  0  0  0  0  0
   38.0500   24.3640   30.5630 C   0  0  0  0  0  0  0  0  0  0  0  0
   38.8910   23.9710   29.5340 C   0  0  0  0  0  0  0  0  0  0  0  0
   40.0880   24.6100   29.4280 N   0  0  0  0  0  0  0  0  0  0  0  0
   40.4410   25.5950   30.3010 C   0  0  0  0  0  0  0  0  0  0  0  0
   39.6280   25.9530   31.2740 N   0  0  0  0  0  0  0  0  0  0  0  0
   38.6660   23.2070   28.8200 H   0  0  0  0  0  0  0  0  0  0  0  0
   41.4050   26.1060   30.2140 H   0  0  0  0  0  0  0  0  0  0  0  0
   36.8550   22.2550   30.8430 C   0  0  0  0  0  0  0  0  0  0  0  0
   37.7930   21.3760   30.9300 O   0  0  0  0  0  0  0  0  0  0  0  0
   36.8410   23.6570   30.5990 N   0  0  0  0  0  0  0  0  0  0  0  0
   35.9290   24.0750   30.4600 H   0  0  0  0  0  0  0  0  0  0  0  0
   35.6650   21.5620   31.0510 O   0  0  0  0  0  0  0  0  0  0  0  0
   34.1880   19.5500   32.0340 O   0  0  0  0  0  0  0  0  0  0  0  0
   35.5490   20.2290   32.1260 P   0  0  0  0  0  0  0  0  0  0  0  0
   36.7430   19.0840   31.9080 O   0  0  0  0  0  0  0  0  0  0  0  0
   36.3710   18.3320   31.4220 H   0  0  0  0  0  0  0  0  0  0  0  0
   35.6140   20.8870   33.7010 O   0  0  0  0  0  0  0  0  0  0  0  0
   34.8510   21.5440   33.7430 H   0  0  0  0  0  0  0  0  0  0  0  0
  1  3  1  0  0  0  0
  2  7  1  0  0  0  0
  3  4  1  0  0  0  0
  3  2  2  0  0  0  0
  4  5  2  0  0  0  0
  5  9  1  0  0  0  0
  5  6  1  0  0  0  0
  6 10  1  0  0  0  0
  7  6  2  0  0  0  0
  7 11  1  0  0  0  0
  8  4  1  0  0  0  0
 11 12  2  0  0  0  0
 12 16  1  0  0  0  0
 12 13  1  0  0  0  0
 13 17  1  0  0  0  0
 14 18  1  0  0  0  0
 14 13  2  0  0  0  0
 15 11  1  0  0  0  0
 15 14  1  0  0  0  0
 19 20  3  0  0  0  0
 20  2  1  0  0  0  0
 21  1  1  0  0  0  0
 22 31  1  0  0  0  0
 22 21  2  0  0  0  0
 23 22  1  0  0  0  0
 24 23  2  0  0  0  0
 24 25  1  0  0  0  0
 25 26  2  0  0  0  0
 26 21  1  0  0  0  0
 27 23  1  0  0  0  0
 28 25  1  0  0  0  0
 29 30  2  0  0  0  0
 29 33  1  0  0  0  0
 31 29  1  0  0  0  0
 32 31  1  0  0  0  0
 33 35  1  0  0  0  0
 34 35  2  0  0  0  0
 35 38  1  0  0  0  0
 36 35  1  0  0  0  0
 37 36  1  0  0  0  0
 38 39  1  0  0  0  0
M  END
>  <minimizedAffinity>
-5.45211315

$$$$

 OpenBabel03272507433D

 39 41  0  0  0  0  0  0  0  0999 V2000
   36.5570   26.8140   32.6730 O   0  0  0  0  0  0  0  0  0  0  0  0
   37.9720   25.4150   34.1390 C   0  0  0  0  0  0  0  0  0  0  0  0
   37.3090   26.5810   33.8150 C   0  0  0  0  0  0  0  0  0  0  0  0
   37.3610   27.6640   34.6760 C   0  0  0  0  0  0  0  0  0  0  0  0
   38.0800   27.5690   35.8590 C   0  0  0  0  0  0  0  0  0  0  0  0
   38.7350   26.4030   36.1690 C   0  0  0  0  0  0  0  0  0  0  0  0
   38.6700   25.3400   35.3000 C   0  0  0  0  0  0  0  0  0  0  0  0
   36.8670   28.6060   34.4870 H   0  0  0  0  0  0  0  0  0  0  0  0
   38.1160   28.4250   36.5310 H   0  0  0  0  0  0  0  0  0  0  0  0
   39.2990   26.3090   37.0820 H   0  0  0  0  0  0  0  0  0  0  0  0
   39.3800   24.0910   35.6450 C   0  0  0  0  0  0  0  0  0  0  0  0
   38.9760   23.0570   36.4600 C   0  0  0  0  0  0  0  0  0  0  0  0
   40.0090   22.1160   36.4540 C   0  0  0  0  0  0  0  0  0  0  0  0
   40.9720   22.6420   35.6370 C   0  0  0  0  0  0  0  0  0  0  0  0
   40.5810   23.8120   35.1680 O   0  0  0  0  0  0  0  0  0  0  0  0
   38.0130   23.1240   36.9340 H   0  0  0  0  0  0  0  0  0  0  0  0
   39.8520   21.2290   37.0520 H   0  0  0  0  0  0  0  0  0  0  0  0
   41.8820   22.0860   35.4740 H   0  0  0  0  0  0  0  0  0  0  0  0
   37.7860   23.4650   32.4540 N   0  0  0  0  0  0  0  0  0  0  0  0
   37.8750   24.3370   33.2030 C   0  0  0  0  0  0  0  0  0  0  0  0
   36.8500   27.7530   31.7410 C   0  0  0  0  0  0  0  0  0  0  0  0
   35.8290   28.7000   31.6110 C   0  0  0  0  0  0  0  0  0  0  0  0
   35.9440   29.7420   30.7050 C   0  0  0  0  0  0  0  0  0  0  0  0
   37.0820   29.8000   29.9600 N   0  0  0  0  0  0  0  0  0  0  0  0
   38.0650   28.8670   30.1030 C   0  0  0  0  0  0  0  0  0  0  0  0
   37.9370   27.8830   30.9680 N   0  0  0  0  0  0  0  0  0  0  0  0
   35.2060   30.5010   30.5520 H   0  0  0  0  0  0  0  0  0  0  0  0
   38.9790   28.9150   29.5020 H   0  0  0  0  0  0  0  0  0  0  0  0
   34.4720   29.6360   33.4090 C   0  0  0  0  0  0  0  0  0  0  0  0
   35.2720   30.4480   34.0110 O   0  0  0  0  0  0  0  0  0  0  0  0
   34.6300   28.7160   32.3350 N   0  0  0  0  0  0  0  0  0  0  0  0
   33.8420   28.1070   32.1500 H   0  0  0  0  0  0  0  0  0  0  0  0
   33.2370   29.7880   34.0320 O   0  0  0  0  0  0  0  0  0  0  0  0
   30.5620   29.9870   34.0810 O   0  0  0  0  0  0  0  0  0  0  0  0
   31.7520   29.7000   33.1740 P   0  0  0  0  0  0  0  0  0  0  0  0
   31.6820   30.7110   31.8490 O   0  0  0  0  0  0  0  0  0  0  0  0
   31.1520   31.4900   32.0770 H   0  0  0  0  0  0  0  0  0  0  0  0
   31.5740   28.0670   32.7070 O   0  0  0  0  0  0  0  0  0  0  0  0
   31.6080   27.5420   33.5680 H   0  0  0  0  0  0  0  0  0  0  0  0
  1  3  1  0  0  0  0
  2  7  1  0  0  0  0
  3  2  2  0  0  0  0
  3  4  1  0  0  0  0
  4  5  2  0  0  0  0
  5  6  1  0  0  0  0
  5  9  1  0  0  0  0
  6 10  1  0  0  0  0
  7 11  1  0  0  0  0
  7  6  2  0  0  0  0
  8  4  1  0  0  0  0
 11 12  2  0  0  0  0
 12 16  1  0  0  0  0
 13 12  1  0  0  0  0
 13 17  1  0  0  0  0
 14 13  2  0  0  0  0
 15 14  1  0  0  0  0
 15 11  1  0  0  0  0
 18 14  1  0  0  0  0
 19 20  3  0  0  0  0
 20  2  1  0  0  0  0
 21  1  1  0  0  0  0
 22 21  1  0  0  0  0
 22 31  1  0  0  0  0
 23 22  2  0  0  0  0
 24 25  2  0  0  0  0
 24 23  1  0  0  0  0
 25 26  1  0  0  0  0
 26 21  2  0  0  0  0
 27 23  1  0  0  0  0
 28 25  1  0  0  0  0
 29 30  2  0  0  0  0
 29 33  1  0  0  0  0
 31 29  1  0  0  0  0
 32 31  1  0  0  0  0
 35 33  1  0  0  0  0
 35 34  2  0  0  0  0
 36 37  1  0  0  0  0
 36 35  1  0  0  0  0
 38 35  1  0  0  0  0
 38 39  1  0  0  0  0
M  END
>  <minimizedAffinity>
-5.42460012

$$$$

 OpenBabel03272507433D

 39 41  0  0  0  0  0  0  0  0999 V2000
   37.1700   27.6180   31.5110 O   0  0  0  0  0  0  0  0  0  0  0  0
   36.1830   29.2550   33.0790 C   0  0  0  0  0  0  0  0  0  0  0  0
   36.5210   28.8060   31.8190 C   0  0  0  0  0  0  0  0  0  0  0  0
   36.2070   29.5700   30.7080 C   0  0  0  0  0  0  0  0  0  0  0  0
   35.5550   30.7850   30.8700 C   0  0  0  0  0  0  0  0  0  0  0  0
   35.2250   31.2210   32.1300 C   0  0  0  0  0  0  0  0  0  0  0  0
   35.5450   30.4450   33.2190 C   0  0  0  0  0  0  0  0  0  0  0  0
   36.4400   29.2810   29.6940 H   0  0  0  0  0  0  0  0  0  0  0  0
   35.3120   31.3810   29.9930 H   0  0  0  0  0  0  0  0  0  0  0  0
   34.7190   32.1600   32.2780 H   0  0  0  0  0  0  0  0  0  0  0  0
   35.1850   30.9260   34.5680 C   0  0  0  0  0  0  0  0  0  0  0  0
   35.9530   31.6120   35.4820 C   0  0  0  0  0  0  0  0  0  0  0  0
   35.1460   31.8290   36.6020 C   0  0  0  0  0  0  0  0  0  0  0  0
   33.9410   31.2580   36.2940 C   0  0  0  0  0  0  0  0  0  0  0  0
   33.9840   30.7280   35.0860 O   0  0  0  0  0  0  0  0  0  0  0  0
   36.9670   31.8570   35.2180 H   0  0  0  0  0  0  0  0  0  0  0  0
   35.6010   32.3630   37.4240 H   0  0  0  0  0  0  0  0  0  0  0  0
   33.1430   31.2980   37.0180 H   0  0  0  0  0  0  0  0  0  0  0  0
   36.8230   27.7250   35.0610 N   0  0  0  0  0  0  0  0  0  0  0  0
   36.5380   28.4130   34.1810 C   0  0  0  0  0  0  0  0  0  0  0  0
   36.5650   26.4080   31.4540 C   0  0  0  0  0  0  0  0  0  0  0  0
   37.2600   25.4390   32.1850 C   0  0  0  0  0  0  0  0  0  0  0  0
   36.7970   24.1340   32.2480 C   0  0  0  0  0  0  0  0  0  0  0  0
   35.6490   23.8460   31.5740 N   0  0  0  0  0  0  0  0  0  0  0  0
   34.9870   24.8040   30.8680 C   0  0  0  0  0  0  0  0  0  0  0  0
   35.4430   26.0390   30.8200 N   0  0  0  0  0  0  0  0  0  0  0  0
   37.2750   23.3430   32.7860 H   0  0  0  0  0  0  0  0  0  0  0  0
   34.0650   24.5690   30.3270 H   0  0  0  0  0  0  0  0  0  0  0  0
   39.6900   25.6500   32.2200 C   0  0  0  0  0  0  0  0  0  0  0  0
   40.0430   25.3630   31.0150 O   0  0  0  0  0  0  0  0  0  0  0  0
   38.4430   25.6490   32.9050 N   0  0  0  0  0  0  0  0  0  0  0  0
   38.4840   25.8050   33.9050 H   0  0  0  0  0  0  0  0  0  0  0  0
   40.8580   26.0220   32.8800 O   0  0  0  0  0  0  0  0  0  0  0  0
   40.4870   24.7120   35.1920 O   0  0  0  0  0  0  0  0  0  0  0  0
   40.9930   26.0180   34.5910 P   0  0  0  0  0  0  0  0  0  0  0  0
   42.5400   26.3060   35.1440 O   0  0  0  0  0  0  0  0  0  0  0  0
   42.9370   25.4650   35.4170 H   0  0  0  0  0  0  0  0  0  0  0  0
   39.9110   27.2150   35.1520 O   0  0  0  0  0  0  0  0  0  0  0  0
   39.0100   26.9460   34.7880 H   0  0  0  0  0  0  0  0  0  0  0  0
  1  3  1  0  0  0  0
  2  7  1  0  0  0  0
  2 20  1  0  0  0  0
  3  2  2  0  0  0  0
  4  5  2  0  0  0  0
  4  3  1  0  0  0  0
  5  6  1  0  0  0  0
  6 10  1  0  0  0  0
  6  7  2  0  0  0  0
  7 11  1  0  0  0  0
  8  4  1  0  0  0  0
  9  5  1  0  0  0  0
 11 15  1  0  0  0  0
 11 12  2  0  0  0  0
 12 13  1  0  0  0  0
 13 17  1  0  0  0  0
 14 13  2  0  0  0  0
 14 18  1  0  0  0  0
 15 14  1  0  0  0  0
 16 12  1  0  0  0  0
 20 19  3  0  0  0  0
 21  1  1  0  0  0  0
 21 22  1  0  0  0  0
 22 23  2  0  0  0  0
 22 31  1  0  0  0  0
 23 27  1  0  0  0  0
 24 23  1  0  0  0  0
 25 24  2  0  0  0  0
 26 25  1  0  0  0  0
 26 21  2  0  0  0  0
 28 25  1  0  0  0  0
 29 33  1  0  0  0  0
 29 31  1  0  0  0  0
 30 29  2  0  0  0  0
 31 32  1  0  0  0  0
 33 35  1  0  0  0  0
 35 36  1  0  0  0  0
 35 38  1  0  0  0  0
 35 34  2  0  0  0  0
 36 37  1  0  0  0  0
 39 38  1  0  0  0  0
M  END
>  <minimizedAffinity>
-5.35175657

$$$$

 OpenBabel03272507433D

 39 41  0  0  0  0  0  0  0  0999 V2000
   37.5910   26.6420   32.5480 O   0  0  0  0  0  0  0  0  0  0  0  0
   36.5390   28.8430   32.1470 C   0  0  0  0  0  0  0  0  0  0  0  0
   36.9440   27.8000   32.9550 C   0  0  0  0  0  0  0  0  0  0  0  0
   36.7120   27.8550   34.3190 C   0  0  0  0  0  0  0  0  0  0  0  0
   36.0720   28.9600   34.8640 C   0  0  0  0  0  0  0  0  0  0  0  0
   35.6740   29.9910   34.0490 C   0  0  0  0  0  0  0  0  0  0  0  0
   35.9150   29.9150   32.6980 C   0  0  0  0  0  0  0  0  0  0  0  0
   37.0010   27.0770   35.0100 H   0  0  0  0  0  0  0  0  0  0  0  0
   35.8920   28.9970   35.9370 H   0  0  0  0  0  0  0  0  0  0  0  0
   35.1750   30.8570   34.4510 H   0  0  0  0  0  0  0  0  0  0  0  0
   35.4810   31.0300   31.8310 C   0  0  0  0  0  0  0  0  0  0  0  0
   34.2370   31.2870   31.3000 C   0  0  0  0  0  0  0  0  0  0  0  0
   34.3560   32.4630   30.5530 C   0  0  0  0  0  0  0  0  0  0  0  0
   35.6640   32.8410   30.6810 C   0  0  0  0  0  0  0  0  0  0  0  0
   36.3150   31.9800   31.4400 O   0  0  0  0  0  0  0  0  0  0  0  0
   33.4350   30.6060   31.5210 H   0  0  0  0  0  0  0  0  0  0  0  0
   33.4570   32.8100   30.0620 H   0  0  0  0  0  0  0  0  0  0  0  0
   36.0010   33.7370   30.1820 H   0  0  0  0  0  0  0  0  0  0  0  0
   37.0250   28.6090   29.6200 N   0  0  0  0  0  0  0  0  0  0  0  0
   36.8130   28.7180   30.7480 C   0  0  0  0  0  0  0  0  0  0  0  0
   36.9600   25.4940   32.2020 C   0  0  0  0  0  0  0  0  0  0  0  0
   37.5690   24.3700   32.7680 C   0  0  0  0  0  0  0  0  0  0  0  0
   37.0670   23.1000   32.5290 C   0  0  0  0  0  0  0  0  0  0  0  0
   35.9700   23.0020   31.7300 N   0  0  0  0  0  0  0  0  0  0  0  0
   35.3910   24.1100   31.1880 C   0  0  0  0  0  0  0  0  0  0  0  0
   35.8830   25.3090   31.4260 N   0  0  0  0  0  0  0  0  0  0  0  0
   37.4790   22.1970   32.9270 H   0  0  0  0  0  0  0  0  0  0  0  0
   34.5090   24.0290   30.5450 H   0  0  0  0  0  0  0  0  0  0  0  0
   38.5270   24.3770   35.0110 C   0  0  0  0  0  0  0  0  0  0  0  0
   37.5030   24.4970   35.7850 O   0  0  0  0  0  0  0  0  0  0  0  0
   38.6960   24.3800   33.5990 N   0  0  0  0  0  0  0  0  0  0  0  0
   39.6530   24.3900   33.2660 H   0  0  0  0  0  0  0  0  0  0  0  0
   39.6230   24.2180   35.8550 O   0  0  0  0  0  0  0  0  0  0  0  0
   41.1780   22.0760   36.2970 O   0  0  0  0  0  0  0  0  0  0  0  0
   39.9000   22.7760   36.7450 P   0  0  0  0  0  0  0  0  0  0  0  0
   39.9580   23.0080   38.3960 O   0  0  0  0  0  0  0  0  0  0  0  0
   40.8840   23.0000   38.6820 H   0  0  0  0  0  0  0  0  0  0  0  0
   38.6350   21.7090   36.3220 O   0  0  0  0  0  0  0  0  0  0  0  0
   38.6940   21.6170   35.3190 H   0  0  0  0  0  0  0  0  0  0  0  0
  1  3  1  0  0  0  0
  2  7  2  0  0  0  0
  2  3  1  0  0  0  0
  3  4  2  0  0  0  0
  4  5  1  0  0  0  0
  4  8  1  0  0  0  0
  5  9  1  0  0  0  0
  6 10  1  0  0  0  0
  6  5  2  0  0  0  0
  7  6  1  0  0  0  0
 11  7  1  0  0  0  0
 12 16  1  0  0  0  0
 12 11  2  0  0  0  0
 13 14  2  0  0  0  0
 13 12  1  0  0  0  0
 14 15  1  0  0  0  0
 15 11  1  0  0  0  0
 17 13  1  0  0  0  0
 18 14  1  0  0  0  0
 19 20  3  0  0  0  0
 20  2  1  0  0  0  0
 21  1  1  0  0  0  0
 21 22  1  0  0  0  0
 22 31  1  0  0  0  0
 23 22  2  0  0  0  0
 23 27  1  0  0  0  0
 24 23  1  0  0  0  0
 25 26  1  0  0  0  0
 25 24  2  0  0  0  0
 26 21  2  0  0  0  0
 28 25  1  0  0  0  0
 29 30  2  0  0  0  0
 29 33  1  0  0  0  0
 31 29  1  0  0  0  0
 32 31  1  0  0  0  0
 33 35  1  0  0  0  0
 34 35  2  0  0  0  0
 35 36  1  0  0  0  0
 36 37  1  0  0  0  0
 38 35  1  0  0  0  0
 39 38  1  0  0  0  0
M  END
>  <minimizedAffinity>
-5.33656502

$$$$

 OpenBabel03272507433D

 39 41  0  0  0  0  0  0  0  0999 V2000
   37.4930   27.5210   32.4980 O   0  0  0  0  0  0  0  0  0  0  0  0
   38.1020   25.6640   34.0120 C   0  0  0  0  0  0  0  0  0  0  0  0
   37.5820   26.1800   32.8420 C   0  0  0  0  0  0  0  0  0  0  0  0
   37.0830   25.3240   31.8740 C   0  0  0  0  0  0  0  0  0  0  0  0
   37.1100   23.9530   32.0870 C   0  0  0  0  0  0  0  0  0  0  0  0
   37.6290   23.4530   33.2560 C   0  0  0  0  0  0  0  0  0  0  0  0
   38.1190   24.3200   34.2030 C   0  0  0  0  0  0  0  0  0  0  0  0
   36.6630   25.6580   30.9360 H   0  0  0  0  0  0  0  0  0  0  0  0
   36.7160   23.2870   31.3230 H   0  0  0  0  0  0  0  0  0  0  0  0
   37.6580   22.3920   33.4420 H   0  0  0  0  0  0  0  0  0  0  0  0
   38.6750   23.7700   35.4570 C   0  0  0  0  0  0  0  0  0  0  0  0
   39.9160   23.2220   35.6920 C   0  0  0  0  0  0  0  0  0  0  0  0
   39.9420   22.8530   37.0390 C   0  0  0  0  0  0  0  0  0  0  0  0
   38.7150   23.2010   37.5330 C   0  0  0  0  0  0  0  0  0  0  0  0
   37.9780   23.7420   36.5800 O   0  0  0  0  0  0  0  0  0  0  0  0
   40.6150   23.1670   34.8760 H   0  0  0  0  0  0  0  0  0  0  0  0
   40.8580   22.4010   37.3940 H   0  0  0  0  0  0  0  0  0  0  0  0
   38.4950   23.0100   38.5710 H   0  0  0  0  0  0  0  0  0  0  0  0
   39.0070   27.3580   35.7400 N   0  0  0  0  0  0  0  0  0  0  0  0
   38.5990   26.6060   34.9670 C   0  0  0  0  0  0  0  0  0  0  0  0
   36.4520   28.3260   32.8170 C   0  0  0  0  0  0  0  0  0  0  0  0
   35.8620   28.8950   31.6840 C   0  0  0  0  0  0  0  0  0  0  0  0
   34.7790   29.7520   31.8070 C   0  0  0  0  0  0  0  0  0  0  0  0
   34.3230   30.0070   33.0640 N   0  0  0  0  0  0  0  0  0  0  0  0
   34.9120   29.4410   34.1540 C   0  0  0  0  0  0  0  0  0  0  0  0
   35.9410   28.6300   34.0180 N   0  0  0  0  0  0  0  0  0  0  0  0
   34.2790   30.2230   30.9870 H   0  0  0  0  0  0  0  0  0  0  0  0
   34.5440   29.6480   35.1640 H   0  0  0  0  0  0  0  0  0  0  0  0
   37.1090   29.6410   29.7250 C   0  0  0  0  0  0  0  0  0  0  0  0
   37.5360   30.8120   30.0560 O   0  0  0  0  0  0  0  0  0  0  0  0
   36.2650   28.6880   30.3590 N   0  0  0  0  0  0  0  0  0  0  0  0
   35.9970   27.8890   29.7980 H   0  0  0  0  0  0  0  0  0  0  0  0
   37.6590   29.3780   28.4730 O   0  0  0  0  0  0  0  0  0  0  0  0
   40.2520   29.0390   29.0700 O   0  0  0  0  0  0  0  0  0  0  0  0
   39.0930   28.4560   28.2710 P   0  0  0  0  0  0  0  0  0  0  0  0
   38.9170   26.8450   28.6650 O   0  0  0  0  0  0  0  0  0  0  0  0
   39.3070   26.6920   29.5400 H   0  0  0  0  0  0  0  0  0  0  0  0
   39.5430   28.6380   26.6330 O   0  0  0  0  0  0  0  0  0  0  0  0
   39.6450   29.6320   26.4980 H   0  0  0  0  0  0  0  0  0  0  0  0
  1 21  1  0  0  0  0
  1  3  1  0  0  0  0
  2  7  1  0  0  0  0
  2 20  1  0  0  0  0
  3  2  2  0  0  0  0
  4  5  2  0  0  0  0
  4  3  1  0  0  0  0
  5  6  1  0  0  0  0
  6 10  1  0  0  0  0
  6  7  2  0  0  0  0
  7 11  1  0  0  0  0
  8  4  1  0  0  0  0
  9  5  1  0  0  0  0
 11 12  2  0  0  0  0
 11 15  1  0  0  0  0
 12 13  1  0  0  0  0
 13 17  1  0  0  0  0
 13 14  2  0  0  0  0
 14 18  1  0  0  0  0
 15 14  1  0  0  0  0
 16 12  1  0  0  0  0
 20 19  3  0  0  0  0
 21 26  1  0  0  0  0
 22 23  1  0  0  0  0
 22 21  2  0  0  0  0
 23 24  2  0  0  0  0
 24 25  1  0  0  0  0
 25 28  1  0  0  0  0
 26 25  2  0  0  0  0
 27 23  1  0  0  0  0
 29 30  2  0  0  0  0
 29 31  1  0  0  0  0
 31 22  1  0  0  0  0
 32 31  1  0  0  0  0
 33 29  1  0  0  0  0
 35 33  1  0  0  0  0
 35 36  1  0  0  0  0
 35 34  2  0  0  0  0
 36 37  1  0  0  0  0
 38 35  1  0  0  0  0
 39 38  1  0  0  0  0
M  END
>  <minimizedAffinity>
-5.32544041

$$$$

 OpenBabel03272507433D

 39 41  0  0  0  0  0  0  0  0999 V2000
   36.8740   26.6120   32.1980 O   0  0  0  0  0  0  0  0  0  0  0  0
   38.0200   25.4660   34.0650 C   0  0  0  0  0  0  0  0  0  0  0  0
   37.3950   26.5500   33.4830 C   0  0  0  0  0  0  0  0  0  0  0  0
   37.2420   27.7230   34.2010 C   0  0  0  0  0  0  0  0  0  0  0  0
   37.7180   27.8020   35.5020 C   0  0  0  0  0  0  0  0  0  0  0  0
   38.3380   26.7160   36.0690 C   0  0  0  0  0  0  0  0  0  0  0  0
   38.4800   25.5600   35.3380 C   0  0  0  0  0  0  0  0  0  0  0  0
   36.7630   28.6090   33.8090 H   0  0  0  0  0  0  0  0  0  0  0  0
   37.5940   28.7270   36.0610 H   0  0  0  0  0  0  0  0  0  0  0  0
   38.7160   26.7560   37.0780 H   0  0  0  0  0  0  0  0  0  0  0  0
   39.1490   24.3990   35.9600 C   0  0  0  0  0  0  0  0  0  0  0  0
   38.6700   23.5220   36.9060 C   0  0  0  0  0  0  0  0  0  0  0  0
   39.6940   22.6050   37.1580 C   0  0  0  0  0  0  0  0  0  0  0  0
   40.7280   22.9870   36.3470 C   0  0  0  0  0  0  0  0  0  0  0  0
   40.3860   24.0520   35.6460 O   0  0  0  0  0  0  0  0  0  0  0  0
   37.6690   23.6620   37.2750 H   0  0  0  0  0  0  0  0  0  0  0  0
   39.4800   21.8360   37.8870 H   0  0  0  0  0  0  0  0  0  0  0  0
   41.6450   22.4200   36.3660 H   0  0  0  0  0  0  0  0  0  0  0  0
   38.2550   23.3380   32.6170 N   0  0  0  0  0  0  0  0  0  0  0  0
   38.1440   24.2860   33.2640 C   0  0  0  0  0  0  0  0  0  0  0  0
   37.5400   27.0970   31.1240 C   0  0  0  0  0  0  0  0  0  0  0  0
   36.8100   28.0860   30.4570 C   0  0  0  0  0  0  0  0  0  0  0  0
   37.3260   28.7050   29.3290 C   0  0  0  0  0  0  0  0  0  0  0  0
   38.5600   28.3100   28.9090 N   0  0  0  0  0  0  0  0  0  0  0  0
   39.2550   27.3460   29.5740 C   0  0  0  0  0  0  0  0  0  0  0  0
   38.7470   26.7680   30.6440 N   0  0  0  0  0  0  0  0  0  0  0  0
   36.8260   29.4660   28.7690 H   0  0  0  0  0  0  0  0  0  0  0  0
   40.2460   27.0300   29.2340 H   0  0  0  0  0  0  0  0  0  0  0  0
   35.4200   29.7480   31.5760 C   0  0  0  0  0  0  0  0  0  0  0  0
   36.2700   30.5170   32.1660 O   0  0  0  0  0  0  0  0  0  0  0  0
   35.5390   28.5500   30.8190 N   0  0  0  0  0  0  0  0  0  0  0  0
   34.6710   28.0880   30.5770 H   0  0  0  0  0  0  0  0  0  0  0  0
   34.1710   30.3190   31.8040 O   0  0  0  0  0  0  0  0  0  0  0  0
   32.3880   31.0220   33.6810 O   0  0  0  0  0  0  0  0  0  0  0  0
   33.1610   29.8400   33.1070 P   0  0  0  0  0  0  0  0  0  0  0  0
   32.0850   28.6280   32.7130 O   0  0  0  0  0  0  0  0  0  0  0  0
   31.2080   29.0180   32.5780 H   0  0  0  0  0  0  0  0  0  0  0  0
   34.2100   29.3430   34.3590 O   0  0  0  0  0  0  0  0  0  0  0  0
   34.8010   30.1410   34.5390 H   0  0  0  0  0  0  0  0  0  0  0  0
  1  3  1  0  0  0  0
  2  7  1  0  0  0  0
  3  2  2  0  0  0  0
  3  4  1  0  0  0  0
  4  5  2  0  0  0  0
  5  9  1  0  0  0  0
  5  6  1  0  0  0  0
  6 10  1  0  0  0  0
  7 11  1  0  0  0  0
  7  6  2  0  0  0  0
  8  4  1  0  0  0  0
 11 12  2  0  0  0  0
 12 13  1  0  0  0  0
 12 16  1  0  0  0  0
 13 17  1  0  0  0  0
 14 18  1  0  0  0  0
 14 13  2  0  0  0  0
 15 11  1  0  0  0  0
 15 14  1  0  0  0  0
 19 20  3  0  0  0  0
 20  2  1  0  0  0  0
 21  1  1  0  0  0  0
 22 31  1  0  0  0  0
 22 21  2  0  0  0  0
 23 22  1  0  0  0  0
 24 23  2  0  0  0  0
 24 25  1  0  0  0  0
 25 26  2  0  0  0  0
 26 21  1  0  0  0  0
 27 23  1  0  0  0  0
 28 25  1  0  0  0  0
 29 33  1  0  0  0  0
 29 30  2  0  0  0  0
 31 29  1  0  0  0  0
 32 31  1  0  0  0  0
 33 35  1  0  0  0  0
 35 34  2  0  0  0  0
 35 38  1  0  0  0  0
 36 35  1  0  0  0  0
 37 36  1  0  0  0  0
 38 39  1  0  0  0  0
M  END
>  <minimizedAffinity>
-5.31847048

$$$$

 OpenBabel03272507433D

 39 41  0  0  0  0  0  0  0  0999 V2000
   35.6690   29.5610   33.3580 O   0  0  0  0  0  0  0  0  0  0  0  0
   33.7780   30.4920   34.6490 C   0  0  0  0  0  0  0  0  0  0  0  0
   35.1210   30.2960   34.3990 C   0  0  0  0  0  0  0  0  0  0  0  0
   36.0670   30.8640   35.2350 C   0  0  0  0  0  0  0  0  0  0  0  0
   35.6580   31.6280   36.3200 C   0  0  0  0  0  0  0  0  0  0  0  0
   34.3180   31.8150   36.5570 C   0  0  0  0  0  0  0  0  0  0  0  0
   33.3960   31.2420   35.7140 C   0  0  0  0  0  0  0  0  0  0  0  0
   37.1330   30.7530   35.1000 H   0  0  0  0  0  0  0  0  0  0  0  0
   36.4060   32.0720   36.9730 H   0  0  0  0  0  0  0  0  0  0  0  0
   33.9790   32.4030   37.3930 H   0  0  0  0  0  0  0  0  0  0  0  0
   31.9580   31.4500   35.9810 C   0  0  0  0  0  0  0  0  0  0  0  0
   31.2020   32.5910   35.8330 C   0  0  0  0  0  0  0  0  0  0  0  0
   29.8990   32.2610   36.2190 C   0  0  0  0  0  0  0  0  0  0  0  0
   29.9520   30.9420   36.5760 C   0  0  0  0  0  0  0  0  0  0  0  0
   31.1800   30.4800   36.4290 O   0  0  0  0  0  0  0  0  0  0  0  0
   31.6840   33.4830   35.4730 H   0  0  0  0  0  0  0  0  0  0  0  0
   29.1680   33.0550   36.1630 H   0  0  0  0  0  0  0  0  0  0  0  0
   29.0520   30.4550   36.9170 H   0  0  0  0  0  0  0  0  0  0  0  0
   32.1090   29.3740   33.0240 N   0  0  0  0  0  0  0  0  0  0  0  0
   32.8570   29.8750   33.7440 C   0  0  0  0  0  0  0  0  0  0  0  0
   36.1330   30.0970   32.2040 C   0  0  0  0  0  0  0  0  0  0  0  0
   36.4000   29.1190   31.2410 C   0  0  0  0  0  0  0  0  0  0  0  0
   36.8830   29.4710   29.9900 C   0  0  0  0  0  0  0  0  0  0  0  0
   37.0820   30.7960   29.7490 N   0  0  0  0  0  0  0  0  0  0  0  0
   36.8150   31.7330   30.7000 C   0  0  0  0  0  0  0  0  0  0  0  0
   36.3570   31.3790   31.8830 N   0  0  0  0  0  0  0  0  0  0  0  0
   37.1090   28.7790   29.2070 H   0  0  0  0  0  0  0  0  0  0  0  0
   36.9770   32.7980   30.5030 H   0  0  0  0  0  0  0  0  0  0  0  0
   37.2590   26.9660   32.0000 C   0  0  0  0  0  0  0  0  0  0  0  0
   38.4740   27.2220   32.3480 O   0  0  0  0  0  0  0  0  0  0  0  0
   36.2240   27.7390   31.4050 N   0  0  0  0  0  0  0  0  0  0  0  0
   35.3940   27.2300   31.1260 H   0  0  0  0  0  0  0  0  0  0  0  0
   37.0450   25.6290   32.3270 O   0  0  0  0  0  0  0  0  0  0  0  0
   36.0840   23.1640   31.8840 O   0  0  0  0  0  0  0  0  0  0  0  0
   36.3760   24.5030   31.2170 P   0  0  0  0  0  0  0  0  0  0  0  0
   34.9920   25.0470   30.4610 O   0  0  0  0  0  0  0  0  0  0  0  0
   34.2230   24.6290   30.8780 H   0  0  0  0  0  0  0  0  0  0  0  0
   37.6060   24.1760   30.0790 O   0  0  0  0  0  0  0  0  0  0  0  0
   38.3850   23.8370   30.6230 H   0  0  0  0  0  0  0  0  0  0  0  0
  1  3  1  0  0  0  0
  2  7  1  0  0  0  0
  3  2  2  0  0  0  0
  3  4  1  0  0  0  0
  4  5  2  0  0  0  0
  5  6  1  0  0  0  0
  5  9  1  0  0  0  0
  6 10  1  0  0  0  0
  7 11  1  0  0  0  0
  7  6  2  0  0  0  0
  8  4  1  0  0  0  0
 11 15  1  0  0  0  0
 12 11  2  0  0  0  0
 12 13  1  0  0  0  0
 13 14  2  0  0  0  0
 14 18  1  0  0  0  0
 15 14  1  0  0  0  0
 16 12  1  0  0  0  0
 17 13  1  0  0  0  0
 19 20  3  0  0  0  0
 20  2  1  0  0  0  0
 21  1  1  0  0  0  0
 22 31  1  0  0  0  0
 22 21  2  0  0  0  0
 23 22  1  0  0  0  0
 24 23  2  0  0  0  0
 24 25  1  0  0  0  0
 25 26  2  0  0  0  0
 26 21  1  0  0  0  0
 27 23  1  0  0  0  0
 28 25  1  0  0  0  0
 29 33  1  0  0  0  0
 29 30  2  0  0  0  0
 31 29  1  0  0  0  0
 32 31  1  0  0  0  0
 35 34  2  0  0  0  0
 35 33  1  0  0  0  0
 36 37  1  0  0  0  0
 36 35  1  0  0  0  0
 38 39  1  0  0  0  0
 38 35  1  0  0  0  0
M  END
>  <minimizedAffinity>
-5.22163773

$$$$
