
 OpenBabel03272507423D

 39 41  0  0  0  0  0  0  0  0999 V2000
   36.7230   32.2760   49.2970 O   0  0  0  0  0  0  0  0  0  0  0  0
   38.2260   32.2530   47.3350 C   0  0  0  0  0  0  0  0  0  0  0  0
   37.8410   32.6890   48.5860 C   0  0  0  0  0  0  0  0  0  0  0  0
   38.6060   33.6300   49.2540 C   0  0  0  0  0  0  0  0  0  0  0  0
   39.7550   34.1310   48.6580 C   0  0  0  0  0  0  0  0  0  0  0  0
   40.1270   33.6900   47.4120 C   0  0  0  0  0  0  0  0  0  0  0  0
   39.3530   32.7540   46.7680 C   0  0  0  0  0  0  0  0  0  0  0  0
   38.3650   34.0150   50.2340 H   0  0  0  0  0  0  0  0  0  0  0  0
   40.3510   34.8720   49.1880 H   0  0  0  0  0  0  0  0  0  0  0  0
   41.0150   34.0660   46.9320 H   0  0  0  0  0  0  0  0  0  0  0  0
   39.7640   32.2880   45.4270 C   0  0  0  0  0  0  0  0  0  0  0  0
   40.5910   31.2420   45.0850 C   0  0  0  0  0  0  0  0  0  0  0  0
   40.6560   31.2230   43.6890 C   0  0  0  0  0  0  0  0  0  0  0  0
   39.8640   32.2590   43.2770 C   0  0  0  0  0  0  0  0  0  0  0  0
   39.3460   32.8790   44.3210 O   0  0  0  0  0  0  0  0  0  0  0  0
   41.0230   30.6500   45.8730 H   0  0  0  0  0  0  0  0  0  0  0  0
   41.2730   30.4520   43.2490 H   0  0  0  0  0  0  0  0  0  0  0  0
   39.7560   32.4480   42.2200 H   0  0  0  0  0  0  0  0  0  0  0  0
   36.7080   30.5030   46.1920 N   0  0  0  0  0  0  0  0  0  0  0  0
   37.3890   31.2790   46.7050 C   0  0  0  0  0  0  0  0  0  0  0  0
   36.6920   31.2000   50.1190 C   0  0  0  0  0  0  0  0  0  0  0  0
   35.5820   30.3850   49.8760 C   0  0  0  0  0  0  0  0  0  0  0  0
   35.3750   29.2330   50.6180 C   0  0  0  0  0  0  0  0  0  0  0  0
   36.2920   28.9370   51.5800 N   0  0  0  0  0  0  0  0  0  0  0  0
   37.3680   29.7430   51.8000 C   0  0  0  0  0  0  0  0  0  0  0  0
   37.5470   30.8350   51.0850 N   0  0  0  0  0  0  0  0  0  0  0  0
   34.5510   28.5640   50.4890 H   0  0  0  0  0  0  0  0  0  0  0  0
   38.1030   29.5030   52.5750 H   0  0  0  0  0  0  0  0  0  0  0  0
   34.1740   29.5470   48.0690 C   0  0  0  0  0  0  0  0  0  0  0  0
   34.5980   28.3450   47.8770 O   0  0  0  0  0  0  0  0  0  0  0  0
   34.5940   30.6150   48.9100 N   0  0  0  0  0  0  0  0  0  0  0  0
   34.1400   31.5070   48.7570 H   0  0  0  0  0  0  0  0  0  0  0  0
   33.0820   29.7040   47.2200 O   0  0  0  0  0  0  0  0  0  0  0  0
   33.5370   30.5500   44.7160 O   0  0  0  0  0  0  0  0  0  0  0  0
   33.1520   29.3320   45.5470 P   0  0  0  0  0  0  0  0  0  0  0  0
   34.1870   28.0760   45.1810 O   0  0  0  0  0  0  0  0  0  0  0  0
   35.0090   28.4410   44.8220 H   0  0  0  0  0  0  0  0  0  0  0  0
   31.5520   28.9610   45.0770 O   0  0  0  0  0  0  0  0  0  0  0  0
   31.0120   29.7800   45.3170 H   0  0  0  0  0  0  0  0  0  0  0  0
  1 21  1  0  0  0  0
  2  3  1  0  0  0  0
  3  4  2  0  0  0  0
  3  1  1  0  0  0  0
  4  8  1  0  0  0  0
  5  9  1  0  0  0  0
  5  4  1  0  0  0  0
  6  5  2  0  0  0  0
  7  2  2  0  0  0  0
  7  6  1  0  0  0  0
 10  6  1  0  0  0  0
 11  7  1  0  0  0  0
 12 11  2  0  0  0  0
 12 16  1  0  0  0  0
 13 12  1  0  0  0  0
 14 13  2  0  0  0  0
 14 15  1  0  0  0  0
 15 11  1  0  0  0  0
 17 13  1  0  0  0  0
 18 14  1  0  0  0  0
 19 20  3  0  0  0  0
 20  2  1  0  0  0  0
 21 26  1  0  0  0  0
 22 21  2  0  0  0  0
 22 23  1  0  0  0  0
 23 24  2  0  0  0  0
 24 25  1  0  0  0  0
 25 28  1  0  0  0  0
 26 25  2  0  0  0  0
 27 23  1  0  0  0  0
 29 31  1  0  0  0  0
 30 29  2  0  0  0  0
 31 22  1  0  0  0  0
 32 31  1  0  0  0  0
 33 29  1  0  0  0  0
 34 35  2  0  0  0  0
 35 33  1  0  0  0  0
 36 35  1  0  0  0  0
 37 36  1  0  0  0  0
 38 39  1  0  0  0  0
 38 35  1  0  0  0  0
M  END
>  <minimizedAffinity>
-5.62217045

>  <minimizedRMSD>
0.218395486

$$$$
