
 OpenBabel03272507423D

 39 41  0  0  0  0  0  0  0  0999 V2000
   36.5570   32.0140   49.0630 O   0  0  0  0  0  0  0  0  0  0  0  0
   38.1840   32.0470   47.2020 C   0  0  0  0  0  0  0  0  0  0  0  0
   37.6940   32.4800   48.4170 C   0  0  0  0  0  0  0  0  0  0  0  0
   38.3570   33.4760   49.1130 C   0  0  0  0  0  0  0  0  0  0  0  0
   39.5130   34.0340   48.5830 C   0  0  0  0  0  0  0  0  0  0  0  0
   39.9900   33.5950   47.3720 C   0  0  0  0  0  0  0  0  0  0  0  0
   39.3160   32.6040   46.6990 C   0  0  0  0  0  0  0  0  0  0  0  0
   38.0310   33.8630   50.0680 H   0  0  0  0  0  0  0  0  0  0  0  0
   40.0290   34.8170   49.1340 H   0  0  0  0  0  0  0  0  0  0  0  0
   40.8840   34.0140   46.9420 H   0  0  0  0  0  0  0  0  0  0  0  0
   39.8390   32.1410   45.3980 C   0  0  0  0  0  0  0  0  0  0  0  0
   40.7580   31.1500   45.1320 C   0  0  0  0  0  0  0  0  0  0  0  0
   40.9090   31.1060   43.7430 C   0  0  0  0  0  0  0  0  0  0  0  0
   40.0730   32.0730   43.2590 C   0  0  0  0  0  0  0  0  0  0  0  0
   39.4490   32.6760   44.2530 O   0  0  0  0  0  0  0  0  0  0  0  0
   41.1810   30.6070   45.9590 H   0  0  0  0  0  0  0  0  0  0  0  0
   41.6040   30.3720   43.3610 H   0  0  0  0  0  0  0  0  0  0  0  0
   40.0170   32.2310   42.1930 H   0  0  0  0  0  0  0  0  0  0  0  0
   36.8480   30.1910   46.0000 N   0  0  0  0  0  0  0  0  0  0  0  0
   37.4470   31.0150   46.5400 C   0  0  0  0  0  0  0  0  0  0  0  0
   36.5540   31.0320   49.9960 C   0  0  0  0  0  0  0  0  0  0  0  0
   35.3950   30.2530   49.9340 C   0  0  0  0  0  0  0  0  0  0  0  0
   35.2070   29.1960   50.8110 C   0  0  0  0  0  0  0  0  0  0  0  0
   36.1910   28.9560   51.7200 N   0  0  0  0  0  0  0  0  0  0  0  0
   37.3130   29.7270   51.7630 C   0  0  0  0  0  0  0  0  0  0  0  0
   37.4740   30.7280   50.9220 N   0  0  0  0  0  0  0  0  0  0  0  0
   34.3480   28.5590   50.8220 H   0  0  0  0  0  0  0  0  0  0  0  0
   38.1030   29.5330   52.4960 H   0  0  0  0  0  0  0  0  0  0  0  0
   34.0230   29.3950   48.1080 C   0  0  0  0  0  0  0  0  0  0  0  0
   34.5960   28.2860   47.7850 O   0  0  0  0  0  0  0  0  0  0  0  0
   34.3370   30.4290   49.0330 N   0  0  0  0  0  0  0  0  0  0  0  0
   33.7590   31.2600   48.9850 H   0  0  0  0  0  0  0  0  0  0  0  0
   32.8770   29.4740   47.3210 O   0  0  0  0  0  0  0  0  0  0  0  0
   32.1940   31.7450   46.0650 O   0  0  0  0  0  0  0  0  0  0  0  0
   32.8230   30.3720   45.8600 P   0  0  0  0  0  0  0  0  0  0  0  0
   34.3110   30.5600   45.1310 O   0  0  0  0  0  0  0  0  0  0  0  0
   34.6380   31.4540   45.3120 H   0  0  0  0  0  0  0  0  0  0  0  0
   31.7420   29.5370   44.8330 O   0  0  0  0  0  0  0  0  0  0  0  0
   30.8740   29.4910   45.3470 H   0  0  0  0  0  0  0  0  0  0  0  0
  1 21  1  0  0  0  0
  2  3  1  0  0  0  0
  3  1  1  0  0  0  0
  3  4  2  0  0  0  0
  4  8  1  0  0  0  0
  5  4  1  0  0  0  0
  5  9  1  0  0  0  0
  6  5  2  0  0  0  0
  7  2  2  0  0  0  0
  7  6  1  0  0  0  0
 10  6  1  0  0  0  0
 11  7  1  0  0  0  0
 12 11  2  0  0  0  0
 12 16  1  0  0  0  0
 13 12  1  0  0  0  0
 14 13  2  0  0  0  0
 14 15  1  0  0  0  0
 15 11  1  0  0  0  0
 17 13  1  0  0  0  0
 18 14  1  0  0  0  0
 19 20  3  0  0  0  0
 20  2  1  0  0  0  0
 21 26  1  0  0  0  0
 22 21  2  0  0  0  0
 22 23  1  0  0  0  0
 23 27  1  0  0  0  0
 23 24  2  0  0  0  0
 24 25  1  0  0  0  0
 25 28  1  0  0  0  0
 26 25  2  0  0  0  0
 29 31  1  0  0  0  0
 30 29  2  0  0  0  0
 31 22  1  0  0  0  0
 32 31  1  0  0  0  0
 33 29  1  0  0  0  0
 35 34  2  0  0  0  0
 35 33  1  0  0  0  0
 36 37  1  0  0  0  0
 36 35  1  0  0  0  0
 38 39  1  0  0  0  0
 38 35  1  0  0  0  0
M  END
>  <minimizedAffinity>
-5.44872284

>  <minimizedRMSD>
0.522509933

$$$$
