
 OpenBabel03272507423D

 39 41  0  0  0  0  0  0  0  0999 V2000
   36.6740   32.2320   49.2630 O   0  0  0  0  0  0  0  0  0  0  0  0
   38.1920   32.2240   47.3120 C   0  0  0  0  0  0  0  0  0  0  0  0
   37.7990   32.6490   48.5650 C   0  0  0  0  0  0  0  0  0  0  0  0
   38.5600   33.5830   49.2460 C   0  0  0  0  0  0  0  0  0  0  0  0
   39.7150   34.0870   48.6630 C   0  0  0  0  0  0  0  0  0  0  0  0
   40.0950   33.6560   47.4160 C   0  0  0  0  0  0  0  0  0  0  0  0
   39.3240   32.7280   46.7580 C   0  0  0  0  0  0  0  0  0  0  0  0
   38.3130   33.9600   50.2280 H   0  0  0  0  0  0  0  0  0  0  0  0
   40.3080   34.8210   49.2040 H   0  0  0  0  0  0  0  0  0  0  0  0
   40.9870   34.0350   46.9460 H   0  0  0  0  0  0  0  0  0  0  0  0
   39.7440   32.2730   45.4160 C   0  0  0  0  0  0  0  0  0  0  0  0
   40.5770   31.2330   45.0710 C   0  0  0  0  0  0  0  0  0  0  0  0
   40.6490   31.2240   43.6750 C   0  0  0  0  0  0  0  0  0  0  0  0
   39.8550   32.2600   43.2660 C   0  0  0  0  0  0  0  0  0  0  0  0
   39.3290   32.8700   44.3120 O   0  0  0  0  0  0  0  0  0  0  0  0
   41.0060   30.6370   45.8570 H   0  0  0  0  0  0  0  0  0  0  0  0
   41.2710   30.4580   43.2330 H   0  0  0  0  0  0  0  0  0  0  0  0
   39.7530   32.4550   42.2100 H   0  0  0  0  0  0  0  0  0  0  0  0
   36.6790   30.4870   46.1420 N   0  0  0  0  0  0  0  0  0  0  0  0
   37.3570   31.2570   46.6670 C   0  0  0  0  0  0  0  0  0  0  0  0
   36.6460   31.1740   50.1080 C   0  0  0  0  0  0  0  0  0  0  0  0
   35.5480   30.3410   49.8700 C   0  0  0  0  0  0  0  0  0  0  0  0
   35.3460   29.2030   50.6340 C   0  0  0  0  0  0  0  0  0  0  0  0
   36.2550   28.9380   51.6120 N   0  0  0  0  0  0  0  0  0  0  0  0
   37.3190   29.7610   51.8270 C   0  0  0  0  0  0  0  0  0  0  0  0
   37.4940   30.8400   51.0910 N   0  0  0  0  0  0  0  0  0  0  0  0
   34.5310   28.5220   50.5100 H   0  0  0  0  0  0  0  0  0  0  0  0
   38.0480   29.5460   52.6150 H   0  0  0  0  0  0  0  0  0  0  0  0
   34.1990   29.4590   48.0390 C   0  0  0  0  0  0  0  0  0  0  0  0
   34.6670   28.2720   47.8540 O   0  0  0  0  0  0  0  0  0  0  0  0
   34.5690   30.5380   48.8880 N   0  0  0  0  0  0  0  0  0  0  0  0
   34.0880   31.4150   48.7280 H   0  0  0  0  0  0  0  0  0  0  0  0
   33.1160   29.5790   47.1730 O   0  0  0  0  0  0  0  0  0  0  0  0
   31.9410   27.7000   45.6610 O   0  0  0  0  0  0  0  0  0  0  0  0
   31.9080   28.3680   47.0310 P   0  0  0  0  0  0  0  0  0  0  0  0
   31.9940   27.1920   48.2100 O   0  0  0  0  0  0  0  0  0  0  0  0
   32.4020   26.3990   47.8330 H   0  0  0  0  0  0  0  0  0  0  0  0
   30.4100   29.1860   47.0920 O   0  0  0  0  0  0  0  0  0  0  0  0
   30.4450   29.8540   46.3360 H   0  0  0  0  0  0  0  0  0  0  0  0
  1 21  1  0  0  0  0
  2  3  1  0  0  0  0
  3  4  2  0  0  0  0
  3  1  1  0  0  0  0
  4  8  1  0  0  0  0
  5  9  1  0  0  0  0
  5  4  1  0  0  0  0
  6  5  2  0  0  0  0
  7  2  2  0  0  0  0
  7  6  1  0  0  0  0
 10  6  1  0  0  0  0
 11  7  1  0  0  0  0
 12 11  2  0  0  0  0
 12 16  1  0  0  0  0
 13 12  1  0  0  0  0
 14 13  2  0  0  0  0
 14 15  1  0  0  0  0
 15 11  1  0  0  0  0
 17 13  1  0  0  0  0
 18 14  1  0  0  0  0
 19 20  3  0  0  0  0
 20  2  1  0  0  0  0
 21 26  1  0  0  0  0
 22 21  2  0  0  0  0
 22 23  1  0  0  0  0
 23 24  2  0  0  0  0
 24 25  1  0  0  0  0
 25 28  1  0  0  0  0
 26 25  2  0  0  0  0
 27 23  1  0  0  0  0
 29 31  1  0  0  0  0
 30 29  2  0  0  0  0
 31 22  1  0  0  0  0
 32 31  1  0  0  0  0
 33 29  1  0  0  0  0
 34 35  2  0  0  0  0
 35 38  1  0  0  0  0
 35 33  1  0  0  0  0
 35 36  1  0  0  0  0
 37 36  1  0  0  0  0
 39 38  1  0  0  0  0
M  END
>  <minimizedAffinity>
-5.89828157

>  <minimizedRMSD>
0.546996534

$$$$
