
 OpenBabel03272502383D

 28 29  0  0  1  0  0  0  0  0999 V2000
   37.9920   25.4580   33.4630 N   0  0  0  0  0  0  0  0  0  0  0  0
   38.7830   26.6140   33.8700 C   0  0  0  0  0  0  0  0  0  0  0  0
   39.0760   26.3010   35.3260 C   0  0  0  0  0  0  0  0  0  0  0  0
   38.4700   24.9510   35.6120 C   0  0  1  0  0  0  0  0  0  0  0  0
   38.4680   24.3220   34.2390 C   0  0  0  0  0  0  0  0  0  0  0  0
   38.2850   27.5720   33.7560 H   0  0  0  0  0  0  0  0  0  0  0  0
   39.7130   26.5350   33.2360 H   0  0  0  0  0  0  0  0  0  0  0  0
   38.4850   27.0300   35.9370 H   0  0  0  0  0  0  0  0  0  0  0  0
   40.1570   26.3560   35.5540 H   0  0  0  0  0  0  0  0  0  0  0  0
   37.4340   25.0170   35.9950 H   0  0  0  0  0  0  0  0  0  0  0  0
   37.8260   23.4470   34.1450 H   0  0  0  0  0  0  0  0  0  0  0  0
   39.5190   24.1560   33.9310 H   0  0  0  0  0  0  0  0  0  0  0  0
   36.9580   25.4600   32.4950 C   0  0  0  0  0  0  0  0  0  0  0  0
   36.4710   24.2450   32.0290 C   0  0  0  0  0  0  0  0  0  0  0  0
   35.4530   24.2430   31.0760 C   0  0  0  0  0  0  0  0  0  0  0  0
   34.9840   25.4530   30.6490 N   0  0  0  0  0  0  0  0  0  0  0  0
   35.4790   26.6280   31.1220 C   0  0  0  0  0  0  0  0  0  0  0  0
   36.4780   26.6390   32.0570 N   0  0  0  0  0  0  0  0  0  0  0  0
   36.8140   23.2950   32.3400 H   0  0  0  0  0  0  0  0  0  0  0  0
   35.0380   23.3270   30.6800 H   0  0  0  0  0  0  0  0  0  0  0  0
   35.0800   27.5610   30.7580 H   0  0  0  0  0  0  0  0  0  0  0  0
   39.2820   24.1650   36.4160 O   0  0  0  0  0  0  0  0  0  0  0  0
   37.9250   24.5130   38.6730 O   0  0  0  0  0  0  0  0  0  0  0  0
   38.4520   23.4790   37.7190 P   0  0  0  0  0  0  0  0  0  0  0  0
   37.1950   22.5360   37.0730 O   0  0  0  0  0  0  0  0  0  0  0  0
   36.9460   21.7770   37.6620 H   0  0  0  0  0  0  0  0  0  0  0  0
   39.5320   22.4720   38.5790 O   0  0  0  0  0  0  0  0  0  0  0  0
   39.9090   21.8290   37.9330 H   0  0  0  0  0  0  0  0  0  0  0  0
  1  2  1  0  0  0  0
  1  5  1  0  0  0  0
  2  3  1  0  0  0  0
  3  9  1  0  0  0  0
  3  4  1  0  0  0  0
  3  8  1  0  0  0  0
  4 10  1  1  0  0  0
  4 22  1  0  0  0  0
  5  4  1  0  0  0  0
  6  2  1  0  0  0  0
  7  2  1  0  0  0  0
 11  5  1  0  0  0  0
 12  5  1  0  0  0  0
 13  1  1  0  0  0  0
 14 19  1  0  0  0  0
 14 13  2  0  0  0  0
 15 14  1  0  0  0  0
 16 15  2  0  0  0  0
 16 17  1  0  0  0  0
 17 18  2  0  0  0  0
 18 13  1  0  0  0  0
 20 15  1  0  0  0  0
 21 17  1  0  0  0  0
 22 24  1  0  0  0  0
 24 27  1  0  0  0  0
 24 23  2  0  0  0  0
 25 26  1  0  0  0  0
 25 24  1  0  0  0  0
 28 27  1  0  0  0  0
M  END
>  <minimizedAffinity>
-4.79744244

$$$$

 OpenBabel03272502383D

 28 29  0  0  1  0  0  0  0  0999 V2000
   38.0940   26.5010   33.9420 N   0  0  0  0  0  0  0  0  0  0  0  0
   39.5090   26.8540   33.9170 C   0  0  0  0  0  0  0  0  0  0  0  0
   40.0560   26.0570   35.0870 C   0  0  0  0  0  0  0  0  0  0  0  0
   38.9040   25.2630   35.6490 C   0  0  1  0  0  0  0  0  0  0  0  0
   38.0050   25.1370   34.4420 C   0  0  0  0  0  0  0  0  0  0  0  0
   39.7180   27.9150   34.0200 H   0  0  0  0  0  0  0  0  0  0  0  0
   39.8690   26.4390   32.9320 H   0  0  0  0  0  0  0  0  0  0  0  0
   40.3260   26.7970   35.8830 H   0  0  0  0  0  0  0  0  0  0  0  0
   40.9220   25.4320   34.7970 H   0  0  0  0  0  0  0  0  0  0  0  0
   38.3710   25.7940   36.4590 H   0  0  0  0  0  0  0  0  0  0  0  0
   36.9840   24.8370   34.6720 H   0  0  0  0  0  0  0  0  0  0  0  0
   38.5140   24.4980   33.6940 H   0  0  0  0  0  0  0  0  0  0  0  0
   37.0220   27.3410   33.5500 C   0  0  0  0  0  0  0  0  0  0  0  0
   36.5020   28.2400   34.4710 C   0  0  0  0  0  0  0  0  0  0  0  0
   35.4470   29.0690   34.0880 C   0  0  0  0  0  0  0  0  0  0  0  0
   34.9790   28.9470   32.8100 N   0  0  0  0  0  0  0  0  0  0  0  0
   35.5080   28.0570   31.9290 C   0  0  0  0  0  0  0  0  0  0  0  0
   36.5420   27.2400   32.2960 N   0  0  0  0  0  0  0  0  0  0  0  0
   36.8420   28.3570   35.4650 H   0  0  0  0  0  0  0  0  0  0  0  0
   35.0050   29.7870   34.7650 H   0  0  0  0  0  0  0  0  0  0  0  0
   35.1080   27.9930   30.9290 H   0  0  0  0  0  0  0  0  0  0  0  0
   39.2750   23.9770   36.0140 O   0  0  0  0  0  0  0  0  0  0  0  0
   37.9930   24.5720   38.2620 O   0  0  0  0  0  0  0  0  0  0  0  0
   38.4940   23.4390   37.4120 P   0  0  0  0  0  0  0  0  0  0  0  0
   37.2220   22.4260   36.9200 O   0  0  0  0  0  0  0  0  0  0  0  0
   36.9980   21.7370   37.5990 H   0  0  0  0  0  0  0  0  0  0  0  0
   39.6090   22.5380   38.3430 O   0  0  0  0  0  0  0  0  0  0  0  0
   39.9690   21.8280   37.7600 H   0  0  0  0  0  0  0  0  0  0  0  0
  1  5  1  0  0  0  0
  2  1  1  0  0  0  0
  2  6  1  0  0  0  0
  2  3  1  0  0  0  0
  3  4  1  0  0  0  0
  3  8  1  0  0  0  0
  4 22  1  0  0  0  0
  4 10  1  1  0  0  0
  5 11  1  0  0  0  0
  5  4  1  0  0  0  0
  7  2  1  0  0  0  0
  9  3  1  0  0  0  0
 12  5  1  0  0  0  0
 13  1  1  0  0  0  0
 13 14  1  0  0  0  0
 14 19  1  0  0  0  0
 15 14  2  0  0  0  0
 15 20  1  0  0  0  0
 16 15  1  0  0  0  0
 17 18  1  0  0  0  0
 17 16  2  0  0  0  0
 18 13  2  0  0  0  0
 21 17  1  0  0  0  0
 22 24  1  0  0  0  0
 24 23  2  0  0  0  0
 24 27  1  0  0  0  0
 25 24  1  0  0  0  0
 25 26  1  0  0  0  0
 28 27  1  0  0  0  0
M  END
>  <minimizedAffinity>
-4.63774347

$$$$

 OpenBabel03272502383D

 28 29  0  0  1  0  0  0  0  0999 V2000
   37.6640   22.6270   33.3730 N   0  0  0  0  0  0  0  0  0  0  0  0
   37.8350   23.9950   32.8980 C   0  0  0  0  0  0  0  0  0  0  0  0
   38.0030   24.7630   34.1960 C   0  0  0  0  0  0  0  0  0  0  0  0
   37.9740   23.7480   35.3100 C   0  0  1  0  0  0  0  0  0  0  0  0
   38.4420   22.5010   34.5970 C   0  0  0  0  0  0  0  0  0  0  0  0
   37.0100   24.3800   32.3060 H   0  0  0  0  0  0  0  0  0  0  0  0
   38.7990   23.9550   32.3140 H   0  0  0  0  0  0  0  0  0  0  0  0
   37.0780   25.3800   34.3270 H   0  0  0  0  0  0  0  0  0  0  0  0
   38.9170   25.3880   34.1930 H   0  0  0  0  0  0  0  0  0  0  0  0
   36.9580   23.5870   35.7170 H   0  0  0  0  0  0  0  0  0  0  0  0
   38.2420   21.5750   35.1330 H   0  0  0  0  0  0  0  0  0  0  0  0
   39.5020   22.6440   34.3070 H   0  0  0  0  0  0  0  0  0  0  0  0
   36.8840   21.6220   32.7490 C   0  0  0  0  0  0  0  0  0  0  0  0
   36.1420   20.7570   33.5420 C   0  0  0  0  0  0  0  0  0  0  0  0
   35.3720   19.7680   32.9310 C   0  0  0  0  0  0  0  0  0  0  0  0
   35.3910   19.7050   31.5660 N   0  0  0  0  0  0  0  0  0  0  0  0
   36.1270   20.5650   30.8130 C   0  0  0  0  0  0  0  0  0  0  0  0
   36.8860   21.5380   31.4050 N   0  0  0  0  0  0  0  0  0  0  0  0
   36.1080   20.7810   34.5980 H   0  0  0  0  0  0  0  0  0  0  0  0
   34.7760   19.0690   33.5010 H   0  0  0  0  0  0  0  0  0  0  0  0
   36.1140   20.4800   29.7380 H   0  0  0  0  0  0  0  0  0  0  0  0
   38.9040   24.0210   36.3010 O   0  0  0  0  0  0  0  0  0  0  0  0
   38.1830   24.5610   38.8000 O   0  0  0  0  0  0  0  0  0  0  0  0
   38.4330   23.4500   37.8200 P   0  0  0  0  0  0  0  0  0  0  0  0
   37.0410   22.5040   37.5910 O   0  0  0  0  0  0  0  0  0  0  0  0
   36.9440   21.7940   38.2790 H   0  0  0  0  0  0  0  0  0  0  0  0
   39.6880   22.4720   38.4440 O   0  0  0  0  0  0  0  0  0  0  0  0
   39.8770   21.7750   37.7710 H   0  0  0  0  0  0  0  0  0  0  0  0
  1  5  1  0  0  0  0
  2  1  1  0  0  0  0
  2  3  1  0  0  0  0
  3  8  1  0  0  0  0
  3  4  1  0  0  0  0
  4 10  1  1  0  0  0
  4 22  1  0  0  0  0
  5 11  1  0  0  0  0
  5  4  1  0  0  0  0
  6  2  1  0  0  0  0
  7  2  1  0  0  0  0
  9  3  1  0  0  0  0
 12  5  1  0  0  0  0
 13  1  1  0  0  0  0
 13 14  1  0  0  0  0
 14 19  1  0  0  0  0
 15 20  1  0  0  0  0
 15 14  2  0  0  0  0
 16 15  1  0  0  0  0
 17 18  1  0  0  0  0
 17 16  2  0  0  0  0
 18 13  2  0  0  0  0
 21 17  1  0  0  0  0
 22 24  1  0  0  0  0
 24 27  1  0  0  0  0
 24 23  2  0  0  0  0
 25 24  1  0  0  0  0
 25 26  1  0  0  0  0
 28 27  1  0  0  0  0
M  END
>  <minimizedAffinity>
-4.56248999

$$$$

 OpenBabel03272502383D

 28 29  0  0  1  0  0  0  0  0999 V2000
   37.8690   25.8410   34.0620 N   0  0  0  0  0  0  0  0  0  0  0  0
   37.7190   26.6490   35.2670 C   0  0  0  0  0  0  0  0  0  0  0  0
   38.2700   25.7260   36.3390 C   0  0  0  0  0  0  0  0  0  0  0  0
   38.7470   24.4800   35.6370 C   0  0  1  0  0  0  0  0  0  0  0  0
   39.0470   25.0060   34.2530 C   0  0  0  0  0  0  0  0  0  0  0  0
   36.7020   26.9580   35.4870 H   0  0  0  0  0  0  0  0  0  0  0  0
   38.4050   27.5260   35.0860 H   0  0  0  0  0  0  0  0  0  0  0  0
   37.3990   25.4030   36.9640 H   0  0  0  0  0  0  0  0  0  0  0  0
   39.0530   26.2160   36.9480 H   0  0  0  0  0  0  0  0  0  0  0  0
   37.9700   23.6950   35.5790 H   0  0  0  0  0  0  0  0  0  0  0  0
   39.1470   24.2360   33.4910 H   0  0  0  0  0  0  0  0  0  0  0  0
   39.9090   25.6980   34.3240 H   0  0  0  0  0  0  0  0  0  0  0  0
   37.0200   25.8750   32.9290 C   0  0  0  0  0  0  0  0  0  0  0  0
   36.5680   27.1030   32.4640 C   0  0  0  0  0  0  0  0  0  0  0  0
   35.7320   27.1390   31.3470 C   0  0  0  0  0  0  0  0  0  0  0  0
   35.4010   25.9470   30.7660 N   0  0  0  0  0  0  0  0  0  0  0  0
   35.8580   24.7590   31.2430 C   0  0  0  0  0  0  0  0  0  0  0  0
   36.6780   24.7140   32.3380 N   0  0  0  0  0  0  0  0  0  0  0  0
   36.8070   28.0390   32.8920 H   0  0  0  0  0  0  0  0  0  0  0  0
   35.3520   28.0670   30.9440 H   0  0  0  0  0  0  0  0  0  0  0  0
   35.5720   23.8420   30.7540 H   0  0  0  0  0  0  0  0  0  0  0  0
   39.9420   24.0040   36.1560 O   0  0  0  0  0  0  0  0  0  0  0  0
   40.9750   21.5910   36.5700 O   0  0  0  0  0  0  0  0  0  0  0  0
   39.7910   22.4720   36.8550 P   0  0  0  0  0  0  0  0  0  0  0  0
   39.5780   22.7010   38.5250 O   0  0  0  0  0  0  0  0  0  0  0  0
   39.0570   21.9690   38.9470 H   0  0  0  0  0  0  0  0  0  0  0  0
   38.4040   21.7150   36.2040 O   0  0  0  0  0  0  0  0  0  0  0  0
   37.6420   22.3240   36.3520 H   0  0  0  0  0  0  0  0  0  0  0  0
  1  5  1  0  0  0  0
  1  2  1  0  0  0  0
  2  6  1  0  0  0  0
  2  3  1  0  0  0  0
  3  9  1  0  0  0  0
  3  8  1  0  0  0  0
  4 10  1  6  0  0  0
  4 22  1  0  0  0  0
  4  3  1  0  0  0  0
  5 12  1  0  0  0  0
  5  4  1  0  0  0  0
  7  2  1  0  0  0  0
 11  5  1  0  0  0  0
 13  1  1  0  0  0  0
 14 19  1  0  0  0  0
 14 13  1  0  0  0  0
 15 14  2  0  0  0  0
 16 17  2  0  0  0  0
 16 15  1  0  0  0  0
 17 18  1  0  0  0  0
 18 13  2  0  0  0  0
 20 15  1  0  0  0  0
 21 17  1  0  0  0  0
 22 24  1  0  0  0  0
 23 24  2  0  0  0  0
 24 25  1  0  0  0  0
 25 26  1  0  0  0  0
 27 28  1  0  0  0  0
 27 24  1  0  0  0  0
M  END
>  <minimizedAffinity>
-4.53559208

$$$$

 OpenBabel03272502383D

 28 29  0  0  1  0  0  0  0  0999 V2000
   38.5610   25.8290   35.1480 N   0  0  0  0  0  0  0  0  0  0  0  0
   39.5520   26.7140   34.5470 C   0  0  0  0  0  0  0  0  0  0  0  0
   38.9540   26.9760   33.1760 C   0  0  0  0  0  0  0  0  0  0  0  0
   37.6290   26.2570   33.1350 C   0  0  1  0  0  0  0  0  0  0  0  0
   37.2660   26.2060   34.6000 C   0  0  0  0  0  0  0  0  0  0  0  0
   40.5530   26.3000   34.4760 H   0  0  0  0  0  0  0  0  0  0  0  0
   39.5140   27.6360   35.1960 H   0  0  0  0  0  0  0  0  0  0  0  0
   39.6050   26.4480   32.4350 H   0  0  0  0  0  0  0  0  0  0  0  0
   38.8760   28.0580   32.9570 H   0  0  0  0  0  0  0  0  0  0  0  0
   37.7110   25.2300   32.7330 H   0  0  0  0  0  0  0  0  0  0  0  0
   36.4800   25.4930   34.8440 H   0  0  0  0  0  0  0  0  0  0  0  0
   37.0710   27.2400   34.9460 H   0  0  0  0  0  0  0  0  0  0  0  0
   38.8270   24.8020   36.0860 C   0  0  0  0  0  0  0  0  0  0  0  0
   39.8520   23.9020   35.8260 C   0  0  0  0  0  0  0  0  0  0  0  0
   40.1160   22.8900   36.7480 C   0  0  0  0  0  0  0  0  0  0  0  0
   39.3410   22.8400   37.8730 N   0  0  0  0  0  0  0  0  0  0  0  0
   38.3440   23.7350   38.1020 C   0  0  0  0  0  0  0  0  0  0  0  0
   38.0770   24.7310   37.2030 N   0  0  0  0  0  0  0  0  0  0  0  0
   40.4670   23.9150   34.9660 H   0  0  0  0  0  0  0  0  0  0  0  0
   40.9020   22.1630   36.5950 H   0  0  0  0  0  0  0  0  0  0  0  0
   37.7550   23.6590   39.0030 H   0  0  0  0  0  0  0  0  0  0  0  0
   36.6440   26.9980   32.4990 O   0  0  0  0  0  0  0  0  0  0  0  0
   34.8240   25.7230   31.0440 O   0  0  0  0  0  0  0  0  0  0  0  0
   36.1910   26.3460   31.0080 P   0  0  0  0  0  0  0  0  0  0  0  0
   36.2680   27.6020   29.8660 O   0  0  0  0  0  0  0  0  0  0  0  0
   36.4600   27.2730   28.9490 H   0  0  0  0  0  0  0  0  0  0  0  0
   37.3120   25.1260   30.5870 O   0  0  0  0  0  0  0  0  0  0  0  0
   38.2110   25.5340   30.6150 H   0  0  0  0  0  0  0  0  0  0  0  0
  1 13  1  0  0  0  0
  2  1  1  0  0  0  0
  2  7  1  0  0  0  0
  3  2  1  0  0  0  0
  4 10  1  6  0  0  0
  4  3  1  0  0  0  0
  4  5  1  0  0  0  0
  5 11  1  0  0  0  0
  5 12  1  0  0  0  0
  5  1  1  0  0  0  0
  6  2  1  0  0  0  0
  8  3  1  0  0  0  0
  9  3  1  0  0  0  0
 13 18  1  0  0  0  0
 14 13  2  0  0  0  0
 14 15  1  0  0  0  0
 15 16  2  0  0  0  0
 16 17  1  0  0  0  0
 17 21  1  0  0  0  0
 18 17  2  0  0  0  0
 19 14  1  0  0  0  0
 20 15  1  0  0  0  0
 22  4  1  0  0  0  0
 24 23  2  0  0  0  0
 24 22  1  0  0  0  0
 25 24  1  0  0  0  0
 26 25  1  0  0  0  0
 27 28  1  0  0  0  0
 27 24  1  0  0  0  0
M  END
>  <minimizedAffinity>
-4.48016644

$$$$

 OpenBabel03272502383D

 28 29  0  0  1  0  0  0  0  0999 V2000
   38.4720   23.8200   34.3820 N   0  0  0  0  0  0  0  0  0  0  0  0
   38.1330   22.7550   33.4450 C   0  0  0  0  0  0  0  0  0  0  0  0
   37.3490   23.5050   32.3830 C   0  0  0  0  0  0  0  0  0  0  0  0
   37.3590   24.9590   32.7800 C   0  0  1  0  0  0  0  0  0  0  0  0
   38.6230   25.0400   33.6030 C   0  0  0  0  0  0  0  0  0  0  0  0
   37.5560   21.9380   33.8700 H   0  0  0  0  0  0  0  0  0  0  0  0
   39.1350   22.4150   33.0560 H   0  0  0  0  0  0  0  0  0  0  0  0
   36.2830   23.1750   32.4780 H   0  0  0  0  0  0  0  0  0  0  0  0
   37.7470   23.3210   31.3670 H   0  0  0  0  0  0  0  0  0  0  0  0
   36.4880   25.2400   33.4010 H   0  0  0  0  0  0  0  0  0  0  0  0
   38.6980   25.9320   34.2240 H   0  0  0  0  0  0  0  0  0  0  0  0
   39.4870   24.8740   32.9310 H   0  0  0  0  0  0  0  0  0  0  0  0
   38.6210   23.6760   35.7840 C   0  0  0  0  0  0  0  0  0  0  0  0
   39.6840   22.9290   36.2730 C   0  0  0  0  0  0  0  0  0  0  0  0
   39.8350   22.7860   37.6530 C   0  0  0  0  0  0  0  0  0  0  0  0
   38.9150   23.3990   38.4560 N   0  0  0  0  0  0  0  0  0  0  0  0
   37.8830   24.1250   37.9490 C   0  0  0  0  0  0  0  0  0  0  0  0
   37.7270   24.2700   36.5970 N   0  0  0  0  0  0  0  0  0  0  0  0
   40.4110   22.4440   35.6780 H   0  0  0  0  0  0  0  0  0  0  0  0
   40.6440   22.2160   38.0870 H   0  0  0  0  0  0  0  0  0  0  0  0
   37.1790   24.5920   38.6190 H   0  0  0  0  0  0  0  0  0  0  0  0
   37.5290   25.8030   31.6920 O   0  0  0  0  0  0  0  0  0  0  0  0
   34.9360   25.7670   31.1180 O   0  0  0  0  0  0  0  0  0  0  0  0
   36.1280   26.6630   31.3030 P   0  0  0  0  0  0  0  0  0  0  0  0
   35.8670   27.7900   32.5480 O   0  0  0  0  0  0  0  0  0  0  0  0
   35.3840   28.5990   32.2350 H   0  0  0  0  0  0  0  0  0  0  0  0
   36.3930   27.4930   29.8330 O   0  0  0  0  0  0  0  0  0  0  0  0
   37.2060   28.0410   29.9490 H   0  0  0  0  0  0  0  0  0  0  0  0
  1 13  1  0  0  0  0
  2  6  1  0  0  0  0
  2  1  1  0  0  0  0
  3  8  1  0  0  0  0
  3  4  1  0  0  0  0
  3  2  1  0  0  0  0
  4 10  1  1  0  0  0
  4  5  1  0  0  0  0
  5 11  1  0  0  0  0
  5  1  1  0  0  0  0
  7  2  1  0  0  0  0
  9  3  1  0  0  0  0
 12  5  1  0  0  0  0
 13 14  2  0  0  0  0
 13 18  1  0  0  0  0
 14 15  1  0  0  0  0
 15 20  1  0  0  0  0
 15 16  2  0  0  0  0
 17 16  1  0  0  0  0
 17 21  1  0  0  0  0
 18 17  2  0  0  0  0
 19 14  1  0  0  0  0
 22  4  1  0  0  0  0
 23 24  2  0  0  0  0
 24 22  1  0  0  0  0
 24 25  1  0  0  0  0
 26 25  1  0  0  0  0
 27 28  1  0  0  0  0
 27 24  1  0  0  0  0
M  END
>  <minimizedAffinity>
-4.35763121

$$$$

 OpenBabel03272502383D

 28 29  0  0  1  0  0  0  0  0999 V2000
   38.5210   25.7640   35.2840 N   0  0  0  0  0  0  0  0  0  0  0  0
   39.4270   26.7760   34.7540 C   0  0  0  0  0  0  0  0  0  0  0  0
   38.8480   27.0290   33.3740 C   0  0  0  0  0  0  0  0  0  0  0  0
   37.6130   26.1720   33.2570 C   0  0  1  0  0  0  0  0  0  0  0  0
   37.2100   26.0200   34.7040 C   0  0  0  0  0  0  0  0  0  0  0  0
   40.4700   26.4770   34.7050 H   0  0  0  0  0  0  0  0  0  0  0  0
   39.2660   27.6600   35.4370 H   0  0  0  0  0  0  0  0  0  0  0  0
   39.5770   26.6070   32.6370 H   0  0  0  0  0  0  0  0  0  0  0  0
   38.6580   28.1040   33.1930 H   0  0  0  0  0  0  0  0  0  0  0  0
   37.8200   25.1780   32.8190 H   0  0  0  0  0  0  0  0  0  0  0  0
   36.5010   25.2150   34.8910 H   0  0  0  0  0  0  0  0  0  0  0  0
   36.8920   27.0100   35.0830 H   0  0  0  0  0  0  0  0  0  0  0  0
   38.8680   24.7320   36.1910 C   0  0  0  0  0  0  0  0  0  0  0  0
   38.1140   24.5700   37.3460 C   0  0  0  0  0  0  0  0  0  0  0  0
   38.4520   23.5550   38.2400 C   0  0  0  0  0  0  0  0  0  0  0  0
   39.5220   22.7650   37.9260 N   0  0  0  0  0  0  0  0  0  0  0  0
   40.2440   22.9470   36.7870 C   0  0  0  0  0  0  0  0  0  0  0  0
   39.9190   23.9410   35.9050 N   0  0  0  0  0  0  0  0  0  0  0  0
   37.2820   25.1640   37.6160 H   0  0  0  0  0  0  0  0  0  0  0  0
   37.8990   23.3850   39.1530 H   0  0  0  0  0  0  0  0  0  0  0  0
   41.0820   22.3010   36.5780 H   0  0  0  0  0  0  0  0  0  0  0  0
   36.5730   26.8280   32.6140 O   0  0  0  0  0  0  0  0  0  0  0  0
   37.1610   25.0670   30.7150 O   0  0  0  0  0  0  0  0  0  0  0  0
   36.2070   26.1590   31.1060 P   0  0  0  0  0  0  0  0  0  0  0  0
   34.6100   25.5870   31.1840 O   0  0  0  0  0  0  0  0  0  0  0  0
   34.1580   25.5930   30.3000 H   0  0  0  0  0  0  0  0  0  0  0  0
   36.3110   27.3930   29.9270 O   0  0  0  0  0  0  0  0  0  0  0  0
   35.7180   28.1260   30.2200 H   0  0  0  0  0  0  0  0  0  0  0  0
  1 13  1  0  0  0  0
  2  1  1  0  0  0  0
  2  7  1  0  0  0  0
  3  2  1  0  0  0  0
  4 10  1  6  0  0  0
  4  3  1  0  0  0  0
  4  5  1  0  0  0  0
  5 11  1  0  0  0  0
  5 12  1  0  0  0  0
  5  1  1  0  0  0  0
  6  2  1  0  0  0  0
  8  3  1  0  0  0  0
  9  3  1  0  0  0  0
 13 14  1  0  0  0  0
 14 19  1  0  0  0  0
 14 15  2  0  0  0  0
 15 20  1  0  0  0  0
 16 15  1  0  0  0  0
 17 16  2  0  0  0  0
 18 13  2  0  0  0  0
 18 17  1  0  0  0  0
 21 17  1  0  0  0  0
 22  4  1  0  0  0  0
 23 24  2  0  0  0  0
 24 25  1  0  0  0  0
 24 22  1  0  0  0  0
 26 25  1  0  0  0  0
 27 28  1  0  0  0  0
 27 24  1  0  0  0  0
M  END
>  <minimizedAffinity>
-4.3482151

$$$$

 OpenBabel03272502383D

 28 29  0  0  1  0  0  0  0  0999 V2000
   36.5690   24.4770   31.3540 N   0  0  0  0  0  0  0  0  0  0  0  0
   37.7340   23.9140   30.6810 C   0  0  0  0  0  0  0  0  0  0  0  0
   37.5460   22.4250   30.9130 C   0  0  0  0  0  0  0  0  0  0  0  0
   36.2440   22.2610   31.6560 C   0  0  1  0  0  0  0  0  0  0  0  0
   35.4940   23.5020   31.2320 C   0  0  0  0  0  0  0  0  0  0  0  0
   38.6920   24.2610   31.0560 H   0  0  0  0  0  0  0  0  0  0  0  0
   37.5720   24.1860   29.5990 H   0  0  0  0  0  0  0  0  0  0  0  0
   38.3430   22.1080   31.6320 H   0  0  0  0  0  0  0  0  0  0  0  0
   37.5910   21.8490   29.9690 H   0  0  0  0  0  0  0  0  0  0  0  0
   36.3740   22.2590   32.7540 H   0  0  0  0  0  0  0  0  0  0  0  0
   34.6330   23.7420   31.8540 H   0  0  0  0  0  0  0  0  0  0  0  0
   35.2710   23.4210   30.1500 H   0  0  0  0  0  0  0  0  0  0  0  0
   36.5120   25.7360   32.0010 C   0  0  0  0  0  0  0  0  0  0  0  0
   35.8500   26.7840   31.3750 C   0  0  0  0  0  0  0  0  0  0  0  0
   35.7910   28.0240   32.0100 C   0  0  0  0  0  0  0  0  0  0  0  0
   36.3970   28.1410   33.2290 N   0  0  0  0  0  0  0  0  0  0  0  0
   37.0390   27.0970   33.8190 C   0  0  0  0  0  0  0  0  0  0  0  0
   37.1020   25.8770   33.2040 N   0  0  0  0  0  0  0  0  0  0  0  0
   35.3720   26.7240   30.4340 H   0  0  0  0  0  0  0  0  0  0  0  0
   35.2880   28.8730   31.5680 H   0  0  0  0  0  0  0  0  0  0  0  0
   37.5040   27.2320   34.7830 H   0  0  0  0  0  0  0  0  0  0  0  0
   35.5110   21.1730   31.2070 O   0  0  0  0  0  0  0  0  0  0  0  0
   36.9090   19.0920   32.0850 O   0  0  0  0  0  0  0  0  0  0  0  0
   35.6150   19.8400   32.2400 P   0  0  0  0  0  0  0  0  0  0  0  0
   35.4210   20.4170   33.8260 O   0  0  0  0  0  0  0  0  0  0  0  0
   35.0300   19.7370   34.4350 H   0  0  0  0  0  0  0  0  0  0  0  0
   34.3400   18.7650   31.8670 O   0  0  0  0  0  0  0  0  0  0  0  0
   33.4990   19.2790   31.9240 H   0  0  0  0  0  0  0  0  0  0  0  0
  1 13  1  0  0  0  0
  2  3  1  0  0  0  0
  2  6  1  0  0  0  0
  2  1  1  0  0  0  0
  3  8  1  0  0  0  0
  3  4  1  0  0  0  0
  4 10  1  1  0  0  0
  5  1  1  0  0  0  0
  5  4  1  0  0  0  0
  5 11  1  0  0  0  0
  7  2  1  0  0  0  0
  9  3  1  0  0  0  0
 12  5  1  0  0  0  0
 13 18  1  0  0  0  0
 14 13  2  0  0  0  0
 14 15  1  0  0  0  0
 15 16  2  0  0  0  0
 16 17  1  0  0  0  0
 17 21  1  0  0  0  0
 18 17  2  0  0  0  0
 19 14  1  0  0  0  0
 20 15  1  0  0  0  0
 22  4  1  0  0  0  0
 22 24  1  0  0  0  0
 23 24  2  0  0  0  0
 24 25  1  0  0  0  0
 25 26  1  0  0  0  0
 27 28  1  0  0  0  0
 27 24  1  0  0  0  0
M  END
>  <minimizedAffinity>
-4.30612659

$$$$

 OpenBabel03272502383D

 28 29  0  0  1  0  0  0  0  0999 V2000
   37.0960   24.3210   31.6910 N   0  0  0  0  0  0  0  0  0  0  0  0
   36.1690   25.4270   31.4810 C   0  0  0  0  0  0  0  0  0  0  0  0
   36.6040   26.4130   32.5500 C   0  0  0  0  0  0  0  0  0  0  0  0
   37.7930   25.8030   33.2480 C   0  0  1  0  0  0  0  0  0  0  0  0
   38.3440   24.8970   32.1720 C   0  0  0  0  0  0  0  0  0  0  0  0
   35.1190   25.1690   31.5750 H   0  0  0  0  0  0  0  0  0  0  0  0
   36.4290   25.7990   30.4480 H   0  0  0  0  0  0  0  0  0  0  0  0
   35.7880   26.4380   33.3160 H   0  0  0  0  0  0  0  0  0  0  0  0
   36.8060   27.4180   32.1320 H   0  0  0  0  0  0  0  0  0  0  0  0
   37.5100   25.2030   34.1330 H   0  0  0  0  0  0  0  0  0  0  0  0
   39.0450   24.1450   32.5320 H   0  0  0  0  0  0  0  0  0  0  0  0
   38.7310   25.5290   31.3490 H   0  0  0  0  0  0  0  0  0  0  0  0
   36.8170   22.9510   31.4650 C   0  0  0  0  0  0  0  0  0  0  0  0
   35.5740   22.4490   31.8270 C   0  0  0  0  0  0  0  0  0  0  0  0
   35.2960   21.1000   31.6050 C   0  0  0  0  0  0  0  0  0  0  0  0
   36.2770   20.3380   31.0350 N   0  0  0  0  0  0  0  0  0  0  0  0
   37.4860   20.8560   30.6900 C   0  0  0  0  0  0  0  0  0  0  0  0
   37.7670   22.1780   30.9050 N   0  0  0  0  0  0  0  0  0  0  0  0
   34.7970   23.0120   32.2700 H   0  0  0  0  0  0  0  0  0  0  0  0
   34.3460   20.6580   31.8680 H   0  0  0  0  0  0  0  0  0  0  0  0
   38.2320   20.2190   30.2420 H   0  0  0  0  0  0  0  0  0  0  0  0
   38.7780   26.7370   33.5330 O   0  0  0  0  0  0  0  0  0  0  0  0
   39.1560   25.1810   35.6520 O   0  0  0  0  0  0  0  0  0  0  0  0
   39.4510   26.5340   35.0700 P   0  0  0  0  0  0  0  0  0  0  0  0
   41.1230   26.7930   34.9230 O   0  0  0  0  0  0  0  0  0  0  0  0
   41.5320   27.1320   35.7620 H   0  0  0  0  0  0  0  0  0  0  0  0
   38.7830   27.7120   36.1130 O   0  0  0  0  0  0  0  0  0  0  0  0
   38.9400   28.5930   35.6960 H   0  0  0  0  0  0  0  0  0  0  0  0
  1  5  1  0  0  0  0
  2  6  1  0  0  0  0
  2  1  1  0  0  0  0
  2  3  1  0  0  0  0
  3  4  1  0  0  0  0
  3  8  1  0  0  0  0
  4 22  1  0  0  0  0
  4 10  1  1  0  0  0
  5 11  1  0  0  0  0
  5  4  1  0  0  0  0
  7  2  1  0  0  0  0
  9  3  1  0  0  0  0
 12  5  1  0  0  0  0
 13  1  1  0  0  0  0
 13 14  1  0  0  0  0
 14 19  1  0  0  0  0
 15 14  2  0  0  0  0
 15 20  1  0  0  0  0
 16 15  1  0  0  0  0
 17 18  1  0  0  0  0
 17 16  2  0  0  0  0
 18 13  2  0  0  0  0
 21 17  1  0  0  0  0
 22 24  1  0  0  0  0
 24 23  2  0  0  0  0
 24 27  1  0  0  0  0
 25 24  1  0  0  0  0
 25 26  1  0  0  0  0
 28 27  1  0  0  0  0
M  END
>  <minimizedAffinity>
-4.20110273

$$$$
