
 OpenBabel03272510293D

 26 27  0  0  0  0  0  0  0  0999 V2000
   37.3250   31.4020   49.3370 C   0  0  0  0  0  0  0  0  0  0  0  0
   37.6170   32.6580   49.8770 C   0  0  0  0  0  0  0  0  0  0  0  0
   38.5150   33.4310   49.1410 C   0  0  0  0  0  0  0  0  0  0  0  0
   39.0420   32.9340   47.9760 N   0  0  0  0  0  0  0  0  0  0  0  0
   38.7200   31.7070   47.5020 C   0  0  0  0  0  0  0  0  0  0  0  0
   37.8400   30.9150   48.1980 N   0  0  0  0  0  0  0  0  0  0  0  0
   37.1740   32.9930   50.7940 H   0  0  0  0  0  0  0  0  0  0  0  0
   38.7940   34.4160   49.4910 H   0  0  0  0  0  0  0  0  0  0  0  0
   36.3360   30.5580   50.0850 C   0  0  0  0  0  0  0  0  0  0  0  0
   36.2750   29.1210   49.9520 C   0  0  0  0  0  0  0  0  0  0  0  0
   36.9870   29.6840   51.1670 C   0  0  0  0  0  0  0  0  0  0  0  0
   35.4540   31.1610   50.4550 H   0  0  0  0  0  0  0  0  0  0  0  0
   36.9350   28.5730   49.2500 H   0  0  0  0  0  0  0  0  0  0  0  0
   35.3120   28.5950   50.1050 H   0  0  0  0  0  0  0  0  0  0  0  0
   36.4200   29.6090   52.1160 H   0  0  0  0  0  0  0  0  0  0  0  0
   38.0860   29.6280   51.2150 H   0  0  0  0  0  0  0  0  0  0  0  0
   39.2630   31.1830   46.2550 C   0  0  0  0  0  0  0  0  0  0  0  0
   40.3830   31.1800   46.2200 H   0  0  0  0  0  0  0  0  0  0  0  0
   38.9670   30.1400   46.1010 H   0  0  0  0  0  0  0  0  0  0  0  0
   38.8770   32.0530   45.2350 O   0  0  0  0  0  0  0  0  0  0  0  0
   37.8750   30.6090   43.3350 O   0  0  0  0  0  0  0  0  0  0  0  0
   37.4760   31.5480   44.4460 P   0  0  0  0  0  0  0  0  0  0  0  0
   36.3590   30.8380   45.4970 O   0  0  0  0  0  0  0  0  0  0  0  0
   36.7660   29.9650   45.7860 H   0  0  0  0  0  0  0  0  0  0  0  0
   36.6960   32.8990   43.7670 O   0  0  0  0  0  0  0  0  0  0  0  0
   36.3220   33.4390   44.4930 H   0  0  0  0  0  0  0  0  0  0  0  0
  1  2  1  0  0  0  0
  1  9  1  0  0  0  0
  2  7  1  0  0  0  0
  3  8  1  0  0  0  0
  3  2  2  0  0  0  0
  4  3  1  0  0  0  0
  5  4  2  0  0  0  0
  5  6  1  0  0  0  0
  6  1  2  0  0  0  0
  9 12  1  0  0  0  0
  9 11  1  0  0  0  0
 10  9  1  0  0  0  0
 10 14  1  0  0  0  0
 10 11  1  0  0  0  0
 11 16  1  0  0  0  0
 11 15  1  0  0  0  0
 13 10  1  0  0  0  0
 17  5  1  0  0  0  0
 18 17  1  0  0  0  0
 19 17  1  0  0  0  0
 20 17  1  0  0  0  0
 21 22  2  0  0  0  0
 22 20  1  0  0  0  0
 22 23  1  0  0  0  0
 23 24  1  0  0  0  0
 25 22  1  0  0  0  0
 25 26  1  0  0  0  0
M  END
>  <minimizedAffinity>
-5.0988574

>  <minimizedRMSD>
1.06655145

$$$$
