
 OpenBabel03272500583D

 33 34  0  0  0  0  0  0  0  0999 V2000
   38.1980   31.8940   47.4080 C   0  0  0  0  0  0  0  0  0  0  0  0
   38.7530   32.7810   48.3010 C   0  0  0  0  0  0  0  0  0  0  0  0
   38.2920   32.8550   49.6250 C   0  0  0  0  0  0  0  0  0  0  0  0
   37.2160   31.9680   50.0230 C   0  0  0  0  0  0  0  0  0  0  0  0
   36.7250   31.1250   49.0890 C   0  0  0  0  0  0  0  0  0  0  0  0
   37.1620   31.0520   47.8170 C   0  0  0  0  0  0  0  0  0  0  0  0
   39.5610   33.4590   48.0330 H   0  0  0  0  0  0  0  0  0  0  0  0
   38.7600   33.5700   50.2860 H   0  0  0  0  0  0  0  0  0  0  0  0
   36.9710   32.1380   51.0610 H   0  0  0  0  0  0  0  0  0  0  0  0
   35.9690   30.5500   49.6010 H   0  0  0  0  0  0  0  0  0  0  0  0
   40.0170   31.2440   45.9100 C   0  0  0  0  0  0  0  0  0  0  0  0
   38.7810   31.9140   46.0890 C   0  0  0  0  0  0  0  0  0  0  0  0
   38.2870   32.5050   44.9530 C   0  0  0  0  0  0  0  0  0  0  0  0
   38.9450   32.4350   43.7870 N   0  0  0  0  0  0  0  0  0  0  0  0
   40.0900   31.8110   43.6360 C   0  0  0  0  0  0  0  0  0  0  0  0
   40.6160   31.2200   44.6980 N   0  0  0  0  0  0  0  0  0  0  0  0
   40.5110   30.7340   46.7440 H   0  0  0  0  0  0  0  0  0  0  0  0
   37.3360   33.0210   45.0930 H   0  0  0  0  0  0  0  0  0  0  0  0
   40.5520   31.8040   42.6570 H   0  0  0  0  0  0  0  0  0  0  0  0
   35.1600   30.0530   47.0870 C   0  0  0  0  0  0  0  0  0  0  0  0
   34.5990   30.6860   48.0660 O   0  0  0  0  0  0  0  0  0  0  0  0
   36.5950   30.1910   46.9080 N   0  0  0  0  0  0  0  0  0  0  0  0
   37.1150   29.6790   46.1630 H   0  0  0  0  0  0  0  0  0  0  0  0
   34.3940   29.2760   46.2570 O   0  0  0  0  0  0  0  0  0  0  0  0
   33.0040   29.3460   46.1810 C   0  0  0  0  0  0  0  0  0  0  0  0
   32.3880   30.2590   45.4640 O   0  0  0  0  0  0  0  0  0  0  0  0
   32.0570   28.5250   46.7750 O   0  0  0  0  0  0  0  0  0  0  0  0
   31.3970   26.6940   48.5600 O   0  0  0  0  0  0  0  0  0  0  0  0
   32.5050   27.6700   48.1970 P   0  0  0  0  0  0  0  0  0  0  0  0
   33.8700   26.6930   47.8690 O   0  0  0  0  0  0  0  0  0  0  0  0
   33.9660   26.0300   48.5910 H   0  0  0  0  0  0  0  0  0  0  0  0
   32.7670   28.6640   49.5130 O   0  0  0  0  0  0  0  0  0  0  0  0
   33.5700   29.2220   49.4640 H   0  0  0  0  0  0  0  0  0  0  0  0
  1  6  2  0  0  0  0
  1  2  1  0  0  0  0
  2  3  2  0  0  0  0
  3  4  1  0  0  0  0
  3  8  1  0  0  0  0
  4  9  1  0  0  0  0
  5 10  1  0  0  0  0
  5  4  2  0  0  0  0
  6  5  1  0  0  0  0
  7  2  1  0  0  0  0
 11 12  1  0  0  0  0
 11 17  1  0  0  0  0
 12  1  1  0  0  0  0
 13 18  1  0  0  0  0
 13 12  2  0  0  0  0
 14 13  1  0  0  0  0
 15 14  2  0  0  0  0
 15 16  1  0  0  0  0
 16 11  2  0  0  0  0
 19 15  1  0  0  0  0
 20 21  2  0  0  0  0
 22 20  1  0  0  0  0
 22  6  1  0  0  0  0
 23 22  1  0  0  0  0
 24 20  1  0  0  0  0
 25 24  1  0  0  0  0
 25 27  1  0  0  0  0
 26 25  2  0  0  0  0
 27 29  1  0  0  0  0
 29 28  2  0  0  0  0
 29 32  1  0  0  0  0
 30 29  1  0  0  0  0
 30 31  1  0  0  0  0
 33 32  1  0  0  0  0
M  END
>  <minimizedAffinity>
-5.72277641

>  <minimizedRMSD>
1.81677449

$$$$
