
 OpenBabel03272500583D

 33 34  0  0  0  0  0  0  0  0999 V2000
   38.1800   31.8120   47.4050 C   0  0  0  0  0  0  0  0  0  0  0  0
   38.7800   32.5980   48.3620 C   0  0  0  0  0  0  0  0  0  0  0  0
   38.3160   32.5990   49.6870 C   0  0  0  0  0  0  0  0  0  0  0  0
   37.1910   31.7470   50.0170 C   0  0  0  0  0  0  0  0  0  0  0  0
   36.6580   31.0040   49.0220 C   0  0  0  0  0  0  0  0  0  0  0  0
   37.0970   31.0010   47.7490 C   0  0  0  0  0  0  0  0  0  0  0  0
   39.6250   33.2480   48.1450 H   0  0  0  0  0  0  0  0  0  0  0  0
   38.8210   33.2360   50.4000 H   0  0  0  0  0  0  0  0  0  0  0  0
   36.9500   31.8530   51.0650 H   0  0  0  0  0  0  0  0  0  0  0  0
   35.8690   30.4370   49.4900 H   0  0  0  0  0  0  0  0  0  0  0  0
   40.0150   31.2500   45.8910 C   0  0  0  0  0  0  0  0  0  0  0  0
   38.7710   31.8970   46.0920 C   0  0  0  0  0  0  0  0  0  0  0  0
   38.2760   32.5310   44.9790 C   0  0  0  0  0  0  0  0  0  0  0  0
   38.9410   32.5210   43.8160 N   0  0  0  0  0  0  0  0  0  0  0  0
   40.0940   31.9170   43.6450 C   0  0  0  0  0  0  0  0  0  0  0  0
   40.6210   31.2860   44.6830 N   0  0  0  0  0  0  0  0  0  0  0  0
   40.5110   30.7090   46.7040 H   0  0  0  0  0  0  0  0  0  0  0  0
   37.3180   33.0290   45.1360 H   0  0  0  0  0  0  0  0  0  0  0  0
   40.5620   31.9590   42.6690 H   0  0  0  0  0  0  0  0  0  0  0  0
   35.0550   30.1160   46.9840 C   0  0  0  0  0  0  0  0  0  0  0  0
   34.5340   30.6610   48.0350 O   0  0  0  0  0  0  0  0  0  0  0  0
   36.4880   30.2430   46.7780 N   0  0  0  0  0  0  0  0  0  0  0  0
   36.9760   29.7960   45.9730 H   0  0  0  0  0  0  0  0  0  0  0  0
   34.2510   29.4370   46.1050 O   0  0  0  0  0  0  0  0  0  0  0  0
   33.4880   30.0480   45.1110 C   0  0  0  0  0  0  0  0  0  0  0  0
   34.0370   30.6490   44.0790 O   0  0  0  0  0  0  0  0  0  0  0  0
   32.1080   30.1250   44.9960 O   0  0  0  0  0  0  0  0  0  0  0  0
   29.9380   31.6090   44.7320 O   0  0  0  0  0  0  0  0  0  0  0  0
   31.4260   31.5930   44.4140 P   0  0  0  0  0  0  0  0  0  0  0  0
   32.0830   32.9110   45.2820 O   0  0  0  0  0  0  0  0  0  0  0  0
   31.5210   33.7040   45.1280 H   0  0  0  0  0  0  0  0  0  0  0  0
   31.6030   31.7960   42.7650 O   0  0  0  0  0  0  0  0  0  0  0  0
   32.5160   31.9730   42.4600 H   0  0  0  0  0  0  0  0  0  0  0  0
  1  6  2  0  0  0  0
  1  2  1  0  0  0  0
  2  3  2  0  0  0  0
  3  4  1  0  0  0  0
  3  8  1  0  0  0  0
  4  9  1  0  0  0  0
  5 10  1  0  0  0  0
  5  4  2  0  0  0  0
  6  5  1  0  0  0  0
  7  2  1  0  0  0  0
 11 12  1  0  0  0  0
 11 17  1  0  0  0  0
 12  1  1  0  0  0  0
 13 18  1  0  0  0  0
 13 12  2  0  0  0  0
 14 13  1  0  0  0  0
 15 14  2  0  0  0  0
 15 16  1  0  0  0  0
 16 11  2  0  0  0  0
 19 15  1  0  0  0  0
 20 21  2  0  0  0  0
 22 20  1  0  0  0  0
 22  6  1  0  0  0  0
 23 22  1  0  0  0  0
 24 20  1  0  0  0  0
 25 24  1  0  0  0  0
 26 25  2  0  0  0  0
 27 25  1  0  0  0  0
 29 28  2  0  0  0  0
 29 27  1  0  0  0  0
 29 30  1  0  0  0  0
 31 30  1  0  0  0  0
 32 29  1  0  0  0  0
 33 32  1  0  0  0  0
M  END
>  <minimizedAffinity>
-5.38377857

>  <minimizedRMSD>
0.943738878

$$$$
