
 OpenBabel03272507233D

 28 29  0  0  1  0  0  0  0  0999 V2000
   34.4020   28.0670   48.9920 C   0  0  0  0  0  0  0  0  0  0  0  0
   35.5740   28.7920   49.3060 C   0  0  0  0  0  0  0  0  0  0  0  0
   35.8170   29.9720   48.6030 C   0  0  0  0  0  0  0  0  0  0  0  0
   34.9220   30.3680   47.6540 N   0  0  0  0  0  0  0  0  0  0  0  0
   33.8120   29.6450   47.3820 C   0  0  0  0  0  0  0  0  0  0  0  0
   33.5580   28.5040   48.0480 N   0  0  0  0  0  0  0  0  0  0  0  0
   36.9790   30.7500   48.8720 N   0  0  0  0  0  0  0  0  0  0  0  0
   37.6280   30.8500   50.1680 C   0  0  0  0  0  0  0  0  0  0  0  0
   38.6870   31.9060   49.9960 C   0  0  0  0  0  0  0  0  0  0  0  0
   38.1670   32.6940   48.8180 C   0  0  0  0  0  0  0  0  0  0  0  0
   37.7010   31.5580   47.9250 C   0  0  1  0  0  0  0  0  0  0  0  0
   34.1990   27.1510   49.5260 H   0  0  0  0  0  0  0  0  0  0  0  0
   36.2790   28.4560   50.0720 H   0  0  0  0  0  0  0  0  0  0  0  0
   33.2140   30.1150   46.5950 H   0  0  0  0  0  0  0  0  0  0  0  0
   38.1640   29.8770   50.3170 H   0  0  0  0  0  0  0  0  0  0  0  0
   36.9180   31.0530   50.9970 H   0  0  0  0  0  0  0  0  0  0  0  0
   38.6360   32.5960   50.8700 H   0  0  0  0  0  0  0  0  0  0  0  0
   39.7000   31.5290   49.8600 H   0  0  0  0  0  0  0  0  0  0  0  0
   39.0210   33.1960   48.3190 H   0  0  0  0  0  0  0  0  0  0  0  0
   37.3390   33.3390   49.1030 H   0  0  0  0  0  0  0  0  0  0  0  0
   36.9570   31.8910   47.1590 H   0  0  0  0  0  0  0  0  0  0  0  0
   38.7570   30.8990   47.3380 O   0  0  0  0  0  0  0  0  0  0  0  0
   38.6340   32.4010   45.1760 O   0  0  0  0  0  0  0  0  0  0  0  0
   38.4740   30.9770   45.6540 P   0  0  0  0  0  0  0  0  0  0  0  0
   36.9000   30.4960   45.2670 O   0  0  0  0  0  0  0  0  0  0  0  0
   36.6840   30.9150   44.3960 H   0  0  0  0  0  0  0  0  0  0  0  0
   39.5530   29.9120   44.9110 O   0  0  0  0  0  0  0  0  0  0  0  0
   39.1080   29.4190   44.1660 H   0  0  0  0  0  0  0  0  0  0  0  0
  1  2  1  0  0  0  0
  1 12  1  0  0  0  0
  2 13  1  0  0  0  0
  3  7  1  0  0  0  0
  3  2  2  0  0  0  0
  4  3  1  0  0  0  0
  5  4  2  0  0  0  0
  5  6  1  0  0  0  0
  6  1  2  0  0  0  0
  7  8  1  0  0  0  0
  8 15  1  0  0  0  0
  8 16  1  0  0  0  0
  9  8  1  0  0  0  0
  9 17  1  0  0  0  0
 10 20  1  0  0  0  0
 10  9  1  0  0  0  0
 11 21  1  6  0  0  0
 11 10  1  0  0  0  0
 11  7  1  0  0  0  0
 14  5  1  0  0  0  0
 18  9  1  0  0  0  0
 19 10  1  0  0  0  0
 22 11  1  0  0  0  0
 23 24  2  0  0  0  0
 24 22  1  0  0  0  0
 25 24  1  0  0  0  0
 26 25  1  0  0  0  0
 27 24  1  0  0  0  0
 28 27  1  0  0  0  0
M  END
>  <minimizedAffinity>
-5.14470911

>  <minimizedRMSD>
3.19919538

$$$$
