
 OpenBabel03272510293D

 26 27  0  0  0  0  0  0  0  0999 V2000
   37.1360   31.2810   49.2290 C   0  0  0  0  0  0  0  0  0  0  0  0
   37.3210   32.5480   49.7890 C   0  0  0  0  0  0  0  0  0  0  0  0
   38.2800   33.3450   49.1620 C   0  0  0  0  0  0  0  0  0  0  0  0
   38.9610   32.8580   48.0750 N   0  0  0  0  0  0  0  0  0  0  0  0
   38.7370   31.6180   47.5770 C   0  0  0  0  0  0  0  0  0  0  0  0
   37.8020   30.8040   48.1660 N   0  0  0  0  0  0  0  0  0  0  0  0
   36.7590   32.8750   50.6410 H   0  0  0  0  0  0  0  0  0  0  0  0
   38.4840   34.3400   49.5340 H   0  0  0  0  0  0  0  0  0  0  0  0
   36.0880   30.4110   49.8570 C   0  0  0  0  0  0  0  0  0  0  0  0
   36.0450   28.9800   49.6720 C   0  0  0  0  0  0  0  0  0  0  0  0
   36.6440   29.5030   50.9630 C   0  0  0  0  0  0  0  0  0  0  0  0
   35.1730   31.0000   50.1670 H   0  0  0  0  0  0  0  0  0  0  0  0
   36.7670   28.4560   49.0130 H   0  0  0  0  0  0  0  0  0  0  0  0
   35.0750   28.4470   49.7210 H   0  0  0  0  0  0  0  0  0  0  0  0
   35.9950   29.3950   51.8550 H   0  0  0  0  0  0  0  0  0  0  0  0
   37.7350   29.4470   51.1080 H   0  0  0  0  0  0  0  0  0  0  0  0
   39.4450   31.1050   46.4110 C   0  0  0  0  0  0  0  0  0  0  0  0
   40.3400   31.7150   46.1250 H   0  0  0  0  0  0  0  0  0  0  0  0
   39.8320   30.0960   46.5950 H   0  0  0  0  0  0  0  0  0  0  0  0
   38.5810   31.2060   45.3200 O   0  0  0  0  0  0  0  0  0  0  0  0
   37.7840   32.8150   43.4570 O   0  0  0  0  0  0  0  0  0  0  0  0
   39.0020   32.4510   44.2680 P   0  0  0  0  0  0  0  0  0  0  0  0
   39.6450   33.7920   45.0730 O   0  0  0  0  0  0  0  0  0  0  0  0
   38.8810   34.1980   45.5870 H   0  0  0  0  0  0  0  0  0  0  0  0
   40.2190   31.9050   43.2130 O   0  0  0  0  0  0  0  0  0  0  0  0
   41.0480   31.7970   43.7210 H   0  0  0  0  0  0  0  0  0  0  0  0
  1  2  1  0  0  0  0
  1  9  1  0  0  0  0
  2  7  1  0  0  0  0
  3  8  1  0  0  0  0
  3  2  2  0  0  0  0
  4  3  1  0  0  0  0
  5  4  2  0  0  0  0
  5  6  1  0  0  0  0
  6  1  2  0  0  0  0
  9 12  1  0  0  0  0
  9 11  1  0  0  0  0
 10 14  1  0  0  0  0
 10  9  1  0  0  0  0
 10 11  1  0  0  0  0
 11 16  1  0  0  0  0
 11 15  1  0  0  0  0
 13 10  1  0  0  0  0
 17 19  1  0  0  0  0
 17  5  1  0  0  0  0
 18 17  1  0  0  0  0
 20 17  1  0  0  0  0
 21 22  2  0  0  0  0
 22 23  1  0  0  0  0
 22 20  1  0  0  0  0
 23 24  1  0  0  0  0
 25 26  1  0  0  0  0
 25 22  1  0  0  0  0
M  END
>  <minimizedAffinity>
-5.07662296

>  <minimizedRMSD>
0.959242046

$$$$
