
 OpenBabel03272510153D

 26 27  0  0  0  0  0  0  0  0999 V2000
   37.1850   29.5940   51.2270 Br  0  0  0  0  0  0  0  0  0  0  0  0
   36.0260   29.3400   49.7160 C   0  0  0  0  0  0  0  0  0  0  0  0
   36.1510   30.1380   48.5950 C   0  0  0  0  0  0  0  0  0  0  0  0
   35.2800   29.9000   47.5400 C   0  0  0  0  0  0  0  0  0  0  0  0
   34.3120   28.9090   47.5750 C   0  0  0  0  0  0  0  0  0  0  0  0
   34.2270   28.1430   48.7080 C   0  0  0  0  0  0  0  0  0  0  0  0
   35.0800   28.3610   49.7680 C   0  0  0  0  0  0  0  0  0  0  0  0
   35.4200   30.5520   46.6890 H   0  0  0  0  0  0  0  0  0  0  0  0
   33.4710   27.3870   48.7070 H   0  0  0  0  0  0  0  0  0  0  0  0
   35.0080   27.7560   50.6550 H   0  0  0  0  0  0  0  0  0  0  0  0
   37.9900   33.1860   49.4120 C   0  0  0  0  0  0  0  0  0  0  0  0
   39.0310   33.2090   48.4600 C   0  0  0  0  0  0  0  0  0  0  0  0
   39.0910   32.1700   47.5410 C   0  0  0  0  0  0  0  0  0  0  0  0
   38.1490   31.1810   47.5960 N   0  0  0  0  0  0  0  0  0  0  0  0
   37.1570   31.1880   48.5280 C   0  0  0  0  0  0  0  0  0  0  0  0
   37.0830   32.1980   49.4380 N   0  0  0  0  0  0  0  0  0  0  0  0
   37.9410   34.0000   50.1360 H   0  0  0  0  0  0  0  0  0  0  0  0
   39.7180   34.0420   48.5110 H   0  0  0  0  0  0  0  0  0  0  0  0
   39.8790   32.1840   46.8160 H   0  0  0  0  0  0  0  0  0  0  0  0
   33.5400   28.8210   46.4350 O   0  0  0  0  0  0  0  0  0  0  0  0
   31.8810   29.5650   44.5950 O   0  0  0  0  0  0  0  0  0  0  0  0
   32.2030   29.7960   46.0730 P   0  0  0  0  0  0  0  0  0  0  0  0
   30.8460   29.2730   46.9480 O   0  0  0  0  0  0  0  0  0  0  0  0
   31.0330   29.1490   47.8950 H   0  0  0  0  0  0  0  0  0  0  0  0
   32.5180   31.4380   46.3190 O   0  0  0  0  0  0  0  0  0  0  0  0
   31.7000   31.9320   46.0530 H   0  0  0  0  0  0  0  0  0  0  0  0
  2  7  1  0  0  0  0
  2  1  1  0  0  0  0
  3  2  2  0  0  0  0
  4  5  2  0  0  0  0
  4  3  1  0  0  0  0
  5  6  1  0  0  0  0
  6  7  2  0  0  0  0
  7 10  1  0  0  0  0
  8  4  1  0  0  0  0
  9  6  1  0  0  0  0
 11 16  1  0  0  0  0
 11 17  1  0  0  0  0
 12 18  1  0  0  0  0
 12 11  2  0  0  0  0
 13 14  2  0  0  0  0
 13 12  1  0  0  0  0
 14 15  1  0  0  0  0
 15  3  1  0  0  0  0
 15 16  2  0  0  0  0
 19 13  1  0  0  0  0
 20  5  1  0  0  0  0
 21 22  2  0  0  0  0
 22 25  1  0  0  0  0
 22 20  1  0  0  0  0
 22 23  1  0  0  0  0
 23 24  1  0  0  0  0
 26 25  1  0  0  0  0
M  END
>  <minimizedAffinity>
-6.12894583

>  <minimizedRMSD>
0.65238601

$$$$
