
 OpenBabel03272500593D

 33 34  0  0  0  0  0  0  0  0999 V2000
   38.1730   31.8150   47.4270 C   0  0  0  0  0  0  0  0  0  0  0  0
   38.7490   32.6320   48.3720 C   0  0  0  0  0  0  0  0  0  0  0  0
   38.2820   32.6420   49.6960 C   0  0  0  0  0  0  0  0  0  0  0  0
   37.1790   31.7660   50.0370 C   0  0  0  0  0  0  0  0  0  0  0  0
   36.6690   30.9930   49.0540 C   0  0  0  0  0  0  0  0  0  0  0  0
   37.1120   30.9810   47.7810 C   0  0  0  0  0  0  0  0  0  0  0  0
   39.5770   33.3000   48.1470 H   0  0  0  0  0  0  0  0  0  0  0  0
   38.7670   33.3040   50.4000 H   0  0  0  0  0  0  0  0  0  0  0  0
   36.9320   31.8830   51.0830 H   0  0  0  0  0  0  0  0  0  0  0  0
   35.8940   30.4120   49.5280 H   0  0  0  0  0  0  0  0  0  0  0  0
   40.0110   31.2490   45.9170 C   0  0  0  0  0  0  0  0  0  0  0  0
   38.7650   31.8940   46.1140 C   0  0  0  0  0  0  0  0  0  0  0  0
   38.2700   32.5220   44.9980 C   0  0  0  0  0  0  0  0  0  0  0  0
   38.9360   32.5070   43.8350 N   0  0  0  0  0  0  0  0  0  0  0  0
   40.0910   31.9040   43.6680 C   0  0  0  0  0  0  0  0  0  0  0  0
   40.6180   31.2790   44.7090 N   0  0  0  0  0  0  0  0  0  0  0  0
   40.5070   30.7120   46.7340 H   0  0  0  0  0  0  0  0  0  0  0  0
   37.3110   33.0190   45.1510 H   0  0  0  0  0  0  0  0  0  0  0  0
   40.5590   31.9420   42.6920 H   0  0  0  0  0  0  0  0  0  0  0  0
   35.0870   30.0720   46.9950 C   0  0  0  0  0  0  0  0  0  0  0  0
   34.5410   30.6540   48.0140 O   0  0  0  0  0  0  0  0  0  0  0  0
   36.5250   30.1910   46.8220 N   0  0  0  0  0  0  0  0  0  0  0  0
   37.0330   29.7160   46.0450 H   0  0  0  0  0  0  0  0  0  0  0  0
   34.3050   29.3660   46.1200 O   0  0  0  0  0  0  0  0  0  0  0  0
   33.5030   29.9490   45.1400 C   0  0  0  0  0  0  0  0  0  0  0  0
   34.0110   30.5590   44.0930 O   0  0  0  0  0  0  0  0  0  0  0  0
   32.1190   29.9880   45.0560 O   0  0  0  0  0  0  0  0  0  0  0  0
   29.9060   31.4160   44.8440 O   0  0  0  0  0  0  0  0  0  0  0  0
   31.3840   31.4340   44.4820 P   0  0  0  0  0  0  0  0  0  0  0  0
   32.0330   32.7750   45.3190 O   0  0  0  0  0  0  0  0  0  0  0  0
   31.4460   33.5530   45.1760 H   0  0  0  0  0  0  0  0  0  0  0  0
   31.5070   31.6260   42.8280 O   0  0  0  0  0  0  0  0  0  0  0  0
   32.4060   31.8220   42.4940 H   0  0  0  0  0  0  0  0  0  0  0  0
  1  6  2  0  0  0  0
  1  2  1  0  0  0  0
  2  3  2  0  0  0  0
  3  4  1  0  0  0  0
  3  8  1  0  0  0  0
  4  9  1  0  0  0  0
  5 10  1  0  0  0  0
  5  4  2  0  0  0  0
  6  5  1  0  0  0  0
  7  2  1  0  0  0  0
 11 12  1  0  0  0  0
 11 17  1  0  0  0  0
 12  1  1  0  0  0  0
 13 18  1  0  0  0  0
 13 12  2  0  0  0  0
 14 13  1  0  0  0  0
 15 14  2  0  0  0  0
 15 16  1  0  0  0  0
 16 11  2  0  0  0  0
 19 15  1  0  0  0  0
 20 21  2  0  0  0  0
 22 20  1  0  0  0  0
 22  6  1  0  0  0  0
 23 22  1  0  0  0  0
 24 20  1  0  0  0  0
 25 24  1  0  0  0  0
 26 25  2  0  0  0  0
 27 25  1  0  0  0  0
 29 28  2  0  0  0  0
 29 27  1  0  0  0  0
 29 30  1  0  0  0  0
 31 30  1  0  0  0  0
 32 29  1  0  0  0  0
 33 32  1  0  0  0  0
M  END
>  <minimizedAffinity>
-5.33558798

>  <minimizedRMSD>
1.24995804

$$$$
