
 OpenBabel03272509103D

 38 40  0  0  0  0  0  0  0  0999 V2000
   35.6870   29.5170   33.0200 C   0  0  0  0  0  0  0  0  0  0  0  0
   36.2780   30.1860   33.7100 H   0  0  0  0  0  0  0  0  0  0  0  0
   35.7930   29.9540   32.0280 H   0  0  0  0  0  0  0  0  0  0  0  0
   34.2850   29.6160   33.5260 C   0  0  0  0  0  0  0  0  0  0  0  0
   33.1840   29.2020   32.7870 C   0  0  0  0  0  0  0  0  0  0  0  0
   31.9160   29.3150   33.2980 C   0  0  0  0  0  0  0  0  0  0  0  0
   31.7010   29.8450   34.5640 C   0  0  0  0  0  0  0  0  0  0  0  0
   32.7800   30.2460   35.2780 C   0  0  0  0  0  0  0  0  0  0  0  0
   34.0560   30.1430   34.7880 C   0  0  0  0  0  0  0  0  0  0  0  0
   33.4040   28.7900   31.7910 H   0  0  0  0  0  0  0  0  0  0  0  0
   31.1460   28.9580   32.6250 H   0  0  0  0  0  0  0  0  0  0  0  0
   30.6530   29.8790   34.8490 H   0  0  0  0  0  0  0  0  0  0  0  0
   32.5700   30.6510   36.2550 H   0  0  0  0  0  0  0  0  0  0  0  0
   35.1550   30.5560   35.5250 O   0  0  0  0  0  0  0  0  0  0  0  0
   36.7170   32.6440   35.7240 O   0  0  0  0  0  0  0  0  0  0  0  0
   35.3020   32.1910   35.9610 P   0  0  0  0  0  0  0  0  0  0  0  0
   34.9040   32.3320   37.6180 O   0  0  0  0  0  0  0  0  0  0  0  0
   34.8080   33.3240   37.7700 H   0  0  0  0  0  0  0  0  0  0  0  0
   34.2780   33.1850   35.0600 O   0  0  0  0  0  0  0  0  0  0  0  0
   33.4610   32.6890   34.8070 H   0  0  0  0  0  0  0  0  0  0  0  0
   36.8230   27.6560   34.2090 C   0  0  0  0  0  3  0  0  0  0  0  0
   36.2640   28.1710   33.1530 C   0  0  0  0  0  3  0  0  0  0  0  0
   37.8930   24.4050   32.9170 C   0  0  0  0  0  0  0  0  0  0  0  0
   38.2980   23.7510   34.0940 C   0  0  0  0  0  0  0  0  0  0  0  0
   38.1890   24.4570   35.3190 C   0  0  0  0  0  0  0  0  0  0  0  0
   37.6990   25.7320   35.2930 N   0  0  0  0  0  0  0  0  0  0  0  0
   37.3300   26.2950   34.1210 C   0  0  0  0  0  0  0  0  0  0  0  0
   37.4230   25.6520   32.9540 N   0  0  0  0  0  0  0  0  0  0  0  0
   37.9710   23.8790   31.9790 H   0  0  0  0  0  0  0  0  0  0  0  0
   38.6790   22.7580   34.1080 H   0  0  0  0  0  0  0  0  0  0  0  0
   38.5840   23.8620   36.5990 C   0  0  0  0  0  0  0  0  0  0  0  0
   37.9930   24.2330   37.7910 C   0  0  0  0  0  0  0  0  0  0  0  0
   38.5960   23.4830   38.8000 C   0  0  0  0  0  0  0  0  0  0  0  0
   39.5210   22.6920   38.1930 N   0  0  0  0  0  0  0  0  0  0  0  0
   39.4960   22.9330   36.8950 N   0  0  0  0  0  0  0  0  0  0  0  0
   37.1980   24.9770   37.9260 H   0  0  0  0  0  0  0  0  0  0  0  0
   38.3810   23.5140   39.8520 H   0  0  0  0  0  0  0  0  0  0  0  0
   40.1550   22.0000   38.6640 H   0  0  0  0  0  0  0  0  0  0  0  0
  1 22  1  0  0  0  0
  1  4  1  0  0  0  0
  1  2  1  0  0  0  0
  3  1  1  0  0  0  0
  4  9  1  0  0  0  0
  5  6  1  0  0  0  0
  5  4  2  0  0  0  0
  6  7  2  0  0  0  0
  7 12  1  0  0  0  0
  7  8  1  0  0  0  0
  8 13  1  0  0  0  0
  9  8  2  0  0  0  0
  9 14  1  0  0  0  0
 10  5  1  0  0  0  0
 11  6  1  0  0  0  0
 14 16  1  0  0  0  0
 15 16  2  0  0  0  0
 16 17  1  0  0  0  0
 17 18  1  0  0  0  0
 19 16  1  0  0  0  0
 20 19  1  0  0  0  0
 22 21  2  0  0  0  0
 23 28  2  0  0  0  0
 23 24  1  0  0  0  0
 24 30  1  0  0  0  0
 24 25  2  0  0  0  0
 25 31  1  0  0  0  0
 26 25  1  0  0  0  0
 27 21  1  0  0  0  0
 27 26  2  0  0  0  0
 28 27  1  0  0  0  0
 29 23  1  0  0  0  0
 31 35  2  0  0  0  0
 31 32  1  0  0  0  0
 32 36  1  0  0  0  0
 32 33  2  0  0  0  0
 33 37  1  0  0  0  0
 34 38  1  0  0  0  0
 34 33  1  0  0  0  0
 35 34  1  0  0  0  0
M  END
>  <minimizedAffinity>
-6.22556829

$$$$

 OpenBabel03272509103D

 38 40  0  0  0  0  0  0  0  0999 V2000
   37.6020   25.7660   34.6270 C   0  0  0  0  0  0  0  0  0  0  0  0
   37.2330   25.5050   35.6610 H   0  0  0  0  0  0  0  0  0  0  0  0
   37.1980   24.9960   33.9700 H   0  0  0  0  0  0  0  0  0  0  0  0
   39.0880   25.6830   34.7360 C   0  0  0  0  0  0  0  0  0  0  0  0
   39.9330   26.7210   34.3640 C   0  0  0  0  0  0  0  0  0  0  0  0
   41.2940   26.5950   34.4840 C   0  0  0  0  0  0  0  0  0  0  0  0
   41.8600   25.4270   34.9800 C   0  0  0  0  0  0  0  0  0  0  0  0
   41.0300   24.4190   35.3410 C   0  0  0  0  0  0  0  0  0  0  0  0
   39.6680   24.5240   35.2300 C   0  0  0  0  0  0  0  0  0  0  0  0
   39.4390   27.6250   33.9770 H   0  0  0  0  0  0  0  0  0  0  0  0
   41.8390   27.4720   34.1610 H   0  0  0  0  0  0  0  0  0  0  0  0
   42.9450   25.4550   35.0240 H   0  0  0  0  0  0  0  0  0  0  0  0
   41.5100   23.5310   35.7200 H   0  0  0  0  0  0  0  0  0  0  0  0
   38.8250   23.4880   35.6010 O   0  0  0  0  0  0  0  0  0  0  0  0
   38.2340   24.6070   37.8900 O   0  0  0  0  0  0  0  0  0  0  0  0
   38.4460   23.2660   37.2420 P   0  0  0  0  0  0  0  0  0  0  0  0
   39.7560   22.4520   37.9790 O   0  0  0  0  0  0  0  0  0  0  0  0
   39.4000   22.1680   38.8790 H   0  0  0  0  0  0  0  0  0  0  0  0
   37.0400   22.3570   37.4530 O   0  0  0  0  0  0  0  0  0  0  0  0
   36.9360   21.7150   36.7060 H   0  0  0  0  0  0  0  0  0  0  0  0
   36.6060   27.5580   33.2250 C   0  0  0  0  0  3  0  0  0  0  0  0
   37.1100   27.1220   34.3420 C   0  0  0  0  0  3  0  0  0  0  0  0
   35.8270   30.9190   32.0080 C   0  0  0  0  0  0  0  0  0  0  0  0
   35.3490   31.5400   33.1760 C   0  0  0  0  0  0  0  0  0  0  0  0
   35.3090   30.7730   34.3680 C   0  0  0  0  0  0  0  0  0  0  0  0
   35.7330   29.4760   34.3220 N   0  0  0  0  0  0  0  0  0  0  0  0
   36.1790   28.9470   33.1600 C   0  0  0  0  0  0  0  0  0  0  0  0
   36.2270   29.6470   32.0230 N   0  0  0  0  0  0  0  0  0  0  0  0
   35.8620   31.4910   31.0950 H   0  0  0  0  0  0  0  0  0  0  0  0
   35.0200   32.5510   33.2060 H   0  0  0  0  0  0  0  0  0  0  0  0
   34.8290   31.3300   35.6370 C   0  0  0  0  0  0  0  0  0  0  0  0
   33.5100   31.2190   36.0310 C   0  0  0  0  0  0  0  0  0  0  0  0
   33.3970   31.8490   37.2710 C   0  0  0  0  0  0  0  0  0  0  0  0
   34.6370   32.3150   37.5810 N   0  0  0  0  0  0  0  0  0  0  0  0
   35.4650   31.9970   36.6030 N   0  0  0  0  0  0  0  0  0  0  0  0
   32.6990   30.7280   35.4790 H   0  0  0  0  0  0  0  0  0  0  0  0
   32.5130   31.9520   37.8700 H   0  0  0  0  0  0  0  0  0  0  0  0
   34.9050   32.8400   38.4500 H   0  0  0  0  0  0  0  0  0  0  0  0
  1  4  1  0  0  0  0
  1  2  1  0  0  0  0
  3  1  1  0  0  0  0
  4  9  1  0  0  0  0
  5  6  1  0  0  0  0
  5  4  2  0  0  0  0
  6  7  2  0  0  0  0
  7 12  1  0  0  0  0
  7  8  1  0  0  0  0
  8 13  1  0  0  0  0
  9  8  2  0  0  0  0
  9 14  1  0  0  0  0
 10  5  1  0  0  0  0
 11  6  1  0  0  0  0
 14 16  1  0  0  0  0
 16 19  1  0  0  0  0
 16 15  2  0  0  0  0
 16 17  1  0  0  0  0
 17 18  1  0  0  0  0
 20 19  1  0  0  0  0
 21 22  2  0  0  0  0
 22  1  1  0  0  0  0
 23 28  2  0  0  0  0
 23 24  1  0  0  0  0
 24 30  1  0  0  0  0
 24 25  2  0  0  0  0
 25 31  1  0  0  0  0
 26 25  1  0  0  0  0
 27 21  1  0  0  0  0
 27 26  2  0  0  0  0
 28 27  1  0  0  0  0
 29 23  1  0  0  0  0
 31 32  1  0  0  0  0
 31 35  2  0  0  0  0
 32 33  2  0  0  0  0
 33 34  1  0  0  0  0
 33 37  1  0  0  0  0
 34 38  1  0  0  0  0
 35 34  1  0  0  0  0
 36 32  1  0  0  0  0
M  END
>  <minimizedAffinity>
-6.21380568

$$$$

 OpenBabel03272509103D

 38 40  0  0  0  0  0  0  0  0999 V2000
   37.5470   26.4350   35.3690 C   0  0  0  0  0  0  0  0  0  0  0  0
   37.5180   26.9060   36.3940 H   0  0  0  0  0  0  0  0  0  0  0  0
   36.8720   25.5820   35.4210 H   0  0  0  0  0  0  0  0  0  0  0  0
   38.9690   26.0120   35.2000 C   0  0  0  0  0  0  0  0  0  0  0  0
   39.9640   26.8690   34.7490 C   0  0  0  0  0  0  0  0  0  0  0  0
   41.2570   26.4300   34.6110 C   0  0  0  0  0  0  0  0  0  0  0  0
   41.6020   25.1190   34.9170 C   0  0  0  0  0  0  0  0  0  0  0  0
   40.6250   24.2900   35.3560 C   0  0  0  0  0  0  0  0  0  0  0  0
   39.3270   24.7060   35.5020 C   0  0  0  0  0  0  0  0  0  0  0  0
   39.6440   27.8960   34.5200 H   0  0  0  0  0  0  0  0  0  0  0  0
   41.9360   27.1930   34.2520 H   0  0  0  0  0  0  0  0  0  0  0  0
   42.6550   24.9000   34.7650 H   0  0  0  0  0  0  0  0  0  0  0  0
   40.9350   23.2820   35.5830 H   0  0  0  0  0  0  0  0  0  0  0  0
   38.3340   23.8510   35.9520 O   0  0  0  0  0  0  0  0  0  0  0  0
   38.1250   24.6930   38.4200 O   0  0  0  0  0  0  0  0  0  0  0  0
   38.2670   23.4390   37.5980 P   0  0  0  0  0  0  0  0  0  0  0  0
   39.7190   22.6310   37.9990 O   0  0  0  0  0  0  0  0  0  0  0  0
   39.5430   22.2360   38.9100 H   0  0  0  0  0  0  0  0  0  0  0  0
   36.9580   22.4340   37.9500 O   0  0  0  0  0  0  0  0  0  0  0  0
   36.7460   21.8680   37.1670 H   0  0  0  0  0  0  0  0  0  0  0  0
   36.1550   28.3280   34.5650 C   0  0  0  0  0  3  0  0  0  0  0  0
   37.1310   27.4790   34.4210 C   0  0  0  0  0  3  0  0  0  0  0  0
   34.9750   31.2280   32.6730 C   0  0  0  0  0  0  0  0  0  0  0  0
   35.5430   30.9930   31.4090 C   0  0  0  0  0  0  0  0  0  0  0  0
   36.3290   29.8240   31.2390 C   0  0  0  0  0  0  0  0  0  0  0  0
   36.4930   28.9910   32.3090 N   0  0  0  0  0  0  0  0  0  0  0  0
   35.9150   29.2840   33.4950 C   0  0  0  0  0  0  0  0  0  0  0  0
   35.1700   30.3780   33.6810 N   0  0  0  0  0  0  0  0  0  0  0  0
   34.3750   32.1130   32.8140 H   0  0  0  0  0  0  0  0  0  0  0  0
   35.4120   31.6460   30.5790 H   0  0  0  0  0  0  0  0  0  0  0  0
   36.9640   29.4910   29.9600 C   0  0  0  0  0  0  0  0  0  0  0  0
   37.5180   30.4580   29.1450 C   0  0  0  0  0  0  0  0  0  0  0  0
   38.0290   29.8060   28.0230 C   0  0  0  0  0  0  0  0  0  0  0  0
   37.7700   28.4810   28.1940 N   0  0  0  0  0  0  0  0  0  0  0  0
   37.1410   28.3190   29.3450 N   0  0  0  0  0  0  0  0  0  0  0  0
   37.5530   31.5370   29.3370 H   0  0  0  0  0  0  0  0  0  0  0  0
   38.5300   30.2500   27.1830 H   0  0  0  0  0  0  0  0  0  0  0  0
   38.0230   27.7060   27.5330 H   0  0  0  0  0  0  0  0  0  0  0  0
  1  3  1  0  0  0  0
  1  2  1  0  0  0  0
  4  1  1  0  0  0  0
  4  9  1  0  0  0  0
  5  4  2  0  0  0  0
  6  5  1  0  0  0  0
  6  7  2  0  0  0  0
  7  8  1  0  0  0  0
  8  9  2  0  0  0  0
  8 13  1  0  0  0  0
  9 14  1  0  0  0  0
 10  5  1  0  0  0  0
 11  6  1  0  0  0  0
 12  7  1  0  0  0  0
 14 16  1  0  0  0  0
 16 19  1  0  0  0  0
 16 17  1  0  0  0  0
 16 15  2  0  0  0  0
 17 18  1  0  0  0  0
 20 19  1  0  0  0  0
 22 21  2  0  0  0  0
 22  1  1  0  0  0  0
 23 29  1  0  0  0  0
 23 28  1  0  0  0  0
 24 23  2  0  0  0  0
 25 24  1  0  0  0  0
 25 26  2  0  0  0  0
 26 27  1  0  0  0  0
 27 28  2  0  0  0  0
 27 21  1  0  0  0  0
 30 24  1  0  0  0  0
 31 25  1  0  0  0  0
 32 36  1  0  0  0  0
 32 31  1  0  0  0  0
 33 34  1  0  0  0  0
 33 32  2  0  0  0  0
 34 35  1  0  0  0  0
 35 31  2  0  0  0  0
 37 33  1  0  0  0  0
 38 34  1  0  0  0  0
M  END
>  <minimizedAffinity>
-6.08508921

$$$$

 OpenBabel03272509103D

 38 40  0  0  0  0  0  0  0  0999 V2000
   35.1570   29.6520   33.3670 C   0  0  0  0  0  0  0  0  0  0  0  0
   35.5190   30.3720   32.5780 H   0  0  0  0  0  0  0  0  0  0  0  0
   34.2100   29.2630   32.9940 H   0  0  0  0  0  0  0  0  0  0  0  0
   34.9730   30.5000   34.5820 C   0  0  0  0  0  0  0  0  0  0  0  0
   35.9380   31.3880   35.0370 C   0  0  0  0  0  0  0  0  0  0  0  0
   35.7190   32.1460   36.1610 C   0  0  0  0  0  0  0  0  0  0  0  0
   34.5290   32.0420   36.8700 C   0  0  0  0  0  0  0  0  0  0  0  0
   33.5930   31.1730   36.4190 C   0  0  0  0  0  0  0  0  0  0  0  0
   33.7890   30.4060   35.2990 C   0  0  0  0  0  0  0  0  0  0  0  0
   36.8630   31.4360   34.4430 H   0  0  0  0  0  0  0  0  0  0  0  0
   36.5470   32.7970   36.4100 H   0  0  0  0  0  0  0  0  0  0  0  0
   34.4820   32.6940   37.7370 H   0  0  0  0  0  0  0  0  0  0  0  0
   32.6840   31.1230   36.9980 H   0  0  0  0  0  0  0  0  0  0  0  0
   32.8260   29.5200   34.8460 O   0  0  0  0  0  0  0  0  0  0  0  0
   30.2700   30.0680   34.9230 O   0  0  0  0  0  0  0  0  0  0  0  0
   31.4690   30.1120   34.0140 P   0  0  0  0  0  0  0  0  0  0  0  0
   31.2130   29.1180   32.6480 O   0  0  0  0  0  0  0  0  0  0  0  0
   30.5410   29.6240   32.0910 H   0  0  0  0  0  0  0  0  0  0  0  0
   31.6800   31.7080   33.5060 O   0  0  0  0  0  0  0  0  0  0  0  0
   32.6370   31.8810   33.3210 H   0  0  0  0  0  0  0  0  0  0  0  0
   36.4260   27.8730   34.5470 C   0  0  0  0  0  3  0  0  0  0  0  0
   36.2100   28.6370   33.5160 C   0  0  0  0  0  3  0  0  0  0  0  0
   39.3820   26.0290   33.4290 C   0  0  0  0  0  0  0  0  0  0  0  0
   39.5610   25.1140   34.4820 C   0  0  0  0  0  0  0  0  0  0  0  0
   38.6440   25.1560   35.5630 C   0  0  0  0  0  0  0  0  0  0  0  0
   37.6400   26.0810   35.5280 N   0  0  0  0  0  0  0  0  0  0  0  0
   37.5320   26.9300   34.4820 C   0  0  0  0  0  0  0  0  0  0  0  0
   38.3820   26.9110   33.4500 N   0  0  0  0  0  0  0  0  0  0  0  0
   40.0720   26.0070   32.6010 H   0  0  0  0  0  0  0  0  0  0  0  0
   40.3440   24.3960   34.5040 H   0  0  0  0  0  0  0  0  0  0  0  0
   38.7450   24.2440   36.7070 C   0  0  0  0  0  0  0  0  0  0  0  0
   37.9160   24.3560   37.8060 C   0  0  0  0  0  0  0  0  0  0  0  0
   38.2760   23.3440   38.6960 C   0  0  0  0  0  0  0  0  0  0  0  0
   39.2980   22.6620   38.1130 N   0  0  0  0  0  0  0  0  0  0  0  0
   39.5570   23.2100   36.9400 N   0  0  0  0  0  0  0  0  0  0  0  0
   37.1230   25.0970   37.9570 H   0  0  0  0  0  0  0  0  0  0  0  0
   37.8410   23.1350   39.6550 H   0  0  0  0  0  0  0  0  0  0  0  0
   39.8060   21.8350   38.5150 H   0  0  0  0  0  0  0  0  0  0  0  0
  1 22  1  0  0  0  0
  1  4  1  0  0  0  0
  2  1  1  0  0  0  0
  3  1  1  0  0  0  0
  4  5  2  0  0  0  0
  4  9  1  0  0  0  0
  5  6  1  0  0  0  0
  6 11  1  0  0  0  0
  6  7  2  0  0  0  0
  7 12  1  0  0  0  0
  8  7  1  0  0  0  0
  8 13  1  0  0  0  0
  9  8  2  0  0  0  0
 10  5  1  0  0  0  0
 14  9  1  0  0  0  0
 16 14  1  0  0  0  0
 16 15  2  0  0  0  0
 17 16  1  0  0  0  0
 18 17  1  0  0  0  0
 19 16  1  0  0  0  0
 20 19  1  0  0  0  0
 22 21  2  0  0  0  0
 23 28  2  0  0  0  0
 23 24  1  0  0  0  0
 24 30  1  0  0  0  0
 24 25  2  0  0  0  0
 25 31  1  0  0  0  0
 26 25  1  0  0  0  0
 27 21  1  0  0  0  0
 27 26  2  0  0  0  0
 28 27  1  0  0  0  0
 29 23  1  0  0  0  0
 31 35  2  0  0  0  0
 31 32  1  0  0  0  0
 32 36  1  0  0  0  0
 32 33  2  0  0  0  0
 33 37  1  0  0  0  0
 34 38  1  0  0  0  0
 34 33  1  0  0  0  0
 35 34  1  0  0  0  0
M  END
>  <minimizedAffinity>
-6.05841112

$$$$

 OpenBabel03272509103D

 38 40  0  0  0  0  0  0  0  0999 V2000
   34.7890   29.9900   33.8060 C   0  0  0  0  0  0  0  0  0  0  0  0
   34.1660   30.0210   32.8660 H   0  0  0  0  0  0  0  0  0  0  0  0
   34.0750   29.9650   34.6290 H   0  0  0  0  0  0  0  0  0  0  0  0
   35.5610   31.2680   33.7760 C   0  0  0  0  0  0  0  0  0  0  0  0
   36.0990   31.7990   32.6110 C   0  0  0  0  0  0  0  0  0  0  0  0
   36.8010   32.9780   32.6380 C   0  0  0  0  0  0  0  0  0  0  0  0
   36.9920   33.6680   33.8290 C   0  0  0  0  0  0  0  0  0  0  0  0
   36.4640   33.1430   34.9600 C   0  0  0  0  0  0  0  0  0  0  0  0
   35.7590   31.9670   34.9580 C   0  0  0  0  0  0  0  0  0  0  0  0
   35.9220   31.2180   31.6940 H   0  0  0  0  0  0  0  0  0  0  0  0
   37.1670   33.2840   31.6660 H   0  0  0  0  0  0  0  0  0  0  0  0
   37.5630   34.5840   33.7130 H   0  0  0  0  0  0  0  0  0  0  0  0
   36.6350   33.7100   35.8620 H   0  0  0  0  0  0  0  0  0  0  0  0
   35.2230   31.4370   36.1200 O   0  0  0  0  0  0  0  0  0  0  0  0
   33.0490   32.8450   35.7550 O   0  0  0  0  0  0  0  0  0  0  0  0
   33.8640   32.1730   36.8260 P   0  0  0  0  0  0  0  0  0  0  0  0
   34.4200   33.3270   37.9590 O   0  0  0  0  0  0  0  0  0  0  0  0
   33.5970   33.5800   38.4840 H   0  0  0  0  0  0  0  0  0  0  0  0
   32.8730   31.0580   37.6140 O   0  0  0  0  0  0  0  0  0  0  0  0
   33.4170   30.3090   37.9640 H   0  0  0  0  0  0  0  0  0  0  0  0
   36.3920   28.2830   34.6320 C   0  0  0  0  0  3  0  0  0  0  0  0
   35.6360   28.7920   33.7040 C   0  0  0  0  0  3  0  0  0  0  0  0
   38.2270   25.6900   32.8170 C   0  0  0  0  0  0  0  0  0  0  0  0
   38.5700   24.8050   33.8540 C   0  0  0  0  0  0  0  0  0  0  0  0
   38.1530   25.1290   35.1710 C   0  0  0  0  0  0  0  0  0  0  0  0
   37.4440   26.2810   35.3620 N   0  0  0  0  0  0  0  0  0  0  0  0
   37.1520   27.0830   34.3140 C   0  0  0  0  0  0  0  0  0  0  0  0
   37.5320   26.8000   33.0650 N   0  0  0  0  0  0  0  0  0  0  0  0
   38.5380   25.4540   31.8120 H   0  0  0  0  0  0  0  0  0  0  0  0
   39.1220   23.9090   33.6990 H   0  0  0  0  0  0  0  0  0  0  0  0
   38.4600   24.2720   36.3190 C   0  0  0  0  0  0  0  0  0  0  0  0
   37.8150   24.4160   37.5320 C   0  0  0  0  0  0  0  0  0  0  0  0
   38.3400   23.4530   38.3940 C   0  0  0  0  0  0  0  0  0  0  0  0
   39.2740   22.7660   37.6820 N   0  0  0  0  0  0  0  0  0  0  0  0
   39.3270   23.2670   36.4610 N   0  0  0  0  0  0  0  0  0  0  0  0
   37.0350   25.1470   37.7780 H   0  0  0  0  0  0  0  0  0  0  0  0
   38.0680   23.2780   39.4170 H   0  0  0  0  0  0  0  0  0  0  0  0
   39.8610   21.9680   38.0310 H   0  0  0  0  0  0  0  0  0  0  0  0
  1  3  1  0  0  0  0
  2  1  1  0  0  0  0
  4  1  1  0  0  0  0
  4  9  1  0  0  0  0
  5  6  1  0  0  0  0
  5  4  2  0  0  0  0
  6  7  2  0  0  0  0
  7  8  1  0  0  0  0
  8 13  1  0  0  0  0
  9  8  2  0  0  0  0
  9 14  1  0  0  0  0
 10  5  1  0  0  0  0
 11  6  1  0  0  0  0
 12  7  1  0  0  0  0
 14 16  1  0  0  0  0
 15 16  2  0  0  0  0
 16 19  1  0  0  0  0
 16 17  1  0  0  0  0
 17 18  1  0  0  0  0
 19 20  1  0  0  0  0
 22  1  1  0  0  0  0
 22 21  2  0  0  0  0
 23 28  2  0  0  0  0
 23 24  1  0  0  0  0
 24 25  2  0  0  0  0
 25 26  1  0  0  0  0
 25 31  1  0  0  0  0
 27 21  1  0  0  0  0
 27 26  2  0  0  0  0
 28 27  1  0  0  0  0
 29 23  1  0  0  0  0
 30 24  1  0  0  0  0
 31 35  2  0  0  0  0
 31 32  1  0  0  0  0
 32 36  1  0  0  0  0
 32 33  2  0  0  0  0
 33 37  1  0  0  0  0
 34 38  1  0  0  0  0
 34 33  1  0  0  0  0
 35 34  1  0  0  0  0
M  END
>  <minimizedAffinity>
-5.9681201

$$$$

 OpenBabel03272509103D

 38 40  0  0  0  0  0  0  0  0999 V2000
   38.2270   24.1340   32.6240 C   0  0  0  0  0  0  0  0  0  0  0  0
   38.8210   23.9330   31.6860 H   0  0  0  0  0  0  0  0  0  0  0  0
   38.9400   24.0490   33.4440 H   0  0  0  0  0  0  0  0  0  0  0  0
   37.2080   23.0440   32.6550 C   0  0  0  0  0  0  0  0  0  0  0  0
   36.1430   22.9800   31.7660 C   0  0  0  0  0  0  0  0  0  0  0  0
   35.2320   21.9560   31.8370 C   0  0  0  0  0  0  0  0  0  0  0  0
   35.3520   20.9600   32.7990 C   0  0  0  0  0  0  0  0  0  0  0  0
   36.3930   21.0310   33.6620 C   0  0  0  0  0  0  0  0  0  0  0  0
   37.3150   22.0440   33.6100 C   0  0  0  0  0  0  0  0  0  0  0  0
   36.0900   23.7890   31.0230 H   0  0  0  0  0  0  0  0  0  0  0  0
   34.4520   22.0190   31.0890 H   0  0  0  0  0  0  0  0  0  0  0  0
   34.5680   20.2100   32.7470 H   0  0  0  0  0  0  0  0  0  0  0  0
   36.4490   20.2390   34.3930 H   0  0  0  0  0  0  0  0  0  0  0  0
   38.3770   22.1090   34.4980 O   0  0  0  0  0  0  0  0  0  0  0  0
   37.9250   24.1010   36.1310 O   0  0  0  0  0  0  0  0  0  0  0  0
   38.1000   22.6060   36.0980 P   0  0  0  0  0  0  0  0  0  0  0  0
   39.4550   22.1480   37.0340 O   0  0  0  0  0  0  0  0  0  0  0  0
   39.1560   22.2780   37.9880 H   0  0  0  0  0  0  0  0  0  0  0  0
   36.7120   21.9040   36.7520 O   0  0  0  0  0  0  0  0  0  0  0  0
   36.5640   21.0100   36.3530 H   0  0  0  0  0  0  0  0  0  0  0  0
   37.1030   26.2110   33.3920 C   0  0  0  0  0  3  0  0  0  0  0  0
   37.6460   25.4760   32.4660 C   0  0  0  0  0  3  0  0  0  0  0  0
   35.9740   29.0860   31.4310 C   0  0  0  0  0  0  0  0  0  0  0  0
   35.6070   29.9930   32.4420 C   0  0  0  0  0  0  0  0  0  0  0  0
   35.7620   29.5840   33.7910 C   0  0  0  0  0  0  0  0  0  0  0  0
   36.2560   28.3350   34.0390 N   0  0  0  0  0  0  0  0  0  0  0  0
   36.5870   27.5180   33.0140 C   0  0  0  0  0  0  0  0  0  0  0  0
   36.4510   27.8780   31.7340 N   0  0  0  0  0  0  0  0  0  0  0  0
   35.8610   29.3850   30.4020 H   0  0  0  0  0  0  0  0  0  0  0  0
   35.2230   30.9640   32.2430 H   0  0  0  0  0  0  0  0  0  0  0  0
   35.4100   30.4560   34.9150 C   0  0  0  0  0  0  0  0  0  0  0  0
   34.0960   30.7410   35.2360 C   0  0  0  0  0  0  0  0  0  0  0  0
   34.1180   31.5890   36.3430 C   0  0  0  0  0  0  0  0  0  0  0  0
   35.4280   31.7880   36.6520 N   0  0  0  0  0  0  0  0  0  0  0  0
   36.1710   31.1090   35.7960 N   0  0  0  0  0  0  0  0  0  0  0  0
   33.2010   30.3720   34.7220 H   0  0  0  0  0  0  0  0  0  0  0  0
   33.2750   32.0080   36.8580 H   0  0  0  0  0  0  0  0  0  0  0  0
   35.8010   32.3770   37.4360 H   0  0  0  0  0  0  0  0  0  0  0  0
  1  4  1  0  0  0  0
  1  3  1  0  0  0  0
  2  1  1  0  0  0  0
  4  9  1  0  0  0  0
  5  6  1  0  0  0  0
  5  4  2  0  0  0  0
  6  7  2  0  0  0  0
  7  8  1  0  0  0  0
  8 13  1  0  0  0  0
  9  8  2  0  0  0  0
  9 14  1  0  0  0  0
 10  5  1  0  0  0  0
 11  6  1  0  0  0  0
 12  7  1  0  0  0  0
 14 16  1  0  0  0  0
 16 15  2  0  0  0  0
 16 19  1  0  0  0  0
 16 17  1  0  0  0  0
 17 18  1  0  0  0  0
 20 19  1  0  0  0  0
 22  1  1  0  0  0  0
 22 21  2  0  0  0  0
 23 28  2  0  0  0  0
 23 24  1  0  0  0  0
 24 25  2  0  0  0  0
 25 26  1  0  0  0  0
 25 31  1  0  0  0  0
 27 21  1  0  0  0  0
 27 26  2  0  0  0  0
 28 27  1  0  0  0  0
 29 23  1  0  0  0  0
 30 24  1  0  0  0  0
 31 32  1  0  0  0  0
 31 35  2  0  0  0  0
 32 33  2  0  0  0  0
 33 34  1  0  0  0  0
 33 37  1  0  0  0  0
 34 38  1  0  0  0  0
 35 34  1  0  0  0  0
 36 32  1  0  0  0  0
M  END
>  <minimizedAffinity>
-5.92928505

$$$$

 OpenBabel03272509103D

 38 40  0  0  0  0  0  0  0  0999 V2000
   38.9170   24.5200   34.6060 C   0  0  0  0  0  0  0  0  0  0  0  0
   38.6500   23.5530   34.0900 H   0  0  0  0  0  0  0  0  0  0  0  0
   39.9430   24.7360   34.3070 H   0  0  0  0  0  0  0  0  0  0  0  0
   38.8150   24.2020   36.0610 C   0  0  0  0  0  0  0  0  0  0  0  0
   38.0160   24.9230   36.9380 C   0  0  0  0  0  0  0  0  0  0  0  0
   37.9580   24.5890   38.2680 C   0  0  0  0  0  0  0  0  0  0  0  0
   38.6960   23.5240   38.7690 C   0  0  0  0  0  0  0  0  0  0  0  0
   39.4730   22.8260   37.9060 C   0  0  0  0  0  0  0  0  0  0  0  0
   39.5470   23.1410   36.5740 C   0  0  0  0  0  0  0  0  0  0  0  0
   37.4510   25.7560   36.4960 H   0  0  0  0  0  0  0  0  0  0  0  0
   37.3000   25.2270   38.8450 H   0  0  0  0  0  0  0  0  0  0  0  0
   38.5610   23.3650   39.8350 H   0  0  0  0  0  0  0  0  0  0  0  0
   40.0290   22.0070   38.3360 H   0  0  0  0  0  0  0  0  0  0  0  0
   40.3440   22.4220   35.6990 O   0  0  0  0  0  0  0  0  0  0  0  0
   42.6560   23.1260   36.7010 O   0  0  0  0  0  0  0  0  0  0  0  0
   41.8950   21.9320   36.1910 P   0  0  0  0  0  0  0  0  0  0  0  0
   42.6890   21.2590   34.8350 O   0  0  0  0  0  0  0  0  0  0  0  0
   43.5050   20.8080   35.2200 H   0  0  0  0  0  0  0  0  0  0  0  0
   41.8380   20.7830   37.4250 O   0  0  0  0  0  0  0  0  0  0  0  0
   41.0190   20.2340   37.3390 H   0  0  0  0  0  0  0  0  0  0  0  0
   38.1250   26.7920   33.9910 C   0  0  0  0  0  3  0  0  0  0  0  0
   37.9340   25.5160   34.1540 C   0  0  0  0  0  3  0  0  0  0  0  0
   35.4270   28.1810   31.9470 C   0  0  0  0  0  0  0  0  0  0  0  0
   34.9130   29.1790   32.7940 C   0  0  0  0  0  0  0  0  0  0  0  0
   35.5200   29.3500   34.0650 C   0  0  0  0  0  0  0  0  0  0  0  0
   36.5670   28.5390   34.4000 N   0  0  0  0  0  0  0  0  0  0  0  0
   37.0050   27.6000   33.5320 C   0  0  0  0  0  0  0  0  0  0  0  0
   36.4520   27.4180   32.3290 N   0  0  0  0  0  0  0  0  0  0  0  0
   34.9740   28.0410   30.9790 H   0  0  0  0  0  0  0  0  0  0  0  0
   34.0980   29.8080   32.5280 H   0  0  0  0  0  0  0  0  0  0  0  0
   35.0580   30.3630   35.0190 C   0  0  0  0  0  0  0  0  0  0  0  0
   35.9410   31.1540   35.7290 C   0  0  0  0  0  0  0  0  0  0  0  0
   35.1780   31.9990   36.5340 C   0  0  0  0  0  0  0  0  0  0  0  0
   33.8750   31.6950   36.2880 N   0  0  0  0  0  0  0  0  0  0  0  0
   33.8290   30.7270   35.3910 N   0  0  0  0  0  0  0  0  0  0  0  0
   37.0360   31.1280   35.6730 H   0  0  0  0  0  0  0  0  0  0  0  0
   35.5360   32.7460   37.2170 H   0  0  0  0  0  0  0  0  0  0  0  0
   33.0350   32.1460   36.7300 H   0  0  0  0  0  0  0  0  0  0  0  0
  1  4  1  0  0  0  0
  2  1  1  0  0  0  0
  3  1  1  0  0  0  0
  4  9  2  0  0  0  0
  4  5  1  0  0  0  0
  5  6  2  0  0  0  0
  6  7  1  0  0  0  0
  6 11  1  0  0  0  0
  7 12  1  0  0  0  0
  8 13  1  0  0  0  0
  8  7  2  0  0  0  0
  9  8  1  0  0  0  0
 10  5  1  0  0  0  0
 14 16  1  0  0  0  0
 14  9  1  0  0  0  0
 16 15  2  0  0  0  0
 16 19  1  0  0  0  0
 17 18  1  0  0  0  0
 17 16  1  0  0  0  0
 20 19  1  0  0  0  0
 21 22  2  0  0  0  0
 22  1  1  0  0  0  0
 23 28  2  0  0  0  0
 23 24  1  0  0  0  0
 24 25  2  0  0  0  0
 25 26  1  0  0  0  0
 25 31  1  0  0  0  0
 27 21  1  0  0  0  0
 27 26  2  0  0  0  0
 28 27  1  0  0  0  0
 29 23  1  0  0  0  0
 30 24  1  0  0  0  0
 31 35  2  0  0  0  0
 31 32  1  0  0  0  0
 32 33  2  0  0  0  0
 33 37  1  0  0  0  0
 34 33  1  0  0  0  0
 34 38  1  0  0  0  0
 35 34  1  0  0  0  0
 36 32  1  0  0  0  0
M  END
>  <minimizedAffinity>
-5.88135147

$$$$

 OpenBabel03272509103D

 38 40  0  0  0  0  0  0  0  0999 V2000
   37.4380   26.2030   35.5450 C   0  0  0  0  0  0  0  0  0  0  0  0
   37.4460   26.8270   36.4850 H   0  0  0  0  0  0  0  0  0  0  0  0
   36.8270   25.3320   35.7780 H   0  0  0  0  0  0  0  0  0  0  0  0
   38.8700   25.8400   35.3320 C   0  0  0  0  0  0  0  0  0  0  0  0
   39.8070   26.7270   34.8180 C   0  0  0  0  0  0  0  0  0  0  0  0
   41.1130   26.3430   34.6420 C   0  0  0  0  0  0  0  0  0  0  0  0
   41.5290   25.0590   34.9730 C   0  0  0  0  0  0  0  0  0  0  0  0
   40.6090   24.2000   35.4740 C   0  0  0  0  0  0  0  0  0  0  0  0
   39.3000   24.5620   35.6590 C   0  0  0  0  0  0  0  0  0  0  0  0
   39.4310   27.7300   34.5710 H   0  0  0  0  0  0  0  0  0  0  0  0
   41.7410   27.1240   34.2350 H   0  0  0  0  0  0  0  0  0  0  0  0
   42.5850   24.8840   34.7860 H   0  0  0  0  0  0  0  0  0  0  0  0
   40.9740   23.2150   35.7180 H   0  0  0  0  0  0  0  0  0  0  0  0
   38.3650   23.6770   36.1710 O   0  0  0  0  0  0  0  0  0  0  0  0
   38.2160   24.6560   38.5920 O   0  0  0  0  0  0  0  0  0  0  0  0
   38.3420   23.3590   37.8400 P   0  0  0  0  0  0  0  0  0  0  0  0
   39.8070   22.5780   38.2470 O   0  0  0  0  0  0  0  0  0  0  0  0
   39.6570   22.2340   39.1830 H   0  0  0  0  0  0  0  0  0  0  0  0
   37.0470   22.3710   38.2820 O   0  0  0  0  0  0  0  0  0  0  0  0
   36.8170   21.7610   37.5370 H   0  0  0  0  0  0  0  0  0  0  0  0
   36.4870   28.2930   34.5970 C   0  0  0  0  0  3  0  0  0  0  0  0
   36.8880   27.0600   34.4840 C   0  0  0  0  0  3  0  0  0  0  0  0
   36.2490   29.8540   31.2980 C   0  0  0  0  0  0  0  0  0  0  0  0
   34.8890   30.2080   31.2480 C   0  0  0  0  0  0  0  0  0  0  0  0
   34.0790   29.8950   32.3690 C   0  0  0  0  0  0  0  0  0  0  0  0
   34.6580   29.2680   33.4350 N   0  0  0  0  0  0  0  0  0  0  0  0
   35.9740   28.9590   33.4100 C   0  0  0  0  0  0  0  0  0  0  0  0
   36.7590   29.2430   32.3660 N   0  0  0  0  0  0  0  0  0  0  0  0
   36.8750   30.0870   30.4510 H   0  0  0  0  0  0  0  0  0  0  0  0
   34.4430   30.6960   30.4150 H   0  0  0  0  0  0  0  0  0  0  0  0
   32.6500   30.2220   32.4150 C   0  0  0  0  0  0  0  0  0  0  0  0
   32.1490   31.3850   31.8620 C   0  0  0  0  0  0  0  0  0  0  0  0
   30.7710   31.3820   32.0790 C   0  0  0  0  0  0  0  0  0  0  0  0
   30.4880   30.2320   32.7470 N   0  0  0  0  0  0  0  0  0  0  0  0
   31.6120   29.5630   32.9340 N   0  0  0  0  0  0  0  0  0  0  0  0
   32.7210   32.1670   31.3480 H   0  0  0  0  0  0  0  0  0  0  0  0
   30.0640   32.1330   31.7820 H   0  0  0  0  0  0  0  0  0  0  0  0
   29.5390   29.9140   33.0660 H   0  0  0  0  0  0  0  0  0  0  0  0
  1  3  1  0  0  0  0
  1  2  1  0  0  0  0
  4  1  1  0  0  0  0
  4  9  1  0  0  0  0
  5  4  2  0  0  0  0
  6  5  1  0  0  0  0
  6  7  2  0  0  0  0
  7  8  1  0  0  0  0
  8  9  2  0  0  0  0
  8 13  1  0  0  0  0
  9 14  1  0  0  0  0
 10  5  1  0  0  0  0
 11  6  1  0  0  0  0
 12  7  1  0  0  0  0
 14 16  1  0  0  0  0
 16 17  1  0  0  0  0
 16 19  1  0  0  0  0
 16 15  2  0  0  0  0
 17 18  1  0  0  0  0
 20 19  1  0  0  0  0
 22 21  2  0  0  0  0
 22  1  1  0  0  0  0
 23 28  1  0  0  0  0
 24 23  2  0  0  0  0
 24 25  1  0  0  0  0
 25 31  1  0  0  0  0
 25 26  2  0  0  0  0
 27 26  1  0  0  0  0
 27 21  1  0  0  0  0
 28 27  2  0  0  0  0
 29 23  1  0  0  0  0
 30 24  1  0  0  0  0
 31 35  2  0  0  0  0
 32 33  2  0  0  0  0
 32 31  1  0  0  0  0
 33 34  1  0  0  0  0
 34 35  1  0  0  0  0
 34 38  1  0  0  0  0
 36 32  1  0  0  0  0
 37 33  1  0  0  0  0
M  END
>  <minimizedAffinity>
-5.83793354

$$$$

 OpenBabel03272509103D

 38 40  0  0  0  0  0  0  0  0999 V2000
   41.0120   24.1830   34.6040 C   0  0  0  0  0  0  0  0  0  0  0  0
   41.8700   24.3010   33.8810 H   0  0  0  0  0  0  0  0  0  0  0  0
   40.9630   25.1230   35.1540 H   0  0  0  0  0  0  0  0  0  0  0  0
   41.4220   23.0460   35.4800 C   0  0  0  0  0  0  0  0  0  0  0  0
   42.4410   22.1630   35.1440 C   0  0  0  0  0  0  0  0  0  0  0  0
   42.7800   21.1320   35.9840 C   0  0  0  0  0  0  0  0  0  0  0  0
   42.1140   20.9460   37.1890 C   0  0  0  0  0  0  0  0  0  0  0  0
   41.1210   21.8110   37.5080 C   0  0  0  0  0  0  0  0  0  0  0  0
   40.7660   22.8470   36.6850 C   0  0  0  0  0  0  0  0  0  0  0  0
   42.9390   22.3510   34.1810 H   0  0  0  0  0  0  0  0  0  0  0  0
   43.5880   20.5180   35.6090 H   0  0  0  0  0  0  0  0  0  0  0  0
   42.4780   20.0960   37.7590 H   0  0  0  0  0  0  0  0  0  0  0  0
   40.6300   21.6300   38.4520 H   0  0  0  0  0  0  0  0  0  0  0  0
   39.7490   23.7270   37.0200 O   0  0  0  0  0  0  0  0  0  0  0  0
   37.2050   24.2850   36.7760 O   0  0  0  0  0  0  0  0  0  0  0  0
   38.1500   23.1620   37.1090 P   0  0  0  0  0  0  0  0  0  0  0  0
   37.8750   22.6100   38.7030 O   0  0  0  0  0  0  0  0  0  0  0  0
   37.0020   22.1070   38.6480 H   0  0  0  0  0  0  0  0  0  0  0  0
   37.8600   21.8980   36.0280 O   0  0  0  0  0  0  0  0  0  0  0  0
   38.6890   21.3760   35.8880 H   0  0  0  0  0  0  0  0  0  0  0  0
   38.7940   24.6730   33.5990 C   0  0  0  0  0  3  0  0  0  0  0  0
   39.8200   23.8960   33.7920 C   0  0  0  0  0  3  0  0  0  0  0  0
   36.1880   24.4620   31.0400 C   0  0  0  0  0  0  0  0  0  0  0  0
   35.7060   23.1550   31.2320 C   0  0  0  0  0  0  0  0  0  0  0  0
   36.3000   22.3700   32.2530 C   0  0  0  0  0  0  0  0  0  0  0  0
   37.3060   22.9210   32.9940 N   0  0  0  0  0  0  0  0  0  0  0  0
   37.7170   24.1860   32.7510 C   0  0  0  0  0  0  0  0  0  0  0  0
   37.1740   24.9470   31.7950 N   0  0  0  0  0  0  0  0  0  0  0  0
   35.7440   25.0690   30.2670 H   0  0  0  0  0  0  0  0  0  0  0  0
   34.9220   22.7310   30.6520 H   0  0  0  0  0  0  0  0  0  0  0  0
   35.8680   20.9970   32.5310 C   0  0  0  0  0  0  0  0  0  0  0  0
   35.6300   20.0870   31.5200 C   0  0  0  0  0  0  0  0  0  0  0  0
   35.2400   18.8930   32.1260 C   0  0  0  0  0  0  0  0  0  0  0  0
   35.2540   19.1170   33.4680 N   0  0  0  0  0  0  0  0  0  0  0  0
   35.6280   20.3660   33.6830 N   0  0  0  0  0  0  0  0  0  0  0  0
   35.7280   20.2630   30.4420 H   0  0  0  0  0  0  0  0  0  0  0  0
   34.9770   17.9720   31.6410 H   0  0  0  0  0  0  0  0  0  0  0  0
   35.0120   18.4240   34.2180 H   0  0  0  0  0  0  0  0  0  0  0  0
  1  3  1  0  0  0  0
  1  4  1  0  0  0  0
  2  1  1  0  0  0  0
  4  9  1  0  0  0  0
  5  4  2  0  0  0  0
  5  6  1  0  0  0  0
  6  7  2  0  0  0  0
  7  8  1  0  0  0  0
  7 12  1  0  0  0  0
  8 13  1  0  0  0  0
  9 14  1  0  0  0  0
  9  8  2  0  0  0  0
 10  5  1  0  0  0  0
 11  6  1  0  0  0  0
 14 16  1  0  0  0  0
 15 16  2  0  0  0  0
 16 17  1  0  0  0  0
 18 17  1  0  0  0  0
 19 16  1  0  0  0  0
 20 19  1  0  0  0  0
 21 22  2  0  0  0  0
 22  1  1  0  0  0  0
 23 24  2  0  0  0  0
 23 28  1  0  0  0  0
 24 25  1  0  0  0  0
 25 31  1  0  0  0  0
 25 26  2  0  0  0  0
 27 26  1  0  0  0  0
 27 21  1  0  0  0  0
 28 27  2  0  0  0  0
 29 23  1  0  0  0  0
 30 24  1  0  0  0  0
 31 35  2  0  0  0  0
 32 33  2  0  0  0  0
 32 31  1  0  0  0  0
 33 34  1  0  0  0  0
 34 35  1  0  0  0  0
 34 38  1  0  0  0  0
 36 32  1  0  0  0  0
 37 33  1  0  0  0  0
M  END
>  <minimizedAffinity>
-5.63607168

$$$$
