
 OpenBabel03272507513D

 26 27  0  0  0  0  0  0  0  0999 V2000
   39.3190   23.3380   35.6780 C   0  0  0  0  0  0  0  0  0  0  0  0
   39.6810   24.4150   34.8190 C   0  0  0  0  0  0  0  0  0  0  0  0
   40.8490   24.3090   34.0830 C   0  0  0  0  0  0  0  0  0  0  0  0
   41.5990   23.1870   34.2090 N   0  0  0  0  0  0  0  0  0  0  0  0
   41.2470   22.1710   35.0270 C   0  0  0  0  0  0  0  0  0  0  0  0
   40.1080   22.2430   35.7640 N   0  0  0  0  0  0  0  0  0  0  0  0
   41.1080   25.1340   33.4370 H   0  0  0  0  0  0  0  0  0  0  0  0
   41.8960   21.3010   35.0790 H   0  0  0  0  0  0  0  0  0  0  0  0
   38.7950   25.5390   34.7840 N   0  0  0  0  0  0  0  0  0  0  0  0
   38.9120   26.5570   35.6460 C   0  0  0  0  0  0  0  0  0  0  0  0
   38.0220   27.6350   35.5740 C   0  0  0  0  0  0  0  0  0  0  0  0
   37.0830   27.5220   34.5800 C   0  0  0  0  0  0  0  0  0  0  0  0
   36.2720   28.5020   34.5120 O   0  0  0  0  0  0  0  0  0  0  0  0
   36.9370   26.5170   33.7000 N   0  0  0  0  0  0  0  0  0  0  0  0
   37.8350   25.5040   33.8270 C   0  0  0  0  0  0  0  0  0  0  0  0
   37.7150   24.5500   33.0100 O   0  0  0  0  0  0  0  0  0  0  0  0
   39.6880   26.5610   36.4030 H   0  0  0  0  0  0  0  0  0  0  0  0
   38.0720   28.4720   36.2370 H   0  0  0  0  0  0  0  0  0  0  0  0
   36.1910   26.5220   32.9780 H   0  0  0  0  0  0  0  0  0  0  0  0
   38.1690   23.3840   36.4370 O   0  0  0  0  0  0  0  0  0  0  0  0
   38.0040   24.6990   38.6620 O   0  0  0  0  0  0  0  0  0  0  0  0
   38.2170   23.2980   38.1470 P   0  0  0  0  0  0  0  0  0  0  0  0
   36.9590   22.3170   38.6970 O   0  0  0  0  0  0  0  0  0  0  0  0
   36.1050   22.7940   38.5360 H   0  0  0  0  0  0  0  0  0  0  0  0
   39.6930   22.6530   38.6150 O   0  0  0  0  0  0  0  0  0  0  0  0
   39.9920   22.9730   39.5010 H   0  0  0  0  0  0  0  0  0  0  0  0
  1  6  1  0  0  0  0
  1 20  1  0  0  0  0
  2  1  2  0  0  0  0
  3  4  2  0  0  0  0
  3  2  1  0  0  0  0
  4  5  1  0  0  0  0
  5  8  1  0  0  0  0
  5  6  2  0  0  0  0
  7  3  1  0  0  0  0
  9  2  1  0  0  0  0
  9 10  1  0  0  0  0
 10 17  1  0  0  0  0
 11 10  2  0  0  0  0
 11 18  1  0  0  0  0
 12 11  1  0  0  0  0
 13 12  2  0  0  0  0
 14 15  1  0  0  0  0
 14 12  1  0  0  0  0
 15  9  1  0  0  0  0
 16 15  2  0  0  0  0
 19 14  1  0  0  0  0
 20 22  1  0  0  0  0
 22 25  1  0  0  0  0
 22 21  2  0  0  0  0
 22 23  1  0  0  0  0
 24 23  1  0  0  0  0
 25 26  1  0  0  0  0
M  END
>  <minimizedAffinity>
-5.12462282

$$$$

 OpenBabel03272507513D

 26 27  0  0  0  0  0  0  0  0999 V2000
   38.0900   24.5650   33.5710 C   0  0  0  0  0  0  0  0  0  0  0  0
   38.2440   23.1560   33.7180 C   0  0  0  0  0  0  0  0  0  0  0  0
   37.4870   22.3220   32.9130 C   0  0  0  0  0  0  0  0  0  0  0  0
   36.6330   22.8770   32.0180 N   0  0  0  0  0  0  0  0  0  0  0  0
   36.4950   24.2140   31.8860 C   0  0  0  0  0  0  0  0  0  0  0  0
   37.2210   25.0620   32.6610 N   0  0  0  0  0  0  0  0  0  0  0  0
   37.6160   21.2570   33.0380 H   0  0  0  0  0  0  0  0  0  0  0  0
   35.7910   24.5900   31.1480 H   0  0  0  0  0  0  0  0  0  0  0  0
   39.1820   22.7090   34.7030 N   0  0  0  0  0  0  0  0  0  0  0  0
   40.4990   22.6870   34.4640 C   0  0  0  0  0  0  0  0  0  0  0  0
   41.3790   22.2410   35.4580 C   0  0  0  0  0  0  0  0  0  0  0  0
   40.7620   21.8590   36.6220 C   0  0  0  0  0  0  0  0  0  0  0  0
   41.5600   21.4530   37.5280 O   0  0  0  0  0  0  0  0  0  0  0  0
   39.4460   21.8690   36.8950 N   0  0  0  0  0  0  0  0  0  0  0  0
   38.6510   22.3130   35.8850 C   0  0  0  0  0  0  0  0  0  0  0  0
   37.4120   22.3300   36.1220 O   0  0  0  0  0  0  0  0  0  0  0  0
   40.8980   23.0080   33.5090 H   0  0  0  0  0  0  0  0  0  0  0  0
   42.4370   22.2030   35.3180 H   0  0  0  0  0  0  0  0  0  0  0  0
   39.0730   21.5590   37.8130 H   0  0  0  0  0  0  0  0  0  0  0  0
   38.8140   25.4490   34.3430 O   0  0  0  0  0  0  0  0  0  0  0  0
   37.8560   25.4860   36.7490 O   0  0  0  0  0  0  0  0  0  0  0  0
   38.0700   26.3920   35.5630 P   0  0  0  0  0  0  0  0  0  0  0  0
   39.1050   27.6460   36.0140 O   0  0  0  0  0  0  0  0  0  0  0  0
   39.8750   27.2500   36.4970 H   0  0  0  0  0  0  0  0  0  0  0  0
   36.6360   27.0210   34.9620 O   0  0  0  0  0  0  0  0  0  0  0  0
   35.9540   27.1700   35.6620 H   0  0  0  0  0  0  0  0  0  0  0  0
  1  2  1  0  0  0  0
  1 20  1  0  0  0  0
  2  9  1  0  0  0  0
  3  7  1  0  0  0  0
  3  2  2  0  0  0  0
  4  3  1  0  0  0  0
  5  4  2  0  0  0  0
  5  6  1  0  0  0  0
  6  1  2  0  0  0  0
  8  5  1  0  0  0  0
  9 15  1  0  0  0  0
 10  9  1  0  0  0  0
 10 11  2  0  0  0  0
 11 12  1  0  0  0  0
 12 14  1  0  0  0  0
 12 13  2  0  0  0  0
 14 19  1  0  0  0  0
 15 16  2  0  0  0  0
 15 14  1  0  0  0  0
 17 10  1  0  0  0  0
 18 11  1  0  0  0  0
 20 22  1  0  0  0  0
 22 23  1  0  0  0  0
 22 21  2  0  0  0  0
 23 24  1  0  0  0  0
 25 22  1  0  0  0  0
 25 26  1  0  0  0  0
M  END
>  <minimizedAffinity>
-4.75292444

$$$$

 OpenBabel03272507513D

 26 27  0  0  0  0  0  0  0  0999 V2000
   37.7430   25.3730   33.7980 C   0  0  0  0  0  0  0  0  0  0  0  0
   38.3750   25.5660   35.0600 C   0  0  0  0  0  0  0  0  0  0  0  0
   38.2170   26.7850   35.6980 C   0  0  0  0  0  0  0  0  0  0  0  0
   37.4680   27.7430   35.0990 N   0  0  0  0  0  0  0  0  0  0  0  0
   36.8720   27.5490   33.9020 C   0  0  0  0  0  0  0  0  0  0  0  0
   37.0070   26.3660   33.2480 N   0  0  0  0  0  0  0  0  0  0  0  0
   38.7030   26.9140   36.6540 H   0  0  0  0  0  0  0  0  0  0  0  0
   36.2860   28.3610   33.4800 H   0  0  0  0  0  0  0  0  0  0  0  0
   39.1360   24.4690   35.5750 N   0  0  0  0  0  0  0  0  0  0  0  0
   40.4040   24.2530   35.2030 C   0  0  0  0  0  0  0  0  0  0  0  0
   41.1090   23.1660   35.7340 C   0  0  0  0  0  0  0  0  0  0  0  0
   40.3870   22.4070   36.6200 C   0  0  0  0  0  0  0  0  0  0  0  0
   41.0260   21.4180   37.1040 O   0  0  0  0  0  0  0  0  0  0  0  0
   39.1170   22.5950   37.0150 N   0  0  0  0  0  0  0  0  0  0  0  0
   38.4930   23.6690   36.4600 C   0  0  0  0  0  0  0  0  0  0  0  0
   37.2980   23.8620   36.8190 O   0  0  0  0  0  0  0  0  0  0  0  0
   40.8960   24.9070   34.4930 H   0  0  0  0  0  0  0  0  0  0  0  0
   42.1220   22.9490   35.4690 H   0  0  0  0  0  0  0  0  0  0  0  0
   38.6530   21.9630   37.6950 H   0  0  0  0  0  0  0  0  0  0  0  0
   37.8630   24.1830   33.1120 O   0  0  0  0  0  0  0  0  0  0  0  0
   37.4740   22.5500   31.1400 O   0  0  0  0  0  0  0  0  0  0  0  0
   37.1450   23.9570   31.5750 P   0  0  0  0  0  0  0  0  0  0  0  0
   35.4700   24.1080   31.7080 O   0  0  0  0  0  0  0  0  0  0  0  0
   35.1300   23.3270   32.2140 H   0  0  0  0  0  0  0  0  0  0  0  0
   37.7440   25.1160   30.5210 O   0  0  0  0  0  0  0  0  0  0  0  0
   37.7630   24.8130   29.5800 H   0  0  0  0  0  0  0  0  0  0  0  0
  1  2  1  0  0  0  0
  2  9  1  0  0  0  0
  2  3  2  0  0  0  0
  3  7  1  0  0  0  0
  4  3  1  0  0  0  0
  5  4  2  0  0  0  0
  6  1  2  0  0  0  0
  6  5  1  0  0  0  0
  8  5  1  0  0  0  0
  9 15  1  0  0  0  0
 10  9  1  0  0  0  0
 10 11  2  0  0  0  0
 11 12  1  0  0  0  0
 12 14  1  0  0  0  0
 12 13  2  0  0  0  0
 14 19  1  0  0  0  0
 15 16  2  0  0  0  0
 15 14  1  0  0  0  0
 17 10  1  0  0  0  0
 18 11  1  0  0  0  0
 20  1  1  0  0  0  0
 21 22  2  0  0  0  0
 22 23  1  0  0  0  0
 22 20  1  0  0  0  0
 23 24  1  0  0  0  0
 25 22  1  0  0  0  0
 26 25  1  0  0  0  0
M  END
>  <minimizedAffinity>
-4.74137831

$$$$

 OpenBabel03272507513D

 26 27  0  0  0  0  0  0  0  0999 V2000
   40.3800   23.9540   35.5110 C   0  0  0  0  0  0  0  0  0  0  0  0
   40.5840   25.0970   34.6840 C   0  0  0  0  0  0  0  0  0  0  0  0
   41.8710   25.5860   34.5400 C   0  0  0  0  0  0  0  0  0  0  0  0
   42.8840   24.9600   35.1880 N   0  0  0  0  0  0  0  0  0  0  0  0
   42.6800   23.8780   35.9700 C   0  0  0  0  0  0  0  0  0  0  0  0
   41.4300   23.3720   36.1350 N   0  0  0  0  0  0  0  0  0  0  0  0
   42.0070   26.4520   33.9090 H   0  0  0  0  0  0  0  0  0  0  0  0
   43.5380   23.4260   36.4600 H   0  0  0  0  0  0  0  0  0  0  0  0
   39.4230   25.6560   34.0600 N   0  0  0  0  0  0  0  0  0  0  0  0
   38.9480   25.1830   32.9010 C   0  0  0  0  0  0  0  0  0  0  0  0
   37.8090   25.7630   32.3280 C   0  0  0  0  0  0  0  0  0  0  0  0
   37.2820   26.8000   33.0550 C   0  0  0  0  0  0  0  0  0  0  0  0
   36.2460   27.3290   32.5360 O   0  0  0  0  0  0  0  0  0  0  0  0
   37.7330   27.2990   34.2180 N   0  0  0  0  0  0  0  0  0  0  0  0
   38.8410   26.6890   34.7170 C   0  0  0  0  0  0  0  0  0  0  0  0
   39.2800   27.1430   35.8090 O   0  0  0  0  0  0  0  0  0  0  0  0
   39.4320   24.3560   32.3950 H   0  0  0  0  0  0  0  0  0  0  0  0
   37.3900   25.4230   31.4060 H   0  0  0  0  0  0  0  0  0  0  0  0
   37.2620   28.0920   34.6960 H   0  0  0  0  0  0  0  0  0  0  0  0
   39.1230   23.4200   35.6970 O   0  0  0  0  0  0  0  0  0  0  0  0
   38.0550   24.7020   37.6780 O   0  0  0  0  0  0  0  0  0  0  0  0
   38.4180   23.3010   37.2530 P   0  0  0  0  0  0  0  0  0  0  0  0
   37.0110   22.3760   37.1640 O   0  0  0  0  0  0  0  0  0  0  0  0
   36.3310   22.8980   36.6660 H   0  0  0  0  0  0  0  0  0  0  0  0
   39.5170   22.5750   38.2910 O   0  0  0  0  0  0  0  0  0  0  0  0
   39.4130   22.8640   39.2300 H   0  0  0  0  0  0  0  0  0  0  0  0
  1 20  1  0  0  0  0
  1  6  1  0  0  0  0
  2  1  2  0  0  0  0
  3  2  1  0  0  0  0
  3  4  2  0  0  0  0
  4  5  1  0  0  0  0
  5  6  2  0  0  0  0
  5  8  1  0  0  0  0
  7  3  1  0  0  0  0
  9  2  1  0  0  0  0
  9 15  1  0  0  0  0
 10  9  1  0  0  0  0
 11 10  2  0  0  0  0
 11 12  1  0  0  0  0
 12 14  1  0  0  0  0
 13 12  2  0  0  0  0
 14 19  1  0  0  0  0
 14 15  1  0  0  0  0
 15 16  2  0  0  0  0
 17 10  1  0  0  0  0
 18 11  1  0  0  0  0
 20 22  1  0  0  0  0
 22 21  2  0  0  0  0
 22 25  1  0  0  0  0
 23 22  1  0  0  0  0
 24 23  1  0  0  0  0
 25 26  1  0  0  0  0
M  END
>  <minimizedAffinity>
-4.67210531

$$$$

 OpenBabel03272507513D

 26 27  0  0  0  0  0  0  0  0999 V2000
   36.8050   27.3570   33.8060 C   0  0  0  0  0  0  0  0  0  0  0  0
   36.9280   27.5310   32.3970 C   0  0  0  0  0  0  0  0  0  0  0  0
   36.4670   28.7090   31.8350 C   0  0  0  0  0  0  0  0  0  0  0  0
   35.9190   29.6480   32.6450 N   0  0  0  0  0  0  0  0  0  0  0  0
   35.8070   29.4730   33.9800 C   0  0  0  0  0  0  0  0  0  0  0  0
   36.2480   28.3280   34.5640 N   0  0  0  0  0  0  0  0  0  0  0  0
   36.5690   28.8250   30.7660 H   0  0  0  0  0  0  0  0  0  0  0  0
   35.3560   30.2670   34.5690 H   0  0  0  0  0  0  0  0  0  0  0  0
   37.5280   26.4580   31.6640 N   0  0  0  0  0  0  0  0  0  0  0  0
   38.8540   26.3670   31.5020 C   0  0  0  0  0  0  0  0  0  0  0  0
   39.3940   25.2980   30.7770 C   0  0  0  0  0  0  0  0  0  0  0  0
   38.4590   24.4200   30.2900 C   0  0  0  0  0  0  0  0  0  0  0  0
   38.9480   23.4470   29.6300 O   0  0  0  0  0  0  0  0  0  0  0  0
   37.1250   24.4810   30.4330 N   0  0  0  0  0  0  0  0  0  0  0  0
   36.6690   25.5440   31.1480 C   0  0  0  0  0  0  0  0  0  0  0  0
   35.4180   25.6200   31.2940 O   0  0  0  0  0  0  0  0  0  0  0  0
   39.5190   27.1100   31.9250 H   0  0  0  0  0  0  0  0  0  0  0  0
   40.4450   25.1790   30.6190 H   0  0  0  0  0  0  0  0  0  0  0  0
   36.4940   23.7640   30.0250 H   0  0  0  0  0  0  0  0  0  0  0  0
   37.2440   26.2060   34.4250 O   0  0  0  0  0  0  0  0  0  0  0  0
   38.0800   25.2500   36.6830 O   0  0  0  0  0  0  0  0  0  0  0  0
   38.4740   26.2400   35.6160 P   0  0  0  0  0  0  0  0  0  0  0  0
   39.9360   25.7500   34.9300 O   0  0  0  0  0  0  0  0  0  0  0  0
   39.8700   24.7820   34.7260 H   0  0  0  0  0  0  0  0  0  0  0  0
   38.6140   27.8040   36.2060 O   0  0  0  0  0  0  0  0  0  0  0  0
   38.9260   27.8390   37.1430 H   0  0  0  0  0  0  0  0  0  0  0  0
  1 20  1  0  0  0  0
  1  6  1  0  0  0  0
  2  1  2  0  0  0  0
  3  2  1  0  0  0  0
  3  4  2  0  0  0  0
  4  5  1  0  0  0  0
  5  6  2  0  0  0  0
  5  8  1  0  0  0  0
  7  3  1  0  0  0  0
  9  2  1  0  0  0  0
 10  9  1  0  0  0  0
 10 17  1  0  0  0  0
 11 10  2  0  0  0  0
 12 14  1  0  0  0  0
 12 11  1  0  0  0  0
 13 12  2  0  0  0  0
 14 15  1  0  0  0  0
 15 16  2  0  0  0  0
 15  9  1  0  0  0  0
 18 11  1  0  0  0  0
 19 14  1  0  0  0  0
 20 22  1  0  0  0  0
 22 25  1  0  0  0  0
 22 21  2  0  0  0  0
 23 22  1  0  0  0  0
 24 23  1  0  0  0  0
 25 26  1  0  0  0  0
M  END
>  <minimizedAffinity>
-4.64153194

$$$$

 OpenBabel03272507513D

 26 27  0  0  0  0  0  0  0  0999 V2000
   37.3770   25.5780   33.5050 C   0  0  0  0  0  0  0  0  0  0  0  0
   37.8570   25.8890   34.8100 C   0  0  0  0  0  0  0  0  0  0  0  0
   37.6630   27.1700   35.2970 C   0  0  0  0  0  0  0  0  0  0  0  0
   37.0230   28.0750   34.5160 N   0  0  0  0  0  0  0  0  0  0  0  0
   36.5710   27.7700   33.2800 C   0  0  0  0  0  0  0  0  0  0  0  0
   36.7470   26.5230   32.7700 N   0  0  0  0  0  0  0  0  0  0  0  0
   38.0330   27.3880   36.2880 H   0  0  0  0  0  0  0  0  0  0  0  0
   36.0670   28.5450   32.7090 H   0  0  0  0  0  0  0  0  0  0  0  0
   38.5140   24.8360   35.5230 N   0  0  0  0  0  0  0  0  0  0  0  0
   37.8580   24.0540   36.3900 C   0  0  0  0  0  0  0  0  0  0  0  0
   38.5430   23.0360   37.0640 C   0  0  0  0  0  0  0  0  0  0  0  0
   39.8750   22.9500   36.7470 C   0  0  0  0  0  0  0  0  0  0  0  0
   40.5000   22.0250   37.3590 O   0  0  0  0  0  0  0  0  0  0  0  0
   40.5630   23.7160   35.8840 N   0  0  0  0  0  0  0  0  0  0  0  0
   39.8360   24.6840   35.2650 C   0  0  0  0  0  0  0  0  0  0  0  0
   40.4650   25.4150   34.4510 O   0  0  0  0  0  0  0  0  0  0  0  0
   36.8010   24.1960   36.5790 H   0  0  0  0  0  0  0  0  0  0  0  0
   38.0660   22.3850   37.7650 H   0  0  0  0  0  0  0  0  0  0  0  0
   41.5770   23.5730   35.7090 H   0  0  0  0  0  0  0  0  0  0  0  0
   37.5410   24.3210   32.9630 O   0  0  0  0  0  0  0  0  0  0  0  0
   37.0620   22.4100   31.2820 O   0  0  0  0  0  0  0  0  0  0  0  0
   36.8300   23.8890   31.4660 P   0  0  0  0  0  0  0  0  0  0  0  0
   35.1690   24.1760   31.5290 O   0  0  0  0  0  0  0  0  0  0  0  0
   34.7660   23.5170   32.1500 H   0  0  0  0  0  0  0  0  0  0  0  0
   37.5250   24.8100   30.2500 O   0  0  0  0  0  0  0  0  0  0  0  0
   37.5350   24.3520   29.3740 H   0  0  0  0  0  0  0  0  0  0  0  0
  1  2  1  0  0  0  0
  2  3  2  0  0  0  0
  2  9  1  0  0  0  0
  3  7  1  0  0  0  0
  4  3  1  0  0  0  0
  5  4  2  0  0  0  0
  6  5  1  0  0  0  0
  6  1  2  0  0  0  0
  8  5  1  0  0  0  0
  9 10  1  0  0  0  0
 10 17  1  0  0  0  0
 10 11  2  0  0  0  0
 11 18  1  0  0  0  0
 12 11  1  0  0  0  0
 12 13  2  0  0  0  0
 14 12  1  0  0  0  0
 15  9  1  0  0  0  0
 15 14  1  0  0  0  0
 16 15  2  0  0  0  0
 19 14  1  0  0  0  0
 20  1  1  0  0  0  0
 21 22  2  0  0  0  0
 22 23  1  0  0  0  0
 22 20  1  0  0  0  0
 23 24  1  0  0  0  0
 25 22  1  0  0  0  0
 26 25  1  0  0  0  0
M  END
>  <minimizedAffinity>
-4.62140417

$$$$

 OpenBabel03272507513D

 26 27  0  0  0  0  0  0  0  0999 V2000
   38.1830   26.0870   32.4600 C   0  0  0  0  0  0  0  0  0  0  0  0
   39.1350   25.9110   33.5060 C   0  0  0  0  0  0  0  0  0  0  0  0
   40.3740   26.5160   33.3780 C   0  0  0  0  0  0  0  0  0  0  0  0
   40.6310   27.2510   32.2680 N   0  0  0  0  0  0  0  0  0  0  0  0
   39.7210   27.4110   31.2830 C   0  0  0  0  0  0  0  0  0  0  0  0
   38.4960   26.8310   31.3740 N   0  0  0  0  0  0  0  0  0  0  0  0
   41.0830   26.3730   34.1800 H   0  0  0  0  0  0  0  0  0  0  0  0
   39.9940   28.0130   30.4200 H   0  0  0  0  0  0  0  0  0  0  0  0
   38.7290   25.1110   34.6200 N   0  0  0  0  0  0  0  0  0  0  0  0
   38.7550   23.7720   34.5750 C   0  0  0  0  0  0  0  0  0  0  0  0
   38.3490   23.0310   35.6910 C   0  0  0  0  0  0  0  0  0  0  0  0
   37.9500   23.7950   36.7570 C   0  0  0  0  0  0  0  0  0  0  0  0
   37.5790   23.1230   37.7740 O   0  0  0  0  0  0  0  0  0  0  0  0
   37.9110   25.1360   36.8370 N   0  0  0  0  0  0  0  0  0  0  0  0
   38.3190   25.7920   35.7180 C   0  0  0  0  0  0  0  0  0  0  0  0
   38.2900   27.0530   35.7720 O   0  0  0  0  0  0  0  0  0  0  0  0
   39.0870   23.2510   33.6850 H   0  0  0  0  0  0  0  0  0  0  0  0
   38.3510   21.9620   35.7060 H   0  0  0  0  0  0  0  0  0  0  0  0
   37.5910   25.6280   37.6940 H   0  0  0  0  0  0  0  0  0  0  0  0
   36.9330   25.5100   32.5270 O   0  0  0  0  0  0  0  0  0  0  0  0
   35.5360   23.4650   31.7660 O   0  0  0  0  0  0  0  0  0  0  0  0
   36.2650   24.6590   31.1990 P   0  0  0  0  0  0  0  0  0  0  0  0
   35.1550   25.6460   30.3990 O   0  0  0  0  0  0  0  0  0  0  0  0
   34.3670   25.7630   30.9900 H   0  0  0  0  0  0  0  0  0  0  0  0
   37.5030   24.2250   30.1550 O   0  0  0  0  0  0  0  0  0  0  0  0
   37.3130   23.3970   29.6510 H   0  0  0  0  0  0  0  0  0  0  0  0
  1 20  1  0  0  0  0
  1  2  1  0  0  0  0
  2  9  1  0  0  0  0
  3  2  2  0  0  0  0
  3  7  1  0  0  0  0
  4  3  1  0  0  0  0
  5  6  1  0  0  0  0
  5  4  2  0  0  0  0
  6  1  2  0  0  0  0
  8  5  1  0  0  0  0
  9 15  1  0  0  0  0
 10  9  1  0  0  0  0
 10 11  2  0  0  0  0
 11 18  1  0  0  0  0
 11 12  1  0  0  0  0
 12 14  1  0  0  0  0
 12 13  2  0  0  0  0
 14 19  1  0  0  0  0
 15 16  2  0  0  0  0
 15 14  1  0  0  0  0
 17 10  1  0  0  0  0
 22 21  2  0  0  0  0
 22 20  1  0  0  0  0
 23 24  1  0  0  0  0
 23 22  1  0  0  0  0
 25 22  1  0  0  0  0
 26 25  1  0  0  0  0
M  END
>  <minimizedAffinity>
-4.54600143

$$$$

 OpenBabel03272507513D

 26 27  0  0  0  0  0  0  0  0999 V2000
   36.7470   27.4090   33.7180 C   0  0  0  0  0  0  0  0  0  0  0  0
   36.5410   27.3520   32.3090 C   0  0  0  0  0  0  0  0  0  0  0  0
   35.8730   28.3990   31.6970 C   0  0  0  0  0  0  0  0  0  0  0  0
   35.4440   29.4340   32.4600 N   0  0  0  0  0  0  0  0  0  0  0  0
   35.6430   29.4780   33.7950 C   0  0  0  0  0  0  0  0  0  0  0  0
   36.2940   28.4680   34.4280 N   0  0  0  0  0  0  0  0  0  0  0  0
   35.7260   28.3400   30.6280 H   0  0  0  0  0  0  0  0  0  0  0  0
   35.2720   30.3390   34.3450 H   0  0  0  0  0  0  0  0  0  0  0  0
   37.0480   26.2000   31.6290 N   0  0  0  0  0  0  0  0  0  0  0  0
   36.3230   25.0810   31.4980 C   0  0  0  0  0  0  0  0  0  0  0  0
   36.8620   23.9790   30.8230 C   0  0  0  0  0  0  0  0  0  0  0  0
   38.1340   24.1770   30.3490 C   0  0  0  0  0  0  0  0  0  0  0  0
   38.6260   23.1760   29.7360 O   0  0  0  0  0  0  0  0  0  0  0  0
   38.8880   25.2830   30.4630 N   0  0  0  0  0  0  0  0  0  0  0  0
   38.3030   26.3150   31.1290 C   0  0  0  0  0  0  0  0  0  0  0  0
   38.9960   27.3630   31.2460 O   0  0  0  0  0  0  0  0  0  0  0  0
   35.3220   25.0150   31.9070 H   0  0  0  0  0  0  0  0  0  0  0  0
   36.3250   23.0640   30.6920 H   0  0  0  0  0  0  0  0  0  0  0  0
   39.8470   25.3390   30.0680 H   0  0  0  0  0  0  0  0  0  0  0  0
   37.4040   26.3980   34.3860 O   0  0  0  0  0  0  0  0  0  0  0  0
   39.3970   25.3160   35.6370 O   0  0  0  0  0  0  0  0  0  0  0  0
   38.9140   26.6590   35.1500 P   0  0  0  0  0  0  0  0  0  0  0  0
   40.0170   27.2610   34.0250 O   0  0  0  0  0  0  0  0  0  0  0  0
   40.2300   26.5340   33.3850 H   0  0  0  0  0  0  0  0  0  0  0  0
   38.7060   27.7620   36.3960 O   0  0  0  0  0  0  0  0  0  0  0  0
   39.3470   27.6350   37.1370 H   0  0  0  0  0  0  0  0  0  0  0  0
  1 20  1  0  0  0  0
  1  6  1  0  0  0  0
  2  1  2  0  0  0  0
  3  2  1  0  0  0  0
  3  4  2  0  0  0  0
  4  5  1  0  0  0  0
  5  8  1  0  0  0  0
  5  6  2  0  0  0  0
  7  3  1  0  0  0  0
  9  2  1  0  0  0  0
 10  9  1  0  0  0  0
 10 17  1  0  0  0  0
 11 10  2  0  0  0  0
 12 14  1  0  0  0  0
 12 11  1  0  0  0  0
 13 12  2  0  0  0  0
 14 15  1  0  0  0  0
 15 16  2  0  0  0  0
 15  9  1  0  0  0  0
 18 11  1  0  0  0  0
 19 14  1  0  0  0  0
 20 22  1  0  0  0  0
 22 21  2  0  0  0  0
 22 25  1  0  0  0  0
 23 22  1  0  0  0  0
 24 23  1  0  0  0  0
 25 26  1  0  0  0  0
M  END
>  <minimizedAffinity>
-4.51196527

$$$$

 OpenBabel03272507513D

 26 27  0  0  0  0  0  0  0  0999 V2000
   37.4030   26.3440   32.8380 C   0  0  0  0  0  0  0  0  0  0  0  0
   36.3470   26.9130   32.0690 C   0  0  0  0  0  0  0  0  0  0  0  0
   35.5530   26.0690   31.3120 C   0  0  0  0  0  0  0  0  0  0  0  0
   35.8100   24.7380   31.3330 N   0  0  0  0  0  0  0  0  0  0  0  0
   36.8130   24.2080   32.0650 C   0  0  0  0  0  0  0  0  0  0  0  0
   37.6130   25.0070   32.8190 N   0  0  0  0  0  0  0  0  0  0  0  0
   34.7570   26.5170   30.7350 H   0  0  0  0  0  0  0  0  0  0  0  0
   36.9620   23.1320   32.0350 H   0  0  0  0  0  0  0  0  0  0  0  0
   36.1900   28.3340   32.1410 N   0  0  0  0  0  0  0  0  0  0  0  0
   35.4850   28.9180   33.1180 C   0  0  0  0  0  0  0  0  0  0  0  0
   35.3600   30.3120   33.1470 C   0  0  0  0  0  0  0  0  0  0  0  0
   36.0050   30.9550   32.1220 C   0  0  0  0  0  0  0  0  0  0  0  0
   35.8920   32.2230   32.1460 O   0  0  0  0  0  0  0  0  0  0  0  0
   36.7190   30.4020   31.1270 N   0  0  0  0  0  0  0  0  0  0  0  0
   36.8000   29.0450   31.1610 C   0  0  0  0  0  0  0  0  0  0  0  0
   37.4670   28.5060   30.2350 O   0  0  0  0  0  0  0  0  0  0  0  0
   35.0060   28.3270   33.8900 H   0  0  0  0  0  0  0  0  0  0  0  0
   34.8080   30.8270   33.9040 H   0  0  0  0  0  0  0  0  0  0  0  0
   37.1750   30.9760   30.3920 H   0  0  0  0  0  0  0  0  0  0  0  0
   38.2300   27.1310   33.6120 O   0  0  0  0  0  0  0  0  0  0  0  0
   40.2050   26.2930   35.0620 O   0  0  0  0  0  0  0  0  0  0  0  0
   38.7400   26.6370   35.1700 P   0  0  0  0  0  0  0  0  0  0  0  0
   38.5580   27.9160   36.2540 O   0  0  0  0  0  0  0  0  0  0  0  0
   39.2280   28.6100   36.0250 H   0  0  0  0  0  0  0  0  0  0  0  0
   37.8040   25.3340   35.6580 O   0  0  0  0  0  0  0  0  0  0  0  0
   38.2800   24.7230   36.2720 H   0  0  0  0  0  0  0  0  0  0  0  0
  1 20  1  0  0  0  0
  2  9  1  0  0  0  0
  2  1  2  0  0  0  0
  3  4  2  0  0  0  0
  3  2  1  0  0  0  0
  4  5  1  0  0  0  0
  5  6  2  0  0  0  0
  6  1  1  0  0  0  0
  7  3  1  0  0  0  0
  8  5  1  0  0  0  0
  9 10  1  0  0  0  0
 10 11  2  0  0  0  0
 10 17  1  0  0  0  0
 11 18  1  0  0  0  0
 12 13  2  0  0  0  0
 12 11  1  0  0  0  0
 14 15  1  0  0  0  0
 14 12  1  0  0  0  0
 15  9  1  0  0  0  0
 16 15  2  0  0  0  0
 19 14  1  0  0  0  0
 20 22  1  0  0  0  0
 21 22  2  0  0  0  0
 22 25  1  0  0  0  0
 22 23  1  0  0  0  0
 24 23  1  0  0  0  0
 25 26  1  0  0  0  0
M  END
>  <minimizedAffinity>
-4.47423172

$$$$
