
 OpenBabel03272500593D

 33 34  0  0  0  0  0  0  0  0999 V2000
   38.1010   31.8910   47.4210 C   0  0  0  0  0  0  0  0  0  0  0  0
   38.5750   32.8160   48.3220 C   0  0  0  0  0  0  0  0  0  0  0  0
   38.0520   32.8880   49.6230 C   0  0  0  0  0  0  0  0  0  0  0  0
   37.0010   31.9600   49.9890 C   0  0  0  0  0  0  0  0  0  0  0  0
   36.5900   31.0800   49.0480 C   0  0  0  0  0  0  0  0  0  0  0  0
   37.0870   31.0080   47.7980 C   0  0  0  0  0  0  0  0  0  0  0  0
   39.3620   33.5260   48.0780 H   0  0  0  0  0  0  0  0  0  0  0  0
   38.4580   33.6350   50.2920 H   0  0  0  0  0  0  0  0  0  0  0  0
   36.7020   32.1340   51.0120 H   0  0  0  0  0  0  0  0  0  0  0  0
   35.8390   30.4800   49.5370 H   0  0  0  0  0  0  0  0  0  0  0  0
   39.9940   31.2670   46.0060 C   0  0  0  0  0  0  0  0  0  0  0  0
   38.7410   31.9170   46.1290 C   0  0  0  0  0  0  0  0  0  0  0  0
   38.2880   32.4980   44.9700 C   0  0  0  0  0  0  0  0  0  0  0  0
   38.9970   32.4360   43.8350 N   0  0  0  0  0  0  0  0  0  0  0  0
   40.1580   31.8300   43.7360 C   0  0  0  0  0  0  0  0  0  0  0  0
   40.6460   31.2500   44.8220 N   0  0  0  0  0  0  0  0  0  0  0  0
   40.4590   30.7670   46.8620 H   0  0  0  0  0  0  0  0  0  0  0  0
   37.3230   32.9980   45.0670 H   0  0  0  0  0  0  0  0  0  0  0  0
   40.6620   31.8280   42.7780 H   0  0  0  0  0  0  0  0  0  0  0  0
   35.1590   29.9470   46.9630 C   0  0  0  0  0  0  0  0  0  0  0  0
   34.5190   30.5980   47.8800 O   0  0  0  0  0  0  0  0  0  0  0  0
   36.6010   30.1080   46.8810 N   0  0  0  0  0  0  0  0  0  0  0  0
   37.1800   29.5840   46.1910 H   0  0  0  0  0  0  0  0  0  0  0  0
   34.4680   29.1300   46.1080 O   0  0  0  0  0  0  0  0  0  0  0  0
   33.2230   29.4410   45.5610 C   0  0  0  0  0  0  0  0  0  0  0  0
   32.9920   30.5860   44.9590 O   0  0  0  0  0  0  0  0  0  0  0  0
   32.0720   28.6690   45.5200 O   0  0  0  0  0  0  0  0  0  0  0  0
   30.8810   26.8480   47.0170 O   0  0  0  0  0  0  0  0  0  0  0  0
   31.2810   28.3150   47.0050 P   0  0  0  0  0  0  0  0  0  0  0  0
   32.3880   28.4860   48.2950 O   0  0  0  0  0  0  0  0  0  0  0  0
   32.0140   28.0500   49.0950 H   0  0  0  0  0  0  0  0  0  0  0  0
   29.9040   29.2270   47.2560 O   0  0  0  0  0  0  0  0  0  0  0  0
   30.0570   30.1770   47.4370 H   0  0  0  0  0  0  0  0  0  0  0  0
  1  6  2  0  0  0  0
  1  2  1  0  0  0  0
  2  3  2  0  0  0  0
  3  4  1  0  0  0  0
  3  8  1  0  0  0  0
  4  9  1  0  0  0  0
  5 10  1  0  0  0  0
  5  4  2  0  0  0  0
  6  5  1  0  0  0  0
  7  2  1  0  0  0  0
 11 12  1  0  0  0  0
 11 17  1  0  0  0  0
 12  1  1  0  0  0  0
 13 18  1  0  0  0  0
 13 12  2  0  0  0  0
 14 13  1  0  0  0  0
 15 14  2  0  0  0  0
 15 16  1  0  0  0  0
 16 11  2  0  0  0  0
 19 15  1  0  0  0  0
 20 21  2  0  0  0  0
 22 20  1  0  0  0  0
 22  6  1  0  0  0  0
 23 22  1  0  0  0  0
 24 20  1  0  0  0  0
 25 24  1  0  0  0  0
 26 25  2  0  0  0  0
 27 25  1  0  0  0  0
 27 29  1  0  0  0  0
 29 28  2  0  0  0  0
 29 32  1  0  0  0  0
 29 30  1  0  0  0  0
 30 31  1  0  0  0  0
 32 33  1  0  0  0  0
M  END
>  <minimizedAffinity>
-5.53721046

>  <minimizedRMSD>
0.5156551

$$$$
