
     RDKit          3D

 26 27  0  0  0  0  0  0  0  0999 V2000
   37.3673   31.3632   49.2074 C   0  0  0  0  0  0  0  0  0  0  0  0
   37.6990   32.6610   49.6067 C   0  0  0  0  0  0  0  0  0  0  0  0
   38.5863   33.3371   48.7682 C   0  0  0  0  0  0  0  0  0  0  0  0
   39.0637   32.7141   47.6434 N   0  0  0  0  0  0  0  0  0  0  0  0
   38.7054   31.4523   47.3072 C   0  0  0  0  0  0  0  0  0  0  0  0
   37.8351   30.7534   48.1068 N   0  0  0  0  0  0  0  0  0  0  0  0
   36.3885   30.6197   50.0673 C   0  0  0  0  0  0  0  0  0  0  0  0
   36.2595   29.1817   50.0422 C   0  0  0  0  0  0  0  0  0  0  0  0
   37.0650   29.7950   51.1719 C   0  0  0  0  0  0  0  0  0  0  0  0
   39.1972   30.7944   46.1028 C   0  0  0  0  0  0  0  0  0  0  0  0
   37.2927   33.0955   50.4981 H   0  0  0  0  0  0  0  0  0  0  0  0
   38.8934   34.3465   49.0074 H   0  0  0  0  0  0  0  0  0  0  0  0
   35.5556   31.2871   50.4407 H   0  0  0  0  0  0  0  0  0  0  0  0
   36.8543   28.5561   49.3455 H   0  0  0  0  0  0  0  0  0  0  0  0
   35.2867   28.7123   50.2861 H   0  0  0  0  0  0  0  0  0  0  0  0
   36.5521   29.8117   52.1535 H   0  0  0  0  0  0  0  0  0  0  0  0
   38.1624   29.6919   51.1627 H   0  0  0  0  0  0  0  0  0  0  0  0
   40.1818   31.1906   45.7446 H   0  0  0  0  0  0  0  0  0  0  0  0
   39.3628   29.7254   46.2758 H   0  0  0  0  0  0  0  0  0  0  0  0
   36.0569   29.9563   45.7042 O   0  0  0  0  0  0  0  0  0  0  0  0
   36.7248   31.3067   45.6288 P   0  0  0  0  0  0  0  0  0  0  0  0
   36.6663   32.1199   47.1097 O   0  0  0  0  0  0  0  0  0  0  0  0
   35.8732   32.2779   44.5213 O   0  0  0  0  0  0  0  0  0  0  0  0
   38.2997   31.0835   45.0738 O   0  0  0  0  0  0  0  0  0  0  0  0
   37.0430   31.4819   47.7910 H   0  0  0  0  0  0  0  0  0  0  0  0
   36.2235   33.1900   44.5729 H   0  0  0  0  0  0  0  0  0  0  0  0
  1  2  2  0
  1  7  1  0
  3  2  1  0
  4  3  2  0
  5  4  1  0
  5  6  2  0
  6  1  1  0
  7  9  1  0
  8  7  1  0
  8  9  1  0
 10  5  1  0
  2 11  1  0
  3 12  1  0
  7 13  1  0
  8 14  1  0
  8 15  1  0
  9 16  1  0
  9 17  1  0
 10 18  1  0
 10 19  1  0
 20 21  2  0
 21 22  1  0
 21 23  1  0
 21 24  1  0
 22 25  1  0
 23 26  1  0
 10 24  1  0
M  ISO  8  11  14  12  14  13  13  14  13  15  13  16  13  17  13  18   8
M  ISO  1  19   8
M  END
>  <DihAtoms>  (1) 
4,9,23,20

>  <DihDeg>  (1) 
-179.99954637941985

$$$$
