
 OpenBabel03272506263D

 40 42  0  0  0  0  0  0  0  0999 V2000
   31.7400   26.4370   47.7300 C   0  0  0  0  0  0  0  0  0  0  0  0
   31.8080   25.0690   47.9070 C   0  0  0  0  0  0  0  0  0  0  0  0
   32.8840   24.2830   47.4910 C   0  0  0  0  0  0  0  0  0  0  0  0
   33.9670   24.9260   46.8490 C   0  0  0  0  0  0  0  0  0  0  0  0
   33.8770   26.2790   46.6850 C   0  0  0  0  0  0  0  0  0  0  0  0
   32.8260   27.0430   47.0950 C   0  0  0  0  0  0  0  0  0  0  0  0
   30.9790   24.5400   48.4030 H   0  0  0  0  0  0  0  0  0  0  0  0
   32.8210   23.1990   47.6900 H   0  0  0  0  0  0  0  0  0  0  0  0
   34.7220   24.2030   46.5820 H   0  0  0  0  0  0  0  0  0  0  0  0
   34.7760   26.5450   46.1780 H   0  0  0  0  0  0  0  0  0  0  0  0
   30.5850   27.6140   49.4970 C   0  0  0  0  0  0  0  0  0  0  0  0
   30.5470   27.0900   48.1980 C   0  0  0  0  0  0  0  0  0  0  0  0
   29.3670   27.2360   47.4590 C   0  0  0  0  0  0  0  0  0  0  0  0
   28.3140   27.8760   48.0290 N   0  0  0  0  0  0  0  0  0  0  0  0
   28.3750   28.3770   49.2970 C   0  0  0  0  0  0  0  0  0  0  0  0
   29.5110   28.2440   50.0260 N   0  0  0  0  0  0  0  0  0  0  0  0
   31.4840   27.5150   50.0890 H   0  0  0  0  0  0  0  0  0  0  0  0
   27.5470   28.8830   49.7480 H   0  0  0  0  0  0  0  0  0  0  0  0
   29.1790   26.7290   46.0680 C   0  0  0  0  0  0  0  0  0  0  0  0
   27.9140   27.1210   45.5940 F   0  0  0  0  0  0  0  0  0  0  0  0
   30.1100   27.1070   45.1720 F   0  0  0  0  0  0  0  0  0  0  0  0
   29.1020   25.3400   46.0850 F   0  0  0  0  0  0  0  0  0  0  0  0
   32.7540   28.7760   46.8990 S   0  0  0  0  0  0  0  0  0  0  0  0
   33.6580   29.6460   49.7450 Cl  0  0  0  0  0  0  0  0  0  0  0  0
   34.6710   29.9510   48.3590 C   0  0  0  0  0  0  0  0  0  0  0  0
   34.3090   29.6030   47.0700 C   0  0  0  0  0  0  0  0  0  0  0  0
   35.1220   29.8770   46.0030 C   0  0  0  0  0  0  0  0  0  0  0  0
   36.3380   30.5220   46.2620 C   0  0  0  0  0  0  0  0  0  0  0  0
   36.7060   30.8740   47.5620 C   0  0  0  0  0  0  0  0  0  0  0  0
   35.8660   30.5860   48.6160 C   0  0  0  0  0  0  0  0  0  0  0  0
   34.9350   29.6890   44.9800 H   0  0  0  0  0  0  0  0  0  0  0  0
   37.0270   30.7660   45.4540 H   0  0  0  0  0  0  0  0  0  0  0  0
   37.6520   31.3670   47.6910 H   0  0  0  0  0  0  0  0  0  0  0  0
   36.2400   30.9380   49.8990 O   0  0  0  0  0  0  0  0  0  0  0  0
   38.7280   31.4050   50.4780 O   0  0  0  0  0  0  0  0  0  0  0  0
   37.6360   30.3470   50.6630 P   0  0  0  0  0  0  0  0  0  0  0  0
   37.4030   30.1200   52.3200 O   0  0  0  0  0  0  0  0  0  0  0  0
   36.7690   30.7660   52.7050 H   0  0  0  0  0  0  0  0  0  0  0  0
   38.1850   28.9020   49.9660 O   0  0  0  0  0  0  0  0  0  0  0  0
   37.6950   28.1120   50.3270 H   0  0  0  0  0  0  0  0  0  0  0  0
  1  2  1  0  0  0  0
  1 12  1  0  0  0  0
  2  7  1  0  0  0  0
  3  8  1  0  0  0  0
  3  2  2  0  0  0  0
  4  3  1  0  0  0  0
  5  4  2  0  0  0  0
  5  6  1  0  0  0  0
  6  1  2  0  0  0  0
  9  4  1  0  0  0  0
 10  5  1  0  0  0  0
 11 16  1  0  0  0  0
 11 17  1  0  0  0  0
 12 11  2  0  0  0  0
 13 14  2  0  0  0  0
 13 12  1  0  0  0  0
 14 15  1  0  0  0  0
 15 18  1  0  0  0  0
 15 16  2  0  0  0  0
 19 22  1  0  0  0  0
 19 13  1  0  0  0  0
 20 19  1  0  0  0  0
 21 19  1  0  0  0  0
 23 26  1  0  0  0  0
 23  6  1  0  0  0  0
 25 30  1  0  0  0  0
 25 24  1  0  0  0  0
 26 25  2  0  0  0  0
 27 28  2  0  0  0  0
 27 26  1  0  0  0  0
 28 29  1  0  0  0  0
 29 33  1  0  0  0  0
 29 30  2  0  0  0  0
 30 34  1  0  0  0  0
 31 27  1  0  0  0  0
 32 28  1  0  0  0  0
 34 36  1  0  0  0  0
 35 36  2  0  0  0  0
 36 37  1  0  0  0  0
 37 38  1  0  0  0  0
 39 40  1  0  0  0  0
 39 36  1  0  0  0  0
M  END
>  <minimizedAffinity>
-5.38589621

>  <minimizedRMSD>
3.68724179

$$$$
