REMARK  Name = 
REMARK  6 active torsions:
REMARK  status: ('A' for Active; 'I' for Inactive)
REMARK    1  A    between atoms: C_1  and  C_7
REMARK    2  A    between atoms: C_5  and  C_10
REMARK    3  A    between atoms: C_10  and  O_24
REMARK    4  A    between atoms: P_21  and  O_22
REMARK    5  A    between atoms: P_21  and  O_23
REMARK    6  A    between atoms: P_21  and  O_24
REMARK                            x       y       z     vdW  Elec       q    Type
REMARK                         _______ _______ _______ _____ _____    ______ ____
ROOT
ATOM      1  C   UNL     1      37.367  31.363  49.207  0.00  0.00    +0.000 A 
ATOM      2  C   UNL     1      37.699  32.661  49.607  0.00  0.00    +0.000 A 
ATOM      3  C   UNL     1      38.586  33.337  48.768  0.00  0.00    +0.000 A 
ATOM      4  N   UNL     1      39.064  32.714  47.643  0.00  0.00    +0.000 NA
ATOM      5  C   UNL     1      38.705  31.452  47.307  0.00  0.00    +0.000 A 
ATOM      6  N   UNL     1      37.835  30.753  48.107  0.00  0.00    +0.000 NA
ATOM      7  H   UNL     1      37.293  33.096  50.498  0.00  0.00    +0.000 HD
ATOM      8  H   UNL     1      38.893  34.346  49.007  0.00  0.00    +0.000 HD
ENDROOT
BRANCH   1   9
ATOM      9  C   UNL     1      36.389  30.620  50.067  0.00  0.00    +0.000 C 
ATOM     10  C   UNL     1      36.260  29.182  50.042  0.00  0.00    +0.000 C 
ATOM     11  C   UNL     1      37.065  29.795  51.172  0.00  0.00    +0.000 C 
ATOM     12  H   UNL     1      35.556  31.287  50.441  0.00  0.00    +0.000 HD
ATOM     13  H   UNL     1      36.854  28.556  49.346  0.00  0.00    +0.000 HD
ATOM     14  H   UNL     1      35.287  28.712  50.286  0.00  0.00    +0.000 HD
ATOM     15  H   UNL     1      36.552  29.812  52.154  0.00  0.00    +0.000 HD
ATOM     16  H   UNL     1      38.162  29.692  51.163  0.00  0.00    +0.000 HD
ENDBRANCH   1   9
BRANCH   5  17
ATOM     17  C   UNL     1      39.197  30.794  46.103  0.00  0.00    +0.000 C 
ATOM     18  H   UNL     1      40.182  31.191  45.745  0.00  0.00    +0.000 HD
ATOM     19  H   UNL     1      39.363  29.725  46.276  0.00  0.00    +0.000 HD
BRANCH  17  20
ATOM     20  O   UNL     1      38.300  31.084  45.074  0.00  0.00    +0.000 OA
BRANCH  20  22
ATOM     21  O   UNL     1      37.121  33.297  45.715  0.00  0.00    +0.000 OA
ATOM     22  P   UNL     1      38.161  32.736  44.777  0.00  0.00    +0.000 P 
BRANCH  22  23
ATOM     23  O   UNL     1      39.637  33.548  44.920  0.00  0.00    +0.000 OA
ATOM     24  H   UNL     1      39.872  33.527  45.898  0.00  0.00    +0.000 HD
ENDBRANCH  22  23
BRANCH  22  25
ATOM     25  O   UNL     1      37.641  32.976  43.175  0.00  0.00    +0.000 OA
ATOM     26  H   UNL     1      38.372  32.736  42.571  0.00  0.00    +0.000 HD
ENDBRANCH  22  25
ENDBRANCH  20  22
ENDBRANCH  17  20
ENDBRANCH   5  17
TORSDOF 6
