REMARK  Name = 
REMARK  8 active torsions:
REMARK  status: ('A' for Active; 'I' for Inactive)
REMARK    1  A    between atoms: C_1  and  C_8
REMARK    2  A    between atoms: C_6  and  N_15
REMARK    3  A    between atoms: C_13  and  O_16
REMARK    4  A    between atoms: O_16  and  C_17
REMARK    5  A    between atoms: C_17  and  O_31
REMARK    6  A    between atoms: P_28  and  O_29
REMARK    7  A    between atoms: P_28  and  O_30
REMARK    8  A    between atoms: P_28  and  O_31
REMARK                            x       y       z     vdW  Elec       q    Type
REMARK                         _______ _______ _______ _____ _____    ______ ____
ROOT
ATOM      1  C   UNL     1      38.112  31.878  47.414  0.00  0.00    +0.000 A 
ATOM      2  C   UNL     1      38.594  32.798  48.317  0.00  0.00    +0.000 A 
ATOM      3  C   UNL     1      38.076  32.868  49.620  0.00  0.00    +0.000 A 
ATOM      4  C   UNL     1      37.022  31.943  49.986  0.00  0.00    +0.000 A 
ATOM      5  C   UNL     1      36.604  31.069  49.044  0.00  0.00    +0.000 A 
ATOM      6  C   UNL     1      37.096  30.999  47.792  0.00  0.00    +0.000 A 
ATOM      7  H   UNL     1      39.384  33.505  48.072  0.00  0.00    +0.000 HD
ATOM      8  H   UNL     1      38.488  33.610  50.290  0.00  0.00    +0.000 HD
ATOM      9  H   UNL     1      36.728  32.115  51.011  0.00  0.00    +0.000 HD
ATOM     10  H   UNL     1      35.852  30.470  49.533  0.00  0.00    +0.000 HD
ENDROOT
BRANCH   1  12
ATOM     11  C   UNL     1      40.001  31.258  45.992  0.00  0.00    +0.000 A 
ATOM     12  C   UNL     1      38.748  31.906  46.120  0.00  0.00    +0.000 A 
ATOM     13  C   UNL     1      38.290  32.487  44.963  0.00  0.00    +0.000 A 
ATOM     14  N   UNL     1      38.995  32.427  43.825  0.00  0.00    +0.000 NA
ATOM     15  C   UNL     1      40.156  31.822  43.722  0.00  0.00    +0.000 A 
ATOM     16  N   UNL     1      40.649  31.242  44.805  0.00  0.00    +0.000 NA
ATOM     17  H   UNL     1      40.470  30.757  46.846  0.00  0.00    +0.000 HD
ATOM     18  H   UNL     1      37.325  32.986  45.064  0.00  0.00    +0.000 HD
ATOM     19  H   UNL     1      40.657  31.822  42.762  0.00  0.00    +0.000 HD
ENDBRANCH   1  12
BRANCH   6  22
ATOM     20  C   UNL     1      35.157  29.968  46.944  0.00  0.00    +0.000 C 
ATOM     21  O   UNL     1      34.521  30.633  47.854  0.00  0.00    +0.000 OA
ATOM     22  N   UNL     1      36.602  30.105  46.873  0.00  0.00    +0.000 N 
ATOM     23  H   UNL     1      37.178  29.569  46.189  0.00  0.00    +0.000 HD
BRANCH  20  24
ATOM     24  O   UNL     1      34.459  29.160  46.085  0.00  0.00    +0.000 OA
BRANCH  24  25
ATOM     25  C   UNL     1      33.367  29.581  45.327  0.00  0.00    +0.000 C 
ATOM     26  O   UNL     1      33.363  30.727  44.684  0.00  0.00    +0.000 OA
BRANCH  25  27
ATOM     27  O   UNL     1      32.166  28.928  45.092  0.00  0.00    +0.000 OA
BRANCH  27  29
ATOM     28  O   UNL     1      29.893  28.895  43.746  0.00  0.00    +0.000 OA
ATOM     29  P   UNL     1      31.374  29.208  43.591  0.00  0.00    +0.000 P 
BRANCH  29  30
ATOM     30  O   UNL     1      31.442  30.873  43.212  0.00  0.00    +0.000 OA
ATOM     31  H   UNL     1      30.786  31.064  42.502  0.00  0.00    +0.000 HD
ENDBRANCH  29  30
BRANCH  29  32
ATOM     32  O   UNL     1      31.971  28.271  42.344  0.00  0.00    +0.000 OA
ATOM     33  H   UNL     1      32.870  28.505  42.036  0.00  0.00    +0.000 HD
ENDBRANCH  29  32
ENDBRANCH  27  29
ENDBRANCH  25  27
ENDBRANCH  24  25
ENDBRANCH  20  24
ENDBRANCH   6  22
TORSDOF 8
