
 OpenBabel03272509253D

 22 22  0  0  0  0  0  0  0  0999 V2000
   38.3350   26.6340   35.8500 C   0  0  0  0  0  0  0  0  0  0  0  0
   37.9970   27.2580   36.6920 H   0  0  0  0  0  0  0  0  0  0  0  0
   39.4570   26.5820   35.8130 H   0  0  0  0  0  0  0  0  0  0  0  0
   36.2890   28.4590   33.2210 C   0  0  0  0  0  0  0  0  0  0  0  0
   36.6840   27.9440   34.4540 C   0  0  0  0  0  0  0  0  0  0  0  0
   37.8550   27.2110   34.5690 C   0  0  0  0  0  0  0  0  0  0  0  0
   38.5880   27.0210   33.4440 N   0  0  0  0  0  0  0  0  0  0  0  0
   38.1970   27.5270   32.2410 C   0  0  0  0  0  0  0  0  0  0  0  0
   37.0520   28.2390   32.1490 N   0  0  0  0  0  0  0  0  0  0  0  0
   35.3730   29.0250   33.1640 H   0  0  0  0  0  0  0  0  0  0  0  0
   36.0840   28.1110   35.3170 H   0  0  0  0  0  0  0  0  0  0  0  0
   38.8790   27.3000   31.4190 H   0  0  0  0  0  0  0  0  0  0  0  0
   37.7730   25.2130   36.0200 C   0  0  0  0  0  0  0  0  0  0  0  0
   37.4570   24.7910   35.0680 H   0  0  0  0  0  0  0  0  0  0  0  0
   36.9800   25.2610   36.7840 H   0  0  0  0  0  0  0  0  0  0  0  0
   38.8520   24.4140   36.4560 O   0  0  0  0  0  0  0  0  0  0  0  0
   38.0450   24.4420   38.8880 O   0  0  0  0  0  0  0  0  0  0  0  0
   38.4070   23.4880   37.7930 P   0  0  0  0  0  0  0  0  0  0  0  0
   39.7290   22.5920   38.3160 O   0  0  0  0  0  0  0  0  0  0  0  0
   39.5430   21.6190   38.3530 H   0  0  0  0  0  0  0  0  0  0  0  0
   37.0940   22.5280   37.3740 O   0  0  0  0  0  0  0  0  0  0  0  0
   36.5430   23.0140   36.7170 H   0  0  0  0  0  0  0  0  0  0  0  0
  1 13  1  0  0  0  0
  1  2  1  0  0  0  0
  3  1  1  0  0  0  0
  4  5  1  0  0  0  0
  5  6  2  0  0  0  0
  5 11  1  0  0  0  0
  6  1  1  0  0  0  0
  7  6  1  0  0  0  0
  8  7  2  0  0  0  0
  9  8  1  0  0  0  0
  9  4  2  0  0  0  0
 10  4  1  0  0  0  0
 12  8  1  0  0  0  0
 13 16  1  0  0  0  0
 13 15  1  0  0  0  0
 14 13  1  0  0  0  0
 16 18  1  0  0  0  0
 18 19  1  0  0  0  0
 18 17  2  0  0  0  0
 19 20  1  0  0  0  0
 21 18  1  0  0  0  0
 22 21  1  0  0  0  0
M  END
>  <minimizedAffinity>
-4.11593485

$$$$

 OpenBabel03272509253D

 22 22  0  0  0  0  0  0  0  0999 V2000
   38.5700   26.7100   36.0230 C   0  0  0  0  0  0  0  0  0  0  0  0
   37.8260   27.5090   36.1700 H   0  0  0  0  0  0  0  0  0  0  0  0
   39.3460   26.7290   36.8350 H   0  0  0  0  0  0  0  0  0  0  0  0
   41.2200   27.0980   33.3290 C   0  0  0  0  0  0  0  0  0  0  0  0
   40.6360   26.9220   34.5830 C   0  0  0  0  0  0  0  0  0  0  0  0
   39.2570   26.8940   34.7200 C   0  0  0  0  0  0  0  0  0  0  0  0
   38.5120   27.0400   33.5960 N   0  0  0  0  0  0  0  0  0  0  0  0
   39.0880   27.2110   32.3730 C   0  0  0  0  0  0  0  0  0  0  0  0
   40.4340   27.2380   32.2590 N   0  0  0  0  0  0  0  0  0  0  0  0
   42.2950   27.1160   33.2560 H   0  0  0  0  0  0  0  0  0  0  0  0
   41.2510   26.8110   35.4440 H   0  0  0  0  0  0  0  0  0  0  0  0
   38.3730   27.3180   31.5550 H   0  0  0  0  0  0  0  0  0  0  0  0
   37.8560   25.3480   36.0440 C   0  0  0  0  0  0  0  0  0  0  0  0
   37.5160   25.0600   35.0510 H   0  0  0  0  0  0  0  0  0  0  0  0
   37.0580   25.4060   36.8020 H   0  0  0  0  0  0  0  0  0  0  0  0
   38.8360   24.3980   36.4060 O   0  0  0  0  0  0  0  0  0  0  0  0
   37.9000   24.4760   38.7900 O   0  0  0  0  0  0  0  0  0  0  0  0
   38.3310   23.5000   37.7400 P   0  0  0  0  0  0  0  0  0  0  0  0
   39.6340   22.6350   38.3560 O   0  0  0  0  0  0  0  0  0  0  0  0
   39.4570   21.6600   38.4070 H   0  0  0  0  0  0  0  0  0  0  0  0
   37.0540   22.5130   37.2770 O   0  0  0  0  0  0  0  0  0  0  0  0
   36.5330   22.9750   36.5800 H   0  0  0  0  0  0  0  0  0  0  0  0
  1 13  1  0  0  0  0
  1  2  1  0  0  0  0
  1  3  1  0  0  0  0
  4  5  1  0  0  0  0
  5  6  2  0  0  0  0
  5 11  1  0  0  0  0
  6  1  1  0  0  0  0
  7  6  1  0  0  0  0
  8  7  2  0  0  0  0
  9  8  1  0  0  0  0
  9  4  2  0  0  0  0
 10  4  1  0  0  0  0
 12  8  1  0  0  0  0
 13 16  1  0  0  0  0
 13 15  1  0  0  0  0
 14 13  1  0  0  0  0
 16 18  1  0  0  0  0
 18 19  1  0  0  0  0
 18 17  2  0  0  0  0
 19 20  1  0  0  0  0
 21 18  1  0  0  0  0
 22 21  1  0  0  0  0
M  END
>  <minimizedAffinity>
-4.08556986

$$$$

 OpenBabel03272509253D

 22 22  0  0  0  0  0  0  0  0999 V2000
   38.1220   26.8130   35.9070 C   0  0  0  0  0  0  0  0  0  0  0  0
   37.4440   26.8630   36.7740 H   0  0  0  0  0  0  0  0  0  0  0  0
   38.9570   27.5580   36.0070 H   0  0  0  0  0  0  0  0  0  0  0  0
   35.9430   28.5000   33.2920 C   0  0  0  0  0  0  0  0  0  0  0  0
   36.6240   28.2720   34.4870 C   0  0  0  0  0  0  0  0  0  0  0  0
   37.3730   27.1190   34.6620 C   0  0  0  0  0  0  0  0  0  0  0  0
   37.4150   26.2360   33.6330 N   0  0  0  0  0  0  0  0  0  0  0  0
   36.7480   26.4650   32.4670 C   0  0  0  0  0  0  0  0  0  0  0  0
   36.0220   27.5940   32.3150 N   0  0  0  0  0  0  0  0  0  0  0  0
   35.3690   29.4060   33.1870 H   0  0  0  0  0  0  0  0  0  0  0  0
   36.5690   28.9860   35.2740 H   0  0  0  0  0  0  0  0  0  0  0  0
   36.8660   25.6730   31.7240 H   0  0  0  0  0  0  0  0  0  0  0  0
   38.7200   25.3990   35.8160 C   0  0  0  0  0  0  0  0  0  0  0  0
   39.7710   25.3910   36.0990 H   0  0  0  0  0  0  0  0  0  0  0  0
   38.5160   25.0200   34.8020 H   0  0  0  0  0  0  0  0  0  0  0  0
   38.0520   24.6280   36.7930 O   0  0  0  0  0  0  0  0  0  0  0  0
   40.1750   23.2540   36.3750 O   0  0  0  0  0  0  0  0  0  0  0  0
   38.8240   23.1450   37.0110 P   0  0  0  0  0  0  0  0  0  0  0  0
   37.9740   21.9480   36.1920 O   0  0  0  0  0  0  0  0  0  0  0  0
   37.7040   21.1980   36.7820 H   0  0  0  0  0  0  0  0  0  0  0  0
   38.9580   22.8400   38.6570 O   0  0  0  0  0  0  0  0  0  0  0  0
   39.0690   23.6970   39.1300 H   0  0  0  0  0  0  0  0  0  0  0  0
  1  3  1  0  0  0  0
  1  2  1  0  0  0  0
  4  5  1  0  0  0  0
  5  6  2  0  0  0  0
  5 11  1  0  0  0  0
  6  1  1  0  0  0  0
  7  6  1  0  0  0  0
  8  7  2  0  0  0  0
  9  8  1  0  0  0  0
  9  4  2  0  0  0  0
 10  4  1  0  0  0  0
 12  8  1  0  0  0  0
 13  1  1  0  0  0  0
 13 14  1  0  0  0  0
 13 16  1  0  0  0  0
 15 13  1  0  0  0  0
 16 18  1  0  0  0  0
 17 18  2  0  0  0  0
 18 21  1  0  0  0  0
 19 20  1  0  0  0  0
 19 18  1  0  0  0  0
 21 22  1  0  0  0  0
M  END
>  <minimizedAffinity>
-3.90622091

$$$$

 OpenBabel03272509253D

 22 22  0  0  0  0  0  0  0  0999 V2000
   38.4520   24.9130   33.8990 C   0  0  0  0  0  0  0  0  0  0  0  0
   38.4210   25.8670   34.4480 H   0  0  0  0  0  0  0  0  0  0  0  0
   39.4470   24.7690   33.3990 H   0  0  0  0  0  0  0  0  0  0  0  0
   35.9440   23.7930   31.2750 C   0  0  0  0  0  0  0  0  0  0  0  0
   36.9360   23.7390   32.2520 C   0  0  0  0  0  0  0  0  0  0  0  0
   37.3990   24.8990   32.8520 C   0  0  0  0  0  0  0  0  0  0  0  0
   36.8520   26.0730   32.4520 N   0  0  0  0  0  0  0  0  0  0  0  0
   35.8820   26.1210   31.4950 C   0  0  0  0  0  0  0  0  0  0  0  0
   35.4440   24.9790   30.9210 N   0  0  0  0  0  0  0  0  0  0  0  0
   35.6050   22.8740   30.8270 H   0  0  0  0  0  0  0  0  0  0  0  0
   37.3440   22.8000   32.5430 H   0  0  0  0  0  0  0  0  0  0  0  0
   35.5310   27.1300   31.2680 H   0  0  0  0  0  0  0  0  0  0  0  0
   38.2150   23.7570   34.8850 C   0  0  0  0  0  0  0  0  0  0  0  0
   38.5020   22.8000   34.4560 H   0  0  0  0  0  0  0  0  0  0  0  0
   37.1650   23.8140   35.2140 H   0  0  0  0  0  0  0  0  0  0  0  0
   39.1000   23.9750   35.9650 O   0  0  0  0  0  0  0  0  0  0  0  0
   38.0310   24.5760   38.2150 O   0  0  0  0  0  0  0  0  0  0  0  0
   38.4420   23.3890   37.4020 P   0  0  0  0  0  0  0  0  0  0  0  0
   39.6290   22.5690   38.2640 O   0  0  0  0  0  0  0  0  0  0  0  0
   39.3690   21.6370   38.4840 H   0  0  0  0  0  0  0  0  0  0  0  0
   37.1170   22.4230   37.0370 O   0  0  0  0  0  0  0  0  0  0  0  0
   36.6790   22.7780   36.2290 H   0  0  0  0  0  0  0  0  0  0  0  0
  1  2  1  0  0  0  0
  1 13  1  0  0  0  0
  3  1  1  0  0  0  0
  4  5  1  0  0  0  0
  5 11  1  0  0  0  0
  5  6  2  0  0  0  0
  6  1  1  0  0  0  0
  7  6  1  0  0  0  0
  8  7  2  0  0  0  0
  9  4  2  0  0  0  0
  9  8  1  0  0  0  0
 10  4  1  0  0  0  0
 12  8  1  0  0  0  0
 13 15  1  0  0  0  0
 13 16  1  0  0  0  0
 14 13  1  0  0  0  0
 16 18  1  0  0  0  0
 18 17  2  0  0  0  0
 18 19  1  0  0  0  0
 19 20  1  0  0  0  0
 21 18  1  0  0  0  0
 22 21  1  0  0  0  0
M  END
>  <minimizedAffinity>
-3.80556273

$$$$

 OpenBabel03272509253D

 22 22  0  0  0  0  0  0  0  0999 V2000
   38.9540   23.8130   33.9310 C   0  0  0  0  0  0  0  0  0  0  0  0
   38.6610   24.8700   34.0300 H   0  0  0  0  0  0  0  0  0  0  0  0
   39.7940   23.6950   33.1940 H   0  0  0  0  0  0  0  0  0  0  0  0
   35.9950   22.5380   31.9190 C   0  0  0  0  0  0  0  0  0  0  0  0
   37.0690   23.3320   32.3170 C   0  0  0  0  0  0  0  0  0  0  0  0
   37.7990   23.0120   33.4510 C   0  0  0  0  0  0  0  0  0  0  0  0
   37.4290   21.9070   34.1440 N   0  0  0  0  0  0  0  0  0  0  0  0
   36.3780   21.1340   33.7500 C   0  0  0  0  0  0  0  0  0  0  0  0
   35.6770   21.4630   32.6420 N   0  0  0  0  0  0  0  0  0  0  0  0
   35.4460   22.8140   31.0330 H   0  0  0  0  0  0  0  0  0  0  0  0
   37.3320   24.1930   31.7500 H   0  0  0  0  0  0  0  0  0  0  0  0
   36.1880   20.2770   34.3980 H   0  0  0  0  0  0  0  0  0  0  0  0
   39.4130   23.2870   35.3010 C   0  0  0  0  0  0  0  0  0  0  0  0
   40.4970   23.2980   35.3910 H   0  0  0  0  0  0  0  0  0  0  0  0
   38.9510   22.2970   35.4460 H   0  0  0  0  0  0  0  0  0  0  0  0
   38.9390   24.2150   36.2550 O   0  0  0  0  0  0  0  0  0  0  0  0
   37.9300   24.4710   38.5970 O   0  0  0  0  0  0  0  0  0  0  0  0
   38.3530   23.4180   37.6210 P   0  0  0  0  0  0  0  0  0  0  0  0
   39.5980   22.5390   38.3300 O   0  0  0  0  0  0  0  0  0  0  0  0
   39.3780   21.5760   38.4310 H   0  0  0  0  0  0  0  0  0  0  0  0
   37.0510   22.4580   37.1710 O   0  0  0  0  0  0  0  0  0  0  0  0
   36.5730   22.8990   36.4310 H   0  0  0  0  0  0  0  0  0  0  0  0
  1  2  1  0  0  0  0
  1 13  1  0  0  0  0
  3  1  1  0  0  0  0
  4  5  2  0  0  0  0
  4  9  1  0  0  0  0
  5  6  1  0  0  0  0
  6  1  1  0  0  0  0
  6  7  2  0  0  0  0
  8  7  1  0  0  0  0
  8 12  1  0  0  0  0
  9  8  2  0  0  0  0
 10  4  1  0  0  0  0
 11  5  1  0  0  0  0
 13 14  1  0  0  0  0
 13 15  1  0  0  0  0
 13 16  1  0  0  0  0
 16 18  1  0  0  0  0
 18 19  1  0  0  0  0
 18 17  2  0  0  0  0
 19 20  1  0  0  0  0
 21 18  1  0  0  0  0
 22 21  1  0  0  0  0
M  END
>  <minimizedAffinity>
-3.67651176

$$$$

 OpenBabel03272509253D

 22 22  0  0  0  0  0  0  0  0999 V2000
   38.7990   25.1900   34.1200 C   0  0  0  0  0  0  0  0  0  0  0  0
   39.7800   25.0550   33.6380 H   0  0  0  0  0  0  0  0  0  0  0  0
   38.5700   26.2800   34.2660 H   0  0  0  0  0  0  0  0  0  0  0  0
   37.9290   24.1770   37.6760 C   0  0  0  0  0  0  0  0  0  0  0  0
   37.8790   24.8320   36.4460 C   0  0  0  0  0  0  0  0  0  0  0  0
   38.7960   24.5330   35.4510 C   0  0  0  0  0  0  0  0  0  0  0  0
   39.7300   23.5880   35.7220 N   0  0  0  0  0  0  0  0  0  0  0  0
   39.7750   22.9510   36.9260 C   0  0  0  0  0  0  0  0  0  0  0  0
   38.8720   23.2570   37.8850 N   0  0  0  0  0  0  0  0  0  0  0  0
   37.2020   24.4320   38.4300 H   0  0  0  0  0  0  0  0  0  0  0  0
   37.1320   25.5680   36.2670 H   0  0  0  0  0  0  0  0  0  0  0  0
   40.5760   22.2150   37.0110 H   0  0  0  0  0  0  0  0  0  0  0  0
   37.7110   24.5640   33.2310 C   0  0  0  0  0  0  0  0  0  0  0  0
   36.9670   24.0360   33.8240 H   0  0  0  0  0  0  0  0  0  0  0  0
   38.2200   23.9430   32.4760 H   0  0  0  0  0  0  0  0  0  0  0  0
   37.0290   25.6440   32.6290 O   0  0  0  0  0  0  0  0  0  0  0  0
   35.2030   24.2110   31.5420 O   0  0  0  0  0  0  0  0  0  0  0  0
   36.3050   25.1600   31.1860 P   0  0  0  0  0  0  0  0  0  0  0  0
   37.4220   24.3130   30.2580 O   0  0  0  0  0  0  0  0  0  0  0  0
   37.5410   24.7000   29.3520 H   0  0  0  0  0  0  0  0  0  0  0  0
   35.7000   26.5150   30.4000 O   0  0  0  0  0  0  0  0  0  0  0  0
   35.4080   27.1690   31.0770 H   0  0  0  0  0  0  0  0  0  0  0  0
  1  3  1  0  0  0  0
  1  6  1  0  0  0  0
  2  1  1  0  0  0  0
  4  9  1  0  0  0  0
  4 10  1  0  0  0  0
  5  4  2  0  0  0  0
  6  7  2  0  0  0  0
  6  5  1  0  0  0  0
  7  8  1  0  0  0  0
  8 12  1  0  0  0  0
  8  9  2  0  0  0  0
 11  5  1  0  0  0  0
 13 14  1  0  0  0  0
 13  1  1  0  0  0  0
 15 13  1  0  0  0  0
 16 13  1  0  0  0  0
 18 17  2  0  0  0  0
 18 16  1  0  0  0  0
 19 18  1  0  0  0  0
 20 19  1  0  0  0  0
 21 22  1  0  0  0  0
 21 18  1  0  0  0  0
M  END
>  <minimizedAffinity>
-3.64253902

$$$$

 OpenBabel03272509253D

 22 22  0  0  0  0  0  0  0  0999 V2000
   38.2310   25.8420   35.2830 C   0  0  0  0  0  0  0  0  0  0  0  0
   37.2400   26.2050   35.5980 H   0  0  0  0  0  0  0  0  0  0  0  0
   38.1920   25.4240   34.2410 H   0  0  0  0  0  0  0  0  0  0  0  0
   38.5490   23.4510   38.2170 C   0  0  0  0  0  0  0  0  0  0  0  0
   38.0690   24.4760   37.4030 C   0  0  0  0  0  0  0  0  0  0  0  0
   38.6890   24.7660   36.1980 C   0  0  0  0  0  0  0  0  0  0  0  0
   39.7670   24.0200   35.8510 N   0  0  0  0  0  0  0  0  0  0  0  0
   40.2320   23.0200   36.6510 C   0  0  0  0  0  0  0  0  0  0  0  0
   39.6150   22.7510   37.8230 N   0  0  0  0  0  0  0  0  0  0  0  0
   38.0460   23.2500   39.1490 H   0  0  0  0  0  0  0  0  0  0  0  0
   37.2210   25.0410   37.7060 H   0  0  0  0  0  0  0  0  0  0  0  0
   41.1050   22.5000   36.2520 H   0  0  0  0  0  0  0  0  0  0  0  0
   39.2300   27.0100   35.3170 C   0  0  0  0  0  0  0  0  0  0  0  0
   40.1460   26.7370   35.8360 H   0  0  0  0  0  0  0  0  0  0  0  0
   38.7050   27.8810   35.7420 H   0  0  0  0  0  0  0  0  0  0  0  0
   39.6040   27.2450   33.9750 O   0  0  0  0  0  0  0  0  0  0  0  0
   41.1600   25.6210   32.7470 O   0  0  0  0  0  0  0  0  0  0  0  0
   41.1980   26.7670   33.7090 P   0  0  0  0  0  0  0  0  0  0  0  0
   41.8580   26.2000   35.1470 O   0  0  0  0  0  0  0  0  0  0  0  0
   42.6910   26.6750   35.4010 H   0  0  0  0  0  0  0  0  0  0  0  0
   42.0530   28.0620   33.0660 O   0  0  0  0  0  0  0  0  0  0  0  0
   41.4420   28.5990   32.5100 H   0  0  0  0  0  0  0  0  0  0  0  0
  1 13  1  0  0  0  0
  1  2  1  0  0  0  0
  1  6  1  0  0  0  0
  3  1  1  0  0  0  0
  4 10  1  0  0  0  0
  5 11  1  0  0  0  0
  5  4  2  0  0  0  0
  6  5  1  0  0  0  0
  7  6  2  0  0  0  0
  7  8  1  0  0  0  0
  8  9  2  0  0  0  0
  9  4  1  0  0  0  0
 12  8  1  0  0  0  0
 13 15  1  0  0  0  0
 13 14  1  0  0  0  0
 16 13  1  0  0  0  0
 17 18  2  0  0  0  0
 18 16  1  0  0  0  0
 18 19  1  0  0  0  0
 19 20  1  0  0  0  0
 21 18  1  0  0  0  0
 22 21  1  0  0  0  0
M  END
>  <minimizedAffinity>
-3.55363846

$$$$

 OpenBabel03272509253D

 22 22  0  0  0  0  0  0  0  0999 V2000
   38.0240   24.9070   34.3280 C   0  0  0  0  0  0  0  0  0  0  0  0
   38.6620   24.5520   33.5040 H   0  0  0  0  0  0  0  0  0  0  0  0
   37.2550   24.1350   34.6010 H   0  0  0  0  0  0  0  0  0  0  0  0
   36.3810   28.3320   34.3430 C   0  0  0  0  0  0  0  0  0  0  0  0
   37.0510   27.1940   34.7890 C   0  0  0  0  0  0  0  0  0  0  0  0
   37.3150   26.1460   33.9210 C   0  0  0  0  0  0  0  0  0  0  0  0
   36.9000   26.2760   32.6360 N   0  0  0  0  0  0  0  0  0  0  0  0
   36.2450   27.3910   32.2060 C   0  0  0  0  0  0  0  0  0  0  0  0
   35.9960   28.4020   33.0680 N   0  0  0  0  0  0  0  0  0  0  0  0
   36.1900   29.1290   35.0430 H   0  0  0  0  0  0  0  0  0  0  0  0
   37.3630   27.1250   35.8040 H   0  0  0  0  0  0  0  0  0  0  0  0
   35.9670   27.3640   31.1510 H   0  0  0  0  0  0  0  0  0  0  0  0
   38.9030   25.1940   35.5570 C   0  0  0  0  0  0  0  0  0  0  0  0
   38.7400   26.2000   35.9390 H   0  0  0  0  0  0  0  0  0  0  0  0
   39.9460   24.9760   35.2750 H   0  0  0  0  0  0  0  0  0  0  0  0
   38.4550   24.3200   36.5720 O   0  0  0  0  0  0  0  0  0  0  0  0
   38.8910   21.8830   35.9080 O   0  0  0  0  0  0  0  0  0  0  0  0
   39.4870   22.9950   36.7140 P   0  0  0  0  0  0  0  0  0  0  0  0
   39.5320   22.4920   38.3170 O   0  0  0  0  0  0  0  0  0  0  0  0
   40.4520   22.4690   38.6870 H   0  0  0  0  0  0  0  0  0  0  0  0
   41.0010   23.4200   36.1220 O   0  0  0  0  0  0  0  0  0  0  0  0
   40.8830   24.0660   35.3880 H   0  0  0  0  0  0  0  0  0  0  0  0
  1  3  1  0  0  0  0
  1 13  1  0  0  0  0
  2  1  1  0  0  0  0
  4  5  1  0  0  0  0
  4 10  1  0  0  0  0
  5 11  1  0  0  0  0
  6  1  1  0  0  0  0
  6  5  2  0  0  0  0
  7  6  1  0  0  0  0
  8  7  2  0  0  0  0
  8  9  1  0  0  0  0
  9  4  2  0  0  0  0
 12  8  1  0  0  0  0
 13 14  1  0  0  0  0
 13 16  1  0  0  0  0
 15 13  1  0  0  0  0
 16 18  1  0  0  0  0
 17 18  2  0  0  0  0
 18 19  1  0  0  0  0
 19 20  1  0  0  0  0
 21 18  1  0  0  0  0
 22 21  1  0  0  0  0
M  END
>  <minimizedAffinity>
-3.52826738

$$$$

 OpenBabel03272509253D

 22 22  0  0  0  0  0  0  0  0999 V2000
   38.3260   23.7980   34.5260 C   0  0  0  0  0  0  0  0  0  0  0  0
   39.1670   24.3540   34.0830 H   0  0  0  0  0  0  0  0  0  0  0  0
   37.3540   24.3340   34.3500 H   0  0  0  0  0  0  0  0  0  0  0  0
   37.9180   24.0710   38.2930 C   0  0  0  0  0  0  0  0  0  0  0  0
   37.6760   24.2320   36.9300 C   0  0  0  0  0  0  0  0  0  0  0  0
   38.5250   23.6670   35.9920 C   0  0  0  0  0  0  0  0  0  0  0  0
   39.5860   22.9590   36.4530 N   0  0  0  0  0  0  0  0  0  0  0  0
   39.8180   22.8050   37.7860 C   0  0  0  0  0  0  0  0  0  0  0  0
   38.9790   23.3640   38.6860 N   0  0  0  0  0  0  0  0  0  0  0  0
   37.2390   24.5230   38.9980 H   0  0  0  0  0  0  0  0  0  0  0  0
   36.8330   24.7940   36.6030 H   0  0  0  0  0  0  0  0  0  0  0  0
   40.7070   22.2140   38.0180 H   0  0  0  0  0  0  0  0  0  0  0  0
   38.2520   22.4020   33.8870 C   0  0  0  0  0  0  0  0  0  0  0  0
   39.0800   21.7710   34.2070 H   0  0  0  0  0  0  0  0  0  0  0  0
   38.1790   22.5420   32.7970 H   0  0  0  0  0  0  0  0  0  0  0  0
   37.0860   21.7960   34.4040 O   0  0  0  0  0  0  0  0  0  0  0  0
   35.3880   21.8110   32.4840 O   0  0  0  0  0  0  0  0  0  0  0  0
   36.3110   20.8860   33.2150 P   0  0  0  0  0  0  0  0  0  0  0  0
   35.3690   19.7010   33.9450 O   0  0  0  0  0  0  0  0  0  0  0  0
   35.5920   18.7860   33.6300 H   0  0  0  0  0  0  0  0  0  0  0  0
   37.4690   20.2510   32.1770 O   0  0  0  0  0  0  0  0  0  0  0  0
   38.2190   20.8880   32.1120 H   0  0  0  0  0  0  0  0  0  0  0  0
  1  6  1  0  0  0  0
  2  1  1  0  0  0  0
  3  1  1  0  0  0  0
  4  9  1  0  0  0  0
  4 10  1  0  0  0  0
  5  4  2  0  0  0  0
  6  7  2  0  0  0  0
  6  5  1  0  0  0  0
  7  8  1  0  0  0  0
  8 12  1  0  0  0  0
  8  9  2  0  0  0  0
 11  5  1  0  0  0  0
 13 14  1  0  0  0  0
 13 16  1  0  0  0  0
 13  1  1  0  0  0  0
 15 13  1  0  0  0  0
 17 18  2  0  0  0  0
 18 19  1  0  0  0  0
 18 16  1  0  0  0  0
 20 19  1  0  0  0  0
 21 18  1  0  0  0  0
 22 21  1  0  0  0  0
M  END
>  <minimizedAffinity>
-3.51788521

$$$$
