
 OpenBabel03272500593D

 33 34  0  0  0  0  0  0  0  0999 V2000
   38.1970   31.8930   47.4080 C   0  0  0  0  0  0  0  0  0  0  0  0
   38.7520   32.7800   48.3020 C   0  0  0  0  0  0  0  0  0  0  0  0
   38.2900   32.8530   49.6260 C   0  0  0  0  0  0  0  0  0  0  0  0
   37.2150   31.9660   50.0230 C   0  0  0  0  0  0  0  0  0  0  0  0
   36.7230   31.1230   49.0880 C   0  0  0  0  0  0  0  0  0  0  0  0
   37.1610   31.0510   47.8160 C   0  0  0  0  0  0  0  0  0  0  0  0
   39.5600   33.4580   48.0330 H   0  0  0  0  0  0  0  0  0  0  0  0
   38.7590   33.5680   50.2870 H   0  0  0  0  0  0  0  0  0  0  0  0
   36.9700   32.1360   51.0610 H   0  0  0  0  0  0  0  0  0  0  0  0
   35.9680   30.5480   49.6000 H   0  0  0  0  0  0  0  0  0  0  0  0
   40.0160   31.2440   45.9100 C   0  0  0  0  0  0  0  0  0  0  0  0
   38.7800   31.9130   46.0890 C   0  0  0  0  0  0  0  0  0  0  0  0
   38.2860   32.5040   44.9530 C   0  0  0  0  0  0  0  0  0  0  0  0
   38.9440   32.4350   43.7870 N   0  0  0  0  0  0  0  0  0  0  0  0
   40.0890   31.8110   43.6370 C   0  0  0  0  0  0  0  0  0  0  0  0
   40.6150   31.2200   44.6980 N   0  0  0  0  0  0  0  0  0  0  0  0
   40.5100   30.7330   46.7440 H   0  0  0  0  0  0  0  0  0  0  0  0
   37.3350   33.0200   45.0930 H   0  0  0  0  0  0  0  0  0  0  0  0
   40.5510   31.8040   42.6570 H   0  0  0  0  0  0  0  0  0  0  0  0
   35.1590   30.0520   47.0860 C   0  0  0  0  0  0  0  0  0  0  0  0
   34.5980   30.6850   48.0650 O   0  0  0  0  0  0  0  0  0  0  0  0
   36.5940   30.1900   46.9070 N   0  0  0  0  0  0  0  0  0  0  0  0
   37.1140   29.6790   46.1620 H   0  0  0  0  0  0  0  0  0  0  0  0
   34.3930   29.2760   46.2550 O   0  0  0  0  0  0  0  0  0  0  0  0
   33.0030   29.3450   46.1800 C   0  0  0  0  0  0  0  0  0  0  0  0
   32.3870   30.2590   45.4640 O   0  0  0  0  0  0  0  0  0  0  0  0
   32.0560   28.5240   46.7740 O   0  0  0  0  0  0  0  0  0  0  0  0
   31.3960   26.6930   48.5590 O   0  0  0  0  0  0  0  0  0  0  0  0
   32.5040   27.6690   48.1970 P   0  0  0  0  0  0  0  0  0  0  0  0
   33.8690   26.6930   47.8680 O   0  0  0  0  0  0  0  0  0  0  0  0
   33.9660   26.0300   48.5900 H   0  0  0  0  0  0  0  0  0  0  0  0
   32.7670   28.6640   49.5120 O   0  0  0  0  0  0  0  0  0  0  0  0
   33.5700   29.2220   49.4630 H   0  0  0  0  0  0  0  0  0  0  0  0
  1  6  2  0  0  0  0
  1  2  1  0  0  0  0
  2  3  2  0  0  0  0
  3  4  1  0  0  0  0
  3  8  1  0  0  0  0
  4  9  1  0  0  0  0
  5 10  1  0  0  0  0
  5  4  2  0  0  0  0
  6  5  1  0  0  0  0
  7  2  1  0  0  0  0
 11 12  1  0  0  0  0
 11 17  1  0  0  0  0
 12  1  1  0  0  0  0
 13 18  1  0  0  0  0
 13 12  2  0  0  0  0
 14 13  1  0  0  0  0
 15 14  2  0  0  0  0
 15 16  1  0  0  0  0
 16 11  2  0  0  0  0
 19 15  1  0  0  0  0
 20 21  2  0  0  0  0
 22 20  1  0  0  0  0
 22  6  1  0  0  0  0
 23 22  1  0  0  0  0
 24 20  1  0  0  0  0
 25 24  1  0  0  0  0
 25 27  1  0  0  0  0
 26 25  2  0  0  0  0
 27 29  1  0  0  0  0
 29 28  2  0  0  0  0
 29 32  1  0  0  0  0
 30 29  1  0  0  0  0
 30 31  1  0  0  0  0
 33 32  1  0  0  0  0
M  END
>  <minimizedAffinity>
-5.72304583

>  <minimizedRMSD>
2.17923713

$$$$
