
 OpenBabel03272507493D

 26 27  0  0  0  0  0  0  0  0999 V2000
   36.0290   29.2160   48.7790 C   0  0  0  0  0  0  0  0  0  0  0  0
   35.8180   30.2470   47.8180 C   0  0  0  0  0  0  0  0  0  0  0  0
   34.5550   30.3880   47.2680 C   0  0  0  0  0  0  0  0  0  0  0  0
   33.5730   29.5420   47.6650 N   0  0  0  0  0  0  0  0  0  0  0  0
   33.7830   28.5680   48.5760 C   0  0  0  0  0  0  0  0  0  0  0  0
   35.0100   28.4010   49.1350 N   0  0  0  0  0  0  0  0  0  0  0  0
   34.4130   31.1740   46.5420 H   0  0  0  0  0  0  0  0  0  0  0  0
   32.9500   27.9250   48.8480 H   0  0  0  0  0  0  0  0  0  0  0  0
   36.9450   31.0670   47.4930 N   0  0  0  0  0  0  0  0  0  0  0  0
   37.4650   31.9340   48.3720 C   0  0  0  0  0  0  0  0  0  0  0  0
   38.5690   32.7140   48.0090 C   0  0  0  0  0  0  0  0  0  0  0  0
   39.0160   32.4930   46.7310 C   0  0  0  0  0  0  0  0  0  0  0  0
   40.0200   33.2020   46.3980 O   0  0  0  0  0  0  0  0  0  0  0  0
   38.5200   31.6340   45.8250 N   0  0  0  0  0  0  0  0  0  0  0  0
   37.4500   30.9080   46.2450 C   0  0  0  0  0  0  0  0  0  0  0  0
   36.9680   30.0950   45.4090 O   0  0  0  0  0  0  0  0  0  0  0  0
   37.0430   32.0420   49.3640 H   0  0  0  0  0  0  0  0  0  0  0  0
   39.0200   33.4200   48.6720 H   0  0  0  0  0  0  0  0  0  0  0  0
   38.9310   31.5360   44.8770 H   0  0  0  0  0  0  0  0  0  0  0  0
   37.2630   29.0240   49.3620 O   0  0  0  0  0  0  0  0  0  0  0  0
   36.1930   29.6240   51.6440 O   0  0  0  0  0  0  0  0  0  0  0  0
   37.5430   29.3870   51.0120 P   0  0  0  0  0  0  0  0  0  0  0  0
   38.2720   28.0650   51.7640 O   0  0  0  0  0  0  0  0  0  0  0  0
   37.6020   27.3360   51.8220 H   0  0  0  0  0  0  0  0  0  0  0  0
   38.5470   30.7270   51.1090 O   0  0  0  0  0  0  0  0  0  0  0  0
   38.3990   31.2640   51.9260 H   0  0  0  0  0  0  0  0  0  0  0  0
  1  6  1  0  0  0  0
  1 20  1  0  0  0  0
  2  1  2  0  0  0  0
  3  4  2  0  0  0  0
  3  2  1  0  0  0  0
  4  5  1  0  0  0  0
  5  8  1  0  0  0  0
  5  6  2  0  0  0  0
  7  3  1  0  0  0  0
  9  2  1  0  0  0  0
  9 10  1  0  0  0  0
 10 17  1  0  0  0  0
 11 10  2  0  0  0  0
 11 18  1  0  0  0  0
 12 11  1  0  0  0  0
 13 12  2  0  0  0  0
 14 15  1  0  0  0  0
 14 12  1  0  0  0  0
 15  9  1  0  0  0  0
 16 15  2  0  0  0  0
 19 14  1  0  0  0  0
 20 22  1  0  0  0  0
 22 25  1  0  0  0  0
 22 21  2  0  0  0  0
 22 23  1  0  0  0  0
 23 24  1  0  0  0  0
 25 26  1  0  0  0  0
M  END
>  <minimizedAffinity>
-4.80887413

>  <minimizedRMSD>
1.49166977

$$$$
