
 OpenBabel03272500583D

 33 34  0  0  0  0  0  0  0  0999 V2000
   38.1010   31.8890   47.4210 C   0  0  0  0  0  0  0  0  0  0  0  0
   38.5770   32.8130   48.3240 C   0  0  0  0  0  0  0  0  0  0  0  0
   38.0540   32.8840   49.6250 C   0  0  0  0  0  0  0  0  0  0  0  0
   37.0020   31.9570   49.9890 C   0  0  0  0  0  0  0  0  0  0  0  0
   36.5900   31.0800   49.0480 C   0  0  0  0  0  0  0  0  0  0  0  0
   37.0870   31.0080   47.7980 C   0  0  0  0  0  0  0  0  0  0  0  0
   39.3660   33.5220   48.0800 H   0  0  0  0  0  0  0  0  0  0  0  0
   38.4620   33.6290   50.2950 H   0  0  0  0  0  0  0  0  0  0  0  0
   36.7040   32.1300   51.0130 H   0  0  0  0  0  0  0  0  0  0  0  0
   35.8380   30.4790   49.5350 H   0  0  0  0  0  0  0  0  0  0  0  0
   39.9940   31.2660   46.0060 C   0  0  0  0  0  0  0  0  0  0  0  0
   38.7420   31.9160   46.1300 C   0  0  0  0  0  0  0  0  0  0  0  0
   38.2890   32.4980   44.9710 C   0  0  0  0  0  0  0  0  0  0  0  0
   38.9980   32.4370   43.8350 N   0  0  0  0  0  0  0  0  0  0  0  0
   40.1590   31.8300   43.7370 C   0  0  0  0  0  0  0  0  0  0  0  0
   40.6470   31.2490   44.8210 N   0  0  0  0  0  0  0  0  0  0  0  0
   40.4600   30.7650   46.8620 H   0  0  0  0  0  0  0  0  0  0  0  0
   37.3250   32.9990   45.0690 H   0  0  0  0  0  0  0  0  0  0  0  0
   40.6630   31.8290   42.7780 H   0  0  0  0  0  0  0  0  0  0  0  0
   35.1570   29.9480   46.9640 C   0  0  0  0  0  0  0  0  0  0  0  0
   34.5190   30.5960   47.8850 O   0  0  0  0  0  0  0  0  0  0  0  0
   36.5990   30.1110   46.8790 N   0  0  0  0  0  0  0  0  0  0  0  0
   37.1770   29.5890   46.1860 H   0  0  0  0  0  0  0  0  0  0  0  0
   34.4650   29.1320   46.1080 O   0  0  0  0  0  0  0  0  0  0  0  0
   33.2200   29.4450   45.5630 C   0  0  0  0  0  0  0  0  0  0  0  0
   32.9880   30.5920   44.9640 O   0  0  0  0  0  0  0  0  0  0  0  0
   32.0680   28.6740   45.5210 O   0  0  0  0  0  0  0  0  0  0  0  0
   30.8800   26.8480   47.0140 O   0  0  0  0  0  0  0  0  0  0  0  0
   31.2780   28.3160   47.0050 P   0  0  0  0  0  0  0  0  0  0  0  0
   32.3860   28.4860   48.2960 O   0  0  0  0  0  0  0  0  0  0  0  0
   32.0130   28.0470   49.0950 H   0  0  0  0  0  0  0  0  0  0  0  0
   29.9000   29.2260   47.2580 O   0  0  0  0  0  0  0  0  0  0  0  0
   30.0530   30.1760   47.4420 H   0  0  0  0  0  0  0  0  0  0  0  0
  1  6  2  0  0  0  0
  1  2  1  0  0  0  0
  2  3  2  0  0  0  0
  3  4  1  0  0  0  0
  3  8  1  0  0  0  0
  4  9  1  0  0  0  0
  5 10  1  0  0  0  0
  5  4  2  0  0  0  0
  6  5  1  0  0  0  0
  7  2  1  0  0  0  0
 11 12  1  0  0  0  0
 11 17  1  0  0  0  0
 12  1  1  0  0  0  0
 13 18  1  0  0  0  0
 13 12  2  0  0  0  0
 14 13  1  0  0  0  0
 15 14  2  0  0  0  0
 15 16  1  0  0  0  0
 16 11  2  0  0  0  0
 19 15  1  0  0  0  0
 20 21  2  0  0  0  0
 22 20  1  0  0  0  0
 22  6  1  0  0  0  0
 23 22  1  0  0  0  0
 24 20  1  0  0  0  0
 25 24  1  0  0  0  0
 26 25  2  0  0  0  0
 27 25  1  0  0  0  0
 27 29  1  0  0  0  0
 29 28  2  0  0  0  0
 29 32  1  0  0  0  0
 29 30  1  0  0  0  0
 30 31  1  0  0  0  0
 32 33  1  0  0  0  0
M  END
>  <minimizedAffinity>
-5.54019976

>  <minimizedRMSD>
0.703169465

$$$$
