
 OpenBabel03272509063D

 31 32  0  0  0  0  0  0  0  0999 V2000
   36.6430   27.8000   34.8720 C   0  0  0  0  0  3  0  0  0  0  0  0
   36.5910   28.5540   33.8090 C   0  0  0  0  0  3  0  0  0  0  0  0
   39.9210   26.1970   34.6250 C   0  0  0  0  0  0  0  0  0  0  0  0
   39.6590   24.9430   35.2640 C   0  0  0  0  0  0  0  0  0  0  0  0
   38.3450   24.6850   35.7640 C   0  0  0  0  0  0  0  0  0  0  0  0
   37.4350   25.6810   35.5840 N   0  0  0  0  0  0  0  0  0  0  0  0
   37.7220   26.8450   34.9780 C   0  0  0  0  0  0  0  0  0  0  0  0
   38.9470   27.1090   34.5020 N   0  0  0  0  0  0  0  0  0  0  0  0
   40.9300   26.3410   34.2660 H   0  0  0  0  0  0  0  0  0  0  0  0
   40.4430   24.2020   35.3670 H   0  0  0  0  0  0  0  0  0  0  0  0
   38.0570   23.5010   36.3790 O   0  0  0  0  0  0  0  0  0  0  0  0
   38.0750   24.7250   38.7640 O   0  0  0  0  0  0  0  0  0  0  0  0
   38.1610   23.3810   38.0750 P   0  0  0  0  0  0  0  0  0  0  0  0
   39.6600   22.7080   38.5390 O   0  0  0  0  0  0  0  0  0  0  0  0
   40.3610   23.0790   37.9580 H   0  0  0  0  0  0  0  0  0  0  0  0
   36.9750   22.3210   38.6700 O   0  0  0  0  0  0  0  0  0  0  0  0
   37.1680   21.4370   38.2670 H   0  0  0  0  0  0  0  0  0  0  0  0
   35.5940   29.5850   33.4680 C   0  0  0  0  0  0  0  0  0  0  0  0
   36.1220   30.3350   32.8330 H   0  0  0  0  0  0  0  0  0  0  0  0
   34.7720   29.1820   32.8610 H   0  0  0  0  0  0  0  0  0  0  0  0
   35.1170   30.3690   34.6490 C   0  0  0  0  0  0  0  0  0  0  0  0
   35.8770   31.2040   35.4320 C   0  0  0  0  0  0  0  0  0  0  0  0
   35.2960   31.8660   36.4950 C   0  0  0  0  0  0  0  0  0  0  0  0
   33.9520   31.7160   36.8060 C   0  0  0  0  0  0  0  0  0  0  0  0
   33.1820   30.8840   36.0310 C   0  0  0  0  0  0  0  0  0  0  0  0
   33.7710   30.2170   34.9590 C   0  0  0  0  0  0  0  0  0  0  0  0
   36.9200   31.2880   35.1500 H   0  0  0  0  0  0  0  0  0  0  0  0
   35.9740   32.4980   37.0490 H   0  0  0  0  0  0  0  0  0  0  0  0
   33.5880   32.2780   37.6600 H   0  0  0  0  0  0  0  0  0  0  0  0
   32.1320   30.7630   36.2690 H   0  0  0  0  0  0  0  0  0  0  0  0
   33.0900   29.5820   34.4020 H   0  0  0  0  0  0  0  0  0  0  0  0
  1  7  1  0  0  0  0
  2  1  2  0  0  0  0
  3  4  1  0  0  0  0
  4 10  1  0  0  0  0
  4  5  2  0  0  0  0
  5 11  1  0  0  0  0
  6  5  1  0  0  0  0
  7  6  2  0  0  0  0
  8  3  2  0  0  0  0
  8  7  1  0  0  0  0
  9  3  1  0  0  0  0
 11 13  1  0  0  0  0
 13 14  1  0  0  0  0
 13 16  1  0  0  0  0
 13 12  2  0  0  0  0
 15 14  1  0  0  0  0
 17 16  1  0  0  0  0
 18  2  1  0  0  0  0
 18 21  1  0  0  0  0
 19 18  1  0  0  0  0
 20 18  1  0  0  0  0
 21 26  2  0  0  0  0
 21 22  1  0  0  0  0
 22 23  2  0  0  0  0
 23 24  1  0  0  0  0
 23 28  1  0  0  0  0
 24 29  1  0  0  0  0
 25 30  1  0  0  0  0
 25 24  2  0  0  0  0
 26 25  1  0  0  0  0
 27 22  1  0  0  0  0
 31 26  1  0  0  0  0
M  END
>  <minimizedAffinity>
-5.85669994

$$$$

 OpenBabel03272509063D

 31 32  0  0  0  0  0  0  0  0999 V2000
   36.9020   24.9650   32.3180 C   0  0  0  0  0  3  0  0  0  0  0  0
   36.8330   23.6630   32.2860 C   0  0  0  0  0  3  0  0  0  0  0  0
   37.5950   27.4240   34.9350 C   0  0  0  0  0  0  0  0  0  0  0  0
   38.3410   26.6290   35.8630 C   0  0  0  0  0  0  0  0  0  0  0  0
   38.5870   25.2560   35.5540 C   0  0  0  0  0  0  0  0  0  0  0  0
   38.0760   24.8120   34.3730 N   0  0  0  0  0  0  0  0  0  0  0  0
   37.3800   25.5920   33.5280 C   0  0  0  0  0  0  0  0  0  0  0  0
   37.1370   26.8820   33.7980 N   0  0  0  0  0  0  0  0  0  0  0  0
   37.4380   28.4550   35.2180 H   0  0  0  0  0  0  0  0  0  0  0  0
   38.7130   27.0620   36.7850 H   0  0  0  0  0  0  0  0  0  0  0  0
   39.2940   24.4660   36.4140 O   0  0  0  0  0  0  0  0  0  0  0  0
   37.6980   24.2010   38.5520 O   0  0  0  0  0  0  0  0  0  0  0  0
   38.4680   23.4400   37.4940 P   0  0  0  0  0  0  0  0  0  0  0  0
   39.5680   22.4430   38.3370 O   0  0  0  0  0  0  0  0  0  0  0  0
   40.3620   22.9780   38.5650 H   0  0  0  0  0  0  0  0  0  0  0  0
   37.4440   22.3840   36.6460 O   0  0  0  0  0  0  0  0  0  0  0  0
   38.0310   21.8400   36.0630 H   0  0  0  0  0  0  0  0  0  0  0  0
   36.3740   22.7990   31.1830 C   0  0  0  0  0  0  0  0  0  0  0  0
   35.3810   23.1940   30.8660 H   0  0  0  0  0  0  0  0  0  0  0  0
   37.0320   22.8620   30.3060 H   0  0  0  0  0  0  0  0  0  0  0  0
   36.0960   21.3900   31.6030 C   0  0  0  0  0  0  0  0  0  0  0  0
   36.1800   20.2720   30.8090 C   0  0  0  0  0  0  0  0  0  0  0  0
   35.8920   19.0300   31.3380 C   0  0  0  0  0  0  0  0  0  0  0  0
   35.5160   18.8680   32.6630 C   0  0  0  0  0  0  0  0  0  0  0  0
   35.4280   19.9770   33.4680 C   0  0  0  0  0  0  0  0  0  0  0  0
   35.7190   21.2300   32.9310 C   0  0  0  0  0  0  0  0  0  0  0  0
   36.4760   20.4510   29.7820 H   0  0  0  0  0  0  0  0  0  0  0  0
   35.9860   18.2150   30.6360 H   0  0  0  0  0  0  0  0  0  0  0  0
   35.3110   17.8530   32.9860 H   0  0  0  0  0  0  0  0  0  0  0  0
   35.1350   19.8570   34.5030 H   0  0  0  0  0  0  0  0  0  0  0  0
   35.6240   22.0490   33.6360 H   0  0  0  0  0  0  0  0  0  0  0  0
  1  7  1  0  0  0  0
  2  1  2  0  0  0  0
  3  9  1  0  0  0  0
  3  4  1  0  0  0  0
  4 10  1  0  0  0  0
  5  4  2  0  0  0  0
  5 11  1  0  0  0  0
  6  5  1  0  0  0  0
  7  8  1  0  0  0  0
  7  6  2  0  0  0  0
  8  3  2  0  0  0  0
 11 13  1  0  0  0  0
 13 14  1  0  0  0  0
 13 12  2  0  0  0  0
 14 15  1  0  0  0  0
 16 13  1  0  0  0  0
 17 16  1  0  0  0  0
 18 21  1  0  0  0  0
 18  2  1  0  0  0  0
 19 18  1  0  0  0  0
 20 18  1  0  0  0  0
 21 26  1  0  0  0  0
 22 23  1  0  0  0  0
 22 21  2  0  0  0  0
 23 24  2  0  0  0  0
 24 29  1  0  0  0  0
 24 25  1  0  0  0  0
 25 30  1  0  0  0  0
 26 25  2  0  0  0  0
 26 31  1  0  0  0  0
 27 22  1  0  0  0  0
 28 23  1  0  0  0  0
M  END
>  <minimizedAffinity>
-5.77287102

$$$$

 OpenBabel03272509063D

 31 32  0  0  0  0  0  0  0  0999 V2000
   36.8540   25.0860   32.4560 C   0  0  0  0  0  3  0  0  0  0  0  0
   37.0800   23.8110   32.2950 C   0  0  0  0  0  3  0  0  0  0  0  0
   37.5380   27.5400   35.0790 C   0  0  0  0  0  0  0  0  0  0  0  0
   38.3710   26.7750   35.9570 C   0  0  0  0  0  0  0  0  0  0  0  0
   38.6750   25.4210   35.6130 C   0  0  0  0  0  0  0  0  0  0  0  0
   38.1320   24.9670   34.4500 N   0  0  0  0  0  0  0  0  0  0  0  0
   37.3550   25.7200   33.6530 C   0  0  0  0  0  0  0  0  0  0  0  0
   37.0560   26.9910   33.9560 N   0  0  0  0  0  0  0  0  0  0  0  0
   37.3400   28.5570   35.3870 H   0  0  0  0  0  0  0  0  0  0  0  0
   38.7630   27.2130   36.8670 H   0  0  0  0  0  0  0  0  0  0  0  0
   39.4640   24.6590   36.4240 O   0  0  0  0  0  0  0  0  0  0  0  0
   39.7800   22.0700   35.8070 O   0  0  0  0  0  0  0  0  0  0  0  0
   39.0540   23.0330   36.7210 P   0  0  0  0  0  0  0  0  0  0  0  0
   37.3890   22.7740   36.4530 O   0  0  0  0  0  0  0  0  0  0  0  0
   37.1170   23.2850   35.6580 H   0  0  0  0  0  0  0  0  0  0  0  0
   39.3270   22.6390   38.3500 O   0  0  0  0  0  0  0  0  0  0  0  0
   38.7320   23.2270   38.8790 H   0  0  0  0  0  0  0  0  0  0  0  0
   36.6670   22.9440   31.1760 C   0  0  0  0  0  0  0  0  0  0  0  0
   35.7410   23.3970   30.7520 H   0  0  0  0  0  0  0  0  0  0  0  0
   37.4100   22.9300   30.3670 H   0  0  0  0  0  0  0  0  0  0  0  0
   36.2470   21.5730   31.6060 C   0  0  0  0  0  0  0  0  0  0  0  0
   36.1400   20.4660   30.8000 C   0  0  0  0  0  0  0  0  0  0  0  0
   35.7390   19.2600   31.3400 C   0  0  0  0  0  0  0  0  0  0  0  0
   35.4350   19.1250   32.6870 C   0  0  0  0  0  0  0  0  0  0  0  0
   35.5380   20.2250   33.5030 C   0  0  0  0  0  0  0  0  0  0  0  0
   35.9430   21.4410   32.9550 C   0  0  0  0  0  0  0  0  0  0  0  0
   36.3870   20.6210   29.7570 H   0  0  0  0  0  0  0  0  0  0  0  0
   35.6850   18.4500   30.6280 H   0  0  0  0  0  0  0  0  0  0  0  0
   35.1290   18.1380   33.0160 H   0  0  0  0  0  0  0  0  0  0  0  0
   35.3020   20.1260   34.5550 H   0  0  0  0  0  0  0  0  0  0  0  0
   35.9970   22.2550   33.6700 H   0  0  0  0  0  0  0  0  0  0  0  0
  1  7  1  0  0  0  0
  2  1  2  0  0  0  0
  3  9  1  0  0  0  0
  3  4  1  0  0  0  0
  4 10  1  0  0  0  0
  5  4  2  0  0  0  0
  5 11  1  0  0  0  0
  6  5  1  0  0  0  0
  7  8  1  0  0  0  0
  7  6  2  0  0  0  0
  8  3  2  0  0  0  0
 11 13  1  0  0  0  0
 12 13  2  0  0  0  0
 13 16  1  0  0  0  0
 14 13  1  0  0  0  0
 15 14  1  0  0  0  0
 16 17  1  0  0  0  0
 18 21  1  0  0  0  0
 18  2  1  0  0  0  0
 19 18  1  0  0  0  0
 20 18  1  0  0  0  0
 21 26  1  0  0  0  0
 22 23  1  0  0  0  0
 22 21  2  0  0  0  0
 23 24  2  0  0  0  0
 24 29  1  0  0  0  0
 24 25  1  0  0  0  0
 25 30  1  0  0  0  0
 26 25  2  0  0  0  0
 26 31  1  0  0  0  0
 27 22  1  0  0  0  0
 28 23  1  0  0  0  0
M  END
>  <minimizedAffinity>
-5.32827711

$$$$

 OpenBabel03272509063D

 31 32  0  0  0  0  0  0  0  0999 V2000
   36.7830   27.8770   33.5040 C   0  0  0  0  0  3  0  0  0  0  0  0
   36.0510   28.6600   34.2470 C   0  0  0  0  0  3  0  0  0  0  0  0
   38.0380   25.4200   35.9040 C   0  0  0  0  0  0  0  0  0  0  0  0
   38.2220   24.2810   35.0560 C   0  0  0  0  0  0  0  0  0  0  0  0
   37.9060   24.3970   33.6670 C   0  0  0  0  0  0  0  0  0  0  0  0
   37.4450   25.6130   33.2620 N   0  0  0  0  0  0  0  0  0  0  0  0
   37.2880   26.6580   34.0920 C   0  0  0  0  0  0  0  0  0  0  0  0
   37.5770   26.5710   35.3980 N   0  0  0  0  0  0  0  0  0  0  0  0
   38.2920   25.2770   36.9440 H   0  0  0  0  0  0  0  0  0  0  0  0
   38.5940   23.3470   35.4600 H   0  0  0  0  0  0  0  0  0  0  0  0
   38.0670   23.3340   32.8260 O   0  0  0  0  0  0  0  0  0  0  0  0
   35.5840   23.0490   31.8580 O   0  0  0  0  0  0  0  0  0  0  0  0
   37.0440   23.1590   31.4760 P   0  0  0  0  0  0  0  0  0  0  0  0
   37.4170   21.7310   30.6200 O   0  0  0  0  0  0  0  0  0  0  0  0
   37.6150   21.0200   31.2700 H   0  0  0  0  0  0  0  0  0  0  0  0
   37.2850   24.4320   30.3780 O   0  0  0  0  0  0  0  0  0  0  0  0
   38.2290   24.3670   30.0840 H   0  0  0  0  0  0  0  0  0  0  0  0
   35.4340   29.9500   33.8840 C   0  0  0  0  0  0  0  0  0  0  0  0
   36.2740   30.6460   33.6540 H   0  0  0  0  0  0  0  0  0  0  0  0
   34.8270   29.8770   32.9720 H   0  0  0  0  0  0  0  0  0  0  0  0
   34.7080   30.6050   35.0170 C   0  0  0  0  0  0  0  0  0  0  0  0
   33.3800   30.4490   35.3300 C   0  0  0  0  0  0  0  0  0  0  0  0
   32.8460   31.1210   36.4110 C   0  0  0  0  0  0  0  0  0  0  0  0
   33.6140   31.9610   37.2050 C   0  0  0  0  0  0  0  0  0  0  0  0
   34.9440   32.1250   36.9020 C   0  0  0  0  0  0  0  0  0  0  0  0
   35.4790   31.4460   35.8100 C   0  0  0  0  0  0  0  0  0  0  0  0
   32.8220   29.7850   34.6810 H   0  0  0  0  0  0  0  0  0  0  0  0
   31.7950   30.9340   36.5770 H   0  0  0  0  0  0  0  0  0  0  0  0
   33.1040   32.4440   38.0320 H   0  0  0  0  0  0  0  0  0  0  0  0
   35.5480   32.7790   37.5180 H   0  0  0  0  0  0  0  0  0  0  0  0
   36.5360   31.6330   35.6440 H   0  0  0  0  0  0  0  0  0  0  0  0
  1  7  1  0  0  0  0
  1  2  2  0  0  0  0
  3  9  1  0  0  0  0
  4 10  1  0  0  0  0
  4  3  2  0  0  0  0
  5  4  1  0  0  0  0
  6  5  2  0  0  0  0
  6  7  1  0  0  0  0
  7  8  2  0  0  0  0
  8  3  1  0  0  0  0
 11  5  1  0  0  0  0
 13 12  2  0  0  0  0
 13 11  1  0  0  0  0
 14 15  1  0  0  0  0
 14 13  1  0  0  0  0
 16 13  1  0  0  0  0
 17 16  1  0  0  0  0
 18  2  1  0  0  0  0
 18 21  1  0  0  0  0
 19 18  1  0  0  0  0
 20 18  1  0  0  0  0
 21 22  2  0  0  0  0
 21 26  1  0  0  0  0
 22 23  1  0  0  0  0
 23 28  1  0  0  0  0
 23 24  2  0  0  0  0
 24 29  1  0  0  0  0
 25 24  1  0  0  0  0
 25 30  1  0  0  0  0
 26 25  2  0  0  0  0
 27 22  1  0  0  0  0
 31 26  1  0  0  0  0
M  END
>  <minimizedAffinity>
-5.16123772

$$$$

 OpenBabel03272509063D

 31 32  0  0  0  0  0  0  0  0999 V2000
   36.1570   27.9330   32.5240 C   0  0  0  0  0  3  0  0  0  0  0  0
   35.7240   28.6700   33.5090 C   0  0  0  0  0  3  0  0  0  0  0  0
   39.6150   26.7440   32.5370 C   0  0  0  0  0  0  0  0  0  0  0  0
   39.4750   25.5080   33.2450 C   0  0  0  0  0  0  0  0  0  0  0  0
   38.1780   25.1170   33.7000 C   0  0  0  0  0  0  0  0  0  0  0  0
   37.1630   25.9770   33.4120 N   0  0  0  0  0  0  0  0  0  0  0  0
   37.3370   27.1300   32.7430 C   0  0  0  0  0  0  0  0  0  0  0  0
   38.5450   27.5160   32.3080 N   0  0  0  0  0  0  0  0  0  0  0  0
   40.6170   26.9910   32.2160 H   0  0  0  0  0  0  0  0  0  0  0  0
   40.3370   24.8790   33.4330 H   0  0  0  0  0  0  0  0  0  0  0  0
   38.0040   23.9460   34.3790 O   0  0  0  0  0  0  0  0  0  0  0  0
   38.1330   25.1110   36.7900 O   0  0  0  0  0  0  0  0  0  0  0  0
   38.4450   23.8450   36.0210 P   0  0  0  0  0  0  0  0  0  0  0  0
   40.1260   23.6000   36.1780 O   0  0  0  0  0  0  0  0  0  0  0  0
   40.5860   24.1510   35.5060 H   0  0  0  0  0  0  0  0  0  0  0  0
   37.7110   22.4990   36.7520 O   0  0  0  0  0  0  0  0  0  0  0  0
   38.0540   21.7040   36.2720 H   0  0  0  0  0  0  0  0  0  0  0  0
   34.5590   29.5750   33.5310 C   0  0  0  0  0  0  0  0  0  0  0  0
   34.7000   30.2900   32.6870 H   0  0  0  0  0  0  0  0  0  0  0  0
   33.6180   29.0420   33.3380 H   0  0  0  0  0  0  0  0  0  0  0  0
   34.4990   30.4440   34.7470 C   0  0  0  0  0  0  0  0  0  0  0  0
   33.4060   30.6370   35.5560 C   0  0  0  0  0  0  0  0  0  0  0  0
   33.5000   31.4720   36.6510 C   0  0  0  0  0  0  0  0  0  0  0  0
   34.6770   32.1340   36.9690 C   0  0  0  0  0  0  0  0  0  0  0  0
   35.7780   31.9490   36.1680 C   0  0  0  0  0  0  0  0  0  0  0  0
   35.6790   31.1060   35.0630 C   0  0  0  0  0  0  0  0  0  0  0  0
   32.5100   30.0990   35.2670 H   0  0  0  0  0  0  0  0  0  0  0  0
   32.5890   31.5590   37.2240 H   0  0  0  0  0  0  0  0  0  0  0  0
   34.6520   32.7680   37.8480 H   0  0  0  0  0  0  0  0  0  0  0  0
   36.6990   32.4630   36.4110 H   0  0  0  0  0  0  0  0  0  0  0  0
   36.5950   31.0180   34.4870 H   0  0  0  0  0  0  0  0  0  0  0  0
  1  7  1  0  0  0  0
  1  2  2  0  0  0  0
  2 18  1  0  0  0  0
  3  4  1  0  0  0  0
  4 10  1  0  0  0  0
  4  5  2  0  0  0  0
  5 11  1  0  0  0  0
  6  5  1  0  0  0  0
  7  6  2  0  0  0  0
  8  3  2  0  0  0  0
  8  7  1  0  0  0  0
  9  3  1  0  0  0  0
 11 13  1  0  0  0  0
 13 14  1  0  0  0  0
 13 16  1  0  0  0  0
 13 12  2  0  0  0  0
 15 14  1  0  0  0  0
 17 16  1  0  0  0  0
 18 21  1  0  0  0  0
 19 18  1  0  0  0  0
 20 18  1  0  0  0  0
 21 26  2  0  0  0  0
 21 22  1  0  0  0  0
 22 23  2  0  0  0  0
 23 24  1  0  0  0  0
 23 28  1  0  0  0  0
 24 29  1  0  0  0  0
 25 30  1  0  0  0  0
 25 24  2  0  0  0  0
 26 25  1  0  0  0  0
 27 22  1  0  0  0  0
 31 26  1  0  0  0  0
M  END
>  <minimizedAffinity>
-4.93364096

$$$$

 OpenBabel03272509063D

 31 32  0  0  0  0  0  0  0  0999 V2000
   35.6660   29.2780   33.1580 C   0  0  0  0  0  3  0  0  0  0  0  0
   35.7390   28.1570   32.4940 C   0  0  0  0  0  3  0  0  0  0  0  0
   32.0720   29.9350   33.0060 C   0  0  0  0  0  0  0  0  0  0  0  0
   31.9610   31.0470   33.9010 C   0  0  0  0  0  0  0  0  0  0  0  0
   33.1420   31.5420   34.5350 C   0  0  0  0  0  0  0  0  0  0  0  0
   34.2990   30.8960   34.2240 N   0  0  0  0  0  0  0  0  0  0  0  0
   34.3600   29.8550   33.3760 C   0  0  0  0  0  0  0  0  0  0  0  0
   33.2650   29.3730   32.7710 N   0  0  0  0  0  0  0  0  0  0  0  0
   31.1490   29.6000   32.5540 H   0  0  0  0  0  0  0  0  0  0  0  0
   30.9980   31.5040   34.0950 H   0  0  0  0  0  0  0  0  0  0  0  0
   33.0770   32.6000   35.3950 O   0  0  0  0  0  0  0  0  0  0  0  0
   33.2340   33.6280   37.8650 O   0  0  0  0  0  0  0  0  0  0  0  0
   33.4410   32.3750   37.0430 P   0  0  0  0  0  0  0  0  0  0  0  0
   35.0800   31.9450   37.2440 O   0  0  0  0  0  0  0  0  0  0  0  0
   35.6210   32.4750   36.6170 H   0  0  0  0  0  0  0  0  0  0  0  0
   32.5420   31.0820   37.6800 O   0  0  0  0  0  0  0  0  0  0  0  0
   32.8190   30.2780   37.1710 H   0  0  0  0  0  0  0  0  0  0  0  0
   36.9430   27.3840   32.1360 C   0  0  0  0  0  0  0  0  0  0  0  0
   36.5930   26.3560   31.8850 H   0  0  0  0  0  0  0  0  0  0  0  0
   37.4370   27.7780   31.2380 H   0  0  0  0  0  0  0  0  0  0  0  0
   37.8870   27.1850   33.2800 C   0  0  0  0  0  0  0  0  0  0  0  0
   39.2590   27.1860   33.2120 C   0  0  0  0  0  0  0  0  0  0  0  0
   40.0040   26.9890   34.3570 C   0  0  0  0  0  0  0  0  0  0  0  0
   39.4080   26.7870   35.5940 C   0  0  0  0  0  0  0  0  0  0  0  0
   38.0370   26.7840   35.6750 C   0  0  0  0  0  0  0  0  0  0  0  0
   37.2880   26.9830   34.5170 C   0  0  0  0  0  0  0  0  0  0  0  0
   39.6780   27.3460   32.2250 H   0  0  0  0  0  0  0  0  0  0  0  0
   41.0730   27.0060   34.2020 H   0  0  0  0  0  0  0  0  0  0  0  0
   40.0770   26.6420   36.4350 H   0  0  0  0  0  0  0  0  0  0  0  0
   37.5660   26.6270   36.6370 H   0  0  0  0  0  0  0  0  0  0  0  0
   36.2140   26.9650   34.6740 H   0  0  0  0  0  0  0  0  0  0  0  0
  1  7  1  0  0  0  0
  2  1  2  0  0  0  0
  3  4  1  0  0  0  0
  4 10  1  0  0  0  0
  4  5  2  0  0  0  0
  5 11  1  0  0  0  0
  6  5  1  0  0  0  0
  7  6  2  0  0  0  0
  8  3  2  0  0  0  0
  8  7  1  0  0  0  0
  9  3  1  0  0  0  0
 11 13  1  0  0  0  0
 13 14  1  0  0  0  0
 13 16  1  0  0  0  0
 13 12  2  0  0  0  0
 15 14  1  0  0  0  0
 17 16  1  0  0  0  0
 18  2  1  0  0  0  0
 18 21  1  0  0  0  0
 19 18  1  0  0  0  0
 20 18  1  0  0  0  0
 21 26  1  0  0  0  0
 22 21  2  0  0  0  0
 22 23  1  0  0  0  0
 23 24  2  0  0  0  0
 24 25  1  0  0  0  0
 24 29  1  0  0  0  0
 25 30  1  0  0  0  0
 26 31  1  0  0  0  0
 26 25  2  0  0  0  0
 27 22  1  0  0  0  0
 28 23  1  0  0  0  0
M  END
>  <minimizedAffinity>
-4.92682076

$$$$

 OpenBabel03272509063D

 31 32  0  0  0  0  0  0  0  0999 V2000
   38.0280   26.6710   35.6950 C   0  0  0  0  0  3  0  0  0  0  0  0
   37.8210   25.3910   35.8420 C   0  0  0  0  0  3  0  0  0  0  0  0
   37.6010   27.6270   32.1910 C   0  0  0  0  0  0  0  0  0  0  0  0
   36.5300   28.5720   32.2950 C   0  0  0  0  0  0  0  0  0  0  0  0
   35.9830   28.8540   33.5850 C   0  0  0  0  0  0  0  0  0  0  0  0
   36.5430   28.1820   34.6280 N   0  0  0  0  0  0  0  0  0  0  0  0
   37.5500   27.3030   34.4870 C   0  0  0  0  0  0  0  0  0  0  0  0
   38.0770   27.0220   33.2870 N   0  0  0  0  0  0  0  0  0  0  0  0
   37.9770   27.4510   31.1930 H   0  0  0  0  0  0  0  0  0  0  0  0
   36.1410   29.0630   31.4120 H   0  0  0  0  0  0  0  0  0  0  0  0
   34.9610   29.7470   33.7260 O   0  0  0  0  0  0  0  0  0  0  0  0
   35.9800   32.2250   33.6270 O   0  0  0  0  0  0  0  0  0  0  0  0
   35.2400   31.2380   34.5020 P   0  0  0  0  0  0  0  0  0  0  0  0
   36.2070   31.0210   35.8910 O   0  0  0  0  0  0  0  0  0  0  0  0
   36.9020   30.3560   35.6870 H   0  0  0  0  0  0  0  0  0  0  0  0
   33.7780   31.9010   35.0560 O   0  0  0  0  0  0  0  0  0  0  0  0
   33.4130   31.2550   35.7110 H   0  0  0  0  0  0  0  0  0  0  0  0
   38.2180   24.5250   36.9680 C   0  0  0  0  0  0  0  0  0  0  0  0
   38.6220   25.2000   37.7570 H   0  0  0  0  0  0  0  0  0  0  0  0
   37.3590   24.0020   37.4100 H   0  0  0  0  0  0  0  0  0  0  0  0
   39.3550   23.6090   36.6450 C   0  0  0  0  0  0  0  0  0  0  0  0
   39.9670   23.4700   35.4230 C   0  0  0  0  0  0  0  0  0  0  0  0
   41.0110   22.5790   35.2740 C   0  0  0  0  0  0  0  0  0  0  0  0
   41.4720   21.8080   36.3320 C   0  0  0  0  0  0  0  0  0  0  0  0
   40.8700   21.9380   37.5590 C   0  0  0  0  0  0  0  0  0  0  0  0
   39.8150   22.8370   37.7050 C   0  0  0  0  0  0  0  0  0  0  0  0
   39.5710   24.0920   34.6290 H   0  0  0  0  0  0  0  0  0  0  0  0
   41.4260   22.5420   34.2780 H   0  0  0  0  0  0  0  0  0  0  0  0
   42.2980   21.1380   36.1160 H   0  0  0  0  0  0  0  0  0  0  0  0
   41.2250   21.3380   38.3880 H   0  0  0  0  0  0  0  0  0  0  0  0
   39.3990   22.8750   38.7070 H   0  0  0  0  0  0  0  0  0  0  0  0
  1  2  2  0  0  0  0
  2 18  1  0  0  0  0
  3  4  2  0  0  0  0
  3  8  1  0  0  0  0
  4  5  1  0  0  0  0
  5 11  1  0  0  0  0
  5  6  2  0  0  0  0
  7  6  1  0  0  0  0
  7  1  1  0  0  0  0
  8  7  2  0  0  0  0
  9  3  1  0  0  0  0
 10  4  1  0  0  0  0
 11 13  1  0  0  0  0
 12 13  2  0  0  0  0
 13 16  1  0  0  0  0
 13 14  1  0  0  0  0
 15 14  1  0  0  0  0
 16 17  1  0  0  0  0
 18 20  1  0  0  0  0
 18 19  1  0  0  0  0
 21 18  1  0  0  0  0
 21 26  1  0  0  0  0
 22 21  2  0  0  0  0
 23 22  1  0  0  0  0
 23 24  2  0  0  0  0
 24 25  1  0  0  0  0
 25 26  2  0  0  0  0
 25 30  1  0  0  0  0
 26 31  1  0  0  0  0
 27 22  1  0  0  0  0
 28 23  1  0  0  0  0
 29 24  1  0  0  0  0
M  END
>  <minimizedAffinity>
-4.87837696

$$$$

 OpenBabel03272509063D

 31 32  0  0  0  0  0  0  0  0999 V2000
   36.7200   27.4270   34.4490 C   0  0  0  0  0  3  0  0  0  0  0  0
   37.8900   27.5100   35.0190 C   0  0  0  0  0  3  0  0  0  0  0  0
   37.1330   28.7710   31.0730 C   0  0  0  0  0  0  0  0  0  0  0  0
   35.9620   29.5870   30.9600 C   0  0  0  0  0  0  0  0  0  0  0  0
   35.0570   29.6500   32.0650 C   0  0  0  0  0  0  0  0  0  0  0  0
   35.3970   28.9100   33.1550 N   0  0  0  0  0  0  0  0  0  0  0  0
   36.5080   28.1570   33.2210 C   0  0  0  0  0  0  0  0  0  0  0  0
   37.3700   28.0820   32.1970 N   0  0  0  0  0  0  0  0  0  0  0  0
   37.7830   28.7590   30.2100 H   0  0  0  0  0  0  0  0  0  0  0  0
   35.7650   30.1460   30.0540 H   0  0  0  0  0  0  0  0  0  0  0  0
   33.9290   30.4160   31.9950 O   0  0  0  0  0  0  0  0  0  0  0  0
   31.3940   30.9320   32.6970 O   0  0  0  0  0  0  0  0  0  0  0  0
   32.5680   30.0080   32.9350 P   0  0  0  0  0  0  0  0  0  0  0  0
   32.9290   30.1220   34.5990 O   0  0  0  0  0  0  0  0  0  0  0  0
   33.4930   30.9150   34.7420 H   0  0  0  0  0  0  0  0  0  0  0  0
   32.1260   28.3900   32.6680 O   0  0  0  0  0  0  0  0  0  0  0  0
   32.8980   27.8420   32.9570 H   0  0  0  0  0  0  0  0  0  0  0  0
   38.3450   26.8740   36.2690 C   0  0  0  0  0  0  0  0  0  0  0  0
   39.3660   27.2720   36.4720 H   0  0  0  0  0  0  0  0  0  0  0  0
   37.7210   27.1550   37.1280 H   0  0  0  0  0  0  0  0  0  0  0  0
   38.5400   25.3950   36.1510 C   0  0  0  0  0  0  0  0  0  0  0  0
   39.3300   24.7500   35.2300 C   0  0  0  0  0  0  0  0  0  0  0  0
   39.4140   23.3720   35.2420 C   0  0  0  0  0  0  0  0  0  0  0  0
   38.7170   22.6040   36.1630 C   0  0  0  0  0  0  0  0  0  0  0  0
   37.9240   23.2360   37.0890 C   0  0  0  0  0  0  0  0  0  0  0  0
   37.8410   24.6270   37.0740 C   0  0  0  0  0  0  0  0  0  0  0  0
   39.8530   25.3930   34.5320 H   0  0  0  0  0  0  0  0  0  0  0  0
   40.0590   22.9590   34.4810 H   0  0  0  0  0  0  0  0  0  0  0  0
   38.8480   21.5290   36.0920 H   0  0  0  0  0  0  0  0  0  0  0  0
   37.3780   22.6420   37.8100 H   0  0  0  0  0  0  0  0  0  0  0  0
   37.1930   25.0420   37.8390 H   0  0  0  0  0  0  0  0  0  0  0  0
  1  2  2  0  0  0  0
  2 18  1  0  0  0  0
  3  8  1  0  0  0  0
  4  3  2  0  0  0  0
  4  5  1  0  0  0  0
  5  6  2  0  0  0  0
  6  7  1  0  0  0  0
  7  1  1  0  0  0  0
  8  7  2  0  0  0  0
  9  3  1  0  0  0  0
 10  4  1  0  0  0  0
 11  5  1  0  0  0  0
 11 13  1  0  0  0  0
 12 13  2  0  0  0  0
 13 14  1  0  0  0  0
 14 15  1  0  0  0  0
 16 13  1  0  0  0  0
 16 17  1  0  0  0  0
 18 19  1  0  0  0  0
 18 20  1  0  0  0  0
 21 18  1  0  0  0  0
 21 26  1  0  0  0  0
 22 23  1  0  0  0  0
 22 21  2  0  0  0  0
 23 24  2  0  0  0  0
 24 25  1  0  0  0  0
 25 30  1  0  0  0  0
 26 25  2  0  0  0  0
 26 31  1  0  0  0  0
 27 22  1  0  0  0  0
 28 23  1  0  0  0  0
 29 24  1  0  0  0  0
M  END
>  <minimizedAffinity>
-4.87518501

$$$$

 OpenBabel03272509063D

 31 32  0  0  0  0  0  0  0  0999 V2000
   37.8540   24.5160   32.1690 C   0  0  0  0  0  3  0  0  0  0  0  0
   36.6540   24.0200   32.0440 C   0  0  0  0  0  3  0  0  0  0  0  0
   37.3600   26.9250   34.8760 C   0  0  0  0  0  0  0  0  0  0  0  0
   38.7140   27.1720   35.2700 C   0  0  0  0  0  0  0  0  0  0  0  0
   39.7670   26.4940   34.5820 C   0  0  0  0  0  0  0  0  0  0  0  0
   39.3800   25.6510   33.5860 N   0  0  0  0  0  0  0  0  0  0  0  0
   38.0960   25.4480   33.2460 C   0  0  0  0  0  0  0  0  0  0  0  0
   37.0920   26.0720   33.8790 N   0  0  0  0  0  0  0  0  0  0  0  0
   36.6040   27.4630   35.4290 H   0  0  0  0  0  0  0  0  0  0  0  0
   38.9370   27.8610   36.0770 H   0  0  0  0  0  0  0  0  0  0  0  0
   41.0710   26.7030   34.9290 O   0  0  0  0  0  0  0  0  0  0  0  0
   42.8430   25.3180   33.4700 O   0  0  0  0  0  0  0  0  0  0  0  0
   42.2780   26.6990   33.7280 P   0  0  0  0  0  0  0  0  0  0  0  0
   43.6010   27.6680   34.2020 O   0  0  0  0  0  0  0  0  0  0  0  0
   43.7630   27.5270   35.1620 H   0  0  0  0  0  0  0  0  0  0  0  0
   41.6910   27.3880   32.2920 O   0  0  0  0  0  0  0  0  0  0  0  0
   41.4530   28.3240   32.5130 H   0  0  0  0  0  0  0  0  0  0  0  0
   36.1600   23.0680   31.0320 C   0  0  0  0  0  0  0  0  0  0  0  0
   35.1310   23.4020   30.7620 H   0  0  0  0  0  0  0  0  0  0  0  0
   36.7530   23.1010   30.1080 H   0  0  0  0  0  0  0  0  0  0  0  0
   35.9750   21.6790   31.5570 C   0  0  0  0  0  0  0  0  0  0  0  0
   36.0250   20.5190   30.8230 C   0  0  0  0  0  0  0  0  0  0  0  0
   35.8340   19.3030   31.4480 C   0  0  0  0  0  0  0  0  0  0  0  0
   35.5900   19.2090   32.8100 C   0  0  0  0  0  0  0  0  0  0  0  0
   35.5380   20.3620   33.5550 C   0  0  0  0  0  0  0  0  0  0  0  0
   35.7300   21.5880   32.9210 C   0  0  0  0  0  0  0  0  0  0  0  0
   36.2170   20.6440   29.7640 H   0  0  0  0  0  0  0  0  0  0  0  0
   35.8920   18.4500   30.7880 H   0  0  0  0  0  0  0  0  0  0  0  0
   35.4540   18.2090   33.2090 H   0  0  0  0  0  0  0  0  0  0  0  0
   35.3480   20.2950   34.6190 H   0  0  0  0  0  0  0  0  0  0  0  0
   35.6720   22.4450   33.5850 H   0  0  0  0  0  0  0  0  0  0  0  0
  1  7  1  0  0  0  0
  2  1  2  0  0  0  0
  3  4  1  0  0  0  0
  3  9  1  0  0  0  0
  4 10  1  0  0  0  0
  5 11  1  0  0  0  0
  5  4  2  0  0  0  0
  6  5  1  0  0  0  0
  7  6  2  0  0  0  0
  7  8  1  0  0  0  0
  8  3  2  0  0  0  0
 12 13  2  0  0  0  0
 13 14  1  0  0  0  0
 13 11  1  0  0  0  0
 14 15  1  0  0  0  0
 16 17  1  0  0  0  0
 16 13  1  0  0  0  0
 18 21  1  0  0  0  0
 18  2  1  0  0  0  0
 19 18  1  0  0  0  0
 20 18  1  0  0  0  0
 21 26  1  0  0  0  0
 22 23  1  0  0  0  0
 22 21  2  0  0  0  0
 23 24  2  0  0  0  0
 24 29  1  0  0  0  0
 24 25  1  0  0  0  0
 25 30  1  0  0  0  0
 26 25  2  0  0  0  0
 26 31  1  0  0  0  0
 27 22  1  0  0  0  0
 28 23  1  0  0  0  0
M  END
>  <minimizedAffinity>
-4.8704772

$$$$
