
     RDKit          3D

 33 34  0  0  0  0  0  0  0  0999 V2000
   38.1119   31.8779   47.4139 C   0  0  0  0  0  0  0  0  0  0  0  0
   38.5936   32.7985   48.3171 C   0  0  0  0  0  0  0  0  0  0  0  0
   38.0758   32.8678   49.6195 C   0  0  0  0  0  0  0  0  0  0  0  0
   37.0219   31.9429   49.9864 C   0  0  0  0  0  0  0  0  0  0  0  0
   36.6039   31.0687   49.0439 C   0  0  0  0  0  0  0  0  0  0  0  0
   37.0955   30.9994   47.7917 C   0  0  0  0  0  0  0  0  0  0  0  0
   40.0008   31.2576   45.9919 C   0  0  0  0  0  0  0  0  0  0  0  0
   38.7478   31.9062   46.1199 C   0  0  0  0  0  0  0  0  0  0  0  0
   38.2901   32.4871   44.9634 C   0  0  0  0  0  0  0  0  0  0  0  0
   38.9950   32.4269   43.8252 N   0  0  0  0  0  0  0  0  0  0  0  0
   40.1557   31.8215   43.7225 C   0  0  0  0  0  0  0  0  0  0  0  0
   40.6488   31.2424   44.8050 N   0  0  0  0  0  0  0  0  0  0  0  0
   35.1571   29.9679   46.9443 C   0  0  0  0  0  0  0  0  0  0  0  0
   34.5207   30.6332   47.8538 O   0  0  0  0  0  0  0  0  0  0  0  0
   36.6015   30.1053   46.8732 N   0  0  0  0  0  0  0  0  0  0  0  0
   34.4590   29.1598   46.0848 O   0  0  0  0  0  0  0  0  0  0  0  0
   33.3671   29.5809   45.3273 C   0  0  0  0  0  0  0  0  0  0  0  0
   33.3628   30.7269   44.6843 O   0  0  0  0  0  0  0  0  0  0  0  0
   39.3840   33.5048   48.0724 H   0  0  0  0  0  0  0  0  0  0  0  0
   38.4883   33.6097   50.2898 H   0  0  0  0  0  0  0  0  0  0  0  0
   36.7283   32.1154   51.0110 H   0  0  0  0  0  0  0  0  0  0  0  0
   35.8516   30.4698   49.5326 H   0  0  0  0  0  0  0  0  0  0  0  0
   40.4698   30.7572   46.8458 H   0  0  0  0  0  0  0  0  0  0  0  0
   37.3250   32.9863   45.0641 H   0  0  0  0  0  0  0  0  0  0  0  0
   40.6565   31.8221   42.7616 H   0  0  0  0  0  0  0  0  0  0  0  0
   37.1779   29.5690   46.1892 H   0  0  0  0  0  0  0  0  0  0  0  0
   30.0598   27.7259   46.1381 O   0  0  0  0  0  0  0  0  0  0  0  0
   30.9973   28.9045   46.3526 P   0  0  0  0  0  0  0  0  0  0  0  0
   31.7729   28.5922   47.8435 O   0  0  0  0  0  0  0  0  0  0  0  0
   30.0718   30.2931   46.4237 O   0  0  0  0  0  0  0  0  0  0  0  0
   32.1657   28.9281   45.0917 O   0  0  0  0  0  0  0  0  0  0  0  0
   31.0927   28.3326   48.5070 H   0  0  0  0  0  0  0  0  0  0  0  0
   30.5425   31.0957   46.7275 H   0  0  0  0  0  0  0  0  0  0  0  0
  1  6  1  0
  1  2  2  0
  2  3  1  0
  3  4  2  0
  5  4  1  0
  6  5  2  0
  7  8  2  0
  8  1  1  0
  9  8  1  0
 10  9  2  0
 11 10  1  0
 11 12  2  0
 12  7  1  0
 13 14  2  0
 15 13  1  0
 15  6  1  0
 16 13  1  0
 17 16  1  0
 18 17  2  0
  2 19  1  0
  3 20  1  0
  4 21  1  0
  5 22  1  0
  7 23  1  0
  9 24  1  0
 11 25  1  0
 15 26  1  0
 27 28  2  0
 28 29  1  0
 28 30  1  0
 28 31  1  0
 29 32  1  0
 30 33  1  0
 17 31  1  0
M  ISO  7  19  14  20  14  21  14  22  14  23  14  24  14  25  14
M  END
>  <DihAtoms>  (1) 
15,16,30,27

>  <DihDeg>  (1) 
-178.9887348158723

$$$$
