
 OpenBabel03272505233D

 33 35  0  0  0  0  0  0  0  0999 V2000
   38.2230   27.1260   33.2040 Br  0  0  0  0  0  0  0  0  0  0  0  0
   37.0230   25.9280   32.3160 C   0  0  0  0  0  0  0  0  0  0  0  0
   36.0260   26.4270   31.4960 C   0  0  0  0  0  0  0  0  0  0  0  0
   35.1840   25.5070   30.8660 C   0  0  0  0  0  0  0  0  0  0  0  0
   35.3600   24.1590   31.0710 C   0  0  0  0  0  0  0  0  0  0  0  0
   36.3670   23.6620   31.8990 C   0  0  0  0  0  0  0  0  0  0  0  0
   37.1910   24.5690   32.5150 C   0  0  0  0  0  0  0  0  0  0  0  0
   34.4200   25.9400   30.2350 H   0  0  0  0  0  0  0  0  0  0  0  0
   34.6700   23.5100   30.5490 H   0  0  0  0  0  0  0  0  0  0  0  0
   36.4750   22.6050   32.0360 H   0  0  0  0  0  0  0  0  0  0  0  0
   36.5090   29.9580   30.2660 C   0  0  0  0  0  0  0  0  0  0  0  0
   36.6190   28.5750   30.3900 C   0  0  0  0  0  0  0  0  0  0  0  0
   35.9400   27.8690   31.3500 C   0  0  0  0  0  0  0  0  0  0  0  0
   35.1390   28.6050   32.1890 N   0  0  0  0  0  0  0  0  0  0  0  0
   35.0300   29.9480   32.0730 C   0  0  0  0  0  0  0  0  0  0  0  0
   35.7010   30.6220   31.1270 N   0  0  0  0  0  0  0  0  0  0  0  0
   37.0420   30.5230   29.5090 H   0  0  0  0  0  0  0  0  0  0  0  0
   37.2890   28.1340   29.6850 H   0  0  0  0  0  0  0  0  0  0  0  0
   34.3760   30.4780   32.7710 H   0  0  0  0  0  0  0  0  0  0  0  0
   38.2530   24.0950   33.3910 C   0  0  0  0  0  0  0  0  0  0  0  0
   39.4600   23.5850   33.0100 C   0  0  0  0  0  0  0  0  0  0  0  0
   40.1870   23.2520   34.0860 N   0  0  0  0  0  0  0  0  0  0  0  0
   39.4560   23.5430   35.1640 C   0  0  0  0  0  0  0  0  0  0  0  0
   38.2740   24.0590   34.7660 N   0  0  0  0  0  0  0  0  0  0  0  0
   39.8190   23.4520   31.9920 H   0  0  0  0  0  0  0  0  0  0  0  0
   41.1440   22.8400   34.1320 H   0  0  0  0  0  0  0  0  0  0  0  0
   39.7070   23.4080   36.5240 O   0  0  0  0  0  0  0  0  0  0  0  0
   37.9710   24.8010   37.8590 O   0  0  0  0  0  0  0  0  0  0  0  0
   38.3680   23.3740   37.6210 P   0  0  0  0  0  0  0  0  0  0  0  0
   38.7730   22.6300   39.0600 O   0  0  0  0  0  0  0  0  0  0  0  0
   39.4190   21.9080   38.9900 H   0  0  0  0  0  0  0  0  0  0  0  0
   37.1410   22.4850   36.8880 O   0  0  0  0  0  0  0  0  0  0  0  0
   37.4890   21.9520   36.1410 H   0  0  0  0  0  0  0  0  0  0  0  0
  2  7  1  0  0  0  0
  2  1  1  0  0  0  0
  3  2  2  0  0  0  0
  4  5  2  0  0  0  0
  4  3  1  0  0  0  0
  5  6  1  0  0  0  0
  6 10  1  0  0  0  0
  6  7  2  0  0  0  0
  7 20  1  0  0  0  0
  8  4  1  0  0  0  0
  9  5  1  0  0  0  0
 11 12  2  0  0  0  0
 11 16  1  0  0  0  0
 12 13  1  0  0  0  0
 13  3  1  0  0  0  0
 13 14  2  0  0  0  0
 15 14  1  0  0  0  0
 15 19  1  0  0  0  0
 16 15  2  0  0  0  0
 17 11  1  0  0  0  0
 18 12  1  0  0  0  0
 20 24  1  0  0  0  0
 21 20  2  0  0  0  0
 21 22  1  0  0  0  0
 22 26  1  0  0  0  0
 22 23  1  0  0  0  0
 23 27  1  0  0  0  0
 24 23  2  0  0  0  0
 25 21  1  0  0  0  0
 27 29  1  0  0  0  0
 29 28  2  0  0  0  0
 29 30  1  0  0  0  0
 31 30  1  0  0  0  0
 32 29  1  0  0  0  0
 33 32  1  0  0  0  0
M  END
>  <minimizedAffinity>
-5.87413168

$$$$

 OpenBabel03272505233D

 33 35  0  0  0  0  0  0  0  0999 V2000
   38.4950   27.0780   32.8500 Br  0  0  0  0  0  0  0  0  0  0  0  0
   37.1520   25.9270   32.1190 C   0  0  0  0  0  0  0  0  0  0  0  0
   36.1800   26.4420   31.2790 C   0  0  0  0  0  0  0  0  0  0  0  0
   35.2300   25.5550   30.7670 C   0  0  0  0  0  0  0  0  0  0  0  0
   35.2800   24.2230   31.1010 C   0  0  0  0  0  0  0  0  0  0  0  0
   36.2620   23.7090   31.9490 C   0  0  0  0  0  0  0  0  0  0  0  0
   37.1930   24.5840   32.4480 C   0  0  0  0  0  0  0  0  0  0  0  0
   34.4890   25.9990   30.1160 H   0  0  0  0  0  0  0  0  0  0  0  0
   34.5110   23.5990   30.6660 H   0  0  0  0  0  0  0  0  0  0  0  0
   36.2710   22.6650   32.1880 H   0  0  0  0  0  0  0  0  0  0  0  0
   35.6760   30.1730   31.4630 C   0  0  0  0  0  0  0  0  0  0  0  0
   35.6020   28.8140   31.7560 C   0  0  0  0  0  0  0  0  0  0  0  0
   36.2300   27.8650   30.9910 C   0  0  0  0  0  0  0  0  0  0  0  0
   36.9400   28.3300   29.9120 N   0  0  0  0  0  0  0  0  0  0  0  0
   37.0130   29.6490   29.6230 C   0  0  0  0  0  0  0  0  0  0  0  0
   36.3930   30.5640   30.3830 N   0  0  0  0  0  0  0  0  0  0  0  0
   35.1830   30.9300   32.0640 H   0  0  0  0  0  0  0  0  0  0  0  0
   35.0020   28.5920   32.6120 H   0  0  0  0  0  0  0  0  0  0  0  0
   37.5940   29.9580   28.7500 H   0  0  0  0  0  0  0  0  0  0  0  0
   38.2350   24.0930   33.3390 C   0  0  0  0  0  0  0  0  0  0  0  0
   39.3840   23.4530   32.9770 C   0  0  0  0  0  0  0  0  0  0  0  0
   40.1100   23.1460   34.0630 N   0  0  0  0  0  0  0  0  0  0  0  0
   39.4340   23.5830   35.1280 C   0  0  0  0  0  0  0  0  0  0  0  0
   38.2890   24.1640   34.7120 N   0  0  0  0  0  0  0  0  0  0  0  0
   39.7050   23.2090   31.9670 H   0  0  0  0  0  0  0  0  0  0  0  0
   41.0300   22.6590   34.1230 H   0  0  0  0  0  0  0  0  0  0  0  0
   39.7090   23.5360   36.4890 O   0  0  0  0  0  0  0  0  0  0  0  0
   37.9490   24.8120   37.9070 O   0  0  0  0  0  0  0  0  0  0  0  0
   38.3890   23.4110   37.6030 P   0  0  0  0  0  0  0  0  0  0  0  0
   38.8420   22.6210   39.0030 O   0  0  0  0  0  0  0  0  0  0  0  0
   39.5100   21.9250   38.8930 H   0  0  0  0  0  0  0  0  0  0  0  0
   37.1800   22.5120   36.8510 O   0  0  0  0  0  0  0  0  0  0  0  0
   37.5340   22.0240   36.0770 H   0  0  0  0  0  0  0  0  0  0  0  0
  2  7  1  0  0  0  0
  2  1  1  0  0  0  0
  3  2  2  0  0  0  0
  4  5  2  0  0  0  0
  4  3  1  0  0  0  0
  5  6  1  0  0  0  0
  6 10  1  0  0  0  0
  6  7  2  0  0  0  0
  7 20  1  0  0  0  0
  8  4  1  0  0  0  0
  9  5  1  0  0  0  0
 11 12  1  0  0  0  0
 11 17  1  0  0  0  0
 12 18  1  0  0  0  0
 13  3  1  0  0  0  0
 13 12  2  0  0  0  0
 14 13  1  0  0  0  0
 15 14  2  0  0  0  0
 15 16  1  0  0  0  0
 16 11  2  0  0  0  0
 19 15  1  0  0  0  0
 20 24  1  0  0  0  0
 21 20  2  0  0  0  0
 21 22  1  0  0  0  0
 22 26  1  0  0  0  0
 22 23  1  0  0  0  0
 23 27  1  0  0  0  0
 24 23  2  0  0  0  0
 25 21  1  0  0  0  0
 27 29  1  0  0  0  0
 29 28  2  0  0  0  0
 29 30  1  0  0  0  0
 31 30  1  0  0  0  0
 32 29  1  0  0  0  0
 33 32  1  0  0  0  0
M  END
>  <minimizedAffinity>
-5.77370167

$$$$

 OpenBabel03272505233D

 33 35  0  0  0  0  0  0  0  0999 V2000
   38.2090   26.7790   32.0470 Br  0  0  0  0  0  0  0  0  0  0  0  0
   40.0710   27.0560   32.3870 C   0  0  0  0  0  0  0  0  0  0  0  0
   40.9060   27.4820   31.3680 C   0  0  0  0  0  0  0  0  0  0  0  0
   42.2560   27.6760   31.6740 C   0  0  0  0  0  0  0  0  0  0  0  0
   42.7140   27.4450   32.9500 C   0  0  0  0  0  0  0  0  0  0  0  0
   41.8680   27.0160   33.9730 C   0  0  0  0  0  0  0  0  0  0  0  0
   40.5440   26.8260   33.6670 C   0  0  0  0  0  0  0  0  0  0  0  0
   42.8710   28.0090   30.8500 H   0  0  0  0  0  0  0  0  0  0  0  0
   43.7690   27.6180   33.1090 H   0  0  0  0  0  0  0  0  0  0  0  0
   42.2580   26.8450   34.9550 H   0  0  0  0  0  0  0  0  0  0  0  0
   39.7900   27.0210   27.7970 C   0  0  0  0  0  0  0  0  0  0  0  0
   40.3810   26.7910   29.0360 C   0  0  0  0  0  0  0  0  0  0  0  0
   40.3100   27.6990   30.0620 C   0  0  0  0  0  0  0  0  0  0  0  0
   39.6200   28.8570   29.7990 N   0  0  0  0  0  0  0  0  0  0  0  0
   39.0460   29.0850   28.5950 C   0  0  0  0  0  0  0  0  0  0  0  0
   39.1250   28.1850   27.6040 N   0  0  0  0  0  0  0  0  0  0  0  0
   39.8400   26.3080   26.9820 H   0  0  0  0  0  0  0  0  0  0  0  0
   40.9000   25.8590   29.0970 H   0  0  0  0  0  0  0  0  0  0  0  0
   38.5100   30.0270   28.4460 H   0  0  0  0  0  0  0  0  0  0  0  0
   39.6250   26.3750   34.7030 C   0  0  0  0  0  0  0  0  0  0  0  0
   38.9490   27.1580   35.5930 C   0  0  0  0  0  0  0  0  0  0  0  0
   38.1920   26.4000   36.4010 N   0  0  0  0  0  0  0  0  0  0  0  0
   38.3760   25.1290   36.0380 C   0  0  0  0  0  0  0  0  0  0  0  0
   39.2440   25.0880   35.0050 N   0  0  0  0  0  0  0  0  0  0  0  0
   38.9890   28.2420   35.6690 H   0  0  0  0  0  0  0  0  0  0  0  0
   37.5630   26.6940   37.1790 H   0  0  0  0  0  0  0  0  0  0  0  0
   37.8500   23.9380   36.5230 O   0  0  0  0  0  0  0  0  0  0  0  0
   38.1030   24.7440   38.9770 O   0  0  0  0  0  0  0  0  0  0  0  0
   38.1760   23.4870   38.1630 P   0  0  0  0  0  0  0  0  0  0  0  0
   39.6790   22.7760   38.3160 O   0  0  0  0  0  0  0  0  0  0  0  0
   39.9730   22.2510   37.5530 H   0  0  0  0  0  0  0  0  0  0  0  0
   37.0070   22.3640   38.6170 O   0  0  0  0  0  0  0  0  0  0  0  0
   36.5520   21.9910   37.8310 H   0  0  0  0  0  0  0  0  0  0  0  0
  1  2  1  0  0  0  0
  2  7  1  0  0  0  0
  3  4  1  0  0  0  0
  3  2  2  0  0  0  0
  4  5  2  0  0  0  0
  5  9  1  0  0  0  0
  5  6  1  0  0  0  0
  6 10  1  0  0  0  0
  7  6  2  0  0  0  0
  7 20  1  0  0  0  0
  8  4  1  0  0  0  0
 11 12  1  0  0  0  0
 12 18  1  0  0  0  0
 12 13  2  0  0  0  0
 13  3  1  0  0  0  0
 14 13  1  0  0  0  0
 15 14  2  0  0  0  0
 16 11  2  0  0  0  0
 16 15  1  0  0  0  0
 17 11  1  0  0  0  0
 19 15  1  0  0  0  0
 20 24  1  0  0  0  0
 20 21  2  0  0  0  0
 21 25  1  0  0  0  0
 21 22  1  0  0  0  0
 22 26  1  0  0  0  0
 23 22  1  0  0  0  0
 23 27  1  0  0  0  0
 24 23  2  0  0  0  0
 27 29  1  0  0  0  0
 29 30  1  0  0  0  0
 29 32  1  0  0  0  0
 29 28  2  0  0  0  0
 31 30  1  0  0  0  0
 33 32  1  0  0  0  0
M  END
>  <minimizedAffinity>
-5.5617938

$$$$

 OpenBabel03272505233D

 33 35  0  0  0  0  0  0  0  0999 V2000
   39.9450   25.8410   31.9040 Br  0  0  0  0  0  0  0  0  0  0  0  0
   39.0690   26.5680   33.4420 C   0  0  0  0  0  0  0  0  0  0  0  0
   39.5920   26.3520   34.7050 C   0  0  0  0  0  0  0  0  0  0  0  0
   38.9160   26.9140   35.7920 C   0  0  0  0  0  0  0  0  0  0  0  0
   37.7740   27.6500   35.5870 C   0  0  0  0  0  0  0  0  0  0  0  0
   37.2500   27.8640   34.3110 C   0  0  0  0  0  0  0  0  0  0  0  0
   37.9180   27.3110   33.2480 C   0  0  0  0  0  0  0  0  0  0  0  0
   39.3590   26.7200   36.7590 H   0  0  0  0  0  0  0  0  0  0  0  0
   37.3070   28.0520   36.4760 H   0  0  0  0  0  0  0  0  0  0  0  0
   36.3580   28.4420   34.1880 H   0  0  0  0  0  0  0  0  0  0  0  0
   43.2160   25.3150   34.7690 C   0  0  0  0  0  0  0  0  0  0  0  0
   42.0660   26.0930   34.6620 C   0  0  0  0  0  0  0  0  0  0  0  0
   40.8080   25.5640   34.7990 C   0  0  0  0  0  0  0  0  0  0  0  0
   40.7420   24.2150   35.0480 N   0  0  0  0  0  0  0  0  0  0  0  0
   41.8570   23.4550   35.1510 C   0  0  0  0  0  0  0  0  0  0  0  0
   43.0800   23.9900   35.0150 N   0  0  0  0  0  0  0  0  0  0  0  0
   44.2140   25.7260   34.6630 H   0  0  0  0  0  0  0  0  0  0  0  0
   42.2630   27.1210   34.4490 H   0  0  0  0  0  0  0  0  0  0  0  0
   41.7400   22.3860   35.3500 H   0  0  0  0  0  0  0  0  0  0  0  0
   37.4060   27.5060   31.8990 C   0  0  0  0  0  0  0  0  0  0  0  0
   36.4340   26.7740   31.2800 C   0  0  0  0  0  0  0  0  0  0  0  0
   36.2180   27.2380   30.0400 N   0  0  0  0  0  0  0  0  0  0  0  0
   37.0480   28.2670   29.8520 C   0  0  0  0  0  0  0  0  0  0  0  0
   37.7810   28.4490   30.9710 N   0  0  0  0  0  0  0  0  0  0  0  0
   35.8880   25.9310   31.6960 H   0  0  0  0  0  0  0  0  0  0  0  0
   35.5460   26.8990   29.3190 H   0  0  0  0  0  0  0  0  0  0  0  0
   37.2530   29.1110   28.7680 O   0  0  0  0  0  0  0  0  0  0  0  0
   39.2150   27.7930   27.6950 O   0  0  0  0  0  0  0  0  0  0  0  0
   38.8330   29.1950   28.0630 P   0  0  0  0  0  0  0  0  0  0  0  0
   39.9440   29.8460   29.1260 O   0  0  0  0  0  0  0  0  0  0  0  0
   39.5970   30.5220   29.7320 H   0  0  0  0  0  0  0  0  0  0  0  0
   38.7290   30.2020   26.7180 O   0  0  0  0  0  0  0  0  0  0  0  0
   37.9070   30.7380   26.7410 H   0  0  0  0  0  0  0  0  0  0  0  0
  1  2  1  0  0  0  0
  2  3  1  0  0  0  0
  3 13  1  0  0  0  0
  3  4  2  0  0  0  0
  4  8  1  0  0  0  0
  5  4  1  0  0  0  0
  5  9  1  0  0  0  0
  6  5  2  0  0  0  0
  7  2  2  0  0  0  0
  7  6  1  0  0  0  0
 10  6  1  0  0  0  0
 11 16  1  0  0  0  0
 12 11  2  0  0  0  0
 12 13  1  0  0  0  0
 13 14  2  0  0  0  0
 14 15  1  0  0  0  0
 15 19  1  0  0  0  0
 16 15  2  0  0  0  0
 17 11  1  0  0  0  0
 18 12  1  0  0  0  0
 20  7  1  0  0  0  0
 21 25  1  0  0  0  0
 21 20  2  0  0  0  0
 22 21  1  0  0  0  0
 23 22  1  0  0  0  0
 23 24  2  0  0  0  0
 24 20  1  0  0  0  0
 26 22  1  0  0  0  0
 27 23  1  0  0  0  0
 28 29  2  0  0  0  0
 29 27  1  0  0  0  0
 29 30  1  0  0  0  0
 30 31  1  0  0  0  0
 32 33  1  0  0  0  0
 32 29  1  0  0  0  0
M  END
>  <minimizedAffinity>
-5.26160955

$$$$

 OpenBabel03272505233D

 33 35  0  0  0  0  0  0  0  0999 V2000
   39.9890   26.2230   31.8060 Br  0  0  0  0  0  0  0  0  0  0  0  0
   38.9790   26.8340   33.3120 C   0  0  0  0  0  0  0  0  0  0  0  0
   39.4180   26.5650   34.5970 C   0  0  0  0  0  0  0  0  0  0  0  0
   38.6450   27.0430   35.6600 C   0  0  0  0  0  0  0  0  0  0  0  0
   37.4940   27.7500   35.4110 C   0  0  0  0  0  0  0  0  0  0  0  0
   37.0550   28.0180   34.1140 C   0  0  0  0  0  0  0  0  0  0  0  0
   37.8170   27.5470   33.0740 C   0  0  0  0  0  0  0  0  0  0  0  0
   39.0250   26.8100   36.6450 H   0  0  0  0  0  0  0  0  0  0  0  0
   36.9500   28.0860   36.2830 H   0  0  0  0  0  0  0  0  0  0  0  0
   36.1530   28.5720   33.9560 H   0  0  0  0  0  0  0  0  0  0  0  0
   41.8930   23.7770   35.1510 C   0  0  0  0  0  0  0  0  0  0  0  0
   40.6950   24.4750   35.0330 C   0  0  0  0  0  0  0  0  0  0  0  0
   40.6530   25.8140   34.7380 C   0  0  0  0  0  0  0  0  0  0  0  0
   41.8660   26.4340   34.5660 N   0  0  0  0  0  0  0  0  0  0  0  0
   43.0320   25.7600   34.6820 C   0  0  0  0  0  0  0  0  0  0  0  0
   43.0550   24.4500   34.9690 N   0  0  0  0  0  0  0  0  0  0  0  0
   41.9350   22.7180   35.3820 H   0  0  0  0  0  0  0  0  0  0  0  0
   39.8290   23.8740   35.2090 H   0  0  0  0  0  0  0  0  0  0  0  0
   43.9670   26.3090   34.5340 H   0  0  0  0  0  0  0  0  0  0  0  0
   37.3960   27.8000   31.7040 C   0  0  0  0  0  0  0  0  0  0  0  0
   36.4870   27.0810   30.9820 C   0  0  0  0  0  0  0  0  0  0  0  0
   36.3470   27.6030   29.7550 N   0  0  0  0  0  0  0  0  0  0  0  0
   37.1630   28.6560   29.6760 C   0  0  0  0  0  0  0  0  0  0  0  0
   37.8120   28.7960   30.8520 N   0  0  0  0  0  0  0  0  0  0  0  0
   35.9330   26.2070   31.3170 H   0  0  0  0  0  0  0  0  0  0  0  0
   35.7350   27.2880   28.9720 H   0  0  0  0  0  0  0  0  0  0  0  0
   37.4240   29.5580   28.6520 O   0  0  0  0  0  0  0  0  0  0  0  0
   38.3850   31.8500   29.4000 O   0  0  0  0  0  0  0  0  0  0  0  0
   37.1040   31.2390   28.9180 P   0  0  0  0  0  0  0  0  0  0  0  0
   35.8890   31.4610   30.0420 O   0  0  0  0  0  0  0  0  0  0  0  0
   35.1940   30.7820   30.0470 H   0  0  0  0  0  0  0  0  0  0  0  0
   36.5980   31.8920   27.4510 O   0  0  0  0  0  0  0  0  0  0  0  0
   36.3320   31.1850   26.8240 H   0  0  0  0  0  0  0  0  0  0  0  0
  1  2  1  0  0  0  0
  2  3  1  0  0  0  0
  3 13  1  0  0  0  0
  3  4  2  0  0  0  0
  4  8  1  0  0  0  0
  5  4  1  0  0  0  0
  5  9  1  0  0  0  0
  6  5  2  0  0  0  0
  7  2  2  0  0  0  0
  7  6  1  0  0  0  0
 10  6  1  0  0  0  0
 11 17  1  0  0  0  0
 12 11  1  0  0  0  0
 12 18  1  0  0  0  0
 13 12  2  0  0  0  0
 14 15  2  0  0  0  0
 14 13  1  0  0  0  0
 15 16  1  0  0  0  0
 16 11  2  0  0  0  0
 19 15  1  0  0  0  0
 20  7  1  0  0  0  0
 21 25  1  0  0  0  0
 21 20  2  0  0  0  0
 22 21  1  0  0  0  0
 23 22  1  0  0  0  0
 23 24  2  0  0  0  0
 24 20  1  0  0  0  0
 26 22  1  0  0  0  0
 27 29  1  0  0  0  0
 27 23  1  0  0  0  0
 29 28  2  0  0  0  0
 29 30  1  0  0  0  0
 30 31  1  0  0  0  0
 32 29  1  0  0  0  0
 33 32  1  0  0  0  0
M  END
>  <minimizedAffinity>
-5.23294544

$$$$

 OpenBabel03272505233D

 33 35  0  0  0  0  0  0  0  0999 V2000
   36.6210   28.1160   34.7170 Br  0  0  0  0  0  0  0  0  0  0  0  0
   37.1210   28.0100   32.8730 C   0  0  0  0  0  0  0  0  0  0  0  0
   36.4910   28.8120   31.9370 C   0  0  0  0  0  0  0  0  0  0  0  0
   36.9020   28.7000   30.6060 C   0  0  0  0  0  0  0  0  0  0  0  0
   37.8980   27.8170   30.2630 C   0  0  0  0  0  0  0  0  0  0  0  0
   38.5300   27.0110   31.2110 C   0  0  0  0  0  0  0  0  0  0  0  0
   38.1230   27.1250   32.5160 C   0  0  0  0  0  0  0  0  0  0  0  0
   36.3830   29.3440   29.9090 H   0  0  0  0  0  0  0  0  0  0  0  0
   38.1610   27.7870   29.2150 H   0  0  0  0  0  0  0  0  0  0  0  0
   39.3030   26.3340   30.9100 H   0  0  0  0  0  0  0  0  0  0  0  0
   33.1700   30.2300   33.0190 C   0  0  0  0  0  0  0  0  0  0  0  0
   34.1400   29.3500   32.5470 C   0  0  0  0  0  0  0  0  0  0  0  0
   35.4560   29.7120   32.4150 C   0  0  0  0  0  0  0  0  0  0  0  0
   35.7690   30.9990   32.7750 N   0  0  0  0  0  0  0  0  0  0  0  0
   34.8290   31.8580   33.2330 C   0  0  0  0  0  0  0  0  0  0  0  0
   33.5460   31.4860   33.3570 N   0  0  0  0  0  0  0  0  0  0  0  0
   32.1270   29.9500   33.1270 H   0  0  0  0  0  0  0  0  0  0  0  0
   33.7550   28.3870   32.2870 H   0  0  0  0  0  0  0  0  0  0  0  0
   35.1400   32.8710   33.5040 H   0  0  0  0  0  0  0  0  0  0  0  0
   38.7520   26.3010   33.5390 C   0  0  0  0  0  0  0  0  0  0  0  0
   39.8500   26.6210   34.2850 C   0  0  0  0  0  0  0  0  0  0  0  0
   40.1480   25.6220   35.1290 N   0  0  0  0  0  0  0  0  0  0  0  0
   39.2480   24.6560   34.9330 C   0  0  0  0  0  0  0  0  0  0  0  0
   38.3870   25.0470   33.9690 N   0  0  0  0  0  0  0  0  0  0  0  0
   40.4270   27.5410   34.2340 H   0  0  0  0  0  0  0  0  0  0  0  0
   40.9210   25.5580   35.8260 H   0  0  0  0  0  0  0  0  0  0  0  0
   39.0760   23.4100   35.5230 O   0  0  0  0  0  0  0  0  0  0  0  0
   38.1070   24.7360   37.5330 O   0  0  0  0  0  0  0  0  0  0  0  0
   38.4150   23.3280   37.1220 P   0  0  0  0  0  0  0  0  0  0  0  0
   39.4870   22.6250   38.1920 O   0  0  0  0  0  0  0  0  0  0  0  0
   40.0590   21.9340   37.8190 H   0  0  0  0  0  0  0  0  0  0  0  0
   37.0330   22.3690   37.0440 O   0  0  0  0  0  0  0  0  0  0  0  0
   37.0140   21.8440   36.2160 H   0  0  0  0  0  0  0  0  0  0  0  0
  2  1  1  0  0  0  0
  3 13  1  0  0  0  0
  3  2  2  0  0  0  0
  4  3  1  0  0  0  0
  5  4  2  0  0  0  0
  5  6  1  0  0  0  0
  6  7  2  0  0  0  0
  7  2  1  0  0  0  0
  7 20  1  0  0  0  0
  8  4  1  0  0  0  0
  9  5  1  0  0  0  0
 10  6  1  0  0  0  0
 11 17  1  0  0  0  0
 11 16  1  0  0  0  0
 12 11  2  0  0  0  0
 13 12  1  0  0  0  0
 13 14  2  0  0  0  0
 14 15  1  0  0  0  0
 15 16  2  0  0  0  0
 15 19  1  0  0  0  0
 18 12  1  0  0  0  0
 20 24  1  0  0  0  0
 20 21  2  0  0  0  0
 21 22  1  0  0  0  0
 22 26  1  0  0  0  0
 23 22  1  0  0  0  0
 23 27  1  0  0  0  0
 24 23  2  0  0  0  0
 25 21  1  0  0  0  0
 27 29  1  0  0  0  0
 29 28  2  0  0  0  0
 29 30  1  0  0  0  0
 31 30  1  0  0  0  0
 32 29  1  0  0  0  0
 33 32  1  0  0  0  0
M  END
>  <minimizedAffinity>
-5.21409655

$$$$

 OpenBabel03272505233D

 33 35  0  0  0  0  0  0  0  0999 V2000
   35.7960   26.2040   30.8090 Br  0  0  0  0  0  0  0  0  0  0  0  0
   36.6840   26.3130   32.5000 C   0  0  0  0  0  0  0  0  0  0  0  0
   36.6940   27.5060   33.2030 C   0  0  0  0  0  0  0  0  0  0  0  0
   37.3500   27.5260   34.4370 C   0  0  0  0  0  0  0  0  0  0  0  0
   37.9570   26.3890   34.9130 C   0  0  0  0  0  0  0  0  0  0  0  0
   37.9440   25.1890   34.2010 C   0  0  0  0  0  0  0  0  0  0  0  0
   37.2990   25.1740   32.9900 C   0  0  0  0  0  0  0  0  0  0  0  0
   37.3340   28.4770   34.9510 H   0  0  0  0  0  0  0  0  0  0  0  0
   38.4440   26.4830   35.8750 H   0  0  0  0  0  0  0  0  0  0  0  0
   38.4270   24.3220   34.6020 H   0  0  0  0  0  0  0  0  0  0  0  0
   35.9130   30.5350   31.0990 C   0  0  0  0  0  0  0  0  0  0  0  0
   36.5920   29.4600   31.6660 C   0  0  0  0  0  0  0  0  0  0  0  0
   36.0150   28.6410   32.6030 C   0  0  0  0  0  0  0  0  0  0  0  0
   34.7220   28.9410   32.9550 N   0  0  0  0  0  0  0  0  0  0  0  0
   34.0600   29.9850   32.4080 C   0  0  0  0  0  0  0  0  0  0  0  0
   34.6390   30.7750   31.4920 N   0  0  0  0  0  0  0  0  0  0  0  0
   36.3620   31.1870   30.3570 H   0  0  0  0  0  0  0  0  0  0  0  0
   37.5960   29.3530   31.3150 H   0  0  0  0  0  0  0  0  0  0  0  0
   33.0310   30.1740   32.7290 H   0  0  0  0  0  0  0  0  0  0  0  0
   37.2630   23.9450   32.2110 C   0  0  0  0  0  0  0  0  0  0  0  0
   38.2550   23.4550   31.4120 C   0  0  0  0  0  0  0  0  0  0  0  0
   37.8730   22.2990   30.8490 N   0  0  0  0  0  0  0  0  0  0  0  0
   36.6360   22.0390   31.2790 C   0  0  0  0  0  0  0  0  0  0  0  0
   36.2440   23.0270   32.1100 N   0  0  0  0  0  0  0  0  0  0  0  0
   39.2280   23.9050   31.2310 H   0  0  0  0  0  0  0  0  0  0  0  0
   38.3980   21.6820   30.1930 H   0  0  0  0  0  0  0  0  0  0  0  0
   35.7630   20.9890   31.0220 O   0  0  0  0  0  0  0  0  0  0  0  0
   36.9180   18.9360   32.1130 O   0  0  0  0  0  0  0  0  0  0  0  0
   35.6340   19.7080   32.1810 P   0  0  0  0  0  0  0  0  0  0  0  0
   34.3330   18.7140   31.8540 O   0  0  0  0  0  0  0  0  0  0  0  0
   33.5610   19.1530   31.4600 H   0  0  0  0  0  0  0  0  0  0  0  0
   35.3970   20.4180   33.6890 O   0  0  0  0  0  0  0  0  0  0  0  0
   35.1180   21.3550   33.5980 H   0  0  0  0  0  0  0  0  0  0  0  0
  1  2  1  0  0  0  0
  2  7  2  0  0  0  0
  2  3  1  0  0  0  0
  3  4  2  0  0  0  0
  4  5  1  0  0  0  0
  4  8  1  0  0  0  0
  5  9  1  0  0  0  0
  6 10  1  0  0  0  0
  6  5  2  0  0  0  0
  7  6  1  0  0  0  0
 11 16  2  0  0  0  0
 11 12  1  0  0  0  0
 12 13  2  0  0  0  0
 13 14  1  0  0  0  0
 13  3  1  0  0  0  0
 15 19  1  0  0  0  0
 15 14  2  0  0  0  0
 16 15  1  0  0  0  0
 17 11  1  0  0  0  0
 18 12  1  0  0  0  0
 20  7  1  0  0  0  0
 21 20  2  0  0  0  0
 22 23  1  0  0  0  0
 22 21  1  0  0  0  0
 23 24  2  0  0  0  0
 24 20  1  0  0  0  0
 25 21  1  0  0  0  0
 26 22  1  0  0  0  0
 27 23  1  0  0  0  0
 27 29  1  0  0  0  0
 28 29  2  0  0  0  0
 29 32  1  0  0  0  0
 30 29  1  0  0  0  0
 31 30  1  0  0  0  0
 33 32  1  0  0  0  0
M  END
>  <minimizedAffinity>
-5.18562984

$$$$

 OpenBabel03272505233D

 33 35  0  0  0  0  0  0  0  0999 V2000
   38.9930   25.3560   34.3080 Br  0  0  0  0  0  0  0  0  0  0  0  0
   38.0240   23.8130   33.7240 C   0  0  0  0  0  0  0  0  0  0  0  0
   37.8620   22.7330   34.5740 C   0  0  0  0  0  0  0  0  0  0  0  0
   37.1380   21.6360   34.0990 C   0  0  0  0  0  0  0  0  0  0  0  0
   36.6160   21.6530   32.8270 C   0  0  0  0  0  0  0  0  0  0  0  0
   36.7820   22.7450   31.9740 C   0  0  0  0  0  0  0  0  0  0  0  0
   37.4930   23.8190   32.4460 C   0  0  0  0  0  0  0  0  0  0  0  0
   37.0370   20.8150   34.7950 H   0  0  0  0  0  0  0  0  0  0  0  0
   36.0680   20.7690   32.5310 H   0  0  0  0  0  0  0  0  0  0  0  0
   36.3610   22.7250   30.9900 H   0  0  0  0  0  0  0  0  0  0  0  0
   38.3860   23.4210   38.2430 C   0  0  0  0  0  0  0  0  0  0  0  0
   37.7990   23.3520   36.9830 C   0  0  0  0  0  0  0  0  0  0  0  0
   38.4540   22.8290   35.8970 C   0  0  0  0  0  0  0  0  0  0  0  0
   39.7300   22.3750   36.1210 N   0  0  0  0  0  0  0  0  0  0  0  0
   40.3050   22.4420   37.3430 C   0  0  0  0  0  0  0  0  0  0  0  0
   39.6490   22.9560   38.3940 N   0  0  0  0  0  0  0  0  0  0  0  0
   37.8740   23.8320   39.1060 H   0  0  0  0  0  0  0  0  0  0  0  0
   36.8100   23.7570   36.9470 H   0  0  0  0  0  0  0  0  0  0  0  0
   41.3250   22.0640   37.4590 H   0  0  0  0  0  0  0  0  0  0  0  0
   37.6940   24.9790   31.5890 C   0  0  0  0  0  0  0  0  0  0  0  0
   38.6320   25.1170   30.6070 C   0  0  0  0  0  0  0  0  0  0  0  0
   38.5240   26.3190   30.0230 N   0  0  0  0  0  0  0  0  0  0  0  0
   37.5190   26.9620   30.6230 C   0  0  0  0  0  0  0  0  0  0  0  0
   36.9980   26.1650   31.5790 N   0  0  0  0  0  0  0  0  0  0  0  0
   39.3770   24.3820   30.3090 H   0  0  0  0  0  0  0  0  0  0  0  0
   39.0880   26.7260   29.2460 H   0  0  0  0  0  0  0  0  0  0  0  0
   36.9730   28.2240   30.4260 O   0  0  0  0  0  0  0  0  0  0  0  0
   39.0500   29.6440   29.7890 O   0  0  0  0  0  0  0  0  0  0  0  0
   37.6980   29.2750   29.2560 P   0  0  0  0  0  0  0  0  0  0  0  0
   36.7730   30.6420   29.0040 O   0  0  0  0  0  0  0  0  0  0  0  0
   35.8120   30.5180   29.0820 H   0  0  0  0  0  0  0  0  0  0  0  0
   37.7950   28.4220   27.8070 O   0  0  0  0  0  0  0  0  0  0  0  0
   37.2090   27.6350   27.8220 H   0  0  0  0  0  0  0  0  0  0  0  0
  2  1  1  0  0  0  0
  2  3  1  0  0  0  0
  3 13  1  0  0  0  0
  4  3  2  0  0  0  0
  4  8  1  0  0  0  0
  5  4  1  0  0  0  0
  6  7  1  0  0  0  0
  6  5  2  0  0  0  0
  7  2  2  0  0  0  0
  9  5  1  0  0  0  0
 10  6  1  0  0  0  0
 11 16  1  0  0  0  0
 11 17  1  0  0  0  0
 12 11  2  0  0  0  0
 13 14  2  0  0  0  0
 13 12  1  0  0  0  0
 14 15  1  0  0  0  0
 15 19  1  0  0  0  0
 15 16  2  0  0  0  0
 18 12  1  0  0  0  0
 20  7  1  0  0  0  0
 21 20  2  0  0  0  0
 22 21  1  0  0  0  0
 22 23  1  0  0  0  0
 23 24  2  0  0  0  0
 24 20  1  0  0  0  0
 25 21  1  0  0  0  0
 26 22  1  0  0  0  0
 27 23  1  0  0  0  0
 29 28  2  0  0  0  0
 29 27  1  0  0  0  0
 30 31  1  0  0  0  0
 30 29  1  0  0  0  0
 32 33  1  0  0  0  0
 32 29  1  0  0  0  0
M  END
>  <minimizedAffinity>
-5.13257933

$$$$

 OpenBabel03272505233D

 33 35  0  0  0  0  0  0  0  0999 V2000
   37.8610   27.4860   35.2300 Br  0  0  0  0  0  0  0  0  0  0  0  0
   37.2490   26.6050   33.6460 C   0  0  0  0  0  0  0  0  0  0  0  0
   37.6800   25.3230   33.3540 C   0  0  0  0  0  0  0  0  0  0  0  0
   37.1940   24.7250   32.1880 C   0  0  0  0  0  0  0  0  0  0  0  0
   36.3200   25.4070   31.3760 C   0  0  0  0  0  0  0  0  0  0  0  0
   35.8880   26.7000   31.6750 C   0  0  0  0  0  0  0  0  0  0  0  0
   36.3680   27.2830   32.8200 C   0  0  0  0  0  0  0  0  0  0  0  0
   37.5560   23.7240   31.9990 H   0  0  0  0  0  0  0  0  0  0  0  0
   35.9880   24.8790   30.4920 H   0  0  0  0  0  0  0  0  0  0  0  0
   35.2070   27.2030   31.0190 H   0  0  0  0  0  0  0  0  0  0  0  0
   39.1000   23.3170   36.2120 C   0  0  0  0  0  0  0  0  0  0  0  0
   38.1950   23.9130   35.3370 C   0  0  0  0  0  0  0  0  0  0  0  0
   38.5990   24.6980   34.2880 C   0  0  0  0  0  0  0  0  0  0  0  0
   39.9550   24.8670   34.1450 N   0  0  0  0  0  0  0  0  0  0  0  0
   40.8370   24.2900   34.9930 C   0  0  0  0  0  0  0  0  0  0  0  0
   40.4230   23.5240   36.0140 N   0  0  0  0  0  0  0  0  0  0  0  0
   38.7880   22.6930   37.0430 H   0  0  0  0  0  0  0  0  0  0  0  0
   37.1730   23.7130   35.5760 H   0  0  0  0  0  0  0  0  0  0  0  0
   41.9040   24.4620   34.8280 H   0  0  0  0  0  0  0  0  0  0  0  0
   35.9480   28.6320   33.1700 C   0  0  0  0  0  0  0  0  0  0  0  0
   36.2100   29.7760   32.4730 C   0  0  0  0  0  0  0  0  0  0  0  0
   35.6650   30.8350   33.0910 N   0  0  0  0  0  0  0  0  0  0  0  0
   35.0520   30.3820   34.1870 C   0  0  0  0  0  0  0  0  0  0  0  0
   35.2090   29.0430   34.2560 N   0  0  0  0  0  0  0  0  0  0  0  0
   36.7740   29.8610   31.5470 H   0  0  0  0  0  0  0  0  0  0  0  0
   35.6860   31.8400   32.8150 H   0  0  0  0  0  0  0  0  0  0  0  0
   34.3320   31.0260   35.1850 O   0  0  0  0  0  0  0  0  0  0  0  0
   34.2420   33.6020   35.4930 O   0  0  0  0  0  0  0  0  0  0  0  0
   35.0300   32.4120   35.9540 P   0  0  0  0  0  0  0  0  0  0  0  0
   36.6420   32.5870   35.5570 O   0  0  0  0  0  0  0  0  0  0  0  0
   37.1300   31.7590   35.4130 H   0  0  0  0  0  0  0  0  0  0  0  0
   34.9130   32.1750   37.6170 O   0  0  0  0  0  0  0  0  0  0  0  0
   34.7330   31.2340   37.8270 H   0  0  0  0  0  0  0  0  0  0  0  0
  2  1  1  0  0  0  0
  3  2  1  0  0  0  0
  3 13  1  0  0  0  0
  4  3  2  0  0  0  0
  5  6  2  0  0  0  0
  5  4  1  0  0  0  0
  6  7  1  0  0  0  0
  7 20  1  0  0  0  0
  7  2  2  0  0  0  0
  8  4  1  0  0  0  0
  9  5  1  0  0  0  0
 10  6  1  0  0  0  0
 11 17  1  0  0  0  0
 12 18  1  0  0  0  0
 12 11  2  0  0  0  0
 13 12  1  0  0  0  0
 14 13  2  0  0  0  0
 14 15  1  0  0  0  0
 15 16  2  0  0  0  0
 16 11  1  0  0  0  0
 19 15  1  0  0  0  0
 20 24  1  0  0  0  0
 21 22  1  0  0  0  0
 21 20  2  0  0  0  0
 22 23  1  0  0  0  0
 23 24  2  0  0  0  0
 23 27  1  0  0  0  0
 25 21  1  0  0  0  0
 26 22  1  0  0  0  0
 27 29  1  0  0  0  0
 28 29  2  0  0  0  0
 29 32  1  0  0  0  0
 30 29  1  0  0  0  0
 31 30  1  0  0  0  0
 32 33  1  0  0  0  0
M  END
>  <minimizedAffinity>
-5.1321907

$$$$
