
 OpenBabel03272507563D

 21 21  0  0  0  0  0  0  0  0999 V2000
   37.4790   26.1040   33.5350 C   0  0  0  0  0  0  0  0  0  0  0  0
   38.1520   25.8490   34.7610 C   0  0  0  0  0  0  0  0  0  0  0  0
   38.4370   24.5310   35.0950 C   0  0  0  0  0  0  0  0  0  0  0  0
   38.0580   23.5410   34.2270 N   0  0  0  0  0  0  0  0  0  0  0  0
   37.4180   23.8170   33.0660 C   0  0  0  0  0  0  0  0  0  0  0  0
   37.1300   25.0740   32.7190 N   0  0  0  0  0  0  0  0  0  0  0  0
   37.1200   22.6410   32.3290 N   0  0  0  0  0  0  0  0  0  0  0  0
   37.2470   27.1220   33.2560 H   0  0  0  0  0  0  0  0  0  0  0  0
   37.7200   21.9670   31.8310 H   0  0  0  0  0  0  0  0  0  0  0  0
   36.0700   22.4900   32.3320 H   0  0  0  0  0  0  0  0  0  0  0  0
   38.5140   27.0040   35.6210 C   0  0  0  0  0  0  0  0  0  0  0  0
   39.8820   27.2620   35.5580 F   0  0  0  0  0  0  0  0  0  0  0  0
   37.8490   28.1050   35.1580 F   0  0  0  0  0  0  0  0  0  0  0  0
   38.1930   26.8010   36.9470 F   0  0  0  0  0  0  0  0  0  0  0  0
   39.0950   24.2630   36.2890 O   0  0  0  0  0  0  0  0  0  0  0  0
   37.9850   24.3120   38.7240 O   0  0  0  0  0  0  0  0  0  0  0  0
   38.4510   23.4140   37.5900 P   0  0  0  0  0  0  0  0  0  0  0  0
   37.2030   22.3750   37.0910 O   0  0  0  0  0  0  0  0  0  0  0  0
   36.7920   22.0210   37.9400 H   0  0  0  0  0  0  0  0  0  0  0  0
   39.7060   22.4370   38.2180 O   0  0  0  0  0  0  0  0  0  0  0  0
   39.7850   21.6790   37.5620 H   0  0  0  0  0  0  0  0  0  0  0  0
  1  2  1  0  0  0  0
  2  3  2  0  0  0  0
  2 11  1  0  0  0  0
  3 15  1  0  0  0  0
  4  3  1  0  0  0  0
  5  4  2  0  0  0  0
  6  5  1  0  0  0  0
  6  1  2  0  0  0  0
  7 10  1  0  0  0  0
  7  5  1  0  0  0  0
  8  1  1  0  0  0  0
  9  7  1  0  0  0  0
 11 14  1  0  0  0  0
 12 11  1  0  0  0  0
 13 11  1  0  0  0  0
 15 17  1  0  0  0  0
 17 20  1  0  0  0  0
 17 16  2  0  0  0  0
 18 17  1  0  0  0  0
 18 19  1  0  0  0  0
 21 20  1  0  0  0  0
M  END
>  <minimizedAffinity>
-5.07401323

$$$$

 OpenBabel03272507563D

 21 21  0  0  0  0  0  0  0  0999 V2000
   37.2990   26.2820   33.6970 C   0  0  0  0  0  0  0  0  0  0  0  0
   38.1100   25.9170   34.8050 C   0  0  0  0  0  0  0  0  0  0  0  0
   38.5390   24.5990   34.9030 C   0  0  0  0  0  0  0  0  0  0  0  0
   38.1620   23.7160   33.9260 N   0  0  0  0  0  0  0  0  0  0  0  0
   37.3880   24.0960   32.8820 C   0  0  0  0  0  0  0  0  0  0  0  0
   36.9600   25.3550   32.7620 N   0  0  0  0  0  0  0  0  0  0  0  0
   37.1200   23.0180   31.9970 N   0  0  0  0  0  0  0  0  0  0  0  0
   36.9540   27.3020   33.6010 H   0  0  0  0  0  0  0  0  0  0  0  0
   37.7240   22.4880   31.3510 H   0  0  0  0  0  0  0  0  0  0  0  0
   36.0930   22.7640   32.0660 H   0  0  0  0  0  0  0  0  0  0  0  0
   38.4560   26.9630   35.8020 C   0  0  0  0  0  0  0  0  0  0  0  0
   38.2080   26.5160   37.0980 F   0  0  0  0  0  0  0  0  0  0  0  0
   39.7910   27.2320   35.6900 F   0  0  0  0  0  0  0  0  0  0  0  0
   37.7380   28.1270   35.6220 F   0  0  0  0  0  0  0  0  0  0  0  0
   39.3330   24.2250   35.9800 O   0  0  0  0  0  0  0  0  0  0  0  0
   40.6890   21.9190   35.9100 O   0  0  0  0  0  0  0  0  0  0  0  0
   39.5260   22.6560   36.5530 P   0  0  0  0  0  0  0  0  0  0  0  0
   39.6570   22.6290   38.2470 O   0  0  0  0  0  0  0  0  0  0  0  0
   39.9050   21.6820   38.4820 H   0  0  0  0  0  0  0  0  0  0  0  0
   38.1070   21.7960   36.1380 O   0  0  0  0  0  0  0  0  0  0  0  0
   37.4180   22.1180   36.7970 H   0  0  0  0  0  0  0  0  0  0  0  0
  1  2  1  0  0  0  0
  2  3  2  0  0  0  0
  2 11  1  0  0  0  0
  3 15  1  0  0  0  0
  4  3  1  0  0  0  0
  5  4  2  0  0  0  0
  6  5  1  0  0  0  0
  6  1  2  0  0  0  0
  7 10  1  0  0  0  0
  7  5  1  0  0  0  0
  8  1  1  0  0  0  0
  9  7  1  0  0  0  0
 11 12  1  0  0  0  0
 13 11  1  0  0  0  0
 14 11  1  0  0  0  0
 15 17  1  0  0  0  0
 16 17  2  0  0  0  0
 17 18  1  0  0  0  0
 18 19  1  0  0  0  0
 20 17  1  0  0  0  0
 20 21  1  0  0  0  0
M  END
>  <minimizedAffinity>
-4.89178658

$$$$

 OpenBabel03272507563D

 21 21  0  0  0  0  0  0  0  0999 V2000
   37.4330   26.0980   33.4970 C   0  0  0  0  0  0  0  0  0  0  0  0
   38.1010   25.8750   34.7300 C   0  0  0  0  0  0  0  0  0  0  0  0
   38.4130   24.5680   35.0850 C   0  0  0  0  0  0  0  0  0  0  0  0
   38.0620   23.5590   34.2270 N   0  0  0  0  0  0  0  0  0  0  0  0
   37.4260   23.8050   33.0580 C   0  0  0  0  0  0  0  0  0  0  0  0
   37.1130   25.0500   32.6920 N   0  0  0  0  0  0  0  0  0  0  0  0
   37.1600   22.6130   32.3340 N   0  0  0  0  0  0  0  0  0  0  0  0
   37.1810   27.1070   33.2020 H   0  0  0  0  0  0  0  0  0  0  0  0
   37.7790   21.9450   31.8510 H   0  0  0  0  0  0  0  0  0  0  0  0
   36.1140   22.4380   32.3310 H   0  0  0  0  0  0  0  0  0  0  0  0
   38.4310   27.0490   35.5780 C   0  0  0  0  0  0  0  0  0  0  0  0
   37.7860   28.1940   35.1140 F   0  0  0  0  0  0  0  0  0  0  0  0
   37.9910   26.7950   36.8470 F   0  0  0  0  0  0  0  0  0  0  0  0
   39.7830   27.3200   35.6090 F   0  0  0  0  0  0  0  0  0  0  0  0
   39.0660   24.3310   36.2880 O   0  0  0  0  0  0  0  0  0  0  0  0
   37.1430   22.7420   37.2570 O   0  0  0  0  0  0  0  0  0  0  0  0
   38.4410   23.4620   37.5840 P   0  0  0  0  0  0  0  0  0  0  0  0
   39.5890   22.3800   38.2140 O   0  0  0  0  0  0  0  0  0  0  0  0
   39.0890   21.8160   38.8820 H   0  0  0  0  0  0  0  0  0  0  0  0
   38.0790   24.5940   38.8150 O   0  0  0  0  0  0  0  0  0  0  0  0
   38.9750   24.8320   39.2060 H   0  0  0  0  0  0  0  0  0  0  0  0
  1  2  1  0  0  0  0
  2  3  2  0  0  0  0
  2 11  1  0  0  0  0
  3 15  1  0  0  0  0
  4  3  1  0  0  0  0
  5  4  2  0  0  0  0
  6  5  1  0  0  0  0
  6  1  2  0  0  0  0
  7  5  1  0  0  0  0
  8  1  1  0  0  0  0
  9  7  1  0  0  0  0
 10  7  1  0  0  0  0
 11 14  1  0  0  0  0
 11 13  1  0  0  0  0
 12 11  1  0  0  0  0
 15 17  1  0  0  0  0
 16 17  2  0  0  0  0
 17 18  1  0  0  0  0
 17 20  1  0  0  0  0
 18 19  1  0  0  0  0
 20 21  1  0  0  0  0
M  END
>  <minimizedAffinity>
-4.79162502

$$$$

 OpenBabel03272507563D

 21 21  0  0  0  0  0  0  0  0999 V2000
   37.8490   25.0890   36.3650 C   0  0  0  0  0  0  0  0  0  0  0  0
   38.5110   24.0260   37.0360 C   0  0  0  0  0  0  0  0  0  0  0  0
   39.3340   23.1880   36.2940 C   0  0  0  0  0  0  0  0  0  0  0  0
   39.4680   23.4270   34.9520 N   0  0  0  0  0  0  0  0  0  0  0  0
   38.8230   24.4500   34.3420 C   0  0  0  0  0  0  0  0  0  0  0  0
   38.0260   25.2710   35.0290 N   0  0  0  0  0  0  0  0  0  0  0  0
   39.1070   24.5050   32.9510 N   0  0  0  0  0  0  0  0  0  0  0  0
   37.2040   25.7530   36.9230 H   0  0  0  0  0  0  0  0  0  0  0  0
   39.9650   24.7410   32.4300 H   0  0  0  0  0  0  0  0  0  0  0  0
   38.2330   24.2440   32.4110 H   0  0  0  0  0  0  0  0  0  0  0  0
   38.2890   23.8660   38.4960 C   0  0  0  0  0  0  0  0  0  0  0  0
   37.4190   22.8080   38.7530 F   0  0  0  0  0  0  0  0  0  0  0  0
   39.4910   23.5830   39.0810 F   0  0  0  0  0  0  0  0  0  0  0  0
   37.7510   24.9940   39.0800 F   0  0  0  0  0  0  0  0  0  0  0  0
   39.9890   22.1430   36.9340 O   0  0  0  0  0  0  0  0  0  0  0  0
   42.5330   22.9720   36.9460 O   0  0  0  0  0  0  0  0  0  0  0  0
   41.6200   21.7690   36.7750 P   0  0  0  0  0  0  0  0  0  0  0  0
   42.0710   20.5140   37.8270 O   0  0  0  0  0  0  0  0  0  0  0  0
   43.0750   20.4570   37.7630 H   0  0  0  0  0  0  0  0  0  0  0  0
   41.8480   21.2000   35.1780 O   0  0  0  0  0  0  0  0  0  0  0  0
   41.4750   20.2660   35.1890 H   0  0  0  0  0  0  0  0  0  0  0  0
  1  8  1  0  0  0  0
  1  2  1  0  0  0  0
  2 11  1  0  0  0  0
  3 15  1  0  0  0  0
  3  2  2  0  0  0  0
  4  3  1  0  0  0  0
  5  4  2  0  0  0  0
  5  6  1  0  0  0  0
  6  1  2  0  0  0  0
  7  5  1  0  0  0  0
  9  7  1  0  0  0  0
 10  7  1  0  0  0  0
 11 12  1  0  0  0  0
 11 14  1  0  0  0  0
 11 13  1  0  0  0  0
 17 15  1  0  0  0  0
 17 16  2  0  0  0  0
 17 18  1  0  0  0  0
 19 18  1  0  0  0  0
 20 21  1  0  0  0  0
 20 17  1  0  0  0  0
M  END
>  <minimizedAffinity>
-4.73062944

$$$$

 OpenBabel03272507563D

 21 21  0  0  0  0  0  0  0  0999 V2000
   37.5930   24.6330   33.0080 C   0  0  0  0  0  0  0  0  0  0  0  0
   38.2780   23.9850   34.0710 C   0  0  0  0  0  0  0  0  0  0  0  0
   38.4010   24.6550   35.2820 C   0  0  0  0  0  0  0  0  0  0  0  0
   37.8550   25.9060   35.3930 N   0  0  0  0  0  0  0  0  0  0  0  0
   37.2080   26.4960   34.3610 C   0  0  0  0  0  0  0  0  0  0  0  0
   37.0750   25.8770   33.1860 N   0  0  0  0  0  0  0  0  0  0  0  0
   36.7270   27.7880   34.7010 N   0  0  0  0  0  0  0  0  0  0  0  0
   37.4870   24.1300   32.0570 H   0  0  0  0  0  0  0  0  0  0  0  0
   35.9830   28.1020   35.3420 H   0  0  0  0  0  0  0  0  0  0  0  0
   37.2820   28.5140   34.1620 H   0  0  0  0  0  0  0  0  0  0  0  0
   38.8290   22.6260   33.8320 C   0  0  0  0  0  0  0  0  0  0  0  0
   40.1920   22.5830   34.1200 F   0  0  0  0  0  0  0  0  0  0  0  0
   38.1880   21.7540   34.6670 F   0  0  0  0  0  0  0  0  0  0  0  0
   38.6690   22.2090   32.5260 F   0  0  0  0  0  0  0  0  0  0  0  0
   39.0680   24.0360   36.3320 O   0  0  0  0  0  0  0  0  0  0  0  0
   37.9760   24.6160   38.7060 O   0  0  0  0  0  0  0  0  0  0  0  0
   38.3570   23.4920   37.7560 P   0  0  0  0  0  0  0  0  0  0  0  0
   37.0210   22.4940   37.4360 O   0  0  0  0  0  0  0  0  0  0  0  0
   36.5840   22.3350   38.3300 H   0  0  0  0  0  0  0  0  0  0  0  0
   39.5250   22.5380   38.5640 O   0  0  0  0  0  0  0  0  0  0  0  0
   39.5340   21.6710   38.0540 H   0  0  0  0  0  0  0  0  0  0  0  0
  1  6  2  0  0  0  0
  1  2  1  0  0  0  0
  2  3  2  0  0  0  0
  3  4  1  0  0  0  0
  3 15  1  0  0  0  0
  5  7  1  0  0  0  0
  5  4  2  0  0  0  0
  6  5  1  0  0  0  0
  7  9  1  0  0  0  0
  8  1  1  0  0  0  0
 10  7  1  0  0  0  0
 11  2  1  0  0  0  0
 11 12  1  0  0  0  0
 11 13  1  0  0  0  0
 14 11  1  0  0  0  0
 15 17  1  0  0  0  0
 17 20  1  0  0  0  0
 17 16  2  0  0  0  0
 18 17  1  0  0  0  0
 18 19  1  0  0  0  0
 21 20  1  0  0  0  0
M  END
>  <minimizedAffinity>
-4.37161493

$$$$

 OpenBabel03272507563D

 21 21  0  0  0  0  0  0  0  0999 V2000
   36.0200   29.1310   31.7950 C   0  0  0  0  0  0  0  0  0  0  0  0
   36.0820   28.6780   33.1400 C   0  0  0  0  0  0  0  0  0  0  0  0
   36.7120   27.4670   33.4000 C   0  0  0  0  0  0  0  0  0  0  0  0
   37.2440   26.7700   32.3480 N   0  0  0  0  0  0  0  0  0  0  0  0
   37.1670   27.2290   31.0770 C   0  0  0  0  0  0  0  0  0  0  0  0
   36.5680   28.3880   30.7970 N   0  0  0  0  0  0  0  0  0  0  0  0
   37.7820   26.3430   30.1520 N   0  0  0  0  0  0  0  0  0  0  0  0
   35.5340   30.0700   31.5700 H   0  0  0  0  0  0  0  0  0  0  0  0
   38.7670   26.0830   29.9940 H   0  0  0  0  0  0  0  0  0  0  0  0
   37.0310   25.9040   29.5460 H   0  0  0  0  0  0  0  0  0  0  0  0
   35.4700   29.5220   34.1980 C   0  0  0  0  0  0  0  0  0  0  0  0
   36.3590   29.7200   35.2530 F   0  0  0  0  0  0  0  0  0  0  0  0
   35.1740   30.7400   33.6530 F   0  0  0  0  0  0  0  0  0  0  0  0
   34.3220   28.9660   34.7240 F   0  0  0  0  0  0  0  0  0  0  0  0
   36.7820   27.0090   34.7100 O   0  0  0  0  0  0  0  0  0  0  0  0
   37.8960   25.3260   36.4680 O   0  0  0  0  0  0  0  0  0  0  0  0
   38.1690   26.4440   35.4740 P   0  0  0  0  0  0  0  0  0  0  0  0
   39.3470   25.9720   34.3450 O   0  0  0  0  0  0  0  0  0  0  0  0
   40.0720   25.5250   34.8840 H   0  0  0  0  0  0  0  0  0  0  0  0
   38.8140   27.7510   36.3680 O   0  0  0  0  0  0  0  0  0  0  0  0
   39.2480   28.3380   35.6760 H   0  0  0  0  0  0  0  0  0  0  0  0
  1  2  1  0  0  0  0
  2  3  2  0  0  0  0
  2 11  1  0  0  0  0
  3 15  1  0  0  0  0
  4  3  1  0  0  0  0
  5  4  2  0  0  0  0
  6  5  1  0  0  0  0
  6  1  2  0  0  0  0
  7  5  1  0  0  0  0
  8  1  1  0  0  0  0
  9  7  1  0  0  0  0
 10  7  1  0  0  0  0
 11 14  1  0  0  0  0
 11 12  1  0  0  0  0
 13 11  1  0  0  0  0
 15 17  1  0  0  0  0
 17 20  1  0  0  0  0
 17 16  2  0  0  0  0
 18 19  1  0  0  0  0
 18 17  1  0  0  0  0
 21 20  1  0  0  0  0
M  END
>  <minimizedAffinity>
-4.33802795

$$$$

 OpenBabel03272507563D

 21 21  0  0  0  0  0  0  0  0999 V2000
   38.2270   25.2200   36.6870 C   0  0  0  0  0  0  0  0  0  0  0  0
   38.3560   25.6820   35.3500 C   0  0  0  0  0  0  0  0  0  0  0  0
   38.2290   24.7600   34.3180 C   0  0  0  0  0  0  0  0  0  0  0  0
   37.9850   23.4510   34.6410 N   0  0  0  0  0  0  0  0  0  0  0  0
   37.8670   23.0430   35.9260 C   0  0  0  0  0  0  0  0  0  0  0  0
   37.9850   23.9060   36.9380 N   0  0  0  0  0  0  0  0  0  0  0  0
   37.6180   21.6480   36.0220 N   0  0  0  0  0  0  0  0  0  0  0  0
   38.3220   25.9210   37.5060 H   0  0  0  0  0  0  0  0  0  0  0  0
   36.8010   21.0730   35.7690 H   0  0  0  0  0  0  0  0  0  0  0  0
   38.4720   21.1740   36.4370 H   0  0  0  0  0  0  0  0  0  0  0  0
   38.6200   27.1260   35.1240 C   0  0  0  0  0  0  0  0  0  0  0  0
   37.5980   27.7090   34.3780 F   0  0  0  0  0  0  0  0  0  0  0  0
   38.6690   27.7450   36.3420 F   0  0  0  0  0  0  0  0  0  0  0  0
   39.8030   27.3510   34.4500 F   0  0  0  0  0  0  0  0  0  0  0  0
   38.3530   25.1940   33.0040 O   0  0  0  0  0  0  0  0  0  0  0  0
   36.1240   26.2880   32.0050 O   0  0  0  0  0  0  0  0  0  0  0  0
   37.1340   25.1630   31.8470 P   0  0  0  0  0  0  0  0  0  0  0  0
   37.7770   25.1450   30.2740 O   0  0  0  0  0  0  0  0  0  0  0  0
   36.9870   25.2670   29.6600 H   0  0  0  0  0  0  0  0  0  0  0  0
   36.2770   23.6980   32.0630 O   0  0  0  0  0  0  0  0  0  0  0  0
   36.8810   22.9950   31.6720 H   0  0  0  0  0  0  0  0  0  0  0  0
  1  6  1  0  0  0  0
  1  8  1  0  0  0  0
  2  1  2  0  0  0  0
  3  4  2  0  0  0  0
  3  2  1  0  0  0  0
  4  5  1  0  0  0  0
  5  7  1  0  0  0  0
  5  6  2  0  0  0  0
  7 10  1  0  0  0  0
  9  7  1  0  0  0  0
 11  2  1  0  0  0  0
 11 13  1  0  0  0  0
 12 11  1  0  0  0  0
 14 11  1  0  0  0  0
 15  3  1  0  0  0  0
 17 16  2  0  0  0  0
 17 20  1  0  0  0  0
 17 15  1  0  0  0  0
 18 17  1  0  0  0  0
 19 18  1  0  0  0  0
 21 20  1  0  0  0  0
M  END
>  <minimizedAffinity>
-4.33763027

$$$$

 OpenBabel03272507563D

 21 21  0  0  0  0  0  0  0  0999 V2000
   35.5210   22.4970   31.4460 C   0  0  0  0  0  0  0  0  0  0  0  0
   36.1470   21.8290   32.5330 C   0  0  0  0  0  0  0  0  0  0  0  0
   37.2820   22.4020   33.0940 C   0  0  0  0  0  0  0  0  0  0  0  0
   37.7410   23.5830   32.5740 N   0  0  0  0  0  0  0  0  0  0  0  0
   37.1220   24.1940   31.5370 C   0  0  0  0  0  0  0  0  0  0  0  0
   36.0300   23.6670   30.9770 N   0  0  0  0  0  0  0  0  0  0  0  0
   37.7730   25.4000   31.1630 N   0  0  0  0  0  0  0  0  0  0  0  0
   34.6370   22.0690   30.9950 H   0  0  0  0  0  0  0  0  0  0  0  0
   37.8670   26.3100   31.6370 H   0  0  0  0  0  0  0  0  0  0  0  0
   38.2220   25.2670   30.2120 H   0  0  0  0  0  0  0  0  0  0  0  0
   35.5560   20.5540   33.0130 C   0  0  0  0  0  0  0  0  0  0  0  0
   34.3780   20.2620   32.3280 F   0  0  0  0  0  0  0  0  0  0  0  0
   36.4530   19.5510   32.7670 F   0  0  0  0  0  0  0  0  0  0  0  0
   35.2570   20.5790   34.3590 F   0  0  0  0  0  0  0  0  0  0  0  0
   37.9070   21.7630   34.1580 O   0  0  0  0  0  0  0  0  0  0  0  0
   39.5210   21.9950   36.2800 O   0  0  0  0  0  0  0  0  0  0  0  0
   38.2030   22.4410   35.6680 P   0  0  0  0  0  0  0  0  0  0  0  0
   38.1070   24.1360   35.6120 O   0  0  0  0  0  0  0  0  0  0  0  0
   38.4320   24.4530   36.5120 H   0  0  0  0  0  0  0  0  0  0  0  0
   36.9640   21.8940   36.7120 O   0  0  0  0  0  0  0  0  0  0  0  0
   36.1600   22.4400   36.4530 H   0  0  0  0  0  0  0  0  0  0  0  0
  1  2  1  0  0  0  0
  2 11  1  0  0  0  0
  2  3  2  0  0  0  0
  3 15  1  0  0  0  0
  4  3  1  0  0  0  0
  5  4  2  0  0  0  0
  6  1  2  0  0  0  0
  6  5  1  0  0  0  0
  7  5  1  0  0  0  0
  7  9  1  0  0  0  0
  8  1  1  0  0  0  0
 10  7  1  0  0  0  0
 11 14  1  0  0  0  0
 12 11  1  0  0  0  0
 13 11  1  0  0  0  0
 15 17  1  0  0  0  0
 17 16  2  0  0  0  0
 17 20  1  0  0  0  0
 18 17  1  0  0  0  0
 18 19  1  0  0  0  0
 21 20  1  0  0  0  0
M  END
>  <minimizedAffinity>
-4.32164145

$$$$

 OpenBabel03272507563D

 21 21  0  0  0  0  0  0  0  0999 V2000
   38.2420   24.4820   36.1450 C   0  0  0  0  0  0  0  0  0  0  0  0
   38.1770   25.5530   35.2140 C   0  0  0  0  0  0  0  0  0  0  0  0
   38.0190   25.2480   33.8670 C   0  0  0  0  0  0  0  0  0  0  0  0
   37.9320   23.9300   33.5040 N   0  0  0  0  0  0  0  0  0  0  0  0
   37.9970   22.9320   34.4160 C   0  0  0  0  0  0  0  0  0  0  0  0
   38.1480   23.1960   35.7160 N   0  0  0  0  0  0  0  0  0  0  0  0
   37.8860   21.6510   33.8140 N   0  0  0  0  0  0  0  0  0  0  0  0
   38.3650   24.6970   37.1980 H   0  0  0  0  0  0  0  0  0  0  0  0
   37.1010   21.1710   33.3510 H   0  0  0  0  0  0  0  0  0  0  0  0
   38.8200   21.1540   33.8910 H   0  0  0  0  0  0  0  0  0  0  0  0
   38.2840   26.9430   35.7270 C   0  0  0  0  0  0  0  0  0  0  0  0
   38.2770   26.9610   37.1210 F   0  0  0  0  0  0  0  0  0  0  0  0
   39.4730   27.4650   35.2990 F   0  0  0  0  0  0  0  0  0  0  0  0
   37.2500   27.7490   35.2980 F   0  0  0  0  0  0  0  0  0  0  0  0
   37.9550   26.2830   32.9430 O   0  0  0  0  0  0  0  0  0  0  0  0
   35.7850   27.6140   32.1180 O   0  0  0  0  0  0  0  0  0  0  0  0
   36.7500   26.4880   31.7880 P   0  0  0  0  0  0  0  0  0  0  0  0
   37.4100   26.6950   30.2370 O   0  0  0  0  0  0  0  0  0  0  0  0
   36.6340   26.9460   29.6460 H   0  0  0  0  0  0  0  0  0  0  0  0
   35.8330   25.0440   31.7630 O   0  0  0  0  0  0  0  0  0  0  0  0
   36.4130   24.3880   31.2670 H   0  0  0  0  0  0  0  0  0  0  0  0
  1  8  1  0  0  0  0
  2 11  1  0  0  0  0
  2  1  2  0  0  0  0
  3  2  1  0  0  0  0
  4  3  2  0  0  0  0
  4  5  1  0  0  0  0
  5  6  2  0  0  0  0
  6  1  1  0  0  0  0
  7 10  1  0  0  0  0
  7  5  1  0  0  0  0
  9  7  1  0  0  0  0
 11 12  1  0  0  0  0
 13 11  1  0  0  0  0
 14 11  1  0  0  0  0
 15  3  1  0  0  0  0
 17 16  2  0  0  0  0
 17 15  1  0  0  0  0
 18 17  1  0  0  0  0
 19 18  1  0  0  0  0
 20 17  1  0  0  0  0
 21 20  1  0  0  0  0
M  END
>  <minimizedAffinity>
-4.25011969

$$$$
