
 OpenBabel03272509413D

 33 34  0  0  1  0  0  0  0  0999 V2000
   36.6720   21.6950   31.7860 C   0  0  0  0  0  0  0  0  0  0  0  0
   35.8930   20.7870   31.0540 C   0  0  0  0  0  0  0  0  0  0  0  0
   35.1960   19.7500   31.6540 C   0  0  0  0  0  0  0  0  0  0  0  0
   35.2630   19.5900   33.0350 C   0  0  0  0  0  0  0  0  0  0  0  0
   36.0290   20.4830   33.7450 C   0  0  0  0  0  0  0  0  0  0  0  0
   36.7130   21.5090   33.1180 C   0  0  0  0  0  0  0  0  0  0  0  0
   35.8260   20.8920   29.9840 H   0  0  0  0  0  0  0  0  0  0  0  0
   34.6190   19.0930   31.0170 H   0  0  0  0  0  0  0  0  0  0  0  0
   34.7150   18.7790   33.4770 H   0  0  0  0  0  0  0  0  0  0  0  0
   36.0270   20.2880   34.8110 H   0  0  0  0  0  0  0  0  0  0  0  0
   37.3610   22.7430   31.0690 C   0  0  2  0  0  3  0  0  0  0  0  0
   38.4010   22.3510   30.4200 O   0  0  0  0  0  1  0  0  0  0  0  0
   35.1180   25.5880   30.9890 C   0  0  0  0  0  0  0  0  0  0  0  0
   35.9710   26.6980   31.0000 C   0  0  0  0  0  0  0  0  0  0  0  0
   37.3210   26.4570   31.0340 C   0  0  0  0  0  0  0  0  0  0  0  0
   37.7780   25.1840   31.0560 N   0  0  0  0  0  0  0  0  0  0  0  0
   36.9580   24.1460   31.0470 C   0  0  0  0  0  0  0  0  0  0  0  0
   35.6370   24.3660   31.0120 N   0  0  0  0  0  0  0  0  0  0  0  0
   34.0450   25.7580   30.9610 H   0  0  0  0  0  0  0  0  0  0  0  0
   35.4940   27.6730   30.9790 H   0  0  0  0  0  0  0  0  0  0  0  0
   37.9830   27.3130   31.0420 H   0  0  0  0  0  0  0  0  0  0  0  0
   37.4730   22.3610   34.0100 C   0  0  0  0  0  3  0  0  0  0  0  0
   38.6230   22.0660   34.6020 C   0  0  0  0  0  3  0  0  0  0  0  0
   39.4850   22.8310   35.5140 C   0  0  0  0  0  0  0  0  0  0  0  0
   40.4010   23.2120   34.9820 H   0  0  0  0  0  0  0  0  0  0  0  0
   39.8780   22.1240   36.2790 H   0  0  0  0  0  0  0  0  0  0  0  0
   38.8180   23.8570   36.1750 O   0  0  0  0  0  0  0  0  0  0  0  0
   38.0540   24.5880   38.5970 O   0  0  0  0  0  0  0  0  0  0  0  0
   38.3660   23.3880   37.7280 P   0  0  0  0  0  0  0  0  0  0  0  0
   39.6760   22.5540   38.4000 O   0  0  0  0  0  0  0  0  0  0  0  0
   40.5290   22.8900   38.0030 H   0  0  0  0  0  0  0  0  0  0  0  0
   36.9930   22.4310   37.6150 O   0  0  0  0  0  0  0  0  0  0  0  0
   37.1700   21.4780   37.8060 H   0  0  0  0  0  0  0  0  0  0  0  0
  1  6  1  0  0  0  0
  2  3  1  0  0  0  0
  2  1  2  0  0  0  0
  3  4  2  0  0  0  0
  4  9  1  0  0  0  0
  4  5  1  0  0  0  0
  5 10  1  0  0  0  0
  6  5  2  0  0  0  0
  6 22  1  0  0  0  0
  7  2  1  0  0  0  0
  8  3  1  0  0  0  0
 11 12  1  1  0  0  0
 11  1  1  0  0  0  0
 13 14  2  0  0  0  0
 13 18  1  0  0  0  0
 14 15  1  0  0  0  0
 15 21  1  0  0  0  0
 15 16  2  0  0  0  0
 17 16  1  0  0  0  0
 17 11  1  0  0  0  0
 18 17  2  0  0  0  0
 19 13  1  0  0  0  0
 20 14  1  0  0  0  0
 22 23  2  0  0  0  0
 23 24  1  0  0  0  0
 24 27  1  0  0  0  0
 24 26  1  0  0  0  0
 25 24  1  0  0  0  0
 27 29  1  0  0  0  0
 29 30  1  0  0  0  0
 29 28  2  0  0  0  0
 31 30  1  0  0  0  0
 32 29  1  0  0  0  0
 32 33  1  0  0  0  0
M  END
>  <minimizedAffinity>
-5.57608175

$$$$

 OpenBabel03272509413D

 33 34  0  0  1  0  0  0  0  0999 V2000
   36.5310   27.4720   32.5440 C   0  0  0  0  0  0  0  0  0  0  0  0
   35.5120   28.1610   31.8700 C   0  0  0  0  0  0  0  0  0  0  0  0
   34.7810   29.1780   32.4610 C   0  0  0  0  0  0  0  0  0  0  0  0
   35.0570   29.5430   33.7760 C   0  0  0  0  0  0  0  0  0  0  0  0
   36.0570   28.8650   34.4310 C   0  0  0  0  0  0  0  0  0  0  0  0
   36.7690   27.8520   33.8130 C   0  0  0  0  0  0  0  0  0  0  0  0
   35.2810   27.8950   30.8510 H   0  0  0  0  0  0  0  0  0  0  0  0
   34.0110   29.6580   31.8720 H   0  0  0  0  0  0  0  0  0  0  0  0
   34.4780   30.3350   34.2130 H   0  0  0  0  0  0  0  0  0  0  0  0
   36.2060   29.2100   35.4460 H   0  0  0  0  0  0  0  0  0  0  0  0
   37.2360   26.4260   31.8410 C   0  0  2  0  0  3  0  0  0  0  0  0
   38.2620   26.8260   31.1760 O   0  0  0  0  0  1  0  0  0  0  0  0
   37.3810   22.9180   32.7440 C   0  0  0  0  0  0  0  0  0  0  0  0
   36.3380   22.3340   32.0170 C   0  0  0  0  0  0  0  0  0  0  0  0
   35.5880   23.1560   31.2150 C   0  0  0  0  0  0  0  0  0  0  0  0
   35.8710   24.4780   31.1530 N   0  0  0  0  0  0  0  0  0  0  0  0
   36.8600   25.0150   31.8480 C   0  0  0  0  0  0  0  0  0  0  0  0
   37.6010   24.2230   32.6340 N   0  0  0  0  0  0  0  0  0  0  0  0
   37.9880   22.2840   33.3850 H   0  0  0  0  0  0  0  0  0  0  0  0
   36.2020   21.2640   32.1440 H   0  0  0  0  0  0  0  0  0  0  0  0
   34.7810   22.7060   30.6520 H   0  0  0  0  0  0  0  0  0  0  0  0
   37.7880   27.2390   34.6410 C   0  0  0  0  0  3  0  0  0  0  0  0
   37.6170   26.2480   35.5060 C   0  0  0  0  0  3  0  0  0  0  0  0
   38.5530   25.5440   36.3930 C   0  0  0  0  0  0  0  0  0  0  0  0
   38.3980   25.8430   37.4670 H   0  0  0  0  0  0  0  0  0  0  0  0
   39.5810   25.8970   36.1490 H   0  0  0  0  0  0  0  0  0  0  0  0
   38.5240   24.1610   36.2420 O   0  0  0  0  0  0  0  0  0  0  0  0
   37.7360   24.3970   38.7550 O   0  0  0  0  0  0  0  0  0  0  0  0
   38.1600   23.3980   37.6990 P   0  0  0  0  0  0  0  0  0  0  0  0
   39.5680   22.6180   38.2210 O   0  0  0  0  0  0  0  0  0  0  0  0
   40.3710   23.1070   37.8810 H   0  0  0  0  0  0  0  0  0  0  0  0
   36.8990   22.3240   37.4340 O   0  0  0  0  0  0  0  0  0  0  0  0
   37.1840   21.3780   37.4660 H   0  0  0  0  0  0  0  0  0  0  0  0
  1  6  1  0  0  0  0
  2  3  1  0  0  0  0
  2  1  2  0  0  0  0
  3  4  2  0  0  0  0
  4  9  1  0  0  0  0
  4  5  1  0  0  0  0
  5 10  1  0  0  0  0
  6  5  2  0  0  0  0
  6 22  1  0  0  0  0
  7  2  1  0  0  0  0
  8  3  1  0  0  0  0
 11 12  1  6  0  0  0
 11 17  1  0  0  0  0
 11  1  1  0  0  0  0
 13 19  1  0  0  0  0
 14 20  1  0  0  0  0
 14 13  2  0  0  0  0
 15 14  1  0  0  0  0
 16 15  2  0  0  0  0
 16 17  1  0  0  0  0
 17 18  2  0  0  0  0
 18 13  1  0  0  0  0
 21 15  1  0  0  0  0
 22 23  2  0  0  0  0
 23 24  1  0  0  0  0
 24 25  1  0  0  0  0
 26 24  1  0  0  0  0
 27 24  1  0  0  0  0
 27 29  1  0  0  0  0
 29 30  1  0  0  0  0
 29 28  2  0  0  0  0
 31 30  1  0  0  0  0
 32 33  1  0  0  0  0
 32 29  1  0  0  0  0
M  END
>  <minimizedAffinity>
-5.54294252

$$$$

 OpenBabel03272509413D

 33 34  0  0  1  0  0  0  0  0999 V2000
   36.1390   28.9830   33.1340 C   0  0  0  0  0  0  0  0  0  0  0  0
   36.2160   29.5210   31.8400 C   0  0  0  0  0  0  0  0  0  0  0  0
   37.0590   29.0080   30.8680 C   0  0  0  0  0  0  0  0  0  0  0  0
   37.8690   27.9170   31.1710 C   0  0  0  0  0  0  0  0  0  0  0  0
   37.7890   27.3960   32.4400 C   0  0  0  0  0  0  0  0  0  0  0  0
   36.9370   27.9300   33.3900 C   0  0  0  0  0  0  0  0  0  0  0  0
   35.5980   30.3650   31.5830 H   0  0  0  0  0  0  0  0  0  0  0  0
   37.0580   29.4810   29.8950 H   0  0  0  0  0  0  0  0  0  0  0  0
   38.5140   27.5370   30.4010 H   0  0  0  0  0  0  0  0  0  0  0  0
   38.4510   26.5510   32.5920 H   0  0  0  0  0  0  0  0  0  0  0  0
   35.2290   29.5890   34.0770 C   0  0  2  0  0  3  0  0  0  0  0  0
   35.7890   30.3660   34.9360 O   0  0  0  0  0  1  0  0  0  0  0  0
   31.9100   29.2530   35.4950 C   0  0  0  0  0  0  0  0  0  0  0  0
   31.0900   28.9980   34.3900 C   0  0  0  0  0  0  0  0  0  0  0  0
   31.6890   28.9420   33.1570 C   0  0  0  0  0  0  0  0  0  0  0  0
   33.0240   29.1320   33.0470 N   0  0  0  0  0  0  0  0  0  0  0  0
   33.7850   29.3730   34.1020 C   0  0  0  0  0  0  0  0  0  0  0  0
   33.2140   29.4290   35.3120 N   0  0  0  0  0  0  0  0  0  0  0  0
   31.4540   29.3010   36.4800 H   0  0  0  0  0  0  0  0  0  0  0  0
   30.0330   28.8610   34.5960 H   0  0  0  0  0  0  0  0  0  0  0  0
   31.0570   28.7440   32.3010 H   0  0  0  0  0  0  0  0  0  0  0  0
   36.9750   27.2640   34.6760 C   0  0  0  0  0  3  0  0  0  0  0  0
   37.9730   26.5430   35.1680 C   0  0  0  0  0  3  0  0  0  0  0  0
   38.1360   25.8270   36.4410 C   0  0  0  0  0  0  0  0  0  0  0  0
   37.2180   25.9300   37.0860 H   0  0  0  0  0  0  0  0  0  0  0  0
   38.9410   26.3370   37.0160 H   0  0  0  0  0  0  0  0  0  0  0  0
   38.4970   24.4930   36.2830 O   0  0  0  0  0  0  0  0  0  0  0  0
   37.7060   24.5070   38.8050 O   0  0  0  0  0  0  0  0  0  0  0  0
   38.2180   23.6150   37.6940 P   0  0  0  0  0  0  0  0  0  0  0  0
   39.6980   22.9460   38.1680 O   0  0  0  0  0  0  0  0  0  0  0  0
   40.4470   23.5300   37.8560 H   0  0  0  0  0  0  0  0  0  0  0  0
   37.0640   22.4420   37.3680 O   0  0  0  0  0  0  0  0  0  0  0  0
   37.4390   21.5270   37.3450 H   0  0  0  0  0  0  0  0  0  0  0  0
  1  6  1  0  0  0  0
  1 11  1  0  0  0  0
  2  1  2  0  0  0  0
  3  4  2  0  0  0  0
  3  2  1  0  0  0  0
  4  5  1  0  0  0  0
  5 10  1  0  0  0  0
  5  6  2  0  0  0  0
  6 22  1  0  0  0  0
  7  2  1  0  0  0  0
  8  3  1  0  0  0  0
  9  4  1  0  0  0  0
 11 17  1  0  0  0  0
 11 12  1  1  0  0  0
 13 19  1  0  0  0  0
 14 20  1  0  0  0  0
 14 13  2  0  0  0  0
 15 14  1  0  0  0  0
 16 15  2  0  0  0  0
 16 17  1  0  0  0  0
 17 18  2  0  0  0  0
 18 13  1  0  0  0  0
 21 15  1  0  0  0  0
 22 23  2  0  0  0  0
 23 24  1  0  0  0  0
 24 26  1  0  0  0  0
 24 25  1  0  0  0  0
 27 24  1  0  0  0  0
 27 29  1  0  0  0  0
 29 30  1  0  0  0  0
 29 28  2  0  0  0  0
 31 30  1  0  0  0  0
 32 29  1  0  0  0  0
 33 32  1  0  0  0  0
M  END
>  <minimizedAffinity>
-5.46451998

$$$$

 OpenBabel03272509413D

 33 34  0  0  1  0  0  0  0  0999 V2000
   35.9640   28.2740   32.4990 C   0  0  0  0  0  0  0  0  0  0  0  0
   35.0960   29.3630   32.3280 C   0  0  0  0  0  0  0  0  0  0  0  0
   34.7870   30.2400   33.3550 C   0  0  0  0  0  0  0  0  0  0  0  0
   35.3520   30.0460   34.6130 C   0  0  0  0  0  0  0  0  0  0  0  0
   36.2010   28.9770   34.7740 C   0  0  0  0  0  0  0  0  0  0  0  0
   36.4900   28.1180   33.7290 C   0  0  0  0  0  0  0  0  0  0  0  0
   34.6480   29.5330   31.3630 H   0  0  0  0  0  0  0  0  0  0  0  0
   34.1090   31.0540   33.1400 H   0  0  0  0  0  0  0  0  0  0  0  0
   35.0980   30.7390   35.3930 H   0  0  0  0  0  0  0  0  0  0  0  0
   36.5950   28.8990   35.7800 H   0  0  0  0  0  0  0  0  0  0  0  0
   36.2230   27.4170   31.3660 C   0  0  2  0  0  3  0  0  0  0  0  0
   35.4240   26.4140   31.2630 O   0  0  0  0  0  1  0  0  0  0  0  0
   37.9250   28.8640   28.5130 C   0  0  0  0  0  0  0  0  0  0  0  0
   39.1430   28.1770   28.4560 C   0  0  0  0  0  0  0  0  0  0  0  0
   39.3710   27.2140   29.4050 C   0  0  0  0  0  0  0  0  0  0  0  0
   38.4340   26.9620   30.3480 N   0  0  0  0  0  0  0  0  0  0  0  0
   37.2870   27.6220   30.3890 C   0  0  0  0  0  0  0  0  0  0  0  0
   37.0510   28.5640   29.4670 N   0  0  0  0  0  0  0  0  0  0  0  0
   37.7250   29.6310   27.7690 H   0  0  0  0  0  0  0  0  0  0  0  0
   39.8190   28.4620   27.6550 H   0  0  0  0  0  0  0  0  0  0  0  0
   40.3110   26.6810   29.3630 H   0  0  0  0  0  0  0  0  0  0  0  0
   37.4010   27.0440   34.0650 C   0  0  0  0  0  3  0  0  0  0  0  0
   37.5270   26.4500   35.2430 C   0  0  0  0  0  3  0  0  0  0  0  0
   38.3990   25.3620   35.7090 C   0  0  0  0  0  0  0  0  0  0  0  0
   39.4040   25.7550   36.0290 H   0  0  0  0  0  0  0  0  0  0  0  0
   38.6190   24.7070   34.8360 H   0  0  0  0  0  0  0  0  0  0  0  0
   37.8220   24.5780   36.7030 O   0  0  0  0  0  0  0  0  0  0  0  0
   40.1270   23.3140   36.4240 O   0  0  0  0  0  0  0  0  0  0  0  0
   38.7230   23.1810   36.9770 P   0  0  0  0  0  0  0  0  0  0  0  0
   37.9390   21.9150   36.1740 O   0  0  0  0  0  0  0  0  0  0  0  0
   37.4440   22.2720   35.3820 H   0  0  0  0  0  0  0  0  0  0  0  0
   38.8160   22.9260   38.6320 O   0  0  0  0  0  0  0  0  0  0  0  0
   38.2710   22.1580   38.9350 H   0  0  0  0  0  0  0  0  0  0  0  0
  1  6  1  0  0  0  0
  2  1  2  0  0  0  0
  2  3  1  0  0  0  0
  3  4  2  0  0  0  0
  4  5  1  0  0  0  0
  4  9  1  0  0  0  0
  5 10  1  0  0  0  0
  6 22  1  0  0  0  0
  6  5  2  0  0  0  0
  7  2  1  0  0  0  0
  8  3  1  0  0  0  0
 11 12  1  1  0  0  0
 11  1  1  0  0  0  0
 13 18  1  0  0  0  0
 14 13  2  0  0  0  0
 14 15  1  0  0  0  0
 15 16  2  0  0  0  0
 16 17  1  0  0  0  0
 17 11  1  0  0  0  0
 18 17  2  0  0  0  0
 19 13  1  0  0  0  0
 20 14  1  0  0  0  0
 21 15  1  0  0  0  0
 22 23  2  0  0  0  0
 23 24  1  0  0  0  0
 24 25  1  0  0  0  0
 24 27  1  0  0  0  0
 26 24  1  0  0  0  0
 27 29  1  0  0  0  0
 28 29  2  0  0  0  0
 29 32  1  0  0  0  0
 30 29  1  0  0  0  0
 31 30  1  0  0  0  0
 32 33  1  0  0  0  0
M  END
>  <minimizedAffinity>
-5.24437666

$$$$

 OpenBabel03272509413D

 33 34  0  0  1  0  0  0  0  0999 V2000
   37.5480   22.1030   33.4540 C   0  0  0  0  0  0  0  0  0  0  0  0
   36.7120   20.9760   33.4400 C   0  0  0  0  0  0  0  0  0  0  0  0
   35.5890   20.8900   32.6340 C   0  0  0  0  0  0  0  0  0  0  0  0
   35.2630   21.9570   31.8000 C   0  0  0  0  0  0  0  0  0  0  0  0
   36.0850   23.0570   31.8180 C   0  0  0  0  0  0  0  0  0  0  0  0
   37.2010   23.1130   32.6350 C   0  0  0  0  0  0  0  0  0  0  0  0
   36.9460   20.1390   34.0770 H   0  0  0  0  0  0  0  0  0  0  0  0
   34.9970   19.9860   32.6840 H   0  0  0  0  0  0  0  0  0  0  0  0
   34.3870   21.8660   31.1840 H   0  0  0  0  0  0  0  0  0  0  0  0
   35.7610   23.8380   31.1420 H   0  0  0  0  0  0  0  0  0  0  0  0
   38.6960   22.0960   34.3300 C   0  0  1  0  0  3  0  0  0  0  0  0
   39.7710   21.6330   33.7980 O   0  0  0  0  0  1  0  0  0  0  0  0
   39.9470   22.6520   37.6860 C   0  0  0  0  0  0  0  0  0  0  0  0
   38.9140   23.3460   38.3260 C   0  0  0  0  0  0  0  0  0  0  0  0
   37.7860   23.6180   37.5940 C   0  0  0  0  0  0  0  0  0  0  0  0
   37.7080   23.2190   36.3040 N   0  0  0  0  0  0  0  0  0  0  0  0
   38.6950   22.5640   35.7130 C   0  0  0  0  0  0  0  0  0  0  0  0
   39.8010   22.2910   36.4160 N   0  0  0  0  0  0  0  0  0  0  0  0
   40.8490   22.4260   38.2490 H   0  0  0  0  0  0  0  0  0  0  0  0
   39.0860   23.6160   39.3640 H   0  0  0  0  0  0  0  0  0  0  0  0
   36.9860   24.1540   38.0870 H   0  0  0  0  0  0  0  0  0  0  0  0
   37.9600   24.3430   32.5350 C   0  0  0  0  0  3  0  0  0  0  0  0
   37.6950   25.4910   33.1440 C   0  0  0  0  0  3  0  0  0  0  0  0
   38.3770   26.7930   33.1290 C   0  0  0  0  0  0  0  0  0  0  0  0
   38.1250   27.3930   34.0480 H   0  0  0  0  0  0  0  0  0  0  0  0
   37.9580   27.3840   32.2840 H   0  0  0  0  0  0  0  0  0  0  0  0
   39.7530   26.6950   32.9490 O   0  0  0  0  0  0  0  0  0  0  0  0
   40.8550   25.1800   34.8140 O   0  0  0  0  0  0  0  0  0  0  0  0
   40.5560   26.6130   34.4280 P   0  0  0  0  0  0  0  0  0  0  0  0
   39.5310   27.2880   35.5920 O   0  0  0  0  0  0  0  0  0  0  0  0
   38.5780   27.1620   35.3170 H   0  0  0  0  0  0  0  0  0  0  0  0
   42.0030   27.4490   34.2920 O   0  0  0  0  0  0  0  0  0  0  0  0
   42.0040   28.3040   34.7880 H   0  0  0  0  0  0  0  0  0  0  0  0
  1 11  1  0  0  0  0
  2  1  1  0  0  0  0
  2  7  1  0  0  0  0
  3  8  1  0  0  0  0
  3  2  2  0  0  0  0
  4  5  2  0  0  0  0
  4  3  1  0  0  0  0
  5  6  1  0  0  0  0
  6  1  2  0  0  0  0
  9  4  1  0  0  0  0
 10  5  1  0  0  0  0
 11 12  1  6  0  0  0
 11 17  1  0  0  0  0
 13 19  1  0  0  0  0
 13 14  1  0  0  0  0
 14 20  1  0  0  0  0
 15 21  1  0  0  0  0
 15 14  2  0  0  0  0
 16 15  1  0  0  0  0
 17 16  2  0  0  0  0
 17 18  1  0  0  0  0
 18 13  2  0  0  0  0
 22  6  1  0  0  0  0
 22 23  2  0  0  0  0
 24 23  1  0  0  0  0
 24 25  1  0  0  0  0
 26 24  1  0  0  0  0
 27 24  1  0  0  0  0
 27 29  1  0  0  0  0
 29 28  2  0  0  0  0
 29 30  1  0  0  0  0
 31 30  1  0  0  0  0
 32 29  1  0  0  0  0
 32 33  1  0  0  0  0
M  END
>  <minimizedAffinity>
-5.13785648

$$$$

 OpenBabel03272509413D

 33 34  0  0  1  0  0  0  0  0999 V2000
   37.3300   26.0350   32.4520 C   0  0  0  0  0  0  0  0  0  0  0  0
   36.6810   27.2360   32.1280 C   0  0  0  0  0  0  0  0  0  0  0  0
   36.3380   28.1800   33.0820 C   0  0  0  0  0  0  0  0  0  0  0  0
   36.6420   27.9410   34.4200 C   0  0  0  0  0  0  0  0  0  0  0  0
   37.2760   26.7630   34.7310 C   0  0  0  0  0  0  0  0  0  0  0  0
   37.6070   25.8390   33.7550 C   0  0  0  0  0  0  0  0  0  0  0  0
   36.4370   27.4420   31.0990 H   0  0  0  0  0  0  0  0  0  0  0  0
   35.8390   29.0790   32.7480 H   0  0  0  0  0  0  0  0  0  0  0  0
   36.3660   28.6870   35.1410 H   0  0  0  0  0  0  0  0  0  0  0  0
   37.4750   26.6570   35.7900 H   0  0  0  0  0  0  0  0  0  0  0  0
   37.6460   25.1140   31.3850 C   0  0  2  0  0  3  0  0  0  0  0  0
   38.4410   25.5850   30.4910 O   0  0  0  0  0  1  0  0  0  0  0  0
   37.7340   21.5260   30.8770 C   0  0  0  0  0  0  0  0  0  0  0  0
   36.4020   21.1260   31.0330 C   0  0  0  0  0  0  0  0  0  0  0  0
   35.4770   22.0990   31.3130 C   0  0  0  0  0  0  0  0  0  0  0  0
   35.8700   23.3890   31.4290 N   0  0  0  0  0  0  0  0  0  0  0  0
   37.1340   23.7510   31.2790 C   0  0  0  0  0  0  0  0  0  0  0  0
   38.0470   22.8110   31.0040 N   0  0  0  0  0  0  0  0  0  0  0  0
   38.4810   20.7700   30.6530 H   0  0  0  0  0  0  0  0  0  0  0  0
   36.2010   20.0650   30.9180 H   0  0  0  0  0  0  0  0  0  0  0  0
   34.4470   21.7920   31.4350 H   0  0  0  0  0  0  0  0  0  0  0  0
   38.2710   24.6510   34.2500 C   0  0  0  0  0  3  0  0  0  0  0  0
   39.5790   24.4670   34.3760 C   0  0  0  0  0  3  0  0  0  0  0  0
   40.3710   23.3270   34.8590 C   0  0  0  0  0  0  0  0  0  0  0  0
   41.2340   23.1120   34.1690 H   0  0  0  0  0  0  0  0  0  0  0  0
   39.7290   22.4190   34.7970 H   0  0  0  0  0  0  0  0  0  0  0  0
   40.7960   23.4680   36.1750 O   0  0  0  0  0  0  0  0  0  0  0  0
   39.2200   23.3570   38.2950 O   0  0  0  0  0  0  0  0  0  0  0  0
   39.8750   22.5180   37.2180 P   0  0  0  0  0  0  0  0  0  0  0  0
   40.9270   21.4140   37.9510 O   0  0  0  0  0  0  0  0  0  0  0  0
   41.8440   21.8080   38.0060 H   0  0  0  0  0  0  0  0  0  0  0  0
   38.6770   21.7570   36.3230 O   0  0  0  0  0  0  0  0  0  0  0  0
   38.8340   20.7870   36.2140 H   0  0  0  0  0  0  0  0  0  0  0  0
  1  6  1  0  0  0  0
  2  1  2  0  0  0  0
  2  3  1  0  0  0  0
  3  4  2  0  0  0  0
  4  5  1  0  0  0  0
  4  9  1  0  0  0  0
  5 10  1  0  0  0  0
  6 22  1  0  0  0  0
  6  5  2  0  0  0  0
  7  2  1  0  0  0  0
  8  3  1  0  0  0  0
 11 12  1  6  0  0  0
 11  1  1  0  0  0  0
 13 18  2  0  0  0  0
 13 14  1  0  0  0  0
 14 15  2  0  0  0  0
 15 16  1  0  0  0  0
 15 21  1  0  0  0  0
 17 11  1  0  0  0  0
 17 16  2  0  0  0  0
 18 17  1  0  0  0  0
 19 13  1  0  0  0  0
 20 14  1  0  0  0  0
 22 23  2  0  0  0  0
 23 24  1  0  0  0  0
 24 27  1  0  0  0  0
 25 24  1  0  0  0  0
 26 24  1  0  0  0  0
 27 29  1  0  0  0  0
 29 30  1  0  0  0  0
 29 28  2  0  0  0  0
 30 31  1  0  0  0  0
 32 29  1  0  0  0  0
 33 32  1  0  0  0  0
M  END
>  <minimizedAffinity>
-5.08968544

$$$$

 OpenBabel03272509413D

 33 34  0  0  1  0  0  0  0  0999 V2000
   38.3340   23.6690   35.4150 C   0  0  0  0  0  0  0  0  0  0  0  0
   38.3990   22.8140   36.5260 C   0  0  0  0  0  0  0  0  0  0  0  0
   38.2920   23.2730   37.8290 C   0  0  0  0  0  0  0  0  0  0  0  0
   38.1120   24.6350   38.0610 C   0  0  0  0  0  0  0  0  0  0  0  0
   38.0490   25.4660   36.9690 C   0  0  0  0  0  0  0  0  0  0  0  0
   38.1600   24.9780   35.6790 C   0  0  0  0  0  0  0  0  0  0  0  0
   38.5370   21.7570   36.3700 H   0  0  0  0  0  0  0  0  0  0  0  0
   38.3530   22.5480   38.6280 H   0  0  0  0  0  0  0  0  0  0  0  0
   38.0310   24.9660   39.0790 H   0  0  0  0  0  0  0  0  0  0  0  0
   37.9090   26.5060   37.2380 H   0  0  0  0  0  0  0  0  0  0  0  0
   38.4570   23.0930   34.0970 C   0  0  2  0  0  3  0  0  0  0  0  0
   39.6380   23.1640   33.5910 O   0  0  0  0  0  1  0  0  0  0  0  0
   35.9400   22.7210   31.5150 C   0  0  0  0  0  0  0  0  0  0  0  0
   35.3290   21.4960   31.8070 C   0  0  0  0  0  0  0  0  0  0  0  0
   35.7900   20.8030   32.8970 C   0  0  0  0  0  0  0  0  0  0  0  0
   36.8000   21.3110   33.6410 N   0  0  0  0  0  0  0  0  0  0  0  0
   37.3670   22.4710   33.3510 C   0  0  0  0  0  0  0  0  0  0  0  0
   36.9260   23.1580   32.2900 N   0  0  0  0  0  0  0  0  0  0  0  0
   35.5890   23.2850   30.6550 H   0  0  0  0  0  0  0  0  0  0  0  0
   34.5290   21.1860   31.1410 H   0  0  0  0  0  0  0  0  0  0  0  0
   35.3190   19.8560   33.1250 H   0  0  0  0  0  0  0  0  0  0  0  0
   38.0730   25.9850   34.6430 C   0  0  0  0  0  3  0  0  0  0  0  0
   37.0060   26.7050   34.3220 C   0  0  0  0  0  3  0  0  0  0  0  0
   36.7890   27.7460   33.3080 C   0  0  0  0  0  0  0  0  0  0  0  0
   36.8930   28.7750   33.7530 H   0  0  0  0  0  0  0  0  0  0  0  0
   35.7250   27.6860   32.9840 H   0  0  0  0  0  0  0  0  0  0  0  0
   37.5920   27.5970   32.1820 O   0  0  0  0  0  0  0  0  0  0  0  0
   35.3810   26.3940   31.3760 O   0  0  0  0  0  0  0  0  0  0  0  0
   36.7430   26.8720   30.9200 P   0  0  0  0  0  0  0  0  0  0  0  0
   37.6480   25.5360   30.4120 O   0  0  0  0  0  0  0  0  0  0  0  0
   38.1830   25.1790   31.1770 H   0  0  0  0  0  0  0  0  0  0  0  0
   36.5380   28.0040   29.7000 O   0  0  0  0  0  0  0  0  0  0  0  0
   37.0950   27.8190   28.9040 H   0  0  0  0  0  0  0  0  0  0  0  0
  1  6  2  0  0  0  0
  1  2  1  0  0  0  0
  2  3  2  0  0  0  0
  3  4  1  0  0  0  0
  3  8  1  0  0  0  0
  4  9  1  0  0  0  0
  5 10  1  0  0  0  0
  5  4  2  0  0  0  0
  6  5  1  0  0  0  0
  7  2  1  0  0  0  0
 11 12  1  6  0  0  0
 11  1  1  0  0  0  0
 13 14  2  0  0  0  0
 13 18  1  0  0  0  0
 14 15  1  0  0  0  0
 15 21  1  0  0  0  0
 15 16  2  0  0  0  0
 17 16  1  0  0  0  0
 17 11  1  0  0  0  0
 18 17  2  0  0  0  0
 19 13  1  0  0  0  0
 20 14  1  0  0  0  0
 22  6  1  0  0  0  0
 23 22  2  0  0  0  0
 24 25  1  0  0  0  0
 24 23  1  0  0  0  0
 26 24  1  0  0  0  0
 27 24  1  0  0  0  0
 29 28  2  0  0  0  0
 29 27  1  0  0  0  0
 30 29  1  0  0  0  0
 30 31  1  0  0  0  0
 32 29  1  0  0  0  0
 33 32  1  0  0  0  0
M  END
>  <minimizedAffinity>
-5.08761597

$$$$

 OpenBabel03272509413D

 33 34  0  0  1  0  0  0  0  0999 V2000
   39.8790   27.3200   31.7980 C   0  0  0  0  0  0  0  0  0  0  0  0
   40.7430   27.6890   30.7560 C   0  0  0  0  0  0  0  0  0  0  0  0
   42.0910   27.9360   30.9570 C   0  0  0  0  0  0  0  0  0  0  0  0
   42.6240   27.8170   32.2390 C   0  0  0  0  0  0  0  0  0  0  0  0
   41.7720   27.4550   33.2540 C   0  0  0  0  0  0  0  0  0  0  0  0
   40.4300   27.2150   33.0220 C   0  0  0  0  0  0  0  0  0  0  0  0
   40.3520   27.7870   29.7570 H   0  0  0  0  0  0  0  0  0  0  0  0
   42.6880   28.2170   30.1010 H   0  0  0  0  0  0  0  0  0  0  0  0
   43.6720   28.0130   32.3690 H   0  0  0  0  0  0  0  0  0  0  0  0
   42.2670   27.3860   34.2150 H   0  0  0  0  0  0  0  0  0  0  0  0
   38.4880   27.0840   31.4860 C   0  0  1  0  0  3  0  0  0  0  0  0
   38.2070   25.8660   31.1850 O   0  0  0  0  0  1  0  0  0  0  0  0
   35.7280   29.0500   32.7750 C   0  0  0  0  0  0  0  0  0  0  0  0
   35.4330   29.9440   31.7400 C   0  0  0  0  0  0  0  0  0  0  0  0
   36.1890   29.8640   30.5990 C   0  0  0  0  0  0  0  0  0  0  0  0
   37.1780   28.9440   30.5090 N   0  0  0  0  0  0  0  0  0  0  0  0
   37.4450   28.1060   31.4970 C   0  0  0  0  0  0  0  0  0  0  0  0
   36.7130   28.1730   32.6170 N   0  0  0  0  0  0  0  0  0  0  0  0
   35.1400   29.0970   33.6870 H   0  0  0  0  0  0  0  0  0  0  0  0
   34.6190   30.6390   31.9220 H   0  0  0  0  0  0  0  0  0  0  0  0
   35.9630   30.5540   29.7970 H   0  0  0  0  0  0  0  0  0  0  0  0
   39.6710   26.8440   34.1980 C   0  0  0  0  0  3  0  0  0  0  0  0
   39.4550   25.6150   34.6480 C   0  0  0  0  0  3  0  0  0  0  0  0
   38.7160   25.1090   35.8130 C   0  0  0  0  0  0  0  0  0  0  0  0
   37.6090   25.0750   35.6080 H   0  0  0  0  0  0  0  0  0  0  0  0
   38.8270   25.8540   36.6340 H   0  0  0  0  0  0  0  0  0  0  0  0
   39.1840   23.8830   36.2750 O   0  0  0  0  0  0  0  0  0  0  0  0
   37.9490   24.6270   38.4910 O   0  0  0  0  0  0  0  0  0  0  0  0
   38.3900   23.4220   37.6880 P   0  0  0  0  0  0  0  0  0  0  0  0
   39.4890   22.5250   38.6090 O   0  0  0  0  0  0  0  0  0  0  0  0
   40.4210   22.8250   38.4090 H   0  0  0  0  0  0  0  0  0  0  0  0
   37.0340   22.5290   37.2660 O   0  0  0  0  0  0  0  0  0  0  0  0
   37.1260   21.5660   37.4740 H   0  0  0  0  0  0  0  0  0  0  0  0
  1  6  1  0  0  0  0
  2  3  1  0  0  0  0
  2  1  2  0  0  0  0
  3  4  2  0  0  0  0
  4  9  1  0  0  0  0
  4  5  1  0  0  0  0
  5 10  1  0  0  0  0
  6  5  2  0  0  0  0
  6 22  1  0  0  0  0
  7  2  1  0  0  0  0
  8  3  1  0  0  0  0
 11 12  1  1  0  0  0
 11 17  1  0  0  0  0
 11  1  1  0  0  0  0
 13 19  1  0  0  0  0
 14 20  1  0  0  0  0
 14 13  2  0  0  0  0
 15 14  1  0  0  0  0
 16 15  2  0  0  0  0
 16 17  1  0  0  0  0
 17 18  2  0  0  0  0
 18 13  1  0  0  0  0
 21 15  1  0  0  0  0
 22 23  2  0  0  0  0
 23 24  1  0  0  0  0
 24 27  1  0  0  0  0
 24 26  1  0  0  0  0
 25 24  1  0  0  0  0
 27 29  1  0  0  0  0
 29 28  2  0  0  0  0
 29 30  1  0  0  0  0
 31 30  1  0  0  0  0
 32 33  1  0  0  0  0
 32 29  1  0  0  0  0
M  END
>  <minimizedAffinity>
-5.03905439

$$$$

 OpenBabel03272509413D

 33 34  0  0  1  0  0  0  0  0999 V2000
   37.3610   27.8180   32.5230 C   0  0  0  0  0  0  0  0  0  0  0  0
   36.9050   28.9100   31.7700 C   0  0  0  0  0  0  0  0  0  0  0  0
   35.9630   29.8050   32.2500 C   0  0  0  0  0  0  0  0  0  0  0  0
   35.4370   29.6260   33.5270 C   0  0  0  0  0  0  0  0  0  0  0  0
   35.8880   28.5540   34.2580 C   0  0  0  0  0  0  0  0  0  0  0  0
   36.8300   27.6770   33.7520 C   0  0  0  0  0  0  0  0  0  0  0  0
   37.2990   29.0690   30.7800 H   0  0  0  0  0  0  0  0  0  0  0  0
   35.6650   30.6210   31.6050 H   0  0  0  0  0  0  0  0  0  0  0  0
   34.7090   30.3330   33.8760 H   0  0  0  0  0  0  0  0  0  0  0  0
   35.4290   28.4880   35.2370 H   0  0  0  0  0  0  0  0  0  0  0  0
   38.3460   26.9400   31.9350 C   0  0  1  0  0  3  0  0  0  0  0  0
   37.8630   25.8660   31.4180 O   0  0  0  0  0  1  0  0  0  0  0  0
   41.6980   27.4390   33.2200 C   0  0  0  0  0  0  0  0  0  0  0  0
   42.4730   27.6680   32.0770 C   0  0  0  0  0  0  0  0  0  0  0  0
   41.8320   27.6510   30.8640 C   0  0  0  0  0  0  0  0  0  0  0  0
   40.5000   27.4160   30.8090 N   0  0  0  0  0  0  0  0  0  0  0  0
   39.7820   27.2000   31.9000 C   0  0  0  0  0  0  0  0  0  0  0  0
   40.3960   27.2160   33.0910 N   0  0  0  0  0  0  0  0  0  0  0  0
   42.1880   27.4490   34.1900 H   0  0  0  0  0  0  0  0  0  0  0  0
   43.5310   27.8450   32.2400 H   0  0  0  0  0  0  0  0  0  0  0  0
   42.4280   27.8290   29.9800 H   0  0  0  0  0  0  0  0  0  0  0  0
   37.1970   26.6010   34.6500 C   0  0  0  0  0  3  0  0  0  0  0  0
   37.9550   26.6950   35.7340 C   0  0  0  0  0  3  0  0  0  0  0  0
   38.3940   25.6960   36.7180 C   0  0  0  0  0  0  0  0  0  0  0  0
   38.4090   26.1280   37.7570 H   0  0  0  0  0  0  0  0  0  0  0  0
   39.4590   25.4520   36.5000 H   0  0  0  0  0  0  0  0  0  0  0  0
   37.6620   24.5140   36.6710 O   0  0  0  0  0  0  0  0  0  0  0  0
   40.0350   23.3970   36.3370 O   0  0  0  0  0  0  0  0  0  0  0  0
   38.6530   23.1740   36.9140 P   0  0  0  0  0  0  0  0  0  0  0  0
   37.9330   21.8670   36.1160 O   0  0  0  0  0  0  0  0  0  0  0  0
   37.4020   22.1990   35.3370 H   0  0  0  0  0  0  0  0  0  0  0  0
   38.7940   22.9120   38.5650 O   0  0  0  0  0  0  0  0  0  0  0  0
   38.3040   22.1100   38.8720 H   0  0  0  0  0  0  0  0  0  0  0  0
  1  6  1  0  0  0  0
  2  3  1  0  0  0  0
  2  1  2  0  0  0  0
  3  4  2  0  0  0  0
  4  9  1  0  0  0  0
  4  5  1  0  0  0  0
  5 10  1  0  0  0  0
  6  5  2  0  0  0  0
  6 22  1  0  0  0  0
  7  2  1  0  0  0  0
  8  3  1  0  0  0  0
 11 12  1  6  0  0  0
 11  1  1  0  0  0  0
 13 19  1  0  0  0  0
 14 20  1  0  0  0  0
 14 13  2  0  0  0  0
 15 14  1  0  0  0  0
 16 15  2  0  0  0  0
 16 17  1  0  0  0  0
 17 11  1  0  0  0  0
 17 18  2  0  0  0  0
 18 13  1  0  0  0  0
 21 15  1  0  0  0  0
 22 23  2  0  0  0  0
 23 24  1  0  0  0  0
 24 25  1  0  0  0  0
 26 24  1  0  0  0  0
 27 24  1  0  0  0  0
 27 29  1  0  0  0  0
 28 29  2  0  0  0  0
 29 32  1  0  0  0  0
 30 29  1  0  0  0  0
 31 30  1  0  0  0  0
 32 33  1  0  0  0  0
M  END
>  <minimizedAffinity>
-5.02063847

$$$$
