
 OpenBabel03272500583D

 33 34  0  0  0  0  0  0  0  0999 V2000
   38.1260   31.8730   47.4120 C   0  0  0  0  0  0  0  0  0  0  0  0
   38.6300   32.7790   48.3160 C   0  0  0  0  0  0  0  0  0  0  0  0
   38.1280   32.8450   49.6260 C   0  0  0  0  0  0  0  0  0  0  0  0
   37.0660   31.9320   49.9960 C   0  0  0  0  0  0  0  0  0  0  0  0
   36.6250   31.0710   49.0520 C   0  0  0  0  0  0  0  0  0  0  0  0
   37.1020   31.0050   47.7940 C   0  0  0  0  0  0  0  0  0  0  0  0
   39.4270   33.4770   48.0680 H   0  0  0  0  0  0  0  0  0  0  0  0
   38.5580   33.5760   50.2970 H   0  0  0  0  0  0  0  0  0  0  0  0
   36.7860   32.0990   51.0260 H   0  0  0  0  0  0  0  0  0  0  0  0
   35.8700   30.4790   49.5450 H   0  0  0  0  0  0  0  0  0  0  0  0
   39.9980   31.2540   45.9680 C   0  0  0  0  0  0  0  0  0  0  0  0
   38.7470   31.9030   46.1110 C   0  0  0  0  0  0  0  0  0  0  0  0
   38.2770   32.4860   44.9600 C   0  0  0  0  0  0  0  0  0  0  0  0
   38.9690   32.4270   43.8140 N   0  0  0  0  0  0  0  0  0  0  0  0
   40.1290   31.8220   43.6970 C   0  0  0  0  0  0  0  0  0  0  0  0
   40.6330   31.2400   44.7740 N   0  0  0  0  0  0  0  0  0  0  0  0
   40.4760   30.7510   46.8160 H   0  0  0  0  0  0  0  0  0  0  0  0
   37.3130   32.9850   45.0720 H   0  0  0  0  0  0  0  0  0  0  0  0
   40.6190   31.8230   42.7320 H   0  0  0  0  0  0  0  0  0  0  0  0
   35.1410   29.9930   46.9720 C   0  0  0  0  0  0  0  0  0  0  0  0
   34.5270   30.6490   47.9040 O   0  0  0  0  0  0  0  0  0  0  0  0
   36.5850   30.1250   46.8740 N   0  0  0  0  0  0  0  0  0  0  0  0
   37.1450   29.5960   46.1710 H   0  0  0  0  0  0  0  0  0  0  0  0
   34.4220   29.2000   46.1170 O   0  0  0  0  0  0  0  0  0  0  0  0
   33.3050   29.6300   45.4030 C   0  0  0  0  0  0  0  0  0  0  0  0
   33.3100   30.7400   44.7000 O   0  0  0  0  0  0  0  0  0  0  0  0
   32.0650   29.0200   45.2750 O   0  0  0  0  0  0  0  0  0  0  0  0
   30.1950   28.1430   43.6290 O   0  0  0  0  0  0  0  0  0  0  0  0
   31.7050   28.2250   43.7940 P   0  0  0  0  0  0  0  0  0  0  0  0
   32.2460   29.1820   42.4850 O   0  0  0  0  0  0  0  0  0  0  0  0
   31.8230   28.8550   41.6580 H   0  0  0  0  0  0  0  0  0  0  0  0
   32.3160   26.6730   43.7110 O   0  0  0  0  0  0  0  0  0  0  0  0
   33.2910   26.6100   43.6330 H   0  0  0  0  0  0  0  0  0  0  0  0
  1  6  2  0  0  0  0
  1  2  1  0  0  0  0
  2  3  2  0  0  0  0
  3  4  1  0  0  0  0
  3  8  1  0  0  0  0
  4  9  1  0  0  0  0
  5 10  1  0  0  0  0
  5  4  2  0  0  0  0
  6  5  1  0  0  0  0
  7  2  1  0  0  0  0
 11 12  1  0  0  0  0
 11 17  1  0  0  0  0
 12  1  1  0  0  0  0
 13 18  1  0  0  0  0
 13 12  2  0  0  0  0
 14 13  1  0  0  0  0
 15 14  2  0  0  0  0
 15 16  1  0  0  0  0
 16 11  2  0  0  0  0
 19 15  1  0  0  0  0
 20 21  2  0  0  0  0
 22 20  1  0  0  0  0
 22  6  1  0  0  0  0
 23 22  1  0  0  0  0
 24 20  1  0  0  0  0
 25 24  1  0  0  0  0
 26 25  2  0  0  0  0
 27 25  1  0  0  0  0
 28 29  2  0  0  0  0
 29 27  1  0  0  0  0
 30 29  1  0  0  0  0
 31 30  1  0  0  0  0
 32 29  1  0  0  0  0
 33 32  1  0  0  0  0
M  END
>  <minimizedAffinity>
-4.79865789

>  <minimizedRMSD>
0.167134345

$$$$
