
 OpenBabel03272506373D

 35 36  0  0  1  0  0  0  0  0999 V2000
   34.7250   29.6940   50.1160 O   0  0  0  0  0  0  0  0  0  0  0  0
   34.6190   29.6740   48.8750 C   0  0  0  0  0  0  0  0  0  0  0  0
   35.4590   30.4940   48.0250 C   0  0  2  0  0  0  0  0  0  0  0  0
   35.0890   29.9250   46.6160 C   0  0  0  0  0  0  0  0  0  0  0  0
   33.6680   29.4590   46.8350 C   0  0  0  0  0  0  0  0  0  0  0  0
   33.6840   28.8610   48.1680 N   0  0  0  0  0  0  0  0  0  0  0  0
   35.2170   31.5560   47.9210 H   0  0  0  0  0  0  0  0  0  0  0  0
   35.7200   29.0240   46.4800 H   0  0  0  0  0  0  0  0  0  0  0  0
   35.1990   30.6840   45.8430 H   0  0  0  0  0  0  0  0  0  0  0  0
   33.0320   30.3730   46.8590 H   0  0  0  0  0  0  0  0  0  0  0  0
   33.3120   28.7770   46.0680 H   0  0  0  0  0  0  0  0  0  0  0  0
   32.9090   27.7260   48.5740 C   0  0  0  0  0  0  0  0  0  0  0  0
   33.0010   27.5860   49.6910 H   0  0  0  0  0  0  0  0  0  0  0  0
   31.8230   27.8590   48.4090 H   0  0  0  0  0  0  0  0  0  0  0  0
   33.3260   26.5850   47.9540 O   0  0  0  0  0  0  0  0  0  0  0  0
   32.3320   25.6760   45.7710 O   0  0  0  0  0  0  0  0  0  0  0  0
   32.1440   25.6200   47.2910 P   0  0  0  0  0  0  0  0  0  0  0  0
   32.2550   23.9960   47.7130 O   0  0  0  0  0  0  0  0  0  0  0  0
   32.6390   23.4340   46.9960 H   0  0  0  0  0  0  0  0  0  0  0  0
   30.5720   26.1700   47.5900 O   0  0  0  0  0  0  0  0  0  0  0  0
   29.9880   25.9420   46.8160 H   0  0  0  0  0  0  0  0  0  0  0  0
   36.8590   30.2400   48.1820 O   0  0  0  0  0  0  0  0  0  0  0  0
   37.7110   31.3420   48.2020 C   0  0  0  0  0  0  0  0  0  0  0  0
   37.8980   31.9570   49.4280 C   0  0  0  0  0  0  0  0  0  0  0  0
   38.7390   33.0570   49.4860 C   0  0  0  0  0  0  0  0  0  0  0  0
   39.3420   33.4840   48.3400 N   0  0  0  0  0  0  0  0  0  0  0  0
   39.1490   32.8760   47.1610 C   0  0  0  0  0  0  0  0  0  0  0  0
   38.3430   31.8260   47.1130 N   0  0  0  0  0  0  0  0  0  0  0  0
   40.6280   32.3700   45.3770 C   0  0  0  0  0  0  0  0  0  0  0  0
   40.8490   31.1810   45.7650 O   0  0  0  0  0  0  0  0  0  0  0  0
   39.7930   33.3490   45.9810 N   0  0  0  0  0  0  0  0  0  0  0  0
   37.3970   31.5810   50.3110 H   0  0  0  0  0  0  0  0  0  0  0  0
   38.9000   33.5560   50.4470 H   0  0  0  0  0  0  0  0  0  0  0  0
   41.1820   32.5960   44.4670 H   0  0  0  0  0  0  0  0  0  0  0  0
   39.6660   34.2940   45.6050 H   0  0  0  0  0  0  0  0  0  0  0  0
  2  1  2  0  0  0  0
  3  7  1  1  0  0  0
  3 22  1  0  0  0  0
  3  2  1  0  0  0  0
  4  5  1  0  0  0  0
  4  3  1  0  0  0  0
  5 10  1  0  0  0  0
  5  6  1  0  0  0  0
  6 12  1  0  0  0  0
  6  2  1  0  0  0  0
  8  4  1  0  0  0  0
  9  4  1  0  0  0  0
 11  5  1  0  0  0  0
 12 13  1  0  0  0  0
 14 12  1  0  0  0  0
 15 12  1  0  0  0  0
 16 17  2  0  0  0  0
 17 20  1  0  0  0  0
 17 18  1  0  0  0  0
 17 15  1  0  0  0  0
 19 18  1  0  0  0  0
 21 20  1  0  0  0  0
 22 23  1  0  0  0  0
 23 24  1  0  0  0  0
 24 25  2  0  0  0  0
 24 32  1  0  0  0  0
 25 33  1  0  0  0  0
 26 25  1  0  0  0  0
 27 26  2  0  0  0  0
 28 27  1  0  0  0  0
 28 23  2  0  0  0  0
 29 30  2  0  0  0  0
 29 31  1  0  0  0  0
 31 27  1  0  0  0  0
 34 29  1  0  0  0  0
 35 31  1  0  0  0  0
M  END
>  <minimizedAffinity>
-5.23069525

>  <minimizedRMSD>
1.14732313

$$$$
