
 OpenBabel03272508203D

 36 38  0  0  0  0  0  0  0  0999 V2000
   33.7310   28.5780   46.6050 C   0  0  0  0  0  0  0  0  0  0  0  0
   33.9380   27.7830   47.3010 H   0  0  0  0  0  0  0  0  0  0  0  0
   34.0370   28.1110   45.5970 H   0  0  0  0  0  0  0  0  0  0  0  0
   31.3050   28.5190   47.1350 C   0  0  0  0  0  0  0  0  0  0  0  0
   32.3700   28.9960   46.3870 C   0  0  0  0  0  0  0  0  0  0  0  0
   31.9850   29.8460   45.4000 C   0  0  0  0  0  0  0  0  0  0  0  0
   30.7130   30.1950   45.1620 N   0  0  0  0  0  0  0  0  0  0  0  0
   29.6980   29.7290   45.8860 C   0  0  0  0  0  0  0  0  0  0  0  0
   29.9900   28.8880   46.8760 N   0  0  0  0  0  0  0  0  0  0  0  0
   32.6990   30.3060   44.7280 H   0  0  0  0  0  0  0  0  0  0  0  0
   28.6490   29.8970   45.8350 H   0  0  0  0  0  0  0  0  0  0  0  0
   31.6040   27.6520   48.3580 C   0  0  0  0  0  0  0  0  0  0  0  0
   30.6150   26.9450   49.0500 C   0  0  0  0  0  0  0  0  0  0  0  0
   31.2740   26.1580   47.9340 C   0  0  0  0  0  0  0  0  0  0  0  0
   32.6370   27.6730   48.7640 H   0  0  0  0  0  0  0  0  0  0  0  0
   29.5250   27.1570   48.8340 H   0  0  0  0  0  0  0  0  0  0  0  0
   30.7350   26.5880   50.0780 H   0  0  0  0  0  0  0  0  0  0  0  0
   30.7280   25.9930   47.0140 H   0  0  0  0  0  0  0  0  0  0  0  0
   32.0470   25.4360   48.2080 H   0  0  0  0  0  0  0  0  0  0  0  0
   34.7300   29.6380   46.8470 C   0  0  0  0  0  0  0  0  0  0  0  0
   34.2250   30.6300   46.6540 H   0  0  0  0  0  0  0  0  0  0  0  0
   35.5700   29.6420   46.1110 H   0  0  0  0  0  0  0  0  0  0  0  0
   36.8360   31.3600   47.1710 F   0  0  0  0  0  0  0  0  0  0  0  0
   36.3940   30.6130   48.2410 C   0  0  0  0  0  0  0  0  0  0  0  0
   35.3400   29.7140   48.1650 C   0  0  0  0  0  0  0  0  0  0  0  0
   34.9990   29.0270   49.3100 C   0  0  0  0  0  0  0  0  0  0  0  0
   35.6860   29.2300   50.4900 C   0  0  0  0  0  0  0  0  0  0  0  0
   36.7400   30.1350   50.5450 C   0  0  0  0  0  0  0  0  0  0  0  0
   37.0890   30.8230   49.4180 C   0  0  0  0  0  0  0  0  0  0  0  0
   34.1930   28.3230   49.2880 H   0  0  0  0  0  0  0  0  0  0  0  0
   35.3900   28.6720   51.3680 H   0  0  0  0  0  0  0  0  0  0  0  0
   37.2580   30.2740   51.4780 H   0  0  0  0  0  0  0  0  0  0  0  0
   38.2320   31.8030   49.4810 C   0  0  0  0  0  0  0  0  0  0  0  0
   38.9250   31.4370   50.6440 F   0  0  0  0  0  0  0  0  0  0  0  0
   37.7530   33.0750   49.6720 F   0  0  0  0  0  0  0  0  0  0  0  0
   39.0600   31.6540   48.4100 F   0  0  0  0  0  0  0  0  0  0  0  0
  1 20  1  0  0  0  0
  1  2  1  0  0  0  0
  3  1  1  0  0  0  0
  4 12  1  0  0  0  0
  5  1  1  0  0  0  0
  5  4  2  0  0  0  0
  6  5  1  0  0  0  0
  7  6  2  0  0  0  0
  7  8  1  0  0  0  0
  8  9  2  0  0  0  0
  9  4  1  0  0  0  0
 10  6  1  0  0  0  0
 11  8  1  0  0  0  0
 12 15  1  0  0  0  0
 12 13  1  0  0  0  0
 13 17  1  0  0  0  0
 14 19  1  0  0  0  0
 14 12  1  0  0  0  0
 14 13  1  0  0  0  0
 16 13  1  0  0  0  0
 18 14  1  0  0  0  0
 20 25  1  0  0  0  0
 21 20  1  0  0  0  0
 22 20  1  0  0  0  0
 23 24  1  0  0  0  0
 24 29  1  0  0  0  0
 25 24  2  0  0  0  0
 25 26  1  0  0  0  0
 26 27  2  0  0  0  0
 27 28  1  0  0  0  0
 27 31  1  0  0  0  0
 28 32  1  0  0  0  0
 29 33  1  0  0  0  0
 29 28  2  0  0  0  0
 30 26  1  0  0  0  0
 33 35  1  0  0  0  0
 33 34  1  0  0  0  0
 36 33  1  0  0  0  0
M  END
>  <minimizedAffinity>
-6.01946163

>  <minimizedRMSD>
4.61746025

$$$$
