
 OpenBabel03272506223D

 23 24  0  0  0  0  0  0  0  0999 V2000
   37.7610   30.5060   50.7240 C   0  0  0  0  0  0  0  0  0  0  0  0
   37.2270   30.6540   49.4060 C   0  0  0  0  0  0  0  0  0  0  0  0
   35.9790   30.1090   49.1510 C   0  0  0  0  0  0  0  0  0  0  0  0
   35.3300   29.4650   50.1570 N   0  0  0  0  0  0  0  0  0  0  0  0
   35.8560   29.3350   51.4080 C   0  0  0  0  0  0  0  0  0  0  0  0
   37.0810   29.8640   51.6840 N   0  0  0  0  0  0  0  0  0  0  0  0
   38.7220   30.9070   50.9840 H   0  0  0  0  0  0  0  0  0  0  0  0
   35.2630   28.8040   52.1470 H   0  0  0  0  0  0  0  0  0  0  0  0
   38.0530   31.3680   48.4620 C   0  0  0  0  0  0  0  0  0  0  0  0
   38.5420   30.6610   47.3950 C   0  0  0  0  0  0  0  0  0  0  0  0
   39.3340   31.1850   46.3900 C   0  0  0  0  0  0  0  0  0  0  0  0
   39.6760   32.5560   46.4570 C   0  0  0  0  0  0  0  0  0  0  0  0
   39.1830   33.2800   47.5440 C   0  0  0  0  0  0  0  0  0  0  0  0
   38.3940   32.7300   48.5290 C   0  0  0  0  0  0  0  0  0  0  0  0
   38.4420   29.6120   47.1560 H   0  0  0  0  0  0  0  0  0  0  0  0
   39.7560   30.7270   45.5320 H   0  0  0  0  0  0  0  0  0  0  0  0
   40.2810   33.1140   45.7580 H   0  0  0  0  0  0  0  0  0  0  0  0
   39.3710   34.3320   47.7120 H   0  0  0  0  0  0  0  0  0  0  0  0
   38.0040   33.2740   49.3770 H   0  0  0  0  0  0  0  0  0  0  0  0
   35.2990   30.2260   47.8430 C   0  0  0  0  0  0  0  0  0  0  0  0
   34.0150   30.7750   48.0050 F   0  0  0  0  0  0  0  0  0  0  0  0
   35.9480   30.9110   46.8770 F   0  0  0  0  0  0  0  0  0  0  0  0
   35.0210   28.9350   47.3540 F   0  0  0  0  0  0  0  0  0  0  0  0
  1  7  1  0  0  0  0
  1  6  1  0  0  0  0
  2  1  2  0  0  0  0
  3  2  1  0  0  0  0
  3  4  2  0  0  0  0
  4  5  1  0  0  0  0
  5  6  2  0  0  0  0
  5  8  1  0  0  0  0
  9 14  1  0  0  0  0
  9  2  1  0  0  0  0
 10  9  2  0  0  0  0
 11 12  2  0  0  0  0
 11 10  1  0  0  0  0
 12 13  1  0  0  0  0
 13 18  1  0  0  0  0
 13 14  2  0  0  0  0
 14 19  1  0  0  0  0
 15 10  1  0  0  0  0
 16 11  1  0  0  0  0
 17 12  1  0  0  0  0
 20 21  1  0  0  0  0
 20  3  1  0  0  0  0
 22 20  1  0  0  0  0
 23 20  1  0  0  0  0
M  END
>  <minimizedAffinity>
-5.47624493

>  <minimizedRMSD>
1.1721741

$$$$
