
 OpenBabel03272502443D

 30 32  0  0  0  0  0  0  0  0999 V2000
   38.0460   32.5650   49.5600 C   0  0  0  0  0  0  0  0  0  0  0  0
   38.7290   32.9040   48.3950 C   0  0  0  0  0  0  0  0  0  0  0  0
   38.3220   32.2490   47.2220 C   0  0  0  0  0  0  0  0  0  0  0  0
   37.3140   31.3430   47.2750 N   0  0  0  0  0  0  0  0  0  0  0  0
   36.6820   31.0500   48.4420 C   0  0  0  0  0  0  0  0  0  0  0  0
   37.0640   31.6690   49.5570 N   0  0  0  0  0  0  0  0  0  0  0  0
   38.3210   33.0410   50.4930 H   0  0  0  0  0  0  0  0  0  0  0  0
   39.5350   33.6310   48.3640 H   0  0  0  0  0  0  0  0  0  0  0  0
   36.9510   28.8930   50.4480 Cl  0  0  0  0  0  0  0  0  0  0  0  0
   35.6420   29.0300   49.3270 C   0  0  0  0  0  0  0  0  0  0  0  0
   35.6130   30.0740   48.4340 C   0  0  0  0  0  0  0  0  0  0  0  0
   34.5810   30.2060   47.5290 C   0  0  0  0  0  0  0  0  0  0  0  0
   33.5540   29.2850   47.5070 C   0  0  0  0  0  0  0  0  0  0  0  0
   33.5570   28.2270   48.3920 C   0  0  0  0  0  0  0  0  0  0  0  0
   32.3040   27.0070   48.4450 Cl  0  0  0  0  0  0  0  0  0  0  0  0
   34.6020   28.1340   49.2730 C   0  0  0  0  0  0  0  0  0  0  0  0
   34.5840   31.0400   46.8360 H   0  0  0  0  0  0  0  0  0  0  0  0
   32.7200   29.3720   46.7930 H   0  0  0  0  0  0  0  0  0  0  0  0
   34.6220   27.3080   49.9770 H   0  0  0  0  0  0  0  0  0  0  0  0
   38.9710   32.5270   45.9360 C   0  0  0  0  0  0  0  0  0  0  0  0
   40.3010   32.8790   45.8150 C   0  0  0  0  0  0  0  0  0  0  0  0
   40.6350   33.0770   44.5160 N   0  0  0  0  0  0  0  0  0  0  0  0
   39.5130   32.8510   43.8210 C   0  0  0  0  0  0  0  0  0  0  0  0
   38.5220   32.5220   44.6750 N   0  0  0  0  0  0  0  0  0  0  0  0
   41.0870   33.0160   46.5640 H   0  0  0  0  0  0  0  0  0  0  0  0
   41.5300   33.3460   44.0660 H   0  0  0  0  0  0  0  0  0  0  0  0
   39.1990   32.8960   42.3760 C   0  0  0  0  0  0  0  0  0  0  0  0
   40.0860   32.0650   41.6870 F   0  0  0  0  0  0  0  0  0  0  0  0
   37.9470   32.3770   42.1490 F   0  0  0  0  0  0  0  0  0  0  0  0
   39.3570   34.1450   41.8430 F   0  0  0  0  0  0  0  0  0  0  0  0
  1  7  1  0  0  0  0
  2  1  2  0  0  0  0
  3  4  2  0  0  0  0
  3  2  1  0  0  0  0
  4  5  1  0  0  0  0
  5  6  2  0  0  0  0
  6  1  1  0  0  0  0
  8  2  1  0  0  0  0
 10  9  1  0  0  0  0
 11  5  1  0  0  0  0
 11 10  2  0  0  0  0
 12 11  1  0  0  0  0
 13 12  2  0  0  0  0
 13 14  1  0  0  0  0
 14 15  1  0  0  0  0
 14 16  2  0  0  0  0
 16 10  1  0  0  0  0
 16 19  1  0  0  0  0
 17 12  1  0  0  0  0
 18 13  1  0  0  0  0
 20  3  1  0  0  0  0
 21 20  2  0  0  0  0
 21 25  1  0  0  0  0
 22 21  1  0  0  0  0
 23 22  1  0  0  0  0
 23 24  2  0  0  0  0
 24 20  1  0  0  0  0
 26 22  1  0  0  0  0
 27 23  1  0  0  0  0
 28 27  1  0  0  0  0
 29 27  1  0  0  0  0
 30 27  1  0  0  0  0
M  END
>  <minimizedAffinity>
-6.80257988

>  <minimizedRMSD>
1.73810887

$$$$
