
 OpenBabel03272505413D

 40 42  0  0  0  0  0  0  0  0999 V2000
   36.0620   30.4200   46.5660 C   0  0  0  0  0  0  0  0  0  0  0  0
   34.7350   29.9910   46.5980 C   0  0  0  0  0  0  0  0  0  0  0  0
   34.0980   29.6800   45.4120 C   0  0  0  0  0  0  0  0  0  0  0  0
   34.6870   29.7650   44.1850 C   0  0  0  0  0  0  0  0  0  0  0  0
   36.0160   30.1930   44.1420 C   0  0  0  0  0  0  0  0  0  0  0  0
   36.6380   30.5010   45.3390 C   0  0  0  0  0  0  0  0  0  0  0  0
   34.1800   29.8910   47.5270 H   0  0  0  0  0  0  0  0  0  0  0  0
   33.0620   29.3490   45.4740 H   0  0  0  0  0  0  0  0  0  0  0  0
   34.1380   29.5070   43.2820 H   0  0  0  0  0  0  0  0  0  0  0  0
   36.4370   30.2450   43.1580 H   0  0  0  0  0  0  0  0  0  0  0  0
   37.9810   30.9180   45.1020 N   0  0  0  0  0  0  0  0  0  0  0  0
   39.2930   30.3420   45.1130 C   0  0  0  0  0  0  0  0  0  0  0  0
   40.1460   31.1750   46.0440 C   0  0  0  0  0  0  0  0  0  0  0  0
   40.3430   32.4370   45.4030 N   0  0  0  0  0  0  0  0  0  0  0  0
   39.3730   32.8170   44.4780 C   0  0  0  0  0  0  0  0  0  0  0  0
   37.9960   32.3060   44.7540 C   0  0  0  0  0  0  0  0  0  0  0  0
   39.2930   29.2700   45.3830 H   0  0  0  0  0  0  0  0  0  0  0  0
   39.7340   30.4980   44.0920 H   0  0  0  0  0  0  0  0  0  0  0  0
   40.0760   31.0690   47.0780 H   0  0  0  0  0  0  0  0  0  0  0  0
   41.1660   30.6910   45.8420 H   0  0  0  0  0  0  0  0  0  0  0  0
   41.0900   33.0380   45.6890 H   0  0  0  0  0  0  0  0  0  0  0  0
   39.7120   32.6120   43.4410 H   0  0  0  0  0  0  0  0  0  0  0  0
   39.2900   33.9430   44.5080 H   0  0  0  0  0  0  0  0  0  0  0  0
   37.3610   32.9790   45.3190 H   0  0  0  0  0  0  0  0  0  0  0  0
   37.5030   32.3130   43.7290 H   0  0  0  0  0  0  0  0  0  0  0  0
   37.3300   30.2440   49.9820 C   0  0  0  0  0  0  0  0  0  0  0  0
   38.0680   31.4370   50.0950 C   0  0  0  0  0  0  0  0  0  0  0  0
   38.1160   32.2820   48.9850 C   0  0  0  0  0  0  0  0  0  0  0  0
   37.4380   31.8740   47.8830 N   0  0  0  0  0  0  0  0  0  0  0  0
   36.7470   30.7500   47.7870 C   0  0  0  0  0  0  0  0  0  0  0  0
   36.6910   29.9240   48.8500 N   0  0  0  0  0  0  0  0  0  0  0  0
   38.5680   31.6540   51.0280 H   0  0  0  0  0  0  0  0  0  0  0  0
   37.2910   29.3550   51.1980 C   0  0  0  0  0  0  0  0  0  0  0  0
   35.9430   29.0570   51.4660 F   0  0  0  0  0  0  0  0  0  0  0  0
   38.0180   28.2590   50.9510 F   0  0  0  0  0  0  0  0  0  0  0  0
   37.7300   30.0860   52.2780 F   0  0  0  0  0  0  0  0  0  0  0  0
   38.8810   33.5190   49.1010 C   0  0  0  0  0  0  0  0  0  0  0  0
   39.6450   33.5330   50.2490 F   0  0  0  0  0  0  0  0  0  0  0  0
   39.7350   33.7580   48.0320 F   0  0  0  0  0  0  0  0  0  0  0  0
   37.9890   34.5990   49.0940 F   0  0  0  0  0  0  0  0  0  0  0  0
  1  2  1  0  0  0  0
  1 30  1  0  0  0  0
  2  7  1  0  0  0  0
  3  8  1  0  0  0  0
  3  2  2  0  0  0  0
  4  3  1  0  0  0  0
  5  4  2  0  0  0  0
  5  6  1  0  0  0  0
  6  1  2  0  0  0  0
  9  4  1  0  0  0  0
 10  5  1  0  0  0  0
 11 12  1  0  0  0  0
 11  6  1  0  0  0  0
 12 17  1  0  0  0  0
 12 13  1  0  0  0  0
 13 19  1  0  0  0  0
 14 21  1  0  0  0  0
 14 13  1  0  0  0  0
 15 23  1  0  0  0  0
 15 16  1  0  0  0  0
 15 14  1  0  0  0  0
 16 11  1  0  0  0  0
 16 24  1  0  0  0  0
 18 12  1  0  0  0  0
 20 13  1  0  0  0  0
 22 15  1  0  0  0  0
 25 16  1  0  0  0  0
 26 27  1  0  0  0  0
 26 33  1  0  0  0  0
 27 32  1  0  0  0  0
 28 37  1  0  0  0  0
 28 27  2  0  0  0  0
 29 28  1  0  0  0  0
 30 29  2  0  0  0  0
 30 31  1  0  0  0  0
 31 26  2  0  0  0  0
 33 34  1  0  0  0  0
 33 36  1  0  0  0  0
 35 33  1  0  0  0  0
 37 38  1  0  0  0  0
 39 37  1  0  0  0  0
 40 37  1  0  0  0  0
M  END
>  <minimizedAffinity>
-7.47474241

>  <minimizedRMSD>
0.221639618

$$$$
