
 OpenBabel03272503183D

 20 21  0  0  0  0  0  0  0  0999 V2000
   38.0630   24.9240   34.5090 C   0  0  0  0  0  0  0  0  0  0  0  0
   38.1820   23.6030   34.6770 C   0  0  0  0  0  0  0  0  0  0  0  0
   38.2630   23.0690   35.9040 C   0  0  0  0  0  0  0  0  0  0  0  0
   38.2180   23.9600   36.9670 C   0  0  0  0  0  0  0  0  0  0  0  0
   38.0520   25.5890   36.1220 S   0  0  0  0  0  0  0  0  0  0  0  0
   38.2110   22.9600   33.7770 H   0  0  0  0  0  0  0  0  0  0  0  0
   38.3610   22.0270   36.1740 H   0  0  0  0  0  0  0  0  0  0  0  0
   38.6680   27.4120   31.7540 C   0  0  0  0  0  0  0  0  0  0  0  0
   38.8710   26.7170   32.9510 C   0  0  0  0  0  0  0  0  0  0  0  0
   37.9580   25.7210   33.2840 C   0  0  0  0  0  0  0  0  0  0  0  0
   36.9310   25.4760   32.4480 N   0  0  0  0  0  0  0  0  0  0  0  0
   36.7540   26.1530   31.3080 C   0  0  0  0  0  0  0  0  0  0  0  0
   37.6230   27.1190   30.9640 N   0  0  0  0  0  0  0  0  0  0  0  0
   39.3850   28.1800   31.5120 H   0  0  0  0  0  0  0  0  0  0  0  0
   39.6790   26.8880   33.6400 H   0  0  0  0  0  0  0  0  0  0  0  0
   35.9060   25.8940   30.6920 H   0  0  0  0  0  0  0  0  0  0  0  0
   38.2760   23.7550   38.4300 C   0  0  0  0  0  0  0  0  0  0  0  0
   39.5570   23.4180   38.8480 F   0  0  0  0  0  0  0  0  0  0  0  0
   37.3190   22.8530   38.7910 F   0  0  0  0  0  0  0  0  0  0  0  0
   38.0100   24.9740   39.0430 F   0  0  0  0  0  0  0  0  0  0  0  0
  1  2  2  0  0  0  0
  1  5  1  0  0  0  0
  2  3  1  0  0  0  0
  3  7  1  0  0  0  0
  3  4  2  0  0  0  0
  4 17  1  0  0  0  0
  5  4  1  0  0  0  0
  6  2  1  0  0  0  0
  8  9  1  0  0  0  0
  9 10  2  0  0  0  0
  9 15  1  0  0  0  0
 10  1  1  0  0  0  0
 11 10  1  0  0  0  0
 12 11  2  0  0  0  0
 13 12  1  0  0  0  0
 13  8  2  0  0  0  0
 14  8  1  0  0  0  0
 16 12  1  0  0  0  0
 17 19  1  0  0  0  0
 17 18  1  0  0  0  0
 17 20  1  0  0  0  0
M  END
>  <minimizedAffinity>
-4.5681448

$$$$

 OpenBabel03272503183D

 20 21  0  0  0  0  0  0  0  0999 V2000
   38.1140   24.3820   34.3390 C   0  0  0  0  0  0  0  0  0  0  0  0
   38.0930   25.5140   35.0510 C   0  0  0  0  0  0  0  0  0  0  0  0
   38.1430   25.4860   36.3910 C   0  0  0  0  0  0  0  0  0  0  0  0
   38.2140   24.2310   36.9780 C   0  0  0  0  0  0  0  0  0  0  0  0
   38.2090   23.1020   35.5220 S   0  0  0  0  0  0  0  0  0  0  0  0
   38.0350   26.4750   34.5060 H   0  0  0  0  0  0  0  0  0  0  0  0
   38.1330   26.3220   37.0760 H   0  0  0  0  0  0  0  0  0  0  0  0
   36.9880   24.0730   30.7650 C   0  0  0  0  0  0  0  0  0  0  0  0
   36.9070   24.3020   32.1420 C   0  0  0  0  0  0  0  0  0  0  0  0
   38.0710   24.1680   32.8900 C   0  0  0  0  0  0  0  0  0  0  0  0
   39.2120   23.8270   32.2610 N   0  0  0  0  0  0  0  0  0  0  0  0
   39.2690   23.6130   30.9420 C   0  0  0  0  0  0  0  0  0  0  0  0
   38.1570   23.7360   30.1970 N   0  0  0  0  0  0  0  0  0  0  0  0
   36.0760   24.1820   30.2000 H   0  0  0  0  0  0  0  0  0  0  0  0
   36.0130   24.5750   32.6750 H   0  0  0  0  0  0  0  0  0  0  0  0
   40.2230   23.3440   30.5130 H   0  0  0  0  0  0  0  0  0  0  0  0
   38.2850   23.8060   38.3930 C   0  0  0  0  0  0  0  0  0  0  0  0
   39.5530   23.3460   38.7240 F   0  0  0  0  0  0  0  0  0  0  0  0
   37.2880   22.9100   38.6370 F   0  0  0  0  0  0  0  0  0  0  0  0
   38.0940   24.9300   39.1870 F   0  0  0  0  0  0  0  0  0  0  0  0
  1  2  2  0  0  0  0
  1  5  1  0  0  0  0
  2  3  1  0  0  0  0
  3  4  2  0  0  0  0
  3  7  1  0  0  0  0
  4 17  1  0  0  0  0
  5  4  1  0  0  0  0
  6  2  1  0  0  0  0
  8  9  1  0  0  0  0
  9 15  1  0  0  0  0
  9 10  2  0  0  0  0
 10  1  1  0  0  0  0
 11 10  1  0  0  0  0
 12 11  2  0  0  0  0
 13  8  2  0  0  0  0
 13 12  1  0  0  0  0
 14  8  1  0  0  0  0
 16 12  1  0  0  0  0
 17 19  1  0  0  0  0
 17 18  1  0  0  0  0
 17 20  1  0  0  0  0
M  END
>  <minimizedAffinity>
-4.46481228

$$$$

 OpenBabel03272503183D

 20 21  0  0  0  0  0  0  0  0999 V2000
   37.4520   22.1280   34.4410 C   0  0  0  0  0  0  0  0  0  0  0  0
   38.3800   23.0900   34.4390 C   0  0  0  0  0  0  0  0  0  0  0  0
   38.7940   23.6510   35.5850 C   0  0  0  0  0  0  0  0  0  0  0  0
   38.2050   23.1770   36.7480 C   0  0  0  0  0  0  0  0  0  0  0  0
   37.0400   21.8960   36.1200 S   0  0  0  0  0  0  0  0  0  0  0  0
   38.8010   23.4120   33.4680 H   0  0  0  0  0  0  0  0  0  0  0  0
   39.5310   24.4300   35.7190 H   0  0  0  0  0  0  0  0  0  0  0  0
   35.1920   19.9960   32.3220 C   0  0  0  0  0  0  0  0  0  0  0  0
   35.6650   20.6710   33.4520 C   0  0  0  0  0  0  0  0  0  0  0  0
   36.8550   21.3810   33.3300 C   0  0  0  0  0  0  0  0  0  0  0  0
   37.4900   21.3840   32.1430 N   0  0  0  0  0  0  0  0  0  0  0  0
   37.0220   20.7310   31.0740 C   0  0  0  0  0  0  0  0  0  0  0  0
   35.8740   20.0390   31.1660 N   0  0  0  0  0  0  0  0  0  0  0  0
   34.2680   19.4510   32.4350 H   0  0  0  0  0  0  0  0  0  0  0  0
   35.1820   20.6880   34.4130 H   0  0  0  0  0  0  0  0  0  0  0  0
   37.5910   20.7850   30.1580 H   0  0  0  0  0  0  0  0  0  0  0  0
   38.3970   23.5380   38.1700 C   0  0  0  0  0  0  0  0  0  0  0  0
   38.0900   24.8720   38.4040 F   0  0  0  0  0  0  0  0  0  0  0  0
   39.6570   23.1830   38.5520 F   0  0  0  0  0  0  0  0  0  0  0  0
   37.4730   22.8220   38.9220 F   0  0  0  0  0  0  0  0  0  0  0  0
  1  5  1  0  0  0  0
  2  1  2  0  0  0  0
  2  3  1  0  0  0  0
  3  7  1  0  0  0  0
  3  4  2  0  0  0  0
  4 17  1  0  0  0  0
  5  4  1  0  0  0  0
  6  2  1  0  0  0  0
  8 14  1  0  0  0  0
  8  9  1  0  0  0  0
  9 15  1  0  0  0  0
 10  9  2  0  0  0  0
 10  1  1  0  0  0  0
 11 10  1  0  0  0  0
 12 13  1  0  0  0  0
 12 11  2  0  0  0  0
 13  8  2  0  0  0  0
 16 12  1  0  0  0  0
 17 18  1  0  0  0  0
 17 19  1  0  0  0  0
 17 20  1  0  0  0  0
M  END
>  <minimizedAffinity>
-4.3693881

$$$$

 OpenBabel03272503183D

 20 21  0  0  0  0  0  0  0  0999 V2000
   38.0050   25.6290   35.2590 C   0  0  0  0  0  0  0  0  0  0  0  0
   37.5990   26.8860   35.4630 C   0  0  0  0  0  0  0  0  0  0  0  0
   37.1150   27.6260   34.4540 C   0  0  0  0  0  0  0  0  0  0  0  0
   37.0680   27.0130   33.2100 C   0  0  0  0  0  0  0  0  0  0  0  0
   37.7440   25.3350   33.5590 S   0  0  0  0  0  0  0  0  0  0  0  0
   37.6700   27.3010   36.4850 H   0  0  0  0  0  0  0  0  0  0  0  0
   36.7570   28.6450   34.4860 H   0  0  0  0  0  0  0  0  0  0  0  0
   38.6280   23.4410   38.2540 C   0  0  0  0  0  0  0  0  0  0  0  0
   38.0120   24.4050   37.4490 C   0  0  0  0  0  0  0  0  0  0  0  0
   38.5600   24.6450   36.1930 C   0  0  0  0  0  0  0  0  0  0  0  0
   39.6470   23.9460   35.8140 N   0  0  0  0  0  0  0  0  0  0  0  0
   40.2220   23.0280   36.5990 C   0  0  0  0  0  0  0  0  0  0  0  0
   39.7110   22.7780   37.8170 N   0  0  0  0  0  0  0  0  0  0  0  0
   38.1900   23.2680   39.2240 H   0  0  0  0  0  0  0  0  0  0  0  0
   37.1450   24.9800   37.7210 H   0  0  0  0  0  0  0  0  0  0  0  0
   41.0900   22.5110   36.2210 H   0  0  0  0  0  0  0  0  0  0  0  0
   36.6080   27.4950   31.8890 C   0  0  0  0  0  0  0  0  0  0  0  0
   37.3650   28.5710   31.4470 F   0  0  0  0  0  0  0  0  0  0  0  0
   35.2690   27.7440   31.9490 F   0  0  0  0  0  0  0  0  0  0  0  0
   36.8440   26.4870   30.9610 F   0  0  0  0  0  0  0  0  0  0  0  0
  1  2  2  0  0  0  0
  1 10  1  0  0  0  0
  2  6  1  0  0  0  0
  3  7  1  0  0  0  0
  3  2  1  0  0  0  0
  4  5  1  0  0  0  0
  4  3  2  0  0  0  0
  5  1  1  0  0  0  0
  8 14  1  0  0  0  0
  9 15  1  0  0  0  0
  9  8  2  0  0  0  0
 10  9  1  0  0  0  0
 11 10  2  0  0  0  0
 11 12  1  0  0  0  0
 12 13  2  0  0  0  0
 13  8  1  0  0  0  0
 16 12  1  0  0  0  0
 17 19  1  0  0  0  0
 17  4  1  0  0  0  0
 18 17  1  0  0  0  0
 20 17  1  0  0  0  0
M  END
>  <minimizedAffinity>
-4.35442638

$$$$

 OpenBabel03272503183D

 20 21  0  0  0  0  0  0  0  0999 V2000
   37.9200   26.9460   34.0580 C   0  0  0  0  0  0  0  0  0  0  0  0
   38.1340   27.5480   35.2330 C   0  0  0  0  0  0  0  0  0  0  0  0
   38.2610   26.8340   36.3610 C   0  0  0  0  0  0  0  0  0  0  0  0
   38.1560   25.4570   36.2310 C   0  0  0  0  0  0  0  0  0  0  0  0
   37.8720   25.2410   34.4230 S   0  0  0  0  0  0  0  0  0  0  0  0
   38.2040   28.6520   35.2510 H   0  0  0  0  0  0  0  0  0  0  0  0
   38.4340   27.1960   37.3640 H   0  0  0  0  0  0  0  0  0  0  0  0
   38.4380   27.9610   30.4750 C   0  0  0  0  0  0  0  0  0  0  0  0
   38.7100   27.3790   31.7170 C   0  0  0  0  0  0  0  0  0  0  0  0
   37.7520   27.5100   32.7170 C   0  0  0  0  0  0  0  0  0  0  0  0
   36.6190   28.1850   32.4450 N   0  0  0  0  0  0  0  0  0  0  0  0
   36.3780   28.7350   31.2500 C   0  0  0  0  0  0  0  0  0  0  0  0
   37.2880   28.6220   30.2680 N   0  0  0  0  0  0  0  0  0  0  0  0
   39.1920   27.8490   29.7120 H   0  0  0  0  0  0  0  0  0  0  0  0
   39.6040   26.8350   31.9660 H   0  0  0  0  0  0  0  0  0  0  0  0
   35.4440   29.2590   31.1130 H   0  0  0  0  0  0  0  0  0  0  0  0
   38.2420   24.3620   37.2220 C   0  0  0  0  0  0  0  0  0  0  0  0
   38.0760   24.8330   38.5180 F   0  0  0  0  0  0  0  0  0  0  0  0
   39.4020   23.6740   37.0260 F   0  0  0  0  0  0  0  0  0  0  0  0
   37.1640   23.5100   37.0130 F   0  0  0  0  0  0  0  0  0  0  0  0
  1  5  1  0  0  0  0
  1  2  2  0  0  0  0
  2  6  1  0  0  0  0
  2  3  1  0  0  0  0
  3  7  1  0  0  0  0
  4  3  2  0  0  0  0
  4 17  1  0  0  0  0
  5  4  1  0  0  0  0
  8  9  1  0  0  0  0
  9 15  1  0  0  0  0
  9 10  2  0  0  0  0
 10  1  1  0  0  0  0
 11 10  1  0  0  0  0
 12 11  2  0  0  0  0
 13  8  2  0  0  0  0
 13 12  1  0  0  0  0
 14  8  1  0  0  0  0
 16 12  1  0  0  0  0
 17 18  1  0  0  0  0
 19 17  1  0  0  0  0
 20 17  1  0  0  0  0
M  END
>  <minimizedAffinity>
-4.34840298

$$$$

 OpenBabel03272503183D

 20 21  0  0  0  0  0  0  0  0999 V2000
   38.0640   25.6430   35.3430 C   0  0  0  0  0  0  0  0  0  0  0  0
   37.6960   26.9070   35.5720 C   0  0  0  0  0  0  0  0  0  0  0  0
   37.2000   27.6700   34.5860 C   0  0  0  0  0  0  0  0  0  0  0  0
   37.0990   27.0720   33.3390 C   0  0  0  0  0  0  0  0  0  0  0  0
   37.7430   25.3740   33.6500 S   0  0  0  0  0  0  0  0  0  0  0  0
   37.8090   27.3100   36.5960 H   0  0  0  0  0  0  0  0  0  0  0  0
   36.8690   28.6970   34.6390 H   0  0  0  0  0  0  0  0  0  0  0  0
   38.6960   23.3780   38.2780 C   0  0  0  0  0  0  0  0  0  0  0  0
   38.0770   24.3610   37.5000 C   0  0  0  0  0  0  0  0  0  0  0  0
   38.6220   24.6360   36.2510 C   0  0  0  0  0  0  0  0  0  0  0  0
   39.7100   23.9500   35.8520 N   0  0  0  0  0  0  0  0  0  0  0  0
   40.2880   23.0120   36.6110 C   0  0  0  0  0  0  0  0  0  0  0  0
   39.7800   22.7290   37.8220 N   0  0  0  0  0  0  0  0  0  0  0  0
   38.2600   23.1780   39.2440 H   0  0  0  0  0  0  0  0  0  0  0  0
   37.2090   24.9270   37.7890 H   0  0  0  0  0  0  0  0  0  0  0  0
   41.1570   22.5070   36.2170 H   0  0  0  0  0  0  0  0  0  0  0  0
   36.6110   27.5790   32.0380 C   0  0  0  0  0  0  0  0  0  0  0  0
   36.3530   26.5420   31.1510 F   0  0  0  0  0  0  0  0  0  0  0  0
   37.4890   28.5080   31.5650 F   0  0  0  0  0  0  0  0  0  0  0  0
   35.3770   28.1820   32.2500 F   0  0  0  0  0  0  0  0  0  0  0  0
  1  2  2  0  0  0  0
  1 10  1  0  0  0  0
  2  6  1  0  0  0  0
  3  7  1  0  0  0  0
  3  2  1  0  0  0  0
  4  5  1  0  0  0  0
  4  3  2  0  0  0  0
  5  1  1  0  0  0  0
  8 14  1  0  0  0  0
  9 15  1  0  0  0  0
  9  8  2  0  0  0  0
 10  9  1  0  0  0  0
 11 10  2  0  0  0  0
 11 12  1  0  0  0  0
 12 13  2  0  0  0  0
 13  8  1  0  0  0  0
 16 12  1  0  0  0  0
 17 20  1  0  0  0  0
 17  4  1  0  0  0  0
 18 17  1  0  0  0  0
 19 17  1  0  0  0  0
M  END
>  <minimizedAffinity>
-4.33317566

$$$$

 OpenBabel03272503183D

 20 21  0  0  0  0  0  0  0  0999 V2000
   38.0590   26.9420   34.0050 C   0  0  0  0  0  0  0  0  0  0  0  0
   38.2590   27.5360   35.1860 C   0  0  0  0  0  0  0  0  0  0  0  0
   38.3130   26.8190   36.3180 C   0  0  0  0  0  0  0  0  0  0  0  0
   38.1510   25.4470   36.1840 C   0  0  0  0  0  0  0  0  0  0  0  0
   37.9200   25.2410   34.3680 S   0  0  0  0  0  0  0  0  0  0  0  0
   38.3780   28.6360   35.2070 H   0  0  0  0  0  0  0  0  0  0  0  0
   38.4670   27.1740   37.3260 H   0  0  0  0  0  0  0  0  0  0  0  0
   36.8830   28.7290   30.9120 C   0  0  0  0  0  0  0  0  0  0  0  0
   36.8600   28.2340   32.2190 C   0  0  0  0  0  0  0  0  0  0  0  0
   37.9650   27.5110   32.6580 C   0  0  0  0  0  0  0  0  0  0  0  0
   38.9950   27.3230   31.8110 N   0  0  0  0  0  0  0  0  0  0  0  0
   38.9980   27.8050   30.5630 C   0  0  0  0  0  0  0  0  0  0  0  0
   37.9420   28.5070   30.1170 N   0  0  0  0  0  0  0  0  0  0  0  0
   36.0190   29.2870   30.5890 H   0  0  0  0  0  0  0  0  0  0  0  0
   36.0540   28.3660   32.9200 H   0  0  0  0  0  0  0  0  0  0  0  0
   39.8640   27.6110   29.9480 H   0  0  0  0  0  0  0  0  0  0  0  0
   38.1510   24.3520   37.1780 C   0  0  0  0  0  0  0  0  0  0  0  0
   37.1670   23.4120   36.9020 F   0  0  0  0  0  0  0  0  0  0  0  0
   38.0730   24.8870   38.4300 F   0  0  0  0  0  0  0  0  0  0  0  0
   39.3500   23.6600   37.0510 F   0  0  0  0  0  0  0  0  0  0  0  0
  1  5  1  0  0  0  0
  1  2  2  0  0  0  0
  2  6  1  0  0  0  0
  2  3  1  0  0  0  0
  3  7  1  0  0  0  0
  4  3  2  0  0  0  0
  4 17  1  0  0  0  0
  5  4  1  0  0  0  0
  8  9  1  0  0  0  0
  9 10  2  0  0  0  0
  9 15  1  0  0  0  0
 10  1  1  0  0  0  0
 11 10  1  0  0  0  0
 12 11  2  0  0  0  0
 13 12  1  0  0  0  0
 13  8  2  0  0  0  0
 14  8  1  0  0  0  0
 16 12  1  0  0  0  0
 17 19  1  0  0  0  0
 18 17  1  0  0  0  0
 20 17  1  0  0  0  0
M  END
>  <minimizedAffinity>
-4.31210327

$$$$

 OpenBabel03272503183D

 20 21  0  0  0  0  0  0  0  0999 V2000
   37.9560   25.6290   35.1240 C   0  0  0  0  0  0  0  0  0  0  0  0
   37.4820   26.8620   35.3300 C   0  0  0  0  0  0  0  0  0  0  0  0
   36.9870   27.5880   34.3170 C   0  0  0  0  0  0  0  0  0  0  0  0
   37.0020   26.9880   33.0660 C   0  0  0  0  0  0  0  0  0  0  0  0
   37.7530   25.3420   33.4160 S   0  0  0  0  0  0  0  0  0  0  0  0
   37.5060   27.2690   36.3580 H   0  0  0  0  0  0  0  0  0  0  0  0
   36.5780   28.5870   34.3490 H   0  0  0  0  0  0  0  0  0  0  0  0
   40.1270   23.0200   36.7430 C   0  0  0  0  0  0  0  0  0  0  0  0
   39.6660   23.9090   35.7680 C   0  0  0  0  0  0  0  0  0  0  0  0
   38.5360   24.6640   36.0630 C   0  0  0  0  0  0  0  0  0  0  0  0
   37.9440   24.5050   37.2620 N   0  0  0  0  0  0  0  0  0  0  0  0
   38.4010   23.6490   38.1820 C   0  0  0  0  0  0  0  0  0  0  0  0
   39.4910   22.9080   37.9200 N   0  0  0  0  0  0  0  0  0  0  0  0
   41.0040   22.4430   36.4970 H   0  0  0  0  0  0  0  0  0  0  0  0
   40.1140   24.0590   34.8010 H   0  0  0  0  0  0  0  0  0  0  0  0
   37.8690   23.5810   39.1190 H   0  0  0  0  0  0  0  0  0  0  0  0
   36.5520   27.4610   31.7390 C   0  0  0  0  0  0  0  0  0  0  0  0
   35.3090   28.0750   31.8110 F   0  0  0  0  0  0  0  0  0  0  0  0
   36.6080   26.4240   30.8550 F   0  0  0  0  0  0  0  0  0  0  0  0
   37.4210   28.4620   31.3240 F   0  0  0  0  0  0  0  0  0  0  0  0
  1  2  2  0  0  0  0
  1 10  1  0  0  0  0
  2  6  1  0  0  0  0
  3  7  1  0  0  0  0
  3  2  1  0  0  0  0
  4  5  1  0  0  0  0
  4  3  2  0  0  0  0
  5  1  1  0  0  0  0
  8 13  1  0  0  0  0
  9 10  1  0  0  0  0
  9  8  2  0  0  0  0
 10 11  2  0  0  0  0
 11 12  1  0  0  0  0
 12 16  1  0  0  0  0
 13 12  2  0  0  0  0
 14  8  1  0  0  0  0
 15  9  1  0  0  0  0
 17 18  1  0  0  0  0
 17  4  1  0  0  0  0
 19 17  1  0  0  0  0
 20 17  1  0  0  0  0
M  END
>  <minimizedAffinity>
-4.24317741

$$$$

 OpenBabel03272503183D

 20 21  0  0  0  0  0  0  0  0999 V2000
   39.5890   26.5790   34.5530 C   0  0  0  0  0  0  0  0  0  0  0  0
   38.8080   27.2600   35.3980 C   0  0  0  0  0  0  0  0  0  0  0  0
   38.2360   26.6520   36.4480 C   0  0  0  0  0  0  0  0  0  0  0  0
   38.5030   25.2990   36.5960 C   0  0  0  0  0  0  0  0  0  0  0  0
   39.6080   24.9460   35.1640 S   0  0  0  0  0  0  0  0  0  0  0  0
   38.6440   28.3370   35.2100 H   0  0  0  0  0  0  0  0  0  0  0  0
   37.5890   27.0840   37.1980 H   0  0  0  0  0  0  0  0  0  0  0  0
   40.5070   27.5200   31.0290 C   0  0  0  0  0  0  0  0  0  0  0  0
   39.7200   27.0790   32.0980 C   0  0  0  0  0  0  0  0  0  0  0  0
   40.3090   27.0240   33.3560 C   0  0  0  0  0  0  0  0  0  0  0  0
   41.5980   27.3930   33.4860 N   0  0  0  0  0  0  0  0  0  0  0  0
   42.3340   27.8120   32.4510 C   0  0  0  0  0  0  0  0  0  0  0  0
   41.7870   27.8750   31.2260 N   0  0  0  0  0  0  0  0  0  0  0  0
   40.0330   27.5570   30.0610 H   0  0  0  0  0  0  0  0  0  0  0  0
   38.6890   26.7770   32.0280 H   0  0  0  0  0  0  0  0  0  0  0  0
   43.3600   28.0910   32.6400 H   0  0  0  0  0  0  0  0  0  0  0  0
   38.0670   24.3110   37.6070 C   0  0  0  0  0  0  0  0  0  0  0  0
   36.9820   23.5680   37.1590 F   0  0  0  0  0  0  0  0  0  0  0  0
   37.8510   24.9520   38.7900 F   0  0  0  0  0  0  0  0  0  0  0  0
   39.0910   23.3850   37.7690 F   0  0  0  0  0  0  0  0  0  0  0  0
  1  5  1  0  0  0  0
  1  2  2  0  0  0  0
  2  3  1  0  0  0  0
  3  4  2  0  0  0  0
  3  7  1  0  0  0  0
  4 17  1  0  0  0  0
  5  4  1  0  0  0  0
  6  2  1  0  0  0  0
  8 13  2  0  0  0  0
  8  9  1  0  0  0  0
  9 10  2  0  0  0  0
 10 11  1  0  0  0  0
 10  1  1  0  0  0  0
 12 16  1  0  0  0  0
 12 11  2  0  0  0  0
 13 12  1  0  0  0  0
 14  8  1  0  0  0  0
 15  9  1  0  0  0  0
 17 20  1  0  0  0  0
 17 19  1  0  0  0  0
 18 17  1  0  0  0  0
M  END
>  <minimizedAffinity>
-4.21618271

$$$$
