
 OpenBabel03272509503D

 28 29  0  0  0  0  0  0  0  0999 V2000
   33.7940   28.6430   48.7270 C   0  0  0  0  0  0  0  0  0  0  0  0
   33.1350   29.4700   49.1220 H   0  0  0  0  0  0  0  0  0  0  0  0
   34.3240   29.0560   47.8620 H   0  0  0  0  0  0  0  0  0  0  0  0
   32.8920   27.4830   48.4080 C   0  0  0  0  0  0  0  0  0  0  0  0
   32.9930   26.7090   49.2130 H   0  0  0  0  0  0  0  0  0  0  0  0
   33.2590   26.9560   47.4820 H   0  0  0  0  0  0  0  0  0  0  0  0
   31.4680   27.8810   48.3050 C   0  0  0  0  0  0  0  0  0  0  0  0
   30.6890   27.7280   49.4280 C   0  0  0  0  0  0  0  0  0  0  0  0
   29.3580   28.0590   49.4610 C   0  0  0  0  0  0  0  0  0  0  0  0
   28.7810   28.5530   48.3590 N   0  0  0  0  0  0  0  0  0  0  0  0
   29.5460   28.7030   47.2570 C   0  0  0  0  0  0  0  0  0  0  0  0
   30.8530   28.3820   47.2120 N   0  0  0  0  0  0  0  0  0  0  0  0
   31.1020   27.3300   50.3600 H   0  0  0  0  0  0  0  0  0  0  0  0
   28.7270   27.9410   50.3550 H   0  0  0  0  0  0  0  0  0  0  0  0
   29.1180   29.0980   46.3490 H   0  0  0  0  0  0  0  0  0  0  0  0
   34.6650   28.3000   49.7920 O   0  0  0  0  0  0  0  0  0  0  0  0
   37.3320   30.2040   51.3310 C   0  0  0  0  0  0  0  0  0  0  0  0
   37.8530   30.8640   50.2100 C   0  0  0  0  0  0  0  0  0  0  0  0
   37.2410   30.6060   48.9840 C   0  0  0  0  0  0  0  0  0  0  0  0
   36.1890   29.7380   48.9550 N   0  0  0  0  0  0  0  0  0  0  0  0
   35.7250   29.1280   50.0520 C   0  0  0  0  0  0  0  0  0  0  0  0
   36.3050   29.3680   51.2390 N   0  0  0  0  0  0  0  0  0  0  0  0
   37.8300   30.4260   52.2700 H   0  0  0  0  0  0  0  0  0  0  0  0
   38.6890   31.5480   50.2650 H   0  0  0  0  0  0  0  0  0  0  0  0
   37.7250   31.2670   47.7210 C   0  0  0  0  0  0  0  0  0  0  0  0
   37.9970   32.5930   48.0800 F   0  0  0  0  0  0  0  0  0  0  0  0
   38.8740   30.6310   47.2660 F   0  0  0  0  0  0  0  0  0  0  0  0
   36.7280   31.1740   46.7960 F   0  0  0  0  0  0  0  0  0  0  0  0
  1  2  1  0  0  0  0
  1 16  1  0  0  0  0
  3  1  1  0  0  0  0
  4  1  1  0  0  0  0
  4  5  1  0  0  0  0
  6  4  1  0  0  0  0
  7  4  1  0  0  0  0
  7  8  1  0  0  0  0
  8  9  2  0  0  0  0
  8 13  1  0  0  0  0
  9 14  1  0  0  0  0
 10  9  1  0  0  0  0
 11 10  2  0  0  0  0
 12 11  1  0  0  0  0
 12  7  2  0  0  0  0
 15 11  1  0  0  0  0
 16 21  1  0  0  0  0
 17 23  1  0  0  0  0
 18 24  1  0  0  0  0
 18 17  2  0  0  0  0
 19 18  1  0  0  0  0
 20 19  2  0  0  0  0
 20 21  1  0  0  0  0
 21 22  2  0  0  0  0
 22 17  1  0  0  0  0
 25 26  1  0  0  0  0
 25 19  1  0  0  0  0
 27 25  1  0  0  0  0
 28 25  1  0  0  0  0
M  END
>  <minimizedAffinity>
-5.18271923

>  <minimizedRMSD>
0.473516136

$$$$
