
 OpenBabel03272508233D

 44 44  0  0  1  0  0  0  0  0999 V2000
   38.0690   27.4360   35.5000 C   0  0  0  0  0  0  0  0  0  0  0  0
   38.4630   28.4560   35.2050 H   0  0  0  0  0  0  0  0  0  0  0  0
   37.7140   27.6030   36.5380 H   0  0  0  0  0  0  0  0  0  0  0  0
   37.6000   24.7950   36.2520 F   0  0  0  0  0  0  0  0  0  0  0  0
   38.8090   25.1830   35.7380 C   0  0  0  0  0  0  0  0  0  0  0  0
   39.1080   26.4930   35.3290 C   0  0  0  0  0  0  0  0  0  0  0  0
   40.3350   26.6660   34.8510 C   0  0  0  0  0  0  0  0  0  0  0  0
   41.2760   25.6810   34.7410 C   0  0  0  0  0  0  0  0  0  0  0  0
   40.9910   24.3790   35.1440 C   0  0  0  0  0  0  0  0  0  0  0  0
   39.7410   24.1980   35.6320 C   0  0  0  0  0  0  0  0  0  0  0  0
   40.5840   27.6900   34.5260 H   0  0  0  0  0  0  0  0  0  0  0  0
   42.2550   25.9490   34.3290 H   0  0  0  0  0  0  0  0  0  0  0  0
   42.0010   23.3230   35.0250 C   0  0  0  0  0  0  0  0  0  0  0  0
   41.5800   22.4150   34.5080 H   0  0  0  0  0  0  0  0  0  0  0  0
   42.8420   23.6610   34.3900 H   0  0  0  0  0  0  0  0  0  0  0  0
   42.3560   23.0570   36.0220 H   0  0  0  0  0  0  0  0  0  0  0  0
   39.4560   22.8540   36.0510 O   0  0  0  0  0  0  0  0  0  0  0  0
   39.8760   22.5440   37.3150 C   0  0  0  0  0  2  0  0  0  0  0  0
   39.3170   23.2460   38.2170 O   0  0  0  0  0  1  0  0  0  0  0  0
   40.7830   21.6270   37.8420 N   0  0  0  0  0  1  0  0  0  0  0  0
   41.6550   21.8900   38.3960 H   0  0  0  0  0 15  0  0  0  0  0  0
   41.5540   21.1020   38.3010 H   0  0  0  0  0  0  0  0  0  0  0  0
   36.8380   27.2570   34.6810 C   0  0  0  0  0  0  0  0  0  0  0  0
   36.7080   26.1760   34.4720 H   0  0  0  0  0  0  0  0  0  0  0  0
   35.9930   27.5380   35.3790 H   0  0  0  0  0  0  0  0  0  0  0  0
   35.8750   29.0460   33.3360 C   0  0  0  0  0  0  0  0  0  0  0  0
   36.7680   28.0170   33.4690 C   0  0  0  0  0  0  0  0  0  0  0  0
   37.5390   27.8060   32.3900 C   0  0  0  0  0  0  0  0  0  0  0  0
   37.4400   28.5420   31.2780 N   0  0  0  0  0  0  0  0  0  0  0  0
   36.5690   29.5540   31.1360 C   0  0  0  0  0  0  0  0  0  0  0  0
   35.7750   29.8120   32.1750 N   0  0  0  0  0  0  0  0  0  0  0  0
   38.2910   27.0200   32.3590 H   0  0  0  0  0  0  0  0  0  0  0  0
   36.5530   30.1000   30.2050 H   0  0  0  0  0  0  0  0  0  0  0  0
   34.9090   29.4210   34.4430 C   0  0  1  0  0  0  0  0  0  0  0  0
   34.5900   30.7800   34.6980 C   0  0  0  0  0  0  0  0  0  0  0  0
   33.5940   29.9470   33.8830 C   0  0  2  0  0  0  0  0  0  0  0  0
   34.8000   28.6780   35.2290 H   0  0  0  0  0  0  0  0  0  0  0  0
   35.1040   31.6020   34.1630 H   0  0  0  0  0  0  0  0  0  0  0  0
   34.2830   31.0750   35.7450 H   0  0  0  0  0  0  0  0  0  0  0  0
   33.5270   30.2050   32.8080 H   0  0  0  0  0  0  0  0  0  0  0  0
   32.3190   29.6040   34.5730 C   0  0  0  0  0  0  0  0  0  0  0  0
   31.6600   30.7880   34.9080 F   0  0  0  0  0  0  0  0  0  0  0  0
   32.5930   28.9780   35.7690 F   0  0  0  0  0  0  0  0  0  0  0  0
   31.5330   28.8250   33.7500 F   0  0  0  0  0  0  0  0  0  0  0  0
  1  3  1  0  0  0  0
  2  1  1  0  0  0  0
  5  4  1  0  0  0  0
  6  1  1  0  0  0  0
  6  5  2  0  0  0  0
  7  6  1  0  0  0  0
  8  7  2  0  0  0  0
  8  9  1  0  0  0  0
  9 10  2  0  0  0  0
 10  5  1  0  0  0  0
 10 17  1  0  0  0  0
 11  7  1  0  0  0  0
 12  8  1  0  0  0  0
 13  9  1  0  0  0  0
 13 16  1  0  0  0  0
 14 13  1  0  0  0  0
 15 13  1  0  0  0  0
 17 18  1  0  0  0  0
 18 19  1  0  0  0  0
 20 22  1  0  0  0  0
 23 25  1  0  0  0  0
 23  1  1  0  0  0  0
 24 23  1  0  0  0  0
 26 27  1  0  0  0  0
 26 34  1  0  0  0  0
 27 23  1  0  0  0  0
 28 27  2  0  0  0  0
 29 28  1  0  0  0  0
 30 29  2  0  0  0  0
 30 31  1  0  0  0  0
 31 26  2  0  0  0  0
 32 28  1  0  0  0  0
 33 30  1  0  0  0  0
 34 35  1  0  0  0  0
 34 37  1  1  0  0  0
 35 39  1  0  0  0  0
 36 40  1  6  0  0  0
 36 34  1  0  0  0  0
 36 41  1  0  0  0  0
 36 35  1  0  0  0  0
 38 35  1  0  0  0  0
 41 42  1  0  0  0  0
 41 43  1  0  0  0  0
 44 41  1  0  0  0  0
M  END
>  <minimizedAffinity>
-6.23956871

$$$$

 OpenBabel03272508233D

 44 44  0  0  1  0  0  0  0  0999 V2000
   39.1740   27.0740   34.2420 C   0  0  0  0  0  0  0  0  0  0  0  0
   39.9300   27.8700   34.5220 H   0  0  0  0  0  0  0  0  0  0  0  0
   38.2260   27.4880   34.6410 H   0  0  0  0  0  0  0  0  0  0  0  0
   37.3540   25.5620   35.7110 F   0  0  0  0  0  0  0  0  0  0  0  0
   38.6420   25.1360   35.5240 C   0  0  0  0  0  0  0  0  0  0  0  0
   39.6070   25.8430   34.7860 C   0  0  0  0  0  0  0  0  0  0  0  0
   40.7970   25.2590   34.7150 C   0  0  0  0  0  0  0  0  0  0  0  0
   41.1170   24.0640   35.2950 C   0  0  0  0  0  0  0  0  0  0  0  0
   40.1700   23.3550   36.0290 C   0  0  0  0  0  0  0  0  0  0  0  0
   38.9540   23.9460   36.1050 C   0  0  0  0  0  0  0  0  0  0  0  0
   41.5650   25.8030   34.1390 H   0  0  0  0  0  0  0  0  0  0  0  0
   42.1370   23.6860   35.1640 H   0  0  0  0  0  0  0  0  0  0  0  0
   40.5140   22.0730   36.6500 C   0  0  0  0  0  0  0  0  0  0  0  0
   39.7540   21.2820   36.3960 H   0  0  0  0  0  0  0  0  0  0  0  0
   41.4760   21.6960   36.2550 H   0  0  0  0  0  0  0  0  0  0  0  0
   40.5710   22.2060   37.7320 H   0  0  0  0  0  0  0  0  0  0  0  0
   37.9830   23.2130   36.8690 O   0  0  0  0  0  0  0  0  0  0  0  0
   38.0640   23.3900   38.2220 C   0  0  0  0  0  2  0  0  0  0  0  0
   37.8930   24.5980   38.5830 O   0  0  0  0  0  1  0  0  0  0  0  0
   38.2910   22.5410   39.3030 N   0  0  0  0  0  1  0  0  0  0  0  0
   39.1180   22.6210   39.9710 H   0  0  0  0  0 15  0  0  0  0  0  0
   38.6190   22.0170   40.1390 H   0  0  0  0  0  0  0  0  0  0  0  0
   39.0600   27.1670   32.7600 C   0  0  0  0  0  0  0  0  0  0  0  0
   39.1270   28.2350   32.4690 H   0  0  0  0  0  0  0  0  0  0  0  0
   40.0080   26.6850   32.3750 H   0  0  0  0  0  0  0  0  0  0  0  0
   36.7310   27.2490   32.0500 C   0  0  0  0  0  0  0  0  0  0  0  0
   37.9050   26.5560   32.1740 C   0  0  0  0  0  0  0  0  0  0  0  0
   37.8620   25.2980   31.7060 C   0  0  0  0  0  0  0  0  0  0  0  0
   36.7600   24.7680   31.1650 N   0  0  0  0  0  0  0  0  0  0  0  0
   35.6040   25.4370   31.0370 C   0  0  0  0  0  0  0  0  0  0  0  0
   35.5840   26.6930   31.4830 N   0  0  0  0  0  0  0  0  0  0  0  0
   38.7250   24.6350   31.7430 H   0  0  0  0  0  0  0  0  0  0  0  0
   34.7590   24.9360   30.5870 H   0  0  0  0  0  0  0  0  0  0  0  0
   36.5840   28.6770   32.5370 C   0  0  1  0  0  0  0  0  0  0  0  0
   35.8330   29.6240   31.7940 C   0  0  0  0  0  0  0  0  0  0  0  0
   35.1630   28.9640   33.0050 C   0  0  2  0  0  0  0  0  0  0  0  0
   37.3610   29.0120   33.2200 H   0  0  0  0  0  0  0  0  0  0  0  0
   35.4150   29.3740   30.7990 H   0  0  0  0  0  0  0  0  0  0  0  0
   36.1030   30.7180   31.8840 H   0  0  0  0  0  0  0  0  0  0  0  0
   34.3580   28.2420   32.7680 H   0  0  0  0  0  0  0  0  0  0  0  0
   34.9490   29.8460   34.1870 C   0  0  0  0  0  0  0  0  0  0  0  0
   33.8870   29.3380   34.9360 F   0  0  0  0  0  0  0  0  0  0  0  0
   34.5450   31.0940   33.7660 F   0  0  0  0  0  0  0  0  0  0  0  0
   36.0990   29.9030   34.9460 F   0  0  0  0  0  0  0  0  0  0  0  0
  1  2  1  0  0  0  0
  1  3  1  0  0  0  0
  1  6  1  0  0  0  0
  5  4  1  0  0  0  0
  5 10  1  0  0  0  0
  6  5  2  0  0  0  0
  7  6  1  0  0  0  0
  7  8  2  0  0  0  0
  8  9  1  0  0  0  0
  9 10  2  0  0  0  0
  9 13  1  0  0  0  0
 10 17  1  0  0  0  0
 11  7  1  0  0  0  0
 12  8  1  0  0  0  0
 13 16  1  0  0  0  0
 14 13  1  0  0  0  0
 15 13  1  0  0  0  0
 17 18  1  0  0  0  0
 18 19  1  0  0  0  0
 20 22  1  0  0  0  0
 23  1  1  0  0  0  0
 24 23  1  0  0  0  0
 25 23  1  0  0  0  0
 26 27  1  0  0  0  0
 26 34  1  0  0  0  0
 27 23  1  0  0  0  0
 28 32  1  0  0  0  0
 28 27  2  0  0  0  0
 29 28  1  0  0  0  0
 30 29  2  0  0  0  0
 30 31  1  0  0  0  0
 31 26  2  0  0  0  0
 33 30  1  0  0  0  0
 34 36  1  0  0  0  0
 34 37  1  1  0  0  0
 35 39  1  0  0  0  0
 35 34  1  0  0  0  0
 35 36  1  0  0  0  0
 36 40  1  6  0  0  0
 36 41  1  0  0  0  0
 38 35  1  0  0  0  0
 41 42  1  0  0  0  0
 41 44  1  0  0  0  0
 43 41  1  0  0  0  0
M  END
>  <minimizedAffinity>
-6.11043739

$$$$

 OpenBabel03272508233D

 44 44  0  0  1  0  0  0  0  0999 V2000
   40.0440   26.5500   32.9870 C   0  0  0  0  0  0  0  0  0  0  0  0
   40.3510   25.5830   32.4850 H   0  0  0  0  0  0  0  0  0  0  0  0
   40.9920   27.1260   33.0070 H   0  0  0  0  0  0  0  0  0  0  0  0
   39.7880   23.8680   33.6890 F   0  0  0  0  0  0  0  0  0  0  0  0
   39.3580   24.8630   34.5250 C   0  0  0  0  0  0  0  0  0  0  0  0
   39.4670   26.2350   34.2390 C   0  0  0  0  0  0  0  0  0  0  0  0
   38.9970   27.0440   35.1810 C   0  0  0  0  0  0  0  0  0  0  0  0
   38.4410   26.6310   36.3590 C   0  0  0  0  0  0  0  0  0  0  0  0
   38.3270   25.2750   36.6530 C   0  0  0  0  0  0  0  0  0  0  0  0
   38.8040   24.4460   35.6950 C   0  0  0  0  0  0  0  0  0  0  0  0
   39.0760   28.1230   34.9700 H   0  0  0  0  0  0  0  0  0  0  0  0
   38.0890   27.3980   37.0580 H   0  0  0  0  0  0  0  0  0  0  0  0
   37.7300   24.8330   37.9170 C   0  0  0  0  0  0  0  0  0  0  0  0
   38.3910   24.0830   38.4380 H   0  0  0  0  0  0  0  0  0  0  0  0
   37.6370   25.6820   38.6190 H   0  0  0  0  0  0  0  0  0  0  0  0
   36.7520   24.3940   37.7140 H   0  0  0  0  0  0  0  0  0  0  0  0
   38.6790   23.0480   36.0020 O   0  0  0  0  0  0  0  0  0  0  0  0
   39.7560   22.5000   36.6400 C   0  0  0  0  0  2  0  0  0  0  0  0
   40.6290   22.0310   35.8420 O   0  0  0  0  0  1  0  0  0  0  0  0
   40.1170   22.3370   37.9760 N   0  0  0  0  0  1  0  0  0  0  0  0
   40.2710   21.3950   38.4500 H   0  0  0  0  0 15  0  0  0  0  0  0
   40.3810   22.0250   38.9320 H   0  0  0  0  0  0  0  0  0  0  0  0
   39.1800   27.2360   31.9860 C   0  0  0  0  0  0  0  0  0  0  0  0
   38.9760   28.2660   32.3440 H   0  0  0  0  0  0  0  0  0  0  0  0
   39.8430   27.3530   31.0770 H   0  0  0  0  0  0  0  0  0  0  0  0
   36.7510   27.1920   31.8080 C   0  0  0  0  0  0  0  0  0  0  0  0
   37.9590   26.5710   31.6420 C   0  0  0  0  0  0  0  0  0  0  0  0
   37.8820   25.3270   31.1420 C   0  0  0  0  0  0  0  0  0  0  0  0
   36.7190   24.7450   30.8330 N   0  0  0  0  0  0  0  0  0  0  0  0
   35.5280   25.3440   30.9910 C   0  0  0  0  0  0  0  0  0  0  0  0
   35.5390   26.5820   31.4850 N   0  0  0  0  0  0  0  0  0  0  0  0
   38.7670   24.7190   30.9600 H   0  0  0  0  0  0  0  0  0  0  0  0
   34.6330   24.8040   30.7170 H   0  0  0  0  0  0  0  0  0  0  0  0
   36.6370   28.5930   32.3770 C   0  0  1  0  0  0  0  0  0  0  0  0
   35.8190   29.5670   31.7490 C   0  0  0  0  0  0  0  0  0  0  0  0
   35.2600   28.8410   32.9790 C   0  0  2  0  0  0  0  0  0  0  0  0
   37.4680   28.9020   33.0060 H   0  0  0  0  0  0  0  0  0  0  0  0
   35.3180   29.3610   30.7830 H   0  0  0  0  0  0  0  0  0  0  0  0
   36.0880   30.6580   31.8700 H   0  0  0  0  0  0  0  0  0  0  0  0
   34.4420   28.1240   32.7770 H   0  0  0  0  0  0  0  0  0  0  0  0
   35.1440   29.6620   34.2180 C   0  0  0  0  0  0  0  0  0  0  0  0
   34.0050   29.2560   34.9160 F   0  0  0  0  0  0  0  0  0  0  0  0
   34.9250   30.9800   33.8810 F   0  0  0  0  0  0  0  0  0  0  0  0
   36.2730   29.5070   34.9930 F   0  0  0  0  0  0  0  0  0  0  0  0
  1  3  1  0  0  0  0
  1  6  1  0  0  0  0
  2  1  1  0  0  0  0
  4  5  1  0  0  0  0
  5 10  1  0  0  0  0
  6  5  2  0  0  0  0
  6  7  1  0  0  0  0
  7  8  2  0  0  0  0
  8  9  1  0  0  0  0
  8 12  1  0  0  0  0
  9 13  1  0  0  0  0
 10 17  1  0  0  0  0
 10  9  2  0  0  0  0
 11  7  1  0  0  0  0
 13 14  1  0  0  0  0
 13 15  1  0  0  0  0
 16 13  1  0  0  0  0
 17 18  1  0  0  0  0
 19 18  1  0  0  0  0
 20 22  1  0  0  0  0
 23 24  1  0  0  0  0
 23  1  1  0  0  0  0
 25 23  1  0  0  0  0
 26 34  1  0  0  0  0
 27 26  1  0  0  0  0
 27 23  1  0  0  0  0
 28 27  2  0  0  0  0
 29 30  2  0  0  0  0
 29 28  1  0  0  0  0
 30 31  1  0  0  0  0
 31 26  2  0  0  0  0
 32 28  1  0  0  0  0
 33 30  1  0  0  0  0
 34 36  1  0  0  0  0
 34 37  1  1  0  0  0
 35 39  1  0  0  0  0
 35 34  1  0  0  0  0
 35 36  1  0  0  0  0
 36 40  1  6  0  0  0
 36 41  1  0  0  0  0
 38 35  1  0  0  0  0
 41 42  1  0  0  0  0
 41 44  1  0  0  0  0
 43 41  1  0  0  0  0
M  END
>  <minimizedAffinity>
-5.93696547

$$$$

 OpenBabel03272508233D

 44 44  0  0  1  0  0  0  0  0999 V2000
   37.9200   27.4450   35.6120 C   0  0  0  0  0  0  0  0  0  0  0  0
   38.2840   28.5090   35.4760 H   0  0  0  0  0  0  0  0  0  0  0  0
   37.5070   27.4600   36.6420 H   0  0  0  0  0  0  0  0  0  0  0  0
   37.6390   24.7630   36.3080 F   0  0  0  0  0  0  0  0  0  0  0  0
   38.8020   25.2360   35.7600 C   0  0  0  0  0  0  0  0  0  0  0  0
   39.0060   26.5720   35.3770 C   0  0  0  0  0  0  0  0  0  0  0  0
   40.2010   26.8310   34.8590 C   0  0  0  0  0  0  0  0  0  0  0  0
   41.1950   25.9080   34.6880 C   0  0  0  0  0  0  0  0  0  0  0  0
   41.0040   24.5820   35.0650 C   0  0  0  0  0  0  0  0  0  0  0  0
   39.7870   24.3130   35.5940 C   0  0  0  0  0  0  0  0  0  0  0  0
   40.3760   27.8760   34.5540 H   0  0  0  0  0  0  0  0  0  0  0  0
   42.1400   26.2460   34.2480 H   0  0  0  0  0  0  0  0  0  0  0  0
   42.0700   23.5930   34.8800 C   0  0  0  0  0  0  0  0  0  0  0  0
   41.6840   22.6730   34.3550 H   0  0  0  0  0  0  0  0  0  0  0  0
   42.8640   23.9960   34.2250 H   0  0  0  0  0  0  0  0  0  0  0  0
   42.4780   23.3240   35.8560 H   0  0  0  0  0  0  0  0  0  0  0  0
   39.5980   22.9440   35.9860 O   0  0  0  0  0  0  0  0  0  0  0  0
   39.7940   22.6940   37.3160 C   0  0  0  0  0  2  0  0  0  0  0  0
   40.8620   22.0450   37.5540 O   0  0  0  0  0  1  0  0  0  0  0  0
   39.0850   22.9930   38.4770 N   0  0  0  0  0  1  0  0  0  0  0  0
   38.6780   22.2650   39.1410 H   0  0  0  0  0 15  0  0  0  0  0  0
   38.5430   23.0210   39.3650 H   0  0  0  0  0  0  0  0  0  0  0  0
   36.7410   27.3330   34.7090 C   0  0  0  0  0  0  0  0  0  0  0  0
   36.9470   26.5430   33.9590 H   0  0  0  0  0  0  0  0  0  0  0  0
   35.9200   26.9210   35.3700 H   0  0  0  0  0  0  0  0  0  0  0  0
   36.3370   28.6540   32.7030 C   0  0  0  0  0  0  0  0  0  0  0  0
   36.3170   28.5410   34.0670 C   0  0  0  0  0  0  0  0  0  0  0  0
   35.8760   29.6330   34.7110 C   0  0  0  0  0  0  0  0  0  0  0  0
   35.4890   30.7410   34.0690 N   0  0  0  0  0  0  0  0  0  0  0  0
   35.5030   30.8640   32.7320 C   0  0  0  0  0  0  0  0  0  0  0  0
   35.9310   29.8110   32.0370 N   0  0  0  0  0  0  0  0  0  0  0  0
   35.8090   29.6800   35.7960 H   0  0  0  0  0  0  0  0  0  0  0  0
   35.1730   31.7930   32.2920 H   0  0  0  0  0  0  0  0  0  0  0  0
   36.8200   27.5300   31.8080 C   0  0  1  0  0  0  0  0  0  0  0  0
   37.0890   27.7590   30.4340 C   0  0  0  0  0  0  0  0  0  0  0  0
   38.2760   27.7230   31.4050 C   0  0  2  0  0  0  0  0  0  0  0  0
   36.5770   26.5290   32.1560 H   0  0  0  0  0  0  0  0  0  0  0  0
   36.8670   28.7360   29.9600 H   0  0  0  0  0  0  0  0  0  0  0  0
   36.9850   26.8970   29.7120 H   0  0  0  0  0  0  0  0  0  0  0  0
   38.7660   28.6980   31.5930 H   0  0  0  0  0  0  0  0  0  0  0  0
   39.1660   26.5330   31.2950 C   0  0  0  0  0  0  0  0  0  0  0  0
   40.4780   26.9310   31.5580 F   0  0  0  0  0  0  0  0  0  0  0  0
   39.1690   26.0760   29.9950 F   0  0  0  0  0  0  0  0  0  0  0  0
   38.7640   25.5600   32.1840 F   0  0  0  0  0  0  0  0  0  0  0  0
  1  3  1  0  0  0  0
  2  1  1  0  0  0  0
  5  4  1  0  0  0  0
  6  1  1  0  0  0  0
  6  5  2  0  0  0  0
  7  6  1  0  0  0  0
  8  7  2  0  0  0  0
  8  9  1  0  0  0  0
  9 10  2  0  0  0  0
 10  5  1  0  0  0  0
 10 17  1  0  0  0  0
 11  7  1  0  0  0  0
 12  8  1  0  0  0  0
 13  9  1  0  0  0  0
 13 16  1  0  0  0  0
 14 13  1  0  0  0  0
 15 13  1  0  0  0  0
 17 18  1  0  0  0  0
 18 19  1  0  0  0  0
 20 22  1  0  0  0  0
 23 25  1  0  0  0  0
 23  1  1  0  0  0  0
 24 23  1  0  0  0  0
 26 27  1  0  0  0  0
 27 23  1  0  0  0  0
 27 28  2  0  0  0  0
 28 32  1  0  0  0  0
 29 28  1  0  0  0  0
 30 29  2  0  0  0  0
 31 26  2  0  0  0  0
 31 30  1  0  0  0  0
 33 30  1  0  0  0  0
 34 37  1  1  0  0  0
 34 26  1  0  0  0  0
 35 36  1  0  0  0  0
 35 34  1  0  0  0  0
 36 40  1  1  0  0  0
 36 34  1  0  0  0  0
 38 35  1  0  0  0  0
 39 35  1  0  0  0  0
 41 36  1  0  0  0  0
 41 42  1  0  0  0  0
 41 44  1  0  0  0  0
 43 41  1  0  0  0  0
M  END
>  <minimizedAffinity>
-5.82545996

$$$$

 OpenBabel03272508233D

 44 44  0  0  1  0  0  0  0  0999 V2000
   36.9890   27.1020   33.6250 C   0  0  0  0  0  0  0  0  0  0  0  0
   37.4260   26.2920   32.9650 H   0  0  0  0  0  0  0  0  0  0  0  0
   36.1180   26.5960   34.0880 H   0  0  0  0  0  0  0  0  0  0  0  0
   35.5700   29.2200   34.7450 F   0  0  0  0  0  0  0  0  0  0  0  0
   35.9850   29.2560   33.4410 C   0  0  0  0  0  0  0  0  0  0  0  0
   36.7130   28.2290   32.8170 C   0  0  0  0  0  0  0  0  0  0  0  0
   37.0280   28.4560   31.5470 C   0  0  0  0  0  0  0  0  0  0  0  0
   36.6960   29.5830   30.8500 C   0  0  0  0  0  0  0  0  0  0  0  0
   35.9740   30.6070   31.4570 C   0  0  0  0  0  0  0  0  0  0  0  0
   35.6510   30.3800   32.7520 C   0  0  0  0  0  0  0  0  0  0  0  0
   37.6000   27.6580   31.0450 H   0  0  0  0  0  0  0  0  0  0  0  0
   37.0150   29.6530   29.8040 H   0  0  0  0  0  0  0  0  0  0  0  0
   35.6200   31.8160   30.7080 C   0  0  0  0  0  0  0  0  0  0  0  0
   35.9010   32.7450   31.2800 H   0  0  0  0  0  0  0  0  0  0  0  0
   36.1900   31.8670   29.7620 H   0  0  0  0  0  0  0  0  0  0  0  0
   34.5460   31.8090   30.5090 H   0  0  0  0  0  0  0  0  0  0  0  0
   34.9000   31.4370   33.3720 O   0  0  0  0  0  0  0  0  0  0  0  0
   35.5770   32.1360   34.3320 C   0  0  0  0  0  2  0  0  0  0  0  0
   36.4400   32.9400   33.8550 O   0  0  0  0  0  1  0  0  0  0  0  0
   35.5350   32.1680   35.7240 N   0  0  0  0  0  1  0  0  0  0  0  0
   36.3520   31.9130   36.3590 H   0  0  0  0  0 15  0  0  0  0  0  0
   35.6890   32.1320   36.7520 H   0  0  0  0  0  0  0  0  0  0  0  0
   37.9830   27.2710   34.7210 C   0  0  0  0  0  0  0  0  0  0  0  0
   38.2100   28.3510   34.8270 H   0  0  0  0  0  0  0  0  0  0  0  0
   37.4190   26.9820   35.6590 H   0  0  0  0  0  0  0  0  0  0  0  0
   39.3500   25.3350   35.2860 C   0  0  0  0  0  0  0  0  0  0  0  0
   39.1920   26.5110   34.6030 C   0  0  0  0  0  0  0  0  0  0  0  0
   40.2420   26.8610   33.8440 C   0  0  0  0  0  0  0  0  0  0  0  0
   41.3510   26.1180   33.7620 N   0  0  0  0  0  0  0  0  0  0  0  0
   41.5190   24.9630   34.4260 C   0  0  0  0  0  0  0  0  0  0  0  0
   40.5090   24.5630   35.1980 N   0  0  0  0  0  0  0  0  0  0  0  0
   40.2500   27.7720   33.2490 H   0  0  0  0  0  0  0  0  0  0  0  0
   42.4460   24.4230   34.3050 H   0  0  0  0  0  0  0  0  0  0  0  0
   38.2780   24.7880   36.2080 C   0  0  1  0  0  0  0  0  0  0  0  0
   37.8790   23.4290   36.1320 C   0  0  0  0  0  0  0  0  0  0  0  0
   38.8620   23.8310   37.2380 C   0  0  2  0  0  0  0  0  0  0  0  0
   37.6000   25.5330   36.6160 H   0  0  0  0  0  0  0  0  0  0  0  0
   38.2710   22.7580   35.3420 H   0  0  0  0  0  0  0  0  0  0  0  0
   36.8290   23.1550   36.4460 H   0  0  0  0  0  0  0  0  0  0  0  0
   39.8980   23.4620   37.1100 H   0  0  0  0  0  0  0  0  0  0  0  0
   38.3130   23.8280   38.6240 C   0  0  0  0  0  0  0  0  0  0  0  0
   37.7120   25.0640   38.8680 F   0  0  0  0  0  0  0  0  0  0  0  0
   39.3460   23.7300   39.5300 F   0  0  0  0  0  0  0  0  0  0  0  0
   37.4010   22.8040   38.7670 F   0  0  0  0  0  0  0  0  0  0  0  0
  1  3  1  0  0  0  0
  1 23  1  0  0  0  0
  2  1  1  0  0  0  0
  5  4  1  0  0  0  0
  6  5  1  0  0  0  0
  6  1  1  0  0  0  0
  7  6  2  0  0  0  0
  8  9  2  0  0  0  0
  8  7  1  0  0  0  0
  9 10  1  0  0  0  0
 10 17  1  0  0  0  0
 10  5  2  0  0  0  0
 11  7  1  0  0  0  0
 12  8  1  0  0  0  0
 13 14  1  0  0  0  0
 13  9  1  0  0  0  0
 15 13  1  0  0  0  0
 16 13  1  0  0  0  0
 17 18  1  0  0  0  0
 19 18  1  0  0  0  0
 20 22  1  0  0  0  0
 23 24  1  0  0  0  0
 23 25  1  0  0  0  0
 26 34  1  0  0  0  0
 27 23  1  0  0  0  0
 27 26  2  0  0  0  0
 28 27  1  0  0  0  0
 29 28  2  0  0  0  0
 29 30  1  0  0  0  0
 30 31  2  0  0  0  0
 31 26  1  0  0  0  0
 32 28  1  0  0  0  0
 33 30  1  0  0  0  0
 34 37  1  1  0  0  0
 34 36  1  0  0  0  0
 35 34  1  0  0  0  0
 35 39  1  0  0  0  0
 35 36  1  0  0  0  0
 36 40  1  6  0  0  0
 36 41  1  0  0  0  0
 38 35  1  0  0  0  0
 41 44  1  0  0  0  0
 41 42  1  0  0  0  0
 41 43  1  0  0  0  0
M  END
>  <minimizedAffinity>
-5.75017738

$$$$

 OpenBabel03272508233D

 44 44  0  0  1  0  0  0  0  0999 V2000
   40.4750   25.9200   33.1640 C   0  0  0  0  0  0  0  0  0  0  0  0
   40.5760   27.0140   32.8860 H   0  0  0  0  0  0  0  0  0  0  0  0
   41.3900   25.4720   32.7250 H   0  0  0  0  0  0  0  0  0  0  0  0
   38.4160   27.7570   32.7890 F   0  0  0  0  0  0  0  0  0  0  0  0
   38.2390   26.4270   32.5140 C   0  0  0  0  0  0  0  0  0  0  0  0
   39.2370   25.4500   32.6700 C   0  0  0  0  0  0  0  0  0  0  0  0
   38.8720   24.2170   32.3430 C   0  0  0  0  0  0  0  0  0  0  0  0
   37.6330   23.8650   31.8840 C   0  0  0  0  0  0  0  0  0  0  0  0
   36.6360   24.8240   31.7270 C   0  0  0  0  0  0  0  0  0  0  0  0
   37.0040   26.0830   32.0590 C   0  0  0  0  0  0  0  0  0  0  0  0
   39.6460   23.4400   32.4600 H   0  0  0  0  0  0  0  0  0  0  0  0
   37.4540   22.8100   31.6470 H   0  0  0  0  0  0  0  0  0  0  0  0
   35.3090   24.4450   31.2340 C   0  0  0  0  0  0  0  0  0  0  0  0
   34.9850   25.1110   30.3850 H   0  0  0  0  0  0  0  0  0  0  0  0
   35.3270   23.4210   30.8150 H   0  0  0  0  0  0  0  0  0  0  0  0
   34.5930   24.5100   32.0560 H   0  0  0  0  0  0  0  0  0  0  0  0
   35.9690   27.0670   31.9000 O   0  0  0  0  0  0  0  0  0  0  0  0
   36.1660   27.9490   30.8740 C   0  0  0  0  0  2  0  0  0  0  0  0
   35.8330   29.1420   31.1660 O   0  0  0  0  0  1  0  0  0  0  0  0
   36.6540   27.8370   29.5740 N   0  0  0  0  0  1  0  0  0  0  0  0
   36.0910   28.0590   28.6970 H   0  0  0  0  0 15  0  0  0  0  0  0
   36.8390   27.8150   28.5510 H   0  0  0  0  0  0  0  0  0  0  0  0
   40.6830   25.8870   34.6390 C   0  0  0  0  0  0  0  0  0  0  0  0
   41.0690   26.8750   34.9620 H   0  0  0  0  0  0  0  0  0  0  0  0
   39.6380   25.8110   35.0670 H   0  0  0  0  0  0  0  0  0  0  0  0
   40.9660   23.7430   35.7610 C   0  0  0  0  0  0  0  0  0  0  0  0
   41.5130   24.8330   35.1380 C   0  0  0  0  0  0  0  0  0  0  0  0
   42.8530   24.8080   35.0480 C   0  0  0  0  0  0  0  0  0  0  0  0
   43.5890   23.8000   35.5270 N   0  0  0  0  0  0  0  0  0  0  0  0
   43.0640   22.7270   36.1390 C   0  0  0  0  0  0  0  0  0  0  0  0
   41.7370   22.6940   36.2600 N   0  0  0  0  0  0  0  0  0  0  0  0
   43.4170   25.6100   34.5760 H   0  0  0  0  0  0  0  0  0  0  0  0
   43.7290   21.9550   36.4990 H   0  0  0  0  0  0  0  0  0  0  0  0
   39.4710   23.6030   35.9720 C   0  0  1  0  0  0  0  0  0  0  0  0
   38.8830   22.3290   36.1820 C   0  0  0  0  0  0  0  0  0  0  0  0
   39.1430   23.2130   37.4070 C   0  0  2  0  0  0  0  0  0  0  0  0
   38.8730   24.4220   35.5780 H   0  0  0  0  0  0  0  0  0  0  0  0
   39.4820   21.4000   36.1050 H   0  0  0  0  0  0  0  0  0  0  0  0
   37.8070   22.1730   35.8750 H   0  0  0  0  0  0  0  0  0  0  0  0
   39.9570   22.8720   38.0760 H   0  0  0  0  0  0  0  0  0  0  0  0
   37.9320   23.7870   38.0600 C   0  0  0  0  0  0  0  0  0  0  0  0
   37.2270   22.7530   38.6790 F   0  0  0  0  0  0  0  0  0  0  0  0
   37.0850   24.2940   37.1000 F   0  0  0  0  0  0  0  0  0  0  0  0
   38.3030   24.7440   38.9810 F   0  0  0  0  0  0  0  0  0  0  0  0
  1 23  1  0  0  0  0
  2  1  1  0  0  0  0
  3  1  1  0  0  0  0
  5  6  1  0  0  0  0
  5  4  1  0  0  0  0
  6  1  1  0  0  0  0
  7 11  1  0  0  0  0
  7  6  2  0  0  0  0
  8  7  1  0  0  0  0
  9  8  2  0  0  0  0
  9 10  1  0  0  0  0
 10  5  2  0  0  0  0
 12  8  1  0  0  0  0
 13  9  1  0  0  0  0
 13 16  1  0  0  0  0
 14 13  1  0  0  0  0
 15 13  1  0  0  0  0
 17 10  1  0  0  0  0
 18 19  1  0  0  0  0
 18 17  1  0  0  0  0
 22 20  1  0  0  0  0
 23 24  1  0  0  0  0
 23 25  1  0  0  0  0
 23 27  1  0  0  0  0
 26 34  1  0  0  0  0
 26 31  1  0  0  0  0
 27 26  2  0  0  0  0
 28 27  1  0  0  0  0
 28 29  2  0  0  0  0
 29 30  1  0  0  0  0
 30 31  2  0  0  0  0
 30 33  1  0  0  0  0
 32 28  1  0  0  0  0
 34 37  1  6  0  0  0
 34 35  1  0  0  0  0
 34 36  1  0  0  0  0
 35 36  1  0  0  0  0
 36 41  1  0  0  0  0
 36 40  1  1  0  0  0
 38 35  1  0  0  0  0
 39 35  1  0  0  0  0
 41 42  1  0  0  0  0
 41 44  1  0  0  0  0
 43 41  1  0  0  0  0
M  END
>  <minimizedAffinity>
-5.7315774

$$$$

 OpenBabel03272508233D

 44 44  0  0  1  0  0  0  0  0999 V2000
   40.1160   22.7270   33.0780 C   0  0  0  0  0  0  0  0  0  0  0  0
   39.8910   21.8000   33.6900 H   0  0  0  0  0  0  0  0  0  0  0  0
   41.1940   22.6090   32.8450 H   0  0  0  0  0  0  0  0  0  0  0  0
   38.3890   22.3720   35.2340 F   0  0  0  0  0  0  0  0  0  0  0  0
   38.8710   23.6120   34.9080 C   0  0  0  0  0  0  0  0  0  0  0  0
   39.7520   23.8600   33.8420 C   0  0  0  0  0  0  0  0  0  0  0  0
   40.1100   25.1290   33.6930 C   0  0  0  0  0  0  0  0  0  0  0  0
   39.6850   26.1590   34.4850 C   0  0  0  0  0  0  0  0  0  0  0  0
   38.8110   25.9260   35.5430 C   0  0  0  0  0  0  0  0  0  0  0  0
   38.4440   24.6320   35.6990 C   0  0  0  0  0  0  0  0  0  0  0  0
   40.8020   25.3390   32.8590 H   0  0  0  0  0  0  0  0  0  0  0  0
   40.0530   27.1660   34.2600 H   0  0  0  0  0  0  0  0  0  0  0  0
   38.3570   27.0300   36.3930 C   0  0  0  0  0  0  0  0  0  0  0  0
   38.4910   26.7850   37.4840 H   0  0  0  0  0  0  0  0  0  0  0  0
   38.9690   27.9340   36.2150 H   0  0  0  0  0  0  0  0  0  0  0  0
   37.3050   27.2330   36.1800 H   0  0  0  0  0  0  0  0  0  0  0  0
   37.5370   24.3990   36.7890 O   0  0  0  0  0  0  0  0  0  0  0  0
   38.1300   24.0040   37.9570 C   0  0  0  0  0  2  0  0  0  0  0  0
   38.0210   24.8620   38.8910 O   0  0  0  0  0  1  0  0  0  0  0  0
   38.8300   22.8690   38.3570 N   0  0  0  0  0  1  0  0  0  0  0  0
   39.8440   22.8680   38.6860 H   0  0  0  0  0 15  0  0  0  0  0  0
   39.5010   22.1450   38.6860 H   0  0  0  0  0  0  0  0  0  0  0  0
   39.4010   22.5100   31.7890 C   0  0  0  0  0  0  0  0  0  0  0  0
   40.1040   22.7190   30.9580 H   0  0  0  0  0  0  0  0  0  0  0  0
   39.2130   21.3940   31.7580 H   0  0  0  0  0  0  0  0  0  0  0  0
   36.9770   22.6810   31.9580 C   0  0  0  0  0  0  0  0  0  0  0  0
   38.1800   23.2360   31.6120 C   0  0  0  0  0  0  0  0  0  0  0  0
   38.0970   24.4800   31.1130 C   0  0  0  0  0  0  0  0  0  0  0  0
   36.9320   25.1210   30.9660 N   0  0  0  0  0  0  0  0  0  0  0  0
   35.7470   24.5880   31.3020 C   0  0  0  0  0  0  0  0  0  0  0  0
   35.7640   23.3530   31.8040 N   0  0  0  0  0  0  0  0  0  0  0  0
   38.9760   25.0380   30.7970 H   0  0  0  0  0  0  0  0  0  0  0  0
   34.8520   25.1730   31.1530 H   0  0  0  0  0  0  0  0  0  0  0  0
   36.8710   21.2780   32.5220 C   0  0  1  0  0  0  0  0  0  0  0  0
   35.7920   20.9160   33.3710 C   0  0  0  0  0  0  0  0  0  0  0  0
   35.7150   20.5090   31.8940 C   0  0  2  0  0  0  0  0  0  0  0  0
   37.8080   20.7280   32.5670 H   0  0  0  0  0  0  0  0  0  0  0  0
   35.0550   21.6680   33.7170 H   0  0  0  0  0  0  0  0  0  0  0  0
   35.9530   20.0920   34.1270 H   0  0  0  0  0  0  0  0  0  0  0  0
   34.9660   21.0550   31.2900 H   0  0  0  0  0  0  0  0  0  0  0  0
   35.8740   19.0540   31.6150 C   0  0  0  0  0  0  0  0  0  0  0  0
   37.0710   18.6180   32.1860 F   0  0  0  0  0  0  0  0  0  0  0  0
   36.0150   18.8560   30.2580 F   0  0  0  0  0  0  0  0  0  0  0  0
   34.8040   18.3560   32.1320 F   0  0  0  0  0  0  0  0  0  0  0  0
  1  2  1  0  0  0  0
  1  6  1  0  0  0  0
  3  1  1  0  0  0  0
  5  4  1  0  0  0  0
  5 10  1  0  0  0  0
  6  5  2  0  0  0  0
  7  6  1  0  0  0  0
  7  8  2  0  0  0  0
  8  9  1  0  0  0  0
  9 10  2  0  0  0  0
  9 13  1  0  0  0  0
 10 17  1  0  0  0  0
 11  7  1  0  0  0  0
 12  8  1  0  0  0  0
 13 14  1  0  0  0  0
 15 13  1  0  0  0  0
 16 13  1  0  0  0  0
 17 18  1  0  0  0  0
 18 19  1  0  0  0  0
 20 22  1  0  0  0  0
 23  1  1  0  0  0  0
 24 23  1  0  0  0  0
 25 23  1  0  0  0  0
 26 34  1  0  0  0  0
 27 23  1  0  0  0  0
 27 26  2  0  0  0  0
 28 27  1  0  0  0  0
 29 28  2  0  0  0  0
 29 30  1  0  0  0  0
 30 31  2  0  0  0  0
 31 26  1  0  0  0  0
 32 28  1  0  0  0  0
 33 30  1  0  0  0  0
 34 37  1  1  0  0  0
 34 35  1  0  0  0  0
 35 38  1  0  0  0  0
 35 39  1  0  0  0  0
 36 40  1  6  0  0  0
 36 34  1  0  0  0  0
 36 35  1  0  0  0  0
 41 36  1  0  0  0  0
 41 44  1  0  0  0  0
 41 42  1  0  0  0  0
 43 41  1  0  0  0  0
M  END
>  <minimizedAffinity>
-5.72870159

$$$$

 OpenBabel03272508233D

 44 44  0  0  1  0  0  0  0  0999 V2000
   40.9920   26.1000   34.5750 C   0  0  0  0  0  0  0  0  0  0  0  0
   41.6820   26.7580   35.1880 H   0  0  0  0  0  0  0  0  0  0  0  0
   41.5230   26.0300   33.6040 H   0  0  0  0  0  0  0  0  0  0  0  0
   39.7420   26.4800   32.1160 F   0  0  0  0  0  0  0  0  0  0  0  0
   39.1430   26.8700   33.2840 C   0  0  0  0  0  0  0  0  0  0  0  0
   39.7120   26.6980   34.5570 C   0  0  0  0  0  0  0  0  0  0  0  0
   38.9700   27.1370   35.5670 C   0  0  0  0  0  0  0  0  0  0  0  0
   37.7400   27.7190   35.4380 C   0  0  0  0  0  0  0  0  0  0  0  0
   37.1670   27.8950   34.1810 C   0  0  0  0  0  0  0  0  0  0  0  0
   37.9200   27.4490   33.1480 C   0  0  0  0  0  0  0  0  0  0  0  0
   39.4040   27.0090   36.5730 H   0  0  0  0  0  0  0  0  0  0  0  0
   37.2250   28.0400   36.3500 H   0  0  0  0  0  0  0  0  0  0  0  0
   35.8470   28.5180   34.0440 C   0  0  0  0  0  0  0  0  0  0  0  0
   35.1690   27.8950   33.3940 H   0  0  0  0  0  0  0  0  0  0  0  0
   35.3420   28.5780   35.0260 H   0  0  0  0  0  0  0  0  0  0  0  0
   35.9680   29.5140   33.6140 H   0  0  0  0  0  0  0  0  0  0  0  0
   37.3260   27.6390   31.8540 O   0  0  0  0  0  0  0  0  0  0  0  0
   36.7860   26.5120   31.2980 C   0  0  0  0  0  2  0  0  0  0  0  0
   35.5300   26.4150   31.4770 O   0  0  0  0  0  1  0  0  0  0  0  0
   37.3040   25.4410   30.5740 N   0  0  0  0  0  1  0  0  0  0  0  0
   37.2710   24.4240   30.8930 H   0  0  0  0  0 15  0  0  0  0  0  0
   37.6260   24.5320   30.1840 H   0  0  0  0  0  0  0  0  0  0  0  0
   41.1110   24.7510   35.1950 C   0  0  0  0  0  0  0  0  0  0  0  0
   42.1210   24.6570   35.6430 H   0  0  0  0  0  0  0  0  0  0  0  0
   40.3900   24.7780   36.0670 H   0  0  0  0  0  0  0  0  0  0  0  0
   39.6400   22.9680   34.4250 C   0  0  0  0  0  0  0  0  0  0  0  0
   40.8330   23.6350   34.3410 C   0  0  0  0  0  0  0  0  0  0  0  0
   41.6760   23.1550   33.4130 C   0  0  0  0  0  0  0  0  0  0  0  0
   41.3730   22.1100   32.6360 N   0  0  0  0  0  0  0  0  0  0  0  0
   40.2070   21.4480   32.7080 C   0  0  0  0  0  0  0  0  0  0  0  0
   39.3270   21.8780   33.6120 N   0  0  0  0  0  0  0  0  0  0  0  0
   42.6590   23.5900   33.2410 H   0  0  0  0  0  0  0  0  0  0  0  0
   40.0400   20.6130   32.0440 H   0  0  0  0  0  0  0  0  0  0  0  0
   38.5690   23.3560   35.4260 C   0  0  1  0  0  0  0  0  0  0  0  0
   37.6290   22.4000   35.8900 C   0  0  0  0  0  0  0  0  0  0  0  0
   38.8260   22.7280   36.7900 C   0  0  2  0  0  0  0  0  0  0  0  0
   38.3290   24.4160   35.4540 H   0  0  0  0  0  0  0  0  0  0  0  0
   37.5930   21.3760   35.4670 H   0  0  0  0  0  0  0  0  0  0  0  0
   36.6130   22.7610   36.2270 H   0  0  0  0  0  0  0  0  0  0  0  0
   39.5840   21.9270   36.8840 H   0  0  0  0  0  0  0  0  0  0  0  0
   38.5160   23.5080   38.0210 C   0  0  0  0  0  0  0  0  0  0  0  0
   37.3970   22.9440   38.6360 F   0  0  0  0  0  0  0  0  0  0  0  0
   38.1450   24.7900   37.6760 F   0  0  0  0  0  0  0  0  0  0  0  0
   39.6000   23.4950   38.8730 F   0  0  0  0  0  0  0  0  0  0  0  0
  1  2  1  0  0  0  0
  1 23  1  0  0  0  0
  3  1  1  0  0  0  0
  4  5  1  0  0  0  0
  5  6  1  0  0  0  0
  6  1  1  0  0  0  0
  6  7  2  0  0  0  0
  7 11  1  0  0  0  0
  8  7  1  0  0  0  0
  8 12  1  0  0  0  0
  9  8  2  0  0  0  0
 10  5  2  0  0  0  0
 10  9  1  0  0  0  0
 13  9  1  0  0  0  0
 13 15  1  0  0  0  0
 14 13  1  0  0  0  0
 16 13  1  0  0  0  0
 17 10  1  0  0  0  0
 18 19  1  0  0  0  0
 18 17  1  0  0  0  0
 22 20  1  0  0  0  0
 23 24  1  0  0  0  0
 23 25  1  0  0  0  0
 26 34  1  0  0  0  0
 27 26  1  0  0  0  0
 27 23  1  0  0  0  0
 28 27  2  0  0  0  0
 29 30  2  0  0  0  0
 29 28  1  0  0  0  0
 30 31  1  0  0  0  0
 31 26  2  0  0  0  0
 32 28  1  0  0  0  0
 33 30  1  0  0  0  0
 34 37  1  6  0  0  0
 34 35  1  0  0  0  0
 34 36  1  0  0  0  0
 35 39  1  0  0  0  0
 35 36  1  0  0  0  0
 36 40  1  1  0  0  0
 36 41  1  0  0  0  0
 38 35  1  0  0  0  0
 41 42  1  0  0  0  0
 41 44  1  0  0  0  0
 43 41  1  0  0  0  0
M  END
>  <minimizedAffinity>
-5.72345781

$$$$

 OpenBabel03272508233D

 44 44  0  0  1  0  0  0  0  0999 V2000
   39.7400   27.1340   33.1010 C   0  0  0  0  0  0  0  0  0  0  0  0
   39.7910   28.2640   33.1600 H   0  0  0  0  0  0  0  0  0  0  0  0
   40.6220   26.8830   32.4770 H   0  0  0  0  0  0  0  0  0  0  0  0
   39.5310   24.7860   31.6190 F   0  0  0  0  0  0  0  0  0  0  0  0
   38.4410   25.5850   31.8380 C   0  0  0  0  0  0  0  0  0  0  0  0
   38.4740   26.7760   32.5830 C   0  0  0  0  0  0  0  0  0  0  0  0
   37.3100   27.4060   32.6860 C   0  0  0  0  0  0  0  0  0  0  0  0
   36.1370   26.9760   32.1300 C   0  0  0  0  0  0  0  0  0  0  0  0
   36.0930   25.7990   31.3880 C   0  0  0  0  0  0  0  0  0  0  0  0
   37.2780   25.1530   31.2800 C   0  0  0  0  0  0  0  0  0  0  0  0
   37.3200   28.3420   33.2690 H   0  0  0  0  0  0  0  0  0  0  0  0
   35.2410   27.5860   32.2860 H   0  0  0  0  0  0  0  0  0  0  0  0
   34.8360   25.3400   30.7920 C   0  0  0  0  0  0  0  0  0  0  0  0
   34.6390   24.2590   31.0430 H   0  0  0  0  0  0  0  0  0  0  0  0
   33.9800   25.9010   31.2120 H   0  0  0  0  0  0  0  0  0  0  0  0
   34.8860   25.4710   29.7100 H   0  0  0  0  0  0  0  0  0  0  0  0
   37.2270   23.9420   30.5080 O   0  0  0  0  0  0  0  0  0  0  0  0
   37.1940   22.7910   31.2450 C   0  0  0  0  0  2  0  0  0  0  0  0
   37.7200   21.7980   30.6500 O   0  0  0  0  0  1  0  0  0  0  0  0
   36.7110   22.4580   32.5090 N   0  0  0  0  0  1  0  0  0  0  0  0
   35.9420   21.7430   32.6920 H   0  0  0  0  0 15  0  0  0  0  0  0
   36.2320   22.0870   33.3540 H   0  0  0  0  0  0  0  0  0  0  0  0
   40.0760   26.6700   34.4760 C   0  0  0  0  0  0  0  0  0  0  0  0
   40.5920   27.4940   35.0080 H   0  0  0  0  0  0  0  0  0  0  0  0
   39.0730   26.5560   34.9860 H   0  0  0  0  0  0  0  0  0  0  0  0
   40.3690   24.3950   35.2950 C   0  0  0  0  0  0  0  0  0  0  0  0
   40.8330   25.4570   34.5670 C   0  0  0  0  0  0  0  0  0  0  0  0
   42.0190   25.2510   33.9730 C   0  0  0  0  0  0  0  0  0  0  0  0
   42.6910   24.1010   34.0850 N   0  0  0  0  0  0  0  0  0  0  0  0
   42.2470   23.0510   34.7950 C   0  0  0  0  0  0  0  0  0  0  0  0
   41.0730   23.1950   35.4090 N   0  0  0  0  0  0  0  0  0  0  0  0
   42.5030   26.0130   33.3640 H   0  0  0  0  0  0  0  0  0  0  0  0
   42.8500   22.1570   34.8340 H   0  0  0  0  0  0  0  0  0  0  0  0
   39.0560   24.4480   36.0510 C   0  0  1  0  0  0  0  0  0  0  0  0
   38.1010   23.4070   35.9200 C   0  0  0  0  0  0  0  0  0  0  0  0
   39.0060   23.4030   37.1570 C   0  0  2  0  0  0  0  0  0  0  0  0
   38.7410   25.4430   36.3540 H   0  0  0  0  0  0  0  0  0  0  0  0
   38.2460   22.5800   35.1970 H   0  0  0  0  0  0  0  0  0  0  0  0
   37.0090   23.6530   36.0780 H   0  0  0  0  0  0  0  0  0  0  0  0
   39.7710   22.6030   37.1830 H   0  0  0  0  0  0  0  0  0  0  0  0
   38.3400   23.7390   38.4480 C   0  0  0  0  0  0  0  0  0  0  0  0
   37.8530   25.0450   38.3710 F   0  0  0  0  0  0  0  0  0  0  0  0
   39.2730   23.7480   39.4610 F   0  0  0  0  0  0  0  0  0  0  0  0
   37.3160   22.8490   38.6950 F   0  0  0  0  0  0  0  0  0  0  0  0
  1  2  1  0  0  0  0
  1 23  1  0  0  0  0
  3  1  1  0  0  0  0
  4  5  1  0  0  0  0
  5  6  1  0  0  0  0
  6  7  2  0  0  0  0
  6  1  1  0  0  0  0
  7 11  1  0  0  0  0
  8 12  1  0  0  0  0
  8  7  1  0  0  0  0
  9  8  2  0  0  0  0
 10  9  1  0  0  0  0
 10  5  2  0  0  0  0
 13 14  1  0  0  0  0
 13 15  1  0  0  0  0
 13  9  1  0  0  0  0
 16 13  1  0  0  0  0
 17 18  1  0  0  0  0
 17 10  1  0  0  0  0
 19 18  1  0  0  0  0
 20 22  1  0  0  0  0
 23 27  1  0  0  0  0
 23 25  1  0  0  0  0
 23 24  1  0  0  0  0
 26 31  1  0  0  0  0
 26 34  1  0  0  0  0
 27 26  2  0  0  0  0
 28 29  2  0  0  0  0
 28 27  1  0  0  0  0
 29 30  1  0  0  0  0
 30 33  1  0  0  0  0
 30 31  2  0  0  0  0
 32 28  1  0  0  0  0
 34 37  1  1  0  0  0
 34 36  1  0  0  0  0
 35 34  1  0  0  0  0
 35 39  1  0  0  0  0
 35 36  1  0  0  0  0
 36 40  1  1  0  0  0
 36 41  1  0  0  0  0
 38 35  1  0  0  0  0
 41 44  1  0  0  0  0
 41 43  1  0  0  0  0
 42 41  1  0  0  0  0
M  END
>  <minimizedAffinity>
-5.72037029

$$$$
