
 OpenBabel03272502533D

 22 23  0  0  0  0  0  0  0  0999 V2000
   38.0070   25.1620   34.9760 C   0  0  0  0  0  0  0  0  0  0  0  0
   38.8500   24.3000   34.2840 C   0  0  0  0  0  0  0  0  0  0  0  0
   39.4990   23.2680   34.9550 C   0  0  0  0  0  0  0  0  0  0  0  0
   39.2550   23.1680   36.3020 C   0  0  0  0  0  0  0  0  0  0  0  0
   38.4150   24.0230   37.0040 C   0  0  0  0  0  0  0  0  0  0  0  0
   37.8100   25.0110   36.2890 N   0  0  0  0  0  0  0  0  0  0  0  0
   38.9860   24.4520   33.2200 H   0  0  0  0  0  0  0  0  0  0  0  0
   40.1560   22.5950   34.4220 H   0  0  0  0  0  0  0  0  0  0  0  0
   39.7740   22.3520   36.8120 H   0  0  0  0  0  0  0  0  0  0  0  0
   36.5100   27.1020   32.2460 C   0  0  0  0  0  0  0  0  0  0  0  0
   36.0890   28.2750   32.8870 C   0  0  0  0  0  0  0  0  0  0  0  0
   36.3280   28.3870   34.2640 C   0  0  0  0  0  0  0  0  0  0  0  0
   36.9550   27.3460   34.8920 N   0  0  0  0  0  0  0  0  0  0  0  0
   37.3450   26.2300   34.2380 C   0  0  0  0  0  0  0  0  0  0  0  0
   37.1140   26.1310   32.9300 N   0  0  0  0  0  0  0  0  0  0  0  0
   36.3400   26.9850   31.1840 H   0  0  0  0  0  0  0  0  0  0  0  0
   35.5950   29.0810   32.3550 H   0  0  0  0  0  0  0  0  0  0  0  0
   36.0280   29.2690   34.8170 H   0  0  0  0  0  0  0  0  0  0  0  0
   38.2330   23.8160   38.4380 C   0  0  0  0  0  0  0  0  0  0  0  0
   37.8880   24.9810   39.1310 F   0  0  0  0  0  0  0  0  0  0  0  0
   39.4940   23.4680   38.9420 F   0  0  0  0  0  0  0  0  0  0  0  0
   37.3140   22.8670   38.7620 F   0  0  0  0  0  0  0  0  0  0  0  0
  1  6  1  0  0  0  0
  2  3  1  0  0  0  0
  2  1  2  0  0  0  0
  3  4  2  0  0  0  0
  4  9  1  0  0  0  0
  4  5  1  0  0  0  0
  5 19  1  0  0  0  0
  6  5  2  0  0  0  0
  7  2  1  0  0  0  0
  8  3  1  0  0  0  0
 10 11  2  0  0  0  0
 10 15  1  0  0  0  0
 11 12  1  0  0  0  0
 12 18  1  0  0  0  0
 12 13  2  0  0  0  0
 14 13  1  0  0  0  0
 14  1  1  0  0  0  0
 15 14  2  0  0  0  0
 16 10  1  0  0  0  0
 17 11  1  0  0  0  0
 19 22  1  0  0  0  0
 19 21  1  0  0  0  0
 19 20  1  0  0  0  0
M  END
>  <minimizedAffinity>
-5.02542782

$$$$

 OpenBabel03272502533D

 22 23  0  0  0  0  0  0  0  0999 V2000
   38.1700   22.2500   34.7730 C   0  0  0  0  0  0  0  0  0  0  0  0
   39.5210   22.1780   34.4530 C   0  0  0  0  0  0  0  0  0  0  0  0
   40.4820   22.5490   35.3880 C   0  0  0  0  0  0  0  0  0  0  0  0
   40.0140   22.9770   36.6060 C   0  0  0  0  0  0  0  0  0  0  0  0
   38.6680   23.0530   36.9370 C   0  0  0  0  0  0  0  0  0  0  0  0
   37.7790   22.6740   35.9780 N   0  0  0  0  0  0  0  0  0  0  0  0
   39.8020   21.8280   33.4670 H   0  0  0  0  0  0  0  0  0  0  0  0
   41.5340   22.4960   35.1440 H   0  0  0  0  0  0  0  0  0  0  0  0
   40.7840   23.2660   37.3270 H   0  0  0  0  0  0  0  0  0  0  0  0
   35.3250   20.6140   33.1330 C   0  0  0  0  0  0  0  0  0  0  0  0
   35.3740   21.1280   31.8300 C   0  0  0  0  0  0  0  0  0  0  0  0
   36.3960   22.0400   31.5270 C   0  0  0  0  0  0  0  0  0  0  0  0
   37.2760   22.3680   32.5210 N   0  0  0  0  0  0  0  0  0  0  0  0
   37.1940   21.8510   33.7670 C   0  0  0  0  0  0  0  0  0  0  0  0
   36.2220   20.9860   34.0460 N   0  0  0  0  0  0  0  0  0  0  0  0
   34.5490   19.9090   33.3980 H   0  0  0  0  0  0  0  0  0  0  0  0
   34.6580   20.8440   31.0670 H   0  0  0  0  0  0  0  0  0  0  0  0
   36.4890   22.4730   30.5390 H   0  0  0  0  0  0  0  0  0  0  0  0
   38.2920   23.5240   38.2670 C   0  0  0  0  0  0  0  0  0  0  0  0
   37.9200   24.8720   38.2970 F   0  0  0  0  0  0  0  0  0  0  0  0
   39.4580   23.4640   39.0430 F   0  0  0  0  0  0  0  0  0  0  0  0
   37.2920   22.8160   38.8580 F   0  0  0  0  0  0  0  0  0  0  0  0
  1  6  1  0  0  0  0
  2  1  2  0  0  0  0
  2  3  1  0  0  0  0
  3  4  2  0  0  0  0
  4  5  1  0  0  0  0
  4  9  1  0  0  0  0
  5 19  1  0  0  0  0
  6  5  2  0  0  0  0
  7  2  1  0  0  0  0
  8  3  1  0  0  0  0
 10 16  1  0  0  0  0
 10 15  1  0  0  0  0
 11 10  2  0  0  0  0
 12 11  1  0  0  0  0
 12 13  2  0  0  0  0
 13 14  1  0  0  0  0
 14 15  2  0  0  0  0
 14  1  1  0  0  0  0
 17 11  1  0  0  0  0
 18 12  1  0  0  0  0
 19 20  1  0  0  0  0
 19 22  1  0  0  0  0
 19 21  1  0  0  0  0
M  END
>  <minimizedAffinity>
-4.89402676

$$$$

 OpenBabel03272502533D

 22 23  0  0  0  0  0  0  0  0999 V2000
   38.4510   24.4770   36.1920 C   0  0  0  0  0  0  0  0  0  0  0  0
   37.7560   24.5010   37.3960 C   0  0  0  0  0  0  0  0  0  0  0  0
   38.2110   23.7570   38.4800 C   0  0  0  0  0  0  0  0  0  0  0  0
   39.3540   23.0240   38.2800 C   0  0  0  0  0  0  0  0  0  0  0  0
   40.0560   22.9920   37.0830 C   0  0  0  0  0  0  0  0  0  0  0  0
   39.5590   23.7430   36.0610 N   0  0  0  0  0  0  0  0  0  0  0  0
   36.8620   25.1080   37.4660 H   0  0  0  0  0  0  0  0  0  0  0  0
   37.6740   23.7710   39.4190 H   0  0  0  0  0  0  0  0  0  0  0  0
   39.6960   22.4450   39.1430 H   0  0  0  0  0  0  0  0  0  0  0  0
   37.4800   25.5200   32.8110 C   0  0  0  0  0  0  0  0  0  0  0  0
   36.9730   26.8110   33.0130 C   0  0  0  0  0  0  0  0  0  0  0  0
   36.9710   27.3130   34.3220 C   0  0  0  0  0  0  0  0  0  0  0  0
   37.4620   26.5120   35.3160 N   0  0  0  0  0  0  0  0  0  0  0  0
   37.9430   25.2710   35.0800 C   0  0  0  0  0  0  0  0  0  0  0  0
   37.9420   24.8020   33.8340 N   0  0  0  0  0  0  0  0  0  0  0  0
   37.4960   25.1040   31.8130 H   0  0  0  0  0  0  0  0  0  0  0  0
   36.5910   27.4170   32.1990 H   0  0  0  0  0  0  0  0  0  0  0  0
   36.5920   28.3040   34.5440 H   0  0  0  0  0  0  0  0  0  0  0  0
   41.2620   22.1740   36.9900 C   0  0  0  0  0  0  0  0  0  0  0  0
   42.4430   22.9220   36.9380 F   0  0  0  0  0  0  0  0  0  0  0  0
   41.1990   21.5300   35.7470 F   0  0  0  0  0  0  0  0  0  0  0  0
   41.4070   21.2620   37.9900 F   0  0  0  0  0  0  0  0  0  0  0  0
  1  2  1  0  0  0  0
  2  7  1  0  0  0  0
  2  3  2  0  0  0  0
  3  8  1  0  0  0  0
  4  3  1  0  0  0  0
  4  9  1  0  0  0  0
  5  4  2  0  0  0  0
  6  1  2  0  0  0  0
  6  5  1  0  0  0  0
 10 11  2  0  0  0  0
 10 15  1  0  0  0  0
 11 12  1  0  0  0  0
 12 18  1  0  0  0  0
 12 13  2  0  0  0  0
 14 13  1  0  0  0  0
 14  1  1  0  0  0  0
 15 14  2  0  0  0  0
 16 10  1  0  0  0  0
 17 11  1  0  0  0  0
 19  5  1  0  0  0  0
 19 22  1  0  0  0  0
 20 19  1  0  0  0  0
 21 19  1  0  0  0  0
M  END
>  <minimizedAffinity>
-4.83013153

$$$$

 OpenBabel03272502533D

 22 23  0  0  0  0  0  0  0  0999 V2000
   38.5210   23.0910   34.7990 C   0  0  0  0  0  0  0  0  0  0  0  0
   39.7390   22.4270   34.6970 C   0  0  0  0  0  0  0  0  0  0  0  0
   40.5090   22.2020   35.8330 C   0  0  0  0  0  0  0  0  0  0  0  0
   39.9970   22.6660   37.0190 C   0  0  0  0  0  0  0  0  0  0  0  0
   38.7840   23.3300   37.1330 C   0  0  0  0  0  0  0  0  0  0  0  0
   38.0780   23.5190   35.9850 N   0  0  0  0  0  0  0  0  0  0  0  0
   40.0670   22.0940   33.7200 H   0  0  0  0  0  0  0  0  0  0  0  0
   41.4570   21.6860   35.7600 H   0  0  0  0  0  0  0  0  0  0  0  0
   40.6170   22.4800   37.9010 H   0  0  0  0  0  0  0  0  0  0  0  0
   36.8490   24.7350   31.9780 C   0  0  0  0  0  0  0  0  0  0  0  0
   36.2630   23.6640   31.2900 C   0  0  0  0  0  0  0  0  0  0  0  0
   36.4520   22.3750   31.8100 C   0  0  0  0  0  0  0  0  0  0  0  0
   37.1930   22.2480   32.9520 N   0  0  0  0  0  0  0  0  0  0  0  0
   37.7430   23.3070   33.5860 C   0  0  0  0  0  0  0  0  0  0  0  0
   37.5590   24.5270   33.0860 N   0  0  0  0  0  0  0  0  0  0  0  0
   36.7230   25.7420   31.6020 H   0  0  0  0  0  0  0  0  0  0  0  0
   35.6810   23.8040   30.3870 H   0  0  0  0  0  0  0  0  0  0  0  0
   36.0250   21.5050   31.3260 H   0  0  0  0  0  0  0  0  0  0  0  0
   38.3430   23.7780   38.4520 C   0  0  0  0  0  0  0  0  0  0  0  0
   39.3290   23.6640   39.4380 F   0  0  0  0  0  0  0  0  0  0  0  0
   37.3420   22.8820   38.8510 F   0  0  0  0  0  0  0  0  0  0  0  0
   37.8790   25.0570   38.4910 F   0  0  0  0  0  0  0  0  0  0  0  0
  1  6  1  0  0  0  0
  2  1  2  0  0  0  0
  2  3  1  0  0  0  0
  3  4  2  0  0  0  0
  4  5  1  0  0  0  0
  4  9  1  0  0  0  0
  5 19  1  0  0  0  0
  6  5  2  0  0  0  0
  7  2  1  0  0  0  0
  8  3  1  0  0  0  0
 10 15  1  0  0  0  0
 11 12  1  0  0  0  0
 11 10  2  0  0  0  0
 12 13  2  0  0  0  0
 13 14  1  0  0  0  0
 14  1  1  0  0  0  0
 15 14  2  0  0  0  0
 16 10  1  0  0  0  0
 17 11  1  0  0  0  0
 18 12  1  0  0  0  0
 19 22  1  0  0  0  0
 19 21  1  0  0  0  0
 19 20  1  0  0  0  0
M  END
>  <minimizedAffinity>
-4.75552797

$$$$

 OpenBabel03272502533D

 22 23  0  0  0  0  0  0  0  0999 V2000
   38.1430   22.3110   35.7560 C   0  0  0  0  0  0  0  0  0  0  0  0
   37.5680   23.0370   36.7930 C   0  0  0  0  0  0  0  0  0  0  0  0
   38.3280   23.3940   37.9020 C   0  0  0  0  0  0  0  0  0  0  0  0
   39.6410   22.9910   37.8970 C   0  0  0  0  0  0  0  0  0  0  0  0
   40.2260   22.2660   36.8670 C   0  0  0  0  0  0  0  0  0  0  0  0
   39.4280   21.9480   35.8110 N   0  0  0  0  0  0  0  0  0  0  0  0
   36.5240   23.3140   36.7140 H   0  0  0  0  0  0  0  0  0  0  0  0
   37.8860   23.9580   38.7110 H   0  0  0  0  0  0  0  0  0  0  0  0
   40.2220   23.2800   38.7770 H   0  0  0  0  0  0  0  0  0  0  0  0
   36.7470   22.1980   32.3650 C   0  0  0  0  0  0  0  0  0  0  0  0
   35.7190   21.2530   32.4780 C   0  0  0  0  0  0  0  0  0  0  0  0
   35.5150   20.6600   33.7320 C   0  0  0  0  0  0  0  0  0  0  0  0
   36.3310   21.0400   34.7610 N   0  0  0  0  0  0  0  0  0  0  0  0
   37.3130   21.9560   34.6110 C   0  0  0  0  0  0  0  0  0  0  0  0
   37.5010   22.5150   33.4170 N   0  0  0  0  0  0  0  0  0  0  0  0
   36.9300   22.6740   31.4110 H   0  0  0  0  0  0  0  0  0  0  0  0
   35.0910   20.9760   31.6390 H   0  0  0  0  0  0  0  0  0  0  0  0
   34.7360   19.9220   33.8860 H   0  0  0  0  0  0  0  0  0  0  0  0
   41.6340   21.8940   36.9750 C   0  0  0  0  0  0  0  0  0  0  0  0
   42.0770   21.0760   35.9300 F   0  0  0  0  0  0  0  0  0  0  0  0
   41.7350   21.0900   38.1180 F   0  0  0  0  0  0  0  0  0  0  0  0
   42.4940   22.9450   37.0560 F   0  0  0  0  0  0  0  0  0  0  0  0
  1  6  2  0  0  0  0
  1  2  1  0  0  0  0
  2  3  2  0  0  0  0
  3  8  1  0  0  0  0
  4  3  1  0  0  0  0
  4  9  1  0  0  0  0
  5 19  1  0  0  0  0
  5  4  2  0  0  0  0
  6  5  1  0  0  0  0
  7  2  1  0  0  0  0
 10 11  2  0  0  0  0
 10 15  1  0  0  0  0
 11 12  1  0  0  0  0
 12 18  1  0  0  0  0
 12 13  2  0  0  0  0
 14 13  1  0  0  0  0
 14  1  1  0  0  0  0
 15 14  2  0  0  0  0
 16 10  1  0  0  0  0
 17 11  1  0  0  0  0
 19 22  1  0  0  0  0
 19 21  1  0  0  0  0
 20 19  1  0  0  0  0
M  END
>  <minimizedAffinity>
-4.71490765

$$$$

 OpenBabel03272502533D

 22 23  0  0  0  0  0  0  0  0999 V2000
   38.1080   24.6400   34.5300 C   0  0  0  0  0  0  0  0  0  0  0  0
   38.3090   23.4040   33.9270 C   0  0  0  0  0  0  0  0  0  0  0  0
   38.5060   22.2690   34.7070 C   0  0  0  0  0  0  0  0  0  0  0  0
   38.4860   22.4540   36.0680 C   0  0  0  0  0  0  0  0  0  0  0  0
   38.2860   23.6830   36.6810 C   0  0  0  0  0  0  0  0  0  0  0  0
   38.0990   24.7540   35.8610 N   0  0  0  0  0  0  0  0  0  0  0  0
   38.3090   23.3490   32.8450 H   0  0  0  0  0  0  0  0  0  0  0  0
   38.6640   21.3050   34.2440 H   0  0  0  0  0  0  0  0  0  0  0  0
   38.6430   21.5500   36.6640 H   0  0  0  0  0  0  0  0  0  0  0  0
   36.8060   27.8030   33.2020 C   0  0  0  0  0  0  0  0  0  0  0  0
   37.5590   27.9890   32.0350 C   0  0  0  0  0  0  0  0  0  0  0  0
   38.5160   27.0150   31.7150 C   0  0  0  0  0  0  0  0  0  0  0  0
   38.6520   25.9490   32.5610 N   0  0  0  0  0  0  0  0  0  0  0  0
   37.9050   25.8050   33.6780 C   0  0  0  0  0  0  0  0  0  0  0  0
   36.9990   26.7350   33.9750 N   0  0  0  0  0  0  0  0  0  0  0  0
   36.0600   28.5370   33.4770 H   0  0  0  0  0  0  0  0  0  0  0  0
   37.4240   28.8490   31.3890 H   0  0  0  0  0  0  0  0  0  0  0  0
   39.1310   27.1000   30.8270 H   0  0  0  0  0  0  0  0  0  0  0  0
   38.2860   23.7540   38.1400 C   0  0  0  0  0  0  0  0  0  0  0  0
   39.4750   23.3020   38.7210 F   0  0  0  0  0  0  0  0  0  0  0  0
   37.3140   22.8410   38.5720 F   0  0  0  0  0  0  0  0  0  0  0  0
   38.0340   24.9910   38.6470 F   0  0  0  0  0  0  0  0  0  0  0  0
  1  6  1  0  0  0  0
  2  1  2  0  0  0  0
  2  3  1  0  0  0  0
  3  4  2  0  0  0  0
  4  9  1  0  0  0  0
  4  5  1  0  0  0  0
  5 19  1  0  0  0  0
  6  5  2  0  0  0  0
  7  2  1  0  0  0  0
  8  3  1  0  0  0  0
 10 16  1  0  0  0  0
 10 15  1  0  0  0  0
 11 10  2  0  0  0  0
 12 11  1  0  0  0  0
 12 13  2  0  0  0  0
 13 14  1  0  0  0  0
 14 15  2  0  0  0  0
 14  1  1  0  0  0  0
 17 11  1  0  0  0  0
 18 12  1  0  0  0  0
 19 21  1  0  0  0  0
 19 22  1  0  0  0  0
 19 20  1  0  0  0  0
M  END
>  <minimizedAffinity>
-4.68188715

$$$$

 OpenBabel03272502533D

 22 23  0  0  0  0  0  0  0  0999 V2000
   38.1620   25.5810   35.2830 C   0  0  0  0  0  0  0  0  0  0  0  0
   38.0500   26.8710   35.7930 C   0  0  0  0  0  0  0  0  0  0  0  0
   37.4260   27.8650   35.0460 C   0  0  0  0  0  0  0  0  0  0  0  0
   36.9460   27.4930   33.8150 C   0  0  0  0  0  0  0  0  0  0  0  0
   37.0520   26.2100   33.2960 C   0  0  0  0  0  0  0  0  0  0  0  0
   37.6730   25.2830   34.0760 N   0  0  0  0  0  0  0  0  0  0  0  0
   38.4570   27.0760   36.7740 H   0  0  0  0  0  0  0  0  0  0  0  0
   37.3370   28.8690   35.4370 H   0  0  0  0  0  0  0  0  0  0  0  0
   36.4600   28.2890   33.2430 H   0  0  0  0  0  0  0  0  0  0  0  0
   40.5450   23.0350   36.4210 C   0  0  0  0  0  0  0  0  0  0  0  0
   40.0300   22.6560   37.6680 C   0  0  0  0  0  0  0  0  0  0  0  0
   38.8570   23.2870   38.1080 C   0  0  0  0  0  0  0  0  0  0  0  0
   38.2930   24.2290   37.2930 N   0  0  0  0  0  0  0  0  0  0  0  0
   38.8210   24.5670   36.0960 C   0  0  0  0  0  0  0  0  0  0  0  0
   39.9350   23.9640   35.6860 N   0  0  0  0  0  0  0  0  0  0  0  0
   41.4480   22.5670   36.0530 H   0  0  0  0  0  0  0  0  0  0  0  0
   40.5060   21.9040   38.2870 H   0  0  0  0  0  0  0  0  0  0  0  0
   38.4090   23.0380   39.0620 H   0  0  0  0  0  0  0  0  0  0  0  0
   36.5010   25.9340   31.9720 C   0  0  0  0  0  0  0  0  0  0  0  0
   35.4850   26.8190   31.5940 F   0  0  0  0  0  0  0  0  0  0  0  0
   35.8650   24.6900   32.0690 F   0  0  0  0  0  0  0  0  0  0  0  0
   37.4190   25.9220   30.9670 F   0  0  0  0  0  0  0  0  0  0  0  0
  1  2  1  0  0  0  0
  1 14  1  0  0  0  0
  2  7  1  0  0  0  0
  3  8  1  0  0  0  0
  3  2  2  0  0  0  0
  4  3  1  0  0  0  0
  5  4  2  0  0  0  0
  5  6  1  0  0  0  0
  6  1  2  0  0  0  0
  9  4  1  0  0  0  0
 10 11  1  0  0  0  0
 11 12  2  0  0  0  0
 11 17  1  0  0  0  0
 12 18  1  0  0  0  0
 13 12  1  0  0  0  0
 14 13  2  0  0  0  0
 15 14  1  0  0  0  0
 15 10  2  0  0  0  0
 16 10  1  0  0  0  0
 19 21  1  0  0  0  0
 19  5  1  0  0  0  0
 20 19  1  0  0  0  0
 22 19  1  0  0  0  0
M  END
>  <minimizedAffinity>
-4.66635132

$$$$

 OpenBabel03272502533D

 22 23  0  0  0  0  0  0  0  0999 V2000
   37.7430   22.4680   34.4370 C   0  0  0  0  0  0  0  0  0  0  0  0
   38.0990   23.3410   33.4150 C   0  0  0  0  0  0  0  0  0  0  0  0
   37.6160   23.1420   32.1260 C   0  0  0  0  0  0  0  0  0  0  0  0
   36.7920   22.0590   31.9430 C   0  0  0  0  0  0  0  0  0  0  0  0
   36.4300   21.1810   32.9560 C   0  0  0  0  0  0  0  0  0  0  0  0
   36.9360   21.4310   34.1940 N   0  0  0  0  0  0  0  0  0  0  0  0
   38.7550   24.1710   33.6480 H   0  0  0  0  0  0  0  0  0  0  0  0
   37.8900   23.8180   31.3270 H   0  0  0  0  0  0  0  0  0  0  0  0
   36.4230   21.9190   30.9230 H   0  0  0  0  0  0  0  0  0  0  0  0
   38.0040   23.5220   37.9410 C   0  0  0  0  0  0  0  0  0  0  0  0
   39.3090   23.1470   38.2870 C   0  0  0  0  0  0  0  0  0  0  0  0
   40.0920   22.5290   37.3010 C   0  0  0  0  0  0  0  0  0  0  0  0
   39.5330   22.3330   36.0690 N   0  0  0  0  0  0  0  0  0  0  0  0
   38.2690   22.7100   35.7740 C   0  0  0  0  0  0  0  0  0  0  0  0
   37.5320   23.2960   36.7160 N   0  0  0  0  0  0  0  0  0  0  0  0
   37.3740   24.0010   38.6790 H   0  0  0  0  0  0  0  0  0  0  0  0
   39.7180   23.3190   39.2760 H   0  0  0  0  0  0  0  0  0  0  0  0
   41.1090   22.2150   37.5050 H   0  0  0  0  0  0  0  0  0  0  0  0
   35.5450   20.0620   32.6390 C   0  0  0  0  0  0  0  0  0  0  0  0
   35.9030   19.3800   31.4710 F   0  0  0  0  0  0  0  0  0  0  0  0
   34.2960   20.6280   32.3470 F   0  0  0  0  0  0  0  0  0  0  0  0
   35.4270   19.1350   33.6280 F   0  0  0  0  0  0  0  0  0  0  0  0
  1 14  1  0  0  0  0
  2  7  1  0  0  0  0
  2  1  2  0  0  0  0
  3  2  1  0  0  0  0
  4  3  2  0  0  0  0
  4  5  1  0  0  0  0
  5  6  2  0  0  0  0
  6  1  1  0  0  0  0
  8  3  1  0  0  0  0
  9  4  1  0  0  0  0
 10 11  1  0  0  0  0
 10 16  1  0  0  0  0
 11 17  1  0  0  0  0
 12 18  1  0  0  0  0
 12 11  2  0  0  0  0
 13 12  1  0  0  0  0
 14 13  2  0  0  0  0
 14 15  1  0  0  0  0
 15 10  2  0  0  0  0
 19  5  1  0  0  0  0
 19 22  1  0  0  0  0
 20 19  1  0  0  0  0
 21 19  1  0  0  0  0
M  END
>  <minimizedAffinity>
-4.63779831

$$$$

 OpenBabel03272502533D

 22 23  0  0  0  0  0  0  0  0999 V2000
   38.0580   23.8920   34.5400 C   0  0  0  0  0  0  0  0  0  0  0  0
   38.0390   25.2590   34.2880 C   0  0  0  0  0  0  0  0  0  0  0  0
   38.1050   26.1650   35.3410 C   0  0  0  0  0  0  0  0  0  0  0  0
   38.1860   25.6290   36.6030 C   0  0  0  0  0  0  0  0  0  0  0  0
   38.2050   24.2670   36.8670 C   0  0  0  0  0  0  0  0  0  0  0  0
   38.1390   23.4330   35.7920 N   0  0  0  0  0  0  0  0  0  0  0  0
   37.9730   25.5950   33.2600 H   0  0  0  0  0  0  0  0  0  0  0  0
   38.0910   27.2290   35.1510 H   0  0  0  0  0  0  0  0  0  0  0  0
   38.2360   26.3570   37.4180 H   0  0  0  0  0  0  0  0  0  0  0  0
   38.2810   20.8500   32.5010 C   0  0  0  0  0  0  0  0  0  0  0  0
   37.8380   21.2810   31.2430 C   0  0  0  0  0  0  0  0  0  0  0  0
   37.4640   22.6260   31.1090 C   0  0  0  0  0  0  0  0  0  0  0  0
   37.5560   23.4280   32.2120 N   0  0  0  0  0  0  0  0  0  0  0  0
   37.9880   22.9740   33.4100 C   0  0  0  0  0  0  0  0  0  0  0  0
   38.3400   21.6960   33.5290 N   0  0  0  0  0  0  0  0  0  0  0  0
   38.5760   19.8180   32.6370 H   0  0  0  0  0  0  0  0  0  0  0  0
   37.7790   20.6140   30.3900 H   0  0  0  0  0  0  0  0  0  0  0  0
   37.1140   23.0210   30.1630 H   0  0  0  0  0  0  0  0  0  0  0  0
   38.2950   23.8160   38.2530 C   0  0  0  0  0  0  0  0  0  0  0  0
   37.3040   22.8930   38.6050 F   0  0  0  0  0  0  0  0  0  0  0  0
   38.0240   24.9400   39.0440 F   0  0  0  0  0  0  0  0  0  0  0  0
   39.4940   23.2710   38.5960 F   0  0  0  0  0  0  0  0  0  0  0  0
  1  6  1  0  0  0  0
  2  1  2  0  0  0  0
  2  3  1  0  0  0  0
  3  4  2  0  0  0  0
  4  5  1  0  0  0  0
  4  9  1  0  0  0  0
  5 19  1  0  0  0  0
  6  5  2  0  0  0  0
  7  2  1  0  0  0  0
  8  3  1  0  0  0  0
 10 16  1  0  0  0  0
 10 15  1  0  0  0  0
 11 10  2  0  0  0  0
 12 11  1  0  0  0  0
 12 13  2  0  0  0  0
 13 14  1  0  0  0  0
 14 15  2  0  0  0  0
 14  1  1  0  0  0  0
 17 11  1  0  0  0  0
 18 12  1  0  0  0  0
 19 22  1  0  0  0  0
 19 20  1  0  0  0  0
 19 21  1  0  0  0  0
M  END
>  <minimizedAffinity>
-4.60845709

$$$$
