
 OpenBabel03272509503D

 28 29  0  0  0  0  0  0  0  0999 V2000
   33.7120   28.6020   48.7050 C   0  0  0  0  0  0  0  0  0  0  0  0
   33.0680   29.4220   49.1370 H   0  0  0  0  0  0  0  0  0  0  0  0
   34.2190   29.0320   47.8360 H   0  0  0  0  0  0  0  0  0  0  0  0
   32.7950   27.4540   48.3850 C   0  0  0  0  0  0  0  0  0  0  0  0
   32.9360   26.6480   49.1510 H   0  0  0  0  0  0  0  0  0  0  0  0
   33.1150   26.9660   47.4210 H   0  0  0  0  0  0  0  0  0  0  0  0
   31.3670   27.8520   48.3700 C   0  0  0  0  0  0  0  0  0  0  0  0
   30.6690   27.7340   49.5490 C   0  0  0  0  0  0  0  0  0  0  0  0
   29.3440   28.0690   49.6650 C   0  0  0  0  0  0  0  0  0  0  0  0
   28.6910   28.5330   48.5920 N   0  0  0  0  0  0  0  0  0  0  0  0
   29.3770   28.6490   47.4350 C   0  0  0  0  0  0  0  0  0  0  0  0
   30.6770   28.3240   47.3080 N   0  0  0  0  0  0  0  0  0  0  0  0
   31.1460   27.3620   50.4610 H   0  0  0  0  0  0  0  0  0  0  0  0
   28.7770   27.9780   50.6040 H   0  0  0  0  0  0  0  0  0  0  0  0
   28.8870   29.0180   46.5480 H   0  0  0  0  0  0  0  0  0  0  0  0
   34.6100   28.2290   49.7370 O   0  0  0  0  0  0  0  0  0  0  0  0
   37.1990   30.1800   51.3500 C   0  0  0  0  0  0  0  0  0  0  0  0
   37.7400   30.8490   50.2430 C   0  0  0  0  0  0  0  0  0  0  0  0
   37.1680   30.5800   49.0010 C   0  0  0  0  0  0  0  0  0  0  0  0
   36.1330   29.6940   48.9430 N   0  0  0  0  0  0  0  0  0  0  0  0
   35.6480   29.0760   50.0260 C   0  0  0  0  0  0  0  0  0  0  0  0
   36.1890   29.3270   51.2290 N   0  0  0  0  0  0  0  0  0  0  0  0
   37.6650   30.4110   52.3020 H   0  0  0  0  0  0  0  0  0  0  0  0
   38.5620   31.5470   50.3220 H   0  0  0  0  0  0  0  0  0  0  0  0
   37.6770   31.2470   47.7510 C   0  0  0  0  0  0  0  0  0  0  0  0
   37.9430   32.5710   48.1230 F   0  0  0  0  0  0  0  0  0  0  0  0
   38.8360   30.6140   47.3150 F   0  0  0  0  0  0  0  0  0  0  0  0
   36.6970   31.1590   46.8060 F   0  0  0  0  0  0  0  0  0  0  0  0
  1  2  1  0  0  0  0
  1 16  1  0  0  0  0
  3  1  1  0  0  0  0
  4  1  1  0  0  0  0
  4  5  1  0  0  0  0
  6  4  1  0  0  0  0
  7  4  1  0  0  0  0
  7  8  1  0  0  0  0
  8  9  2  0  0  0  0
  8 13  1  0  0  0  0
  9 14  1  0  0  0  0
 10  9  1  0  0  0  0
 11 10  2  0  0  0  0
 12 11  1  0  0  0  0
 12  7  2  0  0  0  0
 15 11  1  0  0  0  0
 16 21  1  0  0  0  0
 17 23  1  0  0  0  0
 18 24  1  0  0  0  0
 18 17  2  0  0  0  0
 19 18  1  0  0  0  0
 20 19  2  0  0  0  0
 20 21  1  0  0  0  0
 21 22  2  0  0  0  0
 22 17  1  0  0  0  0
 25 26  1  0  0  0  0
 25 19  1  0  0  0  0
 27 25  1  0  0  0  0
 28 25  1  0  0  0  0
M  END
>  <minimizedAffinity>
-5.1843605

>  <minimizedRMSD>
0.430482686

$$$$
