
 OpenBabel03272506223D

 23 24  0  0  0  0  0  0  0  0999 V2000
   40.7370   24.0110   35.4220 C   0  0  0  0  0  0  0  0  0  0  0  0
   39.5030   24.3240   36.0700 C   0  0  0  0  0  0  0  0  0  0  0  0
   39.1410   23.5630   37.1710 C   0  0  0  0  0  0  0  0  0  0  0  0
   39.9710   22.5650   37.5750 N   0  0  0  0  0  0  0  0  0  0  0  0
   41.1440   22.2820   36.9430 C   0  0  0  0  0  0  0  0  0  0  0  0
   41.5230   23.0170   35.8590 N   0  0  0  0  0  0  0  0  0  0  0  0
   41.0730   24.5650   34.5650 H   0  0  0  0  0  0  0  0  0  0  0  0
   41.7420   21.4650   37.3390 H   0  0  0  0  0  0  0  0  0  0  0  0
   38.7480   25.4180   35.5070 C   0  0  0  0  0  0  0  0  0  0  0  0
   38.0310   25.1650   34.3670 C   0  0  0  0  0  0  0  0  0  0  0  0
   37.2440   26.0870   33.7030 C   0  0  0  0  0  0  0  0  0  0  0  0
   37.1650   27.3990   34.2280 C   0  0  0  0  0  0  0  0  0  0  0  0
   37.8950   27.6610   35.3870 C   0  0  0  0  0  0  0  0  0  0  0  0
   38.6700   26.7220   36.0280 C   0  0  0  0  0  0  0  0  0  0  0  0
   37.9670   24.2630   33.7760 H   0  0  0  0  0  0  0  0  0  0  0  0
   36.6560   25.9900   32.8250 H   0  0  0  0  0  0  0  0  0  0  0  0
   36.5990   28.2290   33.8320 H   0  0  0  0  0  0  0  0  0  0  0  0
   37.9200   28.6200   35.8880 H   0  0  0  0  0  0  0  0  0  0  0  0
   39.2420   26.9070   36.9250 H   0  0  0  0  0  0  0  0  0  0  0  0
   37.9110   23.8100   37.9530 C   0  0  0  0  0  0  0  0  0  0  0  0
   38.0630   24.9500   38.7600 F   0  0  0  0  0  0  0  0  0  0  0  0
   36.7570   23.9160   37.2600 F   0  0  0  0  0  0  0  0  0  0  0  0
   37.7580   22.7810   38.9030 F   0  0  0  0  0  0  0  0  0  0  0  0
  1  6  2  0  0  0  0
  1  2  1  0  0  0  0
  2  3  2  0  0  0  0
  3  4  1  0  0  0  0
  3 20  1  0  0  0  0
  5  8  1  0  0  0  0
  5  4  2  0  0  0  0
  6  5  1  0  0  0  0
  7  1  1  0  0  0  0
  9 14  1  0  0  0  0
  9  2  1  0  0  0  0
 10  9  2  0  0  0  0
 11 12  2  0  0  0  0
 11 10  1  0  0  0  0
 12 13  1  0  0  0  0
 13 18  1  0  0  0  0
 13 14  2  0  0  0  0
 14 19  1  0  0  0  0
 15 10  1  0  0  0  0
 16 11  1  0  0  0  0
 17 12  1  0  0  0  0
 20 21  1  0  0  0  0
 20 23  1  0  0  0  0
 22 20  1  0  0  0  0
M  END
>  <minimizedAffinity>
-5.08076954

$$$$

 OpenBabel03272506223D

 23 24  0  0  0  0  0  0  0  0999 V2000
   37.9010   23.8730   33.5610 C   0  0  0  0  0  0  0  0  0  0  0  0
   38.3930   24.6590   34.6480 C   0  0  0  0  0  0  0  0  0  0  0  0
   38.0570   26.0040   34.6760 C   0  0  0  0  0  0  0  0  0  0  0  0
   37.2840   26.5040   33.6760 N   0  0  0  0  0  0  0  0  0  0  0  0
   36.8240   25.7370   32.6470 C   0  0  0  0  0  0  0  0  0  0  0  0
   37.1400   24.4120   32.5990 N   0  0  0  0  0  0  0  0  0  0  0  0
   38.1260   22.8260   33.4840 H   0  0  0  0  0  0  0  0  0  0  0  0
   36.2120   26.2250   31.8940 H   0  0  0  0  0  0  0  0  0  0  0  0
   39.2000   23.9640   35.6230 C   0  0  0  0  0  0  0  0  0  0  0  0
   40.5360   23.8280   35.3500 C   0  0  0  0  0  0  0  0  0  0  0  0
   41.4550   23.2070   36.1750 C   0  0  0  0  0  0  0  0  0  0  0  0
   40.9950   22.6600   37.3960 C   0  0  0  0  0  0  0  0  0  0  0  0
   39.6340   22.7940   37.6760 C   0  0  0  0  0  0  0  0  0  0  0  0
   38.7420   23.4200   36.8360 C   0  0  0  0  0  0  0  0  0  0  0  0
   41.0990   24.1300   34.4790 H   0  0  0  0  0  0  0  0  0  0  0  0
   42.4980   23.0540   36.0560 H   0  0  0  0  0  0  0  0  0  0  0  0
   41.5790   22.1470   38.1440 H   0  0  0  0  0  0  0  0  0  0  0  0
   39.1570   22.4210   38.5730 H   0  0  0  0  0  0  0  0  0  0  0  0
   37.6870   23.5320   37.0350 H   0  0  0  0  0  0  0  0  0  0  0  0
   38.4690   26.9160   35.7640 C   0  0  0  0  0  0  0  0  0  0  0  0
   37.8970   28.1870   35.5820 F   0  0  0  0  0  0  0  0  0  0  0  0
   38.2280   26.5070   37.0280 F   0  0  0  0  0  0  0  0  0  0  0  0
   39.8470   27.1810   35.6440 F   0  0  0  0  0  0  0  0  0  0  0  0
  1  2  1  0  0  0  0
  2  3  2  0  0  0  0
  2  9  1  0  0  0  0
  3 20  1  0  0  0  0
  4  3  1  0  0  0  0
  5  4  2  0  0  0  0
  6  5  1  0  0  0  0
  6  1  2  0  0  0  0
  7  1  1  0  0  0  0
  8  5  1  0  0  0  0
  9 14  1  0  0  0  0
 10  9  2  0  0  0  0
 10 11  1  0  0  0  0
 11 12  2  0  0  0  0
 12 13  1  0  0  0  0
 12 17  1  0  0  0  0
 13 18  1  0  0  0  0
 14 19  1  0  0  0  0
 14 13  2  0  0  0  0
 15 10  1  0  0  0  0
 16 11  1  0  0  0  0
 20 22  1  0  0  0  0
 21 20  1  0  0  0  0
 23 20  1  0  0  0  0
M  END
>  <minimizedAffinity>
-4.89588022

$$$$

 OpenBabel03272506223D

 23 24  0  0  0  0  0  0  0  0999 V2000
   37.8750   23.7180   33.7380 C   0  0  0  0  0  0  0  0  0  0  0  0
   38.7300   24.5160   34.5600 C   0  0  0  0  0  0  0  0  0  0  0  0
   39.3390   25.6170   33.9780 C   0  0  0  0  0  0  0  0  0  0  0  0
   39.0980   25.8780   32.6650 N   0  0  0  0  0  0  0  0  0  0  0  0
   38.2800   25.1040   31.8990 C   0  0  0  0  0  0  0  0  0  0  0  0
   37.6670   24.0170   32.4490 N   0  0  0  0  0  0  0  0  0  0  0  0
   37.3740   22.8530   34.1310 H   0  0  0  0  0  0  0  0  0  0  0  0
   38.1470   25.3920   30.8590 H   0  0  0  0  0  0  0  0  0  0  0  0
   38.8710   24.0920   35.9320 C   0  0  0  0  0  0  0  0  0  0  0  0
   37.9810   24.6020   36.8420 C   0  0  0  0  0  0  0  0  0  0  0  0
   37.9600   24.2950   38.1890 C   0  0  0  0  0  0  0  0  0  0  0  0
   38.9280   23.3890   38.6830 C   0  0  0  0  0  0  0  0  0  0  0  0
   39.8380   22.8710   37.7610 C   0  0  0  0  0  0  0  0  0  0  0  0
   39.8340   23.1930   36.4230 C   0  0  0  0  0  0  0  0  0  0  0  0
   37.1890   25.3240   36.7050 H   0  0  0  0  0  0  0  0  0  0  0  0
   37.3190   24.6310   38.9650 H   0  0  0  0  0  0  0  0  0  0  0  0
   39.0470   23.0490   39.7010 H   0  0  0  0  0  0  0  0  0  0  0  0
   40.6260   22.1710   38.0090 H   0  0  0  0  0  0  0  0  0  0  0  0
   40.5300   22.8030   35.6960 H   0  0  0  0  0  0  0  0  0  0  0  0
   40.2130   26.5450   34.7260 C   0  0  0  0  0  0  0  0  0  0  0  0
   39.4760   27.2240   35.7120 F   0  0  0  0  0  0  0  0  0  0  0  0
   41.3190   26.0190   35.2930 F   0  0  0  0  0  0  0  0  0  0  0  0
   40.6130   27.5900   33.8700 F   0  0  0  0  0  0  0  0  0  0  0  0
  1  7  1  0  0  0  0
  1  2  1  0  0  0  0
  2  9  1  0  0  0  0
  3  2  2  0  0  0  0
  3 20  1  0  0  0  0
  4  3  1  0  0  0  0
  5  6  1  0  0  0  0
  5  4  2  0  0  0  0
  6  1  2  0  0  0  0
  8  5  1  0  0  0  0
  9 14  2  0  0  0  0
  9 10  1  0  0  0  0
 10 11  2  0  0  0  0
 11 12  1  0  0  0  0
 11 16  1  0  0  0  0
 12 17  1  0  0  0  0
 13 18  1  0  0  0  0
 13 12  2  0  0  0  0
 14 13  1  0  0  0  0
 15 10  1  0  0  0  0
 19 14  1  0  0  0  0
 20 22  1  0  0  0  0
 20 21  1  0  0  0  0
 23 20  1  0  0  0  0
M  END
>  <minimizedAffinity>
-4.86857319

$$$$

 OpenBabel03272506223D

 23 24  0  0  0  0  0  0  0  0999 V2000
   37.9790   22.7310   34.0210 C   0  0  0  0  0  0  0  0  0  0  0  0
   38.3990   23.4260   35.1970 C   0  0  0  0  0  0  0  0  0  0  0  0
   37.8660   23.0200   36.4110 C   0  0  0  0  0  0  0  0  0  0  0  0
   36.9780   21.9910   36.4220 N   0  0  0  0  0  0  0  0  0  0  0  0
   36.5900   21.3410   35.2890 C   0  0  0  0  0  0  0  0  0  0  0  0
   37.1010   21.7210   34.0830 N   0  0  0  0  0  0  0  0  0  0  0  0
   38.3560   22.9980   33.0520 H   0  0  0  0  0  0  0  0  0  0  0  0
   35.8750   20.5300   35.3970 H   0  0  0  0  0  0  0  0  0  0  0  0
   39.3500   24.4940   35.0000 C   0  0  0  0  0  0  0  0  0  0  0  0
   38.8480   25.7500   34.7780 C   0  0  0  0  0  0  0  0  0  0  0  0
   39.6090   26.8870   34.5850 C   0  0  0  0  0  0  0  0  0  0  0  0
   41.0180   26.7600   34.6120 C   0  0  0  0  0  0  0  0  0  0  0  0
   41.5340   25.4820   34.8350 C   0  0  0  0  0  0  0  0  0  0  0  0
   40.7500   24.3670   35.0270 C   0  0  0  0  0  0  0  0  0  0  0  0
   37.8220   26.0780   34.6830 H   0  0  0  0  0  0  0  0  0  0  0  0
   39.3190   27.8920   34.4090 H   0  0  0  0  0  0  0  0  0  0  0  0
   41.7490   27.5430   34.4800 H   0  0  0  0  0  0  0  0  0  0  0  0
   42.5900   25.2500   34.8800 H   0  0  0  0  0  0  0  0  0  0  0  0
   41.1310   23.3720   35.2000 H   0  0  0  0  0  0  0  0  0  0  0  0
   38.2470   23.6300   37.7030 C   0  0  0  0  0  0  0  0  0  0  0  0
   39.5770   23.3070   38.0240 F   0  0  0  0  0  0  0  0  0  0  0  0
   38.0800   24.9640   37.8220 F   0  0  0  0  0  0  0  0  0  0  0  0
   37.5220   23.0030   38.7370 F   0  0  0  0  0  0  0  0  0  0  0  0
  1  6  2  0  0  0  0
  1  2  1  0  0  0  0
  2  3  2  0  0  0  0
  3  4  1  0  0  0  0
  3 20  1  0  0  0  0
  5  8  1  0  0  0  0
  5  4  2  0  0  0  0
  6  5  1  0  0  0  0
  7  1  1  0  0  0  0
  9 14  1  0  0  0  0
  9  2  1  0  0  0  0
 10  9  2  0  0  0  0
 11 12  2  0  0  0  0
 11 10  1  0  0  0  0
 12 13  1  0  0  0  0
 13 18  1  0  0  0  0
 13 14  2  0  0  0  0
 14 19  1  0  0  0  0
 15 10  1  0  0  0  0
 16 11  1  0  0  0  0
 17 12  1  0  0  0  0
 20 22  1  0  0  0  0
 20 21  1  0  0  0  0
 20 23  1  0  0  0  0
M  END
>  <minimizedAffinity>
-4.51100016

$$$$

 OpenBabel03272506223D

 23 24  0  0  0  0  0  0  0  0999 V2000
   32.8580   29.4360   35.0260 C   0  0  0  0  0  0  0  0  0  0  0  0
   34.0800   30.1650   34.8920 C   0  0  0  0  0  0  0  0  0  0  0  0
   34.3110   31.2050   35.7790 C   0  0  0  0  0  0  0  0  0  0  0  0
   33.3710   31.4780   36.7220 N   0  0  0  0  0  0  0  0  0  0  0  0
   32.2110   30.7720   36.8330 C   0  0  0  0  0  0  0  0  0  0  0  0
   31.9620   29.7430   35.9740 N   0  0  0  0  0  0  0  0  0  0  0  0
   32.6210   28.6190   34.3700 H   0  0  0  0  0  0  0  0  0  0  0  0
   31.5200   31.0640   37.6200 H   0  0  0  0  0  0  0  0  0  0  0  0
   34.9630   29.7370   33.8340 C   0  0  0  0  0  0  0  0  0  0  0  0
   35.8090   28.6930   34.1060 C   0  0  0  0  0  0  0  0  0  0  0  0
   36.7090   28.1460   33.2100 C   0  0  0  0  0  0  0  0  0  0  0  0
   36.7750   28.6970   31.9090 C   0  0  0  0  0  0  0  0  0  0  0  0
   35.9170   29.7620   31.6290 C   0  0  0  0  0  0  0  0  0  0  0  0
   35.0300   30.2860   32.5410 C   0  0  0  0  0  0  0  0  0  0  0  0
   35.9580   28.1450   35.0250 H   0  0  0  0  0  0  0  0  0  0  0  0
   37.3970   27.3470   33.3220 H   0  0  0  0  0  0  0  0  0  0  0  0
   37.4170   28.3880   31.0990 H   0  0  0  0  0  0  0  0  0  0  0  0
   35.8690   30.2710   30.6750 H   0  0  0  0  0  0  0  0  0  0  0  0
   34.3590   31.1080   32.3430 H   0  0  0  0  0  0  0  0  0  0  0  0
   35.5510   32.0100   35.7720 C   0  0  0  0  0  0  0  0  0  0  0  0
   36.6590   31.2060   36.0910 F   0  0  0  0  0  0  0  0  0  0  0  0
   35.8240   32.7030   34.6460 F   0  0  0  0  0  0  0  0  0  0  0  0
   35.5130   32.9190   36.8480 F   0  0  0  0  0  0  0  0  0  0  0  0
  1  6  1  0  0  0  0
  2  1  2  0  0  0  0
  2  3  1  0  0  0  0
  3  4  2  0  0  0  0
  4  5  1  0  0  0  0
  5  8  1  0  0  0  0
  6  5  2  0  0  0  0
  7  1  1  0  0  0  0
  9 10  1  0  0  0  0
  9  2  1  0  0  0  0
 10 15  1  0  0  0  0
 11 16  1  0  0  0  0
 11 10  2  0  0  0  0
 12 11  1  0  0  0  0
 13 12  2  0  0  0  0
 13 14  1  0  0  0  0
 14  9  2  0  0  0  0
 17 12  1  0  0  0  0
 18 13  1  0  0  0  0
 19 14  1  0  0  0  0
 20  3  1  0  0  0  0
 20 21  1  0  0  0  0
 20 23  1  0  0  0  0
 22 20  1  0  0  0  0
M  END
>  <minimizedAffinity>
-4.3847537

$$$$

 OpenBabel03272506223D

 23 24  0  0  0  0  0  0  0  0999 V2000
   38.0160   23.7330   33.7460 C   0  0  0  0  0  0  0  0  0  0  0  0
   38.1120   25.1180   34.0840 C   0  0  0  0  0  0  0  0  0  0  0  0
   38.1480   25.4530   35.4290 C   0  0  0  0  0  0  0  0  0  0  0  0
   38.0870   24.4560   36.3510 N   0  0  0  0  0  0  0  0  0  0  0  0
   37.9950   23.1400   36.0090 C   0  0  0  0  0  0  0  0  0  0  0  0
   37.9610   22.7860   34.6930 N   0  0  0  0  0  0  0  0  0  0  0  0
   37.9850   23.4090   32.7230 H   0  0  0  0  0  0  0  0  0  0  0  0
   37.9520   22.4150   36.8160 H   0  0  0  0  0  0  0  0  0  0  0  0
   38.1670   26.0410   32.9760 C   0  0  0  0  0  0  0  0  0  0  0  0
   36.9740   26.4510   32.4400 C   0  0  0  0  0  0  0  0  0  0  0  0
   36.8380   27.3390   31.3890 C   0  0  0  0  0  0  0  0  0  0  0  0
   38.0140   27.8720   30.8100 C   0  0  0  0  0  0  0  0  0  0  0  0
   39.2310   27.4550   31.3510 C   0  0  0  0  0  0  0  0  0  0  0  0
   39.3350   26.5700   32.3990 C   0  0  0  0  0  0  0  0  0  0  0  0
   35.9650   26.1560   32.6920 H   0  0  0  0  0  0  0  0  0  0  0  0
   35.9710   27.7150   30.9100 H   0  0  0  0  0  0  0  0  0  0  0  0
   38.0800   28.5710   29.9900 H   0  0  0  0  0  0  0  0  0  0  0  0
   40.1990   27.7870   31.0000 H   0  0  0  0  0  0  0  0  0  0  0  0
   40.2670   26.2360   32.8300 H   0  0  0  0  0  0  0  0  0  0  0  0
   38.2850   26.8440   35.9100 C   0  0  0  0  0  0  0  0  0  0  0  0
   39.5780   27.3290   35.6450 F   0  0  0  0  0  0  0  0  0  0  0  0
   37.3830   27.7400   35.4570 F   0  0  0  0  0  0  0  0  0  0  0  0
   38.2390   26.8490   37.3180 F   0  0  0  0  0  0  0  0  0  0  0  0
  1  2  2  0  0  0  0
  1  6  1  0  0  0  0
  2  3  1  0  0  0  0
  3 20  1  0  0  0  0
  3  4  2  0  0  0  0
  5  4  1  0  0  0  0
  5  8  1  0  0  0  0
  6  5  2  0  0  0  0
  7  1  1  0  0  0  0
  9  2  1  0  0  0  0
 10 15  1  0  0  0  0
 10  9  1  0  0  0  0
 11 10  2  0  0  0  0
 12 13  2  0  0  0  0
 12 11  1  0  0  0  0
 13 14  1  0  0  0  0
 14 19  1  0  0  0  0
 14  9  2  0  0  0  0
 16 11  1  0  0  0  0
 17 12  1  0  0  0  0
 18 13  1  0  0  0  0
 20 23  1  0  0  0  0
 21 20  1  0  0  0  0
 22 20  1  0  0  0  0
M  END
>  <minimizedAffinity>
-4.37815619

$$$$

 OpenBabel03272506223D

 23 24  0  0  0  0  0  0  0  0999 V2000
   38.5710   25.6760   34.2210 C   0  0  0  0  0  0  0  0  0  0  0  0
   38.3520   24.3050   34.5620 C   0  0  0  0  0  0  0  0  0  0  0  0
   37.9000   23.4570   33.5630 C   0  0  0  0  0  0  0  0  0  0  0  0
   37.6870   23.9660   32.3210 N   0  0  0  0  0  0  0  0  0  0  0  0
   37.9010   25.2770   32.0160 C   0  0  0  0  0  0  0  0  0  0  0  0
   38.3480   26.1310   32.9810 N   0  0  0  0  0  0  0  0  0  0  0  0
   38.9220   26.3820   34.9500 H   0  0  0  0  0  0  0  0  0  0  0  0
   37.7040   25.5930   30.9950 H   0  0  0  0  0  0  0  0  0  0  0  0
   38.6300   23.9370   35.9290 C   0  0  0  0  0  0  0  0  0  0  0  0
   37.7310   24.3350   36.8830 C   0  0  0  0  0  0  0  0  0  0  0  0
   37.8300   24.0600   38.2340 C   0  0  0  0  0  0  0  0  0  0  0  0
   38.9440   23.3110   38.6820 C   0  0  0  0  0  0  0  0  0  0  0  0
   39.8650   22.9050   37.7140 C   0  0  0  0  0  0  0  0  0  0  0  0
   39.7380   23.1940   36.3750 C   0  0  0  0  0  0  0  0  0  0  0  0
   36.8370   24.9350   36.7830 H   0  0  0  0  0  0  0  0  0  0  0  0
   37.1940   24.3190   39.0410 H   0  0  0  0  0  0  0  0  0  0  0  0
   39.1680   23.0140   39.6950 H   0  0  0  0  0  0  0  0  0  0  0  0
   40.7570   22.3300   37.9250 H   0  0  0  0  0  0  0  0  0  0  0  0
   40.4390   22.8890   35.6130 H   0  0  0  0  0  0  0  0  0  0  0  0
   37.6710   22.0110   33.7750 C   0  0  0  0  0  0  0  0  0  0  0  0
   38.8970   21.3250   33.8310 F   0  0  0  0  0  0  0  0  0  0  0  0
   36.9250   21.6600   34.8430 F   0  0  0  0  0  0  0  0  0  0  0  0
   37.0700   21.4680   32.6220 F   0  0  0  0  0  0  0  0  0  0  0  0
  1  2  1  0  0  0  0
  1  7  1  0  0  0  0
  2  9  1  0  0  0  0
  3 20  1  0  0  0  0
  3  2  2  0  0  0  0
  4  3  1  0  0  0  0
  5  4  2  0  0  0  0
  5  6  1  0  0  0  0
  6  1  2  0  0  0  0
  8  5  1  0  0  0  0
  9 14  2  0  0  0  0
  9 10  1  0  0  0  0
 10 11  2  0  0  0  0
 11 12  1  0  0  0  0
 11 16  1  0  0  0  0
 12 17  1  0  0  0  0
 13 18  1  0  0  0  0
 13 12  2  0  0  0  0
 14 13  1  0  0  0  0
 15 10  1  0  0  0  0
 19 14  1  0  0  0  0
 20 21  1  0  0  0  0
 20 22  1  0  0  0  0
 23 20  1  0  0  0  0
M  END
>  <minimizedAffinity>
-4.35147142

$$$$

 OpenBabel03272506223D

 23 24  0  0  0  0  0  0  0  0999 V2000
   36.6020   27.8510   34.4500 C   0  0  0  0  0  0  0  0  0  0  0  0
   35.9950   28.9750   33.8090 C   0  0  0  0  0  0  0  0  0  0  0  0
   36.1520   29.0960   32.4370 C   0  0  0  0  0  0  0  0  0  0  0  0
   36.8700   28.1500   31.7760 N   0  0  0  0  0  0  0  0  0  0  0  0
   37.4420   27.0860   32.4060 C   0  0  0  0  0  0  0  0  0  0  0  0
   37.3000   26.9430   33.7550 N   0  0  0  0  0  0  0  0  0  0  0  0
   36.5160   27.7010   35.5100 H   0  0  0  0  0  0  0  0  0  0  0  0
   37.9980   26.3810   31.7940 H   0  0  0  0  0  0  0  0  0  0  0  0
   35.2680   29.8800   34.6650 C   0  0  0  0  0  0  0  0  0  0  0  0
   35.9960   30.8140   35.3560 C   0  0  0  0  0  0  0  0  0  0  0  0
   35.4650   31.7650   36.2070 C   0  0  0  0  0  0  0  0  0  0  0  0
   34.0630   31.7880   36.3910 C   0  0  0  0  0  0  0  0  0  0  0  0
   33.3170   30.8370   35.6920 C   0  0  0  0  0  0  0  0  0  0  0  0
   33.8740   29.9020   34.8490 C   0  0  0  0  0  0  0  0  0  0  0  0
   37.0660   30.9630   35.3990 H   0  0  0  0  0  0  0  0  0  0  0  0
   35.9390   32.5220   36.7790 H   0  0  0  0  0  0  0  0  0  0  0  0
   33.4960   32.4610   37.0160 H   0  0  0  0  0  0  0  0  0  0  0  0
   32.2400   30.7480   35.7450 H   0  0  0  0  0  0  0  0  0  0  0  0
   33.3140   29.1600   34.3010 H   0  0  0  0  0  0  0  0  0  0  0  0
   35.5420   30.1890   31.6490 C   0  0  0  0  0  0  0  0  0  0  0  0
   35.9540   30.1140   30.3070 F   0  0  0  0  0  0  0  0  0  0  0  0
   34.1970   30.2930   31.6880 F   0  0  0  0  0  0  0  0  0  0  0  0
   36.0900   31.4180   32.0690 F   0  0  0  0  0  0  0  0  0  0  0  0
  1  7  1  0  0  0  0
  2  1  1  0  0  0  0
  2  9  1  0  0  0  0
  3  2  2  0  0  0  0
  4  5  2  0  0  0  0
  4  3  1  0  0  0  0
  5  6  1  0  0  0  0
  6  1  2  0  0  0  0
  8  5  1  0  0  0  0
  9 14  2  0  0  0  0
  9 10  1  0  0  0  0
 10 15  1  0  0  0  0
 10 11  2  0  0  0  0
 11 12  1  0  0  0  0
 11 16  1  0  0  0  0
 12 17  1  0  0  0  0
 13 18  1  0  0  0  0
 13 12  2  0  0  0  0
 14 13  1  0  0  0  0
 19 14  1  0  0  0  0
 20 22  1  0  0  0  0
 20 23  1  0  0  0  0
 20  3  1  0  0  0  0
 21 20  1  0  0  0  0
M  END
>  <minimizedAffinity>
-4.34111452

$$$$

 OpenBabel03272506223D

 23 24  0  0  0  0  0  0  0  0999 V2000
   38.3740   26.7340   35.8910 C   0  0  0  0  0  0  0  0  0  0  0  0
   38.4470   25.4430   35.2830 C   0  0  0  0  0  0  0  0  0  0  0  0
   37.7730   25.2550   34.0860 C   0  0  0  0  0  0  0  0  0  0  0  0
   37.0810   26.2980   33.5560 N   0  0  0  0  0  0  0  0  0  0  0  0
   37.0230   27.5220   34.1510 C   0  0  0  0  0  0  0  0  0  0  0  0
   37.6790   27.7330   35.3280 N   0  0  0  0  0  0  0  0  0  0  0  0
   38.8750   26.9430   36.8170 H   0  0  0  0  0  0  0  0  0  0  0  0
   36.4450   28.2950   33.6520 H   0  0  0  0  0  0  0  0  0  0  0  0
   39.2280   24.4530   35.9840 C   0  0  0  0  0  0  0  0  0  0  0  0
   38.6820   23.9100   37.1180 C   0  0  0  0  0  0  0  0  0  0  0  0
   39.2800   22.9420   37.9030 C   0  0  0  0  0  0  0  0  0  0  0  0
   40.5570   22.4680   37.5210 C   0  0  0  0  0  0  0  0  0  0  0  0
   41.1180   23.0200   36.3680 C   0  0  0  0  0  0  0  0  0  0  0  0
   40.4970   23.9830   35.6050 C   0  0  0  0  0  0  0  0  0  0  0  0
   37.7490   24.1370   37.6140 H   0  0  0  0  0  0  0  0  0  0  0  0
   38.9430   22.4630   38.7870 H   0  0  0  0  0  0  0  0  0  0  0  0
   41.1550   21.7210   38.0210 H   0  0  0  0  0  0  0  0  0  0  0  0
   42.0860   22.7460   35.9700 H   0  0  0  0  0  0  0  0  0  0  0  0
   40.9160   24.4210   34.7110 H   0  0  0  0  0  0  0  0  0  0  0  0
   37.8010   23.9810   33.3360 C   0  0  0  0  0  0  0  0  0  0  0  0
   39.0300   23.8300   32.6720 F   0  0  0  0  0  0  0  0  0  0  0  0
   37.5420   22.8550   34.0350 F   0  0  0  0  0  0  0  0  0  0  0  0
   36.8840   24.0560   32.2700 F   0  0  0  0  0  0  0  0  0  0  0  0
  1  7  1  0  0  0  0
  2  1  2  0  0  0  0
  2  9  1  0  0  0  0
  3  2  1  0  0  0  0
  4  3  2  0  0  0  0
  4  5  1  0  0  0  0
  5  6  2  0  0  0  0
  6  1  1  0  0  0  0
  8  5  1  0  0  0  0
  9 10  1  0  0  0  0
 10 15  1  0  0  0  0
 10 11  2  0  0  0  0
 11 16  1  0  0  0  0
 12 11  1  0  0  0  0
 12 17  1  0  0  0  0
 13 12  2  0  0  0  0
 14  9  2  0  0  0  0
 14 13  1  0  0  0  0
 18 13  1  0  0  0  0
 19 14  1  0  0  0  0
 20 22  1  0  0  0  0
 20  3  1  0  0  0  0
 21 20  1  0  0  0  0
 23 20  1  0  0  0  0
M  END
>  <minimizedAffinity>
-4.33044147

$$$$
