
 OpenBabel03272505223D

 23 24  0  0  0  0  0  0  0  0999 V2000
   38.1100   22.8420   34.8630 Br  0  0  0  0  0  0  0  0  0  0  0  0
   38.1770   24.7290   35.1120 C   0  0  0  0  0  0  0  0  0  0  0  0
   38.2000   25.5820   34.0130 C   0  0  0  0  0  0  0  0  0  0  0  0
   38.2480   26.9400   34.2340 C   0  0  0  0  0  0  0  0  0  0  0  0
   38.2720   27.4310   35.5240 C   0  0  0  0  0  0  0  0  0  0  0  0
   38.2490   26.5880   36.6300 C   0  0  0  0  0  0  0  0  0  0  0  0
   38.2010   25.2290   36.3920 C   0  0  0  0  0  0  0  0  0  0  0  0
   38.2660   27.5970   33.3760 H   0  0  0  0  0  0  0  0  0  0  0  0
   38.3080   28.4940   35.7060 H   0  0  0  0  0  0  0  0  0  0  0  0
   38.2650   26.9270   37.6540 H   0  0  0  0  0  0  0  0  0  0  0  0
   36.9850   24.0810   30.7460 C   0  0  0  0  0  0  0  0  0  0  0  0
   36.9820   24.6790   32.0110 C   0  0  0  0  0  0  0  0  0  0  0  0
   38.1720   24.9580   32.6910 C   0  0  0  0  0  0  0  0  0  0  0  0
   39.2950   24.6050   32.0310 N   0  0  0  0  0  0  0  0  0  0  0  0
   39.3050   24.0310   30.8170 C   0  0  0  0  0  0  0  0  0  0  0  0
   38.1580   23.7740   30.1880 N   0  0  0  0  0  0  0  0  0  0  0  0
   35.9830   23.9440   30.3820 H   0  0  0  0  0  0  0  0  0  0  0  0
   36.0800   24.9670   32.5520 H   0  0  0  0  0  0  0  0  0  0  0  0
   40.2010   23.7490   30.2910 H   0  0  0  0  0  0  0  0  0  0  0  0
   38.1740   24.2690   37.5390 C   0  0  0  0  0  0  0  0  0  0  0  0
   39.3470   23.5440   37.5530 F   0  0  0  0  0  0  0  0  0  0  0  0
   38.0610   24.9570   38.7470 F   0  0  0  0  0  0  0  0  0  0  0  0
   37.0990   23.4090   37.4430 F   0  0  0  0  0  0  0  0  0  0  0  0
  1  2  1  0  0  0  0
  2  7  1  0  0  0  0
  3  4  1  0  0  0  0
  3  2  2  0  0  0  0
  4  5  2  0  0  0  0
  5  9  1  0  0  0  0
  5  6  1  0  0  0  0
  6 10  1  0  0  0  0
  7  6  2  0  0  0  0
  7 20  1  0  0  0  0
  8  4  1  0  0  0  0
 11 12  1  0  0  0  0
 12 18  1  0  0  0  0
 12 13  2  0  0  0  0
 13  3  1  0  0  0  0
 14 13  1  0  0  0  0
 15 14  2  0  0  0  0
 16 11  2  0  0  0  0
 16 15  1  0  0  0  0
 17 11  1  0  0  0  0
 19 15  1  0  0  0  0
 20 21  1  0  0  0  0
 20 22  1  0  0  0  0
 23 20  1  0  0  0  0
M  END
>  <minimizedAffinity>
-4.82078743

$$$$

 OpenBabel03272505223D

 23 24  0  0  0  0  0  0  0  0999 V2000
   40.8830   23.6070   34.3270 Br  0  0  0  0  0  0  0  0  0  0  0  0
   39.7780   23.6970   35.8760 C   0  0  0  0  0  0  0  0  0  0  0  0
   38.6290   24.4810   35.8730 C   0  0  0  0  0  0  0  0  0  0  0  0
   37.8560   24.5210   37.0110 C   0  0  0  0  0  0  0  0  0  0  0  0
   38.2260   23.7930   38.1250 C   0  0  0  0  0  0  0  0  0  0  0  0
   39.3730   23.0060   38.1380 C   0  0  0  0  0  0  0  0  0  0  0  0
   40.1370   22.9760   36.9900 C   0  0  0  0  0  0  0  0  0  0  0  0
   36.9650   25.1310   37.0030 H   0  0  0  0  0  0  0  0  0  0  0  0
   37.6260   23.8170   39.0210 H   0  0  0  0  0  0  0  0  0  0  0  0
   39.6990   22.4210   38.9840 H   0  0  0  0  0  0  0  0  0  0  0  0
   38.4120   27.2170   33.2520 C   0  0  0  0  0  0  0  0  0  0  0  0
   38.7130   26.5420   34.4400 C   0  0  0  0  0  0  0  0  0  0  0  0
   38.3300   25.2120   34.6430 C   0  0  0  0  0  0  0  0  0  0  0  0
   37.6580   24.6550   33.6130 N   0  0  0  0  0  0  0  0  0  0  0  0
   37.3660   25.2970   32.4700 C   0  0  0  0  0  0  0  0  0  0  0  0
   37.7420   26.5650   32.2990 N   0  0  0  0  0  0  0  0  0  0  0  0
   38.7850   28.2240   33.2760 H   0  0  0  0  0  0  0  0  0  0  0  0
   39.2540   26.9830   35.2770 H   0  0  0  0  0  0  0  0  0  0  0  0
   36.8310   24.8530   31.6490 H   0  0  0  0  0  0  0  0  0  0  0  0
   41.3820   22.1490   36.9400 C   0  0  0  0  0  0  0  0  0  0  0  0
   42.4820   22.9810   36.9330 F   0  0  0  0  0  0  0  0  0  0  0  0
   41.4590   21.3180   38.0580 F   0  0  0  0  0  0  0  0  0  0  0  0
   41.4020   21.3460   35.8170 F   0  0  0  0  0  0  0  0  0  0  0  0
  1  2  1  0  0  0  0
  2  7  1  0  0  0  0
  3  2  2  0  0  0  0
  3  4  1  0  0  0  0
  4  5  2  0  0  0  0
  5  6  1  0  0  0  0
  5  9  1  0  0  0  0
  6 10  1  0  0  0  0
  7  6  2  0  0  0  0
  8  4  1  0  0  0  0
 11 17  1  0  0  0  0
 11 12  1  0  0  0  0
 12 13  2  0  0  0  0
 12 18  1  0  0  0  0
 13  3  1  0  0  0  0
 14 13  1  0  0  0  0
 15 14  2  0  0  0  0
 16 15  1  0  0  0  0
 16 11  2  0  0  0  0
 19 15  1  0  0  0  0
 20  7  1  0  0  0  0
 20 22  1  0  0  0  0
 21 20  1  0  0  0  0
 23 20  1  0  0  0  0
M  END
>  <minimizedAffinity>
-4.79499245

$$$$

 OpenBabel03272505223D

 23 24  0  0  0  0  0  0  0  0999 V2000
   37.9850   25.4810   35.7360 Br  0  0  0  0  0  0  0  0  0  0  0  0
   39.4040   24.2790   36.1530 C   0  0  0  0  0  0  0  0  0  0  0  0
   40.5590   24.2610   35.3780 C   0  0  0  0  0  0  0  0  0  0  0  0
   41.5620   23.3790   35.7110 C   0  0  0  0  0  0  0  0  0  0  0  0
   41.4110   22.5370   36.7950 C   0  0  0  0  0  0  0  0  0  0  0  0
   40.2610   22.5470   37.5760 C   0  0  0  0  0  0  0  0  0  0  0  0
   39.2640   23.4360   37.2300 C   0  0  0  0  0  0  0  0  0  0  0  0
   42.4560   23.3700   35.1050 H   0  0  0  0  0  0  0  0  0  0  0  0
   42.1930   21.8440   37.0630 H   0  0  0  0  0  0  0  0  0  0  0  0
   40.1010   21.9080   38.4310 H   0  0  0  0  0  0  0  0  0  0  0  0
   41.1930   27.3530   33.2700 C   0  0  0  0  0  0  0  0  0  0  0  0
   41.1520   26.4810   34.3640 C   0  0  0  0  0  0  0  0  0  0  0  0
   40.6160   25.1940   34.2540 C   0  0  0  0  0  0  0  0  0  0  0  0
   40.1520   24.8790   33.0260 N   0  0  0  0  0  0  0  0  0  0  0  0
   40.1880   25.7110   31.9720 C   0  0  0  0  0  0  0  0  0  0  0  0
   40.7050   26.9340   32.1010 N   0  0  0  0  0  0  0  0  0  0  0  0
   41.6380   28.2920   33.5430 H   0  0  0  0  0  0  0  0  0  0  0  0
   41.5230   26.7260   35.3590 H   0  0  0  0  0  0  0  0  0  0  0  0
   39.8180   25.4600   30.9930 H   0  0  0  0  0  0  0  0  0  0  0  0
   38.0030   23.4970   38.0310 C   0  0  0  0  0  0  0  0  0  0  0  0
   36.9380   23.1450   37.2290 F   0  0  0  0  0  0  0  0  0  0  0  0
   38.0650   22.6080   39.1040 F   0  0  0  0  0  0  0  0  0  0  0  0
   37.7980   24.7620   38.5440 F   0  0  0  0  0  0  0  0  0  0  0  0
  1  2  1  0  0  0  0
  2  7  1  0  0  0  0
  3  4  1  0  0  0  0
  3  2  2  0  0  0  0
  4  5  2  0  0  0  0
  5  9  1  0  0  0  0
  5  6  1  0  0  0  0
  6 10  1  0  0  0  0
  7  6  2  0  0  0  0
  7 20  1  0  0  0  0
  8  4  1  0  0  0  0
 11 17  1  0  0  0  0
 11 12  1  0  0  0  0
 12 18  1  0  0  0  0
 13 12  2  0  0  0  0
 13  3  1  0  0  0  0
 14 13  1  0  0  0  0
 15 16  1  0  0  0  0
 15 14  2  0  0  0  0
 16 11  2  0  0  0  0
 19 15  1  0  0  0  0
 20 23  1  0  0  0  0
 20 22  1  0  0  0  0
 21 20  1  0  0  0  0
M  END
>  <minimizedAffinity>
-4.73104572

$$$$

 OpenBabel03272505223D

 23 24  0  0  0  0  0  0  0  0999 V2000
   38.9420   26.7140   35.3640 Br  0  0  0  0  0  0  0  0  0  0  0  0
   38.3920   25.3750   34.1260 C   0  0  0  0  0  0  0  0  0  0  0  0
   38.2230   24.0590   34.5440 C   0  0  0  0  0  0  0  0  0  0  0  0
   37.8240   23.1200   33.6200 C   0  0  0  0  0  0  0  0  0  0  0  0
   37.6000   23.4910   32.3080 C   0  0  0  0  0  0  0  0  0  0  0  0
   37.7660   24.8040   31.8800 C   0  0  0  0  0  0  0  0  0  0  0  0
   38.1660   25.7340   32.8180 C   0  0  0  0  0  0  0  0  0  0  0  0
   37.6950   22.1000   33.9510 H   0  0  0  0  0  0  0  0  0  0  0  0
   37.2870   22.7620   31.5780 H   0  0  0  0  0  0  0  0  0  0  0  0
   37.6020   25.1380   30.8670 H   0  0  0  0  0  0  0  0  0  0  0  0
   39.8860   22.8920   37.7490 C   0  0  0  0  0  0  0  0  0  0  0  0
   39.6600   23.1530   36.3930 C   0  0  0  0  0  0  0  0  0  0  0  0
   38.4860   23.7740   35.9530 C   0  0  0  0  0  0  0  0  0  0  0  0
   37.6130   24.0880   36.9330 N   0  0  0  0  0  0  0  0  0  0  0  0
   37.8240   23.8410   38.2370 C   0  0  0  0  0  0  0  0  0  0  0  0
   38.9510   23.2480   38.6330 N   0  0  0  0  0  0  0  0  0  0  0  0
   40.8370   22.4130   37.8960 H   0  0  0  0  0  0  0  0  0  0  0  0
   40.3590   22.9030   35.5950 H   0  0  0  0  0  0  0  0  0  0  0  0
   37.1280   24.0910   39.0180 H   0  0  0  0  0  0  0  0  0  0  0  0
   38.3620   27.1620   32.4210 C   0  0  0  0  0  0  0  0  0  0  0  0
   38.0770   27.3040   31.0790 F   0  0  0  0  0  0  0  0  0  0  0  0
   37.5070   27.9910   33.1470 F   0  0  0  0  0  0  0  0  0  0  0  0
   39.6560   27.5740   32.6650 F   0  0  0  0  0  0  0  0  0  0  0  0
  2  3  1  0  0  0  0
  2  1  1  0  0  0  0
  3 13  1  0  0  0  0
  4  8  1  0  0  0  0
  4  3  2  0  0  0  0
  5  4  1  0  0  0  0
  6  5  2  0  0  0  0
  6  7  1  0  0  0  0
  7  2  2  0  0  0  0
  9  5  1  0  0  0  0
 10  6  1  0  0  0  0
 11 17  1  0  0  0  0
 11 16  1  0  0  0  0
 12 11  2  0  0  0  0
 13 12  1  0  0  0  0
 13 14  2  0  0  0  0
 14 15  1  0  0  0  0
 15 16  2  0  0  0  0
 15 19  1  0  0  0  0
 18 12  1  0  0  0  0
 20 23  1  0  0  0  0
 20  7  1  0  0  0  0
 20 22  1  0  0  0  0
 21 20  1  0  0  0  0
M  END
>  <minimizedAffinity>
-4.5693655

$$$$

 OpenBabel03272505223D

 23 24  0  0  0  0  0  0  0  0999 V2000
   38.1250   23.7420   33.0650 Br  0  0  0  0  0  0  0  0  0  0  0  0
   37.8770   25.4210   33.9300 C   0  0  0  0  0  0  0  0  0  0  0  0
   38.4870   25.6770   35.1530 C   0  0  0  0  0  0  0  0  0  0  0  0
   38.2840   26.9020   35.7480 C   0  0  0  0  0  0  0  0  0  0  0  0
   37.4890   27.8470   35.1300 C   0  0  0  0  0  0  0  0  0  0  0  0
   36.8750   27.6020   33.9070 C   0  0  0  0  0  0  0  0  0  0  0  0
   37.0880   26.3690   33.3240 C   0  0  0  0  0  0  0  0  0  0  0  0
   38.7610   27.0950   36.6980 H   0  0  0  0  0  0  0  0  0  0  0  0
   37.3260   28.8100   35.5880 H   0  0  0  0  0  0  0  0  0  0  0  0
   36.2470   28.3100   33.3890 H   0  0  0  0  0  0  0  0  0  0  0  0
   39.6410   22.7120   37.2230 C   0  0  0  0  0  0  0  0  0  0  0  0
   38.8330   23.7270   36.6980 C   0  0  0  0  0  0  0  0  0  0  0  0
   39.3070   24.6080   35.7200 C   0  0  0  0  0  0  0  0  0  0  0  0
   40.5850   24.3940   35.3410 N   0  0  0  0  0  0  0  0  0  0  0  0
   41.3660   23.4230   35.8410 C   0  0  0  0  0  0  0  0  0  0  0  0
   40.8920   22.5940   36.7720 N   0  0  0  0  0  0  0  0  0  0  0  0
   39.1090   22.1380   37.9590 H   0  0  0  0  0  0  0  0  0  0  0  0
   37.8000   23.9070   36.9980 H   0  0  0  0  0  0  0  0  0  0  0  0
   42.3850   23.2530   35.5390 H   0  0  0  0  0  0  0  0  0  0  0  0
   36.4550   26.0440   32.0080 C   0  0  0  0  0  0  0  0  0  0  0  0
   35.6280   27.0810   31.6320 F   0  0  0  0  0  0  0  0  0  0  0  0
   37.4330   25.8750   31.0270 F   0  0  0  0  0  0  0  0  0  0  0  0
   35.7260   24.8740   32.0820 F   0  0  0  0  0  0  0  0  0  0  0  0
  1  2  1  0  0  0  0
  2  3  1  0  0  0  0
  3 13  1  0  0  0  0
  3  4  2  0  0  0  0
  4  8  1  0  0  0  0
  5  9  1  0  0  0  0
  5  4  1  0  0  0  0
  6  5  2  0  0  0  0
  7  6  1  0  0  0  0
  7  2  2  0  0  0  0
 10  6  1  0  0  0  0
 11 17  1  0  0  0  0
 12 18  1  0  0  0  0
 12 11  2  0  0  0  0
 13 12  1  0  0  0  0
 14 13  2  0  0  0  0
 14 15  1  0  0  0  0
 15 16  2  0  0  0  0
 16 11  1  0  0  0  0
 19 15  1  0  0  0  0
 20 23  1  0  0  0  0
 20  7  1  0  0  0  0
 21 20  1  0  0  0  0
 22 20  1  0  0  0  0
M  END
>  <minimizedAffinity>
-4.56751871

$$$$

 OpenBabel03272505223D

 23 24  0  0  0  0  0  0  0  0999 V2000
   38.3320   24.2670   34.3470 Br  0  0  0  0  0  0  0  0  0  0  0  0
   37.4040   25.6360   33.4000 C   0  0  0  0  0  0  0  0  0  0  0  0
   36.7770   25.3510   32.1910 C   0  0  0  0  0  0  0  0  0  0  0  0
   36.1170   26.3660   31.5370 C   0  0  0  0  0  0  0  0  0  0  0  0
   36.0860   27.6360   32.0810 C   0  0  0  0  0  0  0  0  0  0  0  0
   36.7090   27.9300   33.2890 C   0  0  0  0  0  0  0  0  0  0  0  0
   37.3670   26.9020   33.9320 C   0  0  0  0  0  0  0  0  0  0  0  0
   35.6320   26.1400   30.5980 H   0  0  0  0  0  0  0  0  0  0  0  0
   35.5700   28.4370   31.5750 H   0  0  0  0  0  0  0  0  0  0  0  0
   36.7100   28.9050   33.7500 H   0  0  0  0  0  0  0  0  0  0  0  0
   35.9280   21.7580   31.3120 C   0  0  0  0  0  0  0  0  0  0  0  0
   35.8090   23.0690   31.7870 C   0  0  0  0  0  0  0  0  0  0  0  0
   36.8710   23.9760   31.7040 C   0  0  0  0  0  0  0  0  0  0  0  0
   37.9930   23.4810   31.1400 N   0  0  0  0  0  0  0  0  0  0  0  0
   38.1140   22.2240   30.6830 C   0  0  0  0  0  0  0  0  0  0  0  0
   37.0880   21.3770   30.7720 N   0  0  0  0  0  0  0  0  0  0  0  0
   35.0150   21.2110   31.4590 H   0  0  0  0  0  0  0  0  0  0  0  0
   34.9080   23.4780   32.2440 H   0  0  0  0  0  0  0  0  0  0  0  0
   39.0080   21.8290   30.2340 H   0  0  0  0  0  0  0  0  0  0  0  0
   38.0570   27.1540   35.2350 C   0  0  0  0  0  0  0  0  0  0  0  0
   39.4220   27.1300   35.0390 F   0  0  0  0  0  0  0  0  0  0  0  0
   37.7020   28.4050   35.7400 F   0  0  0  0  0  0  0  0  0  0  0  0
   37.7080   26.2070   36.1760 F   0  0  0  0  0  0  0  0  0  0  0  0
  2  7  1  0  0  0  0
  2  1  1  0  0  0  0
  3  2  2  0  0  0  0
  4  5  2  0  0  0  0
  4  3  1  0  0  0  0
  5  6  1  0  0  0  0
  6 10  1  0  0  0  0
  6  7  2  0  0  0  0
  7 20  1  0  0  0  0
  8  4  1  0  0  0  0
  9  5  1  0  0  0  0
 11 17  1  0  0  0  0
 11 12  1  0  0  0  0
 12 18  1  0  0  0  0
 13 12  2  0  0  0  0
 13  3  1  0  0  0  0
 14 13  1  0  0  0  0
 15 16  1  0  0  0  0
 15 14  2  0  0  0  0
 16 11  2  0  0  0  0
 19 15  1  0  0  0  0
 20 22  1  0  0  0  0
 20 23  1  0  0  0  0
 21 20  1  0  0  0  0
M  END
>  <minimizedAffinity>
-4.51731253

$$$$

 OpenBabel03272505223D

 23 24  0  0  0  0  0  0  0  0999 V2000
   38.5680   23.8670   33.4630 Br  0  0  0  0  0  0  0  0  0  0  0  0
   37.2970   22.4700   33.7150 C   0  0  0  0  0  0  0  0  0  0  0  0
   37.2040   21.8180   34.9400 C   0  0  0  0  0  0  0  0  0  0  0  0
   36.2740   20.8140   35.0830 C   0  0  0  0  0  0  0  0  0  0  0  0
   35.4560   20.4710   34.0240 C   0  0  0  0  0  0  0  0  0  0  0  0
   35.5400   21.1170   32.7950 C   0  0  0  0  0  0  0  0  0  0  0  0
   36.4780   22.1220   32.6670 C   0  0  0  0  0  0  0  0  0  0  0  0
   36.2070   20.3110   36.0370 H   0  0  0  0  0  0  0  0  0  0  0  0
   34.7240   19.6870   34.1280 H   0  0  0  0  0  0  0  0  0  0  0  0
   34.9220   20.8840   31.9420 H   0  0  0  0  0  0  0  0  0  0  0  0
   38.6060   23.4730   38.0550 C   0  0  0  0  0  0  0  0  0  0  0  0
   37.7100   23.0670   37.0590 C   0  0  0  0  0  0  0  0  0  0  0  0
   38.1170   22.2570   35.9940 C   0  0  0  0  0  0  0  0  0  0  0  0
   39.4220   21.9140   36.0130 N   0  0  0  0  0  0  0  0  0  0  0  0
   40.2880   22.3000   36.9650 C   0  0  0  0  0  0  0  0  0  0  0  0
   39.8760   23.0720   37.9720 N   0  0  0  0  0  0  0  0  0  0  0  0
   38.1160   24.0870   38.7880 H   0  0  0  0  0  0  0  0  0  0  0  0
   36.6540   23.3390   37.0350 H   0  0  0  0  0  0  0  0  0  0  0  0
   41.3290   22.0270   36.9810 H   0  0  0  0  0  0  0  0  0  0  0  0
   36.6180   22.8550   31.3710 C   0  0  0  0  0  0  0  0  0  0  0  0
   35.5920   22.4860   30.5260 F   0  0  0  0  0  0  0  0  0  0  0  0
   36.5480   24.2320   31.5820 F   0  0  0  0  0  0  0  0  0  0  0  0
   37.8310   22.5820   30.7730 F   0  0  0  0  0  0  0  0  0  0  0  0
  1  2  1  0  0  0  0
  2  3  1  0  0  0  0
  3  4  2  0  0  0  0
  3 13  1  0  0  0  0
  4  8  1  0  0  0  0
  5  9  1  0  0  0  0
  5  4  1  0  0  0  0
  6  5  2  0  0  0  0
  7  6  1  0  0  0  0
  7  2  2  0  0  0  0
 10  6  1  0  0  0  0
 11 17  1  0  0  0  0
 12 11  2  0  0  0  0
 13 14  2  0  0  0  0
 13 12  1  0  0  0  0
 14 15  1  0  0  0  0
 15 19  1  0  0  0  0
 15 16  2  0  0  0  0
 16 11  1  0  0  0  0
 18 12  1  0  0  0  0
 20 22  1  0  0  0  0
 20  7  1  0  0  0  0
 21 20  1  0  0  0  0
 23 20  1  0  0  0  0
M  END
>  <minimizedAffinity>
-4.51601076

$$$$

 OpenBabel03272505223D

 23 24  0  0  0  0  0  0  0  0999 V2000
   38.0060   23.1130   33.5820 Br  0  0  0  0  0  0  0  0  0  0  0  0
   36.8820   24.2070   32.5020 C   0  0  0  0  0  0  0  0  0  0  0  0
   36.9310   25.5930   32.6170 C   0  0  0  0  0  0  0  0  0  0  0  0
   36.1030   26.3500   31.8200 C   0  0  0  0  0  0  0  0  0  0  0  0
   35.2470   25.7330   30.9290 C   0  0  0  0  0  0  0  0  0  0  0  0
   35.1900   24.3490   30.8060 C   0  0  0  0  0  0  0  0  0  0  0  0
   36.0250   23.6040   31.6120 C   0  0  0  0  0  0  0  0  0  0  0  0
   36.1460   27.4250   31.9130 H   0  0  0  0  0  0  0  0  0  0  0  0
   34.5950   26.3190   30.2990 H   0  0  0  0  0  0  0  0  0  0  0  0
   34.5370   23.8260   30.1240 H   0  0  0  0  0  0  0  0  0  0  0  0
   38.4300   26.9800   35.8160 C   0  0  0  0  0  0  0  0  0  0  0  0
   37.5070   26.4540   34.9050 C   0  0  0  0  0  0  0  0  0  0  0  0
   37.8730   26.1430   33.5910 C   0  0  0  0  0  0  0  0  0  0  0  0
   39.1650   26.3920   33.2910 N   0  0  0  0  0  0  0  0  0  0  0  0
   40.0550   26.8970   34.1600 C   0  0  0  0  0  0  0  0  0  0  0  0
   39.6840   27.1860   35.4080 N   0  0  0  0  0  0  0  0  0  0  0  0
   37.9710   27.1550   36.7720 H   0  0  0  0  0  0  0  0  0  0  0  0
   36.4620   26.2500   35.1370 H   0  0  0  0  0  0  0  0  0  0  0  0
   41.0860   27.0950   33.9210 H   0  0  0  0  0  0  0  0  0  0  0  0
   36.0120   22.1110   31.5280 C   0  0  0  0  0  0  0  0  0  0  0  0
   35.6080   21.5900   32.7390 F   0  0  0  0  0  0  0  0  0  0  0  0
   35.1210   21.6870   30.5420 F   0  0  0  0  0  0  0  0  0  0  0  0
   37.2600   21.6190   31.2060 F   0  0  0  0  0  0  0  0  0  0  0  0
  2  3  1  0  0  0  0
  2  1  1  0  0  0  0
  3 13  1  0  0  0  0
  4  8  1  0  0  0  0
  4  3  2  0  0  0  0
  5  4  1  0  0  0  0
  6  5  2  0  0  0  0
  6  7  1  0  0  0  0
  7  2  2  0  0  0  0
  9  5  1  0  0  0  0
 10  6  1  0  0  0  0
 11 17  1  0  0  0  0
 12 18  1  0  0  0  0
 12 11  2  0  0  0  0
 13 12  1  0  0  0  0
 14 13  2  0  0  0  0
 14 15  1  0  0  0  0
 15 16  2  0  0  0  0
 16 11  1  0  0  0  0
 19 15  1  0  0  0  0
 20  7  1  0  0  0  0
 20 21  1  0  0  0  0
 22 20  1  0  0  0  0
 23 20  1  0  0  0  0
M  END
>  <minimizedAffinity>
-4.50541592

$$$$

 OpenBabel03272505223D

 23 24  0  0  0  0  0  0  0  0999 V2000
   38.1380   23.8350   36.4310 Br  0  0  0  0  0  0  0  0  0  0  0  0
   39.8850   24.2600   35.8010 C   0  0  0  0  0  0  0  0  0  0  0  0
   40.0800   25.3450   34.9520 C   0  0  0  0  0  0  0  0  0  0  0  0
   41.3570   25.6210   34.5180 C   0  0  0  0  0  0  0  0  0  0  0  0
   42.4130   24.8280   34.9250 C   0  0  0  0  0  0  0  0  0  0  0  0
   42.2280   23.7420   35.7730 C   0  0  0  0  0  0  0  0  0  0  0  0
   40.9430   23.4780   36.2000 C   0  0  0  0  0  0  0  0  0  0  0  0
   41.5020   26.4640   33.8590 H   0  0  0  0  0  0  0  0  0  0  0  0
   43.4160   25.0380   34.5910 H   0  0  0  0  0  0  0  0  0  0  0  0
   43.0220   23.0970   36.1170 H   0  0  0  0  0  0  0  0  0  0  0  0
   37.2970   27.9250   34.9560 C   0  0  0  0  0  0  0  0  0  0  0  0
   38.4350   27.2040   35.3340 C   0  0  0  0  0  0  0  0  0  0  0  0
   38.8950   26.1170   34.5820 C   0  0  0  0  0  0  0  0  0  0  0  0
   38.1570   25.8350   33.4880 N   0  0  0  0  0  0  0  0  0  0  0  0
   37.0640   26.5230   33.1200 C   0  0  0  0  0  0  0  0  0  0  0  0
   36.6440   27.5560   33.8520 N   0  0  0  0  0  0  0  0  0  0  0  0
   37.0970   28.7210   35.6500 H   0  0  0  0  0  0  0  0  0  0  0  0
   39.0370   27.4240   36.2160 H   0  0  0  0  0  0  0  0  0  0  0  0
   36.4760   26.2990   32.2470 H   0  0  0  0  0  0  0  0  0  0  0  0
   40.6780   22.3240   37.1130 C   0  0  0  0  0  0  0  0  0  0  0  0
   39.8330   21.4320   36.4870 F   0  0  0  0  0  0  0  0  0  0  0  0
   41.8690   21.6660   37.4230 F   0  0  0  0  0  0  0  0  0  0  0  0
   40.1100   22.7460   38.2980 F   0  0  0  0  0  0  0  0  0  0  0  0
  2  7  1  0  0  0  0
  2  1  1  0  0  0  0
  3  2  2  0  0  0  0
  4  5  2  0  0  0  0
  4  3  1  0  0  0  0
  5  6  1  0  0  0  0
  6 10  1  0  0  0  0
  6  7  2  0  0  0  0
  7 20  1  0  0  0  0
  8  4  1  0  0  0  0
  9  5  1  0  0  0  0
 11 12  1  0  0  0  0
 11 17  1  0  0  0  0
 12 18  1  0  0  0  0
 13  3  1  0  0  0  0
 13 12  2  0  0  0  0
 14 13  1  0  0  0  0
 15 14  2  0  0  0  0
 15 16  1  0  0  0  0
 16 11  2  0  0  0  0
 19 15  1  0  0  0  0
 20 22  1  0  0  0  0
 20 23  1  0  0  0  0
 21 20  1  0  0  0  0
M  END
>  <minimizedAffinity>
-4.4460783

$$$$
