
 OpenBabel03272510223D

 26 28  0  0  0  0  0  0  0  0999 V2000
   35.9050   30.0940   46.8830 C   0  0  0  0  0  0  0  0  0  0  0  0
   36.8450   30.5820   47.7600 C   0  0  0  0  0  0  0  0  0  0  0  0
   37.8810   31.3660   47.3070 C   0  0  0  0  0  0  0  0  0  0  0  0
   37.9340   31.6370   45.9530 C   0  0  0  0  0  0  0  0  0  0  0  0
   38.8590   32.3830   45.2750 N   0  0  0  0  0  0  0  0  0  0  0  0
   38.5060   32.3670   43.9820 C   0  0  0  0  0  0  0  0  0  0  0  0
   37.3900   31.6370   43.8060 N   0  0  0  0  0  0  0  0  0  0  0  0
   37.0100   31.1690   45.0240 C   0  0  0  0  0  0  0  0  0  0  0  0
   35.9830   30.3840   45.5140 C   0  0  0  0  0  0  0  0  0  0  0  0
   35.0690   29.4760   47.1690 H   0  0  0  0  0  0  0  0  0  0  0  0
   38.6120   31.7440   47.9950 H   0  0  0  0  0  0  0  0  0  0  0  0
   39.6960   32.8810   45.6850 H   0  0  0  0  0  0  0  0  0  0  0  0
   35.2400   30.0020   44.8060 H   0  0  0  0  0  0  0  0  0  0  0  0
   37.3620   30.1190   51.4650 C   0  0  0  0  0  0  0  0  0  0  0  0
   37.6020   30.4960   50.1480 C   0  0  0  0  0  0  0  0  0  0  0  0
   36.6720   30.2220   49.1640 C   0  0  0  0  0  0  0  0  0  0  0  0
   35.5220   29.5760   49.5210 N   0  0  0  0  0  0  0  0  0  0  0  0
   35.3170   29.2180   50.8280 C   0  0  0  0  0  0  0  0  0  0  0  0
   36.2160   29.4840   51.7720 N   0  0  0  0  0  0  0  0  0  0  0  0
   38.1050   30.3480   52.2020 H   0  0  0  0  0  0  0  0  0  0  0  0
   38.5030   30.9990   49.8880 H   0  0  0  0  0  0  0  0  0  0  0  0
   34.3710   28.7110   50.9970 H   0  0  0  0  0  0  0  0  0  0  0  0
   39.2860   33.0800   42.9270 C   0  0  0  0  0  0  0  0  0  0  0  0
   38.5070   33.6420   41.9580 F   0  0  0  0  0  0  0  0  0  0  0  0
   40.1740   32.1870   42.3330 F   0  0  0  0  0  0  0  0  0  0  0  0
   40.0720   34.0750   43.4820 F   0  0  0  0  0  0  0  0  0  0  0  0
  1 10  1  0  0  0  0
  1  2  1  0  0  0  0
  2 16  1  0  0  0  0
  3  2  2  0  0  0  0
  3 11  1  0  0  0  0
  4  3  1  0  0  0  0
  5 12  1  0  0  0  0
  5  4  1  0  0  0  0
  6  5  1  0  0  0  0
  7  6  2  0  0  0  0
  7  8  1  0  0  0  0
  8  9  1  0  0  0  0
  8  4  2  0  0  0  0
  9  1  2  0  0  0  0
 13  9  1  0  0  0  0
 14 19  1  0  0  0  0
 14 20  1  0  0  0  0
 15 14  2  0  0  0  0
 16 17  2  0  0  0  0
 16 15  1  0  0  0  0
 17 18  1  0  0  0  0
 18 22  1  0  0  0  0
 18 19  2  0  0  0  0
 21 15  1  0  0  0  0
 23 26  1  0  0  0  0
 23  6  1  0  0  0  0
 24 23  1  0  0  0  0
 25 23  1  0  0  0  0
M  END
>  <minimizedAffinity>
-5.40678215

>  <minimizedRMSD>
1.74027133

$$$$
