
 OpenBabel03272505423D

 40 42  0  0  0  0  0  0  0  0999 V2000
   37.9740   23.3810   33.6730 C   0  0  0  0  0  0  0  0  0  0  0  0
   37.4440   22.3250   32.9320 C   0  0  0  0  0  0  0  0  0  0  0  0
   36.7280   22.6000   31.7820 C   0  0  0  0  0  0  0  0  0  0  0  0
   36.4980   23.8590   31.3100 C   0  0  0  0  0  0  0  0  0  0  0  0
   37.0250   24.9240   32.0450 C   0  0  0  0  0  0  0  0  0  0  0  0
   37.7380   24.6300   33.1940 C   0  0  0  0  0  0  0  0  0  0  0  0
   37.5740   21.2870   33.2260 H   0  0  0  0  0  0  0  0  0  0  0  0
   36.3280   21.7520   31.2270 H   0  0  0  0  0  0  0  0  0  0  0  0
   35.9270   24.0180   30.3980 H   0  0  0  0  0  0  0  0  0  0  0  0
   36.8190   25.8930   31.6380 H   0  0  0  0  0  0  0  0  0  0  0  0
   38.1950   25.8320   33.8100 N   0  0  0  0  0  0  0  0  0  0  0  0
   39.4070   26.5930   33.8920 C   0  0  0  0  0  0  0  0  0  0  0  0
   39.7280   26.7770   35.3590 C   0  0  0  0  0  0  0  0  0  0  0  0
   38.7410   27.6670   35.8870 N   0  0  0  0  0  0  0  0  0  0  0  0
   37.5230   27.7060   35.2130 C   0  0  0  0  0  0  0  0  0  0  0  0
   37.1240   26.4300   34.5460 C   0  0  0  0  0  0  0  0  0  0  0  0
   40.2430   26.1380   33.3290 H   0  0  0  0  0  0  0  0  0  0  0  0
   39.1790   27.6230   33.5090 H   0  0  0  0  0  0  0  0  0  0  0  0
   40.1570   26.0100   35.9170 H   0  0  0  0  0  0  0  0  0  0  0  0
   40.6130   27.5000   35.2630 H   0  0  0  0  0  0  0  0  0  0  0  0
   38.9060   28.1490   36.7470 H   0  0  0  0  0  0  0  0  0  0  0  0
   37.4720   28.5840   34.5360 H   0  0  0  0  0  0  0  0  0  0  0  0
   36.7150   27.9160   35.9740 H   0  0  0  0  0  0  0  0  0  0  0  0
   36.4890   25.7810   35.1380 H   0  0  0  0  0  0  0  0  0  0  0  0
   36.4160   26.7740   33.7240 H   0  0  0  0  0  0  0  0  0  0  0  0
   40.6020   22.2600   35.9410 C   0  0  0  0  0  0  0  0  0  0  0  0
   40.1010   22.6410   37.2010 C   0  0  0  0  0  0  0  0  0  0  0  0
   38.8620   23.2820   37.2420 C   0  0  0  0  0  0  0  0  0  0  0  0
   38.2420   23.4820   36.0530 N   0  0  0  0  0  0  0  0  0  0  0  0
   38.7220   23.1200   34.8740 C   0  0  0  0  0  0  0  0  0  0  0  0
   39.9180   22.5010   34.8170 N   0  0  0  0  0  0  0  0  0  0  0  0
   40.6890   22.4280   38.0810 H   0  0  0  0  0  0  0  0  0  0  0  0
   41.9390   21.5660   35.9270 C   0  0  0  0  0  0  0  0  0  0  0  0
   41.9840   20.7070   37.0400 F   0  0  0  0  0  0  0  0  0  0  0  0
   42.0690   20.9090   34.7680 F   0  0  0  0  0  0  0  0  0  0  0  0
   42.9160   22.5100   36.1490 F   0  0  0  0  0  0  0  0  0  0  0  0
   38.3420   23.6780   38.5470 C   0  0  0  0  0  0  0  0  0  0  0  0
   37.3460   22.8230   38.9720 F   0  0  0  0  0  0  0  0  0  0  0  0
   39.3020   23.7270   39.5480 F   0  0  0  0  0  0  0  0  0  0  0  0
   37.8540   24.9880   38.4540 F   0  0  0  0  0  0  0  0  0  0  0  0
  1 30  1  0  0  0  0
  2  7  1  0  0  0  0
  2  1  2  0  0  0  0
  3  2  1  0  0  0  0
  4  3  2  0  0  0  0
  4  5  1  0  0  0  0
  5  6  2  0  0  0  0
  6  1  1  0  0  0  0
  6 11  1  0  0  0  0
  8  3  1  0  0  0  0
  9  4  1  0  0  0  0
 10  5  1  0  0  0  0
 11 12  1  0  0  0  0
 11 16  1  0  0  0  0
 12 13  1  0  0  0  0
 13 14  1  0  0  0  0
 13 19  1  0  0  0  0
 14 21  1  0  0  0  0
 15 14  1  0  0  0  0
 15 23  1  0  0  0  0
 16 24  1  0  0  0  0
 16 15  1  0  0  0  0
 17 12  1  0  0  0  0
 18 12  1  0  0  0  0
 20 13  1  0  0  0  0
 22 15  1  0  0  0  0
 25 16  1  0  0  0  0
 26 27  1  0  0  0  0
 27 28  2  0  0  0  0
 27 32  1  0  0  0  0
 28 37  1  0  0  0  0
 29 28  1  0  0  0  0
 30 29  2  0  0  0  0
 31 30  1  0  0  0  0
 31 26  2  0  0  0  0
 33 26  1  0  0  0  0
 33 36  1  0  0  0  0
 33 34  1  0  0  0  0
 35 33  1  0  0  0  0
 37 38  1  0  0  0  0
 37 39  1  0  0  0  0
 40 37  1  0  0  0  0
M  END
>  <minimizedAffinity>
-6.61105537

$$$$

 OpenBabel03272505423D

 40 42  0  0  0  0  0  0  0  0999 V2000
   37.9700   23.3980   33.7020 C   0  0  0  0  0  0  0  0  0  0  0  0
   37.4560   22.3390   32.9530 C   0  0  0  0  0  0  0  0  0  0  0  0
   36.7770   22.6110   31.7800 C   0  0  0  0  0  0  0  0  0  0  0  0
   36.5690   23.8670   31.2920 C   0  0  0  0  0  0  0  0  0  0  0  0
   37.0800   24.9340   32.0350 C   0  0  0  0  0  0  0  0  0  0  0  0
   37.7570   24.6440   33.2070 C   0  0  0  0  0  0  0  0  0  0  0  0
   37.5700   21.3030   33.2580 H   0  0  0  0  0  0  0  0  0  0  0  0
   36.3880   21.7610   31.2200 H   0  0  0  0  0  0  0  0  0  0  0  0
   36.0270   24.0230   30.3620 H   0  0  0  0  0  0  0  0  0  0  0  0
   36.8930   25.9020   31.6140 H   0  0  0  0  0  0  0  0  0  0  0  0
   38.2030   25.8480   33.8280 N   0  0  0  0  0  0  0  0  0  0  0  0
   39.4170   26.6020   33.9410 C   0  0  0  0  0  0  0  0  0  0  0  0
   39.6940   26.7960   35.4150 C   0  0  0  0  0  0  0  0  0  0  0  0
   38.6980   27.6950   35.9060 N   0  0  0  0  0  0  0  0  0  0  0  0
   37.5010   27.7370   35.1950 C   0  0  0  0  0  0  0  0  0  0  0  0
   37.1130   26.4580   34.5260 C   0  0  0  0  0  0  0  0  0  0  0  0
   40.2660   26.1370   33.4070 H   0  0  0  0  0  0  0  0  0  0  0  0
   39.2070   27.6310   33.5430 H   0  0  0  0  0  0  0  0  0  0  0  0
   40.1000   26.0290   35.9920 H   0  0  0  0  0  0  0  0  0  0  0  0
   40.5870   27.5120   35.3410 H   0  0  0  0  0  0  0  0  0  0  0  0
   38.8390   28.1830   36.7680 H   0  0  0  0  0  0  0  0  0  0  0  0
   37.4770   28.6110   34.5110 H   0  0  0  0  0  0  0  0  0  0  0  0
   36.6710   27.9580   35.9300 H   0  0  0  0  0  0  0  0  0  0  0  0
   36.4560   25.8180   35.1030 H   0  0  0  0  0  0  0  0  0  0  0  0
   36.4330   26.8010   33.6800 H   0  0  0  0  0  0  0  0  0  0  0  0
   38.8320   23.2740   37.2450 C   0  0  0  0  0  0  0  0  0  0  0  0
   40.0860   22.6340   37.2310 C   0  0  0  0  0  0  0  0  0  0  0  0
   40.6100   22.2540   35.9950 C   0  0  0  0  0  0  0  0  0  0  0  0
   39.8570   22.5390   34.9030 N   0  0  0  0  0  0  0  0  0  0  0  0
   38.6790   23.1410   34.9270 C   0  0  0  0  0  0  0  0  0  0  0  0
   38.1600   23.5140   36.1130 N   0  0  0  0  0  0  0  0  0  0  0  0
   40.5920   22.4600   38.1690 H   0  0  0  0  0  0  0  0  0  0  0  0
   38.2930   23.6790   38.5930 C   0  0  0  0  0  0  0  0  0  0  0  0
   37.8560   25.0110   38.4950 F   0  0  0  0  0  0  0  0  0  0  0  0
   37.3070   22.8390   38.9300 F   0  0  0  0  0  0  0  0  0  0  0  0
   39.3410   23.6980   39.4840 F   0  0  0  0  0  0  0  0  0  0  0  0
   41.9090   21.5900   35.9790 C   0  0  0  0  0  0  0  0  0  0  0  0
   42.0900   20.8650   34.8200 F   0  0  0  0  0  0  0  0  0  0  0  0
   42.9890   22.4540   36.1000 F   0  0  0  0  0  0  0  0  0  0  0  0
   41.9950   20.7510   37.0980 F   0  0  0  0  0  0  0  0  0  0  0  0
  1 30  1  0  0  0  0
  2  7  1  0  0  0  0
  2  1  2  0  0  0  0
  3  2  1  0  0  0  0
  4  3  2  0  0  0  0
  4  5  1  0  0  0  0
  5  6  2  0  0  0  0
  6  1  1  0  0  0  0
  6 11  1  0  0  0  0
  8  3  1  0  0  0  0
  9  4  1  0  0  0  0
 10  5  1  0  0  0  0
 11 12  1  0  0  0  0
 11 16  1  0  0  0  0
 12 13  1  0  0  0  0
 13 14  1  0  0  0  0
 13 19  1  0  0  0  0
 14 21  1  0  0  0  0
 15 14  1  0  0  0  0
 15 23  1  0  0  0  0
 16 24  1  0  0  0  0
 16 15  1  0  0  0  0
 17 12  1  0  0  0  0
 18 12  1  0  0  0  0
 20 13  1  0  0  0  0
 22 15  1  0  0  0  0
 25 16  1  0  0  0  0
 26 33  1  0  0  0  0
 27 26  1  0  0  0  0
 27 32  1  0  0  0  0
 28 27  2  0  0  0  0
 29 30  2  0  0  0  0
 29 28  1  0  0  0  0
 30 31  1  0  0  0  0
 31 26  2  0  0  0  0
 33 35  1  0  0  0  0
 33 36  1  0  0  0  0
 34 33  1  0  0  0  0
 37 28  1  0  0  0  0
 37 39  1  0  0  0  0
 37 40  1  0  0  0  0
 38 37  1  0  0  0  0
M  END
>  <minimizedAffinity>
-6.59858942

$$$$

 OpenBabel03272505423D

 40 42  0  0  0  0  0  0  0  0999 V2000
   39.6890   22.3660   34.0310 C   0  0  0  0  0  0  0  0  0  0  0  0
   41.0680   22.1880   33.9250 C   0  0  0  0  0  0  0  0  0  0  0  0
   41.5590   21.2180   33.0710 C   0  0  0  0  0  0  0  0  0  0  0  0
   40.7740   20.4050   32.3070 C   0  0  0  0  0  0  0  0  0  0  0  0
   39.3910   20.5770   32.4060 C   0  0  0  0  0  0  0  0  0  0  0  0
   38.9170   21.5520   33.2660 C   0  0  0  0  0  0  0  0  0  0  0  0
   41.7760   22.7850   34.4930 H   0  0  0  0  0  0  0  0  0  0  0  0
   42.6410   21.1040   33.0140 H   0  0  0  0  0  0  0  0  0  0  0  0
   41.2140   19.6580   31.6520 H   0  0  0  0  0  0  0  0  0  0  0  0
   38.8140   19.9180   31.7890 H   0  0  0  0  0  0  0  0  0  0  0  0
   37.4920   21.5830   33.2370 N   0  0  0  0  0  0  0  0  0  0  0  0
   36.4010   21.1960   34.0830 C   0  0  0  0  0  0  0  0  0  0  0  0
   35.5040   20.2830   33.2760 C   0  0  0  0  0  0  0  0  0  0  0  0
   34.8800   21.0950   32.2790 N   0  0  0  0  0  0  0  0  0  0  0  0
   35.5610   22.2530   31.9120 C   0  0  0  0  0  0  0  0  0  0  0  0
   37.0500   22.1730   32.0120 C   0  0  0  0  0  0  0  0  0  0  0  0
   36.7300   20.7350   35.0320 H   0  0  0  0  0  0  0  0  0  0  0  0
   35.7860   22.1160   34.2750 H   0  0  0  0  0  0  0  0  0  0  0  0
   35.7540   19.2840   33.1190 H   0  0  0  0  0  0  0  0  0  0  0  0
   34.6350   20.1770   34.0170 H   0  0  0  0  0  0  0  0  0  0  0  0
   34.0500   20.7790   31.8180 H   0  0  0  0  0  0  0  0  0  0  0  0
   35.1380   23.1420   32.4260 H   0  0  0  0  0  0  0  0  0  0  0  0
   35.3400   22.4520   30.8230 H   0  0  0  0  0  0  0  0  0  0  0  0
   37.5570   21.8870   31.0970 H   0  0  0  0  0  0  0  0  0  0  0  0
   37.3630   23.2610   32.1290 H   0  0  0  0  0  0  0  0  0  0  0  0
   38.4610   24.0410   37.0300 C   0  0  0  0  0  0  0  0  0  0  0  0
   38.1190   25.3190   36.5470 C   0  0  0  0  0  0  0  0  0  0  0  0
   38.3220   25.5790   35.1910 C   0  0  0  0  0  0  0  0  0  0  0  0
   38.8360   24.5660   34.4490 N   0  0  0  0  0  0  0  0  0  0  0  0
   39.1540   23.3680   34.9130 C   0  0  0  0  0  0  0  0  0  0  0  0
   38.9640   23.1020   36.2200 N   0  0  0  0  0  0  0  0  0  0  0  0
   37.7170   26.0460   37.2370 H   0  0  0  0  0  0  0  0  0  0  0  0
   38.2250   23.7870   38.4970 C   0  0  0  0  0  0  0  0  0  0  0  0
   37.8600   25.0090   39.0870 F   0  0  0  0  0  0  0  0  0  0  0  0
   37.2740   22.8530   38.6220 F   0  0  0  0  0  0  0  0  0  0  0  0
   39.4270   23.4420   39.0710 F   0  0  0  0  0  0  0  0  0  0  0  0
   37.9690   26.9030   34.6900 C   0  0  0  0  0  0  0  0  0  0  0  0
   38.4260   27.0920   33.4030 F   0  0  0  0  0  0  0  0  0  0  0  0
   36.6050   27.1620   34.6870 F   0  0  0  0  0  0  0  0  0  0  0  0
   38.5140   27.8660   35.5480 F   0  0  0  0  0  0  0  0  0  0  0  0
  1 30  1  0  0  0  0
  2  1  1  0  0  0  0
  2  7  1  0  0  0  0
  3  2  2  0  0  0  0
  4  5  2  0  0  0  0
  4  3  1  0  0  0  0
  5  6  1  0  0  0  0
  6  1  2  0  0  0  0
  8  3  1  0  0  0  0
  9  4  1  0  0  0  0
 10  5  1  0  0  0  0
 11  6  1  0  0  0  0
 11 12  1  0  0  0  0
 12 18  1  0  0  0  0
 12 17  1  0  0  0  0
 13 20  1  0  0  0  0
 13 12  1  0  0  0  0
 14 13  1  0  0  0  0
 15 16  1  0  0  0  0
 15 14  1  0  0  0  0
 15 22  1  0  0  0  0
 16 25  1  0  0  0  0
 16 11  1  0  0  0  0
 19 13  1  0  0  0  0
 21 14  1  0  0  0  0
 23 15  1  0  0  0  0
 24 16  1  0  0  0  0
 26 33  1  0  0  0  0
 27 26  1  0  0  0  0
 27 32  1  0  0  0  0
 28 27  2  0  0  0  0
 29 30  2  0  0  0  0
 29 28  1  0  0  0  0
 30 31  1  0  0  0  0
 31 26  2  0  0  0  0
 33 35  1  0  0  0  0
 33 36  1  0  0  0  0
 33 34  1  0  0  0  0
 37 28  1  0  0  0  0
 37 40  1  0  0  0  0
 38 37  1  0  0  0  0
 39 37  1  0  0  0  0
M  END
>  <minimizedAffinity>
-6.16538286

$$$$

 OpenBabel03272505423D

 40 42  0  0  0  0  0  0  0  0999 V2000
   39.6660   22.4320   33.9860 C   0  0  0  0  0  0  0  0  0  0  0  0
   41.0470   22.2710   33.8670 C   0  0  0  0  0  0  0  0  0  0  0  0
   41.5420   21.2860   33.0330 C   0  0  0  0  0  0  0  0  0  0  0  0
   40.7590   20.4430   32.3000 C   0  0  0  0  0  0  0  0  0  0  0  0
   39.3750   20.5970   32.4110 C   0  0  0  0  0  0  0  0  0  0  0  0
   38.8970   21.5860   33.2520 C   0  0  0  0  0  0  0  0  0  0  0  0
   41.7520   22.8930   34.4100 H   0  0  0  0  0  0  0  0  0  0  0  0
   42.6250   21.1870   32.9640 H   0  0  0  0  0  0  0  0  0  0  0  0
   41.2020   19.6850   31.6580 H   0  0  0  0  0  0  0  0  0  0  0  0
   38.8010   19.9130   31.8190 H   0  0  0  0  0  0  0  0  0  0  0  0
   37.4710   21.5950   33.2410 N   0  0  0  0  0  0  0  0  0  0  0  0
   36.3970   21.1940   34.1000 C   0  0  0  0  0  0  0  0  0  0  0  0
   35.5050   20.2650   33.3050 C   0  0  0  0  0  0  0  0  0  0  0  0
   34.8560   21.0670   32.3150 N   0  0  0  0  0  0  0  0  0  0  0  0
   35.5150   22.2340   31.9380 C   0  0  0  0  0  0  0  0  0  0  0  0
   37.0060   22.1780   32.0190 C   0  0  0  0  0  0  0  0  0  0  0  0
   36.7450   20.7390   35.0450 H   0  0  0  0  0  0  0  0  0  0  0  0
   35.7710   22.1040   34.2980 H   0  0  0  0  0  0  0  0  0  0  0  0
   35.7680   19.2700   33.1460 H   0  0  0  0  0  0  0  0  0  0  0  0
   34.6460   20.1480   34.0560 H   0  0  0  0  0  0  0  0  0  0  0  0
   34.0260   20.7380   31.8640 H   0  0  0  0  0  0  0  0  0  0  0  0
   35.0850   23.1170   32.4560 H   0  0  0  0  0  0  0  0  0  0  0  0
   35.2780   22.4280   30.8510 H   0  0  0  0  0  0  0  0  0  0  0  0
   37.5060   21.8980   31.0990 H   0  0  0  0  0  0  0  0  0  0  0  0
   37.3040   23.2700   32.1320 H   0  0  0  0  0  0  0  0  0  0  0  0
   38.3160   25.6050   35.1760 C   0  0  0  0  0  0  0  0  0  0  0  0
   38.1080   25.3530   36.5460 C   0  0  0  0  0  0  0  0  0  0  0  0
   38.4370   24.0870   37.0330 C   0  0  0  0  0  0  0  0  0  0  0  0
   38.9350   23.2020   36.1340 N   0  0  0  0  0  0  0  0  0  0  0  0
   39.1270   23.4480   34.8480 C   0  0  0  0  0  0  0  0  0  0  0  0
   38.8140   24.6660   34.3620 N   0  0  0  0  0  0  0  0  0  0  0  0
   37.7030   26.1410   37.1640 H   0  0  0  0  0  0  0  0  0  0  0  0
   37.9580   26.9820   34.6790 C   0  0  0  0  0  0  0  0  0  0  0  0
   38.4090   27.9100   35.6340 F   0  0  0  0  0  0  0  0  0  0  0  0
   38.5220   27.1650   33.4800 F   0  0  0  0  0  0  0  0  0  0  0  0
   36.5860   27.0920   34.6750 F   0  0  0  0  0  0  0  0  0  0  0  0
   38.2210   23.8250   38.4520 C   0  0  0  0  0  0  0  0  0  0  0  0
   37.2840   22.8320   38.6430 F   0  0  0  0  0  0  0  0  0  0  0  0
   39.3680   23.4500   39.1390 F   0  0  0  0  0  0  0  0  0  0  0  0
   37.8070   25.0130   39.0680 F   0  0  0  0  0  0  0  0  0  0  0  0
  1 30  1  0  0  0  0
  2  1  1  0  0  0  0
  2  7  1  0  0  0  0
  3  2  2  0  0  0  0
  4  5  2  0  0  0  0
  4  3  1  0  0  0  0
  5  6  1  0  0  0  0
  6  1  2  0  0  0  0
  8  3  1  0  0  0  0
  9  4  1  0  0  0  0
 10  5  1  0  0  0  0
 11  6  1  0  0  0  0
 11 12  1  0  0  0  0
 12 18  1  0  0  0  0
 12 17  1  0  0  0  0
 13 20  1  0  0  0  0
 13 12  1  0  0  0  0
 14 13  1  0  0  0  0
 15 16  1  0  0  0  0
 15 14  1  0  0  0  0
 15 22  1  0  0  0  0
 16 25  1  0  0  0  0
 16 11  1  0  0  0  0
 19 13  1  0  0  0  0
 21 14  1  0  0  0  0
 23 15  1  0  0  0  0
 24 16  1  0  0  0  0
 26 27  1  0  0  0  0
 27 28  2  0  0  0  0
 27 32  1  0  0  0  0
 28 37  1  0  0  0  0
 29 28  1  0  0  0  0
 30 29  2  0  0  0  0
 31 30  1  0  0  0  0
 31 26  2  0  0  0  0
 33 26  1  0  0  0  0
 33 34  1  0  0  0  0
 35 33  1  0  0  0  0
 36 33  1  0  0  0  0
 37 38  1  0  0  0  0
 37 40  1  0  0  0  0
 37 39  1  0  0  0  0
M  END
>  <minimizedAffinity>
-6.14954901

$$$$

 OpenBabel03272505423D

 40 42  0  0  0  0  0  0  0  0999 V2000
   36.9050   21.5930   33.6890 C   0  0  0  0  0  0  0  0  0  0  0  0
   36.1920   20.4250   33.9600 C   0  0  0  0  0  0  0  0  0  0  0  0
   35.1840   20.0350   33.0990 C   0  0  0  0  0  0  0  0  0  0  0  0
   34.8280   20.7260   31.9780 C   0  0  0  0  0  0  0  0  0  0  0  0
   35.5360   21.8970   31.6980 C   0  0  0  0  0  0  0  0  0  0  0  0
   36.5420   22.2730   32.5710 C   0  0  0  0  0  0  0  0  0  0  0  0
   36.4010   19.8060   34.8280 H   0  0  0  0  0  0  0  0  0  0  0  0
   34.6470   19.1180   33.3410 H   0  0  0  0  0  0  0  0  0  0  0  0
   34.0250   20.3740   31.3350 H   0  0  0  0  0  0  0  0  0  0  0  0
   35.2230   22.4070   30.8090 H   0  0  0  0  0  0  0  0  0  0  0  0
   37.1500   23.4850   32.1290 N   0  0  0  0  0  0  0  0  0  0  0  0
   37.2560   24.8450   32.5680 C   0  0  0  0  0  0  0  0  0  0  0  0
   36.7730   25.7250   31.4360 C   0  0  0  0  0  0  0  0  0  0  0  0
   37.7520   25.6340   30.3990 N   0  0  0  0  0  0  0  0  0  0  0  0
   38.5250   24.4760   30.3800 C   0  0  0  0  0  0  0  0  0  0  0  0
   37.8480   23.2510   30.9020 C   0  0  0  0  0  0  0  0  0  0  0  0
   36.7180   25.0380   33.5140 H   0  0  0  0  0  0  0  0  0  0  0  0
   38.3490   25.0760   32.6740 H   0  0  0  0  0  0  0  0  0  0  0  0
   35.7560   25.8510   31.2480 H   0  0  0  0  0  0  0  0  0  0  0  0
   37.0440   26.7510   31.8730 H   0  0  0  0  0  0  0  0  0  0  0  0
   37.7930   26.3310   29.6820 H   0  0  0  0  0  0  0  0  0  0  0  0
   39.5180   24.6550   30.8440 H   0  0  0  0  0  0  0  0  0  0  0  0
   38.7780   24.2470   29.3040 H   0  0  0  0  0  0  0  0  0  0  0  0
   37.3640   22.6370   30.1510 H   0  0  0  0  0  0  0  0  0  0  0  0
   38.7150   22.5910   31.2290 H   0  0  0  0  0  0  0  0  0  0  0  0
   40.2220   22.3010   35.0330 C   0  0  0  0  0  0  0  0  0  0  0  0
   39.9280   22.8440   36.2990 C   0  0  0  0  0  0  0  0  0  0  0  0
   38.5860   22.9570   36.6640 C   0  0  0  0  0  0  0  0  0  0  0  0
   37.6720   22.5290   35.7580 N   0  0  0  0  0  0  0  0  0  0  0  0
   37.9590   22.0200   34.5700 C   0  0  0  0  0  0  0  0  0  0  0  0
   39.2500   21.9040   34.2030 N   0  0  0  0  0  0  0  0  0  0  0  0
   40.7450   23.1510   36.9350 H   0  0  0  0  0  0  0  0  0  0  0  0
   41.6790   22.1850   34.6680 C   0  0  0  0  0  0  0  0  0  0  0  0
   42.3430   21.5830   35.7520 F   0  0  0  0  0  0  0  0  0  0  0  0
   41.7840   21.4690   33.5430 F   0  0  0  0  0  0  0  0  0  0  0  0
   42.2000   23.4550   34.5740 F   0  0  0  0  0  0  0  0  0  0  0  0
   38.2810   23.5200   37.9750 C   0  0  0  0  0  0  0  0  0  0  0  0
   37.2240   22.8640   38.5710 F   0  0  0  0  0  0  0  0  0  0  0  0
   39.3440   23.4890   38.8670 F   0  0  0  0  0  0  0  0  0  0  0  0
   37.9850   24.8800   37.8190 F   0  0  0  0  0  0  0  0  0  0  0  0
  1  2  1  0  0  0  0
  1 30  1  0  0  0  0
  2  7  1  0  0  0  0
  3  8  1  0  0  0  0
  3  2  2  0  0  0  0
  4  3  1  0  0  0  0
  5  4  2  0  0  0  0
  5  6  1  0  0  0  0
  6  1  2  0  0  0  0
  9  4  1  0  0  0  0
 10  5  1  0  0  0  0
 11 12  1  0  0  0  0
 11  6  1  0  0  0  0
 12 18  1  0  0  0  0
 12 17  1  0  0  0  0
 13 20  1  0  0  0  0
 13 12  1  0  0  0  0
 14 13  1  0  0  0  0
 15 14  1  0  0  0  0
 15 22  1  0  0  0  0
 15 16  1  0  0  0  0
 16 25  1  0  0  0  0
 16 11  1  0  0  0  0
 19 13  1  0  0  0  0
 21 14  1  0  0  0  0
 23 15  1  0  0  0  0
 24 16  1  0  0  0  0
 26 27  1  0  0  0  0
 27 28  2  0  0  0  0
 27 32  1  0  0  0  0
 28 37  1  0  0  0  0
 29 28  1  0  0  0  0
 30 29  2  0  0  0  0
 31 30  1  0  0  0  0
 31 26  2  0  0  0  0
 33 26  1  0  0  0  0
 33 34  1  0  0  0  0
 35 33  1  0  0  0  0
 36 33  1  0  0  0  0
 37 38  1  0  0  0  0
 37 39  1  0  0  0  0
 40 37  1  0  0  0  0
M  END
>  <minimizedAffinity>
-6.12763405

$$$$

 OpenBabel03272505423D

 40 42  0  0  0  0  0  0  0  0999 V2000
   37.6010   22.4170   33.8400 C   0  0  0  0  0  0  0  0  0  0  0  0
   36.9270   21.2280   33.5620 C   0  0  0  0  0  0  0  0  0  0  0  0
   36.1170   21.1560   32.4440 C   0  0  0  0  0  0  0  0  0  0  0  0
   35.9260   22.1890   31.5740 C   0  0  0  0  0  0  0  0  0  0  0  0
   36.5970   23.3840   31.8420 C   0  0  0  0  0  0  0  0  0  0  0  0
   37.4030   23.4380   32.9660 C   0  0  0  0  0  0  0  0  0  0  0  0
   37.0150   20.3500   34.1960 H   0  0  0  0  0  0  0  0  0  0  0  0
   35.6050   20.2130   32.2580 H   0  0  0  0  0  0  0  0  0  0  0  0
   35.2770   22.0770   30.7090 H   0  0  0  0  0  0  0  0  0  0  0  0
   36.4170   24.1670   31.1330 H   0  0  0  0  0  0  0  0  0  0  0  0
   38.0020   24.7270   33.0800 N   0  0  0  0  0  0  0  0  0  0  0  0
   37.8350   25.9140   33.8660 C   0  0  0  0  0  0  0  0  0  0  0  0
   37.6540   27.0700   32.9080 C   0  0  0  0  0  0  0  0  0  0  0  0
   38.9150   27.2730   32.2650 N   0  0  0  0  0  0  0  0  0  0  0  0
   39.7600   26.1670   32.2040 C   0  0  0  0  0  0  0  0  0  0  0  0
   39.0720   24.8430   32.1370 C   0  0  0  0  0  0  0  0  0  0  0  0
   37.0090   25.8360   34.5970 H   0  0  0  0  0  0  0  0  0  0  0  0
   38.8110   26.1110   34.3840 H   0  0  0  0  0  0  0  0  0  0  0  0
   36.7420   27.2390   32.4330 H   0  0  0  0  0  0  0  0  0  0  0  0
   37.6750   27.9360   33.6590 H   0  0  0  0  0  0  0  0  0  0  0  0
   39.1150   28.1400   31.8090 H   0  0  0  0  0  0  0  0  0  0  0  0
   40.5330   26.2150   33.0000 H   0  0  0  0  0  0  0  0  0  0  0  0
   40.3610   26.2450   31.2510 H   0  0  0  0  0  0  0  0  0  0  0  0
   38.9110   24.4590   31.1360 H   0  0  0  0  0  0  0  0  0  0  0  0
   39.8490   24.1220   32.5480 H   0  0  0  0  0  0  0  0  0  0  0  0
   38.7700   23.0960   37.2280 C   0  0  0  0  0  0  0  0  0  0  0  0
   40.1190   22.6920   37.1710 C   0  0  0  0  0  0  0  0  0  0  0  0
   40.5980   22.1910   35.9610 C   0  0  0  0  0  0  0  0  0  0  0  0
   39.7140   22.1350   34.9340 N   0  0  0  0  0  0  0  0  0  0  0  0
   38.4490   22.5170   34.9970 C   0  0  0  0  0  0  0  0  0  0  0  0
   37.9700   23.0040   36.1590 N   0  0  0  0  0  0  0  0  0  0  0  0
   40.7270   22.7840   38.0590 H   0  0  0  0  0  0  0  0  0  0  0  0
   38.2820   23.6400   38.5460 C   0  0  0  0  0  0  0  0  0  0  0  0
   37.8920   24.9740   38.3370 F   0  0  0  0  0  0  0  0  0  0  0  0
   37.2740   22.8730   38.9780 F   0  0  0  0  0  0  0  0  0  0  0  0
   39.3520   23.6970   39.4090 F   0  0  0  0  0  0  0  0  0  0  0  0
   41.9950   21.7710   35.9010 C   0  0  0  0  0  0  0  0  0  0  0  0
   42.4610   21.7580   34.6040 F   0  0  0  0  0  0  0  0  0  0  0  0
   42.8570   22.5670   36.6430 F   0  0  0  0  0  0  0  0  0  0  0  0
   42.1040   20.4970   36.4730 F   0  0  0  0  0  0  0  0  0  0  0  0
  1 30  1  0  0  0  0
  2  1  1  0  0  0  0
  2  7  1  0  0  0  0
  3  2  2  0  0  0  0
  4  5  2  0  0  0  0
  4  3  1  0  0  0  0
  5  6  1  0  0  0  0
  6 11  1  0  0  0  0
  6  1  2  0  0  0  0
  8  3  1  0  0  0  0
  9  4  1  0  0  0  0
 10  5  1  0  0  0  0
 11 12  1  0  0  0  0
 12 18  1  0  0  0  0
 12 17  1  0  0  0  0
 13 20  1  0  0  0  0
 13 12  1  0  0  0  0
 14 13  1  0  0  0  0
 15 14  1  0  0  0  0
 15 22  1  0  0  0  0
 16 15  1  0  0  0  0
 16 25  1  0  0  0  0
 16 11  1  0  0  0  0
 19 13  1  0  0  0  0
 21 14  1  0  0  0  0
 23 15  1  0  0  0  0
 24 16  1  0  0  0  0
 26 33  1  0  0  0  0
 27 26  1  0  0  0  0
 27 32  1  0  0  0  0
 28 27  2  0  0  0  0
 29 30  2  0  0  0  0
 29 28  1  0  0  0  0
 30 31  1  0  0  0  0
 31 26  2  0  0  0  0
 33 35  1  0  0  0  0
 33 36  1  0  0  0  0
 34 33  1  0  0  0  0
 37 28  1  0  0  0  0
 37 40  1  0  0  0  0
 37 39  1  0  0  0  0
 38 37  1  0  0  0  0
M  END
>  <minimizedAffinity>
-6.04004955

$$$$

 OpenBabel03272505423D

 40 42  0  0  0  0  0  0  0  0999 V2000
   38.0480   24.5060   33.7630 C   0  0  0  0  0  0  0  0  0  0  0  0
   37.8920   25.5850   32.8930 C   0  0  0  0  0  0  0  0  0  0  0  0
   37.9610   26.8720   33.3940 C   0  0  0  0  0  0  0  0  0  0  0  0
   38.1760   27.1680   34.7080 C   0  0  0  0  0  0  0  0  0  0  0  0
   38.3330   26.0940   35.5880 C   0  0  0  0  0  0  0  0  0  0  0  0
   38.2610   24.8130   35.0690 C   0  0  0  0  0  0  0  0  0  0  0  0
   37.7180   25.4520   31.8290 H   0  0  0  0  0  0  0  0  0  0  0  0
   37.8350   27.6910   32.6860 H   0  0  0  0  0  0  0  0  0  0  0  0
   38.2210   28.2000   35.0480 H   0  0  0  0  0  0  0  0  0  0  0  0
   38.4990   26.3740   36.6090 H   0  0  0  0  0  0  0  0  0  0  0  0
   38.4420   23.8520   36.1060 N   0  0  0  0  0  0  0  0  0  0  0  0
   37.6300   23.1180   37.0320 C   0  0  0  0  0  0  0  0  0  0  0  0
   38.1670   23.3920   38.4200 C   0  0  0  0  0  0  0  0  0  0  0  0
   39.4370   22.7430   38.5050 N   0  0  0  0  0  0  0  0  0  0  0  0
   40.1030   22.5310   37.3000 C   0  0  0  0  0  0  0  0  0  0  0  0
   39.8330   23.5460   36.2370 C   0  0  0  0  0  0  0  0  0  0  0  0
   36.5530   23.3490   36.9420 H   0  0  0  0  0  0  0  0  0  0  0  0
   37.8230   22.0270   36.8530 H   0  0  0  0  0  0  0  0  0  0  0  0
   37.9510   24.2830   38.9150 H   0  0  0  0  0  0  0  0  0  0  0  0
   37.5260   22.6500   39.0140 H   0  0  0  0  0  0  0  0  0  0  0  0
   39.8450   22.5480   39.3970 H   0  0  0  0  0  0  0  0  0  0  0  0
   39.9650   21.4870   36.9490 H   0  0  0  0  0  0  0  0  0  0  0  0
   41.2120   22.5930   37.5040 H   0  0  0  0  0  0  0  0  0  0  0  0
   40.5400   24.3660   36.1940 H   0  0  0  0  0  0  0  0  0  0  0  0
   40.0580   22.9830   35.2750 H   0  0  0  0  0  0  0  0  0  0  0  0
   38.9120   21.3900   32.0760 C   0  0  0  0  0  0  0  0  0  0  0  0
   37.7890   20.5810   32.3360 C   0  0  0  0  0  0  0  0  0  0  0  0
   36.7520   21.1290   33.0930 C   0  0  0  0  0  0  0  0  0  0  0  0
   36.9200   22.4070   33.5160 N   0  0  0  0  0  0  0  0  0  0  0  0
   37.9790   23.1590   33.2660 C   0  0  0  0  0  0  0  0  0  0  0  0
   38.9890   22.6440   32.5370 N   0  0  0  0  0  0  0  0  0  0  0  0
   37.7710   19.5740   31.9450 H   0  0  0  0  0  0  0  0  0  0  0  0
   40.0130   20.7740   31.2520 C   0  0  0  0  0  0  0  0  0  0  0  0
   39.5750   20.7380   29.9160 F   0  0  0  0  0  0  0  0  0  0  0  0
   41.1240   21.5030   31.4070 F   0  0  0  0  0  0  0  0  0  0  0  0
   40.1490   19.4590   31.6320 F   0  0  0  0  0  0  0  0  0  0  0  0
   35.5880   20.2920   33.3630 C   0  0  0  0  0  0  0  0  0  0  0  0
   34.5190   20.6440   32.5670 F   0  0  0  0  0  0  0  0  0  0  0  0
   35.8120   18.9340   33.1790 F   0  0  0  0  0  0  0  0  0  0  0  0
   35.2520   20.4180   34.7170 F   0  0  0  0  0  0  0  0  0  0  0  0
  1  6  1  0  0  0  0
  2  3  1  0  0  0  0
  2  1  2  0  0  0  0
  3  4  2  0  0  0  0
  4  9  1  0  0  0  0
  4  5  1  0  0  0  0
  5 10  1  0  0  0  0
  6  5  2  0  0  0  0
  6 11  1  0  0  0  0
  7  2  1  0  0  0  0
  8  3  1  0  0  0  0
 11 16  1  0  0  0  0
 11 12  1  0  0  0  0
 12 13  1  0  0  0  0
 13 14  1  0  0  0  0
 13 19  1  0  0  0  0
 13 20  1  0  0  0  0
 14 21  1  0  0  0  0
 15 23  1  0  0  0  0
 15 14  1  0  0  0  0
 16 15  1  0  0  0  0
 17 12  1  0  0  0  0
 18 12  1  0  0  0  0
 22 15  1  0  0  0  0
 24 16  1  0  0  0  0
 25 16  1  0  0  0  0
 26 27  2  0  0  0  0
 26 31  1  0  0  0  0
 27 28  1  0  0  0  0
 28 37  1  0  0  0  0
 28 29  2  0  0  0  0
 30 29  1  0  0  0  0
 30  1  1  0  0  0  0
 31 30  2  0  0  0  0
 32 27  1  0  0  0  0
 33 35  1  0  0  0  0
 33 36  1  0  0  0  0
 33 26  1  0  0  0  0
 34 33  1  0  0  0  0
 37 40  1  0  0  0  0
 38 37  1  0  0  0  0
 39 37  1  0  0  0  0
M  END
>  <minimizedAffinity>
-5.98263884

$$$$

 OpenBabel03272505423D

 40 42  0  0  0  0  0  0  0  0999 V2000
   38.1670   22.2520   33.7990 C   0  0  0  0  0  0  0  0  0  0  0  0
   36.9770   21.7100   33.3110 C   0  0  0  0  0  0  0  0  0  0  0  0
   37.0320   20.6620   32.4120 C   0  0  0  0  0  0  0  0  0  0  0  0
   38.1920   20.1070   31.9570 C   0  0  0  0  0  0  0  0  0  0  0  0
   39.3890   20.6420   32.4400 C   0  0  0  0  0  0  0  0  0  0  0  0
   39.3150   21.6910   33.3390 C   0  0  0  0  0  0  0  0  0  0  0  0
   36.0030   22.0840   33.6140 H   0  0  0  0  0  0  0  0  0  0  0  0
   36.0840   20.2640   32.0510 H   0  0  0  0  0  0  0  0  0  0  0  0
   38.1770   19.2830   31.2480 H   0  0  0  0  0  0  0  0  0  0  0  0
   40.2740   20.1760   32.0550 H   0  0  0  0  0  0  0  0  0  0  0  0
   40.6260   22.1060   33.7190 N   0  0  0  0  0  0  0  0  0  0  0  0
   41.5140   21.9420   34.8320 C   0  0  0  0  0  0  0  0  0  0  0  0
   41.9120   23.3240   35.3020 C   0  0  0  0  0  0  0  0  0  0  0  0
   42.7500   23.8780   34.2860 N   0  0  0  0  0  0  0  0  0  0  0  0
   42.5770   23.3730   33.0000 C   0  0  0  0  0  0  0  0  0  0  0  0
   41.1940   22.9080   32.6800 C   0  0  0  0  0  0  0  0  0  0  0  0
   41.0840   21.3260   35.6420 H   0  0  0  0  0  0  0  0  0  0  0  0
   42.4590   21.4820   34.4370 H   0  0  0  0  0  0  0  0  0  0  0  0
   41.2680   23.9010   35.8830 H   0  0  0  0  0  0  0  0  0  0  0  0
   42.7060   23.0330   36.0760 H   0  0  0  0  0  0  0  0  0  0  0  0
   43.3510   24.6510   34.4930 H   0  0  0  0  0  0  0  0  0  0  0  0
   43.3560   22.6160   32.7630 H   0  0  0  0  0  0  0  0  0  0  0  0
   42.7940   24.2070   32.2690 H   0  0  0  0  0  0  0  0  0  0  0  0
   40.5600   23.6470   32.2020 H   0  0  0  0  0  0  0  0  0  0  0  0
   41.3580   22.1550   31.8420 H   0  0  0  0  0  0  0  0  0  0  0  0
   38.0440   25.6240   35.1840 C   0  0  0  0  0  0  0  0  0  0  0  0
   38.0900   25.3860   36.5710 C   0  0  0  0  0  0  0  0  0  0  0  0
   38.1620   24.0610   37.0020 C   0  0  0  0  0  0  0  0  0  0  0  0
   38.1800   23.1080   36.0370 N   0  0  0  0  0  0  0  0  0  0  0  0
   38.1360   23.3430   34.7350 C   0  0  0  0  0  0  0  0  0  0  0  0
   38.0670   24.6170   34.3030 N   0  0  0  0  0  0  0  0  0  0  0  0
   38.0680   26.2290   37.2450 H   0  0  0  0  0  0  0  0  0  0  0  0
   37.9740   27.0650   34.7470 C   0  0  0  0  0  0  0  0  0  0  0  0
   38.6090   27.8400   35.7330 F   0  0  0  0  0  0  0  0  0  0  0  0
   38.5600   27.1790   33.5500 F   0  0  0  0  0  0  0  0  0  0  0  0
   36.6540   27.4540   34.7640 F   0  0  0  0  0  0  0  0  0  0  0  0
   38.2090   23.8120   38.4390 C   0  0  0  0  0  0  0  0  0  0  0  0
   37.3170   22.8280   38.8100 F   0  0  0  0  0  0  0  0  0  0  0  0
   39.4600   23.4350   38.9080 F   0  0  0  0  0  0  0  0  0  0  0  0
   37.9230   25.0080   39.1090 F   0  0  0  0  0  0  0  0  0  0  0  0
  1 30  1  0  0  0  0
  2  7  1  0  0  0  0
  2  1  2  0  0  0  0
  3  2  1  0  0  0  0
  4  3  2  0  0  0  0
  4  5  1  0  0  0  0
  5  6  2  0  0  0  0
  6 11  1  0  0  0  0
  6  1  1  0  0  0  0
  8  3  1  0  0  0  0
  9  4  1  0  0  0  0
 10  5  1  0  0  0  0
 11 12  1  0  0  0  0
 12 13  1  0  0  0  0
 12 17  1  0  0  0  0
 13 19  1  0  0  0  0
 13 20  1  0  0  0  0
 14 21  1  0  0  0  0
 14 13  1  0  0  0  0
 15 14  1  0  0  0  0
 16 15  1  0  0  0  0
 16 11  1  0  0  0  0
 18 12  1  0  0  0  0
 22 15  1  0  0  0  0
 23 15  1  0  0  0  0
 24 16  1  0  0  0  0
 25 16  1  0  0  0  0
 26 27  1  0  0  0  0
 27 28  2  0  0  0  0
 27 32  1  0  0  0  0
 28 37  1  0  0  0  0
 29 28  1  0  0  0  0
 30 29  2  0  0  0  0
 31 30  1  0  0  0  0
 31 26  2  0  0  0  0
 33 36  1  0  0  0  0
 33 26  1  0  0  0  0
 33 34  1  0  0  0  0
 35 33  1  0  0  0  0
 37 38  1  0  0  0  0
 37 39  1  0  0  0  0
 37 40  1  0  0  0  0
M  END
>  <minimizedAffinity>
-5.95952654

$$$$

 OpenBabel03272505423D

 40 42  0  0  0  0  0  0  0  0999 V2000
   38.1450   22.2370   33.8600 C   0  0  0  0  0  0  0  0  0  0  0  0
   36.9480   21.7000   33.3860 C   0  0  0  0  0  0  0  0  0  0  0  0
   36.9880   20.6650   32.4700 C   0  0  0  0  0  0  0  0  0  0  0  0
   38.1410   20.1190   31.9870 C   0  0  0  0  0  0  0  0  0  0  0  0
   39.3460   20.6490   32.4560 C   0  0  0  0  0  0  0  0  0  0  0  0
   39.2870   21.6850   33.3720 C   0  0  0  0  0  0  0  0  0  0  0  0
   35.9790   22.0670   33.7110 H   0  0  0  0  0  0  0  0  0  0  0  0
   36.0350   20.2710   32.1210 H   0  0  0  0  0  0  0  0  0  0  0  0
   38.1140   19.3050   31.2660 H   0  0  0  0  0  0  0  0  0  0  0  0
   40.2240   20.1900   32.0490 H   0  0  0  0  0  0  0  0  0  0  0  0
   40.6020   22.0960   33.7340 N   0  0  0  0  0  0  0  0  0  0  0  0
   41.5090   21.9230   34.8320 C   0  0  0  0  0  0  0  0  0  0  0  0
   41.9140   23.3020   35.3060 C   0  0  0  0  0  0  0  0  0  0  0  0
   42.7370   23.8640   34.2820 N   0  0  0  0  0  0  0  0  0  0  0  0
   42.5430   23.3680   32.9940 C   0  0  0  0  0  0  0  0  0  0  0  0
   41.1550   22.9060   32.6920 C   0  0  0  0  0  0  0  0  0  0  0  0
   41.0910   21.3020   35.6440 H   0  0  0  0  0  0  0  0  0  0  0  0
   42.4470   21.4670   34.4190 H   0  0  0  0  0  0  0  0  0  0  0  0
   41.2800   23.8740   35.9020 H   0  0  0  0  0  0  0  0  0  0  0  0
   42.7200   23.0040   36.0650 H   0  0  0  0  0  0  0  0  0  0  0  0
   43.3400   24.6350   34.4860 H   0  0  0  0  0  0  0  0  0  0  0  0
   43.3170   22.6130   32.7400 H   0  0  0  0  0  0  0  0  0  0  0  0
   42.7490   24.2070   32.2670 H   0  0  0  0  0  0  0  0  0  0  0  0
   40.5140   23.6480   32.2310 H   0  0  0  0  0  0  0  0  0  0  0  0
   41.3050   22.1600   31.8470 H   0  0  0  0  0  0  0  0  0  0  0  0
   38.1550   24.0720   37.0130 C   0  0  0  0  0  0  0  0  0  0  0  0
   38.0880   25.4120   36.5850 C   0  0  0  0  0  0  0  0  0  0  0  0
   38.0430   25.6570   35.2120 C   0  0  0  0  0  0  0  0  0  0  0  0
   38.0670   24.5700   34.4010 N   0  0  0  0  0  0  0  0  0  0  0  0
   38.1300   23.3140   34.8130 C   0  0  0  0  0  0  0  0  0  0  0  0
   38.1740   23.0610   36.1360 N   0  0  0  0  0  0  0  0  0  0  0  0
   38.0760   26.1960   37.3280 H   0  0  0  0  0  0  0  0  0  0  0  0
   38.1960   23.8380   38.5010 C   0  0  0  0  0  0  0  0  0  0  0  0
   39.4770   23.3560   38.8210 F   0  0  0  0  0  0  0  0  0  0  0  0
   37.9110   24.9880   39.1230 F   0  0  0  0  0  0  0  0  0  0  0  0
   37.3290   22.8110   38.7970 F   0  0  0  0  0  0  0  0  0  0  0  0
   37.9750   27.0450   34.7680 C   0  0  0  0  0  0  0  0  0  0  0  0
   38.5900   27.8920   35.6660 F   0  0  0  0  0  0  0  0  0  0  0  0
   38.5520   27.2710   33.5250 F   0  0  0  0  0  0  0  0  0  0  0  0
   36.6290   27.3970   34.6070 F   0  0  0  0  0  0  0  0  0  0  0  0
  1 30  1  0  0  0  0
  2  7  1  0  0  0  0
  2  1  1  0  0  0  0
  3  2  2  0  0  0  0
  4  5  2  0  0  0  0
  4  3  1  0  0  0  0
  5  6  1  0  0  0  0
  6 11  1  0  0  0  0
  6  1  2  0  0  0  0
  8  3  1  0  0  0  0
  9  4  1  0  0  0  0
 10  5  1  0  0  0  0
 11 12  1  0  0  0  0
 12 13  1  0  0  0  0
 12 17  1  0  0  0  0
 13 19  1  0  0  0  0
 13 20  1  0  0  0  0
 14 21  1  0  0  0  0
 14 13  1  0  0  0  0
 15 14  1  0  0  0  0
 16 15  1  0  0  0  0
 16 11  1  0  0  0  0
 18 12  1  0  0  0  0
 22 15  1  0  0  0  0
 23 15  1  0  0  0  0
 24 16  1  0  0  0  0
 25 16  1  0  0  0  0
 26 33  1  0  0  0  0
 27 26  1  0  0  0  0
 27 32  1  0  0  0  0
 28 27  2  0  0  0  0
 29 30  2  0  0  0  0
 29 28  1  0  0  0  0
 30 31  1  0  0  0  0
 31 26  2  0  0  0  0
 33 36  1  0  0  0  0
 33 34  1  0  0  0  0
 33 35  1  0  0  0  0
 37 28  1  0  0  0  0
 37 38  1  0  0  0  0
 39 37  1  0  0  0  0
 40 37  1  0  0  0  0
M  END
>  <minimizedAffinity>
-5.95542765

$$$$
