
 OpenBabel03272507083D

 34 37  0  0  0  0  0  0  0  0999 V2000
   35.9550   27.6820   31.8040 C   0  0  0  0  0  0  0  0  0  0  0  0
   36.8630   26.7450   32.3200 C   0  0  0  0  0  0  0  0  0  0  0  0
   37.1850   26.8650   33.6720 C   0  0  0  0  0  0  0  0  0  0  0  0
   36.6220   27.8530   34.4050 N   0  0  0  0  0  0  0  0  0  0  0  0
   35.7550   28.7330   33.8740 C   0  0  0  0  0  0  0  0  0  0  0  0
   35.4200   28.6520   32.5810 N   0  0  0  0  0  0  0  0  0  0  0  0
   35.6860   27.6150   30.7640 H   0  0  0  0  0  0  0  0  0  0  0  0
   37.3120   25.9650   31.7580 H   0  0  0  0  0  0  0  0  0  0  0  0
   36.0480   30.6450   35.3750 C   0  0  0  0  0  0  0  0  0  0  0  0
   35.1890   29.7770   34.7400 C   0  0  0  0  0  0  0  0  0  0  0  0
   33.8360   29.8790   34.9060 C   0  0  0  0  0  0  0  0  0  0  0  0
   33.3100   30.8590   35.7190 C   0  0  0  0  0  0  0  0  0  0  0  0
   32.0320   31.1730   36.0500 N   0  0  0  0  0  0  0  0  0  0  0  0
   32.1500   32.2350   36.8860 C   0  0  0  0  0  0  0  0  0  0  0  0
   33.4440   32.5570   37.0600 N   0  0  0  0  0  0  0  0  0  0  0  0
   34.1970   31.7110   36.3400 C   0  0  0  0  0  0  0  0  0  0  0  0
   35.5520   31.6440   36.2010 C   0  0  0  0  0  0  0  0  0  0  0  0
   37.1090   30.5230   35.2110 H   0  0  0  0  0  0  0  0  0  0  0  0
   33.1710   29.1940   34.4050 H   0  0  0  0  0  0  0  0  0  0  0  0
   31.1990   30.6550   35.6910 H   0  0  0  0  0  0  0  0  0  0  0  0
   31.2730   32.6920   37.3050 H   0  0  0  0  0  0  0  0  0  0  0  0
   36.2470   32.3250   36.6970 H   0  0  0  0  0  0  0  0  0  0  0  0
   38.1060   25.9810   34.3690 C   0  0  0  0  0  0  0  0  0  0  0  0
   39.3400   25.6240   33.8950 C   0  0  0  0  0  0  0  0  0  0  0  0
   40.2340   24.7880   34.5320 C   0  0  0  0  0  0  0  0  0  0  0  0
   39.8430   24.2880   35.7260 N   0  0  0  0  0  0  0  0  0  0  0  0
   38.6480   24.6140   36.2200 C   0  0  0  0  0  0  0  0  0  0  0  0
   37.8190   25.4180   35.5780 N   0  0  0  0  0  0  0  0  0  0  0  0
   39.6670   26.0200   32.9320 H   0  0  0  0  0  0  0  0  0  0  0  0
   41.1930   24.5130   34.1570 H   0  0  0  0  0  0  0  0  0  0  0  0
   38.1590   24.0910   37.5390 C   0  0  0  0  0  0  0  0  0  0  0  0
   39.0890   23.2560   38.1180 F   0  0  0  0  0  0  0  0  0  0  0  0
   37.9790   25.1620   38.3980 F   0  0  0  0  0  0  0  0  0  0  0  0
   36.9870   23.3580   37.3580 F   0  0  0  0  0  0  0  0  0  0  0  0
  1  2  2  0  0  0  0
  1  6  1  0  0  0  0
  2  3  1  0  0  0  0
  3 23  1  0  0  0  0
  3  4  2  0  0  0  0
  5  4  1  0  0  0  0
  5 10  1  0  0  0  0
  6  5  2  0  0  0  0
  7  1  1  0  0  0  0
  8  2  1  0  0  0  0
  9 17  1  0  0  0  0
 10 11  1  0  0  0  0
 10  9  2  0  0  0  0
 11 12  2  0  0  0  0
 12 13  1  0  0  0  0
 12 16  1  0  0  0  0
 13 14  1  0  0  0  0
 14 15  2  0  0  0  0
 14 21  1  0  0  0  0
 16 15  1  0  0  0  0
 17 16  2  0  0  0  0
 17 22  1  0  0  0  0
 18  9  1  0  0  0  0
 19 11  1  0  0  0  0
 20 13  1  0  0  0  0
 23 28  1  0  0  0  0
 24 23  2  0  0  0  0
 24 25  1  0  0  0  0
 25 26  2  0  0  0  0
 26 27  1  0  0  0  0
 27 31  1  0  0  0  0
 28 27  2  0  0  0  0
 29 24  1  0  0  0  0
 30 25  1  0  0  0  0
 31 32  1  0  0  0  0
 31 33  1  0  0  0  0
 34 31  1  0  0  0  0
M  END
>  <minimizedAffinity>
-6.40135717

$$$$

 OpenBabel03272507083D

 34 37  0  0  0  0  0  0  0  0999 V2000
   36.7560   24.0510   31.4430 C   0  0  0  0  0  0  0  0  0  0  0  0
   37.5160   23.4580   32.4620 C   0  0  0  0  0  0  0  0  0  0  0  0
   37.8780   24.2770   33.5310 C   0  0  0  0  0  0  0  0  0  0  0  0
   37.4880   25.5730   33.5380 N   0  0  0  0  0  0  0  0  0  0  0  0
   36.7580   26.1060   32.5420 C   0  0  0  0  0  0  0  0  0  0  0  0
   36.3910   25.3540   31.4980 N   0  0  0  0  0  0  0  0  0  0  0  0
   36.4610   23.4440   30.6040 H   0  0  0  0  0  0  0  0  0  0  0  0
   37.8290   22.4440   32.4700 H   0  0  0  0  0  0  0  0  0  0  0  0
   36.3060   28.1150   33.8660 C   0  0  0  0  0  0  0  0  0  0  0  0
   36.3770   27.5220   32.6260 C   0  0  0  0  0  0  0  0  0  0  0  0
   36.1000   28.2320   31.4910 C   0  0  0  0  0  0  0  0  0  0  0  0
   35.7420   29.5600   31.5740 C   0  0  0  0  0  0  0  0  0  0  0  0
   35.4230   30.4740   30.6230 N   0  0  0  0  0  0  0  0  0  0  0  0
   35.1640   31.6100   31.3190 C   0  0  0  0  0  0  0  0  0  0  0  0
   35.3180   31.4000   32.6390 N   0  0  0  0  0  0  0  0  0  0  0  0
   35.6820   30.1220   32.8300 C   0  0  0  0  0  0  0  0  0  0  0  0
   35.9500   29.4510   33.9870 C   0  0  0  0  0  0  0  0  0  0  0  0
   36.5350   27.5110   34.7330 H   0  0  0  0  0  0  0  0  0  0  0  0
   36.1570   27.7600   30.5230 H   0  0  0  0  0  0  0  0  0  0  0  0
   35.4050   30.2610   29.6010 H   0  0  0  0  0  0  0  0  0  0  0  0
   34.8800   32.5070   30.8010 H   0  0  0  0  0  0  0  0  0  0  0  0
   35.8990   29.9060   34.9780 H   0  0  0  0  0  0  0  0  0  0  0  0
   38.6620   23.8270   34.6690 C   0  0  0  0  0  0  0  0  0  0  0  0
   39.8830   23.2150   34.5720 C   0  0  0  0  0  0  0  0  0  0  0  0
   40.6500   22.7780   35.6320 C   0  0  0  0  0  0  0  0  0  0  0  0
   40.1370   22.9790   36.8670 N   0  0  0  0  0  0  0  0  0  0  0  0
   38.9510   23.5730   37.0020 C   0  0  0  0  0  0  0  0  0  0  0  0
   38.2460   23.9770   35.9600 N   0  0  0  0  0  0  0  0  0  0  0  0
   40.3080   23.0470   33.5800 H   0  0  0  0  0  0  0  0  0  0  0  0
   41.5990   22.3010   35.5490 H   0  0  0  0  0  0  0  0  0  0  0  0
   38.3310   23.8230   38.3460 C   0  0  0  0  0  0  0  0  0  0  0  0
   39.2510   23.6520   39.3570 F   0  0  0  0  0  0  0  0  0  0  0  0
   37.9070   25.1400   38.3970 F   0  0  0  0  0  0  0  0  0  0  0  0
   37.2880   22.9240   38.5660 F   0  0  0  0  0  0  0  0  0  0  0  0
  1  6  2  0  0  0  0
  1  2  1  0  0  0  0
  2  8  1  0  0  0  0
  2  3  2  0  0  0  0
  3  4  1  0  0  0  0
  3 23  1  0  0  0  0
  5 10  1  0  0  0  0
  5  4  2  0  0  0  0
  6  5  1  0  0  0  0
  7  1  1  0  0  0  0
  9 17  1  0  0  0  0
  9 18  1  0  0  0  0
 10  9  2  0  0  0  0
 11 12  2  0  0  0  0
 11 10  1  0  0  0  0
 12 16  1  0  0  0  0
 13 14  1  0  0  0  0
 13 12  1  0  0  0  0
 14 15  2  0  0  0  0
 15 16  1  0  0  0  0
 16 17  2  0  0  0  0
 17 22  1  0  0  0  0
 19 11  1  0  0  0  0
 20 13  1  0  0  0  0
 21 14  1  0  0  0  0
 23 28  1  0  0  0  0
 24 23  2  0  0  0  0
 24 25  1  0  0  0  0
 25 26  2  0  0  0  0
 26 27  1  0  0  0  0
 27 31  1  0  0  0  0
 28 27  2  0  0  0  0
 29 24  1  0  0  0  0
 30 25  1  0  0  0  0
 31 33  1  0  0  0  0
 31 34  1  0  0  0  0
 31 32  1  0  0  0  0
M  END
>  <minimizedAffinity>
-6.33558464

$$$$

 OpenBabel03272507083D

 34 37  0  0  0  0  0  0  0  0999 V2000
   37.0260   28.8260   31.4100 C   0  0  0  0  0  0  0  0  0  0  0  0
   37.5400   27.5730   31.7760 C   0  0  0  0  0  0  0  0  0  0  0  0
   37.2060   27.1070   33.0480 C   0  0  0  0  0  0  0  0  0  0  0  0
   36.4210   27.8640   33.8490 N   0  0  0  0  0  0  0  0  0  0  0  0
   35.9460   29.0610   33.4620 C   0  0  0  0  0  0  0  0  0  0  0  0
   36.2440   29.5440   32.2500 N   0  0  0  0  0  0  0  0  0  0  0  0
   37.2660   29.2130   30.4340 H   0  0  0  0  0  0  0  0  0  0  0  0
   38.1560   26.9690   31.1590 H   0  0  0  0  0  0  0  0  0  0  0  0
   33.7440   29.5870   34.3940 C   0  0  0  0  0  0  0  0  0  0  0  0
   35.1010   29.8200   34.3930 C   0  0  0  0  0  0  0  0  0  0  0  0
   35.6570   30.7380   35.2400 C   0  0  0  0  0  0  0  0  0  0  0  0
   34.8610   31.4480   36.1110 C   0  0  0  0  0  0  0  0  0  0  0  0
   35.1520   32.3970   37.0370 N   0  0  0  0  0  0  0  0  0  0  0  0
   33.9510   32.7180   37.5810 C   0  0  0  0  0  0  0  0  0  0  0  0
   32.9680   31.9970   37.0140 N   0  0  0  0  0  0  0  0  0  0  0  0
   33.5080   31.1900   36.0870 C   0  0  0  0  0  0  0  0  0  0  0  0
   32.9130   30.2840   35.2600 C   0  0  0  0  0  0  0  0  0  0  0  0
   33.3540   28.8510   33.7060 H   0  0  0  0  0  0  0  0  0  0  0  0
   36.7210   30.9150   35.2320 H   0  0  0  0  0  0  0  0  0  0  0  0
   36.1180   32.7450   37.2220 H   0  0  0  0  0  0  0  0  0  0  0  0
   33.8900   33.4600   38.3550 H   0  0  0  0  0  0  0  0  0  0  0  0
   31.8390   30.0860   35.2480 H   0  0  0  0  0  0  0  0  0  0  0  0
   37.6510   25.8330   33.5880 C   0  0  0  0  0  0  0  0  0  0  0  0
   38.0160   24.7560   32.8250 C   0  0  0  0  0  0  0  0  0  0  0  0
   38.4410   23.5360   33.3080 C   0  0  0  0  0  0  0  0  0  0  0  0
   38.4980   23.4100   34.6530 N   0  0  0  0  0  0  0  0  0  0  0  0
   38.1510   24.4370   35.4290 C   0  0  0  0  0  0  0  0  0  0  0  0
   37.7480   25.5900   34.9270 N   0  0  0  0  0  0  0  0  0  0  0  0
   37.9750   24.8460   31.7370 H   0  0  0  0  0  0  0  0  0  0  0  0
   38.7230   22.7010   32.7080 H   0  0  0  0  0  0  0  0  0  0  0  0
   38.1930   24.3560   36.9280 C   0  0  0  0  0  0  0  0  0  0  0  0
   37.0920   23.6910   37.4200 F   0  0  0  0  0  0  0  0  0  0  0  0
   39.3110   23.6290   37.2980 F   0  0  0  0  0  0  0  0  0  0  0  0
   38.1930   25.6390   37.4750 F   0  0  0  0  0  0  0  0  0  0  0  0
  1  2  2  0  0  0  0
  1  6  1  0  0  0  0
  2  3  1  0  0  0  0
  3 23  1  0  0  0  0
  3  4  2  0  0  0  0
  5  4  1  0  0  0  0
  5 10  1  0  0  0  0
  6  5  2  0  0  0  0
  7  1  1  0  0  0  0
  8  2  1  0  0  0  0
  9 17  1  0  0  0  0
 10  9  2  0  0  0  0
 10 11  1  0  0  0  0
 11 12  2  0  0  0  0
 12 13  1  0  0  0  0
 13 20  1  0  0  0  0
 13 14  1  0  0  0  0
 14 21  1  0  0  0  0
 15 14  2  0  0  0  0
 16 12  1  0  0  0  0
 16 15  1  0  0  0  0
 17 16  2  0  0  0  0
 18  9  1  0  0  0  0
 19 11  1  0  0  0  0
 22 17  1  0  0  0  0
 23 28  1  0  0  0  0
 24 25  1  0  0  0  0
 24 23  2  0  0  0  0
 25 26  2  0  0  0  0
 26 27  1  0  0  0  0
 27 31  1  0  0  0  0
 28 27  2  0  0  0  0
 29 24  1  0  0  0  0
 30 25  1  0  0  0  0
 31 33  1  0  0  0  0
 31 32  1  0  0  0  0
 31 34  1  0  0  0  0
M  END
>  <minimizedAffinity>
-6.25321388

$$$$

 OpenBabel03272507083D

 34 37  0  0  0  0  0  0  0  0999 V2000
   37.6680   27.6150   31.6220 C   0  0  0  0  0  0  0  0  0  0  0  0
   36.7040   28.5530   32.0200 C   0  0  0  0  0  0  0  0  0  0  0  0
   36.2570   28.4700   33.3390 C   0  0  0  0  0  0  0  0  0  0  0  0
   36.7610   27.5150   34.1540 N   0  0  0  0  0  0  0  0  0  0  0  0
   37.6870   26.6330   33.7350 C   0  0  0  0  0  0  0  0  0  0  0  0
   38.1410   26.6780   32.4770 N   0  0  0  0  0  0  0  0  0  0  0  0
   38.0330   27.6540   30.6100 H   0  0  0  0  0  0  0  0  0  0  0  0
   36.2990   29.3070   31.3930 H   0  0  0  0  0  0  0  0  0  0  0  0
   39.1130   24.7100   34.2480 C   0  0  0  0  0  0  0  0  0  0  0  0
   38.1820   25.6260   34.6830 C   0  0  0  0  0  0  0  0  0  0  0  0
   37.7240   25.6040   35.9720 C   0  0  0  0  0  0  0  0  0  0  0  0
   38.1910   24.6580   36.8570 C   0  0  0  0  0  0  0  0  0  0  0  0
   37.9080   24.4210   38.1630 N   0  0  0  0  0  0  0  0  0  0  0  0
   38.6820   23.3560   38.4890 C   0  0  0  0  0  0  0  0  0  0  0  0
   39.4080   22.9580   37.4290 N   0  0  0  0  0  0  0  0  0  0  0  0
   39.1220   23.7570   36.3890 C   0  0  0  0  0  0  0  0  0  0  0  0
   39.6050   23.7430   35.1140 C   0  0  0  0  0  0  0  0  0  0  0  0
   39.4440   24.7690   33.2210 H   0  0  0  0  0  0  0  0  0  0  0  0
   36.9940   26.3260   36.3040 H   0  0  0  0  0  0  0  0  0  0  0  0
   37.2270   24.9860   38.7180 H   0  0  0  0  0  0  0  0  0  0  0  0
   38.6530   22.9520   39.4840 H   0  0  0  0  0  0  0  0  0  0  0  0
   40.3430   23.0240   34.7530 H   0  0  0  0  0  0  0  0  0  0  0  0
   35.2630   29.3600   33.9170 C   0  0  0  0  0  0  0  0  0  0  0  0
   33.9150   29.2550   33.7020 C   0  0  0  0  0  0  0  0  0  0  0  0
   32.9490   30.0830   34.2350 C   0  0  0  0  0  0  0  0  0  0  0  0
   33.3890   31.0780   35.0380 N   0  0  0  0  0  0  0  0  0  0  0  0
   34.6950   31.2130   35.2710 C   0  0  0  0  0  0  0  0  0  0  0  0
   35.5890   30.3980   34.7400 N   0  0  0  0  0  0  0  0  0  0  0  0
   33.5480   28.4550   33.0560 H   0  0  0  0  0  0  0  0  0  0  0  0
   31.9010   29.9960   34.0630 H   0  0  0  0  0  0  0  0  0  0  0  0
   35.2420   32.2980   36.1520 C   0  0  0  0  0  0  0  0  0  0  0  0
   34.9840   32.0370   37.4800 F   0  0  0  0  0  0  0  0  0  0  0  0
   36.6180   32.3340   36.0020 F   0  0  0  0  0  0  0  0  0  0  0  0
   34.6450   33.5170   35.8360 F   0  0  0  0  0  0  0  0  0  0  0  0
  1  2  2  0  0  0  0
  1  6  1  0  0  0  0
  2  3  1  0  0  0  0
  3 23  1  0  0  0  0
  3  4  2  0  0  0  0
  5  4  1  0  0  0  0
  5 10  1  0  0  0  0
  6  5  2  0  0  0  0
  7  1  1  0  0  0  0
  8  2  1  0  0  0  0
  9 10  2  0  0  0  0
  9 17  1  0  0  0  0
 10 11  1  0  0  0  0
 11 19  1  0  0  0  0
 11 12  2  0  0  0  0
 12 13  1  0  0  0  0
 13 14  1  0  0  0  0
 13 20  1  0  0  0  0
 14 21  1  0  0  0  0
 15 14  2  0  0  0  0
 16 12  1  0  0  0  0
 16 15  1  0  0  0  0
 17 16  2  0  0  0  0
 18  9  1  0  0  0  0
 22 17  1  0  0  0  0
 23 28  1  0  0  0  0
 24 23  2  0  0  0  0
 24 25  1  0  0  0  0
 25 26  2  0  0  0  0
 26 27  1  0  0  0  0
 27 31  1  0  0  0  0
 28 27  2  0  0  0  0
 29 24  1  0  0  0  0
 30 25  1  0  0  0  0
 31 32  1  0  0  0  0
 33 31  1  0  0  0  0
 34 31  1  0  0  0  0
M  END
>  <minimizedAffinity>
-6.21524096

$$$$

 OpenBabel03272507083D

 34 37  0  0  0  0  0  0  0  0999 V2000
   39.5310   26.5900   31.7140 C   0  0  0  0  0  0  0  0  0  0  0  0
   39.4640   25.4370   32.5100 C   0  0  0  0  0  0  0  0  0  0  0  0
   38.3810   25.3410   33.3840 C   0  0  0  0  0  0  0  0  0  0  0  0
   37.4680   26.3380   33.4240 N   0  0  0  0  0  0  0  0  0  0  0  0
   37.5660   27.4300   32.6450 C   0  0  0  0  0  0  0  0  0  0  0  0
   38.5900   27.5610   31.7920 N   0  0  0  0  0  0  0  0  0  0  0  0
   40.3540   26.6930   31.0290 H   0  0  0  0  0  0  0  0  0  0  0  0
   40.1720   24.6460   32.4890 H   0  0  0  0  0  0  0  0  0  0  0  0
   35.9740   28.7210   33.9830 C   0  0  0  0  0  0  0  0  0  0  0  0
   36.5320   28.4680   32.7510 C   0  0  0  0  0  0  0  0  0  0  0  0
   36.1360   29.1660   31.6430 C   0  0  0  0  0  0  0  0  0  0  0  0
   35.1650   30.1370   31.7470 C   0  0  0  0  0  0  0  0  0  0  0  0
   34.6030   30.9590   30.8240 N   0  0  0  0  0  0  0  0  0  0  0  0
   33.7080   31.6970   31.5290 C   0  0  0  0  0  0  0  0  0  0  0  0
   33.7230   31.3430   32.8270 N   0  0  0  0  0  0  0  0  0  0  0  0
   34.6280   30.3660   32.9950 C   0  0  0  0  0  0  0  0  0  0  0  0
   34.9940   29.6940   34.1240 C   0  0  0  0  0  0  0  0  0  0  0  0
   36.3210   28.1440   34.8280 H   0  0  0  0  0  0  0  0  0  0  0  0
   36.5780   28.9600   30.6810 H   0  0  0  0  0  0  0  0  0  0  0  0
   34.8620   30.9540   29.8130 H   0  0  0  0  0  0  0  0  0  0  0  0
   33.1130   32.4400   31.0330 H   0  0  0  0  0  0  0  0  0  0  0  0
   34.5620   29.8830   35.1090 H   0  0  0  0  0  0  0  0  0  0  0  0
   38.1570   24.2170   34.2780 C   0  0  0  0  0  0  0  0  0  0  0  0
   37.8130   22.9580   33.8650 C   0  0  0  0  0  0  0  0  0  0  0  0
   37.5940   21.8740   34.6880 C   0  0  0  0  0  0  0  0  0  0  0  0
   37.7360   22.0890   36.0150 N   0  0  0  0  0  0  0  0  0  0  0  0
   38.0710   23.3020   36.4560 C   0  0  0  0  0  0  0  0  0  0  0  0
   38.2720   24.3160   35.6340 N   0  0  0  0  0  0  0  0  0  0  0  0
   37.6950   22.7710   32.7950 H   0  0  0  0  0  0  0  0  0  0  0  0
   37.3250   20.8960   34.3590 H   0  0  0  0  0  0  0  0  0  0  0  0
   38.2440   23.6020   37.9170 C   0  0  0  0  0  0  0  0  0  0  0  0
   38.0370   24.9390   38.1770 F   0  0  0  0  0  0  0  0  0  0  0  0
   37.2890   22.8950   38.6270 F   0  0  0  0  0  0  0  0  0  0  0  0
   39.5410   23.2870   38.3200 F   0  0  0  0  0  0  0  0  0  0  0  0
  1  6  2  0  0  0  0
  1  2  1  0  0  0  0
  2  3  2  0  0  0  0
  3  4  1  0  0  0  0
  3 23  1  0  0  0  0
  5 10  1  0  0  0  0
  5  4  2  0  0  0  0
  6  5  1  0  0  0  0
  7  1  1  0  0  0  0
  8  2  1  0  0  0  0
  9 17  1  0  0  0  0
  9 18  1  0  0  0  0
 10  9  2  0  0  0  0
 11 12  2  0  0  0  0
 11 10  1  0  0  0  0
 12 16  1  0  0  0  0
 13 14  1  0  0  0  0
 13 12  1  0  0  0  0
 14 15  2  0  0  0  0
 15 16  1  0  0  0  0
 16 17  2  0  0  0  0
 17 22  1  0  0  0  0
 19 11  1  0  0  0  0
 20 13  1  0  0  0  0
 21 14  1  0  0  0  0
 23 28  1  0  0  0  0
 24 23  2  0  0  0  0
 24 25  1  0  0  0  0
 25 26  2  0  0  0  0
 26 27  1  0  0  0  0
 27 31  1  0  0  0  0
 28 27  2  0  0  0  0
 29 24  1  0  0  0  0
 30 25  1  0  0  0  0
 31 32  1  0  0  0  0
 31 34  1  0  0  0  0
 31 33  1  0  0  0  0
M  END
>  <minimizedAffinity>
-6.19283962

$$$$

 OpenBabel03272507083D

 34 37  0  0  0  0  0  0  0  0999 V2000
   37.2760   22.2320   32.3840 C   0  0  0  0  0  0  0  0  0  0  0  0
   37.8980   21.9290   33.6040 C   0  0  0  0  0  0  0  0  0  0  0  0
   38.2720   23.0100   34.4030 C   0  0  0  0  0  0  0  0  0  0  0  0
   38.0230   24.2690   33.9760 N   0  0  0  0  0  0  0  0  0  0  0  0
   37.4230   24.5210   32.7990 C   0  0  0  0  0  0  0  0  0  0  0  0
   37.0500   23.5120   32.0030 N   0  0  0  0  0  0  0  0  0  0  0  0
   36.9760   21.4190   31.7460 H   0  0  0  0  0  0  0  0  0  0  0  0
   38.1000   20.9470   33.9520 H   0  0  0  0  0  0  0  0  0  0  0  0
   36.9770   26.8530   33.3980 C   0  0  0  0  0  0  0  0  0  0  0  0
   37.1910   25.9180   32.4090 C   0  0  0  0  0  0  0  0  0  0  0  0
   37.1890   26.2780   31.0900 C   0  0  0  0  0  0  0  0  0  0  0  0
   36.9700   27.5890   30.7290 C   0  0  0  0  0  0  0  0  0  0  0  0
   36.9180   28.1990   29.5180 N   0  0  0  0  0  0  0  0  0  0  0  0
   36.6710   29.5020   29.8070 C   0  0  0  0  0  0  0  0  0  0  0  0
   36.5760   29.6810   31.1360 N   0  0  0  0  0  0  0  0  0  0  0  0
   36.7590   28.4980   31.7430 C   0  0  0  0  0  0  0  0  0  0  0  0
   36.7530   28.1830   33.0690 C   0  0  0  0  0  0  0  0  0  0  0  0
   36.9880   26.5190   34.4250 H   0  0  0  0  0  0  0  0  0  0  0  0
   37.3570   25.5390   30.3230 H   0  0  0  0  0  0  0  0  0  0  0  0
   37.0500   27.6960   28.6130 H   0  0  0  0  0  0  0  0  0  0  0  0
   36.5780   30.2210   29.0140 H   0  0  0  0  0  0  0  0  0  0  0  0
   36.5860   28.9110   33.8650 H   0  0  0  0  0  0  0  0  0  0  0  0
   38.9250   22.8770   35.6950 C   0  0  0  0  0  0  0  0  0  0  0  0
   38.4040   23.3380   36.8740 C   0  0  0  0  0  0  0  0  0  0  0  0
   39.0000   23.2270   38.1130 C   0  0  0  0  0  0  0  0  0  0  0  0
   40.2010   22.6070   38.1490 N   0  0  0  0  0  0  0  0  0  0  0  0
   40.7400   22.1450   37.0200 C   0  0  0  0  0  0  0  0  0  0  0  0
   40.1370   22.2720   35.8520 N   0  0  0  0  0  0  0  0  0  0  0  0
   37.4340   23.8400   36.8590 H   0  0  0  0  0  0  0  0  0  0  0  0
   38.5890   23.5880   39.0280 H   0  0  0  0  0  0  0  0  0  0  0  0
   42.0710   21.4490   36.9970 C   0  0  0  0  0  0  0  0  0  0  0  0
   42.1770   20.6200   35.9020 F   0  0  0  0  0  0  0  0  0  0  0  0
   43.0650   22.4050   36.8850 F   0  0  0  0  0  0  0  0  0  0  0  0
   42.2190   20.6640   38.1390 F   0  0  0  0  0  0  0  0  0  0  0  0
  1  2  1  0  0  0  0
  2  8  1  0  0  0  0
  2  3  2  0  0  0  0
  3 23  1  0  0  0  0
  4  3  1  0  0  0  0
  5  4  2  0  0  0  0
  6  1  2  0  0  0  0
  6  5  1  0  0  0  0
  7  1  1  0  0  0  0
  9 18  1  0  0  0  0
 10  5  1  0  0  0  0
 10  9  2  0  0  0  0
 11 10  1  0  0  0  0
 12 11  2  0  0  0  0
 12 16  1  0  0  0  0
 13 14  1  0  0  0  0
 13 12  1  0  0  0  0
 14 15  2  0  0  0  0
 15 16  1  0  0  0  0
 16 17  2  0  0  0  0
 17  9  1  0  0  0  0
 17 22  1  0  0  0  0
 19 11  1  0  0  0  0
 20 13  1  0  0  0  0
 21 14  1  0  0  0  0
 23 28  2  0  0  0  0
 23 24  1  0  0  0  0
 24 25  2  0  0  0  0
 25 26  1  0  0  0  0
 25 30  1  0  0  0  0
 27 26  2  0  0  0  0
 28 27  1  0  0  0  0
 29 24  1  0  0  0  0
 31 27  1  0  0  0  0
 31 34  1  0  0  0  0
 32 31  1  0  0  0  0
 33 31  1  0  0  0  0
M  END
>  <minimizedAffinity>
-6.11211872

$$$$

 OpenBabel03272507083D

 34 37  0  0  0  0  0  0  0  0999 V2000
   36.4500   28.9120   31.7280 C   0  0  0  0  0  0  0  0  0  0  0  0
   35.8380   29.8610   32.5620 C   0  0  0  0  0  0  0  0  0  0  0  0
   35.7600   29.5450   33.9190 C   0  0  0  0  0  0  0  0  0  0  0  0
   36.2650   28.3690   34.3580 N   0  0  0  0  0  0  0  0  0  0  0  0
   36.8450   27.4840   33.5270 C   0  0  0  0  0  0  0  0  0  0  0  0
   36.9400   27.7500   32.2190 N   0  0  0  0  0  0  0  0  0  0  0  0
   36.5260   29.1280   30.6770 H   0  0  0  0  0  0  0  0  0  0  0  0
   35.4380   30.7870   32.2320 H   0  0  0  0  0  0  0  0  0  0  0  0
   37.7320   25.2230   33.2200 C   0  0  0  0  0  0  0  0  0  0  0  0
   37.3680   26.2300   34.0850 C   0  0  0  0  0  0  0  0  0  0  0  0
   37.4880   26.0720   35.4380 C   0  0  0  0  0  0  0  0  0  0  0  0
   37.9780   24.8930   35.9570 C   0  0  0  0  0  0  0  0  0  0  0  0
   38.1940   24.4860   37.2340 N   0  0  0  0  0  0  0  0  0  0  0  0
   38.6890   23.2290   37.1080 C   0  0  0  0  0  0  0  0  0  0  0  0
   38.7720   22.8820   35.8110 N   0  0  0  0  0  0  0  0  0  0  0  0
   38.3330   23.9070   35.0640 C   0  0  0  0  0  0  0  0  0  0  0  0
   38.2300   24.0220   33.7090 C   0  0  0  0  0  0  0  0  0  0  0  0
   37.6180   25.3970   32.1600 H   0  0  0  0  0  0  0  0  0  0  0  0
   37.2000   26.8660   36.1090 H   0  0  0  0  0  0  0  0  0  0  0  0
   37.9930   25.0770   38.0700 H   0  0  0  0  0  0  0  0  0  0  0  0
   38.9510   22.6620   37.9820 H   0  0  0  0  0  0  0  0  0  0  0  0
   38.5140   23.2350   33.0090 H   0  0  0  0  0  0  0  0  0  0  0  0
   35.1600   30.4100   34.9200 C   0  0  0  0  0  0  0  0  0  0  0  0
   35.8260   31.4130   35.5720 C   0  0  0  0  0  0  0  0  0  0  0  0
   35.2840   32.2500   36.5260 C   0  0  0  0  0  0  0  0  0  0  0  0
   33.9830   32.0480   36.8320 N   0  0  0  0  0  0  0  0  0  0  0  0
   33.3010   31.0800   36.2180 C   0  0  0  0  0  0  0  0  0  0  0  0
   33.8570   30.2990   35.3090 N   0  0  0  0  0  0  0  0  0  0  0  0
   36.8770   31.5870   35.3330 H   0  0  0  0  0  0  0  0  0  0  0  0
   35.8080   33.0290   37.0300 H   0  0  0  0  0  0  0  0  0  0  0  0
   31.8550   30.8080   36.5160 C   0  0  0  0  0  0  0  0  0  0  0  0
   31.2360   31.9250   37.0330 F   0  0  0  0  0  0  0  0  0  0  0  0
   31.2130   30.4970   35.3300 F   0  0  0  0  0  0  0  0  0  0  0  0
   31.7450   29.7880   37.4590 F   0  0  0  0  0  0  0  0  0  0  0  0
  1  6  2  0  0  0  0
  1  2  1  0  0  0  0
  2  3  2  0  0  0  0
  3  4  1  0  0  0  0
  3 23  1  0  0  0  0
  5 10  1  0  0  0  0
  5  4  2  0  0  0  0
  6  5  1  0  0  0  0
  7  1  1  0  0  0  0
  8  2  1  0  0  0  0
  9 17  2  0  0  0  0
  9 10  1  0  0  0  0
 10 11  2  0  0  0  0
 11 12  1  0  0  0  0
 11 19  1  0  0  0  0
 12 13  1  0  0  0  0
 13 20  1  0  0  0  0
 14 13  1  0  0  0  0
 14 21  1  0  0  0  0
 15 14  2  0  0  0  0
 16 15  1  0  0  0  0
 16 12  2  0  0  0  0
 17 16  1  0  0  0  0
 18  9  1  0  0  0  0
 22 17  1  0  0  0  0
 23 28  2  0  0  0  0
 23 24  1  0  0  0  0
 24 25  2  0  0  0  0
 25 26  1  0  0  0  0
 25 30  1  0  0  0  0
 27 31  1  0  0  0  0
 27 26  2  0  0  0  0
 28 27  1  0  0  0  0
 29 24  1  0  0  0  0
 31 32  1  0  0  0  0
 31 34  1  0  0  0  0
 33 31  1  0  0  0  0
M  END
>  <minimizedAffinity>
-6.07964468

$$$$

 OpenBabel03272507083D

 34 37  0  0  0  0  0  0  0  0999 V2000
   38.6480   25.0210   31.6510 C   0  0  0  0  0  0  0  0  0  0  0  0
   38.9610   24.3340   32.8330 C   0  0  0  0  0  0  0  0  0  0  0  0
   38.4870   24.8850   34.0230 C   0  0  0  0  0  0  0  0  0  0  0  0
   37.7630   26.0280   33.9850 N   0  0  0  0  0  0  0  0  0  0  0  0
   37.4810   26.6590   32.8310 C   0  0  0  0  0  0  0  0  0  0  0  0
   37.9190   26.1620   31.6670 N   0  0  0  0  0  0  0  0  0  0  0  0
   39.0000   24.6200   30.7170 H   0  0  0  0  0  0  0  0  0  0  0  0
   39.5280   23.4370   32.8790 H   0  0  0  0  0  0  0  0  0  0  0  0
   36.2940   28.3810   34.1030 C   0  0  0  0  0  0  0  0  0  0  0  0
   36.6900   27.8950   32.8770 C   0  0  0  0  0  0  0  0  0  0  0  0
   36.3570   28.5470   31.7220 C   0  0  0  0  0  0  0  0  0  0  0  0
   35.6140   29.7060   31.7690 C   0  0  0  0  0  0  0  0  0  0  0  0
   35.1580   30.5310   30.7930 N   0  0  0  0  0  0  0  0  0  0  0  0
   34.4900   31.5060   31.4590 C   0  0  0  0  0  0  0  0  0  0  0  0
   34.5350   31.2880   32.7860 N   0  0  0  0  0  0  0  0  0  0  0  0
   35.2350   30.1640   33.0120 C   0  0  0  0  0  0  0  0  0  0  0  0
   35.5450   29.5470   34.1870 C   0  0  0  0  0  0  0  0  0  0  0  0
   36.5830   27.8300   34.9860 H   0  0  0  0  0  0  0  0  0  0  0  0
   36.6710   28.1590   30.7650 H   0  0  0  0  0  0  0  0  0  0  0  0
   35.3300   30.3720   29.7760 H   0  0  0  0  0  0  0  0  0  0  0  0
   34.0190   32.3040   30.9170 H   0  0  0  0  0  0  0  0  0  0  0  0
   35.2400   29.9190   35.1670 H   0  0  0  0  0  0  0  0  0  0  0  0
   38.7180   24.3050   35.3360 C   0  0  0  0  0  0  0  0  0  0  0  0
   37.8840   24.4660   36.4090 C   0  0  0  0  0  0  0  0  0  0  0  0
   38.0770   23.9290   37.6650 C   0  0  0  0  0  0  0  0  0  0  0  0
   39.1910   23.1820   37.8340 N   0  0  0  0  0  0  0  0  0  0  0  0
   40.0280   23.0030   36.8110 C   0  0  0  0  0  0  0  0  0  0  0  0
   39.8070   23.5350   35.6220 N   0  0  0  0  0  0  0  0  0  0  0  0
   36.9800   25.0670   36.2860 H   0  0  0  0  0  0  0  0  0  0  0  0
   37.4230   24.0590   38.4970 H   0  0  0  0  0  0  0  0  0  0  0  0
   41.2810   22.1850   36.9370 C   0  0  0  0  0  0  0  0  0  0  0  0
   41.4530   21.3680   35.8410 F   0  0  0  0  0  0  0  0  0  0  0  0
   42.3650   23.0440   36.9820 F   0  0  0  0  0  0  0  0  0  0  0  0
   41.2070   21.3690   38.0660 F   0  0  0  0  0  0  0  0  0  0  0  0
  1  6  2  0  0  0  0
  1  2  1  0  0  0  0
  2  8  1  0  0  0  0
  2  3  2  0  0  0  0
  3 23  1  0  0  0  0
  4  3  1  0  0  0  0
  5 10  1  0  0  0  0
  5  4  2  0  0  0  0
  6  5  1  0  0  0  0
  7  1  1  0  0  0  0
  9 17  1  0  0  0  0
  9 18  1  0  0  0  0
 10  9  2  0  0  0  0
 11 12  2  0  0  0  0
 11 10  1  0  0  0  0
 12 16  1  0  0  0  0
 13 14  1  0  0  0  0
 13 12  1  0  0  0  0
 14 15  2  0  0  0  0
 15 16  1  0  0  0  0
 16 17  2  0  0  0  0
 17 22  1  0  0  0  0
 19 11  1  0  0  0  0
 20 13  1  0  0  0  0
 21 14  1  0  0  0  0
 23 28  2  0  0  0  0
 23 24  1  0  0  0  0
 24 25  2  0  0  0  0
 25 26  1  0  0  0  0
 25 30  1  0  0  0  0
 27 31  1  0  0  0  0
 27 26  2  0  0  0  0
 28 27  1  0  0  0  0
 29 24  1  0  0  0  0
 31 33  1  0  0  0  0
 31 34  1  0  0  0  0
 32 31  1  0  0  0  0
M  END
>  <minimizedAffinity>
-6.05408478

$$$$

 OpenBabel03272507083D

 34 37  0  0  0  0  0  0  0  0999 V2000
   36.4780   29.1780   31.1360 C   0  0  0  0  0  0  0  0  0  0  0  0
   35.5270   30.0820   31.6330 C   0  0  0  0  0  0  0  0  0  0  0  0
   35.2020   29.9680   32.9850 C   0  0  0  0  0  0  0  0  0  0  0  0
   35.8030   29.0170   33.7360 N   0  0  0  0  0  0  0  0  0  0  0  0
   36.7110   28.1670   33.2230 C   0  0  0  0  0  0  0  0  0  0  0  0
   37.0510   28.2430   31.9300 N   0  0  0  0  0  0  0  0  0  0  0  0
   36.7500   29.2410   30.0970 H   0  0  0  0  0  0  0  0  0  0  0  0
   35.0470   30.8330   31.0570 H   0  0  0  0  0  0  0  0  0  0  0  0
   37.7630   27.5570   35.3480 C   0  0  0  0  0  0  0  0  0  0  0  0
   37.3170   27.1620   34.1070 C   0  0  0  0  0  0  0  0  0  0  0  0
   37.4310   25.8620   33.7000 C   0  0  0  0  0  0  0  0  0  0  0  0
   38.0000   24.9230   34.5310 C   0  0  0  0  0  0  0  0  0  0  0  0
   38.2290   23.5940   34.3750 N   0  0  0  0  0  0  0  0  0  0  0  0
   38.8150   23.2140   35.5390 C   0  0  0  0  0  0  0  0  0  0  0  0
   38.9380   24.2630   36.3710 N   0  0  0  0  0  0  0  0  0  0  0  0
   38.4350   25.3510   35.7660 C   0  0  0  0  0  0  0  0  0  0  0  0
   38.3400   26.6360   36.2120 C   0  0  0  0  0  0  0  0  0  0  0  0
   37.6490   28.5950   35.6230 H   0  0  0  0  0  0  0  0  0  0  0  0
   37.0790   25.5620   32.7250 H   0  0  0  0  0  0  0  0  0  0  0  0
   37.9770   23.0630   33.5130 H   0  0  0  0  0  0  0  0  0  0  0  0
   39.1070   22.1910   35.6860 H   0  0  0  0  0  0  0  0  0  0  0  0
   38.6880   26.9660   37.1930 H   0  0  0  0  0  0  0  0  0  0  0  0
   34.2390   30.8210   33.6630 C   0  0  0  0  0  0  0  0  0  0  0  0
   33.1850   31.4380   33.0450 C   0  0  0  0  0  0  0  0  0  0  0  0
   32.2570   32.2510   33.6610 C   0  0  0  0  0  0  0  0  0  0  0  0
   32.4170   32.4460   34.9890 N   0  0  0  0  0  0  0  0  0  0  0  0
   33.4320   31.8610   35.6260 C   0  0  0  0  0  0  0  0  0  0  0  0
   34.3010   31.0880   34.9990 N   0  0  0  0  0  0  0  0  0  0  0  0
   33.0450   31.2890   31.9720 H   0  0  0  0  0  0  0  0  0  0  0  0
   31.4390   32.7300   33.1740 H   0  0  0  0  0  0  0  0  0  0  0  0
   33.6610   32.0400   37.0990 C   0  0  0  0  0  0  0  0  0  0  0  0
   32.9980   31.0740   37.8250 F   0  0  0  0  0  0  0  0  0  0  0  0
   35.0120   31.8880   37.3560 F   0  0  0  0  0  0  0  0  0  0  0  0
   33.1810   33.2830   37.5100 F   0  0  0  0  0  0  0  0  0  0  0  0
  1  2  2  0  0  0  0
  1  6  1  0  0  0  0
  2  3  1  0  0  0  0
  3 23  1  0  0  0  0
  3  4  2  0  0  0  0
  5  4  1  0  0  0  0
  5 10  1  0  0  0  0
  6  5  2  0  0  0  0
  7  1  1  0  0  0  0
  8  2  1  0  0  0  0
  9 18  1  0  0  0  0
  9 17  1  0  0  0  0
 10  9  2  0  0  0  0
 11 10  1  0  0  0  0
 11 12  2  0  0  0  0
 12 16  1  0  0  0  0
 13 12  1  0  0  0  0
 13 14  1  0  0  0  0
 14 21  1  0  0  0  0
 14 15  2  0  0  0  0
 16 17  2  0  0  0  0
 16 15  1  0  0  0  0
 17 22  1  0  0  0  0
 19 11  1  0  0  0  0
 20 13  1  0  0  0  0
 23 28  1  0  0  0  0
 24 25  1  0  0  0  0
 24 23  2  0  0  0  0
 25 26  2  0  0  0  0
 26 27  1  0  0  0  0
 27 31  1  0  0  0  0
 28 27  2  0  0  0  0
 29 24  1  0  0  0  0
 30 25  1  0  0  0  0
 31 33  1  0  0  0  0
 31 34  1  0  0  0  0
 31 32  1  0  0  0  0
M  END
>  <minimizedAffinity>
-6.0302

$$$$
