
 OpenBabel03272502363D

 31 32  0  0  1  0  0  0  0  0999 V2000
   39.5380   22.5390   36.2220 C   0  0  2  0  0  0  0  0  0  0  0  0
   39.5950   21.6990   36.9500 H   0  0  0  0  0  0  0  0  0  0  0  0
   40.8500   23.1180   35.8880 C   0  0  0  0  0  0  0  0  0  0  0  0
   41.8890   22.6830   36.7560 C   0  0  0  0  0  0  0  0  0  0  0  0
   43.1960   23.0890   36.6400 C   0  0  0  0  0  0  0  0  0  0  0  0
   43.5830   23.9830   35.6260 C   0  0  0  0  0  0  0  0  0  0  0  0
   42.5090   24.3570   34.8250 C   0  0  0  0  0  0  0  0  0  0  0  0
   41.2270   23.9770   34.9150 N   0  0  0  0  0  0  0  0  0  0  0  0
   41.8450   21.9940   37.6120 H   0  0  0  0  0  0  0  0  0  0  0  0
   44.0290   22.7960   37.2640 H   0  0  0  0  0  0  0  0  0  0  0  0
   44.5300   24.3970   35.3910 H   0  0  0  0  0  0  0  0  0  0  0  0
   42.6500   25.0490   33.9930 H   0  0  0  0  0  0  0  0  0  0  0  0
   37.8760   22.6550   34.5010 C   0  0  0  0  0  3  0  0  0  0  0  0
   38.8940   22.0110   34.9710 C   0  0  0  0  0  3  0  0  0  0  0  0
   36.5330   22.7070   31.0260 C   0  0  0  0  0  0  0  0  0  0  0  0
   37.1790   23.0540   32.2010 C   0  0  0  0  0  0  0  0  0  0  0  0
   37.1920   22.2380   33.3020 C   0  0  0  0  0  0  0  0  0  0  0  0
   36.5360   21.0610   33.1960 N   0  0  0  0  0  0  0  0  0  0  0  0
   35.9070   20.7090   32.0690 C   0  0  0  0  0  0  0  0  0  0  0  0
   35.8990   21.5150   30.9900 N   0  0  0  0  0  0  0  0  0  0  0  0
   36.4990   23.3160   30.1400 H   0  0  0  0  0  0  0  0  0  0  0  0
   37.6470   24.0110   32.1200 H   0  0  0  0  0  0  0  0  0  0  0  0
   35.2200   19.3900   32.0680 C   0  0  0  0  0  0  0  0  0  0  0  0
   33.8470   19.5770   31.9990 F   0  0  0  0  0  0  0  0  0  0  0  0
   35.4720   18.8470   33.3340 F   0  0  0  0  0  0  0  0  0  0  0  0
   35.6650   18.5530   31.0640 F   0  0  0  0  0  0  0  0  0  0  0  0
   38.5100   23.9260   36.8110 S   0  0  0  0  0  0  0  0  0  0  0  0
   38.3370   23.8900   38.5850 C   0  0  0  0  0  0  0  0  0  0  0  0
   39.4990   23.5120   39.2400 F   0  0  0  0  0  0  0  0  0  0  0  0
   37.8370   25.0830   39.0740 F   0  0  0  0  0  0  0  0  0  0  0  0
   37.3500   22.9210   38.8650 F   0  0  0  0  0  0  0  0  0  0  0  0
  1 27  1  0  0  0  0
  1  2  1  1  0  0  0
  3  1  1  0  0  0  0
  3  4  1  0  0  0  0
  4  9  1  0  0  0  0
  5  4  2  0  0  0  0
  5 10  1  0  0  0  0
  6  5  1  0  0  0  0
  7  8  1  0  0  0  0
  7  6  2  0  0  0  0
  8  3  2  0  0  0  0
 11  6  1  0  0  0  0
 12  7  1  0  0  0  0
 13 14  2  0  0  0  0
 14  1  1  0  0  0  0
 15 16  1  0  0  0  0
 16 17  2  0  0  0  0
 17 13  1  0  0  0  0
 18 17  1  0  0  0  0
 19 18  2  0  0  0  0
 20 15  2  0  0  0  0
 20 19  1  0  0  0  0
 21 15  1  0  0  0  0
 22 16  1  0  0  0  0
 23 19  1  0  0  0  0
 23 25  1  0  0  0  0
 24 23  1  0  0  0  0
 26 23  1  0  0  0  0
 27 28  1  0  0  0  0
 28 31  1  0  0  0  0
 28 30  1  0  0  0  0
 28 29  1  0  0  0  0
M  END
>  <minimizedAffinity>
-5.6832943

$$$$

 OpenBabel03272502363D

 31 32  0  0  1  0  0  0  0  0999 V2000
   39.6290   23.2480   35.9200 C   0  0  2  0  0  0  0  0  0  0  0  0
   40.3260   22.7550   36.6350 H   0  0  0  0  0  0  0  0  0  0  0  0
   40.1600   24.4990   35.3500 C   0  0  0  0  0  0  0  0  0  0  0  0
   39.2330   25.5750   35.4080 C   0  0  0  0  0  0  0  0  0  0  0  0
   39.5050   26.8370   34.9370 C   0  0  0  0  0  0  0  0  0  0  0  0
   40.7510   27.1350   34.3580 C   0  0  0  0  0  0  0  0  0  0  0  0
   41.5940   26.0290   34.3420 C   0  0  0  0  0  0  0  0  0  0  0  0
   41.3560   24.7890   34.7930 N   0  0  0  0  0  0  0  0  0  0  0  0
   38.2100   25.5990   35.8090 H   0  0  0  0  0  0  0  0  0  0  0  0
   38.8470   27.6950   34.9520 H   0  0  0  0  0  0  0  0  0  0  0  0
   41.1280   28.0370   33.9490 H   0  0  0  0  0  0  0  0  0  0  0  0
   42.5990   26.1020   33.9220 H   0  0  0  0  0  0  0  0  0  0  0  0
   38.2380   22.3990   34.1650 C   0  0  0  0  0  3  0  0  0  0  0  0
   39.3520   22.2740   34.8110 C   0  0  0  0  0  3  0  0  0  0  0  0
   38.3840   20.6170   30.8970 C   0  0  0  0  0  0  0  0  0  0  0  0
   38.6830   21.4370   31.9720 C   0  0  0  0  0  0  0  0  0  0  0  0
   37.8790   21.5220   33.0780 C   0  0  0  0  0  0  0  0  0  0  0  0
   36.7630   20.7610   33.0800 N   0  0  0  0  0  0  0  0  0  0  0  0
   36.4580   19.9620   32.0510 C   0  0  0  0  0  0  0  0  0  0  0  0
   37.2530   19.8830   30.9670 N   0  0  0  0  0  0  0  0  0  0  0  0
   38.9870   20.5210   30.0110 H   0  0  0  0  0  0  0  0  0  0  0  0
   39.5960   21.9690   31.8140 H   0  0  0  0  0  0  0  0  0  0  0  0
   35.2040   19.1710   32.1640 C   0  0  0  0  0  0  0  0  0  0  0  0
   35.1460   18.5590   33.4080 F   0  0  0  0  0  0  0  0  0  0  0  0
   35.3430   18.1340   31.2310 F   0  0  0  0  0  0  0  0  0  0  0  0
   34.0720   19.9200   31.9170 F   0  0  0  0  0  0  0  0  0  0  0  0
   38.0240   23.6800   36.6720 S   0  0  0  0  0  0  0  0  0  0  0  0
   38.1370   23.7210   38.4510 C   0  0  0  0  0  0  0  0  0  0  0  0
   37.8720   24.9720   38.9860 F   0  0  0  0  0  0  0  0  0  0  0  0
   37.3600   22.7370   39.0350 F   0  0  0  0  0  0  0  0  0  0  0  0
   39.4720   23.3900   38.7680 F   0  0  0  0  0  0  0  0  0  0  0  0
  1  2  1  1  0  0  0
  1 27  1  0  0  0  0
  3  4  1  0  0  0  0
  3  1  1  0  0  0  0
  4  9  1  0  0  0  0
  5 10  1  0  0  0  0
  5  4  2  0  0  0  0
  6  5  1  0  0  0  0
  7  6  2  0  0  0  0
  7  8  1  0  0  0  0
  8  3  2  0  0  0  0
 11  6  1  0  0  0  0
 12  7  1  0  0  0  0
 13 14  2  0  0  0  0
 14  1  1  0  0  0  0
 15 20  2  0  0  0  0
 15 16  1  0  0  0  0
 16 17  2  0  0  0  0
 17 18  1  0  0  0  0
 17 13  1  0  0  0  0
 19 23  1  0  0  0  0
 19 18  2  0  0  0  0
 20 19  1  0  0  0  0
 21 15  1  0  0  0  0
 22 16  1  0  0  0  0
 23 24  1  0  0  0  0
 25 23  1  0  0  0  0
 26 23  1  0  0  0  0
 27 28  1  0  0  0  0
 28 31  1  0  0  0  0
 28 29  1  0  0  0  0
 28 30  1  0  0  0  0
M  END
>  <minimizedAffinity>
-5.5605011

$$$$

 OpenBabel03272502363D

 31 32  0  0  1  0  0  0  0  0999 V2000
   37.4450   22.8380   31.8900 C   0  0  2  0  0  0  0  0  0  0  0  0
   38.3080   22.9520   31.1970 H   0  0  0  0  0  0  0  0  0  0  0  0
   36.8190   21.5060   31.8330 C   0  0  0  0  0  0  0  0  0  0  0  0
   35.4570   21.5130   32.2410 C   0  0  0  0  0  0  0  0  0  0  0  0
   34.6680   20.3880   32.2710 C   0  0  0  0  0  0  0  0  0  0  0  0
   35.1840   19.1380   31.8880 C   0  0  0  0  0  0  0  0  0  0  0  0
   36.5180   19.2210   31.5060 C   0  0  0  0  0  0  0  0  0  0  0  0
   37.3110   20.3020   31.4660 N   0  0  0  0  0  0  0  0  0  0  0  0
   34.8300   22.3500   32.5790 H   0  0  0  0  0  0  0  0  0  0  0  0
   33.6300   20.3260   32.5690 H   0  0  0  0  0  0  0  0  0  0  0  0
   34.7280   18.1820   31.8500 H   0  0  0  0  0  0  0  0  0  0  0  0
   37.0610   18.3310   31.1820 H   0  0  0  0  0  0  0  0  0  0  0  0
   38.8190   22.2730   33.7690 C   0  0  0  0  0  3  0  0  0  0  0  0
   37.9450   23.0940   33.2830 C   0  0  0  0  0  3  0  0  0  0  0  0
   41.2180   22.1230   36.6160 C   0  0  0  0  0  0  0  0  0  0  0  0
   40.6410   22.0000   35.3620 C   0  0  0  0  0  0  0  0  0  0  0  0
   39.3700   22.4330   35.0920 C   0  0  0  0  0  0  0  0  0  0  0  0
   38.6870   22.9950   36.1140 N   0  0  0  0  0  0  0  0  0  0  0  0
   39.2280   23.1230   37.3310 C   0  0  0  0  0  0  0  0  0  0  0  0
   40.4790   22.6950   37.5900 N   0  0  0  0  0  0  0  0  0  0  0  0
   42.2110   21.7970   36.8690 H   0  0  0  0  0  0  0  0  0  0  0  0
   41.3100   21.5370   34.6690 H   0  0  0  0  0  0  0  0  0  0  0  0
   38.3840   23.7570   38.3780 C   0  0  0  0  0  0  0  0  0  0  0  0
   39.1020   23.8570   39.5610 F   0  0  0  0  0  0  0  0  0  0  0  0
   37.3580   22.8350   38.6260 F   0  0  0  0  0  0  0  0  0  0  0  0
   37.8770   24.9810   37.9910 F   0  0  0  0  0  0  0  0  0  0  0  0
   36.1080   24.0370   31.5680 S   0  0  0  0  0  0  0  0  0  0  0  0
   36.7150   25.7120   31.6430 C   0  0  0  0  0  0  0  0  0  0  0  0
   38.0590   25.8200   31.3220 F   0  0  0  0  0  0  0  0  0  0  0  0
   35.9360   26.5710   30.8910 F   0  0  0  0  0  0  0  0  0  0  0  0
   36.5560   26.1290   32.9820 F   0  0  0  0  0  0  0  0  0  0  0  0
  1  2  1  6  0  0  0
  1 14  1  0  0  0  0
  3  1  1  0  0  0  0
  3  4  1  0  0  0  0
  4  5  2  0  0  0  0
  4  9  1  0  0  0  0
  5 10  1  0  0  0  0
  6  5  1  0  0  0  0
  7  6  2  0  0  0  0
  8  7  1  0  0  0  0
  8  3  2  0  0  0  0
 11  6  1  0  0  0  0
 12  7  1  0  0  0  0
 13 17  1  0  0  0  0
 14 13  2  0  0  0  0
 15 21  1  0  0  0  0
 15 20  1  0  0  0  0
 16 15  2  0  0  0  0
 17 16  1  0  0  0  0
 17 18  2  0  0  0  0
 18 19  1  0  0  0  0
 19 20  2  0  0  0  0
 19 23  1  0  0  0  0
 22 16  1  0  0  0  0
 23 25  1  0  0  0  0
 23 24  1  0  0  0  0
 26 23  1  0  0  0  0
 27 28  1  0  0  0  0
 27  1  1  0  0  0  0
 28 31  1  0  0  0  0
 29 28  1  0  0  0  0
 30 28  1  0  0  0  0
M  END
>  <minimizedAffinity>
-5.5598259

$$$$

 OpenBabel03272502363D

 31 32  0  0  1  0  0  0  0  0999 V2000
   37.1360   28.2600   32.7290 C   0  0  2  0  0  0  0  0  0  0  0  0
   37.7500   28.9210   33.3800 H   0  0  0  0  0  0  0  0  0  0  0  0
   37.5040   28.3310   31.3050 C   0  0  0  0  0  0  0  0  0  0  0  0
   38.7620   27.7320   31.0230 C   0  0  0  0  0  0  0  0  0  0  0  0
   39.3130   27.6790   29.7660 C   0  0  0  0  0  0  0  0  0  0  0  0
   38.6390   28.2300   28.6620 C   0  0  0  0  0  0  0  0  0  0  0  0
   37.4210   28.7930   29.0250 C   0  0  0  0  0  0  0  0  0  0  0  0
   36.8590   28.8590   30.2410 N   0  0  0  0  0  0  0  0  0  0  0  0
   39.4710   27.2390   31.7020 H   0  0  0  0  0  0  0  0  0  0  0  0
   40.2610   27.2400   29.4860 H   0  0  0  0  0  0  0  0  0  0  0  0
   38.9090   28.2780   27.6380 H   0  0  0  0  0  0  0  0  0  0  0  0
   36.7790   29.2620   28.2770 H   0  0  0  0  0  0  0  0  0  0  0  0
   37.7340   26.6840   34.4310 C   0  0  0  0  0  3  0  0  0  0  0  0
   37.3120   26.8500   33.2190 C   0  0  0  0  0  3  0  0  0  0  0  0
   38.2760   23.0060   34.6770 C   0  0  0  0  0  0  0  0  0  0  0  0
   38.0920   24.2870   34.1830 C   0  0  0  0  0  0  0  0  0  0  0  0
   37.9290   25.3740   35.0020 C   0  0  0  0  0  0  0  0  0  0  0  0
   37.9540   25.1440   36.3330 N   0  0  0  0  0  0  0  0  0  0  0  0
   38.1320   23.9130   36.8280 C   0  0  0  0  0  0  0  0  0  0  0  0
   38.2920   22.8490   36.0170 N   0  0  0  0  0  0  0  0  0  0  0  0
   38.4080   22.1280   34.0700 H   0  0  0  0  0  0  0  0  0  0  0  0
   38.0980   24.2980   33.1150 H   0  0  0  0  0  0  0  0  0  0  0  0
   38.1430   23.7800   38.3090 C   0  0  0  0  0  0  0  0  0  0  0  0
   37.9800   25.0290   38.8920 F   0  0  0  0  0  0  0  0  0  0  0  0
   39.4440   23.3720   38.6280 F   0  0  0  0  0  0  0  0  0  0  0  0
   37.2050   22.8810   38.7740 F   0  0  0  0  0  0  0  0  0  0  0  0
   35.3520   28.6370   32.8080 S   0  0  0  0  0  0  0  0  0  0  0  0
   34.9860   29.7310   34.1670 C   0  0  0  0  0  0  0  0  0  0  0  0
   34.7550   31.0390   33.7700 F   0  0  0  0  0  0  0  0  0  0  0  0
   33.9580   29.2430   34.9520 F   0  0  0  0  0  0  0  0  0  0  0  0
   36.1300   29.7280   34.9940 F   0  0  0  0  0  0  0  0  0  0  0  0
  1 27  1  0  0  0  0
  1 14  1  0  0  0  0
  1  2  1  1  0  0  0
  3  1  1  0  0  0  0
  4  3  1  0  0  0  0
  4  9  1  0  0  0  0
  5  4  2  0  0  0  0
  6  7  2  0  0  0  0
  6  5  1  0  0  0  0
  7  8  1  0  0  0  0
  8  3  2  0  0  0  0
 10  5  1  0  0  0  0
 11  6  1  0  0  0  0
 12  7  1  0  0  0  0
 13 17  1  0  0  0  0
 14 13  2  0  0  0  0
 15 20  1  0  0  0  0
 16 15  2  0  0  0  0
 16 17  1  0  0  0  0
 17 18  2  0  0  0  0
 18 19  1  0  0  0  0
 19 23  1  0  0  0  0
 20 19  2  0  0  0  0
 21 15  1  0  0  0  0
 22 16  1  0  0  0  0
 23 25  1  0  0  0  0
 23 26  1  0  0  0  0
 23 24  1  0  0  0  0
 27 28  1  0  0  0  0
 28 30  1  0  0  0  0
 28 31  1  0  0  0  0
 29 28  1  0  0  0  0
M  END
>  <minimizedAffinity>
-5.51904964

$$$$

 OpenBabel03272502363D

 31 32  0  0  1  0  0  0  0  0999 V2000
   39.1880   23.7810   36.1480 C   0  0  2  0  0  0  0  0  0  0  0  0
   38.7380   23.8490   37.1640 H   0  0  0  0  0  0  0  0  0  0  0  0
   40.4920   23.0960   36.1290 C   0  0  0  0  0  0  0  0  0  0  0  0
   40.6140   22.0990   37.1340 C   0  0  0  0  0  0  0  0  0  0  0  0
   41.7390   21.3310   37.3090 C   0  0  0  0  0  0  0  0  0  0  0  0
   42.8600   21.4970   36.4770 C   0  0  0  0  0  0  0  0  0  0  0  0
   42.6560   22.4900   35.5240 C   0  0  0  0  0  0  0  0  0  0  0  0
   41.5710   23.2530   35.3310 N   0  0  0  0  0  0  0  0  0  0  0  0
   39.8890   21.7810   37.8970 H   0  0  0  0  0  0  0  0  0  0  0  0
   41.8940   20.5590   38.0510 H   0  0  0  0  0  0  0  0  0  0  0  0
   43.7960   21.0010   36.4680 H   0  0  0  0  0  0  0  0  0  0  0  0
   43.4370   22.7370   34.8030 H   0  0  0  0  0  0  0  0  0  0  0  0
   38.1320   23.3950   34.0330 C   0  0  0  0  0  3  0  0  0  0  0  0
   38.2210   23.0360   35.2730 C   0  0  0  0  0  3  0  0  0  0  0  0
   35.8950   22.8460   31.1040 C   0  0  0  0  0  0  0  0  0  0  0  0
   36.7570   23.4240   32.0230 C   0  0  0  0  0  0  0  0  0  0  0  0
   37.2420   22.7400   33.1070 C   0  0  0  0  0  0  0  0  0  0  0  0
   36.8390   21.4590   33.2490 N   0  0  0  0  0  0  0  0  0  0  0  0
   36.0080   20.8840   32.3720 C   0  0  0  0  0  0  0  0  0  0  0  0
   35.5350   21.5610   31.3090 N   0  0  0  0  0  0  0  0  0  0  0  0
   35.4920   23.3470   30.2420 H   0  0  0  0  0  0  0  0  0  0  0  0
   36.9780   24.4370   31.7660 H   0  0  0  0  0  0  0  0  0  0  0  0
   35.6330   19.4680   32.6300 C   0  0  0  0  0  0  0  0  0  0  0  0
   34.4110   19.1910   32.0330 F   0  0  0  0  0  0  0  0  0  0  0  0
   35.4110   19.3960   34.0120 F   0  0  0  0  0  0  0  0  0  0  0  0
   36.6050   18.5740   32.2300 F   0  0  0  0  0  0  0  0  0  0  0  0
   39.4640   25.4120   35.3790 S   0  0  0  0  0  0  0  0  0  0  0  0
   38.2550   26.5990   35.9360 C   0  0  0  0  0  0  0  0  0  0  0  0
   37.0090   26.4230   35.3550 F   0  0  0  0  0  0  0  0  0  0  0  0
   38.1790   26.6390   37.3160 F   0  0  0  0  0  0  0  0  0  0  0  0
   38.7380   27.8660   35.5450 F   0  0  0  0  0  0  0  0  0  0  0  0
  1  2  1  1  0  0  0
  3  1  1  0  0  0  0
  3  4  1  0  0  0  0
  4  5  2  0  0  0  0
  4  9  1  0  0  0  0
  5 10  1  0  0  0  0
  6  5  1  0  0  0  0
  7  6  2  0  0  0  0
  8  7  1  0  0  0  0
  8  3  2  0  0  0  0
 11  6  1  0  0  0  0
 12  7  1  0  0  0  0
 13 14  2  0  0  0  0
 14  1  1  0  0  0  0
 15 20  2  0  0  0  0
 15 16  1  0  0  0  0
 16 17  2  0  0  0  0
 17 18  1  0  0  0  0
 17 13  1  0  0  0  0
 19 23  1  0  0  0  0
 19 18  2  0  0  0  0
 20 19  1  0  0  0  0
 21 15  1  0  0  0  0
 22 16  1  0  0  0  0
 23 25  1  0  0  0  0
 24 23  1  0  0  0  0
 26 23  1  0  0  0  0
 27 28  1  0  0  0  0
 27  1  1  0  0  0  0
 28 30  1  0  0  0  0
 29 28  1  0  0  0  0
 31 28  1  0  0  0  0
M  END
>  <minimizedAffinity>
-5.46325302

$$$$

 OpenBabel03272502363D

 31 32  0  0  1  0  0  0  0  0999 V2000
   38.1750   26.2770   33.0270 C   0  0  2  0  0  0  0  0  0  0  0  0
   39.2750   26.4460   32.9930 H   0  0  0  0  0  0  0  0  0  0  0  0
   37.3940   27.3790   32.4400 C   0  0  0  0  0  0  0  0  0  0  0  0
   37.9510   27.8760   31.2300 C   0  0  0  0  0  0  0  0  0  0  0  0
   37.3970   28.9020   30.5040 C   0  0  0  0  0  0  0  0  0  0  0  0
   36.2150   29.5310   30.9350 C   0  0  0  0  0  0  0  0  0  0  0  0
   35.7400   28.9860   32.1220 C   0  0  0  0  0  0  0  0  0  0  0  0
   36.2580   27.9870   32.8510 N   0  0  0  0  0  0  0  0  0  0  0  0
   38.8540   27.5570   30.6920 H   0  0  0  0  0  0  0  0  0  0  0  0
   37.7690   29.3240   29.5800 H   0  0  0  0  0  0  0  0  0  0  0  0
   35.6570   30.3240   30.5080 H   0  0  0  0  0  0  0  0  0  0  0  0
   34.8280   29.3690   32.5850 H   0  0  0  0  0  0  0  0  0  0  0  0
   37.8540   23.9050   32.9500 C   0  0  0  0  0  3  0  0  0  0  0  0
   37.8880   25.0080   32.2750 C   0  0  0  0  0  3  0  0  0  0  0  0
   37.9860   21.0820   30.5210 C   0  0  0  0  0  0  0  0  0  0  0  0
   38.2170   22.2870   31.1650 C   0  0  0  0  0  0  0  0  0  0  0  0
   37.5780   22.6340   32.3270 C   0  0  0  0  0  0  0  0  0  0  0  0
   36.6970   21.7400   32.8280 N   0  0  0  0  0  0  0  0  0  0  0  0
   36.4620   20.5720   32.2200 C   0  0  0  0  0  0  0  0  0  0  0  0
   37.0940   20.2370   31.0790 N   0  0  0  0  0  0  0  0  0  0  0  0
   38.4660   20.7720   29.6100 H   0  0  0  0  0  0  0  0  0  0  0  0
   38.9380   22.8770   30.6420 H   0  0  0  0  0  0  0  0  0  0  0  0
   35.4730   19.6670   32.8640 C   0  0  0  0  0  0  0  0  0  0  0  0
   34.2370   19.8110   32.2480 F   0  0  0  0  0  0  0  0  0  0  0  0
   35.3160   20.1650   34.1640 F   0  0  0  0  0  0  0  0  0  0  0  0
   35.8800   18.3480   32.8760 F   0  0  0  0  0  0  0  0  0  0  0  0
   37.5380   26.0550   34.7220 S   0  0  0  0  0  0  0  0  0  0  0  0
   38.3790   27.1280   35.8710 C   0  0  0  0  0  0  0  0  0  0  0  0
   38.2430   26.7290   37.1910 F   0  0  0  0  0  0  0  0  0  0  0  0
   39.7050   27.3090   35.5230 F   0  0  0  0  0  0  0  0  0  0  0  0
   37.7750   28.3960   35.7390 F   0  0  0  0  0  0  0  0  0  0  0  0
  1  2  1  1  0  0  0
  1 27  1  0  0  0  0
  3  8  1  0  0  0  0
  3  1  1  0  0  0  0
  4  3  2  0  0  0  0
  5  6  2  0  0  0  0
  5  4  1  0  0  0  0
  6  7  1  0  0  0  0
  7 12  1  0  0  0  0
  7  8  2  0  0  0  0
  9  4  1  0  0  0  0
 10  5  1  0  0  0  0
 11  6  1  0  0  0  0
 14 13  2  0  0  0  0
 14  1  1  0  0  0  0
 15 20  2  0  0  0  0
 15 16  1  0  0  0  0
 16 17  2  0  0  0  0
 17 18  1  0  0  0  0
 17 13  1  0  0  0  0
 19 18  2  0  0  0  0
 19 23  1  0  0  0  0
 20 19  1  0  0  0  0
 21 15  1  0  0  0  0
 22 16  1  0  0  0  0
 23 26  1  0  0  0  0
 23 25  1  0  0  0  0
 24 23  1  0  0  0  0
 27 28  1  0  0  0  0
 28 29  1  0  0  0  0
 30 28  1  0  0  0  0
 31 28  1  0  0  0  0
M  END
>  <minimizedAffinity>
-5.45842981

$$$$

 OpenBabel03272502363D

 31 32  0  0  1  0  0  0  0  0999 V2000
   37.2620   22.3930   31.8190 C   0  0  2  0  0  0  0  0  0  0  0  0
   36.3670   23.0400   31.6830 H   0  0  0  0  0  0  0  0  0  0  0  0
   38.2000   22.4400   30.6840 C   0  0  0  0  0  0  0  0  0  0  0  0
   38.3950   23.7530   30.1760 C   0  0  0  0  0  0  0  0  0  0  0  0
   39.2240   24.0430   29.1200 C   0  0  0  0  0  0  0  0  0  0  0  0
   39.9440   23.0250   28.4700 C   0  0  0  0  0  0  0  0  0  0  0  0
   39.6960   21.7760   29.0290 C   0  0  0  0  0  0  0  0  0  0  0  0
   38.8930   21.4640   30.0570 N   0  0  0  0  0  0  0  0  0  0  0  0
   37.9560   24.7050   30.5060 H   0  0  0  0  0  0  0  0  0  0  0  0
   39.4150   25.0160   28.6870 H   0  0  0  0  0  0  0  0  0  0  0  0
   40.6180   23.0650   27.6530 H   0  0  0  0  0  0  0  0  0  0  0  0
   40.1810   20.8820   28.6330 H   0  0  0  0  0  0  0  0  0  0  0  0
   38.3930   21.9410   33.8820 C   0  0  0  0  0  3  0  0  0  0  0  0
   37.9660   22.8490   33.0660 C   0  0  0  0  0  3  0  0  0  0  0  0
   41.1560   22.3540   36.3470 C   0  0  0  0  0  0  0  0  0  0  0  0
   40.4390   22.0610   35.1990 C   0  0  0  0  0  0  0  0  0  0  0  0
   39.0880   22.2710   35.1010 C   0  0  0  0  0  0  0  0  0  0  0  0
   38.4710   22.7830   36.1890 N   0  0  0  0  0  0  0  0  0  0  0  0
   39.1480   23.0730   37.3060 C   0  0  0  0  0  0  0  0  0  0  0  0
   40.4750   22.8640   37.3950 N   0  0  0  0  0  0  0  0  0  0  0  0
   42.2140   22.2040   36.4650 H   0  0  0  0  0  0  0  0  0  0  0  0
   41.0720   21.6650   34.4340 H   0  0  0  0  0  0  0  0  0  0  0  0
   38.3640   23.6330   38.4390 C   0  0  0  0  0  0  0  0  0  0  0  0
   37.9440   24.9190   38.1280 F   0  0  0  0  0  0  0  0  0  0  0  0
   39.2850   23.7700   39.4860 F   0  0  0  0  0  0  0  0  0  0  0  0
   37.3020   22.8310   38.8060 F   0  0  0  0  0  0  0  0  0  0  0  0
   36.8420   20.6330   32.0520 S   0  0  0  0  0  0  0  0  0  0  0  0
   35.2220   20.4490   32.7740 C   0  0  0  0  0  0  0  0  0  0  0  0
   34.4350   19.5130   32.1200 F   0  0  0  0  0  0  0  0  0  0  0  0
   35.2940   20.2010   34.1320 F   0  0  0  0  0  0  0  0  0  0  0  0
   34.5900   21.7050   32.6500 F   0  0  0  0  0  0  0  0  0  0  0  0
  1  2  1  6  0  0  0
  1 27  1  0  0  0  0
  1 14  1  0  0  0  0
  3  1  1  0  0  0  0
  4  9  1  0  0  0  0
  4  3  1  0  0  0  0
  5  4  2  0  0  0  0
  6  7  2  0  0  0  0
  6  5  1  0  0  0  0
  7  8  1  0  0  0  0
  8  3  2  0  0  0  0
 10  5  1  0  0  0  0
 11  6  1  0  0  0  0
 12  7  1  0  0  0  0
 13 17  1  0  0  0  0
 14 13  2  0  0  0  0
 15 21  1  0  0  0  0
 15 20  1  0  0  0  0
 16 15  2  0  0  0  0
 17 16  1  0  0  0  0
 17 18  2  0  0  0  0
 18 19  1  0  0  0  0
 19 20  2  0  0  0  0
 19 23  1  0  0  0  0
 22 16  1  0  0  0  0
 23 26  1  0  0  0  0
 23 25  1  0  0  0  0
 24 23  1  0  0  0  0
 27 28  1  0  0  0  0
 28 30  1  0  0  0  0
 29 28  1  0  0  0  0
 31 28  1  0  0  0  0
M  END
>  <minimizedAffinity>
-5.44948339

$$$$

 OpenBabel03272502363D

 31 32  0  0  1  0  0  0  0  0999 V2000
   37.5970   27.4660   32.3340 C   0  0  2  0  0  0  0  0  0  0  0  0
   37.5990   28.2920   33.0800 H   0  0  0  0  0  0  0  0  0  0  0  0
   38.4420   27.7350   31.1580 C   0  0  0  0  0  0  0  0  0  0  0  0
   39.7910   27.3200   31.3350 C   0  0  0  0  0  0  0  0  0  0  0  0
   40.7620   27.4690   30.3750 C   0  0  0  0  0  0  0  0  0  0  0  0
   40.4620   28.0550   29.1330 C   0  0  0  0  0  0  0  0  0  0  0  0
   39.1260   28.4290   29.0450 C   0  0  0  0  0  0  0  0  0  0  0  0
   38.1580   28.2970   29.9630 N   0  0  0  0  0  0  0  0  0  0  0  0
   40.2690   26.8420   32.2000 H   0  0  0  0  0  0  0  0  0  0  0  0
   41.8010   27.1760   30.4460 H   0  0  0  0  0  0  0  0  0  0  0  0
   41.0750   28.2450   28.2900 H   0  0  0  0  0  0  0  0  0  0  0  0
   38.7380   28.9000   28.1390 H   0  0  0  0  0  0  0  0  0  0  0  0
   37.6500   25.9950   34.2230 C   0  0  0  0  0  3  0  0  0  0  0  0
   38.0880   26.2270   33.0280 C   0  0  0  0  0  3  0  0  0  0  0  0
   38.9190   22.5760   34.9880 C   0  0  0  0  0  0  0  0  0  0  0  0
   38.5250   23.7230   34.3190 C   0  0  0  0  0  0  0  0  0  0  0  0
   38.0520   24.8300   34.9730 C   0  0  0  0  0  0  0  0  0  0  0  0
   37.9810   24.7580   36.3210 N   0  0  0  0  0  0  0  0  0  0  0  0
   38.3570   23.6580   36.9840 C   0  0  0  0  0  0  0  0  0  0  0  0
   38.8220   22.5740   36.3340 N   0  0  0  0  0  0  0  0  0  0  0  0
   39.2950   21.6870   34.5130 H   0  0  0  0  0  0  0  0  0  0  0  0
   38.6440   23.6180   33.2620 H   0  0  0  0  0  0  0  0  0  0  0  0
   38.2360   23.6930   38.4650 C   0  0  0  0  0  0  0  0  0  0  0  0
   37.9430   24.9840   38.8810 F   0  0  0  0  0  0  0  0  0  0  0  0
   39.5230   23.4160   38.9430 F   0  0  0  0  0  0  0  0  0  0  0  0
   37.3150   22.7870   38.9500 F   0  0  0  0  0  0  0  0  0  0  0  0
   35.9330   27.0960   31.6840 S   0  0  0  0  0  0  0  0  0  0  0  0
   35.8410   25.4250   31.0680 C   0  0  0  0  0  0  0  0  0  0  0  0
   36.9710   25.0390   30.3640 F   0  0  0  0  0  0  0  0  0  0  0  0
   35.5290   24.5270   32.0720 F   0  0  0  0  0  0  0  0  0  0  0  0
   34.7470   25.3940   30.1770 F   0  0  0  0  0  0  0  0  0  0  0  0
  1 14  1  0  0  0  0
  1  2  1  1  0  0  0
  3  4  1  0  0  0  0
  3  1  1  0  0  0  0
  4  9  1  0  0  0  0
  5 10  1  0  0  0  0
  5  4  2  0  0  0  0
  6  5  1  0  0  0  0
  7  6  2  0  0  0  0
  7  8  1  0  0  0  0
  8  3  2  0  0  0  0
 11  6  1  0  0  0  0
 12  7  1  0  0  0  0
 13 17  1  0  0  0  0
 14 13  2  0  0  0  0
 15 20  1  0  0  0  0
 16 17  1  0  0  0  0
 16 15  2  0  0  0  0
 17 18  2  0  0  0  0
 18 19  1  0  0  0  0
 19 23  1  0  0  0  0
 20 19  2  0  0  0  0
 21 15  1  0  0  0  0
 22 16  1  0  0  0  0
 23 24  1  0  0  0  0
 23 25  1  0  0  0  0
 23 26  1  0  0  0  0
 27  1  1  0  0  0  0
 28 27  1  0  0  0  0
 28 30  1  0  0  0  0
 29 28  1  0  0  0  0
 31 28  1  0  0  0  0
M  END
>  <minimizedAffinity>
-5.39650249

$$$$

 OpenBabel03272502363D

 31 32  0  0  1  0  0  0  0  0999 V2000
   35.4470   28.8810   33.5990 C   0  0  2  0  0  0  0  0  0  0  0  0
   34.7000   28.1140   33.2940 H   0  0  0  0  0  0  0  0  0  0  0  0
   34.9200   29.8660   34.5580 C   0  0  0  0  0  0  0  0  0  0  0  0
   35.9380   30.6340   35.1860 C   0  0  0  0  0  0  0  0  0  0  0  0
   35.6860   31.6130   36.1160 C   0  0  0  0  0  0  0  0  0  0  0  0
   34.3690   31.9130   36.5050 C   0  0  0  0  0  0  0  0  0  0  0  0
   33.4380   31.1180   35.8450 C   0  0  0  0  0  0  0  0  0  0  0  0
   33.6550   30.1580   34.9350 N   0  0  0  0  0  0  0  0  0  0  0  0
   37.0280   30.5940   35.0540 H   0  0  0  0  0  0  0  0  0  0  0  0
   36.4120   32.2310   36.6280 H   0  0  0  0  0  0  0  0  0  0  0  0
   33.9950   32.6250   37.1960 H   0  0  0  0  0  0  0  0  0  0  0  0
   32.3700   31.2320   36.0410 H   0  0  0  0  0  0  0  0  0  0  0  0
   36.6510   26.8710   34.0990 C   0  0  0  0  0  3  0  0  0  0  0  0
   36.6110   28.1590   34.2170 C   0  0  0  0  0  3  0  0  0  0  0  0
   40.0020   25.2880   34.4790 C   0  0  0  0  0  0  0  0  0  0  0  0
   38.9360   26.0320   34.0020 C   0  0  0  0  0  0  0  0  0  0  0  0
   37.7280   26.0840   34.6470 C   0  0  0  0  0  0  0  0  0  0  0  0
   37.6140   25.3660   35.7860 N   0  0  0  0  0  0  0  0  0  0  0  0
   38.6340   24.6420   36.2620 C   0  0  0  0  0  0  0  0  0  0  0  0
   39.8190   24.5970   35.6240 N   0  0  0  0  0  0  0  0  0  0  0  0
   40.9650   25.2210   34.0050 H   0  0  0  0  0  0  0  0  0  0  0  0
   39.1890   26.5390   33.0960 H   0  0  0  0  0  0  0  0  0  0  0  0
   38.3930   23.8940   37.5250 C   0  0  0  0  0  0  0  0  0  0  0  0
   39.5030   23.1170   37.8270 F   0  0  0  0  0  0  0  0  0  0  0  0
   37.3630   22.9930   37.2240 F   0  0  0  0  0  0  0  0  0  0  0  0
   38.0510   24.7150   38.5790 F   0  0  0  0  0  0  0  0  0  0  0  0
   36.0960   29.8450   32.1930 S   0  0  0  0  0  0  0  0  0  0  0  0
   36.7500   28.7740   30.9260 C   0  0  0  0  0  0  0  0  0  0  0  0
   38.0810   28.4420   31.1250 F   0  0  0  0  0  0  0  0  0  0  0  0
   35.9620   27.6520   30.7500 F   0  0  0  0  0  0  0  0  0  0  0  0
   36.6620   29.4950   29.7160 F   0  0  0  0  0  0  0  0  0  0  0  0
  1  2  1  6  0  0  0
  1 14  1  0  0  0  0
  1  3  1  0  0  0  0
  3  8  2  0  0  0  0
  3  4  1  0  0  0  0
  4  5  2  0  0  0  0
  5  6  1  0  0  0  0
  5 10  1  0  0  0  0
  6 11  1  0  0  0  0
  7 12  1  0  0  0  0
  7  6  2  0  0  0  0
  8  7  1  0  0  0  0
  9  4  1  0  0  0  0
 13 14  2  0  0  0  0
 13 17  1  0  0  0  0
 15 20  1  0  0  0  0
 16 15  2  0  0  0  0
 16 17  1  0  0  0  0
 17 18  2  0  0  0  0
 18 19  1  0  0  0  0
 19 23  1  0  0  0  0
 20 19  2  0  0  0  0
 21 15  1  0  0  0  0
 22 16  1  0  0  0  0
 23 24  1  0  0  0  0
 23 26  1  0  0  0  0
 25 23  1  0  0  0  0
 27  1  1  0  0  0  0
 28 29  1  0  0  0  0
 28 27  1  0  0  0  0
 30 28  1  0  0  0  0
 31 28  1  0  0  0  0
M  END
>  <minimizedAffinity>
-5.38712645

$$$$
