REMARK  Name = 
REMARK  5 active torsions:
REMARK  status: ('A' for Active; 'I' for Inactive)
REMARK    1  A    between atoms: C_1  and  C_2
REMARK    2  A    between atoms: C_1  and  O_9
REMARK    3  A    between atoms: C_2  and  C_3
REMARK    4  A    between atoms: O_9  and  C_14
REMARK    5  A    between atoms: C_12  and  C_25
REMARK                            x       y       z     vdW  Elec       q    Type
REMARK                         _______ _______ _______ _____ _____    ______ ____
ROOT
ATOM      1  C   UNL     1      33.729  28.606  48.703  0.00  0.00    +0.000 C 
ATOM      2  H   UNL     1      33.082  29.421  49.140  0.00  0.00    +0.000 HD
ATOM      3  H   UNL     1      34.248  29.049  47.847  0.00  0.00    +0.000 HD
ENDROOT
BRANCH   1   4
ATOM      4  C   UNL     1      32.814  27.465  48.354  0.00  0.00    +0.000 C 
ATOM      5  H   UNL     1      32.955  26.641  49.101  0.00  0.00    +0.000 HD
ATOM      6  H   UNL     1      33.136  27.001  47.379  0.00  0.00    +0.000 HD
BRANCH   4   7
ATOM      7  C   UNL     1      31.386  27.862  48.347  0.00  0.00    +0.000 A 
ATOM      8  C   UNL     1      30.693  27.740  49.528  0.00  0.00    +0.000 A 
ATOM      9  C   UNL     1      29.368  28.074  49.651  0.00  0.00    +0.000 A 
ATOM     10  N   UNL     1      28.710  28.540  48.582  0.00  0.00    +0.000 NA
ATOM     11  C   UNL     1      29.391  28.660  47.423  0.00  0.00    +0.000 A 
ATOM     12  N   UNL     1      30.691  28.336  47.289  0.00  0.00    +0.000 NA
ATOM     13  H   UNL     1      31.174  27.366  50.437  0.00  0.00    +0.000 HD
ATOM     14  H   UNL     1      28.805  27.980  50.592  0.00  0.00    +0.000 HD
ATOM     15  H   UNL     1      28.897  29.031  46.539  0.00  0.00    +0.000 HD
ENDBRANCH   4   7
ENDBRANCH   1   4
BRANCH   1  16
ATOM     16  O   UNL     1      34.614  28.216  49.740  0.00  0.00    +0.000 OA
BRANCH  16  21
ATOM     17  C   UNL     1      37.234  30.180  51.285  0.00  0.00    +0.000 A 
ATOM     18  C   UNL     1      37.917  30.632  50.148  0.00  0.00    +0.000 A 
ATOM     19  C   UNL     1      37.422  30.225  48.910  0.00  0.00    +0.000 A 
ATOM     20  N   UNL     1      36.319  29.423  48.886  0.00  0.00    +0.000 NA
ATOM     21  C   UNL     1      35.698  29.014  49.998  0.00  0.00    +0.000 A 
ATOM     22  N   UNL     1      36.164  29.399  51.197  0.00  0.00    +0.000 NA
ATOM     23  H   UNL     1      37.644  30.514  52.233  0.00  0.00    +0.000 HD
ATOM     24  H   UNL     1      38.790  31.268  50.200  0.00  0.00    +0.000 HD
BRANCH  19  25
ATOM     25  C   UNL     1      38.084  30.657  47.629  0.00  0.00    +0.000 C 
ATOM     26  F   UNL     1      39.459  30.616  47.893  0.00  0.00    +0.000 F 
ATOM     27  F   UNL     1      37.750  29.777  46.605  0.00  0.00    +0.000 F 
ATOM     28  F   UNL     1      37.648  31.917  47.341  0.00  0.00    +0.000 F 
ENDBRANCH  19  25
ENDBRANCH  16  21
ENDBRANCH   1  16
TORSDOF 5
