
     RDKit          3D

 28 29  0  0  0  0  0  0  0  0999 V2000
   33.7286   28.6064   48.7035 C   0  0  0  0  0  0  0  0  0  0  0  0
   32.8140   27.4653   48.3544 C   0  0  0  0  0  0  0  0  0  0  0  0
   31.3862   27.8622   48.3474 C   0  0  0  0  0  0  0  0  0  0  0  0
   30.6931   27.7404   49.5275 C   0  0  0  0  0  0  0  0  0  0  0  0
   29.3684   28.0742   49.6506 C   0  0  0  0  0  0  0  0  0  0  0  0
   28.7105   28.5403   48.5816 N   0  0  0  0  0  0  0  0  0  0  0  0
   29.3910   28.6599   47.4226 C   0  0  0  0  0  0  0  0  0  0  0  0
   30.6911   28.3356   47.2894 N   0  0  0  0  0  0  0  0  0  0  0  0
   34.6135   28.2165   49.7404 O   0  0  0  0  0  0  0  0  0  0  0  0
   37.2342   30.1796   51.2855 C   0  0  0  0  0  0  0  0  0  0  0  0
   37.9171   30.6321   50.1475 C   0  0  0  0  0  0  0  0  0  0  0  0
   37.4215   30.2247   48.9104 C   0  0  0  0  0  0  0  0  0  0  0  0
   36.3188   29.4227   48.8865 N   0  0  0  0  0  0  0  0  0  0  0  0
   35.6978   29.0141   49.9983 C   0  0  0  0  0  0  0  0  0  0  0  0
   36.1643   29.3989   51.1975 N   0  0  0  0  0  0  0  0  0  0  0  0
   33.0819   29.4213   49.1401 H   0  0  0  0  0  0  0  0  0  0  0  0
   34.2481   29.0485   47.8472 H   0  0  0  0  0  0  0  0  0  0  0  0
   32.9553   26.6414   49.1014 H   0  0  0  0  0  0  0  0  0  0  0  0
   33.1363   27.0010   47.3788 H   0  0  0  0  0  0  0  0  0  0  0  0
   31.1745   27.3657   50.4366 H   0  0  0  0  0  0  0  0  0  0  0  0
   28.8050   27.9799   50.5922 H   0  0  0  0  0  0  0  0  0  0  0  0
   28.8972   29.0312   46.5394 H   0  0  0  0  0  0  0  0  0  0  0  0
   37.6443   30.5137   52.2325 H   0  0  0  0  0  0  0  0  0  0  0  0
   38.7903   31.2685   50.2005 H   0  0  0  0  0  0  0  0  0  0  0  0
   38.0840   30.6569   47.6286 C   0  0  0  0  0  0  0  0  0  0  0  0
   37.0634   31.2368   46.8646 F   0  0  0  0  0  0  0  0  0  0  0  0
   39.0842   31.5827   47.9030 F   0  0  0  0  0  0  0  0  0  0  0  0
   38.6074   29.5450   47.0373 F   0  0  0  0  0  0  0  0  0  0  0  0
  1  9  1  0
  2  1  1  0
  3  2  1  0
  3  4  2  0
  4  5  1  0
  6  5  2  0
  7  6  1  0
  8  7  2  0
  8  3  1  0
  9 14  1  0
 11 10  2  0
 12 11  1  0
 13 12  2  0
 13 14  1  0
 14 15  2  0
 15 10  1  0
  1 16  1  0
  1 17  1  0
  2 18  1  0
  2 19  1  0
  4 20  1  0
  5 21  1  0
  7 22  1  0
 10 23  1  0
 11 24  1  0
 25 26  1  0
 25 27  1  0
 25 28  1  0
 12 25  1  0
M  ISO  8  16   8  17   8  18   8  19   8  20  14  21  14  22  14  23  14
M  ISO  1  24  14
M  END
>  <DihAtoms>  (1) 
10,11,24,25

>  <DihDeg>  (1) 
113.91528713734398

$$$$
