
 OpenBabel03272509533D

 38 40  0  0  0  0  0  0  0  0999 V2000
   37.3470   30.1870   51.5260 C   0  0  0  0  0  0  0  0  0  0  0  0
   38.0710   30.8670   50.5270 C   0  0  0  0  0  0  0  0  0  0  0  0
   37.7140   30.6600   49.2140 C   0  0  0  0  0  0  0  0  0  0  0  0
   36.6700   29.7960   48.9910 N   0  0  0  0  0  0  0  0  0  0  0  0
   36.0030   29.1650   49.9530 C   0  0  0  0  0  0  0  0  0  0  0  0
   36.3420   29.3610   51.2370 N   0  0  0  0  0  0  0  0  0  0  0  0
   37.6510   30.3710   52.5480 H   0  0  0  0  0  0  0  0  0  0  0  0
   38.8710   31.5280   50.7240 H   0  0  0  0  0  0  0  0  0  0  0  0
   38.9450   33.2710   49.0190 F   0  0  0  0  0  0  0  0  0  0  0  0
   38.9140   32.4820   47.9520 C   0  0  0  0  0  0  0  0  0  0  0  0
   38.3350   31.2650   48.0620 C   0  0  0  0  0  0  0  0  0  0  0  0
   38.3640   30.5260   46.8740 C   0  0  0  0  0  0  0  0  0  0  0  0
   38.9270   31.0010   45.7240 C   0  0  0  0  0  0  0  0  0  0  0  0
   39.5000   32.2370   45.6620 C   0  0  0  0  0  0  0  0  0  0  0  0
   39.4870   32.9810   46.8040 C   0  0  0  0  0  0  0  0  0  0  0  0
   37.9190   29.5220   46.8560 H   0  0  0  0  0  0  0  0  0  0  0  0
   38.9070   30.3570   44.8340 H   0  0  0  0  0  0  0  0  0  0  0  0
   39.9330   32.5720   44.7300 H   0  0  0  0  0  0  0  0  0  0  0  0
   39.9390   33.9690   46.7780 H   0  0  0  0  0  0  0  0  0  0  0  0
   35.0070   28.3610   49.4710 O   0  0  0  0  0  0  0  0  0  0  0  0
   34.4700   28.6350   48.1850 C   0  0  0  0  0  0  0  0  0  0  0  0
   35.2670   28.8720   47.4480 H   0  0  0  0  0  0  0  0  0  0  0  0
   33.8270   29.5370   48.2690 H   0  0  0  0  0  0  0  0  0  0  0  0
   33.5850   27.5040   47.7360 C   0  0  0  0  0  0  0  0  0  0  0  0
   33.9060   27.2300   46.7100 H   0  0  0  0  0  0  0  0  0  0  0  0
   33.7330   26.5860   48.3470 H   0  0  0  0  0  0  0  0  0  0  0  0
   32.1510   27.8620   47.7450 C   0  0  0  0  0  0  0  0  0  0  0  0
   31.3770   27.4130   48.8140 C   0  0  0  0  0  0  0  0  0  0  0  0
   30.0410   27.6940   48.9110 C   0  0  0  0  0  0  0  0  0  0  0  0
   29.4570   28.4140   47.9630 N   0  0  0  0  0  0  0  0  0  0  0  0
   30.2150   28.8560   46.9130 C   0  0  0  0  0  0  0  0  0  0  0  0
   31.5440   28.5990   46.7810 N   0  0  0  0  0  0  0  0  0  0  0  0
   31.8500   26.8190   49.5970 H   0  0  0  0  0  0  0  0  0  0  0  0
   29.4690   27.3300   49.7520 H   0  0  0  0  0  0  0  0  0  0  0  0
   29.6500   29.6760   45.7950 C   0  0  0  0  0  0  0  0  0  0  0  0
   28.4640   30.2720   46.2390 F   0  0  0  0  0  0  0  0  0  0  0  0
   29.4120   28.9340   44.6690 F   0  0  0  0  0  0  0  0  0  0  0  0
   30.4880   30.7260   45.4860 F   0  0  0  0  0  0  0  0  0  0  0  0
  1  7  1  0  0  0  0
  2  8  1  0  0  0  0
  2  1  2  0  0  0  0
  3  2  1  0  0  0  0
  4  3  2  0  0  0  0
  4  5  1  0  0  0  0
  5  6  2  0  0  0  0
  6  1  1  0  0  0  0
 10 11  1  0  0  0  0
 10  9  1  0  0  0  0
 11  3  1  0  0  0  0
 12 11  2  0  0  0  0
 13 12  1  0  0  0  0
 14 13  2  0  0  0  0
 14 15  1  0  0  0  0
 15 10  2  0  0  0  0
 16 12  1  0  0  0  0
 17 13  1  0  0  0  0
 18 14  1  0  0  0  0
 19 15  1  0  0  0  0
 20  5  1  0  0  0  0
 21 23  1  0  0  0  0
 21 20  1  0  0  0  0
 22 21  1  0  0  0  0
 24 27  1  0  0  0  0
 24 21  1  0  0  0  0
 24 26  1  0  0  0  0
 25 24  1  0  0  0  0
 27 28  1  0  0  0  0
 28 29  2  0  0  0  0
 28 33  1  0  0  0  0
 29 34  1  0  0  0  0
 30 29  1  0  0  0  0
 31 30  2  0  0  0  0
 32 31  1  0  0  0  0
 32 27  2  0  0  0  0
 35 36  1  0  0  0  0
 35 31  1  0  0  0  0
 37 35  1  0  0  0  0
 38 35  1  0  0  0  0
M  END
>  <minimizedAffinity>
-6.39516973

>  <minimizedRMSD>
0.355049759

$$$$
