
 OpenBabel03272506473D

 37 39  0  0  1  0  0  0  0  0999 V2000
   32.2630   28.4080   47.2830 C   0  0  2  0  0  0  0  0  0  0  0  0
   33.4650   28.3360   48.1770 C   0  0  1  0  0  0  0  0  0  0  0  0
   33.9850   27.0790   48.0850 O   0  0  0  0  0  0  0  0  0  0  0  0
   33.4050   26.4220   47.0050 C   0  0  0  0  0  0  0  0  0  0  0  0
   32.7560   27.4710   46.1370 C   0  0  1  0  0  0  0  0  0  0  0  0
   31.3390   28.0080   47.6910 H   0  0  0  0  0  0  0  0  0  0  0  0
   33.2040   28.6560   49.2030 H   0  0  0  0  0  0  0  0  0  0  0  0
   32.7550   25.6660   47.4140 H   0  0  0  0  0  0  0  0  0  0  0  0
   34.2060   25.8710   46.4470 H   0  0  0  0  0  0  0  0  0  0  0  0
   33.4320   28.0560   45.5270 H   0  0  0  0  0  0  0  0  0  0  0  0
   32.1050   29.7110   46.7660 O   0  0  0  0  0  0  0  0  0  0  0  0
   31.2000   30.0450   46.8690 H   0  0  0  0  0  0  0  0  0  0  0  0
   34.7140   29.5160   47.5250 S   0  0  0  0  0  0  0  0  0  0  0  0
   37.1270   29.2300   50.6490 C   0  0  0  0  0  0  0  0  0  0  0  0
   37.5870   30.5310   50.8810 C   0  0  0  0  0  0  0  0  0  0  0  0
   37.1220   31.5410   50.0210 C   0  0  0  0  0  0  0  0  0  0  0  0
   36.2640   31.2070   49.0260 N   0  0  0  0  0  0  0  0  0  0  0  0
   35.8480   29.9330   48.8450 C   0  0  0  0  0  0  0  0  0  0  0  0
   36.2720   28.9260   49.6530 N   0  0  0  0  0  0  0  0  0  0  0  0
   37.4700   28.4400   51.2970 H   0  0  0  0  0  0  0  0  0  0  0  0
   38.2740   30.7690   51.6850 H   0  0  0  0  0  0  0  0  0  0  0  0
   37.4270   32.5610   50.1310 H   0  0  0  0  0  0  0  0  0  0  0  0
   31.6960   26.9050   45.4710 O   0  0  0  0  0  0  0  0  0  0  0  0
   30.2270   28.8810   43.8550 Cl  0  0  0  0  0  0  0  0  0  0  0  0
   29.6290   27.8700   45.1480 C   0  0  0  0  0  0  0  0  0  0  0  0
   30.4180   26.9690   45.8270 C   0  0  0  0  0  0  0  0  0  0  0  0
   29.8210   26.1980   46.8280 C   0  0  0  0  0  0  0  0  0  0  0  0
   28.4790   26.3400   47.1180 C   0  0  0  0  0  0  0  0  0  0  0  0
   27.6790   27.2440   46.4400 C   0  0  0  0  0  0  0  0  0  0  0  0
   28.2800   28.0110   45.4440 C   0  0  0  0  0  0  0  0  0  0  0  0
   30.3520   25.4650   47.4080 H   0  0  0  0  0  0  0  0  0  0  0  0
   27.9570   25.7780   47.8750 H   0  0  0  0  0  0  0  0  0  0  0  0
   26.6280   27.3650   46.6570 H   0  0  0  0  0  0  0  0  0  0  0  0
   27.4290   28.9830   44.7100 C   0  0  0  0  0  0  0  0  0  0  0  0
   26.1250   28.9790   45.1680 F   0  0  0  0  0  0  0  0  0  0  0  0
   27.4230   28.5790   43.3690 F   0  0  0  0  0  0  0  0  0  0  0  0
   27.9670   30.2400   44.7100 F   0  0  0  0  0  0  0  0  0  0  0  0
  1  6  1  1  0  0  0
  1  2  1  0  0  0  0
  2  7  1  1  0  0  0
  3  2  1  0  0  0  0
  4  8  1  0  0  0  0
  4  3  1  0  0  0  0
  5 10  1  6  0  0  0
  5  4  1  0  0  0  0
  5  1  1  0  0  0  0
  9  4  1  0  0  0  0
 11 12  1  0  0  0  0
 11  1  1  0  0  0  0
 13  2  1  0  0  0  0
 13 18  1  0  0  0  0
 14 15  1  0  0  0  0
 14 20  1  0  0  0  0
 15 21  1  0  0  0  0
 16 22  1  0  0  0  0
 16 15  2  0  0  0  0
 17 16  1  0  0  0  0
 18 17  2  0  0  0  0
 18 19  1  0  0  0  0
 19 14  2  0  0  0  0
 23 26  1  0  0  0  0
 23  5  1  0  0  0  0
 24 25  1  0  0  0  0
 25 30  2  0  0  0  0
 25 26  1  0  0  0  0
 26 27  2  0  0  0  0
 27 28  1  0  0  0  0
 27 31  1  0  0  0  0
 28 32  1  0  0  0  0
 29 33  1  0  0  0  0
 29 28  2  0  0  0  0
 30 29  1  0  0  0  0
 34 35  1  0  0  0  0
 34 30  1  0  0  0  0
 36 34  1  0  0  0  0
 37 34  1  0  0  0  0
M  END
>  <minimizedAffinity>
-4.73664904

>  <minimizedRMSD>
0.504788518

$$$$
