
 OpenBabel03272508183D

 20 21  0  0  0  0  0  0  0  0999 V2000
   36.9690   31.1130   48.0940 C   0  0  0  0  0  0  0  0  0  0  0  0
   38.0220   32.0320   48.1900 C   0  0  0  0  0  0  0  0  0  0  0  0
   38.6600   32.3100   46.9680 C   0  0  0  0  0  0  0  0  0  0  0  0
   38.2390   31.7070   45.8300 N   0  0  0  0  0  0  0  0  0  0  0  0
   37.2180   30.8270   45.7850 C   0  0  0  0  0  0  0  0  0  0  0  0
   36.5750   30.5250   46.9330 N   0  0  0  0  0  0  0  0  0  0  0  0
   39.4940   33.0170   46.9560 H   0  0  0  0  0  0  0  0  0  0  0  0
   36.8810   30.3460   44.8810 H   0  0  0  0  0  0  0  0  0  0  0  0
   36.2150   30.8740   49.3860 C   0  0  0  0  0  0  0  0  0  0  0  0
   35.1110   29.9520   49.4280 C   0  0  0  0  0  0  0  0  0  0  0  0
   36.4480   29.4250   49.8800 C   0  0  0  0  0  0  0  0  0  0  0  0
   36.4690   31.5750   50.2120 H   0  0  0  0  0  0  0  0  0  0  0  0
   34.7280   29.6210   48.4150 H   0  0  0  0  0  0  0  0  0  0  0  0
   34.2550   30.0270   50.1320 H   0  0  0  0  0  0  0  0  0  0  0  0
   36.5070   29.2180   50.9420 H   0  0  0  0  0  0  0  0  0  0  0  0
   36.9180   28.7390   49.1830 H   0  0  0  0  0  0  0  0  0  0  0  0
   38.4530   32.6740   49.4270 C   0  0  0  0  0  0  0  0  0  0  0  0
   39.3940   33.6620   49.2680 F   0  0  0  0  0  0  0  0  0  0  0  0
   37.3440   33.3400   49.9740 F   0  0  0  0  0  0  0  0  0  0  0  0
   38.7910   31.7250   50.3620 F   0  0  0  0  0  0  0  0  0  0  0  0
  1  2  1  0  0  0  0
  1  9  1  0  0  0  0
  2 17  1  0  0  0  0
  3  2  2  0  0  0  0
  4  3  1  0  0  0  0
  5  4  2  0  0  0  0
  5  6  1  0  0  0  0
  6  1  2  0  0  0  0
  7  3  1  0  0  0  0
  8  5  1  0  0  0  0
  9 10  1  0  0  0  0
  9 11  1  0  0  0  0
  9 12  1  0  0  0  0
 10 11  1  0  0  0  0
 10 14  1  0  0  0  0
 11 15  1  0  0  0  0
 13 10  1  0  0  0  0
 16 11  1  0  0  0  0
 17 19  1  0  0  0  0
 17 20  1  0  0  0  0
 18 17  1  0  0  0  0
M  END
>  <minimizedAffinity>
-5.18939114

>  <minimizedRMSD>
2.04099655

$$$$
