
 OpenBabel03272506473D

 37 39  0  0  1  0  0  0  0  0999 V2000
   32.2570   28.7220   47.3700 C   0  0  2  0  0  0  0  0  0  0  0  0
   33.5070   28.3540   48.1130 C   0  0  1  0  0  0  0  0  0  0  0  0
   33.7510   27.0300   47.9000 O   0  0  0  0  0  0  0  0  0  0  0  0
   32.9410   26.5760   46.8640 C   0  0  0  0  0  0  0  0  0  0  0  0
   32.4290   27.7890   46.1290 C   0  0  1  0  0  0  0  0  0  0  0  0
   31.3200   28.4810   47.8620 H   0  0  0  0  0  0  0  0  0  0  0  0
   33.4240   28.6460   49.1760 H   0  0  0  0  0  0  0  0  0  0  0  0
   32.1980   25.9340   47.3100 H   0  0  0  0  0  0  0  0  0  0  0  0
   33.5520   25.9200   46.1910 H   0  0  0  0  0  0  0  0  0  0  0  0
   33.1420   28.2740   45.4740 H   0  0  0  0  0  0  0  0  0  0  0  0
   32.3120   30.0630   46.9380 O   0  0  0  0  0  0  0  0  0  0  0  0
   31.5080   30.5590   47.1620 H   0  0  0  0  0  0  0  0  0  0  0  0
   34.8930   29.3120   47.3780 S   0  0  0  0  0  0  0  0  0  0  0  0
   37.1460   29.3320   50.6310 C   0  0  0  0  0  0  0  0  0  0  0  0
   37.6330   30.6400   50.7360 C   0  0  0  0  0  0  0  0  0  0  0  0
   37.2390   31.5550   49.7440 C   0  0  0  0  0  0  0  0  0  0  0  0
   36.4190   31.1280   48.7520 N   0  0  0  0  0  0  0  0  0  0  0  0
   35.9750   29.8510   48.6970 C   0  0  0  0  0  0  0  0  0  0  0  0
   36.3310   28.9350   49.6350 N   0  0  0  0  0  0  0  0  0  0  0  0
   37.4360   28.6140   51.3820 H   0  0  0  0  0  0  0  0  0  0  0  0
   38.2880   30.9530   51.5410 H   0  0  0  0  0  0  0  0  0  0  0  0
   37.5670   32.5730   49.7520 H   0  0  0  0  0  0  0  0  0  0  0  0
   31.2140   27.4900   45.5650 O   0  0  0  0  0  0  0  0  0  0  0  0
   29.6500   29.8990   44.9140 Cl  0  0  0  0  0  0  0  0  0  0  0  0
   29.2190   28.5710   45.9650 C   0  0  0  0  0  0  0  0  0  0  0  0
   30.0380   27.4860   46.1830 C   0  0  0  0  0  0  0  0  0  0  0  0
   29.5750   26.4730   47.0270 C   0  0  0  0  0  0  0  0  0  0  0  0
   28.3320   26.5660   47.6190 C   0  0  0  0  0  0  0  0  0  0  0  0
   27.5020   27.6540   47.4050 C   0  0  0  0  0  0  0  0  0  0  0  0
   27.9700   28.6610   46.5630 C   0  0  0  0  0  0  0  0  0  0  0  0
   30.1380   25.5860   47.2540 H   0  0  0  0  0  0  0  0  0  0  0  0
   27.9140   25.8230   48.2780 H   0  0  0  0  0  0  0  0  0  0  0  0
   26.5270   27.7390   47.8610 H   0  0  0  0  0  0  0  0  0  0  0  0
   27.0860   29.8320   46.3270 C   0  0  0  0  0  0  0  0  0  0  0  0
   26.0780   29.9190   47.2680 F   0  0  0  0  0  0  0  0  0  0  0  0
   26.4960   29.6450   45.0720 F   0  0  0  0  0  0  0  0  0  0  0  0
   27.7940   30.9990   46.2280 F   0  0  0  0  0  0  0  0  0  0  0  0
  1  6  1  1  0  0  0
  1  2  1  0  0  0  0
  2  7  1  1  0  0  0
  3  2  1  0  0  0  0
  4  8  1  0  0  0  0
  4  3  1  0  0  0  0
  5 10  1  6  0  0  0
  5  4  1  0  0  0  0
  5  1  1  0  0  0  0
  9  4  1  0  0  0  0
 11 12  1  0  0  0  0
 11  1  1  0  0  0  0
 13  2  1  0  0  0  0
 13 18  1  0  0  0  0
 14 15  1  0  0  0  0
 14 20  1  0  0  0  0
 15 21  1  0  0  0  0
 16 22  1  0  0  0  0
 16 15  2  0  0  0  0
 17 16  1  0  0  0  0
 18 17  2  0  0  0  0
 18 19  1  0  0  0  0
 19 14  2  0  0  0  0
 23  5  1  0  0  0  0
 23 26  1  0  0  0  0
 24 25  1  0  0  0  0
 25 26  2  0  0  0  0
 25 30  1  0  0  0  0
 26 27  1  0  0  0  0
 27 31  1  0  0  0  0
 27 28  2  0  0  0  0
 28 32  1  0  0  0  0
 29 28  1  0  0  0  0
 29 33  1  0  0  0  0
 30 29  2  0  0  0  0
 34 30  1  0  0  0  0
 34 35  1  0  0  0  0
 36 34  1  0  0  0  0
 37 34  1  0  0  0  0
M  END
>  <minimizedAffinity>
-4.85072994

>  <minimizedRMSD>
0.635549366

$$$$
