
 OpenBabel03272509533D

 38 40  0  0  0  0  0  0  0  0999 V2000
   37.2820   30.1360   51.4510 C   0  0  0  0  0  0  0  0  0  0  0  0
   38.0420   30.8370   50.4930 C   0  0  0  0  0  0  0  0  0  0  0  0
   37.7100   30.6840   49.1660 C   0  0  0  0  0  0  0  0  0  0  0  0
   36.6540   29.8490   48.8900 N   0  0  0  0  0  0  0  0  0  0  0  0
   35.9540   29.1980   49.8150 C   0  0  0  0  0  0  0  0  0  0  0  0
   36.2680   29.3420   51.1120 N   0  0  0  0  0  0  0  0  0  0  0  0
   37.5680   30.2780   52.4860 H   0  0  0  0  0  0  0  0  0  0  0  0
   38.8500   31.4750   50.7300 H   0  0  0  0  0  0  0  0  0  0  0  0
   38.8820   33.3270   49.0540 F   0  0  0  0  0  0  0  0  0  0  0  0
   38.9200   32.5480   47.9790 C   0  0  0  0  0  0  0  0  0  0  0  0
   38.3670   31.3160   48.0500 C   0  0  0  0  0  0  0  0  0  0  0  0
   38.4700   30.5910   46.8570 C   0  0  0  0  0  0  0  0  0  0  0  0
   39.0720   31.0930   45.7390 C   0  0  0  0  0  0  0  0  0  0  0  0
   39.6160   32.3430   45.7170 C   0  0  0  0  0  0  0  0  0  0  0  0
   39.5320   33.0740   46.8640 C   0  0  0  0  0  0  0  0  0  0  0  0
   38.0520   29.5770   46.8090 H   0  0  0  0  0  0  0  0  0  0  0  0
   39.1100   30.4590   44.8430 H   0  0  0  0  0  0  0  0  0  0  0  0
   40.0830   32.6990   44.8080 H   0  0  0  0  0  0  0  0  0  0  0  0
   39.9590   34.0740   46.8680 H   0  0  0  0  0  0  0  0  0  0  0  0
   34.9540   28.4330   49.2830 O   0  0  0  0  0  0  0  0  0  0  0  0
   34.3450   28.8490   48.0700 C   0  0  0  0  0  0  0  0  0  0  0  0
   35.0960   29.2110   47.3350 H   0  0  0  0  0  0  0  0  0  0  0  0
   33.6760   29.7060   48.3000 H   0  0  0  0  0  0  0  0  0  0  0  0
   33.4780   27.7520   47.5150 C   0  0  0  0  0  0  0  0  0  0  0  0
   33.6720   27.7060   46.4240 H   0  0  0  0  0  0  0  0  0  0  0  0
   33.7630   26.7510   47.9090 H   0  0  0  0  0  0  0  0  0  0  0  0
   32.0390   27.9770   47.7690 C   0  0  0  0  0  0  0  0  0  0  0  0
   31.5100   27.5040   48.9690 C   0  0  0  0  0  0  0  0  0  0  0  0
   30.1910   27.6650   49.2940 C   0  0  0  0  0  0  0  0  0  0  0  0
   29.3840   28.2880   48.4470 N   0  0  0  0  0  0  0  0  0  0  0  0
   29.9000   28.7520   47.2680 C   0  0  0  0  0  0  0  0  0  0  0  0
   31.2050   28.6130   46.9090 N   0  0  0  0  0  0  0  0  0  0  0  0
   32.1690   26.9910   49.6710 H   0  0  0  0  0  0  0  0  0  0  0  0
   29.8120   27.2870   50.2330 H   0  0  0  0  0  0  0  0  0  0  0  0
   29.0720   29.4680   46.2460 C   0  0  0  0  0  0  0  0  0  0  0  0
   29.8910   30.3820   45.5730 F   0  0  0  0  0  0  0  0  0  0  0  0
   28.0000   30.1150   46.8000 F   0  0  0  0  0  0  0  0  0  0  0  0
   28.6310   28.5940   45.2750 F   0  0  0  0  0  0  0  0  0  0  0  0
  1  7  1  0  0  0  0
  2  8  1  0  0  0  0
  2  1  2  0  0  0  0
  3  2  1  0  0  0  0
  4  3  2  0  0  0  0
  4  5  1  0  0  0  0
  5  6  2  0  0  0  0
  6  1  1  0  0  0  0
 10 11  1  0  0  0  0
 10  9  1  0  0  0  0
 11  3  1  0  0  0  0
 12 11  2  0  0  0  0
 13 12  1  0  0  0  0
 14 13  2  0  0  0  0
 14 15  1  0  0  0  0
 15 19  1  0  0  0  0
 15 10  2  0  0  0  0
 16 12  1  0  0  0  0
 17 13  1  0  0  0  0
 18 14  1  0  0  0  0
 20  5  1  0  0  0  0
 21 23  1  0  0  0  0
 21 20  1  0  0  0  0
 22 21  1  0  0  0  0
 24 27  1  0  0  0  0
 24 26  1  0  0  0  0
 24 21  1  0  0  0  0
 25 24  1  0  0  0  0
 27 28  1  0  0  0  0
 28 29  2  0  0  0  0
 28 33  1  0  0  0  0
 29 34  1  0  0  0  0
 30 29  1  0  0  0  0
 31 30  2  0  0  0  0
 32 31  1  0  0  0  0
 32 27  2  0  0  0  0
 35 37  1  0  0  0  0
 35 31  1  0  0  0  0
 36 35  1  0  0  0  0
 38 35  1  0  0  0  0
M  END
>  <minimizedAffinity>
-6.38591623

>  <minimizedRMSD>
0.455635458

$$$$
