REMARK  Name = 
REMARK  2 active torsions:
REMARK  status: ('A' for Active; 'I' for Inactive)
REMARK    1  A    between atoms: C_3  and  C_13
REMARK    2  A    between atoms: C_8  and  C_20
REMARK                            x       y       z     vdW  Elec       q    Type
REMARK                         _______ _______ _______ _____ _____    ______ ____
ROOT
ATOM      1 CL   UNL     1      37.229  29.100  50.563  0.00  0.00    +0.000 Cl
ATOM      2  C   UNL     1      35.960  29.187  49.387  0.00  0.00    +0.000 A 
ATOM      3  C   UNL     1      35.932  30.226  48.483  0.00  0.00    +0.000 A 
ATOM      4  C   UNL     1      34.942  30.339  47.534  0.00  0.00    +0.000 A 
ATOM      5  C   UNL     1      33.932  29.398  47.461  0.00  0.00    +0.000 A 
ATOM      6  C   UNL     1      33.933  28.335  48.362  0.00  0.00    +0.000 A 
ATOM      7 CL   UNL     1      32.712  27.076  48.377  0.00  0.00    +0.000 Cl
ATOM      8  C   UNL     1      34.944  28.268  49.289  0.00  0.00    +0.000 A 
ATOM      9  H   UNL     1      34.913  31.150  46.824  0.00  0.00    +0.000 HD
ATOM     10  H   UNL     1      33.131  29.439  46.736  0.00  0.00    +0.000 HD
ENDROOT
BRANCH   3  15
ATOM     11  C   UNL     1      37.973  33.103  49.502  0.00  0.00    +0.000 A 
ATOM     12  C   UNL     1      39.003  33.104  48.562  0.00  0.00    +0.000 A 
ATOM     13  C   UNL     1      38.988  32.093  47.562  0.00  0.00    +0.000 A 
ATOM     14  N   UNL     1      37.972  31.193  47.587  0.00  0.00    +0.000 NA
ATOM     15  C   UNL     1      36.986  31.238  48.534  0.00  0.00    +0.000 A 
ATOM     16  N   UNL     1      36.997  32.189  49.477  0.00  0.00    +0.000 NA
ATOM     17  H   UNL     1      38.029  33.893  50.243  0.00  0.00    +0.000 HD
ATOM     18  H   UNL     1      39.797  33.809  48.542  0.00  0.00    +0.000 HD
ATOM     19  H   UNL     1      39.756  32.035  46.802  0.00  0.00    +0.000 HD
ENDBRANCH   3  15
BRANCH   8  20
ATOM     20  C   UNL     1      34.972  27.135  50.273  0.00  0.00    +0.000 C 
ATOM     21  F   UNL     1      35.385  25.962  49.678  0.00  0.00    +0.000 F 
ATOM     22  F   UNL     1      35.964  27.443  51.209  0.00  0.00    +0.000 F 
ATOM     23  F   UNL     1      33.793  27.036  50.949  0.00  0.00    +0.000 F 
ENDBRANCH   8  20
TORSDOF 2
