
 OpenBabel03272508363D

 39 41  0  0  1  0  0  0  0  0999 V2000
   40.4550   31.8700   44.3340 C   0  0  0  0  0  0  0  0  0  0  0  0
   40.4210   30.8250   44.6980 H   0  0  0  0  0  0  0  0  0  0  0  0
   41.5720   32.0900   44.3340 H   0  0  0  0  0  0  0  0  0  0  0  0
   40.0400   32.0060   43.0150 N   0  0  0  0  0  0  0  0  0  0  0  0
   39.3260   33.1790   42.6950 C   0  0  0  0  0  0  0  0  0  0  0  0
   37.9360   32.9960   42.2040 C   0  0  0  0  0  0  0  0  0  0  0  0
   37.8220   31.9290   41.3080 O   0  0  0  0  0  0  0  0  0  0  0  0
   38.3310   30.7880   41.8420 C   0  0  0  0  0  0  0  0  0  0  0  0
   39.7860   30.9440   42.1730 C   0  0  2  0  0  0  0  0  0  0  0  0
   39.4630   34.0710   43.2710 H   0  0  0  0  0  0  0  0  0  0  0  0
   39.9240   33.4610   41.7620 H   0  0  0  0  0  0  0  0  0  0  0  0
   37.0990   33.2340   42.8240 H   0  0  0  0  0  0  0  0  0  0  0  0
   37.7900   33.8520   41.4400 H   0  0  0  0  0  0  0  0  0  0  0  0
   37.7350   30.2390   42.5660 H   0  0  0  0  0  0  0  0  0  0  0  0
   38.3360   30.0680   40.9820 H   0  0  0  0  0  0  0  0  0  0  0  0
   40.2830   31.1850   41.1920 H   0  0  0  0  0  0  0  0  0  0  0  0
   40.3080   29.5850   42.5260 C   0  0  0  0  0  0  0  0  0  0  0  0
   39.9360   28.7740   41.4320 F   0  0  0  0  0  0  0  0  0  0  0  0
   39.6390   28.9890   43.5900 F   0  0  0  0  0  0  0  0  0  0  0  0
   41.6680   29.4910   42.6080 F   0  0  0  0  0  0  0  0  0  0  0  0
   39.8190   32.6990   45.3580 C   0  0  0  0  0  0  0  0  0  0  0  0
   40.6150   33.0010   46.1070 H   0  0  0  0  0  0  0  0  0  0  0  0
   39.3230   33.6320   45.1310 H   0  0  0  0  0  0  0  0  0  0  0  0
   37.7640   30.9740   47.7420 C   0  0  0  0  0  0  0  0  0  0  0  0
   37.0510   30.7500   46.5800 C   0  0  0  0  0  0  0  0  0  0  0  0
   37.7550   31.3790   45.5450 C   0  0  0  0  0  0  0  0  0  0  0  0
   38.8250   31.9370   46.1080 N   0  0  0  0  0  0  0  0  0  0  0  0
   38.8270   31.6930   47.4110 N   0  0  0  0  0  0  0  0  0  0  0  0
   36.1040   30.1820   46.4950 H   0  0  0  0  0  0  0  0  0  0  0  0
   37.3470   31.3010   44.6060 H   0  0  0  0  0  0  0  0  0  0  0  0
   37.4460   30.2120   51.4010 C   0  0  0  0  0  0  0  0  0  0  0  0
   37.9540   30.7450   50.2320 C   0  0  0  0  0  0  0  0  0  0  0  0
   37.3300   30.4680   49.0250 C   0  0  0  0  0  0  0  0  0  0  0  0
   36.2390   29.6740   49.0970 N   0  0  0  0  0  0  0  0  0  0  0  0
   35.7490   29.1550   50.2530 C   0  0  0  0  0  0  0  0  0  0  0  0
   36.3580   29.4300   51.3940 N   0  0  0  0  0  0  0  0  0  0  0  0
   37.9440   30.4380   52.3210 H   0  0  0  0  0  0  0  0  0  0  0  0
   38.8290   31.3770   50.2030 H   0  0  0  0  0  0  0  0  0  0  0  0
   34.8770   28.5310   50.2360 H   0  0  0  0  0  0  0  0  0  0  0  0
  1  3  1  0  0  0  0
  1  2  1  0  0  0  0
  1 21  1  0  0  0  0
  4  1  1  0  0  0  0
  5  4  1  0  0  0  0
  5 10  1  0  0  0  0
  6  5  1  0  0  0  0
  6 12  1  0  0  0  0
  7  8  1  0  0  0  0
  7  6  1  0  0  0  0
  8  9  1  0  0  0  0
  8 14  1  0  0  0  0
  9 16  1  6  0  0  0
  9 17  1  0  0  0  0
  9  4  1  0  0  0  0
 11  5  1  0  0  0  0
 13  6  1  0  0  0  0
 15  8  1  0  0  0  0
 17 20  1  0  0  0  0
 17 19  1  0  0  0  0
 18 17  1  0  0  0  0
 21 22  1  0  0  0  0
 21 27  1  0  0  0  0
 23 21  1  0  0  0  0
 24 33  1  0  0  0  0
 25 24  1  0  0  0  0
 26 27  1  0  0  0  0
 26 25  2  0  0  0  0
 27 28  1  0  0  0  0
 28 24  2  0  0  0  0
 29 25  1  0  0  0  0
 30 26  1  0  0  0  0
 31 37  1  0  0  0  0
 32 31  2  0  0  0  0
 33 34  2  0  0  0  0
 33 32  1  0  0  0  0
 34 35  1  0  0  0  0
 35 36  2  0  0  0  0
 36 31  1  0  0  0  0
 38 32  1  0  0  0  0
 39 35  1  0  0  0  0
M  END
>  <minimizedAffinity>
-5.60554171

>  <minimizedRMSD>
0.90752095

$$$$
