
 OpenBabel03272508323D

 40 43  0  0  1  0  0  0  0  0999 V2000
   37.8460   25.3320   32.9510 N   0  0  0  0  0  0  0  0  0  0  0  0
   36.6190   25.9540   32.4970 C   0  0  0  0  0  0  0  0  0  0  0  0
   36.5350   26.0500   31.0170 C   0  0  0  0  0  0  0  0  0  0  0  0
   37.3700   25.0470   30.4010 N   0  0  0  0  0  0  0  0  0  0  0  0
   38.7560   25.4190   30.6780 C   0  0  0  0  0  0  0  0  0  0  0  0
   39.0110   25.0280   32.0970 C   0  0  1  0  0  0  0  0  0  0  0  0
   35.7660   25.4050   32.9260 H   0  0  0  0  0  0  0  0  0  0  0  0
   36.5850   26.9670   32.9790 H   0  0  0  0  0  0  0  0  0  0  0  0
   35.5040   26.0410   30.6550 H   0  0  0  0  0  0  0  0  0  0  0  0
   36.9640   27.0450   30.7230 H   0  0  0  0  0  0  0  0  0  0  0  0
   37.1800   24.1150   30.8070 H   0  0  0  0  0  0  0  0  0  0  0  0
   39.3950   24.8590   29.9850 H   0  0  0  0  0  0  0  0  0  0  0  0
   38.8060   26.5230   30.5460 H   0  0  0  0  0  0  0  0  0  0  0  0
   39.1080   23.9330   32.1750 H   0  0  0  0  0  0  0  0  0  0  0  0
   40.5260   26.9830   32.6720 C   0  0  0  0  0  0  0  0  0  0  0  0
   40.2620   25.6090   32.6350 C   0  0  0  0  0  0  0  0  0  0  0  0
   41.1710   24.7080   33.1560 C   0  0  0  0  0  0  0  0  0  0  0  0
   42.3250   25.2150   33.7110 C   0  0  0  0  0  0  0  0  0  0  0  0
   42.5840   26.6070   33.7440 C   0  0  0  0  0  0  0  0  0  0  0  0
   41.6680   27.5290   33.2130 C   0  0  0  0  0  0  0  0  0  0  0  0
   43.8260   26.8450   34.3570 O   0  0  0  0  0  0  0  0  0  0  0  0
   44.1480   25.6680   35.0530 C   0  0  0  0  0  0  0  0  0  0  0  0
   43.4460   24.6550   34.3310 O   0  0  0  0  0  0  0  0  0  0  0  0
   39.8030   27.6660   32.2560 H   0  0  0  0  0  0  0  0  0  0  0  0
   41.2500   23.6500   33.1800 H   0  0  0  0  0  0  0  0  0  0  0  0
   41.8620   28.5860   33.2350 H   0  0  0  0  0  0  0  0  0  0  0  0
   43.6120   25.7110   36.0450 H   0  0  0  0  0  0  0  0  0  0  0  0
   45.2110   25.4570   35.1640 H   0  0  0  0  0  0  0  0  0  0  0  0
   38.0590   23.6140   34.7050 C   0  0  0  0  0  0  0  0  0  0  0  0
   37.9500   24.9720   34.3300 C   0  0  0  0  0  0  0  0  0  0  0  0
   37.9680   25.9140   35.3380 C   0  0  0  0  0  0  0  0  0  0  0  0
   38.0900   25.4930   36.6410 N   0  0  0  0  0  0  0  0  0  0  0  0
   38.1920   24.1930   36.9430 C   0  0  0  0  0  0  0  0  0  0  0  0
   38.1780   23.2420   35.9980 N   0  0  0  0  0  0  0  0  0  0  0  0
   38.0390   22.9060   33.8690 H   0  0  0  0  0  0  0  0  0  0  0  0
   37.8850   26.9580   35.0900 H   0  0  0  0  0  0  0  0  0  0  0  0
   38.3220   23.8250   38.3830 C   0  0  0  0  0  0  0  0  0  0  0  0
   39.5550   23.3150   38.6970 F   0  0  0  0  0  0  0  0  0  0  0  0
   37.3350   22.8920   38.7150 F   0  0  0  0  0  0  0  0  0  0  0  0
   38.0390   24.9640   39.1130 F   0  0  0  0  0  0  0  0  0  0  0  0
  1 30  1  0  0  0  0
  2  7  1  0  0  0  0
  2  1  1  0  0  0  0
  2  8  1  0  0  0  0
  3  2  1  0  0  0  0
  4  5  1  0  0  0  0
  4 11  1  0  0  0  0
  4  3  1  0  0  0  0
  5  6  1  0  0  0  0
  6 14  1  1  0  0  0
  6 16  1  0  0  0  0
  6  1  1  0  0  0  0
  9  3  1  0  0  0  0
 10  3  1  0  0  0  0
 12  5  1  0  0  0  0
 13  5  1  0  0  0  0
 15 20  1  0  0  0  0
 16 15  2  0  0  0  0
 16 17  1  0  0  0  0
 17 25  1  0  0  0  0
 17 18  2  0  0  0  0
 18 19  1  0  0  0  0
 18 23  1  0  0  0  0
 19 21  1  0  0  0  0
 20 26  1  0  0  0  0
 20 19  2  0  0  0  0
 21 22  1  0  0  0  0
 22 28  1  0  0  0  0
 22 27  1  0  0  0  0
 23 22  1  0  0  0  0
 24 15  1  0  0  0  0
 29 34  1  0  0  0  0
 30 29  2  0  0  0  0
 30 31  1  0  0  0  0
 31 32  2  0  0  0  0
 32 33  1  0  0  0  0
 33 37  1  0  0  0  0
 34 33  2  0  0  0  0
 35 29  1  0  0  0  0
 36 31  1  0  0  0  0
 37 38  1  0  0  0  0
 37 39  1  0  0  0  0
 37 40  1  0  0  0  0
M  END
>  <minimizedAffinity>
-5.92824411

$$$$

 OpenBabel03272508323D

 40 43  0  0  1  0  0  0  0  0999 V2000
   36.6360   20.7260   32.7460 N   0  0  0  0  0  0  0  0  0  0  0  0
   35.6660   19.7410   33.1790 C   0  0  0  0  0  0  0  0  0  0  0  0
   35.0320   19.0200   32.0450 C   0  0  0  0  0  0  0  0  0  0  0  0
   35.8910   19.0550   30.8860 N   0  0  0  0  0  0  0  0  0  0  0  0
   35.9210   20.4390   30.4200 C   0  0  0  0  0  0  0  0  0  0  0  0
   36.8360   21.1660   31.3510 C   0  0  1  0  0  0  0  0  0  0  0  0
   36.1530   19.0530   33.8870 H   0  0  0  0  0  0  0  0  0  0  0  0
   34.9070   20.2980   33.7900 H   0  0  0  0  0  0  0  0  0  0  0  0
   34.7090   18.0130   32.3180 H   0  0  0  0  0  0  0  0  0  0  0  0
   34.1020   19.5850   31.7690 H   0  0  0  0  0  0  0  0  0  0  0  0
   36.8500   18.7570   31.1340 H   0  0  0  0  0  0  0  0  0  0  0  0
   36.3100   20.4360   29.3950 H   0  0  0  0  0  0  0  0  0  0  0  0
   34.8760   20.8120   30.5060 H   0  0  0  0  0  0  0  0  0  0  0  0
   37.8830   20.8910   31.1420 H   0  0  0  0  0  0  0  0  0  0  0  0
   35.6010   23.3760   31.5430 C   0  0  0  0  0  0  0  0  0  0  0  0
   36.7430   22.6370   31.2130 C   0  0  0  0  0  0  0  0  0  0  0  0
   37.8860   23.2750   30.7700 C   0  0  0  0  0  0  0  0  0  0  0  0
   37.8530   24.6490   30.6760 C   0  0  0  0  0  0  0  0  0  0  0  0
   36.6930   25.3890   31.0120 C   0  0  0  0  0  0  0  0  0  0  0  0
   35.5260   24.7490   31.4590 C   0  0  0  0  0  0  0  0  0  0  0  0
   36.9320   26.7600   30.8210 O   0  0  0  0  0  0  0  0  0  0  0  0
   38.3280   26.9070   30.7580 C   0  0  0  0  0  0  0  0  0  0  0  0
   38.7730   25.6300   30.2950 O   0  0  0  0  0  0  0  0  0  0  0  0
   34.7210   22.8560   31.8840 H   0  0  0  0  0  0  0  0  0  0  0  0
   38.8240   22.9570   30.3900 H   0  0  0  0  0  0  0  0  0  0  0  0
   34.6440   25.3070   31.7140 H   0  0  0  0  0  0  0  0  0  0  0  0
   38.7070   26.9540   31.8200 H   0  0  0  0  0  0  0  0  0  0  0  0
   38.6930   27.7340   30.1510 H   0  0  0  0  0  0  0  0  0  0  0  0
   36.9370   21.7550   34.9650 C   0  0  0  0  0  0  0  0  0  0  0  0
   37.4790   21.3220   33.7340 C   0  0  0  0  0  0  0  0  0  0  0  0
   38.8360   21.4850   33.5430 C   0  0  0  0  0  0  0  0  0  0  0  0
   39.5860   22.0500   34.5470 N   0  0  0  0  0  0  0  0  0  0  0  0
   39.0240   22.4420   35.6960 C   0  0  0  0  0  0  0  0  0  0  0  0
   37.7110   22.3050   35.9270 N   0  0  0  0  0  0  0  0  0  0  0  0
   35.8570   21.6050   35.0670 H   0  0  0  0  0  0  0  0  0  0  0  0
   39.2820   21.1690   32.6170 H   0  0  0  0  0  0  0  0  0  0  0  0
   39.9140   23.0440   36.7310 C   0  0  0  0  0  0  0  0  0  0  0  0
   40.9450   23.7720   36.1960 F   0  0  0  0  0  0  0  0  0  0  0  0
   40.4330   22.0310   37.5440 F   0  0  0  0  0  0  0  0  0  0  0  0
   39.1100   23.8200   37.5460 F   0  0  0  0  0  0  0  0  0  0  0  0
  1  2  1  0  0  0  0
  1 30  1  0  0  0  0
  2  8  1  0  0  0  0
  2  7  1  0  0  0  0
  3  9  1  0  0  0  0
  3  2  1  0  0  0  0
  4 11  1  0  0  0  0
  4  3  1  0  0  0  0
  5 13  1  0  0  0  0
  5  4  1  0  0  0  0
  5  6  1  0  0  0  0
  6 14  1  6  0  0  0
  6  1  1  0  0  0  0
 10  3  1  0  0  0  0
 12  5  1  0  0  0  0
 15 24  1  0  0  0  0
 16  6  1  0  0  0  0
 16 15  2  0  0  0  0
 17 16  1  0  0  0  0
 18 17  2  0  0  0  0
 18 19  1  0  0  0  0
 19 20  2  0  0  0  0
 20 15  1  0  0  0  0
 20 26  1  0  0  0  0
 21 19  1  0  0  0  0
 22 21  1  0  0  0  0
 22 27  1  0  0  0  0
 23 18  1  0  0  0  0
 23 22  1  0  0  0  0
 25 17  1  0  0  0  0
 28 22  1  0  0  0  0
 29 35  1  0  0  0  0
 29 34  1  0  0  0  0
 30 29  2  0  0  0  0
 31 30  1  0  0  0  0
 31 32  2  0  0  0  0
 32 33  1  0  0  0  0
 33 34  2  0  0  0  0
 33 37  1  0  0  0  0
 36 31  1  0  0  0  0
 37 39  1  0  0  0  0
 37 40  1  0  0  0  0
 38 37  1  0  0  0  0
M  END
>  <minimizedAffinity>
-5.68337965

$$$$

 OpenBabel03272508323D

 40 43  0  0  1  0  0  0  0  0999 V2000
   39.0070   26.0100   32.7040 N   0  0  0  0  0  0  0  0  0  0  0  0
   40.2250   26.7580   32.4690 C   0  0  0  0  0  0  0  0  0  0  0  0
   40.2140   27.4840   31.1730 C   0  0  0  0  0  0  0  0  0  0  0  0
   38.8570   27.7290   30.7470 N   0  0  0  0  0  0  0  0  0  0  0  0
   38.2790   26.4330   30.4040 C   0  0  0  0  0  0  0  0  0  0  0  0
   37.9490   25.7720   31.7020 C   0  0  1  0  0  0  0  0  0  0  0  0
   40.3930   27.4340   33.3220 H   0  0  0  0  0  0  0  0  0  0  0  0
   41.0630   26.0130   32.5190 H   0  0  0  0  0  0  0  0  0  0  0  0
   40.8340   28.3830   31.1930 H   0  0  0  0  0  0  0  0  0  0  0  0
   40.6700   26.8030   30.4060 H   0  0  0  0  0  0  0  0  0  0  0  0
   38.3070   28.1560   31.5110 H   0  0  0  0  0  0  0  0  0  0  0  0
   37.3780   26.6190   29.8070 H   0  0  0  0  0  0  0  0  0  0  0  0
   39.0750   25.8790   29.8580 H   0  0  0  0  0  0  0  0  0  0  0  0
   37.0600   26.2440   32.1500 H   0  0  0  0  0  0  0  0  0  0  0  0
   38.5450   23.3940   31.0400 C   0  0  0  0  0  0  0  0  0  0  0  0
   37.6400   24.3320   31.5510 C   0  0  0  0  0  0  0  0  0  0  0  0
   36.3920   23.9330   31.9890 C   0  0  0  0  0  0  0  0  0  0  0  0
   36.0870   22.5920   31.9100 C   0  0  0  0  0  0  0  0  0  0  0  0
   37.0090   21.6500   31.3920 C   0  0  0  0  0  0  0  0  0  0  0  0
   38.2770   22.0470   30.9400 C   0  0  0  0  0  0  0  0  0  0  0  0
   36.4420   20.3650   31.4210 O   0  0  0  0  0  0  0  0  0  0  0  0
   35.3540   20.4390   32.3080 C   0  0  0  0  0  0  0  0  0  0  0  0
   34.9750   21.8160   32.2490 O   0  0  0  0  0  0  0  0  0  0  0  0
   39.5120   23.7300   30.7010 H   0  0  0  0  0  0  0  0  0  0  0  0
   35.5210   24.4330   32.3300 H   0  0  0  0  0  0  0  0  0  0  0  0
   38.9790   21.3350   30.5450 H   0  0  0  0  0  0  0  0  0  0  0  0
   35.7660   20.3190   33.3510 H   0  0  0  0  0  0  0  0  0  0  0  0
   34.5290   19.7580   32.1060 H   0  0  0  0  0  0  0  0  0  0  0  0
   39.6420   24.4390   34.4940 C   0  0  0  0  0  0  0  0  0  0  0  0
   38.7940   25.4580   34.0050 C   0  0  0  0  0  0  0  0  0  0  0  0
   37.7820   25.8970   34.8340 C   0  0  0  0  0  0  0  0  0  0  0  0
   37.6500   25.3310   36.0810 N   0  0  0  0  0  0  0  0  0  0  0  0
   38.4820   24.3690   36.4970 C   0  0  0  0  0  0  0  0  0  0  0  0
   39.4780   23.9100   35.7260 N   0  0  0  0  0  0  0  0  0  0  0  0
   40.4280   24.1250   33.7980 H   0  0  0  0  0  0  0  0  0  0  0  0
   37.1160   26.6700   34.4940 H   0  0  0  0  0  0  0  0  0  0  0  0
   38.2670   23.8120   37.8640 C   0  0  0  0  0  0  0  0  0  0  0  0
   37.2540   22.8910   37.9160 F   0  0  0  0  0  0  0  0  0  0  0  0
   37.9910   24.8570   38.7520 F   0  0  0  0  0  0  0  0  0  0  0  0
   39.4730   23.2690   38.2680 F   0  0  0  0  0  0  0  0  0  0  0  0
  1 30  1  0  0  0  0
  2  8  1  0  0  0  0
  2  1  1  0  0  0  0
  2  7  1  0  0  0  0
  3  9  1  0  0  0  0
  3  2  1  0  0  0  0
  4  3  1  0  0  0  0
  4 11  1  0  0  0  0
  5  4  1  0  0  0  0
  5  6  1  0  0  0  0
  6 14  1  1  0  0  0
  6  1  1  0  0  0  0
 10  3  1  0  0  0  0
 12  5  1  0  0  0  0
 13  5  1  0  0  0  0
 15 16  1  0  0  0  0
 16  6  1  0  0  0  0
 16 17  2  0  0  0  0
 17 25  1  0  0  0  0
 18 17  1  0  0  0  0
 18 23  1  0  0  0  0
 19 21  1  0  0  0  0
 19 18  2  0  0  0  0
 20 15  2  0  0  0  0
 20 19  1  0  0  0  0
 21 22  1  0  0  0  0
 22 27  1  0  0  0  0
 23 22  1  0  0  0  0
 24 15  1  0  0  0  0
 26 20  1  0  0  0  0
 28 22  1  0  0  0  0
 29 34  1  0  0  0  0
 30 29  2  0  0  0  0
 30 31  1  0  0  0  0
 31 32  2  0  0  0  0
 32 33  1  0  0  0  0
 33 37  1  0  0  0  0
 34 33  2  0  0  0  0
 35 29  1  0  0  0  0
 36 31  1  0  0  0  0
 37 38  1  0  0  0  0
 37 40  1  0  0  0  0
 37 39  1  0  0  0  0
M  END
>  <minimizedAffinity>
-5.60051489

$$$$

 OpenBabel03272508323D

 40 43  0  0  1  0  0  0  0  0999 V2000
   39.5280   25.3960   32.7450 N   0  0  0  0  0  0  0  0  0  0  0  0
   40.9270   25.6620   32.4780 C   0  0  0  0  0  0  0  0  0  0  0  0
   41.1510   26.2930   31.1520 C   0  0  0  0  0  0  0  0  0  0  0  0
   39.9580   26.9800   30.7160 N   0  0  0  0  0  0  0  0  0  0  0  0
   38.9590   25.9540   30.4280 C   0  0  0  0  0  0  0  0  0  0  0  0
   38.4390   25.5030   31.7540 C   0  0  1  0  0  0  0  0  0  0  0  0
   41.3330   26.2700   33.3010 H   0  0  0  0  0  0  0  0  0  0  0  0
   41.4530   24.6740   32.5590 H   0  0  0  0  0  0  0  0  0  0  0  0
   42.0460   26.9190   31.1330 H   0  0  0  0  0  0  0  0  0  0  0  0
   41.3290   25.4650   30.4150 H   0  0  0  0  0  0  0  0  0  0  0  0
   39.6030   27.6020   31.4610 H   0  0  0  0  0  0  0  0  0  0  0  0
   38.1710   26.4190   29.8240 H   0  0  0  0  0  0  0  0  0  0  0  0
   39.5040   25.1360   29.9060 H   0  0  0  0  0  0  0  0  0  0  0  0
   37.7770   26.2740   32.1820 H   0  0  0  0  0  0  0  0  0  0  0  0
   36.2700   24.1940   31.9200 C   0  0  0  0  0  0  0  0  0  0  0  0
   37.6440   24.2570   31.6640 C   0  0  0  0  0  0  0  0  0  0  0  0
   38.3340   23.1280   31.2640 C   0  0  0  0  0  0  0  0  0  0  0  0
   37.6170   21.9600   31.1220 C   0  0  0  0  0  0  0  0  0  0  0  0
   36.2260   21.9060   31.3820 C   0  0  0  0  0  0  0  0  0  0  0  0
   35.5190   23.0470   31.7940 C   0  0  0  0  0  0  0  0  0  0  0  0
   35.7520   20.6010   31.1640 O   0  0  0  0  0  0  0  0  0  0  0  0
   36.7350   19.9530   30.3980 C   0  0  0  0  0  0  0  0  0  0  0  0
   37.9340   20.6540   30.7380 O   0  0  0  0  0  0  0  0  0  0  0  0
   35.7540   25.0870   32.2340 H   0  0  0  0  0  0  0  0  0  0  0  0
   39.3540   22.8930   31.0930 H   0  0  0  0  0  0  0  0  0  0  0  0
   34.4630   23.0090   31.9930 H   0  0  0  0  0  0  0  0  0  0  0  0
   36.5570   20.2340   29.3200 H   0  0  0  0  0  0  0  0  0  0  0  0
   36.8140   18.8760   30.5390 H   0  0  0  0  0  0  0  0  0  0  0  0
   39.7210   23.8530   34.6570 C   0  0  0  0  0  0  0  0  0  0  0  0
   39.1550   25.0060   34.0680 C   0  0  0  0  0  0  0  0  0  0  0  0
   38.2580   25.7320   34.8240 C   0  0  0  0  0  0  0  0  0  0  0  0
   37.9620   25.3050   36.0980 N   0  0  0  0  0  0  0  0  0  0  0  0
   38.5270   24.2060   36.6090 C   0  0  0  0  0  0  0  0  0  0  0  0
   39.4030   23.4680   35.9120 N   0  0  0  0  0  0  0  0  0  0  0  0
   40.4260   23.3110   34.0160 H   0  0  0  0  0  0  0  0  0  0  0  0
   37.8050   26.6150   34.4080 H   0  0  0  0  0  0  0  0  0  0  0  0
   38.1500   23.8170   37.9990 C   0  0  0  0  0  0  0  0  0  0  0  0
   37.7730   24.8840   38.7720 F   0  0  0  0  0  0  0  0  0  0  0  0
   39.2250   23.1600   38.6060 F   0  0  0  0  0  0  0  0  0  0  0  0
   37.1370   22.8820   37.8900 F   0  0  0  0  0  0  0  0  0  0  0  0
  1 30  1  0  0  0  0
  2  8  1  0  0  0  0
  2  1  1  0  0  0  0
  2  7  1  0  0  0  0
  3  2  1  0  0  0  0
  4  3  1  0  0  0  0
  4 11  1  0  0  0  0
  5  4  1  0  0  0  0
  5  6  1  0  0  0  0
  6 14  1  1  0  0  0
  6  1  1  0  0  0  0
  9  3  1  0  0  0  0
 10  3  1  0  0  0  0
 12  5  1  0  0  0  0
 13  5  1  0  0  0  0
 15 24  1  0  0  0  0
 16  6  1  0  0  0  0
 16 15  2  0  0  0  0
 17 16  1  0  0  0  0
 18 17  2  0  0  0  0
 18 19  1  0  0  0  0
 19 20  2  0  0  0  0
 20 15  1  0  0  0  0
 20 26  1  0  0  0  0
 21 19  1  0  0  0  0
 22 28  1  0  0  0  0
 22 23  1  0  0  0  0
 22 21  1  0  0  0  0
 23 18  1  0  0  0  0
 25 17  1  0  0  0  0
 27 22  1  0  0  0  0
 29 34  1  0  0  0  0
 30 29  2  0  0  0  0
 30 31  1  0  0  0  0
 31 32  2  0  0  0  0
 32 33  1  0  0  0  0
 33 37  1  0  0  0  0
 34 33  2  0  0  0  0
 35 29  1  0  0  0  0
 36 31  1  0  0  0  0
 37 39  1  0  0  0  0
 37 38  1  0  0  0  0
 40 37  1  0  0  0  0
M  END
>  <minimizedAffinity>
-5.56597376

$$$$

 OpenBabel03272508323D

 40 43  0  0  1  0  0  0  0  0999 V2000
   38.7700   24.4120   31.6360 N   0  0  0  0  0  0  0  0  0  0  0  0
   38.5720   25.2350   30.4610 C   0  0  0  0  0  0  0  0  0  0  0  0
   39.6860   26.1920   30.2330 C   0  0  0  0  0  0  0  0  0  0  0  0
   40.8950   25.7110   30.8560 N   0  0  0  0  0  0  0  0  0  0  0  0
   40.6880   25.7850   32.3000 C   0  0  0  0  0  0  0  0  0  0  0  0
   39.8210   24.6200   32.6520 C   0  0  1  0  0  0  0  0  0  0  0  0
   38.4050   24.5780   29.5940 H   0  0  0  0  0  0  0  0  0  0  0  0
   37.5950   25.7670   30.6150 H   0  0  0  0  0  0  0  0  0  0  0  0
   39.8100   26.4440   29.1780 H   0  0  0  0  0  0  0  0  0  0  0  0
   39.4160   27.1480   30.7570 H   0  0  0  0  0  0  0  0  0  0  0  0
   41.0770   24.7290   30.5890 H   0  0  0  0  0  0  0  0  0  0  0  0
   41.6710   25.7150   32.7810 H   0  0  0  0  0  0  0  0  0  0  0  0
   40.1640   26.7500   32.4830 H   0  0  0  0  0  0  0  0  0  0  0  0
   40.4080   23.6880   32.6100 H   0  0  0  0  0  0  0  0  0  0  0  0
   38.2660   25.6240   34.3900 C   0  0  0  0  0  0  0  0  0  0  0  0
   39.2620   24.7140   34.0200 C   0  0  0  0  0  0  0  0  0  0  0  0
   39.7530   23.8040   34.9360 C   0  0  0  0  0  0  0  0  0  0  0  0
   39.2210   23.8280   36.2070 C   0  0  0  0  0  0  0  0  0  0  0  0
   38.2120   24.7530   36.5720 C   0  0  0  0  0  0  0  0  0  0  0  0
   37.7110   25.6840   35.6480 C   0  0  0  0  0  0  0  0  0  0  0  0
   37.8570   24.5620   37.9180 O   0  0  0  0  0  0  0  0  0  0  0  0
   38.3360   23.2890   38.2710 C   0  0  0  0  0  0  0  0  0  0  0  0
   39.4320   23.0900   37.3750 O   0  0  0  0  0  0  0  0  0  0  0  0
   37.9010   26.3270   33.6570 H   0  0  0  0  0  0  0  0  0  0  0  0
   40.5360   23.0880   34.9390 H   0  0  0  0  0  0  0  0  0  0  0  0
   36.9460   26.3880   35.9220 H   0  0  0  0  0  0  0  0  0  0  0  0
   37.5680   22.5370   37.9260 H   0  0  0  0  0  0  0  0  0  0  0  0
   38.6070   23.1560   39.3170 H   0  0  0  0  0  0  0  0  0  0  0  0
   36.4940   23.4960   31.8740 C   0  0  0  0  0  0  0  0  0  0  0  0
   37.8940   23.3020   31.8390 C   0  0  0  0  0  0  0  0  0  0  0  0
   38.3610   22.0120   31.9890 C   0  0  0  0  0  0  0  0  0  0  0  0
   37.4550   20.9910   32.1620 N   0  0  0  0  0  0  0  0  0  0  0  0
   36.1390   21.2300   32.1850 C   0  0  0  0  0  0  0  0  0  0  0  0
   35.6380   22.4650   32.0450 N   0  0  0  0  0  0  0  0  0  0  0  0
   36.1740   24.5370   31.7510 H   0  0  0  0  0  0  0  0  0  0  0  0
   39.4210   21.8260   31.9700 H   0  0  0  0  0  0  0  0  0  0  0  0
   35.2290   20.0630   32.3760 C   0  0  0  0  0  0  0  0  0  0  0  0
   33.9190   20.3520   32.0910 F   0  0  0  0  0  0  0  0  0  0  0  0
   35.3280   19.6070   33.6940 F   0  0  0  0  0  0  0  0  0  0  0  0
   35.7130   19.0440   31.5760 F   0  0  0  0  0  0  0  0  0  0  0  0
  1 30  1  0  0  0  0
  1  6  1  0  0  0  0
  2  8  1  0  0  0  0
  2  1  1  0  0  0  0
  3  2  1  0  0  0  0
  3 10  1  0  0  0  0
  3  4  1  0  0  0  0
  4  5  1  0  0  0  0
  5 13  1  0  0  0  0
  5  6  1  0  0  0  0
  5 12  1  0  0  0  0
  6 14  1  6  0  0  0
  6 16  1  0  0  0  0
  7  2  1  0  0  0  0
  9  3  1  0  0  0  0
 11  4  1  0  0  0  0
 15 20  1  0  0  0  0
 16 15  2  0  0  0  0
 16 17  1  0  0  0  0
 17 25  1  0  0  0  0
 17 18  2  0  0  0  0
 18 19  1  0  0  0  0
 18 23  1  0  0  0  0
 19 21  1  0  0  0  0
 20 26  1  0  0  0  0
 20 19  2  0  0  0  0
 21 22  1  0  0  0  0
 22 28  1  0  0  0  0
 23 22  1  0  0  0  0
 24 15  1  0  0  0  0
 27 22  1  0  0  0  0
 29 34  1  0  0  0  0
 30 29  2  0  0  0  0
 30 31  1  0  0  0  0
 31 32  2  0  0  0  0
 32 33  1  0  0  0  0
 33 37  1  0  0  0  0
 34 33  2  0  0  0  0
 35 29  1  0  0  0  0
 36 31  1  0  0  0  0
 37 39  1  0  0  0  0
 38 37  1  0  0  0  0
 40 37  1  0  0  0  0
M  END
>  <minimizedAffinity>
-5.55729771

$$$$

 OpenBabel03272508323D

 40 43  0  0  1  0  0  0  0  0999 V2000
   38.7070   21.7520   32.5440 N   0  0  0  0  0  0  0  0  0  0  0  0
   38.5190   20.3380   32.2950 C   0  0  0  0  0  0  0  0  0  0  0  0
   38.8610   19.9470   30.9030 C   0  0  0  0  0  0  0  0  0  0  0  0
   39.7890   20.8930   30.3310 N   0  0  0  0  0  0  0  0  0  0  0  0
   39.0630   22.1470   30.1520 C   0  0  0  0  0  0  0  0  0  0  0  0
   38.9760   22.7690   31.5080 C   0  0  1  0  0  0  0  0  0  0  0  0
   39.0980   19.7690   33.0390 H   0  0  0  0  0  0  0  0  0  0  0  0
   37.4450   20.1190   32.5340 H   0  0  0  0  0  0  0  0  0  0  0  0
   39.1950   18.9100   30.8300 H   0  0  0  0  0  0  0  0  0  0  0  0
   37.9190   20.0200   30.2960 H   0  0  0  0  0  0  0  0  0  0  0  0
   40.5890   21.0500   30.9680 H   0  0  0  0  0  0  0  0  0  0  0  0
   39.6410   22.7710   29.4600 H   0  0  0  0  0  0  0  0  0  0  0  0
   38.0560   21.8650   29.7710 H   0  0  0  0  0  0  0  0  0  0  0  0
   39.9580   23.1780   31.7990 H   0  0  0  0  0  0  0  0  0  0  0  0
   36.6350   23.7390   31.3590 C   0  0  0  0  0  0  0  0  0  0  0  0
   38.0110   23.8900   31.5640 C   0  0  0  0  0  0  0  0  0  0  0  0
   38.5400   25.1270   31.8810 C   0  0  0  0  0  0  0  0  0  0  0  0
   37.6650   26.1850   31.9910 C   0  0  0  0  0  0  0  0  0  0  0  0
   36.2730   26.0230   31.7810 C   0  0  0  0  0  0  0  0  0  0  0  0
   35.7280   24.7710   31.4550 C   0  0  0  0  0  0  0  0  0  0  0  0
   35.6200   27.2560   31.9510 O   0  0  0  0  0  0  0  0  0  0  0  0
   36.5200   28.0810   32.6450 C   0  0  0  0  0  0  0  0  0  0  0  0
   37.7980   27.5430   32.2960 O   0  0  0  0  0  0  0  0  0  0  0  0
   36.2460   22.7650   31.1100 H   0  0  0  0  0  0  0  0  0  0  0  0
   39.5190   25.5160   32.0010 H   0  0  0  0  0  0  0  0  0  0  0  0
   34.6730   24.6450   31.2940 H   0  0  0  0  0  0  0  0  0  0  0  0
   36.4180   27.8370   33.7420 H   0  0  0  0  0  0  0  0  0  0  0  0
   36.4370   29.1490   32.4470 H   0  0  0  0  0  0  0  0  0  0  0  0
   37.4810   21.9730   34.6710 C   0  0  0  0  0  0  0  0  0  0  0  0
   38.6360   22.2150   33.8940 C   0  0  0  0  0  0  0  0  0  0  0  0
   39.6780   22.8910   34.4960 C   0  0  0  0  0  0  0  0  0  0  0  0
   39.5440   23.2900   35.8060 N   0  0  0  0  0  0  0  0  0  0  0  0
   38.4290   23.0330   36.4980 C   0  0  0  0  0  0  0  0  0  0  0  0
   37.3900   22.3820   35.9550 N   0  0  0  0  0  0  0  0  0  0  0  0
   36.6830   21.4350   34.1470 H   0  0  0  0  0  0  0  0  0  0  0  0
   40.5730   23.0950   33.9350 H   0  0  0  0  0  0  0  0  0  0  0  0
   38.3700   23.5010   37.9130 C   0  0  0  0  0  0  0  0  0  0  0  0
   37.3980   22.8710   38.6470 F   0  0  0  0  0  0  0  0  0  0  0  0
   38.1490   24.8820   37.9380 F   0  0  0  0  0  0  0  0  0  0  0  0
   39.6280   23.3010   38.4520 F   0  0  0  0  0  0  0  0  0  0  0  0
  1 30  1  0  0  0  0
  2  8  1  0  0  0  0
  2  1  1  0  0  0  0
  2  7  1  0  0  0  0
  3  2  1  0  0  0  0
  4  3  1  0  0  0  0
  4 11  1  0  0  0  0
  5  4  1  0  0  0  0
  5  6  1  0  0  0  0
  6 16  1  0  0  0  0
  6 14  1  1  0  0  0
  6  1  1  0  0  0  0
  9  3  1  0  0  0  0
 10  3  1  0  0  0  0
 12  5  1  0  0  0  0
 13  5  1  0  0  0  0
 15 20  2  0  0  0  0
 15 16  1  0  0  0  0
 16 17  2  0  0  0  0
 17 18  1  0  0  0  0
 17 25  1  0  0  0  0
 18 23  1  0  0  0  0
 19 21  1  0  0  0  0
 19 18  2  0  0  0  0
 20 19  1  0  0  0  0
 21 22  1  0  0  0  0
 22 27  1  0  0  0  0
 23 22  1  0  0  0  0
 24 15  1  0  0  0  0
 26 20  1  0  0  0  0
 28 22  1  0  0  0  0
 29 34  1  0  0  0  0
 30 31  1  0  0  0  0
 30 29  2  0  0  0  0
 31 32  2  0  0  0  0
 32 33  1  0  0  0  0
 33 37  1  0  0  0  0
 34 33  2  0  0  0  0
 35 29  1  0  0  0  0
 36 31  1  0  0  0  0
 37 39  1  0  0  0  0
 37 40  1  0  0  0  0
 37 38  1  0  0  0  0
M  END
>  <minimizedAffinity>
-5.49357224

$$$$

 OpenBabel03272508323D

 40 43  0  0  1  0  0  0  0  0999 V2000
   40.2520   24.4650   33.8630 N   0  0  0  0  0  0  0  0  0  0  0  0
   41.4670   24.0900   33.1710 C   0  0  0  0  0  0  0  0  0  0  0  0
   42.6100   24.9850   33.4870 C   0  0  0  0  0  0  0  0  0  0  0  0
   42.4090   25.6230   34.7660 N   0  0  0  0  0  0  0  0  0  0  0  0
   41.2940   26.5530   34.6070 C   0  0  0  0  0  0  0  0  0  0  0  0
   40.0560   25.7180   34.6180 C   0  0  1  0  0  0  0  0  0  0  0  0
   41.6910   23.0360   33.3980 H   0  0  0  0  0  0  0  0  0  0  0  0
   41.2200   24.1050   32.0760 H   0  0  0  0  0  0  0  0  0  0  0  0
   43.5740   24.4800   33.3980 H   0  0  0  0  0  0  0  0  0  0  0  0
   42.6120   25.8050   32.7190 H   0  0  0  0  0  0  0  0  0  0  0  0
   42.1680   24.9230   35.4880 H   0  0  0  0  0  0  0  0  0  0  0  0
   41.3190   27.2490   35.4540 H   0  0  0  0  0  0  0  0  0  0  0  0
   41.4440   27.0420   33.6180 H   0  0  0  0  0  0  0  0  0  0  0  0
   39.8450   25.3710   35.6430 H   0  0  0  0  0  0  0  0  0  0  0  0
   37.7710   26.7610   34.9910 C   0  0  0  0  0  0  0  0  0  0  0  0
   38.8590   26.4610   34.1630 C   0  0  0  0  0  0  0  0  0  0  0  0
   38.8810   26.8960   32.8520 C   0  0  0  0  0  0  0  0  0  0  0  0
   37.8050   27.6330   32.4070 C   0  0  0  0  0  0  0  0  0  0  0  0
   36.7090   27.9320   33.2520 C   0  0  0  0  0  0  0  0  0  0  0  0
   36.6770   27.4900   34.5850 C   0  0  0  0  0  0  0  0  0  0  0  0
   35.7570   28.6870   32.5470 O   0  0  0  0  0  0  0  0  0  0  0  0
   36.4200   29.1930   31.4160 C   0  0  0  0  0  0  0  0  0  0  0  0
   37.4660   28.2430   31.1960 O   0  0  0  0  0  0  0  0  0  0  0  0
   37.7760   26.4080   36.0100 H   0  0  0  0  0  0  0  0  0  0  0  0
   39.5200   26.7410   32.0200 H   0  0  0  0  0  0  0  0  0  0  0  0
   35.8460   27.7150   35.2290 H   0  0  0  0  0  0  0  0  0  0  0  0
   36.9690   30.1240   31.7410 H   0  0  0  0  0  0  0  0  0  0  0  0
   35.8010   29.3610   30.5370 H   0  0  0  0  0  0  0  0  0  0  0  0
   38.5290   23.2350   32.6000 C   0  0  0  0  0  0  0  0  0  0  0  0
   39.1470   23.5580   33.8290 C   0  0  0  0  0  0  0  0  0  0  0  0
   38.6550   22.9540   34.9680 C   0  0  0  0  0  0  0  0  0  0  0  0
   37.6010   22.0780   34.8540 N   0  0  0  0  0  0  0  0  0  0  0  0
   37.0520   21.8040   33.6650 C   0  0  0  0  0  0  0  0  0  0  0  0
   37.4960   22.3670   32.5320 N   0  0  0  0  0  0  0  0  0  0  0  0
   38.9560   23.7410   31.7270 H   0  0  0  0  0  0  0  0  0  0  0  0
   39.1000   23.1780   35.9220 H   0  0  0  0  0  0  0  0  0  0  0  0
   35.9140   20.8400   33.6340 C   0  0  0  0  0  0  0  0  0  0  0  0
   35.4640   20.5000   34.8840 F   0  0  0  0  0  0  0  0  0  0  0  0
   36.3030   19.6840   32.9500 F   0  0  0  0  0  0  0  0  0  0  0  0
   34.9180   21.4240   32.8730 F   0  0  0  0  0  0  0  0  0  0  0  0
  1  6  1  0  0  0  0
  2  7  1  0  0  0  0
  2  3  1  0  0  0  0
  2  1  1  0  0  0  0
  3  4  1  0  0  0  0
  4 11  1  0  0  0  0
  5  6  1  0  0  0  0
  5  4  1  0  0  0  0
  5 12  1  0  0  0  0
  6 14  1  1  0  0  0
  8  2  1  0  0  0  0
  9  3  1  0  0  0  0
 10  3  1  0  0  0  0
 13  5  1  0  0  0  0
 15 24  1  0  0  0  0
 16  6  1  0  0  0  0
 16 15  2  0  0  0  0
 17 16  1  0  0  0  0
 18 17  2  0  0  0  0
 18 19  1  0  0  0  0
 19 20  2  0  0  0  0
 20 15  1  0  0  0  0
 20 26  1  0  0  0  0
 21 19  1  0  0  0  0
 22 27  1  0  0  0  0
 22 21  1  0  0  0  0
 23 22  1  0  0  0  0
 23 18  1  0  0  0  0
 25 17  1  0  0  0  0
 28 22  1  0  0  0  0
 29 30  1  0  0  0  0
 30  1  1  0  0  0  0
 30 31  2  0  0  0  0
 31 36  1  0  0  0  0
 32 31  1  0  0  0  0
 33 32  2  0  0  0  0
 34 29  2  0  0  0  0
 34 33  1  0  0  0  0
 35 29  1  0  0  0  0
 37 33  1  0  0  0  0
 37 38  1  0  0  0  0
 39 37  1  0  0  0  0
 40 37  1  0  0  0  0
M  END
>  <minimizedAffinity>
-5.45871639

$$$$

 OpenBabel03272508323D

 40 43  0  0  1  0  0  0  0  0999 V2000
   37.8650   25.0050   32.9120 N   0  0  0  0  0  0  0  0  0  0  0  0
   36.7400   25.8140   32.4900 C   0  0  0  0  0  0  0  0  0  0  0  0
   36.5820   25.8550   31.0130 C   0  0  0  0  0  0  0  0  0  0  0  0
   37.1880   24.6920   30.4110 N   0  0  0  0  0  0  0  0  0  0  0  0
   38.6310   24.8230   30.5920 C   0  0  0  0  0  0  0  0  0  0  0  0
   38.9030   24.4590   32.0150 C   0  0  1  0  0  0  0  0  0  0  0  0
   35.8330   25.4460   32.9940 H   0  0  0  0  0  0  0  0  0  0  0  0
   36.9150   26.8380   32.9160 H   0  0  0  0  0  0  0  0  0  0  0  0
   35.5450   26.0130   30.7090 H   0  0  0  0  0  0  0  0  0  0  0  0
   37.1590   26.7430   30.6410 H   0  0  0  0  0  0  0  0  0  0  0  0
   36.8630   23.8280   30.8790 H   0  0  0  0  0  0  0  0  0  0  0  0
   39.1180   24.1270   29.8980 H   0  0  0  0  0  0  0  0  0  0  0  0
   38.8670   25.8930   30.3950 H   0  0  0  0  0  0  0  0  0  0  0  0
   38.8110   23.3690   32.1490 H   0  0  0  0  0  0  0  0  0  0  0  0
   41.2080   23.9100   32.9290 C   0  0  0  0  0  0  0  0  0  0  0  0
   40.2680   24.8310   32.4520 C   0  0  0  0  0  0  0  0  0  0  0  0
   40.5990   26.1670   32.3250 C   0  0  0  0  0  0  0  0  0  0  0  0
   41.8770   26.5420   32.6760 C   0  0  0  0  0  0  0  0  0  0  0  0
   42.8220   25.6030   33.1570 C   0  0  0  0  0  0  0  0  0  0  0  0
   42.4920   24.2450   33.2930 C   0  0  0  0  0  0  0  0  0  0  0  0
   44.0350   26.2520   33.4420 O   0  0  0  0  0  0  0  0  0  0  0  0
   43.9820   27.4870   32.7750 C   0  0  0  0  0  0  0  0  0  0  0  0
   42.5800   27.7510   32.6800 O   0  0  0  0  0  0  0  0  0  0  0  0
   40.9240   22.8740   33.0220 H   0  0  0  0  0  0  0  0  0  0  0  0
   40.0700   27.0520   32.0770 H   0  0  0  0  0  0  0  0  0  0  0  0
   43.2060   23.5300   33.6600 H   0  0  0  0  0  0  0  0  0  0  0  0
   44.2930   27.3020   31.7060 H   0  0  0  0  0  0  0  0  0  0  0  0
   44.5410   28.3010   33.2350 H   0  0  0  0  0  0  0  0  0  0  0  0
   38.0560   25.7330   35.2590 C   0  0  0  0  0  0  0  0  0  0  0  0
   37.9910   24.6950   34.3010 C   0  0  0  0  0  0  0  0  0  0  0  0
   38.0370   23.3970   34.7650 C   0  0  0  0  0  0  0  0  0  0  0  0
   38.1400   23.1760   36.1190 N   0  0  0  0  0  0  0  0  0  0  0  0
   38.1960   24.1950   36.9850 C   0  0  0  0  0  0  0  0  0  0  0  0
   38.1560   25.4730   36.5810 N   0  0  0  0  0  0  0  0  0  0  0  0
   38.0170   26.7440   34.8410 H   0  0  0  0  0  0  0  0  0  0  0  0
   37.9930   22.5810   34.0650 H   0  0  0  0  0  0  0  0  0  0  0  0
   38.3060   23.8650   38.4350 C   0  0  0  0  0  0  0  0  0  0  0  0
   38.1500   24.9570   39.2490 F   0  0  0  0  0  0  0  0  0  0  0  0
   39.5480   23.2740   38.6840 F   0  0  0  0  0  0  0  0  0  0  0  0
   37.3560   22.8940   38.6960 F   0  0  0  0  0  0  0  0  0  0  0  0
  1 30  1  0  0  0  0
  2  1  1  0  0  0  0
  2  8  1  0  0  0  0
  2  7  1  0  0  0  0
  3  2  1  0  0  0  0
  4  5  1  0  0  0  0
  4 11  1  0  0  0  0
  4  3  1  0  0  0  0
  5  6  1  0  0  0  0
  6 14  1  1  0  0  0
  6 16  1  0  0  0  0
  6  1  1  0  0  0  0
  9  3  1  0  0  0  0
 10  3  1  0  0  0  0
 12  5  1  0  0  0  0
 13  5  1  0  0  0  0
 15 24  1  0  0  0  0
 15 20  1  0  0  0  0
 16 15  2  0  0  0  0
 17 16  1  0  0  0  0
 17 18  2  0  0  0  0
 18 23  1  0  0  0  0
 18 19  1  0  0  0  0
 19 20  2  0  0  0  0
 19 21  1  0  0  0  0
 20 26  1  0  0  0  0
 22 28  1  0  0  0  0
 22 21  1  0  0  0  0
 23 22  1  0  0  0  0
 25 17  1  0  0  0  0
 27 22  1  0  0  0  0
 29 34  1  0  0  0  0
 30 31  1  0  0  0  0
 30 29  2  0  0  0  0
 31 32  2  0  0  0  0
 32 33  1  0  0  0  0
 33 37  1  0  0  0  0
 34 33  2  0  0  0  0
 35 29  1  0  0  0  0
 36 31  1  0  0  0  0
 37 39  1  0  0  0  0
 37 40  1  0  0  0  0
 37 38  1  0  0  0  0
M  END
>  <minimizedAffinity>
-5.44485807

$$$$

 OpenBabel03272508323D

 40 43  0  0  1  0  0  0  0  0999 V2000
   37.0620   21.7320   33.2120 N   0  0  0  0  0  0  0  0  0  0  0  0
   35.8330   21.0230   33.5050 C   0  0  0  0  0  0  0  0  0  0  0  0
   35.0690   20.6640   32.2820 C   0  0  0  0  0  0  0  0  0  0  0  0
   35.9520   20.5940   31.1430 N   0  0  0  0  0  0  0  0  0  0  0  0
   36.3970   21.9570   30.8650 C   0  0  0  0  0  0  0  0  0  0  0  0
   37.4390   22.2670   31.8890 C   0  0  1  0  0  0  0  0  0  0  0  0
   36.0720   20.1410   34.1190 H   0  0  0  0  0  0  0  0  0  0  0  0
   35.2390   21.6950   34.1810 H   0  0  0  0  0  0  0  0  0  0  0  0
   34.4610   19.7670   32.4190 H   0  0  0  0  0  0  0  0  0  0  0  0
   34.3530   21.5040   32.0790 H   0  0  0  0  0  0  0  0  0  0  0  0
   36.7740   20.0040   31.3550 H   0  0  0  0  0  0  0  0  0  0  0  0
   36.8120   21.9710   29.8500 H   0  0  0  0  0  0  0  0  0  0  0  0
   35.4990   22.6020   30.9930 H   0  0  0  0  0  0  0  0  0  0  0  0
   38.3720   21.7290   31.6510 H   0  0  0  0  0  0  0  0  0  0  0  0
   39.0510   24.2160   31.6700 C   0  0  0  0  0  0  0  0  0  0  0  0
   37.7770   23.7070   31.9470 C   0  0  0  0  0  0  0  0  0  0  0  0
   36.7350   24.5600   32.2560 C   0  0  0  0  0  0  0  0  0  0  0  0
   37.0000   25.9110   32.2710 C   0  0  0  0  0  0  0  0  0  0  0  0
   38.2920   26.4180   31.9890 C   0  0  0  0  0  0  0  0  0  0  0  0
   39.3580   25.5580   31.6780 C   0  0  0  0  0  0  0  0  0  0  0  0
   38.2830   27.8200   32.0780 O   0  0  0  0  0  0  0  0  0  0  0  0
   36.9330   28.2060   32.0160 C   0  0  0  0  0  0  0  0  0  0  0  0
   36.2400   27.0590   32.5150 O   0  0  0  0  0  0  0  0  0  0  0  0
   39.8490   23.5300   31.4350 H   0  0  0  0  0  0  0  0  0  0  0  0
   35.7310   24.4340   32.5750 H   0  0  0  0  0  0  0  0  0  0  0  0
   40.3410   25.9390   31.4660 H   0  0  0  0  0  0  0  0  0  0  0  0
   36.6460   28.2390   30.9260 H   0  0  0  0  0  0  0  0  0  0  0  0
   36.6770   29.1240   32.5420 H   0  0  0  0  0  0  0  0  0  0  0  0
   39.3780   21.7290   34.0560 C   0  0  0  0  0  0  0  0  0  0  0  0
   37.9960   21.9310   34.2750 C   0  0  0  0  0  0  0  0  0  0  0  0
   37.6050   22.3390   35.5330 C   0  0  0  0  0  0  0  0  0  0  0  0
   38.5640   22.5290   36.5010 N   0  0  0  0  0  0  0  0  0  0  0  0
   39.8600   22.3250   36.2400 C   0  0  0  0  0  0  0  0  0  0  0  0
   40.2880   21.9270   35.0340 N   0  0  0  0  0  0  0  0  0  0  0  0
   39.6370   21.4040   33.0420 H   0  0  0  0  0  0  0  0  0  0  0  0
   36.5610   22.5010   35.7370 H   0  0  0  0  0  0  0  0  0  0  0  0
   40.8330   22.5550   37.3480 C   0  0  0  0  0  0  0  0  0  0  0  0
   40.2730   23.1770   38.4340 F   0  0  0  0  0  0  0  0  0  0  0  0
   41.9020   23.3220   36.8750 F   0  0  0  0  0  0  0  0  0  0  0  0
   41.3590   21.3210   37.6800 F   0  0  0  0  0  0  0  0  0  0  0  0
  1  2  1  0  0  0  0
  1 30  1  0  0  0  0
  2  7  1  0  0  0  0
  2  8  1  0  0  0  0
  3  9  1  0  0  0  0
  3  2  1  0  0  0  0
  4 11  1  0  0  0  0
  4  3  1  0  0  0  0
  5 13  1  0  0  0  0
  5  4  1  0  0  0  0
  5  6  1  0  0  0  0
  6 14  1  6  0  0  0
  6 16  1  0  0  0  0
  6  1  1  0  0  0  0
 10  3  1  0  0  0  0
 12  5  1  0  0  0  0
 15 20  2  0  0  0  0
 15 16  1  0  0  0  0
 16 17  2  0  0  0  0
 17 18  1  0  0  0  0
 17 25  1  0  0  0  0
 18 23  1  0  0  0  0
 19 21  1  0  0  0  0
 19 18  2  0  0  0  0
 20 19  1  0  0  0  0
 22 21  1  0  0  0  0
 22 23  1  0  0  0  0
 22 28  1  0  0  0  0
 24 15  1  0  0  0  0
 26 20  1  0  0  0  0
 27 22  1  0  0  0  0
 29 30  2  0  0  0  0
 29 34  1  0  0  0  0
 30 31  1  0  0  0  0
 31 36  1  0  0  0  0
 31 32  2  0  0  0  0
 33 32  1  0  0  0  0
 33 37  1  0  0  0  0
 34 33  2  0  0  0  0
 35 29  1  0  0  0  0
 37 40  1  0  0  0  0
 37 38  1  0  0  0  0
 39 37  1  0  0  0  0
M  END
>  <minimizedAffinity>
-5.43740654

$$$$
