
 OpenBabel03272510233D

 26 28  0  0  0  0  0  0  0  0999 V2000
   35.9070   30.0970   46.9060 C   0  0  0  0  0  0  0  0  0  0  0  0
   36.8480   30.5790   47.7850 C   0  0  0  0  0  0  0  0  0  0  0  0
   37.8890   31.3590   47.3360 C   0  0  0  0  0  0  0  0  0  0  0  0
   37.9440   31.6320   45.9810 C   0  0  0  0  0  0  0  0  0  0  0  0
   38.8730   32.3760   45.3060 N   0  0  0  0  0  0  0  0  0  0  0  0
   38.5220   32.3650   44.0140 C   0  0  0  0  0  0  0  0  0  0  0  0
   37.4030   31.6390   43.8340 N   0  0  0  0  0  0  0  0  0  0  0  0
   37.0200   31.1710   45.0510 C   0  0  0  0  0  0  0  0  0  0  0  0
   35.9880   30.3900   45.5380 C   0  0  0  0  0  0  0  0  0  0  0  0
   35.0680   29.4820   47.1890 H   0  0  0  0  0  0  0  0  0  0  0  0
   38.6200   31.7330   48.0250 H   0  0  0  0  0  0  0  0  0  0  0  0
   39.7120   32.8700   45.7190 H   0  0  0  0  0  0  0  0  0  0  0  0
   35.2450   30.0120   44.8280 H   0  0  0  0  0  0  0  0  0  0  0  0
   37.3590   30.1060   51.4900 C   0  0  0  0  0  0  0  0  0  0  0  0
   37.6020   30.4860   50.1750 C   0  0  0  0  0  0  0  0  0  0  0  0
   36.6720   30.2160   49.1880 C   0  0  0  0  0  0  0  0  0  0  0  0
   35.5200   29.5730   49.5420 N   0  0  0  0  0  0  0  0  0  0  0  0
   35.3110   29.2140   50.8480 C   0  0  0  0  0  0  0  0  0  0  0  0
   36.2090   29.4740   51.7940 N   0  0  0  0  0  0  0  0  0  0  0  0
   38.1010   30.3320   52.2290 H   0  0  0  0  0  0  0  0  0  0  0  0
   38.5050   30.9860   49.9160 H   0  0  0  0  0  0  0  0  0  0  0  0
   34.3640   28.7090   51.0140 H   0  0  0  0  0  0  0  0  0  0  0  0
   39.3070   33.0770   42.9600 C   0  0  0  0  0  0  0  0  0  0  0  0
   40.0610   34.1060   43.4450 F   0  0  0  0  0  0  0  0  0  0  0  0
   38.4340   33.5690   41.9950 F   0  0  0  0  0  0  0  0  0  0  0  0
   40.1450   32.2010   42.2940 F   0  0  0  0  0  0  0  0  0  0  0  0
  1 10  1  0  0  0  0
  1  2  1  0  0  0  0
  2 16  1  0  0  0  0
  3  2  2  0  0  0  0
  3 11  1  0  0  0  0
  4  3  1  0  0  0  0
  5 12  1  0  0  0  0
  5  4  1  0  0  0  0
  6  5  1  0  0  0  0
  7  6  2  0  0  0  0
  7  8  1  0  0  0  0
  8  9  1  0  0  0  0
  8  4  2  0  0  0  0
  9  1  2  0  0  0  0
 13  9  1  0  0  0  0
 14 19  1  0  0  0  0
 14 20  1  0  0  0  0
 15 14  2  0  0  0  0
 16 17  2  0  0  0  0
 16 15  1  0  0  0  0
 17 18  1  0  0  0  0
 18 22  1  0  0  0  0
 18 19  2  0  0  0  0
 21 15  1  0  0  0  0
 23 24  1  0  0  0  0
 23  6  1  0  0  0  0
 25 23  1  0  0  0  0
 26 23  1  0  0  0  0
M  END
>  <minimizedAffinity>
-5.39685488

>  <minimizedRMSD>
1.7256757

$$$$
