
 OpenBabel03272507223D

 38 41  0  0  1  0  0  0  0  0999 V2000
   38.2450   24.3670   34.9090 C   0  0  0  0  0  0  0  0  0  0  0  0
   38.7400   23.5940   33.8840 C   0  0  0  0  0  0  0  0  0  0  0  0
   38.5740   24.1230   32.6010 C   0  0  0  0  0  0  0  0  0  0  0  0
   37.9590   25.3250   32.4200 N   0  0  0  0  0  0  0  0  0  0  0  0
   37.4820   26.0610   33.4520 C   0  0  0  0  0  0  0  0  0  0  0  0
   37.6350   25.5640   34.7080 N   0  0  0  0  0  0  0  0  0  0  0  0
   39.2140   22.6620   34.0440 H   0  0  0  0  0  0  0  0  0  0  0  0
   38.9310   23.5860   31.7330 H   0  0  0  0  0  0  0  0  0  0  0  0
   36.4600   28.0730   34.3580 C   0  0  0  0  0  0  0  0  0  0  0  0
   36.8220   27.3500   33.2430 C   0  0  0  0  0  0  0  0  0  0  0  0
   36.5530   27.8560   31.9840 C   0  0  0  0  0  0  0  0  0  0  0  0
   35.9300   29.0720   31.7720 C   0  0  0  0  0  0  0  0  0  0  0  0
   35.5630   29.7750   30.6850 N   0  0  0  0  0  0  0  0  0  0  0  0
   34.9910   30.9050   31.1480 C   0  0  0  0  0  0  0  0  0  0  0  0
   34.9960   30.9140   32.5020 N   0  0  0  0  0  0  0  0  0  0  0  0
   35.5800   29.7750   32.9230 C   0  0  0  0  0  0  0  0  0  0  0  0
   35.8350   29.2940   34.1950 C   0  0  0  0  0  0  0  0  0  0  0  0
   36.6660   27.6850   35.3470 H   0  0  0  0  0  0  0  0  0  0  0  0
   36.8300   27.3020   31.1150 H   0  0  0  0  0  0  0  0  0  0  0  0
   35.7020   29.4880   29.7080 H   0  0  0  0  0  0  0  0  0  0  0  0
   34.5770   31.7080   30.5500 H   0  0  0  0  0  0  0  0  0  0  0  0
   35.5540   29.8560   35.0760 H   0  0  0  0  0  0  0  0  0  0  0  0
   38.3970   23.8270   36.3140 C   0  0  1  0  0  0  0  0  0  0  0  0
   37.7800   22.5820   36.7080 C   0  0  2  0  0  0  0  0  0  0  0  0
   39.2850   22.5880   36.3520 C   0  0  2  0  0  0  0  0  0  0  0  0
   38.5260   24.6360   37.0700 H   0  0  0  0  0  0  0  0  0  0  0  0
   37.8580   22.2300   37.7970 H   0  0  0  0  0  0  0  0  0  0  0  0
   39.5140   22.0760   35.4190 H   0  0  0  0  0  0  0  0  0  0  0  0
   40.3330   22.6150   37.4090 C   0  0  0  0  0  0  0  0  0  0  0  0
   40.8190   21.3320   37.6850 F   0  0  0  0  0  0  0  0  0  0  0  0
   41.4120   23.3450   36.9370 F   0  0  0  0  0  0  0  0  0  0  0  0
   39.9200   23.2350   38.5720 F   0  0  0  0  0  0  0  0  0  0  0  0
   37.0180   21.9030   35.8210 O   0  0  0  0  0  0  0  0  0  0  0  0
   35.9680   21.0880   35.8290 C   0  0  0  0  0  0  0  0  0  0  0  0
   35.6180   20.6570   34.6840 O   0  0  0  0  0  0  0  0  0  0  0  0
   35.4160   20.8330   37.0590 N   0  0  0  0  0  0  0  0  0  0  0  0
   35.5530   19.9220   37.5770 H   0  0  0  0  0  0  0  0  0  0  0  0
   34.8310   21.5830   37.5030 H   0  0  0  0  0  0  0  0  0  0  0  0
  1 23  1  0  0  0  0
  2  7  1  0  0  0  0
  2  1  2  0  0  0  0
  3  2  1  0  0  0  0
  4  3  2  0  0  0  0
  4  5  1  0  0  0  0
  5  6  2  0  0  0  0
  6  1  1  0  0  0  0
  8  3  1  0  0  0  0
  9 18  1  0  0  0  0
 10  5  1  0  0  0  0
 10  9  2  0  0  0  0
 11 10  1  0  0  0  0
 12 11  2  0  0  0  0
 12 16  1  0  0  0  0
 13 14  1  0  0  0  0
 13 12  1  0  0  0  0
 14 15  2  0  0  0  0
 15 16  1  0  0  0  0
 16 17  2  0  0  0  0
 17  9  1  0  0  0  0
 17 22  1  0  0  0  0
 19 11  1  0  0  0  0
 20 13  1  0  0  0  0
 21 14  1  0  0  0  0
 23 25  1  0  0  0  0
 23 24  1  0  0  0  0
 23 26  1  1  0  0  0
 24 27  1  1  0  0  0
 25 28  1  6  0  0  0
 25 24  1  0  0  0  0
 25 29  1  0  0  0  0
 29 30  1  0  0  0  0
 29 32  1  0  0  0  0
 31 29  1  0  0  0  0
 33 34  1  0  0  0  0
 33 24  1  0  0  0  0
 34 36  1  0  0  0  0
 35 34  2  0  0  0  0
 36 38  1  0  0  0  0
 36 37  1  0  0  0  0
M  END
>  <minimizedAffinity>
-6.47538137

$$$$

 OpenBabel03272507223D

 38 41  0  0  1  0  0  0  0  0999 V2000
   35.7900   29.5590   32.9130 C   0  0  0  0  0  0  0  0  0  0  0  0
   35.7640   29.4680   31.5410 C   0  0  0  0  0  0  0  0  0  0  0  0
   36.3150   28.2990   31.0070 C   0  0  0  0  0  0  0  0  0  0  0  0
   36.8320   27.3400   31.8240 N   0  0  0  0  0  0  0  0  0  0  0  0
   36.8420   27.4610   33.1720 C   0  0  0  0  0  0  0  0  0  0  0  0
   36.3110   28.5900   33.7110 N   0  0  0  0  0  0  0  0  0  0  0  0
   35.3590   30.2240   30.9220 H   0  0  0  0  0  0  0  0  0  0  0  0
   36.3380   28.1400   29.9370 H   0  0  0  0  0  0  0  0  0  0  0  0
   37.6590   26.7520   35.3500 C   0  0  0  0  0  0  0  0  0  0  0  0
   37.4040   26.4230   34.0380 C   0  0  0  0  0  0  0  0  0  0  0  0
   37.6810   25.1440   33.5880 C   0  0  0  0  0  0  0  0  0  0  0  0
   38.2100   24.1540   34.3950 C   0  0  0  0  0  0  0  0  0  0  0  0
   38.5620   22.8680   34.2150 N   0  0  0  0  0  0  0  0  0  0  0  0
   39.0210   22.4360   35.4070 C   0  0  0  0  0  0  0  0  0  0  0  0
   38.9600   23.4330   36.3220 N   0  0  0  0  0  0  0  0  0  0  0  0
   38.4550   24.5240   35.7170 C   0  0  0  0  0  0  0  0  0  0  0  0
   38.1890   25.7950   36.1940 C   0  0  0  0  0  0  0  0  0  0  0  0
   37.4470   27.7500   35.7120 H   0  0  0  0  0  0  0  0  0  0  0  0
   37.4850   24.8810   32.5720 H   0  0  0  0  0  0  0  0  0  0  0  0
   38.4870   22.3420   33.3350 H   0  0  0  0  0  0  0  0  0  0  0  0
   39.3920   21.4440   35.6320 H   0  0  0  0  0  0  0  0  0  0  0  0
   38.3870   26.0620   37.2240 H   0  0  0  0  0  0  0  0  0  0  0  0
   35.2110   30.8120   33.5330 C   0  0  1  0  0  0  0  0  0  0  0  0
   33.8310   30.8680   33.9560 C   0  0  2  0  0  0  0  0  0  0  0  0
   34.9270   30.6270   35.0200 C   0  0  2  0  0  0  0  0  0  0  0  0
   35.7090   31.7380   33.1650 H   0  0  0  0  0  0  0  0  0  0  0  0
   33.4020   31.8510   34.3620 H   0  0  0  0  0  0  0  0  0  0  0  0
   34.9190   29.6200   35.4340 H   0  0  0  0  0  0  0  0  0  0  0  0
   35.4270   31.7330   35.8830 C   0  0  0  0  0  0  0  0  0  0  0  0
   34.8280   31.7110   37.1470 F   0  0  0  0  0  0  0  0  0  0  0  0
   36.7830   31.5440   36.0920 F   0  0  0  0  0  0  0  0  0  0  0  0
   35.2900   32.9800   35.3060 F   0  0  0  0  0  0  0  0  0  0  0  0
   33.0270   29.7990   33.7580 O   0  0  0  0  0  0  0  0  0  0  0  0
   31.9300   29.4920   33.0720 C   0  0  0  0  0  0  0  0  0  0  0  0
   31.3750   28.3990   33.4140 O   0  0  0  0  0  0  0  0  0  0  0  0
   31.5600   30.3860   32.1000 N   0  0  0  0  0  0  0  0  0  0  0  0
   30.7520   31.0590   32.2110 H   0  0  0  0  0  0  0  0  0  0  0  0
   32.1080   30.4010   31.2060 H   0  0  0  0  0  0  0  0  0  0  0  0
  1 23  1  0  0  0  0
  1  6  1  0  0  0  0
  2  1  2  0  0  0  0
  3  2  1  0  0  0  0
  3  4  2  0  0  0  0
  4  5  1  0  0  0  0
  5  6  2  0  0  0  0
  5 10  1  0  0  0  0
  7  2  1  0  0  0  0
  8  3  1  0  0  0  0
  9 18  1  0  0  0  0
  9 17  1  0  0  0  0
 10  9  2  0  0  0  0
 11 10  1  0  0  0  0
 11 12  2  0  0  0  0
 12 16  1  0  0  0  0
 13 12  1  0  0  0  0
 13 14  1  0  0  0  0
 14 21  1  0  0  0  0
 14 15  2  0  0  0  0
 16 17  2  0  0  0  0
 16 15  1  0  0  0  0
 17 22  1  0  0  0  0
 19 11  1  0  0  0  0
 20 13  1  0  0  0  0
 23 26  1  6  0  0  0
 23 24  1  0  0  0  0
 23 25  1  0  0  0  0
 24 27  1  6  0  0  0
 24 25  1  0  0  0  0
 25 28  1  1  0  0  0
 25 29  1  0  0  0  0
 29 31  1  0  0  0  0
 29 30  1  0  0  0  0
 32 29  1  0  0  0  0
 33 24  1  0  0  0  0
 34 35  2  0  0  0  0
 34 33  1  0  0  0  0
 36 37  1  0  0  0  0
 36 34  1  0  0  0  0
 38 36  1  0  0  0  0
M  END
>  <minimizedAffinity>
-5.99837446

$$$$

 OpenBabel03272507223D

 38 41  0  0  1  0  0  0  0  0999 V2000
   37.4830   25.7250   33.6400 C   0  0  0  0  0  0  0  0  0  0  0  0
   37.0940   25.1550   32.4510 C   0  0  0  0  0  0  0  0  0  0  0  0
   36.3400   25.9780   31.6100 C   0  0  0  0  0  0  0  0  0  0  0  0
   36.0320   27.2520   31.9790 N   0  0  0  0  0  0  0  0  0  0  0  0
   36.4310   27.7840   33.1590 C   0  0  0  0  0  0  0  0  0  0  0  0
   37.1660   26.9990   33.9910 N   0  0  0  0  0  0  0  0  0  0  0  0
   37.3420   24.1620   32.1810 H   0  0  0  0  0  0  0  0  0  0  0  0
   35.9890   25.6140   30.6530 H   0  0  0  0  0  0  0  0  0  0  0  0
   35.7810   30.0430   32.5390 C   0  0  0  0  0  0  0  0  0  0  0  0
   36.0910   29.1540   33.5440 C   0  0  0  0  0  0  0  0  0  0  0  0
   36.0700   29.5770   34.8610 C   0  0  0  0  0  0  0  0  0  0  0  0
   35.7500   30.8680   35.2380 C   0  0  0  0  0  0  0  0  0  0  0  0
   35.6570   31.5200   36.4120 N   0  0  0  0  0  0  0  0  0  0  0  0
   35.2960   32.7820   36.1090 C   0  0  0  0  0  0  0  0  0  0  0  0
   35.1630   32.9250   34.7690 N   0  0  0  0  0  0  0  0  0  0  0  0
   35.4420   31.7390   34.1950 C   0  0  0  0  0  0  0  0  0  0  0  0
   35.4550   31.3450   32.8690 C   0  0  0  0  0  0  0  0  0  0  0  0
   35.7950   29.7220   31.5060 H   0  0  0  0  0  0  0  0  0  0  0  0
   36.3080   28.8930   35.6450 H   0  0  0  0  0  0  0  0  0  0  0  0
   35.8320   31.1140   37.3400 H   0  0  0  0  0  0  0  0  0  0  0  0
   35.1280   33.5900   36.8130 H   0  0  0  0  0  0  0  0  0  0  0  0
   35.2130   32.0380   32.0740 H   0  0  0  0  0  0  0  0  0  0  0  0
   38.2950   24.8670   34.5850 C   0  0  1  0  0  0  0  0  0  0  0  0
   39.6190   25.2630   35.0060 C   0  0  2  0  0  0  0  0  0  0  0  0
   38.4280   25.5100   35.9620 C   0  0  2  0  0  0  0  0  0  0  0  0
   38.0540   23.7830   34.4900 H   0  0  0  0  0  0  0  0  0  0  0  0
   40.2370   24.5620   35.6700 H   0  0  0  0  0  0  0  0  0  0  0  0
   38.1720   26.5620   36.0780 H   0  0  0  0  0  0  0  0  0  0  0  0
   38.1420   24.5920   37.0980 C   0  0  0  0  0  0  0  0  0  0  0  0
   39.1590   23.6450   37.2630 F   0  0  0  0  0  0  0  0  0  0  0  0
   38.1120   25.3380   38.2650 F   0  0  0  0  0  0  0  0  0  0  0  0
   36.9140   23.9680   37.0020 F   0  0  0  0  0  0  0  0  0  0  0  0
   40.1630   26.4010   34.5180 O   0  0  0  0  0  0  0  0  0  0  0  0
   41.3580   26.8580   34.1570 C   0  0  0  0  0  0  0  0  0  0  0  0
   41.3490   27.6450   33.1570 O   0  0  0  0  0  0  0  0  0  0  0  0
   42.4200   26.4180   34.9050 N   0  0  0  0  0  0  0  0  0  0  0  0
   42.9110   27.0190   35.6230 H   0  0  0  0  0  0  0  0  0  0  0  0
   42.7560   25.4350   34.7560 H   0  0  0  0  0  0  0  0  0  0  0  0
  1  6  1  0  0  0  0
  1 23  1  0  0  0  0
  2  1  2  0  0  0  0
  3  4  2  0  0  0  0
  3  2  1  0  0  0  0
  4  5  1  0  0  0  0
  5 10  1  0  0  0  0
  5  6  2  0  0  0  0
  7  2  1  0  0  0  0
  8  3  1  0  0  0  0
  9 17  2  0  0  0  0
  9 10  1  0  0  0  0
 10 11  2  0  0  0  0
 11 12  1  0  0  0  0
 11 19  1  0  0  0  0
 12 13  1  0  0  0  0
 13 20  1  0  0  0  0
 14 13  1  0  0  0  0
 14 21  1  0  0  0  0
 15 14  2  0  0  0  0
 16 15  1  0  0  0  0
 16 12  2  0  0  0  0
 17 16  1  0  0  0  0
 18  9  1  0  0  0  0
 22 17  1  0  0  0  0
 23 26  1  6  0  0  0
 23 24  1  0  0  0  0
 23 25  1  0  0  0  0
 24 27  1  1  0  0  0
 24 25  1  0  0  0  0
 25 28  1  1  0  0  0
 25 29  1  0  0  0  0
 29 30  1  0  0  0  0
 29 31  1  0  0  0  0
 32 29  1  0  0  0  0
 33 24  1  0  0  0  0
 34 33  1  0  0  0  0
 34 36  1  0  0  0  0
 35 34  2  0  0  0  0
 36 37  1  0  0  0  0
 38 36  1  0  0  0  0
M  END
>  <minimizedAffinity>
-5.96615934

$$$$

 OpenBabel03272507223D

 38 41  0  0  1  0  0  0  0  0999 V2000
   39.3240   24.4440   34.4740 C   0  0  0  0  0  0  0  0  0  0  0  0
   40.5500   24.9160   34.8830 C   0  0  0  0  0  0  0  0  0  0  0  0
   40.7080   26.3040   34.8210 C   0  0  0  0  0  0  0  0  0  0  0  0
   39.6950   27.1000   34.3800 N   0  0  0  0  0  0  0  0  0  0  0  0
   38.4990   26.6020   33.9850 C   0  0  0  0  0  0  0  0  0  0  0  0
   38.3250   25.2550   34.0380 N   0  0  0  0  0  0  0  0  0  0  0  0
   41.3270   24.2830   35.2220 H   0  0  0  0  0  0  0  0  0  0  0  0
   41.6390   26.7660   35.1220 H   0  0  0  0  0  0  0  0  0  0  0  0
   37.2700   27.6200   32.1510 C   0  0  0  0  0  0  0  0  0  0  0  0
   37.4190   27.4690   33.5110 C   0  0  0  0  0  0  0  0  0  0  0  0
   36.5590   28.1290   34.3710 C   0  0  0  0  0  0  0  0  0  0  0  0
   35.5350   28.9500   33.9360 C   0  0  0  0  0  0  0  0  0  0  0  0
   34.5850   29.6860   34.5430 N   0  0  0  0  0  0  0  0  0  0  0  0
   33.8780   30.2680   33.5540 C   0  0  0  0  0  0  0  0  0  0  0  0
   34.3720   29.9060   32.3460 N   0  0  0  0  0  0  0  0  0  0  0  0
   35.4140   29.0780   32.5540 C   0  0  0  0  0  0  0  0  0  0  0  0
   36.2590   28.4320   31.6710 C   0  0  0  0  0  0  0  0  0  0  0  0
   37.9380   27.1080   31.4700 H   0  0  0  0  0  0  0  0  0  0  0  0
   36.6690   28.0160   35.4270 H   0  0  0  0  0  0  0  0  0  0  0  0
   34.4470   29.7710   35.5570 H   0  0  0  0  0  0  0  0  0  0  0  0
   33.0320   30.9340   33.6740 H   0  0  0  0  0  0  0  0  0  0  0  0
   36.1490   28.5450   30.6000 H   0  0  0  0  0  0  0  0  0  0  0  0
   39.1120   22.9470   34.5180 C   0  0  1  0  0  0  0  0  0  0  0  0
   38.4840   22.3130   35.6530 C   0  0  2  0  0  0  0  0  0  0  0  0
   37.6370   22.5810   34.3870 C   0  0  2  0  0  0  0  0  0  0  0  0
   39.8840   22.3900   33.9380 H   0  0  0  0  0  0  0  0  0  0  0  0
   38.3950   21.1700   35.6880 H   0  0  0  0  0  0  0  0  0  0  0  0
   36.8880   23.3590   34.5210 H   0  0  0  0  0  0  0  0  0  0  0  0
   37.3570   21.5030   33.3990 C   0  0  0  0  0  0  0  0  0  0  0  0
   36.3610   20.6330   33.8550 F   0  0  0  0  0  0  0  0  0  0  0  0
   36.8630   22.0880   32.2440 F   0  0  0  0  0  0  0  0  0  0  0  0
   38.4830   20.7950   33.0280 F   0  0  0  0  0  0  0  0  0  0  0  0
   38.1150   23.0610   36.7180 O   0  0  0  0  0  0  0  0  0  0  0  0
   38.5520   23.3330   37.9430 C   0  0  0  0  0  0  0  0  0  0  0  0
   37.8890   24.2260   38.5610 O   0  0  0  0  0  0  0  0  0  0  0  0
   39.6470   22.6190   38.3620 N   0  0  0  0  0  0  0  0  0  0  0  0
   39.5880   21.8200   39.0510 H   0  0  0  0  0  0  0  0  0  0  0  0
   40.5850   22.8830   37.9740 H   0  0  0  0  0  0  0  0  0  0  0  0
  1 23  1  0  0  0  0
  1  2  1  0  0  0  0
  2  7  1  0  0  0  0
  3  2  2  0  0  0  0
  3  8  1  0  0  0  0
  4  3  1  0  0  0  0
  5  6  1  0  0  0  0
  5  4  2  0  0  0  0
  6  1  2  0  0  0  0
  9 10  1  0  0  0  0
 10  5  1  0  0  0  0
 10 11  2  0  0  0  0
 11 19  1  0  0  0  0
 12 11  1  0  0  0  0
 12 13  1  0  0  0  0
 13 20  1  0  0  0  0
 14 21  1  0  0  0  0
 14 13  1  0  0  0  0
 15 16  1  0  0  0  0
 15 14  2  0  0  0  0
 16 12  2  0  0  0  0
 17  9  2  0  0  0  0
 17 16  1  0  0  0  0
 18  9  1  0  0  0  0
 22 17  1  0  0  0  0
 23 26  1  6  0  0  0
 23 24  1  0  0  0  0
 24 27  1  1  0  0  0
 24 33  1  0  0  0  0
 25 23  1  0  0  0  0
 25 28  1  1  0  0  0
 25 24  1  0  0  0  0
 29 30  1  0  0  0  0
 29 25  1  0  0  0  0
 31 29  1  0  0  0  0
 32 29  1  0  0  0  0
 33 34  1  0  0  0  0
 34 36  1  0  0  0  0
 34 35  2  0  0  0  0
 36 37  1  0  0  0  0
 38 36  1  0  0  0  0
M  END
>  <minimizedAffinity>
-5.94755793

$$$$

 OpenBabel03272507223D

 38 41  0  0  1  0  0  0  0  0999 V2000
   36.9230   26.1000   32.6470 C   0  0  0  0  0  0  0  0  0  0  0  0
   36.1350   26.7880   31.7530 C   0  0  0  0  0  0  0  0  0  0  0  0
   35.3920   25.9930   30.8760 C   0  0  0  0  0  0  0  0  0  0  0  0
   35.4690   24.6340   30.9340 N   0  0  0  0  0  0  0  0  0  0  0  0
   36.2560   23.9890   31.8270 C   0  0  0  0  0  0  0  0  0  0  0  0
   36.9870   24.7440   32.6890 N   0  0  0  0  0  0  0  0  0  0  0  0
   36.0880   27.8440   31.7210 H   0  0  0  0  0  0  0  0  0  0  0  0
   34.7430   26.4460   30.1370 H   0  0  0  0  0  0  0  0  0  0  0  0
   35.1850   21.8390   32.2030 C   0  0  0  0  0  0  0  0  0  0  0  0
   36.3310   22.5280   31.8770 C   0  0  0  0  0  0  0  0  0  0  0  0
   37.4960   21.8300   31.6130 C   0  0  0  0  0  0  0  0  0  0  0  0
   37.5810   20.4510   31.6560 C   0  0  0  0  0  0  0  0  0  0  0  0
   38.5600   19.5520   31.4470 N   0  0  0  0  0  0  0  0  0  0  0  0
   38.0020   18.3410   31.6460 C   0  0  0  0  0  0  0  0  0  0  0  0
   36.6950   18.4730   31.9740 N   0  0  0  0  0  0  0  0  0  0  0  0
   36.4010   19.7870   31.9890 C   0  0  0  0  0  0  0  0  0  0  0  0
   35.2220   20.4580   32.2590 C   0  0  0  0  0  0  0  0  0  0  0  0
   34.2680   22.3750   32.4130 H   0  0  0  0  0  0  0  0  0  0  0  0
   38.3890   22.3580   31.3590 H   0  0  0  0  0  0  0  0  0  0  0  0
   39.5310   19.7690   31.1890 H   0  0  0  0  0  0  0  0  0  0  0  0
   38.5000   17.3820   31.5630 H   0  0  0  0  0  0  0  0  0  0  0  0
   34.3160   19.9240   32.5160 H   0  0  0  0  0  0  0  0  0  0  0  0
   37.7520   26.9220   33.6100 C   0  0  1  0  0  0  0  0  0  0  0  0
   37.1640   28.0000   34.3710 C   0  0  2  0  0  0  0  0  0  0  0  0
   37.3830   26.6330   35.0610 C   0  0  2  0  0  0  0  0  0  0  0  0
   38.8210   26.9890   33.3030 H   0  0  0  0  0  0  0  0  0  0  0  0
   37.8290   28.6470   35.0450 H   0  0  0  0  0  0  0  0  0  0  0  0
   36.4590   26.0990   35.2740 H   0  0  0  0  0  0  0  0  0  0  0  0
   38.5500   26.3930   35.9550 C   0  0  0  0  0  0  0  0  0  0  0  0
   39.6710   27.1220   35.5450 F   0  0  0  0  0  0  0  0  0  0  0  0
   38.2300   26.8530   37.2230 F   0  0  0  0  0  0  0  0  0  0  0  0
   38.8670   25.0560   36.0930 F   0  0  0  0  0  0  0  0  0  0  0  0
   35.8600   28.3110   34.1930 O   0  0  0  0  0  0  0  0  0  0  0  0
   35.0720   29.3790   34.2670 C   0  0  0  0  0  0  0  0  0  0  0  0
   33.9090   29.2190   33.7770 O   0  0  0  0  0  0  0  0  0  0  0  0
   35.6220   30.4910   34.8530 N   0  0  0  0  0  0  0  0  0  0  0  0
   35.3800   30.8080   35.8320 H   0  0  0  0  0  0  0  0  0  0  0  0
   36.3170   31.0480   34.2990 H   0  0  0  0  0  0  0  0  0  0  0  0
  1  6  1  0  0  0  0
  1 23  1  0  0  0  0
  2  1  2  0  0  0  0
  3  4  2  0  0  0  0
  3  2  1  0  0  0  0
  4  5  1  0  0  0  0
  5 10  1  0  0  0  0
  5  6  2  0  0  0  0
  7  2  1  0  0  0  0
  8  3  1  0  0  0  0
  9 17  1  0  0  0  0
  9 18  1  0  0  0  0
 10  9  2  0  0  0  0
 11 12  2  0  0  0  0
 11 10  1  0  0  0  0
 12 16  1  0  0  0  0
 13 14  1  0  0  0  0
 13 12  1  0  0  0  0
 14 15  2  0  0  0  0
 15 16  1  0  0  0  0
 16 17  2  0  0  0  0
 17 22  1  0  0  0  0
 19 11  1  0  0  0  0
 20 13  1  0  0  0  0
 21 14  1  0  0  0  0
 23 26  1  6  0  0  0
 23 24  1  0  0  0  0
 23 25  1  0  0  0  0
 24 27  1  1  0  0  0
 24 25  1  0  0  0  0
 25 28  1  1  0  0  0
 25 29  1  0  0  0  0
 29 32  1  0  0  0  0
 29 31  1  0  0  0  0
 30 29  1  0  0  0  0
 33 34  1  0  0  0  0
 33 24  1  0  0  0  0
 34 36  1  0  0  0  0
 35 34  2  0  0  0  0
 36 37  1  0  0  0  0
 38 36  1  0  0  0  0
M  END
>  <minimizedAffinity>
-5.85801029

$$$$

 OpenBabel03272507223D

 38 41  0  0  1  0  0  0  0  0999 V2000
   38.4370   22.9000   34.9180 C   0  0  0  0  0  0  0  0  0  0  0  0
   38.5630   21.9140   33.9670 C   0  0  0  0  0  0  0  0  0  0  0  0
   38.2540   22.3000   32.6590 C   0  0  0  0  0  0  0  0  0  0  0  0
   37.8590   23.5750   32.3870 N   0  0  0  0  0  0  0  0  0  0  0  0
   37.7450   24.5220   33.3470 C   0  0  0  0  0  0  0  0  0  0  0  0
   38.0410   24.1670   34.6260 N   0  0  0  0  0  0  0  0  0  0  0  0
   38.8710   20.9290   34.1970 H   0  0  0  0  0  0  0  0  0  0  0  0
   38.3240   21.5920   31.8450 H   0  0  0  0  0  0  0  0  0  0  0  0
   37.1310   26.7530   34.0960 C   0  0  0  0  0  0  0  0  0  0  0  0
   37.3170   25.8870   33.0400 C   0  0  0  0  0  0  0  0  0  0  0  0
   37.0960   26.3290   31.7480 C   0  0  0  0  0  0  0  0  0  0  0  0
   36.6930   27.6160   31.4440 C   0  0  0  0  0  0  0  0  0  0  0  0
   36.4180   28.2820   30.3080 N   0  0  0  0  0  0  0  0  0  0  0  0
   36.0730   29.5310   30.6830 C   0  0  0  0  0  0  0  0  0  0  0  0
   36.1290   29.6490   32.0310 N   0  0  0  0  0  0  0  0  0  0  0  0
   36.5160   28.4630   32.5370 C   0  0  0  0  0  0  0  0  0  0  0  0
   36.7270   28.0500   33.8400 C   0  0  0  0  0  0  0  0  0  0  0  0
   37.3000   26.4170   35.1110 H   0  0  0  0  0  0  0  0  0  0  0  0
   37.2390   25.6640   30.9250 H   0  0  0  0  0  0  0  0  0  0  0  0
   36.4670   27.8960   29.3570 H   0  0  0  0  0  0  0  0  0  0  0  0
   35.7870   30.3430   30.0260 H   0  0  0  0  0  0  0  0  0  0  0  0
   36.5830   28.7230   34.6750 H   0  0  0  0  0  0  0  0  0  0  0  0
   38.7550   22.5240   36.3480 C   0  0  1  0  0  0  0  0  0  0  0  0
   40.0990   22.6270   36.8690 C   0  0  2  0  0  0  0  0  0  0  0  0
   39.0840   23.7480   37.1960 C   0  0  2  0  0  0  0  0  0  0  0  0
   38.0760   21.7330   36.7420 H   0  0  0  0  0  0  0  0  0  0  0  0
   40.3220   22.2730   37.9370 H   0  0  0  0  0  0  0  0  0  0  0  0
   39.3010   24.6910   36.6970 H   0  0  0  0  0  0  0  0  0  0  0  0
   38.3780   23.7980   38.5050 C   0  0  0  0  0  0  0  0  0  0  0  0
   39.2770   23.7800   39.5770 F   0  0  0  0  0  0  0  0  0  0  0  0
   37.6960   25.0010   38.5890 F   0  0  0  0  0  0  0  0  0  0  0  0
   37.4320   22.8030   38.6530 F   0  0  0  0  0  0  0  0  0  0  0  0
   41.1020   23.0280   36.0550 O   0  0  0  0  0  0  0  0  0  0  0  0
   42.2370   22.5430   35.5610 C   0  0  0  0  0  0  0  0  0  0  0  0
   42.1140   21.9090   34.4650 O   0  0  0  0  0  0  0  0  0  0  0  0
   43.3660   22.7910   36.2990 N   0  0  0  0  0  0  0  0  0  0  0  0
   44.0880   23.5140   36.0270 H   0  0  0  0  0  0  0  0  0  0  0  0
   43.5160   22.2340   37.1750 H   0  0  0  0  0  0  0  0  0  0  0  0
  1 23  1  0  0  0  0
  2  7  1  0  0  0  0
  2  1  2  0  0  0  0
  3  2  1  0  0  0  0
  4  3  2  0  0  0  0
  4  5  1  0  0  0  0
  5  6  2  0  0  0  0
  6  1  1  0  0  0  0
  8  3  1  0  0  0  0
  9 18  1  0  0  0  0
 10  5  1  0  0  0  0
 10  9  2  0  0  0  0
 11 10  1  0  0  0  0
 12 11  2  0  0  0  0
 12 16  1  0  0  0  0
 13 14  1  0  0  0  0
 13 12  1  0  0  0  0
 14 15  2  0  0  0  0
 15 16  1  0  0  0  0
 16 17  2  0  0  0  0
 17  9  1  0  0  0  0
 17 22  1  0  0  0  0
 19 11  1  0  0  0  0
 20 13  1  0  0  0  0
 21 14  1  0  0  0  0
 23 26  1  1  0  0  0
 23 24  1  0  0  0  0
 23 25  1  0  0  0  0
 24 25  1  0  0  0  0
 24 27  1  1  0  0  0
 25 28  1  6  0  0  0
 25 29  1  0  0  0  0
 29 31  1  0  0  0  0
 29 32  1  0  0  0  0
 29 30  1  0  0  0  0
 33 24  1  0  0  0  0
 34 33  1  0  0  0  0
 34 36  1  0  0  0  0
 35 34  2  0  0  0  0
 36 38  1  0  0  0  0
 37 36  1  0  0  0  0
M  END
>  <minimizedAffinity>
-5.78954554

$$$$

 OpenBabel03272507223D

 38 41  0  0  1  0  0  0  0  0999 V2000
   38.1100   24.2020   33.9620 C   0  0  0  0  0  0  0  0  0  0  0  0
   38.0060   23.3760   32.8660 C   0  0  0  0  0  0  0  0  0  0  0  0
   37.3840   23.9400   31.7490 C   0  0  0  0  0  0  0  0  0  0  0  0
   36.9270   25.2230   31.7820 N   0  0  0  0  0  0  0  0  0  0  0  0
   37.0460   26.0090   32.8780 C   0  0  0  0  0  0  0  0  0  0  0  0
   37.6480   25.4790   33.9750 N   0  0  0  0  0  0  0  0  0  0  0  0
   38.3660   22.3810   32.8590 H   0  0  0  0  0  0  0  0  0  0  0  0
   37.2570   23.3660   30.8410 H   0  0  0  0  0  0  0  0  0  0  0  0
   36.4240   28.0010   34.1250 C   0  0  0  0  0  0  0  0  0  0  0  0
   36.5480   27.3850   32.9000 C   0  0  0  0  0  0  0  0  0  0  0  0
   36.2030   28.0740   31.7510 C   0  0  0  0  0  0  0  0  0  0  0  0
   35.7320   29.3740   31.7580 C   0  0  0  0  0  0  0  0  0  0  0  0
   35.3380   30.2470   30.8130 N   0  0  0  0  0  0  0  0  0  0  0  0
   34.9850   31.3710   31.4680 C   0  0  0  0  0  0  0  0  0  0  0  0
   35.1530   31.2100   32.8030 N   0  0  0  0  0  0  0  0  0  0  0  0
   35.6210   29.9650   33.0160 C   0  0  0  0  0  0  0  0  0  0  0  0
   35.9570   29.3010   34.1810 C   0  0  0  0  0  0  0  0  0  0  0  0
   36.6910   27.4710   35.0300 H   0  0  0  0  0  0  0  0  0  0  0  0
   36.2960   27.6030   30.7980 H   0  0  0  0  0  0  0  0  0  0  0  0
   35.3190   30.0690   29.8010 H   0  0  0  0  0  0  0  0  0  0  0  0
   34.6170   32.2870   31.0220 H   0  0  0  0  0  0  0  0  0  0  0  0
   35.8630   29.7780   35.1480 H   0  0  0  0  0  0  0  0  0  0  0  0
   38.7700   23.6280   35.1970 C   0  0  1  0  0  0  0  0  0  0  0  0
   39.9850   24.2000   35.7300 C   0  0  2  0  0  0  0  0  0  0  0  0
   38.6370   24.5640   36.3950 C   0  0  2  0  0  0  0  0  0  0  0  0
   38.5830   22.5360   35.3120 H   0  0  0  0  0  0  0  0  0  0  0  0
   40.4980   23.7050   36.6280 H   0  0  0  0  0  0  0  0  0  0  0  0
   38.3320   25.5960   36.2260 H   0  0  0  0  0  0  0  0  0  0  0  0
   38.1840   23.8980   37.6470 C   0  0  0  0  0  0  0  0  0  0  0  0
   37.8210   24.8320   38.6240 F   0  0  0  0  0  0  0  0  0  0  0  0
   37.0430   23.1660   37.3650 F   0  0  0  0  0  0  0  0  0  0  0  0
   39.1060   23.0040   38.1550 F   0  0  0  0  0  0  0  0  0  0  0  0
   40.5710   25.2390   35.0920 O   0  0  0  0  0  0  0  0  0  0  0  0
   41.6690   25.4810   34.3840 C   0  0  0  0  0  0  0  0  0  0  0  0
   42.0680   24.5070   33.6680 O   0  0  0  0  0  0  0  0  0  0  0  0
   42.2120   26.7320   34.5270 N   0  0  0  0  0  0  0  0  0  0  0  0
   42.1220   27.4890   33.7950 H   0  0  0  0  0  0  0  0  0  0  0  0
   42.7400   26.9440   35.4080 H   0  0  0  0  0  0  0  0  0  0  0  0
  1  6  1  0  0  0  0
  1 23  1  0  0  0  0
  2  1  2  0  0  0  0
  3  4  2  0  0  0  0
  3  2  1  0  0  0  0
  4  5  1  0  0  0  0
  5 10  1  0  0  0  0
  5  6  2  0  0  0  0
  7  2  1  0  0  0  0
  8  3  1  0  0  0  0
  9 17  1  0  0  0  0
  9 18  1  0  0  0  0
 10  9  2  0  0  0  0
 11 12  2  0  0  0  0
 11 10  1  0  0  0  0
 12 16  1  0  0  0  0
 13 14  1  0  0  0  0
 13 12  1  0  0  0  0
 14 15  2  0  0  0  0
 15 16  1  0  0  0  0
 16 17  2  0  0  0  0
 17 22  1  0  0  0  0
 19 11  1  0  0  0  0
 20 13  1  0  0  0  0
 21 14  1  0  0  0  0
 23 26  1  1  0  0  0
 23 24  1  0  0  0  0
 23 25  1  0  0  0  0
 24 25  1  0  0  0  0
 24 27  1  1  0  0  0
 25 28  1  6  0  0  0
 25 29  1  0  0  0  0
 29 32  1  0  0  0  0
 29 30  1  0  0  0  0
 31 29  1  0  0  0  0
 33 24  1  0  0  0  0
 34 36  1  0  0  0  0
 34 33  1  0  0  0  0
 35 34  2  0  0  0  0
 36 38  1  0  0  0  0
 37 36  1  0  0  0  0
M  END
>  <minimizedAffinity>
-5.74077463

$$$$

 OpenBabel03272507223D

 38 41  0  0  1  0  0  0  0  0999 V2000
   37.2780   26.1940   33.6550 C   0  0  0  0  0  0  0  0  0  0  0  0
   37.0720   27.3870   34.3080 C   0  0  0  0  0  0  0  0  0  0  0  0
   37.9030   27.6190   35.4080 C   0  0  0  0  0  0  0  0  0  0  0  0
   38.8410   26.7020   35.7760 N   0  0  0  0  0  0  0  0  0  0  0  0
   39.0180   25.5360   35.1100 C   0  0  0  0  0  0  0  0  0  0  0  0
   38.2200   25.2920   34.0370 N   0  0  0  0  0  0  0  0  0  0  0  0
   36.3380   28.0870   34.0090 H   0  0  0  0  0  0  0  0  0  0  0  0
   37.8140   28.5300   35.9840 H   0  0  0  0  0  0  0  0  0  0  0  0
   41.2810   24.6600   34.9550 C   0  0  0  0  0  0  0  0  0  0  0  0
   40.0280   24.5580   35.5170 C   0  0  0  0  0  0  0  0  0  0  0  0
   39.7690   23.5530   36.4320 C   0  0  0  0  0  0  0  0  0  0  0  0
   40.7140   22.6240   36.8260 C   0  0  0  0  0  0  0  0  0  0  0  0
   40.7240   21.5780   37.6730 N   0  0  0  0  0  0  0  0  0  0  0  0
   41.9680   21.0640   37.6160 C   0  0  0  0  0  0  0  0  0  0  0  0
   42.7310   21.7730   36.7490 N   0  0  0  0  0  0  0  0  0  0  0  0
   41.9700   22.7590   36.2360 C   0  0  0  0  0  0  0  0  0  0  0  0
   42.2580   23.7530   35.3180 C   0  0  0  0  0  0  0  0  0  0  0  0
   41.4930   25.4430   34.2380 H   0  0  0  0  0  0  0  0  0  0  0  0
   38.8010   23.4680   36.8720 H   0  0  0  0  0  0  0  0  0  0  0  0
   39.9290   21.2560   38.2380 H   0  0  0  0  0  0  0  0  0  0  0  0
   42.3370   20.2100   38.1700 H   0  0  0  0  0  0  0  0  0  0  0  0
   43.2400   23.8400   34.8720 H   0  0  0  0  0  0  0  0  0  0  0  0
   36.3950   25.8990   32.4630 C   0  0  1  0  0  0  0  0  0  0  0  0
   36.7700   26.3170   31.1310 C   0  0  2  0  0  0  0  0  0  0  0  0
   37.0130   24.8470   31.5470 C   0  0  2  0  0  0  0  0  0  0  0  0
   35.3160   25.8450   32.7350 H   0  0  0  0  0  0  0  0  0  0  0  0
   36.0510   26.1370   30.2560 H   0  0  0  0  0  0  0  0  0  0  0  0
   38.0650   24.5960   31.6690 H   0  0  0  0  0  0  0  0  0  0  0  0
   36.0790   23.7610   31.1410 C   0  0  0  0  0  0  0  0  0  0  0  0
   36.7250   22.7880   30.3700 F   0  0  0  0  0  0  0  0  0  0  0  0
   35.6330   23.1180   32.2840 F   0  0  0  0  0  0  0  0  0  0  0  0
   34.9530   24.2240   30.4890 F   0  0  0  0  0  0  0  0  0  0  0  0
   37.9100   27.0210   30.9480 O   0  0  0  0  0  0  0  0  0  0  0  0
   38.4680   27.7860   30.0160 C   0  0  0  0  0  0  0  0  0  0  0  0
   39.6790   28.1050   30.2410 O   0  0  0  0  0  0  0  0  0  0  0  0
   37.6650   28.1220   28.9550 N   0  0  0  0  0  0  0  0  0  0  0  0
   37.7540   27.6800   27.9990 H   0  0  0  0  0  0  0  0  0  0  0  0
   36.9280   28.8530   29.1060 H   0  0  0  0  0  0  0  0  0  0  0  0
  1  6  2  0  0  0  0
  1  2  1  0  0  0  0
  2  3  2  0  0  0  0
  3  4  1  0  0  0  0
  3  8  1  0  0  0  0
  5 10  1  0  0  0  0
  5  4  2  0  0  0  0
  6  5  1  0  0  0  0
  7  2  1  0  0  0  0
  9 17  2  0  0  0  0
  9 10  1  0  0  0  0
 10 11  2  0  0  0  0
 11 12  1  0  0  0  0
 11 19  1  0  0  0  0
 12 13  1  0  0  0  0
 13 20  1  0  0  0  0
 14 13  1  0  0  0  0
 14 21  1  0  0  0  0
 15 14  2  0  0  0  0
 16 15  1  0  0  0  0
 16 12  2  0  0  0  0
 17 16  1  0  0  0  0
 18  9  1  0  0  0  0
 22 17  1  0  0  0  0
 23 26  1  1  0  0  0
 23  1  1  0  0  0  0
 24 27  1  6  0  0  0
 24 25  1  0  0  0  0
 24 23  1  0  0  0  0
 25 28  1  1  0  0  0
 25 23  1  0  0  0  0
 29 25  1  0  0  0  0
 29 31  1  0  0  0  0
 30 29  1  0  0  0  0
 32 29  1  0  0  0  0
 33 24  1  0  0  0  0
 34 35  2  0  0  0  0
 34 33  1  0  0  0  0
 36 38  1  0  0  0  0
 36 34  1  0  0  0  0
 37 36  1  0  0  0  0
M  END
>  <minimizedAffinity>
-5.73113632

$$$$

 OpenBabel03272507223D

 38 41  0  0  1  0  0  0  0  0999 V2000
   38.1110   24.6030   35.2960 C   0  0  0  0  0  0  0  0  0  0  0  0
   37.4780   25.8190   35.4070 C   0  0  0  0  0  0  0  0  0  0  0  0
   37.2230   26.4740   34.1980 C   0  0  0  0  0  0  0  0  0  0  0  0
   37.5930   25.9140   33.0130 N   0  0  0  0  0  0  0  0  0  0  0  0
   38.2160   24.7140   32.9390 C   0  0  0  0  0  0  0  0  0  0  0  0
   38.4730   24.0610   34.1030 N   0  0  0  0  0  0  0  0  0  0  0  0
   37.1980   26.2400   36.3360 H   0  0  0  0  0  0  0  0  0  0  0  0
   36.7290   27.4370   34.1870 H   0  0  0  0  0  0  0  0  0  0  0  0
   38.7840   22.7600   31.6090 C   0  0  0  0  0  0  0  0  0  0  0  0
   38.6100   24.1250   31.6590 C   0  0  0  0  0  0  0  0  0  0  0  0
   38.8110   24.8810   30.5180 C   0  0  0  0  0  0  0  0  0  0  0  0
   39.1820   24.3370   29.3030 C   0  0  0  0  0  0  0  0  0  0  0  0
   39.4330   24.8320   28.0770 N   0  0  0  0  0  0  0  0  0  0  0  0
   39.7520   23.7730   27.3060 C   0  0  0  0  0  0  0  0  0  0  0  0
   39.7030   22.6310   28.0320 N   0  0  0  0  0  0  0  0  0  0  0  0
   39.3480   22.9530   29.2900 C   0  0  0  0  0  0  0  0  0  0  0  0
   39.1560   22.1710   30.4150 C   0  0  0  0  0  0  0  0  0  0  0  0
   38.6310   22.1590   32.4970 H   0  0  0  0  0  0  0  0  0  0  0  0
   38.6770   25.9400   30.5490 H   0  0  0  0  0  0  0  0  0  0  0  0
   39.3850   25.8220   27.8070 H   0  0  0  0  0  0  0  0  0  0  0  0
   40.0140   23.7990   26.2550 H   0  0  0  0  0  0  0  0  0  0  0  0
   39.2900   21.0980   30.3840 H   0  0  0  0  0  0  0  0  0  0  0  0
   38.4130   23.8630   36.5800 C   0  0  1  0  0  0  0  0  0  0  0  0
   37.8590   22.5540   36.8380 C   0  0  2  0  0  0  0  0  0  0  0  0
   39.3190   22.6600   36.3400 C   0  0  2  0  0  0  0  0  0  0  0  0
   38.6070   24.5520   37.4340 H   0  0  0  0  0  0  0  0  0  0  0  0
   38.0520   22.0450   37.8470 H   0  0  0  0  0  0  0  0  0  0  0  0
   39.4600   22.3010   35.3210 H   0  0  0  0  0  0  0  0  0  0  0  0
   40.4690   22.5580   37.2800 C   0  0  0  0  0  0  0  0  0  0  0  0
   40.9230   21.2400   37.3980 F   0  0  0  0  0  0  0  0  0  0  0  0
   41.5250   23.2880   36.7590 F   0  0  0  0  0  0  0  0  0  0  0  0
   40.2040   23.0910   38.5270 F   0  0  0  0  0  0  0  0  0  0  0  0
   37.0200   21.9940   35.9360 O   0  0  0  0  0  0  0  0  0  0  0  0
   35.9910   21.1530   35.9230 C   0  0  0  0  0  0  0  0  0  0  0  0
   35.6830   20.7040   34.7720 O   0  0  0  0  0  0  0  0  0  0  0  0
   35.4110   20.8950   37.1390 N   0  0  0  0  0  0  0  0  0  0  0  0
   35.5570   19.9910   37.6680 H   0  0  0  0  0  0  0  0  0  0  0  0
   34.7960   21.6320   37.5600 H   0  0  0  0  0  0  0  0  0  0  0  0
  1  2  1  0  0  0  0
  1 23  1  0  0  0  0
  2  7  1  0  0  0  0
  3  2  2  0  0  0  0
  4  3  1  0  0  0  0
  5  4  2  0  0  0  0
  5  6  1  0  0  0  0
  6  1  2  0  0  0  0
  8  3  1  0  0  0  0
  9 10  1  0  0  0  0
  9 18  1  0  0  0  0
 10  5  1  0  0  0  0
 11 19  1  0  0  0  0
 11 10  2  0  0  0  0
 12 11  1  0  0  0  0
 13 12  1  0  0  0  0
 14 15  2  0  0  0  0
 14 13  1  0  0  0  0
 15 16  1  0  0  0  0
 16 12  2  0  0  0  0
 16 17  1  0  0  0  0
 17  9  2  0  0  0  0
 20 13  1  0  0  0  0
 21 14  1  0  0  0  0
 22 17  1  0  0  0  0
 23 24  1  0  0  0  0
 23 26  1  1  0  0  0
 24 27  1  1  0  0  0
 25 28  1  6  0  0  0
 25 23  1  0  0  0  0
 25 24  1  0  0  0  0
 25 29  1  0  0  0  0
 29 30  1  0  0  0  0
 29 32  1  0  0  0  0
 31 29  1  0  0  0  0
 33 24  1  0  0  0  0
 34 33  1  0  0  0  0
 34 36  1  0  0  0  0
 35 34  2  0  0  0  0
 36 38  1  0  0  0  0
 36 37  1  0  0  0  0
M  END
>  <minimizedAffinity>
-5.66241503

$$$$
