
 OpenBabel03262523403D

 27 28  0  0  1  0  0  0  0  0999 V2000
   37.0830   28.9710   50.3800 C   0  0  0  0  0  0  0  0  0  0  0  0
   37.7200   29.5870   49.2990 C   0  0  0  0  0  0  0  0  0  0  0  0
   37.2340   30.7810   48.7790 C   0  0  0  0  0  0  0  0  0  0  0  0
   36.1320   31.3060   49.3590 N   0  0  0  0  0  0  0  0  0  0  0  0
   35.5100   30.7120   50.4080 C   0  0  0  0  0  0  0  0  0  0  0  0
   35.9810   29.5530   50.9160 N   0  0  0  0  0  0  0  0  0  0  0  0
   37.8950   31.3970   47.6760 N   0  0  0  0  0  0  0  0  0  0  0  0
   37.2550   31.2690   46.4010 C   0  0  0  0  0  0  0  0  0  0  0  0
   37.8120   32.1390   45.3260 C   0  0  0  0  0  0  0  0  0  0  0  0
   38.9510   32.8980   45.6180 N   0  0  0  0  0  0  0  0  0  0  0  0
   39.8290   32.4450   46.6350 C   0  0  0  0  0  0  0  0  0  0  0  0
   39.1290   32.0850   47.9170 C   0  0  1  0  0  0  0  0  0  0  0  0
   37.5260   28.0530   50.7180 H   0  0  0  0  0  0  0  0  0  0  0  0
   38.6130   29.1370   48.8490 H   0  0  0  0  0  0  0  0  0  0  0  0
   34.6350   31.1900   50.8210 H   0  0  0  0  0  0  0  0  0  0  0  0
   36.1670   31.3190   46.5150 H   0  0  0  0  0  0  0  0  0  0  0  0
   37.4490   30.1990   46.0930 H   0  0  0  0  0  0  0  0  0  0  0  0
   36.9900   32.8180   45.0130 H   0  0  0  0  0  0  0  0  0  0  0  0
   38.0320   31.5610   44.3940 H   0  0  0  0  0  0  0  0  0  0  0  0
   38.7340   33.9280   45.7290 H   0  0  0  0  0  0  0  0  0  0  0  0
   40.3290   31.5170   46.2840 H   0  0  0  0  0  0  0  0  0  0  0  0
   40.6130   33.1910   46.8060 H   0  0  0  0  0  0  0  0  0  0  0  0
   39.7910   31.4170   48.5020 H   0  0  0  0  0  0  0  0  0  0  0  0
   38.9230   33.3360   48.7420 C   0  0  0  0  0  0  0  0  0  0  0  0
   37.6190   33.7850   48.6280 F   0  0  0  0  0  0  0  0  0  0  0  0
   39.0860   33.0000   50.0830 F   0  0  0  0  0  0  0  0  0  0  0  0
   39.8100   34.3360   48.3930 F   0  0  0  0  0  0  0  0  0  0  0  0
  1 13  1  0  0  0  0
  1  6  1  0  0  0  0
  2  1  2  0  0  0  0
  3  2  1  0  0  0  0
  3  4  2  0  0  0  0
  4  5  1  0  0  0  0
  5 15  1  0  0  0  0
  5  6  2  0  0  0  0
  7 12  1  0  0  0  0
  7  3  1  0  0  0  0
  8 16  1  0  0  0  0
  8  7  1  0  0  0  0
  9 10  1  0  0  0  0
  9  8  1  0  0  0  0
 10 20  1  0  0  0  0
 10 11  1  0  0  0  0
 11 22  1  0  0  0  0
 11 12  1  0  0  0  0
 12 23  1  1  0  0  0
 12 24  1  0  0  0  0
 14  2  1  0  0  0  0
 17  8  1  0  0  0  0
 18  9  1  0  0  0  0
 19  9  1  0  0  0  0
 21 11  1  0  0  0  0
 24 26  1  0  0  0  0
 25 24  1  0  0  0  0
 27 24  1  0  0  0  0
M  END
>  <minimizedAffinity>
-4.76070213

>  <minimizedRMSD>
1.74451649

$$$$
