
     RDKit          3D

 37 39  0  0  0  0  0  0  0  0999 V2000
   32.1658   28.5255   47.4256 C   0  0  2  0  0  0  0  0  0  0  0  0
   33.4074   28.3649   48.2532 C   0  0  1  0  0  0  0  0  0  0  0  0
   33.8070   27.0653   48.1663 O   0  0  0  0  0  0  0  0  0  0  0  0
   33.1095   26.4387   47.1388 C   0  0  0  0  0  0  0  0  0  0  0  0
   32.5058   27.5217   46.2799 C   0  0  1  0  0  0  0  0  0  0  0  0
   32.0953   29.8254   46.8831 O   0  0  0  0  0  0  0  0  0  0  0  0
   34.7157   29.4135   47.4986 S   0  0  0  0  0  0  0  0  0  0  0  0
   37.1378   29.2872   50.6259 C   0  0  0  0  0  0  0  0  0  0  0  0
   37.6393   30.5868   50.7587 C   0  0  0  0  0  0  0  0  0  0  0  0
   37.1994   31.5436   49.8281 C   0  0  0  0  0  0  0  0  0  0  0  0
   36.3246   31.1628   48.8641 N   0  0  0  0  0  0  0  0  0  0  0  0
   35.8703   29.8918   48.7803 C   0  0  0  0  0  0  0  0  0  0  0  0
   36.2694   28.9361   49.6587 N   0  0  0  0  0  0  0  0  0  0  0  0
   31.3630   27.0395   45.6911 O   0  0  0  0  0  0  0  0  0  0  0  0
   29.8830   29.1132   44.2121 Cl  0  0  0  0  0  0  0  0  0  0  0  0
   29.3355   28.1228   45.5445 C   0  0  0  0  0  0  0  0  0  0  0  0
   30.1239   27.1724   46.1515 C   0  0  0  0  0  0  0  0  0  0  0  0
   29.5665   26.4250   47.1916 C   0  0  0  0  0  0  0  0  0  0  0  0
   28.2637   26.6404   47.5920 C   0  0  0  0  0  0  0  0  0  0  0  0
   27.4638   27.5947   46.9866 C   0  0  0  0  0  0  0  0  0  0  0  0
   28.0253   28.3366   45.9502 C   0  0  0  0  0  0  0  0  0  0  0  0
   31.2364   28.2197   47.8963 H   0  0  0  0  0  0  0  0  0  0  0  0
   33.2360   28.7310   49.2815 H   0  0  0  0  0  0  0  0  0  0  0  0
   32.4190   25.7542   47.6047 H   0  0  0  0  0  0  0  0  0  0  0  0
   33.8235   25.8045   46.5523 H   0  0  0  0  0  0  0  0  0  0  0  0
   33.1947   28.0303   45.6174 H   0  0  0  0  0  0  0  0  0  0  0  0
   31.2302   30.2425   47.0272 H   0  0  0  0  0  0  0  0  0  0  0  0
   37.4620   28.5365   51.3295 H   0  0  0  0  0  0  0  0  0  0  0  0
   38.3382   30.8629   51.5398 H   0  0  0  0  0  0  0  0  0  0  0  0
   37.5353   32.5603   49.8603 H   0  0  0  0  0  0  0  0  0  0  0  0
   30.1014   25.6575   47.7230 H   0  0  0  0  0  0  0  0  0  0  0  0
   27.7738   26.1002   48.3856 H   0  0  0  0  0  0  0  0  0  0  0  0
   26.4429   27.7729   47.2903 H   0  0  0  0  0  0  0  0  0  0  0  0
   27.1745   29.3645   45.2938 C   0  0  0  0  0  0  0  0  0  0  0  0
   26.2413   29.8961   46.1645 F   0  0  0  0  0  0  0  0  0  0  0  0
   26.4874   28.7168   44.2596 F   0  0  0  0  0  0  0  0  0  0  0  0
   27.9194   30.3372   44.6863 F   0  0  0  0  0  0  0  0  0  0  0  0
  1  2  1  0
  3  2  1  0
  4  3  1  0
  5  4  1  0
  5  1  1  0
  6  1  1  0
  7  2  1  0
  7 12  1  0
  8  9  2  0
 10  9  1  0
 11 10  2  0
 12 11  1  0
 12 13  2  0
 13  8  1  0
 14 17  1  0
 14  5  1  0
 15 16  1  0
 16 21  2  0
 16 17  1  0
 17 18  2  0
 18 19  1  0
 20 19  2  0
 21 20  1  0
  1 22  1  1
  2 23  1  1
  4 24  1  0
  4 25  1  0
  5 26  1  6
  6 27  1  0
  8 28  1  0
  9 29  1  0
 10 30  1  0
 18 31  1  0
 19 32  1  0
 20 33  1  0
 34 35  1  0
 34 36  1  0
 34 37  1  0
 21 34  1  0
M  ISO  8  22  13  23  13  24  13  25  13  26  13  27   3  28  14  29  14
M  ISO  4  30  14  31  14  32  14  33  14
M  END
>  <DihAtoms>  (1) 
15,20,33,34

>  <DihDeg>  (1) 
60.068031368766036

$$$$
