
 OpenBabel03272506503D

 29 30  0  0  1  0  0  0  0  0999 V2000
   34.7510   30.4330   48.5880 C   0  0  1  0  0  0  0  0  0  0  0  0
   33.7130   30.3940   47.5610 C   0  0  0  0  0  0  0  0  0  0  0  0
   33.3890   29.0480   46.9720 C   0  0  0  0  0  0  0  0  0  0  0  0
   33.3970   27.9250   47.9340 C   0  0  2  0  0  0  0  0  0  0  0  0
   34.4510   27.9430   48.9920 C   0  0  0  0  0  0  0  0  0  0  0  0
   34.6190   29.3110   49.5720 C   0  0  0  0  0  0  0  0  0  0  0  0
   34.5740   31.3570   49.2300 H   0  0  0  0  0  0  0  0  0  0  0  0
   32.7500   30.6380   48.1160 H   0  0  0  0  0  0  0  0  0  0  0  0
   33.7210   31.1250   46.7620 H   0  0  0  0  0  0  0  0  0  0  0  0
   34.1230   28.8090   46.1640 H   0  0  0  0  0  0  0  0  0  0  0  0
   32.4060   29.1190   46.4860 H   0  0  0  0  0  0  0  0  0  0  0  0
   32.3990   27.9220   48.4490 H   0  0  0  0  0  0  0  0  0  0  0  0
   34.0800   27.2950   49.8270 H   0  0  0  0  0  0  0  0  0  0  0  0
   35.4230   27.5460   48.6220 H   0  0  0  0  0  0  0  0  0  0  0  0
   33.5990   29.5090   50.0430 H   0  0  0  0  0  0  0  0  0  0  0  0
   35.2720   29.3430   50.4380 H   0  0  0  0  0  0  0  0  0  0  0  0
   36.4950   30.5470   46.7520 C   0  0  0  0  0  0  0  0  0  0  0  0
   36.1400   30.6480   48.1190 C   0  0  0  0  0  0  0  0  0  0  0  0
   37.1370   30.9690   49.0200 C   0  0  0  0  0  0  0  0  0  0  0  0
   38.4080   31.1730   48.5470 N   0  0  0  0  0  0  0  0  0  0  0  0
   38.7180   31.0700   47.2270 C   0  0  0  0  0  0  0  0  0  0  0  0
   37.7460   30.7540   46.3360 N   0  0  0  0  0  0  0  0  0  0  0  0
   35.7620   30.3010   46.0250 H   0  0  0  0  0  0  0  0  0  0  0  0
   36.9940   31.0760   50.0860 H   0  0  0  0  0  0  0  0  0  0  0  0
   39.7330   31.2380   46.8890 H   0  0  0  0  0  0  0  0  0  0  0  0
   33.5700   26.6310   47.1650 C   0  0  0  0  0  0  0  0  0  0  0  0
   34.2170   26.9530   45.9930 F   0  0  0  0  0  0  0  0  0  0  0  0
   34.2830   25.7420   47.9380 F   0  0  0  0  0  0  0  0  0  0  0  0
   32.2930   26.1600   46.9090 F   0  0  0  0  0  0  0  0  0  0  0  0
  1  7  1  1  0  0  0
  1  6  1  0  0  0  0
  2  8  1  0  0  0  0
  2  1  1  0  0  0  0
  3  2  1  0  0  0  0
  3  4  1  0  0  0  0
  4 12  1  1  0  0  0
  4  5  1  0  0  0  0
  5  6  1  0  0  0  0
  5 13  1  0  0  0  0
  6 15  1  0  0  0  0
  6 16  1  0  0  0  0
  9  2  1  0  0  0  0
 10  3  1  0  0  0  0
 11  3  1  0  0  0  0
 14  5  1  0  0  0  0
 17 18  1  0  0  0  0
 18  1  1  0  0  0  0
 18 19  2  0  0  0  0
 19 24  1  0  0  0  0
 20 19  1  0  0  0  0
 21 20  2  0  0  0  0
 22 17  2  0  0  0  0
 22 21  1  0  0  0  0
 23 17  1  0  0  0  0
 25 21  1  0  0  0  0
 26  4  1  0  0  0  0
 26 28  1  0  0  0  0
 27 26  1  0  0  0  0
 29 26  1  0  0  0  0
M  END
>  <minimizedAffinity>
-4.23014975

>  <minimizedRMSD>
1.83315313

$$$$
