
 OpenBabel03262521123D

 26 27  0  0  0  0  0  0  0  0999 V2000
   35.6450   30.0210   46.1030 O   0  0  0  0  0  0  0  0  0  0  0  0
   34.4380   29.6250   46.9470 P   0  0  1  0  0  0  0  0  0  0  0  0
   34.4850   27.9650   47.3290 O   0  0  0  0  0  0  0  0  0  0  0  0
   33.7030   27.8290   47.9320 H   0  0  0  0  0  0  0  0  0  0  0  0
   34.3660   30.4730   48.4260 O   0  0  0  0  0  0  0  0  0  0  0  0
   35.3760   30.3810   49.3740 C   0  0  0  0  0  0  0  0  0  0  0  0
   35.4430   29.4470   50.4210 C   0  0  0  0  0  0  0  0  0  0  0  0
   36.5270   29.5110   51.2660 C   0  0  0  0  0  0  0  0  0  0  0  0
   37.4860   30.4480   51.0800 N   0  0  0  0  0  0  0  0  0  0  0  0
   37.3930   31.3540   50.0410 C   0  0  0  0  0  0  0  0  0  0  0  0
   36.3390   31.3060   49.2060 N   0  0  0  0  0  0  0  0  0  0  0  0
   34.6370   28.7560   50.4750 H   0  0  0  0  0  0  0  0  0  0  0  0
   36.5830   28.7920   52.0760 H   0  0  0  0  0  0  0  0  0  0  0  0
   38.1910   32.0830   49.9400 H   0  0  0  0  0  0  0  0  0  0  0  0
   33.0720   29.9770   46.0090 O   0  0  0  0  0  0  0  0  0  0  0  0
   31.8560   29.4330   46.4340 C   0  0  0  0  0  0  0  0  0  0  0  0
   30.5650   29.6930   46.0240 C   0  0  0  0  0  0  0  0  0  0  0  0
   29.7300   28.9320   46.7130 N   0  0  0  0  0  0  0  0  0  0  0  0
   30.4170   28.1680   47.5730 C   0  0  0  0  0  0  0  0  0  0  0  0
   31.7310   28.4860   47.3930 N   0  0  0  0  0  0  0  0  0  0  0  0
   30.3160   30.4110   45.2590 H   0  0  0  0  0  0  0  0  0  0  0  0
   28.6920   28.9530   46.5760 H   0  0  0  0  0  0  0  0  0  0  0  0
   29.7800   27.2070   48.4900 C   0  0  0  0  0  0  0  0  0  0  0  0
   29.3740   27.9310   49.6020 F   0  0  0  0  0  0  0  0  0  0  0  0
   28.7630   26.5010   47.9070 F   0  0  0  0  0  0  0  0  0  0  0  0
   30.7700   26.3270   48.9470 F   0  0  0  0  0  0  0  0  0  0  0  0
  2  1  2  6  0  0  0
  2  3  1  0  0  0  0
  2  5  1  0  0  0  0
  3  4  1  0  0  0  0
  5  6  1  0  0  0  0
  6  7  1  0  0  0  0
  7 12  1  0  0  0  0
  7  8  2  0  0  0  0
  8 13  1  0  0  0  0
  9  8  1  0  0  0  0
 10  9  2  0  0  0  0
 11  6  2  0  0  0  0
 11 10  1  0  0  0  0
 14 10  1  0  0  0  0
 15 16  1  0  0  0  0
 15  2  1  0  0  0  0
 16 20  1  0  0  0  0
 17 16  2  0  0  0  0
 17 18  1  0  0  0  0
 18 19  1  0  0  0  0
 19 23  1  0  0  0  0
 20 19  2  0  0  0  0
 21 17  1  0  0  0  0
 22 18  1  0  0  0  0
 23 26  1  0  0  0  0
 23 24  1  0  0  0  0
 25 23  1  0  0  0  0
M  END
>  <minimizedAffinity>
-4.39217663

>  <minimizedRMSD>
1.22097552

$$$$
