
 OpenBabel03272507123D

 35 38  0  0  0  0  0  0  0  0999 V2000
   35.8340   29.1820   49.8190 C   0  0  0  0  0  0  0  0  0  0  0  0
   34.7980   29.6900   50.5240 C   0  0  0  0  0  0  0  0  0  0  0  0
   33.6340   29.1040   50.0210 C   0  0  0  0  0  0  0  0  0  0  0  0
   34.0530   28.2440   49.0050 C   0  0  0  0  0  0  0  0  0  0  0  0
   35.3530   28.3420   48.9420 O   0  0  0  0  0  0  0  0  0  0  0  0
   34.8130   30.4180   51.3360 H   0  0  0  0  0  0  0  0  0  0  0  0
   32.6570   29.3270   50.4010 H   0  0  0  0  0  0  0  0  0  0  0  0
   33.5560   26.4750   47.3210 C   0  0  0  0  0  0  0  0  0  0  0  0
   33.1290   27.4340   48.2200 C   0  0  0  0  0  0  0  0  0  0  0  0
   31.7760   27.6800   48.4280 C   0  0  0  0  0  0  0  0  0  0  0  0
   30.8700   26.9380   47.7080 C   0  0  0  0  0  0  0  0  0  0  0  0
   29.5370   26.9550   47.6970 N   0  0  0  0  0  0  0  0  0  0  0  0
   29.1110   26.0410   46.8230 N   0  0  0  0  0  0  0  0  0  0  0  0
   30.1870   25.4410   46.2760 C   0  0  0  0  0  0  0  0  0  0  0  0
   31.3280   25.9880   46.8180 C   0  0  0  0  0  0  0  0  0  0  0  0
   32.6820   25.7330   46.6010 C   0  0  0  0  0  0  0  0  0  0  0  0
   34.6190   26.3190   47.1920 H   0  0  0  0  0  0  0  0  0  0  0  0
   31.3770   28.4200   49.1210 H   0  0  0  0  0  0  0  0  0  0  0  0
   28.9020   27.5680   48.2650 H   0  0  0  0  0  0  0  0  0  0  0  0
   30.1060   24.6500   45.5260 H   0  0  0  0  0  0  0  0  0  0  0  0
   32.9900   24.9760   45.8910 H   0  0  0  0  0  0  0  0  0  0  0  0
   37.2110   29.5800   50.0820 C   0  0  0  0  0  0  0  0  0  0  0  0
   37.8570   28.9790   50.9670 O   0  0  0  0  0  0  0  0  0  0  0  0
   37.7510   30.6660   49.2840 C   0  0  0  0  0  0  0  0  0  0  0  0
   37.7210   31.9350   49.8370 C   0  0  0  0  0  0  0  0  0  0  0  0
   38.2260   33.0110   49.1160 C   0  0  0  0  0  0  0  0  0  0  0  0
   38.7280   32.7300   47.8750 N   0  0  0  0  0  0  0  0  0  0  0  0
   38.7490   31.5010   47.3580 C   0  0  0  0  0  0  0  0  0  0  0  0
   38.2590   30.4690   48.0650 N   0  0  0  0  0  0  0  0  0  0  0  0
   37.3210   32.1320   50.8150 H   0  0  0  0  0  0  0  0  0  0  0  0
   38.2400   34.0140   49.4680 H   0  0  0  0  0  0  0  0  0  0  0  0
   39.2960   31.2020   46.0140 C   0  0  0  0  0  0  0  0  0  0  0  0
   38.9650   32.1640   45.1030 F   0  0  0  0  0  0  0  0  0  0  0  0
   40.6700   30.9970   46.0680 F   0  0  0  0  0  0  0  0  0  0  0  0
   38.7690   29.9920   45.5470 F   0  0  0  0  0  0  0  0  0  0  0  0
  1 22  1  0  0  0  0
  1  2  2  0  0  0  0
  2  6  1  0  0  0  0
  3  7  1  0  0  0  0
  3  2  1  0  0  0  0
  4  3  2  0  0  0  0
  5  4  1  0  0  0  0
  5  1  1  0  0  0  0
  8  9  1  0  0  0  0
  9 10  2  0  0  0  0
  9  4  1  0  0  0  0
 10 18  1  0  0  0  0
 11 10  1  0  0  0  0
 12 11  1  0  0  0  0
 12 19  1  0  0  0  0
 13 12  1  0  0  0  0
 14 15  1  0  0  0  0
 14 13  2  0  0  0  0
 15 11  2  0  0  0  0
 16 15  1  0  0  0  0
 16  8  2  0  0  0  0
 17  8  1  0  0  0  0
 20 14  1  0  0  0  0
 21 16  1  0  0  0  0
 22 23  2  0  0  0  0
 24 25  1  0  0  0  0
 24 22  1  0  0  0  0
 25 30  1  0  0  0  0
 26 31  1  0  0  0  0
 26 25  2  0  0  0  0
 27 26  1  0  0  0  0
 28 27  2  0  0  0  0
 28 29  1  0  0  0  0
 29 24  2  0  0  0  0
 32 34  1  0  0  0  0
 32 28  1  0  0  0  0
 33 32  1  0  0  0  0
 35 32  1  0  0  0  0
M  END
>  <minimizedAffinity>
-6.61908054

>  <minimizedRMSD>
0.380938917

$$$$
