
 OpenBabel03272510163D

 23 24  0  0  0  0  0  0  0  0999 V2000
   37.3020   29.3310   51.0270 Br  0  0  0  0  0  0  0  0  0  0  0  0
   35.9540   29.3390   49.6670 C   0  0  0  0  0  0  0  0  0  0  0  0
   35.9900   30.2710   48.6550 C   0  0  0  0  0  0  0  0  0  0  0  0
   34.9820   30.2280   47.6970 C   0  0  0  0  0  0  0  0  0  0  0  0
   33.9640   29.2860   47.7370 C   0  0  0  0  0  0  0  0  0  0  0  0
   33.9650   28.3760   48.7620 C   0  0  0  0  0  0  0  0  0  0  0  0
   34.9620   28.4110   49.7210 C   0  0  0  0  0  0  0  0  0  0  0  0
   34.9970   30.9550   46.8940 H   0  0  0  0  0  0  0  0  0  0  0  0
   33.1640   27.6600   48.7650 H   0  0  0  0  0  0  0  0  0  0  0  0
   34.8840   27.6540   50.4930 H   0  0  0  0  0  0  0  0  0  0  0  0
   37.9920   33.1990   49.4700 C   0  0  0  0  0  0  0  0  0  0  0  0
   39.0240   33.1910   48.4950 C   0  0  0  0  0  0  0  0  0  0  0  0
   39.0150   32.1640   47.5570 C   0  0  0  0  0  0  0  0  0  0  0  0
   38.0230   31.2260   47.6240 N   0  0  0  0  0  0  0  0  0  0  0  0
   37.0480   31.2740   48.5840 C   0  0  0  0  0  0  0  0  0  0  0  0
   37.0410   32.2580   49.4970 N   0  0  0  0  0  0  0  0  0  0  0  0
   37.9350   33.9680   50.2320 H   0  0  0  0  0  0  0  0  0  0  0  0
   39.7590   33.9580   48.5100 H   0  0  0  0  0  0  0  0  0  0  0  0
   39.7780   32.1120   46.7930 H   0  0  0  0  0  0  0  0  0  0  0  0
   32.9350   29.3290   46.6610 C   0  0  0  0  0  0  0  0  0  0  0  0
   31.8360   28.6190   47.1010 F   0  0  0  0  0  0  0  0  0  0  0  0
   32.6360   30.6410   46.3460 F   0  0  0  0  0  0  0  0  0  0  0  0
   33.3970   28.7560   45.4880 F   0  0  0  0  0  0  0  0  0  0  0  0
  2  7  1  0  0  0  0
  2  1  1  0  0  0  0
  3  2  2  0  0  0  0
  4  5  2  0  0  0  0
  4  3  1  0  0  0  0
  5  6  1  0  0  0  0
  6  9  1  0  0  0  0
  6  7  2  0  0  0  0
  7 10  1  0  0  0  0
  8  4  1  0  0  0  0
 11 16  1  0  0  0  0
 11 17  1  0  0  0  0
 12 18  1  0  0  0  0
 12 11  2  0  0  0  0
 13 14  2  0  0  0  0
 13 12  1  0  0  0  0
 14 15  1  0  0  0  0
 15  3  1  0  0  0  0
 15 16  2  0  0  0  0
 19 13  1  0  0  0  0
 20 21  1  0  0  0  0
 20  5  1  0  0  0  0
 22 20  1  0  0  0  0
 23 20  1  0  0  0  0
M  END
>  <minimizedAffinity>
-5.77196312

>  <minimizedRMSD>
0.255857795

$$$$
