REMARK  Name = 
REMARK  2 active torsions:
REMARK  status: ('A' for Active; 'I' for Inactive)
REMARK    1  A    between atoms: C_5  and  C_7
REMARK    2  A    between atoms: C_12  and  C_20
REMARK                            x       y       z     vdW  Elec       q    Type
REMARK                         _______ _______ _______ _____ _____    ______ ____
ROOT
ATOM      1  C   UNL     1      36.097  30.131  48.618  0.00  0.00    +0.000 A 
ATOM      2  C   UNL     1      35.280  29.960  47.514  0.00  0.00    +0.000 A 
ATOM      3  C   UNL     1      34.295  28.992  47.499  0.00  0.00    +0.000 A 
ATOM      4  C   UNL     1      34.151  28.195  48.628  0.00  0.00    +0.000 A 
ATOM      5  C   UNL     1      34.955  28.351  49.736  0.00  0.00    +0.000 A 
ATOM      6  C   UNL     1      35.947  29.337  49.733  0.00  0.00    +0.000 A 
ATOM      7  H   UNL     1      35.399  30.585  46.638  0.00  0.00    +0.000 HD
ATOM      8  H   UNL     1      33.642  28.824  46.669  0.00  0.00    +0.000 HD
ATOM      9  H   UNL     1      33.400  27.417  48.683  0.00  0.00    +0.000 HD
ATOM     10  H   UNL     1      34.818  27.716  50.598  0.00  0.00    +0.000 HD
ENDROOT
BRANCH   1  15
ATOM     11  C   UNL     1      38.006  33.105  49.467  0.00  0.00    +0.000 A 
ATOM     12  C   UNL     1      38.968  33.215  48.465  0.00  0.00    +0.000 A 
ATOM     13  C   UNL     1      38.949  32.225  47.469  0.00  0.00    +0.000 A 
ATOM     14  N   UNL     1      38.019  31.237  47.532  0.00  0.00    +0.000 NA
ATOM     15  C   UNL     1      37.101  31.172  48.531  0.00  0.00    +0.000 A 
ATOM     16  N   UNL     1      37.117  32.116  49.482  0.00  0.00    +0.000 NA
ATOM     17  H   UNL     1      37.976  33.848  50.265  0.00  0.00    +0.000 HD
ATOM     18  H   UNL     1      39.692  34.013  48.443  0.00  0.00    +0.000 HD
ATOM     19  H   UNL     1      39.675  32.251  46.653  0.00  0.00    +0.000 HD
ENDBRANCH   1  15
BRANCH   6  20
ATOM     20  C   UNL     1      36.792  29.491  50.927  0.00  0.00    +0.000 C 
ATOM     21  F   UNL     1      38.062  29.012  50.733  0.00  0.00    +0.000 F 
ATOM     22  F   UNL     1      36.738  30.800  51.350  0.00  0.00    +0.000 F 
ATOM     23  F   UNL     1      36.283  28.724  51.991  0.00  0.00    +0.000 F 
ENDBRANCH   6  20
TORSDOF 2
