
 OpenBabel03272509003D

 23 24  0  0  0  0  0  0  0  0999 V2000
   38.3360   31.7040   48.8440 Cl  0  0  0  0  0  0  0  0  0  0  0  0
   37.1440   30.9700   47.8230 C   0  0  0  0  0  0  0  0  0  0  0  0
   37.3300   30.9470   46.4580 C   0  0  0  0  0  0  0  0  0  0  0  0
   36.4090   30.3800   45.6070 C   0  0  0  0  0  0  0  0  0  0  0  0
   35.2530   29.8090   46.1070 C   0  0  0  0  0  0  0  0  0  0  0  0
   35.0370   29.8170   47.4840 C   0  0  0  0  0  0  0  0  0  0  0  0
   33.6150   29.1270   48.2450 Cl  0  0  0  0  0  0  0  0  0  0  0  0
   35.9870   30.3950   48.2890 C   0  0  0  0  0  0  0  0  0  0  0  0
   36.5470   30.3590   44.5380 H   0  0  0  0  0  0  0  0  0  0  0  0
   34.4980   29.3500   45.4840 H   0  0  0  0  0  0  0  0  0  0  0  0
   39.6500   33.2820   44.8320 C   0  0  0  0  0  0  0  0  0  0  0  0
   40.8630   32.5940   44.8680 C   0  0  0  0  0  0  0  0  0  0  0  0
   40.8740   31.3030   45.4650 C   0  0  0  0  0  0  0  0  0  0  0  0
   39.7040   30.8240   45.9590 N   0  0  0  0  0  0  0  0  0  0  0  0
   38.5420   31.5430   45.8980 C   0  0  0  0  0  0  0  0  0  0  0  0
   38.5280   32.7590   45.3370 N   0  0  0  0  0  0  0  0  0  0  0  0
   39.6940   34.2610   44.3670 H   0  0  0  0  0  0  0  0  0  0  0  0
   41.7770   32.9680   44.4800 H   0  0  0  0  0  0  0  0  0  0  0  0
   41.7790   30.7140   45.5260 H   0  0  0  0  0  0  0  0  0  0  0  0
   35.7820   30.4190   49.7760 C   0  0  0  0  0  0  0  0  0  0  0  0
   34.4470   30.5170   50.1000 F   0  0  0  0  0  0  0  0  0  0  0  0
   36.1880   29.1690   50.2550 F   0  0  0  0  0  0  0  0  0  0  0  0
   36.5740   31.3570   50.3690 F   0  0  0  0  0  0  0  0  0  0  0  0
  2  8  1  0  0  0  0
  2  1  1  0  0  0  0
  3  2  2  0  0  0  0
  4  5  2  0  0  0  0
  4  3  1  0  0  0  0
  5  6  1  0  0  0  0
  6  7  1  0  0  0  0
  6  8  2  0  0  0  0
  8 20  1  0  0  0  0
  9  4  1  0  0  0  0
 10  5  1  0  0  0  0
 11 12  2  0  0  0  0
 11 16  1  0  0  0  0
 12 13  1  0  0  0  0
 13 19  1  0  0  0  0
 13 14  2  0  0  0  0
 15 14  1  0  0  0  0
 15  3  1  0  0  0  0
 16 15  2  0  0  0  0
 17 11  1  0  0  0  0
 18 12  1  0  0  0  0
 20 21  1  0  0  0  0
 20 22  1  0  0  0  0
 20 23  1  0  0  0  0
M  END
>  <minimizedAffinity>
-6.01937008

>  <minimizedRMSD>
3.26913738

$$$$
