
 OpenBabel03272500543D

 23 24  0  0  0  0  0  0  0  0999 V2000
   39.5340   24.3380   36.0330 C   0  0  0  0  0  0  0  0  0  0  0  0
   40.7170   24.0570   35.3520 C   0  0  0  0  0  0  0  0  0  0  0  0
   41.6140   23.0810   35.7420 C   0  0  0  0  0  0  0  0  0  0  0  0
   41.3310   22.3300   36.8770 C   0  0  0  0  0  0  0  0  0  0  0  0
   40.1420   22.6210   37.5510 C   0  0  0  0  0  0  0  0  0  0  0  0
   39.2200   23.6020   37.1780 C   0  0  0  0  0  0  0  0  0  0  0  0
   41.0180   24.5890   34.4600 H   0  0  0  0  0  0  0  0  0  0  0  0
   42.5220   22.8590   35.2270 H   0  0  0  0  0  0  0  0  0  0  0  0
   41.9760   21.5470   37.2530 H   0  0  0  0  0  0  0  0  0  0  0  0
   39.9440   22.0210   38.4330 H   0  0  0  0  0  0  0  0  0  0  0  0
   37.9570   25.1260   34.3520 C   0  0  0  0  0  0  0  0  0  0  0  0
   38.7330   25.4050   35.4860 C   0  0  0  0  0  0  0  0  0  0  0  0
   38.6350   26.7280   35.9790 C   0  0  0  0  0  0  0  0  0  0  0  0
   37.8350   27.6240   35.3700 N   0  0  0  0  0  0  0  0  0  0  0  0
   37.1000   27.2920   34.2690 C   0  0  0  0  0  0  0  0  0  0  0  0
   37.1710   26.0260   33.7650 N   0  0  0  0  0  0  0  0  0  0  0  0
   37.8690   24.2340   33.7630 H   0  0  0  0  0  0  0  0  0  0  0  0
   39.2380   26.9260   36.8490 H   0  0  0  0  0  0  0  0  0  0  0  0
   36.5350   28.1530   33.9470 H   0  0  0  0  0  0  0  0  0  0  0  0
   38.0220   23.8250   37.9900 C   0  0  0  0  0  0  0  0  0  0  0  0
   37.9610   22.7780   38.9400 F   0  0  0  0  0  0  0  0  0  0  0  0
   36.8720   23.5930   37.2380 F   0  0  0  0  0  0  0  0  0  0  0  0
   37.9930   24.9840   38.6990 F   0  0  0  0  0  0  0  0  0  0  0  0
  1  6  1  0  0  0  0
  2  3  1  0  0  0  0
  2  1  2  0  0  0  0
  3  4  2  0  0  0  0
  4  9  1  0  0  0  0
  4  5  1  0  0  0  0
  5 10  1  0  0  0  0
  6  5  2  0  0  0  0
  6 20  1  0  0  0  0
  7  2  1  0  0  0  0
  8  3  1  0  0  0  0
 11 12  1  0  0  0  0
 12 13  2  0  0  0  0
 12  1  1  0  0  0  0
 13 18  1  0  0  0  0
 14 13  1  0  0  0  0
 15 14  2  0  0  0  0
 16 15  1  0  0  0  0
 16 11  2  0  0  0  0
 17 11  1  0  0  0  0
 19 15  1  0  0  0  0
 20 23  1  0  0  0  0
 20 21  1  0  0  0  0
 22 20  1  0  0  0  0
M  END
>  <minimizedAffinity>
-5.01124144

$$$$

 OpenBabel03272500543D

 23 24  0  0  0  0  0  0  0  0999 V2000
   38.4380   24.6510   34.6310 C   0  0  0  0  0  0  0  0  0  0  0  0
   37.9590   23.8990   33.5600 C   0  0  0  0  0  0  0  0  0  0  0  0
   37.1700   24.4170   32.5510 C   0  0  0  0  0  0  0  0  0  0  0  0
   36.8280   25.7630   32.5950 C   0  0  0  0  0  0  0  0  0  0  0  0
   37.3140   26.5070   33.6730 C   0  0  0  0  0  0  0  0  0  0  0  0
   38.1120   26.0090   34.7050 C   0  0  0  0  0  0  0  0  0  0  0  0
   38.1740   22.8470   33.4440 H   0  0  0  0  0  0  0  0  0  0  0  0
   36.7980   23.8480   31.7280 H   0  0  0  0  0  0  0  0  0  0  0  0
   36.2160   26.2510   31.8470 H   0  0  0  0  0  0  0  0  0  0  0  0
   37.0340   27.5550   33.6840 H   0  0  0  0  0  0  0  0  0  0  0  0
   40.6080   23.8160   35.3560 C   0  0  0  0  0  0  0  0  0  0  0  0
   39.2310   23.9340   35.5980 C   0  0  0  0  0  0  0  0  0  0  0  0
   38.7690   23.3280   36.7900 C   0  0  0  0  0  0  0  0  0  0  0  0
   39.6300   22.6940   37.6090 N   0  0  0  0  0  0  0  0  0  0  0  0
   40.9610   22.6140   37.3220 C   0  0  0  0  0  0  0  0  0  0  0  0
   41.4420   23.1860   36.1800 N   0  0  0  0  0  0  0  0  0  0  0  0
   41.2070   24.1440   34.5300 H   0  0  0  0  0  0  0  0  0  0  0  0
   37.7090   23.4260   36.9590 H   0  0  0  0  0  0  0  0  0  0  0  0
   41.4610   22.0680   38.1070 H   0  0  0  0  0  0  0  0  0  0  0  0
   38.5340   26.8910   35.7950 C   0  0  0  0  0  0  0  0  0  0  0  0
   37.9030   28.1410   35.5870 F   0  0  0  0  0  0  0  0  0  0  0  0
   39.8790   27.2280   35.6590 F   0  0  0  0  0  0  0  0  0  0  0  0
   38.1890   26.4940   37.0480 F   0  0  0  0  0  0  0  0  0  0  0  0
  1  6  1  0  0  0  0
  1 12  1  0  0  0  0
  2  1  2  0  0  0  0
  3  4  2  0  0  0  0
  3  2  1  0  0  0  0
  4  5  1  0  0  0  0
  5 10  1  0  0  0  0
  5  6  2  0  0  0  0
  6 20  1  0  0  0  0
  7  2  1  0  0  0  0
  8  3  1  0  0  0  0
  9  4  1  0  0  0  0
 11 12  2  0  0  0  0
 11 16  1  0  0  0  0
 12 13  1  0  0  0  0
 13 18  1  0  0  0  0
 13 14  2  0  0  0  0
 15 14  1  0  0  0  0
 15 19  1  0  0  0  0
 16 15  2  0  0  0  0
 17 11  1  0  0  0  0
 20 23  1  0  0  0  0
 21 20  1  0  0  0  0
 22 20  1  0  0  0  0
M  END
>  <minimizedAffinity>
-4.64976311

$$$$

 OpenBabel03272500543D

 23 24  0  0  0  0  0  0  0  0999 V2000
   38.7050   24.5190   34.5540 C   0  0  0  0  0  0  0  0  0  0  0  0
   37.9320   23.7160   33.7180 C   0  0  0  0  0  0  0  0  0  0  0  0
   37.7110   23.9880   32.3810 C   0  0  0  0  0  0  0  0  0  0  0  0
   38.2890   25.1240   31.8270 C   0  0  0  0  0  0  0  0  0  0  0  0
   39.0620   25.9220   32.6750 C   0  0  0  0  0  0  0  0  0  0  0  0
   39.2990   25.6700   34.0290 C   0  0  0  0  0  0  0  0  0  0  0  0
   37.4450   22.8140   34.0610 H   0  0  0  0  0  0  0  0  0  0  0  0
   37.1210   23.3790   31.7340 H   0  0  0  0  0  0  0  0  0  0  0  0
   38.1700   25.4130   30.7910 H   0  0  0  0  0  0  0  0  0  0  0  0
   39.5010   26.8030   32.2190 H   0  0  0  0  0  0  0  0  0  0  0  0
   37.8350   24.5400   36.8290 C   0  0  0  0  0  0  0  0  0  0  0  0
   38.8050   24.0850   35.9250 C   0  0  0  0  0  0  0  0  0  0  0  0
   39.7900   23.2280   36.4720 C   0  0  0  0  0  0  0  0  0  0  0  0
   39.7560   22.8960   37.7760 N   0  0  0  0  0  0  0  0  0  0  0  0
   38.7840   23.3700   38.6080 C   0  0  0  0  0  0  0  0  0  0  0  0
   37.8180   24.2000   38.1160 N   0  0  0  0  0  0  0  0  0  0  0  0
   37.0110   25.2130   36.6950 H   0  0  0  0  0  0  0  0  0  0  0  0
   40.5290   22.8880   35.7640 H   0  0  0  0  0  0  0  0  0  0  0  0
   38.9460   22.9810   39.6010 H   0  0  0  0  0  0  0  0  0  0  0  0
   40.1080   26.6030   34.8160 C   0  0  0  0  0  0  0  0  0  0  0  0
   40.5890   27.5910   33.9240 F   0  0  0  0  0  0  0  0  0  0  0  0
   41.2920   25.9950   35.2300 F   0  0  0  0  0  0  0  0  0  0  0  0
   39.4540   27.2680   35.8040 F   0  0  0  0  0  0  0  0  0  0  0  0
  1 12  1  0  0  0  0
  2  7  1  0  0  0  0
  2  1  2  0  0  0  0
  3  2  1  0  0  0  0
  4  3  2  0  0  0  0
  4  5  1  0  0  0  0
  5  6  2  0  0  0  0
  6  1  1  0  0  0  0
  6 20  1  0  0  0  0
  8  3  1  0  0  0  0
  9  4  1  0  0  0  0
 10  5  1  0  0  0  0
 11 16  1  0  0  0  0
 12 13  1  0  0  0  0
 12 11  2  0  0  0  0
 13 14  2  0  0  0  0
 14 15  1  0  0  0  0
 15 19  1  0  0  0  0
 16 15  2  0  0  0  0
 17 11  1  0  0  0  0
 18 13  1  0  0  0  0
 20 22  1  0  0  0  0
 20 23  1  0  0  0  0
 21 20  1  0  0  0  0
M  END
>  <minimizedAffinity>
-4.5159936

$$$$

 OpenBabel03272500543D

 23 24  0  0  0  0  0  0  0  0999 V2000
   38.7030   26.2930   33.0500 C   0  0  0  0  0  0  0  0  0  0  0  0
   39.8070   26.4860   32.2210 C   0  0  0  0  0  0  0  0  0  0  0  0
   41.0420   26.9090   32.6750 C   0  0  0  0  0  0  0  0  0  0  0  0
   41.2050   27.1580   34.0320 C   0  0  0  0  0  0  0  0  0  0  0  0
   40.0920   26.9600   34.8530 C   0  0  0  0  0  0  0  0  0  0  0  0
   38.8330   26.5350   34.4200 C   0  0  0  0  0  0  0  0  0  0  0  0
   39.7730   26.3180   31.1550 H   0  0  0  0  0  0  0  0  0  0  0  0
   41.8920   27.0600   32.0480 H   0  0  0  0  0  0  0  0  0  0  0  0
   42.1360   27.4900   34.4730 H   0  0  0  0  0  0  0  0  0  0  0  0
   40.2450   27.1610   35.9080 H   0  0  0  0  0  0  0  0  0  0  0  0
   36.7020   26.8490   31.7760 C   0  0  0  0  0  0  0  0  0  0  0  0
   37.4920   25.8680   32.3930 C   0  0  0  0  0  0  0  0  0  0  0  0
   37.0030   24.5430   32.2940 C   0  0  0  0  0  0  0  0  0  0  0  0
   35.8550   24.2890   31.6380 N   0  0  0  0  0  0  0  0  0  0  0  0
   35.1290   25.2870   31.0550 C   0  0  0  0  0  0  0  0  0  0  0  0
   35.5700   26.5770   31.1330 N   0  0  0  0  0  0  0  0  0  0  0  0
   36.8160   27.9140   31.7290 H   0  0  0  0  0  0  0  0  0  0  0  0
   37.6210   23.8020   32.7740 H   0  0  0  0  0  0  0  0  0  0  0  0
   34.2540   24.8630   30.5890 H   0  0  0  0  0  0  0  0  0  0  0  0
   37.7380   26.3930   35.3820 C   0  0  0  0  0  0  0  0  0  0  0  0
   38.2110   26.8790   36.6250 F   0  0  0  0  0  0  0  0  0  0  0  0
   37.5130   25.0480   35.6710 F   0  0  0  0  0  0  0  0  0  0  0  0
   36.6090   27.0950   35.1040 F   0  0  0  0  0  0  0  0  0  0  0  0
  1  6  1  0  0  0  0
  2  3  1  0  0  0  0
  2  1  2  0  0  0  0
  3  4  2  0  0  0  0
  4  9  1  0  0  0  0
  4  5  1  0  0  0  0
  5 10  1  0  0  0  0
  6  5  2  0  0  0  0
  6 20  1  0  0  0  0
  7  2  1  0  0  0  0
  8  3  1  0  0  0  0
 11 12  1  0  0  0  0
 12  1  1  0  0  0  0
 13 12  2  0  0  0  0
 13 18  1  0  0  0  0
 14 13  1  0  0  0  0
 15 16  1  0  0  0  0
 15 14  2  0  0  0  0
 16 11  2  0  0  0  0
 17 11  1  0  0  0  0
 19 15  1  0  0  0  0
 20 22  1  0  0  0  0
 20 21  1  0  0  0  0
 23 20  1  0  0  0  0
M  END
>  <minimizedAffinity>
-4.49986506

$$$$

 OpenBabel03272500543D

 23 24  0  0  0  0  0  0  0  0999 V2000
   33.9060   30.2230   34.9870 C   0  0  0  0  0  0  0  0  0  0  0  0
   32.6950   29.5540   35.1540 C   0  0  0  0  0  0  0  0  0  0  0  0
   31.8080   29.8160   36.1810 C   0  0  0  0  0  0  0  0  0  0  0  0
   32.1300   30.8020   37.1060 C   0  0  0  0  0  0  0  0  0  0  0  0
   33.3460   31.4670   36.9280 C   0  0  0  0  0  0  0  0  0  0  0  0
   34.2600   31.2200   35.9000 C   0  0  0  0  0  0  0  0  0  0  0  0
   32.3620   28.7740   34.4840 H   0  0  0  0  0  0  0  0  0  0  0  0
   30.8790   29.3080   36.3160 H   0  0  0  0  0  0  0  0  0  0  0  0
   31.4950   31.0730   37.9380 H   0  0  0  0  0  0  0  0  0  0  0  0
   33.5750   32.2320   37.6620 H   0  0  0  0  0  0  0  0  0  0  0  0
   34.4340   30.3640   32.6130 C   0  0  0  0  0  0  0  0  0  0  0  0
   34.7090   29.7990   33.8670 C   0  0  0  0  0  0  0  0  0  0  0  0
   35.7690   28.8630   33.8920 C   0  0  0  0  0  0  0  0  0  0  0  0
   36.4440   28.5670   32.7650 N   0  0  0  0  0  0  0  0  0  0  0  0
   36.1310   29.1510   31.5720 C   0  0  0  0  0  0  0  0  0  0  0  0
   35.1120   30.0580   31.5100 N   0  0  0  0  0  0  0  0  0  0  0  0
   33.6770   31.0590   32.3070 H   0  0  0  0  0  0  0  0  0  0  0  0
   35.9660   28.4380   34.8630 H   0  0  0  0  0  0  0  0  0  0  0  0
   36.7910   28.7730   30.8080 H   0  0  0  0  0  0  0  0  0  0  0  0
   35.5160   31.9710   35.8430 C   0  0  0  0  0  0  0  0  0  0  0  0
   35.4650   32.9470   36.8670 F   0  0  0  0  0  0  0  0  0  0  0  0
   35.5590   32.7650   34.6980 F   0  0  0  0  0  0  0  0  0  0  0  0
   36.6480   31.2520   36.0580 F   0  0  0  0  0  0  0  0  0  0  0  0
  1  2  2  0  0  0  0
  1  6  1  0  0  0  0
  2  3  1  0  0  0  0
  3  8  1  0  0  0  0
  3  4  2  0  0  0  0
  4  9  1  0  0  0  0
  5  4  1  0  0  0  0
  5 10  1  0  0  0  0
  6  5  2  0  0  0  0
  7  2  1  0  0  0  0
 11 12  1  0  0  0  0
 12 13  2  0  0  0  0
 12  1  1  0  0  0  0
 13 18  1  0  0  0  0
 14 13  1  0  0  0  0
 15 14  2  0  0  0  0
 16 15  1  0  0  0  0
 16 11  2  0  0  0  0
 17 11  1  0  0  0  0
 19 15  1  0  0  0  0
 20  6  1  0  0  0  0
 20 23  1  0  0  0  0
 20 21  1  0  0  0  0
 22 20  1  0  0  0  0
M  END
>  <minimizedAffinity>
-4.45712948

$$$$

 OpenBabel03272500543D

 23 24  0  0  0  0  0  0  0  0999 V2000
   38.2020   24.5650   34.6410 C   0  0  0  0  0  0  0  0  0  0  0  0
   38.0850   23.1780   34.7100 C   0  0  0  0  0  0  0  0  0  0  0  0
   37.9830   22.4740   35.8960 C   0  0  0  0  0  0  0  0  0  0  0  0
   37.9950   23.1800   37.0930 C   0  0  0  0  0  0  0  0  0  0  0  0
   38.1110   24.5700   37.0110 C   0  0  0  0  0  0  0  0  0  0  0  0
   38.2170   25.3040   35.8270 C   0  0  0  0  0  0  0  0  0  0  0  0
   38.0680   22.5480   33.8320 H   0  0  0  0  0  0  0  0  0  0  0  0
   37.8940   21.4130   35.9580 H   0  0  0  0  0  0  0  0  0  0  0  0
   37.9180   22.7110   38.0650 H   0  0  0  0  0  0  0  0  0  0  0  0
   38.1180   25.0970   37.9590 H   0  0  0  0  0  0  0  0  0  0  0  0
   37.1330   25.3980   32.6170 C   0  0  0  0  0  0  0  0  0  0  0  0
   38.3170   25.1190   33.3150 C   0  0  0  0  0  0  0  0  0  0  0  0
   39.5150   25.4260   32.6270 C   0  0  0  0  0  0  0  0  0  0  0  0
   39.4730   25.9530   31.3880 N   0  0  0  0  0  0  0  0  0  0  0  0
   38.2880   26.2040   30.7590 C   0  0  0  0  0  0  0  0  0  0  0  0
   37.1120   25.9190   31.3920 N   0  0  0  0  0  0  0  0  0  0  0  0
   36.1070   25.2350   32.8820 H   0  0  0  0  0  0  0  0  0  0  0  0
   40.4150   25.2050   33.1760 H   0  0  0  0  0  0  0  0  0  0  0  0
   38.4850   26.6220   29.7840 H   0  0  0  0  0  0  0  0  0  0  0  0
   38.3620   26.7600   35.8800 C   0  0  0  0  0  0  0  0  0  0  0  0
   38.2470   27.1410   37.2380 F   0  0  0  0  0  0  0  0  0  0  0  0
   37.2500   27.3830   35.3160 F   0  0  0  0  0  0  0  0  0  0  0  0
   39.5500   27.2540   35.4450 F   0  0  0  0  0  0  0  0  0  0  0  0
  1  2  2  0  0  0  0
  1  6  1  0  0  0  0
  2  3  1  0  0  0  0
  3  8  1  0  0  0  0
  3  4  2  0  0  0  0
  4  9  1  0  0  0  0
  5  4  1  0  0  0  0
  5 10  1  0  0  0  0
  6 20  1  0  0  0  0
  6  5  2  0  0  0  0
  7  2  1  0  0  0  0
 11 17  1  0  0  0  0
 11 12  1  0  0  0  0
 12  1  1  0  0  0  0
 13 18  1  0  0  0  0
 13 12  2  0  0  0  0
 14 13  1  0  0  0  0
 15 14  2  0  0  0  0
 15 16  1  0  0  0  0
 16 11  2  0  0  0  0
 19 15  1  0  0  0  0
 20 21  1  0  0  0  0
 22 20  1  0  0  0  0
 23 20  1  0  0  0  0
M  END
>  <minimizedAffinity>
-4.39690256

$$$$

 OpenBabel03272500543D

 23 24  0  0  0  0  0  0  0  0999 V2000
   39.6810   22.7630   35.4730 C   0  0  0  0  0  0  0  0  0  0  0  0
   40.8480   22.1160   35.0720 C   0  0  0  0  0  0  0  0  0  0  0  0
   41.7990   21.6320   35.9510 C   0  0  0  0  0  0  0  0  0  0  0  0
   41.5890   21.7930   37.3160 C   0  0  0  0  0  0  0  0  0  0  0  0
   40.4150   22.4430   37.7060 C   0  0  0  0  0  0  0  0  0  0  0  0
   39.4400   22.9420   36.8380 C   0  0  0  0  0  0  0  0  0  0  0  0
   41.0940   21.9470   34.0340 H   0  0  0  0  0  0  0  0  0  0  0  0
   42.6950   21.1370   35.6530 H   0  0  0  0  0  0  0  0  0  0  0  0
   42.2790   21.4450   38.0730 H   0  0  0  0  0  0  0  0  0  0  0  0
   40.2740   22.5560   38.7760 H   0  0  0  0  0  0  0  0  0  0  0  0
   37.9270   22.2880   33.8510 C   0  0  0  0  0  0  0  0  0  0  0  0
   38.8170   23.2160   34.4120 C   0  0  0  0  0  0  0  0  0  0  0  0
   38.7600   24.5200   33.8640 C   0  0  0  0  0  0  0  0  0  0  0  0
   37.8920   24.8060   32.8750 N   0  0  0  0  0  0  0  0  0  0  0  0
   37.0480   23.8600   32.3710 C   0  0  0  0  0  0  0  0  0  0  0  0
   37.0760   22.5910   32.8730 N   0  0  0  0  0  0  0  0  0  0  0  0
   37.7860   21.2440   34.0480 H   0  0  0  0  0  0  0  0  0  0  0  0
   39.4510   25.2190   34.3050 H   0  0  0  0  0  0  0  0  0  0  0  0
   36.4450   24.3010   31.5930 H   0  0  0  0  0  0  0  0  0  0  0  0
   38.2640   23.6290   37.3770 C   0  0  0  0  0  0  0  0  0  0  0  0
   38.3820   24.9950   37.0240 F   0  0  0  0  0  0  0  0  0  0  0  0
   38.3280   23.6900   38.7680 F   0  0  0  0  0  0  0  0  0  0  0  0
   37.0630   23.2140   36.8980 F   0  0  0  0  0  0  0  0  0  0  0  0
  1  6  1  0  0  0  0
  2  1  2  0  0  0  0
  2  3  1  0  0  0  0
  3  4  2  0  0  0  0
  4  5  1  0  0  0  0
  4  9  1  0  0  0  0
  5 10  1  0  0  0  0
  6 20  1  0  0  0  0
  6  5  2  0  0  0  0
  7  2  1  0  0  0  0
  8  3  1  0  0  0  0
 11 17  1  0  0  0  0
 11 12  1  0  0  0  0
 12  1  1  0  0  0  0
 13 18  1  0  0  0  0
 13 12  2  0  0  0  0
 14 13  1  0  0  0  0
 15 16  1  0  0  0  0
 15 14  2  0  0  0  0
 16 11  2  0  0  0  0
 19 15  1  0  0  0  0
 20 22  1  0  0  0  0
 21 20  1  0  0  0  0
 23 20  1  0  0  0  0
M  END
>  <minimizedAffinity>
-4.38041162

$$$$

 OpenBabel03272500543D

 23 24  0  0  0  0  0  0  0  0999 V2000
   38.4610   25.3500   35.2640 C   0  0  0  0  0  0  0  0  0  0  0  0
   38.3860   26.6090   35.8570 C   0  0  0  0  0  0  0  0  0  0  0  0
   37.7240   27.6840   35.2950 C   0  0  0  0  0  0  0  0  0  0  0  0
   37.0940   27.5130   34.0680 C   0  0  0  0  0  0  0  0  0  0  0  0
   37.1760   26.2460   33.4830 C   0  0  0  0  0  0  0  0  0  0  0  0
   37.8390   25.1450   34.0300 C   0  0  0  0  0  0  0  0  0  0  0  0
   38.8440   26.8340   36.8100 H   0  0  0  0  0  0  0  0  0  0  0  0
   37.6620   28.6510   35.7420 H   0  0  0  0  0  0  0  0  0  0  0  0
   36.5540   28.2980   33.5570 H   0  0  0  0  0  0  0  0  0  0  0  0
   36.6770   26.1380   32.5260 H   0  0  0  0  0  0  0  0  0  0  0  0
   38.6310   23.8160   37.1490 C   0  0  0  0  0  0  0  0  0  0  0  0
   39.2110   24.3570   35.9920 C   0  0  0  0  0  0  0  0  0  0  0  0
   40.4910   23.8510   35.6600 C   0  0  0  0  0  0  0  0  0  0  0  0
   41.0720   22.9120   36.4300 N   0  0  0  0  0  0  0  0  0  0  0  0
   40.4570   22.4220   37.5450 C   0  0  0  0  0  0  0  0  0  0  0  0
   39.2230   22.8880   37.8970 N   0  0  0  0  0  0  0  0  0  0  0  0
   37.7050   24.0390   37.6390 H   0  0  0  0  0  0  0  0  0  0  0  0
   40.9220   24.2780   34.7690 H   0  0  0  0  0  0  0  0  0  0  0  0
   41.0950   21.6850   38.0070 H   0  0  0  0  0  0  0  0  0  0  0  0
   37.8740   23.8760   33.2990 C   0  0  0  0  0  0  0  0  0  0  0  0
   36.8770   23.9450   32.2970 F   0  0  0  0  0  0  0  0  0  0  0  0
   37.3990   22.8380   34.0990 F   0  0  0  0  0  0  0  0  0  0  0  0
   39.0380   23.5910   32.6590 F   0  0  0  0  0  0  0  0  0  0  0  0
  1  2  1  0  0  0  0
  1 12  1  0  0  0  0
  2  7  1  0  0  0  0
  3  8  1  0  0  0  0
  3  2  2  0  0  0  0
  4  3  1  0  0  0  0
  5  6  1  0  0  0  0
  5  4  2  0  0  0  0
  6  1  2  0  0  0  0
  9  4  1  0  0  0  0
 10  5  1  0  0  0  0
 11 17  1  0  0  0  0
 11 16  1  0  0  0  0
 12 11  2  0  0  0  0
 13 12  1  0  0  0  0
 13 14  2  0  0  0  0
 14 15  1  0  0  0  0
 15 16  2  0  0  0  0
 15 19  1  0  0  0  0
 18 13  1  0  0  0  0
 20  6  1  0  0  0  0
 20 22  1  0  0  0  0
 21 20  1  0  0  0  0
 23 20  1  0  0  0  0
M  END
>  <minimizedAffinity>
-4.37382603

$$$$

 OpenBabel03272500543D

 23 24  0  0  0  0  0  0  0  0999 V2000
   40.1050   24.5160   35.4520 C   0  0  0  0  0  0  0  0  0  0  0  0
   40.5290   25.6770   34.8080 C   0  0  0  0  0  0  0  0  0  0  0  0
   39.8340   26.8710   34.8410 C   0  0  0  0  0  0  0  0  0  0  0  0
   38.6430   26.9300   35.5540 C   0  0  0  0  0  0  0  0  0  0  0  0
   38.2280   25.7610   36.1960 C   0  0  0  0  0  0  0  0  0  0  0  0
   38.9100   24.5420   36.1770 C   0  0  0  0  0  0  0  0  0  0  0  0
   41.4420   25.7240   34.2320 H   0  0  0  0  0  0  0  0  0  0  0  0
   40.1520   27.7640   34.3510 H   0  0  0  0  0  0  0  0  0  0  0  0
   38.0360   27.8220   35.6340 H   0  0  0  0  0  0  0  0  0  0  0  0
   37.2950   25.8330   36.7460 H   0  0  0  0  0  0  0  0  0  0  0  0
   42.0030   23.1860   36.2010 C   0  0  0  0  0  0  0  0  0  0  0  0
   40.9520   23.3610   35.2890 C   0  0  0  0  0  0  0  0  0  0  0  0
   40.8380   22.3610   34.2950 C   0  0  0  0  0  0  0  0  0  0  0  0
   41.6990   21.3260   34.2680 N   0  0  0  0  0  0  0  0  0  0  0  0
   42.7020   21.2080   35.1850 C   0  0  0  0  0  0  0  0  0  0  0  0
   42.8440   22.1560   36.1580 N   0  0  0  0  0  0  0  0  0  0  0  0
   42.3340   23.7990   37.0170 H   0  0  0  0  0  0  0  0  0  0  0  0
   40.0260   22.5110   33.6020 H   0  0  0  0  0  0  0  0  0  0  0  0
   43.2680   20.3130   34.9790 H   0  0  0  0  0  0  0  0  0  0  0  0
   38.3510   23.3800   36.8720 C   0  0  0  0  0  0  0  0  0  0  0  0
   37.1690   23.8110   37.5200 F   0  0  0  0  0  0  0  0  0  0  0  0
   39.1530   23.0240   37.9540 F   0  0  0  0  0  0  0  0  0  0  0  0
   37.9920   22.3330   36.0820 F   0  0  0  0  0  0  0  0  0  0  0  0
  1  6  1  0  0  0  0
  2  3  1  0  0  0  0
  2  1  2  0  0  0  0
  3  4  2  0  0  0  0
  4  9  1  0  0  0  0
  4  5  1  0  0  0  0
  5 10  1  0  0  0  0
  6  5  2  0  0  0  0
  6 20  1  0  0  0  0
  7  2  1  0  0  0  0
  8  3  1  0  0  0  0
 11 17  1  0  0  0  0
 12  1  1  0  0  0  0
 12 11  2  0  0  0  0
 13 12  1  0  0  0  0
 14 13  2  0  0  0  0
 14 15  1  0  0  0  0
 15 16  2  0  0  0  0
 16 11  1  0  0  0  0
 18 13  1  0  0  0  0
 19 15  1  0  0  0  0
 20 21  1  0  0  0  0
 20 22  1  0  0  0  0
 23 20  1  0  0  0  0
M  END
>  <minimizedAffinity>
-4.31122255

$$$$
