
 OpenBabel03272501473D

 42 45  0  0  1  0  0  0  0  0999 V2000
   37.5690   25.8950   33.8840 C   0  0  0  0  0  0  0  0  0  0  0  0
   38.2800   26.1290   35.0610 C   0  0  0  0  0  0  0  0  0  0  0  0
   38.0370   27.3310   35.7190 C   0  0  0  0  0  0  0  0  0  0  0  0
   37.1400   28.2080   35.2030 N   0  0  0  0  0  0  0  0  0  0  0  0
   36.4650   27.9440   34.0520 C   0  0  0  0  0  0  0  0  0  0  0  0
   36.6920   26.7900   33.4090 N   0  0  0  0  0  0  0  0  0  0  0  0
   37.7020   24.9790   33.3100 H   0  0  0  0  0  0  0  0  0  0  0  0
   38.5940   27.5030   36.6300 H   0  0  0  0  0  0  0  0  0  0  0  0
   40.4250   25.0510   34.8300 C   0  0  0  0  0  0  0  0  0  0  0  0
   39.1970   25.1020   35.4780 C   0  0  0  0  0  0  0  0  0  0  0  0
   38.9850   24.1570   36.4590 C   0  0  0  0  0  0  0  0  0  0  0  0
   39.9720   23.2180   36.7570 C   0  0  0  0  0  0  0  0  0  0  0  0
   40.0210   22.2170   37.6400 N   0  0  0  0  0  0  0  0  0  0  0  0
   41.2050   21.5970   37.5360 C   0  0  0  0  0  0  0  0  0  0  0  0
   41.9370   22.2060   36.5680 N   0  0  0  0  0  0  0  0  0  0  0  0
   41.1740   23.2060   36.0870 C   0  0  0  0  0  0  0  0  0  0  0  0
   41.4020   24.1290   35.1190 C   0  0  0  0  0  0  0  0  0  0  0  0
   40.6570   25.7720   34.0420 H   0  0  0  0  0  0  0  0  0  0  0  0
   38.0480   24.1850   36.9630 H   0  0  0  0  0  0  0  0  0  0  0  0
   39.2680   21.9380   38.3210 H   0  0  0  0  0  0  0  0  0  0  0  0
   41.6060   20.7470   38.0840 H   0  0  0  0  0  0  0  0  0  0  0  0
   42.3480   24.1380   34.5750 H   0  0  0  0  0  0  0  0  0  0  0  0
   35.5010   28.9650   33.5630 C   0  0  0  0  0  0  0  0  0  0  0  0
   34.4840   28.6880   33.9220 H   0  0  0  0  0  0  0  0  0  0  0  0
   35.4460   28.9850   32.4550 H   0  0  0  0  0  0  0  0  0  0  0  0
   35.8070   30.3320   34.0740 C   0  0  1  0  0  0  0  0  0  0  0  0
   35.8250   31.2670   32.8700 C   0  0  0  0  0  0  0  0  0  0  0  0
   34.7790   32.3170   33.1020 C   0  0  0  0  0  0  0  0  0  0  0  0
   33.8280   31.6750   34.0550 C   0  0  0  0  0  0  0  0  0  0  0  0
   34.7620   30.9110   34.9730 C   0  0  2  0  0  0  0  0  0  0  0  0
   36.8150   30.3370   34.5630 H   0  0  0  0  0  0  0  0  0  0  0  0
   35.5610   30.7430   31.9220 H   0  0  0  0  0  0  0  0  0  0  0  0
   36.8500   31.6780   32.7510 H   0  0  0  0  0  0  0  0  0  0  0  0
   34.1930   32.5200   32.1600 H   0  0  0  0  0  0  0  0  0  0  0  0
   35.1640   33.2950   33.4230 H   0  0  0  0  0  0  0  0  0  0  0  0
   33.1750   30.9890   33.4990 H   0  0  0  0  0  0  0  0  0  0  0  0
   33.2520   32.3890   34.6780 H   0  0  0  0  0  0  0  0  0  0  0  0
   34.1890   30.1220   35.5070 H   0  0  0  0  0  0  0  0  0  0  0  0
   35.3790   31.8100   36.0000 C   0  0  0  0  0  0  0  0  0  0  0  0
   36.7230   31.4310   36.0930 F   0  0  0  0  0  0  0  0  0  0  0  0
   35.3670   33.1270   35.6390 F   0  0  0  0  0  0  0  0  0  0  0  0
   34.8270   31.6090   37.2470 F   0  0  0  0  0  0  0  0  0  0  0  0
  1  2  1  0  0  0  0
  2 10  1  0  0  0  0
  2  3  2  0  0  0  0
  3  8  1  0  0  0  0
  4  3  1  0  0  0  0
  5  4  2  0  0  0  0
  6  1  2  0  0  0  0
  6  5  1  0  0  0  0
  7  1  1  0  0  0  0
  9 17  2  0  0  0  0
  9 10  1  0  0  0  0
 10 11  2  0  0  0  0
 11 12  1  0  0  0  0
 11 19  1  0  0  0  0
 12 13  1  0  0  0  0
 13 20  1  0  0  0  0
 14 13  1  0  0  0  0
 14 21  1  0  0  0  0
 15 14  2  0  0  0  0
 16 15  1  0  0  0  0
 16 12  2  0  0  0  0
 17 16  1  0  0  0  0
 18  9  1  0  0  0  0
 22 17  1  0  0  0  0
 23 24  1  0  0  0  0
 23  5  1  0  0  0  0
 23 26  1  0  0  0  0
 25 23  1  0  0  0  0
 26 31  1  1  0  0  0
 26 30  1  0  0  0  0
 27 28  1  0  0  0  0
 27 26  1  0  0  0  0
 28 35  1  0  0  0  0
 28 29  1  0  0  0  0
 29 37  1  0  0  0  0
 29 30  1  0  0  0  0
 30 38  1  1  0  0  0
 30 39  1  0  0  0  0
 32 27  1  0  0  0  0
 33 27  1  0  0  0  0
 34 28  1  0  0  0  0
 36 29  1  0  0  0  0
 39 40  1  0  0  0  0
 39 42  1  0  0  0  0
 41 39  1  0  0  0  0
M  END
>  <minimizedAffinity>
-6.09282064

$$$$

 OpenBabel03272501473D

 42 45  0  0  1  0  0  0  0  0999 V2000
   38.7860   26.6930   35.8890 C   0  0  0  0  0  0  0  0  0  0  0  0
   38.8140   25.4920   35.1800 C   0  0  0  0  0  0  0  0  0  0  0  0
   37.9100   25.3560   34.1300 C   0  0  0  0  0  0  0  0  0  0  0  0
   37.0570   26.3710   33.8440 N   0  0  0  0  0  0  0  0  0  0  0  0
   37.0600   27.5280   34.5590 C   0  0  0  0  0  0  0  0  0  0  0  0
   37.9250   27.6700   35.5720 N   0  0  0  0  0  0  0  0  0  0  0  0
   39.4610   26.8790   36.7230 H   0  0  0  0  0  0  0  0  0  0  0  0
   37.9400   24.4210   33.5880 H   0  0  0  0  0  0  0  0  0  0  0  0
   41.0360   24.5690   35.0200 C   0  0  0  0  0  0  0  0  0  0  0  0
   39.7770   24.5120   35.6050 C   0  0  0  0  0  0  0  0  0  0  0  0
   39.5820   23.5160   36.5380 C   0  0  0  0  0  0  0  0  0  0  0  0
   40.6150   22.6320   36.8500 C   0  0  0  0  0  0  0  0  0  0  0  0
   40.6890   21.6020   37.6960 N   0  0  0  0  0  0  0  0  0  0  0  0
   41.9160   21.0660   37.6310 C   0  0  0  0  0  0  0  0  0  0  0  0
   42.6520   21.7610   36.7250 N   0  0  0  0  0  0  0  0  0  0  0  0
   41.8460   22.7280   36.2440 C   0  0  0  0  0  0  0  0  0  0  0  0
   42.0580   23.7030   35.3240 C   0  0  0  0  0  0  0  0  0  0  0  0
   41.2570   25.3360   34.2730 H   0  0  0  0  0  0  0  0  0  0  0  0
   38.6220   23.4610   36.9930 H   0  0  0  0  0  0  0  0  0  0  0  0
   39.9250   21.2450   38.3270 H   0  0  0  0  0  0  0  0  0  0  0  0
   42.3460   20.2230   38.1670 H   0  0  0  0  0  0  0  0  0  0  0  0
   43.0260   23.7960   34.8310 H   0  0  0  0  0  0  0  0  0  0  0  0
   36.0880   28.5850   34.1720 C   0  0  0  0  0  0  0  0  0  0  0  0
   36.5380   29.5770   34.4030 H   0  0  0  0  0  0  0  0  0  0  0  0
   35.1510   28.5210   34.7620 H   0  0  0  0  0  0  0  0  0  0  0  0
   35.7660   28.5600   32.7160 C   0  0  1  0  0  0  0  0  0  0  0  0
   34.4320   29.2760   32.5410 C   0  0  0  0  0  0  0  0  0  0  0  0
   34.6650   30.4390   31.6210 C   0  0  0  0  0  0  0  0  0  0  0  0
   36.1210   30.7240   31.7630 C   0  0  0  0  0  0  0  0  0  0  0  0
   36.7130   29.3310   31.8540 C   0  0  2  0  0  0  0  0  0  0  0  0
   35.6660   27.5000   32.3680 H   0  0  0  0  0  0  0  0  0  0  0  0
   34.0410   29.6880   33.5000 H   0  0  0  0  0  0  0  0  0  0  0  0
   33.6820   28.5500   32.1590 H   0  0  0  0  0  0  0  0  0  0  0  0
   34.1260   31.3600   31.9880 H   0  0  0  0  0  0  0  0  0  0  0  0
   34.3210   30.2920   30.5880 H   0  0  0  0  0  0  0  0  0  0  0  0
   36.2870   31.2840   32.6930 H   0  0  0  0  0  0  0  0  0  0  0  0
   36.5770   31.2270   30.8840 H   0  0  0  0  0  0  0  0  0  0  0  0
   37.7280   29.3910   32.3020 H   0  0  0  0  0  0  0  0  0  0  0  0
   36.8400   28.6990   30.5020 C   0  0  0  0  0  0  0  0  0  0  0  0
   38.1610   28.2480   30.4050 F   0  0  0  0  0  0  0  0  0  0  0  0
   36.0390   27.6040   30.3420 F   0  0  0  0  0  0  0  0  0  0  0  0
   36.6660   29.6210   29.4930 F   0  0  0  0  0  0  0  0  0  0  0  0
  1  7  1  0  0  0  0
  2 10  1  0  0  0  0
  2  1  2  0  0  0  0
  3  2  1  0  0  0  0
  4  3  2  0  0  0  0
  4  5  1  0  0  0  0
  5  6  2  0  0  0  0
  6  1  1  0  0  0  0
  8  3  1  0  0  0  0
  9 17  2  0  0  0  0
  9 10  1  0  0  0  0
 10 11  2  0  0  0  0
 11 12  1  0  0  0  0
 11 19  1  0  0  0  0
 12 13  1  0  0  0  0
 13 20  1  0  0  0  0
 14 13  1  0  0  0  0
 14 21  1  0  0  0  0
 15 14  2  0  0  0  0
 16 15  1  0  0  0  0
 16 12  2  0  0  0  0
 17 16  1  0  0  0  0
 18  9  1  0  0  0  0
 22 17  1  0  0  0  0
 23 24  1  0  0  0  0
 23  5  1  0  0  0  0
 23 25  1  0  0  0  0
 26 31  1  6  0  0  0
 26 23  1  0  0  0  0
 27 26  1  0  0  0  0
 27 32  1  0  0  0  0
 28 29  1  0  0  0  0
 28 34  1  0  0  0  0
 28 27  1  0  0  0  0
 29 30  1  0  0  0  0
 29 36  1  0  0  0  0
 30 38  1  1  0  0  0
 30 26  1  0  0  0  0
 33 27  1  0  0  0  0
 35 28  1  0  0  0  0
 37 29  1  0  0  0  0
 39 30  1  0  0  0  0
 40 39  1  0  0  0  0
 41 39  1  0  0  0  0
 42 39  1  0  0  0  0
M  END
>  <minimizedAffinity>
-6.05463648

$$$$

 OpenBabel03272501473D

 42 45  0  0  1  0  0  0  0  0999 V2000
   38.1610   26.8480   35.7540 C   0  0  0  0  0  0  0  0  0  0  0  0
   38.2700   25.6300   35.0830 C   0  0  0  0  0  0  0  0  0  0  0  0
   37.6290   25.5270   33.8510 C   0  0  0  0  0  0  0  0  0  0  0  0
   36.9400   26.5880   33.3630 N   0  0  0  0  0  0  0  0  0  0  0  0
   36.8570   27.7600   34.0480 C   0  0  0  0  0  0  0  0  0  0  0  0
   37.4700   27.8710   35.2350 N   0  0  0  0  0  0  0  0  0  0  0  0
   38.6340   27.0090   36.7220 H   0  0  0  0  0  0  0  0  0  0  0  0
   37.7200   24.5780   33.3400 H   0  0  0  0  0  0  0  0  0  0  0  0
   38.5220   24.0830   36.9150 C   0  0  0  0  0  0  0  0  0  0  0  0
   39.0360   24.5990   35.7320 C   0  0  0  0  0  0  0  0  0  0  0  0
   40.2310   24.0660   35.3020 C   0  0  0  0  0  0  0  0  0  0  0  0
   40.8620   23.0640   36.0400 C   0  0  0  0  0  0  0  0  0  0  0  0
   42.0010   22.3930   35.8510 N   0  0  0  0  0  0  0  0  0  0  0  0
   42.1690   21.5220   36.8560 C   0  0  0  0  0  0  0  0  0  0  0  0
   41.1210   21.6310   37.7130 N   0  0  0  0  0  0  0  0  0  0  0  0
   40.3150   22.5840   37.2070 C   0  0  0  0  0  0  0  0  0  0  0  0
   39.1380   23.0960   37.6470 C   0  0  0  0  0  0  0  0  0  0  0  0
   37.5770   24.4620   37.3120 H   0  0  0  0  0  0  0  0  0  0  0  0
   40.6360   24.4530   34.3960 H   0  0  0  0  0  0  0  0  0  0  0  0
   42.6760   22.5060   35.0510 H   0  0  0  0  0  0  0  0  0  0  0  0
   42.9690   20.8100   37.0440 H   0  0  0  0  0  0  0  0  0  0  0  0
   38.6870   22.7300   38.5700 H   0  0  0  0  0  0  0  0  0  0  0  0
   36.0800   28.8690   33.4330 C   0  0  0  0  0  0  0  0  0  0  0  0
   35.6140   28.4940   32.4950 H   0  0  0  0  0  0  0  0  0  0  0  0
   36.7320   29.7180   33.1410 H   0  0  0  0  0  0  0  0  0  0  0  0
   34.9860   29.3600   34.3200 C   0  0  1  0  0  0  0  0  0  0  0  0
   35.4810   30.6470   34.9710 C   0  0  0  0  0  0  0  0  0  0  0  0
   34.5290   31.7400   34.5830 C   0  0  0  0  0  0  0  0  0  0  0  0
   33.9080   31.2460   33.3200 C   0  0  0  0  0  0  0  0  0  0  0  0
   33.7380   29.7670   33.6040 C   0  0  2  0  0  0  0  0  0  0  0  0
   34.7720   28.6000   35.1150 H   0  0  0  0  0  0  0  0  0  0  0  0
   36.4910   30.9460   34.6080 H   0  0  0  0  0  0  0  0  0  0  0  0
   35.5530   30.4880   36.0680 H   0  0  0  0  0  0  0  0  0  0  0  0
   35.0850   32.6840   34.3140 H   0  0  0  0  0  0  0  0  0  0  0  0
   33.8140   32.0350   35.3640 H   0  0  0  0  0  0  0  0  0  0  0  0
   34.6090   31.4100   32.4910 H   0  0  0  0  0  0  0  0  0  0  0  0
   32.9030   31.6670   33.1090 H   0  0  0  0  0  0  0  0  0  0  0  0
   33.6120   29.2200   32.6440 H   0  0  0  0  0  0  0  0  0  0  0  0
   32.5290   29.5050   34.4480 C   0  0  0  0  0  0  0  0  0  0  0  0
   31.7860   28.5300   33.7730 F   0  0  0  0  0  0  0  0  0  0  0  0
   32.8300   28.9880   35.6760 F   0  0  0  0  0  0  0  0  0  0  0  0
   31.7230   30.6200   34.5380 F   0  0  0  0  0  0  0  0  0  0  0  0
  1  7  1  0  0  0  0
  2 10  1  0  0  0  0
  2  1  2  0  0  0  0
  3  2  1  0  0  0  0
  4  3  2  0  0  0  0
  4  5  1  0  0  0  0
  5  6  2  0  0  0  0
  6  1  1  0  0  0  0
  8  3  1  0  0  0  0
  9 18  1  0  0  0  0
  9 17  1  0  0  0  0
 10  9  2  0  0  0  0
 11 10  1  0  0  0  0
 11 12  2  0  0  0  0
 12 16  1  0  0  0  0
 13 12  1  0  0  0  0
 13 14  1  0  0  0  0
 14 21  1  0  0  0  0
 14 15  2  0  0  0  0
 16 17  2  0  0  0  0
 16 15  1  0  0  0  0
 17 22  1  0  0  0  0
 19 11  1  0  0  0  0
 20 13  1  0  0  0  0
 23  5  1  0  0  0  0
 23 26  1  0  0  0  0
 24 23  1  0  0  0  0
 25 23  1  0  0  0  0
 26 27  1  0  0  0  0
 26 31  1  1  0  0  0
 27 33  1  0  0  0  0
 28 27  1  0  0  0  0
 28 35  1  0  0  0  0
 29 30  1  0  0  0  0
 29 28  1  0  0  0  0
 30 38  1  6  0  0  0
 30 26  1  0  0  0  0
 30 39  1  0  0  0  0
 32 27  1  0  0  0  0
 34 28  1  0  0  0  0
 36 29  1  0  0  0  0
 37 29  1  0  0  0  0
 39 42  1  0  0  0  0
 39 41  1  0  0  0  0
 40 39  1  0  0  0  0
M  END
>  <minimizedAffinity>
-5.94312477

$$$$

 OpenBabel03272501473D

 42 45  0  0  1  0  0  0  0  0999 V2000
   38.0930   25.2470   30.9910 C   0  0  0  0  0  0  0  0  0  0  0  0
   36.7930   25.6450   31.3030 C   0  0  0  0  0  0  0  0  0  0  0  0
   35.8380   24.6400   31.4340 C   0  0  0  0  0  0  0  0  0  0  0  0
   36.1990   23.3440   31.2590 N   0  0  0  0  0  0  0  0  0  0  0  0
   37.4790   22.9960   30.9560 C   0  0  0  0  0  0  0  0  0  0  0  0
   38.4060   23.9550   30.8260 N   0  0  0  0  0  0  0  0  0  0  0  0
   38.8970   25.9710   30.8720 H   0  0  0  0  0  0  0  0  0  0  0  0
   34.8330   24.9590   31.6750 H   0  0  0  0  0  0  0  0  0  0  0  0
   36.3650   27.5260   32.7490 C   0  0  0  0  0  0  0  0  0  0  0  0
   36.5670   27.0570   31.4570 C   0  0  0  0  0  0  0  0  0  0  0  0
   36.5300   28.0000   30.4520 C   0  0  0  0  0  0  0  0  0  0  0  0
   36.2990   29.3420   30.7550 C   0  0  0  0  0  0  0  0  0  0  0  0
   36.2150   30.4330   29.9890 N   0  0  0  0  0  0  0  0  0  0  0  0
   35.9780   31.4990   30.7670 C   0  0  0  0  0  0  0  0  0  0  0  0
   35.9070   31.0920   32.0610 N   0  0  0  0  0  0  0  0  0  0  0  0
   36.1050   29.7600   32.0510 C   0  0  0  0  0  0  0  0  0  0  0  0
   36.1390   28.8460   33.0540 C   0  0  0  0  0  0  0  0  0  0  0  0
   36.3830   26.8300   33.5920 H   0  0  0  0  0  0  0  0  0  0  0  0
   36.6820   27.6540   29.4580 H   0  0  0  0  0  0  0  0  0  0  0  0
   36.3160   30.4800   28.9420 H   0  0  0  0  0  0  0  0  0  0  0  0
   35.8490   32.5470   30.5050 H   0  0  0  0  0  0  0  0  0  0  0  0
   35.9860   29.1560   34.0890 H   0  0  0  0  0  0  0  0  0  0  0  0
   37.7820   21.5510   30.7820 C   0  0  0  0  0  0  0  0  0  0  0  0
   38.5760   21.2680   31.5090 H   0  0  0  0  0  0  0  0  0  0  0  0
   38.1890   21.3320   29.7730 H   0  0  0  0  0  0  0  0  0  0  0  0
   36.5970   20.6830   31.0430 C   0  0  1  0  0  0  0  0  0  0  0  0
   36.5230   19.6730   29.9030 C   0  0  0  0  0  0  0  0  0  0  0  0
   36.6170   18.3040   30.5110 C   0  0  0  0  0  0  0  0  0  0  0  0
   37.3100   18.5340   31.8110 C   0  0  0  0  0  0  0  0  0  0  0  0
   36.6980   19.8410   32.2740 C   0  0  2  0  0  0  0  0  0  0  0  0
   35.6650   21.3050   31.0480 H   0  0  0  0  0  0  0  0  0  0  0  0
   37.3720   19.7740   29.1890 H   0  0  0  0  0  0  0  0  0  0  0  0
   35.5840   19.8430   29.3330 H   0  0  0  0  0  0  0  0  0  0  0  0
   37.2950   17.6380   29.9050 H   0  0  0  0  0  0  0  0  0  0  0  0
   35.6640   17.7610   30.5860 H   0  0  0  0  0  0  0  0  0  0  0  0
   38.3870   18.6470   31.6260 H   0  0  0  0  0  0  0  0  0  0  0  0
   37.0960   17.7690   32.5860 H   0  0  0  0  0  0  0  0  0  0  0  0
   37.3560   20.3040   33.0410 H   0  0  0  0  0  0  0  0  0  0  0  0
   35.3490   19.6290   32.8880 C   0  0  0  0  0  0  0  0  0  0  0  0
   35.3650   20.3120   34.1090 F   0  0  0  0  0  0  0  0  0  0  0  0
   34.3310   20.1650   32.1520 F   0  0  0  0  0  0  0  0  0  0  0  0
   35.1300   18.3010   33.1840 F   0  0  0  0  0  0  0  0  0  0  0  0
  1  2  1  0  0  0  0
  2  3  2  0  0  0  0
  2 10  1  0  0  0  0
  3  8  1  0  0  0  0
  4  3  1  0  0  0  0
  5  4  2  0  0  0  0
  6  5  1  0  0  0  0
  6  1  2  0  0  0  0
  7  1  1  0  0  0  0
  9 17  1  0  0  0  0
  9 18  1  0  0  0  0
 10  9  2  0  0  0  0
 11 12  2  0  0  0  0
 11 10  1  0  0  0  0
 12 16  1  0  0  0  0
 13 12  1  0  0  0  0
 13 14  1  0  0  0  0
 14 15  2  0  0  0  0
 16 15  1  0  0  0  0
 16 17  2  0  0  0  0
 17 22  1  0  0  0  0
 19 11  1  0  0  0  0
 20 13  1  0  0  0  0
 21 14  1  0  0  0  0
 23  5  1  0  0  0  0
 23 26  1  0  0  0  0
 23 24  1  0  0  0  0
 25 23  1  0  0  0  0
 26 31  1  1  0  0  0
 26 30  1  0  0  0  0
 27 28  1  0  0  0  0
 27 26  1  0  0  0  0
 28 35  1  0  0  0  0
 28 29  1  0  0  0  0
 29 30  1  0  0  0  0
 29 37  1  0  0  0  0
 30 39  1  0  0  0  0
 30 38  1  1  0  0  0
 32 27  1  0  0  0  0
 33 27  1  0  0  0  0
 34 28  1  0  0  0  0
 36 29  1  0  0  0  0
 39 42  1  0  0  0  0
 39 40  1  0  0  0  0
 41 39  1  0  0  0  0
M  END
>  <minimizedAffinity>
-5.86195183

$$$$

 OpenBabel03272501473D

 42 45  0  0  1  0  0  0  0  0999 V2000
   35.3190   24.6050   31.1560 C   0  0  0  0  0  0  0  0  0  0  0  0
   36.5370   23.9700   31.3980 C   0  0  0  0  0  0  0  0  0  0  0  0
   37.6800   24.7640   31.3720 C   0  0  0  0  0  0  0  0  0  0  0  0
   37.5690   26.0910   31.1190 N   0  0  0  0  0  0  0  0  0  0  0  0
   36.3620   26.6750   30.8870 C   0  0  0  0  0  0  0  0  0  0  0  0
   35.2540   25.9210   30.9090 N   0  0  0  0  0  0  0  0  0  0  0  0
   34.3780   24.0550   31.1590 H   0  0  0  0  0  0  0  0  0  0  0  0
   38.6190   24.2610   31.5610 H   0  0  0  0  0  0  0  0  0  0  0  0
   37.6880   21.9320   31.9770 C   0  0  0  0  0  0  0  0  0  0  0  0
   36.4900   22.5540   31.6510 C   0  0  0  0  0  0  0  0  0  0  0  0
   35.3750   21.7450   31.6030 C   0  0  0  0  0  0  0  0  0  0  0  0
   35.4830   20.3810   31.8740 C   0  0  0  0  0  0  0  0  0  0  0  0
   34.5810   19.3970   31.8950 N   0  0  0  0  0  0  0  0  0  0  0  0
   35.1920   18.2480   32.2160 C   0  0  0  0  0  0  0  0  0  0  0  0
   36.5150   18.4910   32.4050 N   0  0  0  0  0  0  0  0  0  0  0  0
   36.6920   19.8090   32.1930 C   0  0  0  0  0  0  0  0  0  0  0  0
   37.8020   20.5900   32.2450 C   0  0  0  0  0  0  0  0  0  0  0  0
   38.6100   22.5160   32.0320 H   0  0  0  0  0  0  0  0  0  0  0  0
   34.4500   22.2100   31.3540 H   0  0  0  0  0  0  0  0  0  0  0  0
   33.5500   19.4800   31.6990 H   0  0  0  0  0  0  0  0  0  0  0  0
   34.7890   17.2440   32.3300 H   0  0  0  0  0  0  0  0  0  0  0  0
   38.7710   20.1560   32.4950 H   0  0  0  0  0  0  0  0  0  0  0  0
   36.3390   28.1370   30.6190 C   0  0  0  0  0  0  0  0  0  0  0  0
   35.3790   28.3860   30.1130 H   0  0  0  0  0  0  0  0  0  0  0  0
   37.1480   28.4430   29.9240 H   0  0  0  0  0  0  0  0  0  0  0  0
   36.4170   28.9490   31.8680 C   0  0  1  0  0  0  0  0  0  0  0  0
   36.6220   30.4000   31.4460 C   0  0  0  0  0  0  0  0  0  0  0  0
   35.4710   31.1920   31.9920 C   0  0  0  0  0  0  0  0  0  0  0  0
   34.3910   30.1800   32.1720 C   0  0  0  0  0  0  0  0  0  0  0  0
   35.1600   28.9760   32.6760 C   0  0  2  0  0  0  0  0  0  0  0  0
   37.2920   28.6140   32.4830 H   0  0  0  0  0  0  0  0  0  0  0  0
   36.6130   30.5260   30.3390 H   0  0  0  0  0  0  0  0  0  0  0  0
   37.6140   30.7430   31.8130 H   0  0  0  0  0  0  0  0  0  0  0  0
   35.0900   31.9300   31.2290 H   0  0  0  0  0  0  0  0  0  0  0  0
   35.6990   31.7880   32.8870 H   0  0  0  0  0  0  0  0  0  0  0  0
   33.9300   29.9740   31.1970 H   0  0  0  0  0  0  0  0  0  0  0  0
   33.6380   30.4470   32.9430 H   0  0  0  0  0  0  0  0  0  0  0  0
   34.5490   28.0590   32.5250 H   0  0  0  0  0  0  0  0  0  0  0  0
   35.4660   29.0910   34.1370 C   0  0  0  0  0  0  0  0  0  0  0  0
   34.2420   28.9710   34.8030 F   0  0  0  0  0  0  0  0  0  0  0  0
   36.2650   28.0850   34.6010 F   0  0  0  0  0  0  0  0  0  0  0  0
   35.9650   30.3370   34.4540 F   0  0  0  0  0  0  0  0  0  0  0  0
  1  7  1  0  0  0  0
  1  2  1  0  0  0  0
  2 10  1  0  0  0  0
  3  2  2  0  0  0  0
  3  8  1  0  0  0  0
  4  3  1  0  0  0  0
  5  6  1  0  0  0  0
  5  4  2  0  0  0  0
  6  1  2  0  0  0  0
  9 18  1  0  0  0  0
  9 17  1  0  0  0  0
 10  9  2  0  0  0  0
 11 10  1  0  0  0  0
 11 12  2  0  0  0  0
 12 13  1  0  0  0  0
 12 16  1  0  0  0  0
 13 14  1  0  0  0  0
 14 21  1  0  0  0  0
 14 15  2  0  0  0  0
 16 17  2  0  0  0  0
 16 15  1  0  0  0  0
 17 22  1  0  0  0  0
 19 11  1  0  0  0  0
 20 13  1  0  0  0  0
 23  5  1  0  0  0  0
 23 26  1  0  0  0  0
 24 23  1  0  0  0  0
 25 23  1  0  0  0  0
 26 31  1  1  0  0  0
 26 30  1  0  0  0  0
 27 33  1  0  0  0  0
 27 26  1  0  0  0  0
 27 28  1  0  0  0  0
 28 29  1  0  0  0  0
 28 35  1  0  0  0  0
 29 30  1  0  0  0  0
 29 37  1  0  0  0  0
 30 38  1  6  0  0  0
 30 39  1  0  0  0  0
 32 27  1  0  0  0  0
 34 28  1  0  0  0  0
 36 29  1  0  0  0  0
 39 42  1  0  0  0  0
 39 41  1  0  0  0  0
 39 40  1  0  0  0  0
M  END
>  <minimizedAffinity>
-5.79451847

$$$$

 OpenBabel03272501473D

 42 45  0  0  1  0  0  0  0  0999 V2000
   36.4990   26.4580   31.9930 C   0  0  0  0  0  0  0  0  0  0  0  0
   36.7510   27.1050   33.2030 C   0  0  0  0  0  0  0  0  0  0  0  0
   37.4020   26.3690   34.1900 C   0  0  0  0  0  0  0  0  0  0  0  0
   37.7580   25.0840   33.9440 N   0  0  0  0  0  0  0  0  0  0  0  0
   37.4940   24.4880   32.7500 C   0  0  0  0  0  0  0  0  0  0  0  0
   36.8670   25.1850   31.7920 N   0  0  0  0  0  0  0  0  0  0  0  0
   35.9950   26.9630   31.1710 H   0  0  0  0  0  0  0  0  0  0  0  0
   37.5920   26.8810   35.1240 H   0  0  0  0  0  0  0  0  0  0  0  0
   36.3200   29.2290   32.1470 C   0  0  0  0  0  0  0  0  0  0  0  0
   36.3110   28.4700   33.3110 C   0  0  0  0  0  0  0  0  0  0  0  0
   35.8800   29.1090   34.4530 C   0  0  0  0  0  0  0  0  0  0  0  0
   35.4820   30.4450   34.4040 C   0  0  0  0  0  0  0  0  0  0  0  0
   35.0330   31.2820   35.3440 N   0  0  0  0  0  0  0  0  0  0  0  0
   34.7830   32.4750   34.7860 C   0  0  0  0  0  0  0  0  0  0  0  0
   35.0760   32.4110   33.4610 N   0  0  0  0  0  0  0  0  0  0  0  0
   35.5080   31.1580   33.2280 C   0  0  0  0  0  0  0  0  0  0  0  0
   35.9290   30.5450   32.0920 C   0  0  0  0  0  0  0  0  0  0  0  0
   36.6510   28.7830   31.2060 H   0  0  0  0  0  0  0  0  0  0  0  0
   35.8680   28.5390   35.3510 H   0  0  0  0  0  0  0  0  0  0  0  0
   34.8860   31.0680   36.3640 H   0  0  0  0  0  0  0  0  0  0  0  0
   34.4100   33.3960   35.2290 H   0  0  0  0  0  0  0  0  0  0  0  0
   35.9580   31.0910   31.1480 H   0  0  0  0  0  0  0  0  0  0  0  0
   37.9220   23.0750   32.5710 C   0  0  0  0  0  0  0  0  0  0  0  0
   38.4570   22.7500   33.4920 H   0  0  0  0  0  0  0  0  0  0  0  0
   38.6430   22.9640   31.7350 H   0  0  0  0  0  0  0  0  0  0  0  0
   36.7700   22.1500   32.3640 C   0  0  1  0  0  0  0  0  0  0  0  0
   36.7740   21.7530   30.8920 C   0  0  0  0  0  0  0  0  0  0  0  0
   36.9110   20.2600   30.8310 C   0  0  0  0  0  0  0  0  0  0  0  0
   37.5560   19.9040   32.1280 C   0  0  0  0  0  0  0  0  0  0  0  0
   36.8730   20.8510   33.0950 C   0  0  2  0  0  0  0  0  0  0  0  0
   35.8120   22.6790   32.6030 H   0  0  0  0  0  0  0  0  0  0  0  0
   37.6380   22.1860   30.3380 H   0  0  0  0  0  0  0  0  0  0  0  0
   35.8450   22.1350   30.4160 H   0  0  0  0  0  0  0  0  0  0  0  0
   37.6360   19.9530   30.0230 H   0  0  0  0  0  0  0  0  0  0  0  0
   35.9820   19.7150   30.6130 H   0  0  0  0  0  0  0  0  0  0  0  0
   38.6310   20.1170   32.0610 H   0  0  0  0  0  0  0  0  0  0  0  0
   37.3540   18.8680   32.4700 H   0  0  0  0  0  0  0  0  0  0  0  0
   37.4880   20.9400   34.0180 H   0  0  0  0  0  0  0  0  0  0  0  0
   35.5180   20.3500   33.4890 C   0  0  0  0  0  0  0  0  0  0  0  0
   35.3510   20.6940   34.8350 F   0  0  0  0  0  0  0  0  0  0  0  0
   34.5010   20.9500   32.8020 F   0  0  0  0  0  0  0  0  0  0  0  0
   35.4470   18.9750   33.4240 F   0  0  0  0  0  0  0  0  0  0  0  0
  1  2  1  0  0  0  0
  2 10  1  0  0  0  0
  2  3  2  0  0  0  0
  3  8  1  0  0  0  0
  4  3  1  0  0  0  0
  5  4  2  0  0  0  0
  6  1  2  0  0  0  0
  6  5  1  0  0  0  0
  7  1  1  0  0  0  0
  9 10  1  0  0  0  0
 10 11  2  0  0  0  0
 11 19  1  0  0  0  0
 12 11  1  0  0  0  0
 12 13  1  0  0  0  0
 13 20  1  0  0  0  0
 14 21  1  0  0  0  0
 14 13  1  0  0  0  0
 15 14  2  0  0  0  0
 16 15  1  0  0  0  0
 16 12  2  0  0  0  0
 17  9  2  0  0  0  0
 17 16  1  0  0  0  0
 18  9  1  0  0  0  0
 22 17  1  0  0  0  0
 23  5  1  0  0  0  0
 23 24  1  0  0  0  0
 25 23  1  0  0  0  0
 26 23  1  0  0  0  0
 26 31  1  1  0  0  0
 26 30  1  0  0  0  0
 27 26  1  0  0  0  0
 28 27  1  0  0  0  0
 28 29  1  0  0  0  0
 29 37  1  0  0  0  0
 29 30  1  0  0  0  0
 30 39  1  0  0  0  0
 30 38  1  1  0  0  0
 32 27  1  0  0  0  0
 33 27  1  0  0  0  0
 34 28  1  0  0  0  0
 35 28  1  0  0  0  0
 36 29  1  0  0  0  0
 39 40  1  0  0  0  0
 41 39  1  0  0  0  0
 42 39  1  0  0  0  0
M  END
>  <minimizedAffinity>
-5.7756381

$$$$

 OpenBabel03272501473D

 42 45  0  0  1  0  0  0  0  0999 V2000
   37.0440   27.8730   34.7550 C   0  0  0  0  0  0  0  0  0  0  0  0
   36.5730   27.9710   33.4460 C   0  0  0  0  0  0  0  0  0  0  0  0
   37.0230   27.0160   32.5380 C   0  0  0  0  0  0  0  0  0  0  0  0
   37.8810   26.0510   32.9510 N   0  0  0  0  0  0  0  0  0  0  0  0
   38.3180   25.9890   34.2380 C   0  0  0  0  0  0  0  0  0  0  0  0
   37.8920   26.9030   35.1200 N   0  0  0  0  0  0  0  0  0  0  0  0
   36.7390   28.5810   35.5250 H   0  0  0  0  0  0  0  0  0  0  0  0
   36.6520   27.1020   31.5260 H   0  0  0  0  0  0  0  0  0  0  0  0
   35.0610   29.6680   34.2510 C   0  0  0  0  0  0  0  0  0  0  0  0
   35.6660   29.0530   33.1630 C   0  0  0  0  0  0  0  0  0  0  0  0
   35.3340   29.5450   31.9190 C   0  0  0  0  0  0  0  0  0  0  0  0
   34.4350   30.6050   31.8000 C   0  0  0  0  0  0  0  0  0  0  0  0
   33.9520   31.2560   30.7380 N   0  0  0  0  0  0  0  0  0  0  0  0
   33.1060   32.2090   31.1540 C   0  0  0  0  0  0  0  0  0  0  0  0
   33.0380   32.1750   32.5110 N   0  0  0  0  0  0  0  0  0  0  0  0
   33.8590   31.1830   32.9070 C   0  0  0  0  0  0  0  0  0  0  0  0
   34.1750   30.7120   34.1400 C   0  0  0  0  0  0  0  0  0  0  0  0
   35.2810   29.3260   35.2650 H   0  0  0  0  0  0  0  0  0  0  0  0
   35.7910   29.0820   31.0780 H   0  0  0  0  0  0  0  0  0  0  0  0
   34.1820   31.0740   29.7270 H   0  0  0  0  0  0  0  0  0  0  0  0
   32.5270   32.9330   30.5870 H   0  0  0  0  0  0  0  0  0  0  0  0
   33.7290   31.1560   35.0310 H   0  0  0  0  0  0  0  0  0  0  0  0
   39.2580   24.8940   34.5990 C   0  0  0  0  0  0  0  0  0  0  0  0
   40.1540   25.3450   35.0820 H   0  0  0  0  0  0  0  0  0  0  0  0
   39.6260   24.3530   33.7030 H   0  0  0  0  0  0  0  0  0  0  0  0
   38.6620   23.9230   35.5610 C   0  0  1  0  0  0  0  0  0  0  0  0
   39.0410   22.5270   35.0790 C   0  0  0  0  0  0  0  0  0  0  0  0
   39.8200   21.8680   36.1810 C   0  0  0  0  0  0  0  0  0  0  0  0
   40.3700   23.0110   36.9650 C   0  0  0  0  0  0  0  0  0  0  0  0
   39.2180   23.9960   36.9470 C   0  0  2  0  0  0  0  0  0  0  0  0
   37.5470   24.0260   35.5620 H   0  0  0  0  0  0  0  0  0  0  0  0
   39.6980   22.5510   34.1810 H   0  0  0  0  0  0  0  0  0  0  0  0
   38.1140   21.9800   34.8010 H   0  0  0  0  0  0  0  0  0  0  0  0
   40.7090   21.3100   35.7690 H   0  0  0  0  0  0  0  0  0  0  0  0
   39.2590   21.1300   36.7710 H   0  0  0  0  0  0  0  0  0  0  0  0
   41.2440   23.4170   36.4390 H   0  0  0  0  0  0  0  0  0  0  0  0
   40.5920   22.7730   38.0260 H   0  0  0  0  0  0  0  0  0  0  0  0
   39.5990   25.0120   37.1890 H   0  0  0  0  0  0  0  0  0  0  0  0
   38.1740   23.6410   37.9600 C   0  0  0  0  0  0  0  0  0  0  0  0
   37.7900   24.8430   38.5630 F   0  0  0  0  0  0  0  0  0  0  0  0
   37.0480   23.1020   37.4070 F   0  0  0  0  0  0  0  0  0  0  0  0
   38.6900   22.8470   38.9620 F   0  0  0  0  0  0  0  0  0  0  0  0
  1  6  1  0  0  0  0
  1  7  1  0  0  0  0
  2  1  2  0  0  0  0
  3  4  2  0  0  0  0
  3  2  1  0  0  0  0
  4  5  1  0  0  0  0
  5 23  1  0  0  0  0
  5  6  2  0  0  0  0
  8  3  1  0  0  0  0
  9 18  1  0  0  0  0
 10  2  1  0  0  0  0
 10  9  2  0  0  0  0
 11 10  1  0  0  0  0
 12 11  2  0  0  0  0
 12 16  1  0  0  0  0
 13 14  1  0  0  0  0
 13 12  1  0  0  0  0
 14 15  2  0  0  0  0
 15 16  1  0  0  0  0
 16 17  2  0  0  0  0
 17  9  1  0  0  0  0
 17 22  1  0  0  0  0
 19 11  1  0  0  0  0
 20 13  1  0  0  0  0
 21 14  1  0  0  0  0
 23 24  1  0  0  0  0
 23 26  1  0  0  0  0
 25 23  1  0  0  0  0
 26 31  1  1  0  0  0
 26 30  1  0  0  0  0
 27 26  1  0  0  0  0
 27 28  1  0  0  0  0
 28 35  1  0  0  0  0
 28 29  1  0  0  0  0
 29 37  1  0  0  0  0
 30 29  1  0  0  0  0
 30 38  1  1  0  0  0
 30 39  1  0  0  0  0
 32 27  1  0  0  0  0
 33 27  1  0  0  0  0
 34 28  1  0  0  0  0
 36 29  1  0  0  0  0
 39 40  1  0  0  0  0
 39 42  1  0  0  0  0
 41 39  1  0  0  0  0
M  END
>  <minimizedAffinity>
-5.66327906

$$$$

 OpenBabel03272501473D

 42 45  0  0  1  0  0  0  0  0999 V2000
   38.0160   24.8730   33.9000 C   0  0  0  0  0  0  0  0  0  0  0  0
   37.7760   26.0450   34.6180 C   0  0  0  0  0  0  0  0  0  0  0  0
   38.1120   26.0390   35.9690 C   0  0  0  0  0  0  0  0  0  0  0  0
   38.6450   24.9220   36.5230 N   0  0  0  0  0  0  0  0  0  0  0  0
   38.8650   23.7980   35.7900 C   0  0  0  0  0  0  0  0  0  0  0  0
   38.5450   23.7910   34.4880 N   0  0  0  0  0  0  0  0  0  0  0  0
   37.7820   24.7960   32.8390 H   0  0  0  0  0  0  0  0  0  0  0  0
   37.9210   26.9530   36.5160 H   0  0  0  0  0  0  0  0  0  0  0  0
   36.4700   28.0720   34.6170 C   0  0  0  0  0  0  0  0  0  0  0  0
   37.2040   27.1450   33.8880 C   0  0  0  0  0  0  0  0  0  0  0  0
   37.3080   27.3780   32.5340 C   0  0  0  0  0  0  0  0  0  0  0  0
   36.6970   28.4940   31.9630 C   0  0  0  0  0  0  0  0  0  0  0  0
   36.6430   28.9420   30.7060 N   0  0  0  0  0  0  0  0  0  0  0  0
   35.9220   30.0720   30.6730 C   0  0  0  0  0  0  0  0  0  0  0  0
   35.5000   30.3620   31.9310 N   0  0  0  0  0  0  0  0  0  0  0  0
   35.9790   29.3860   32.7260 C   0  0  0  0  0  0  0  0  0  0  0  0
   35.8660   29.1730   34.0620 C   0  0  0  0  0  0  0  0  0  0  0  0
   36.3490   27.9460   35.6960 H   0  0  0  0  0  0  0  0  0  0  0  0
   37.8680   26.6750   31.9630 H   0  0  0  0  0  0  0  0  0  0  0  0
   37.0860   28.5030   29.8580 H   0  0  0  0  0  0  0  0  0  0  0  0
   35.6630   30.7190   29.8370 H   0  0  0  0  0  0  0  0  0  0  0  0
   35.3010   29.8670   34.6850 H   0  0  0  0  0  0  0  0  0  0  0  0
   39.4540   22.6220   36.4820 C   0  0  0  0  0  0  0  0  0  0  0  0
   39.3500   21.7340   35.8190 H   0  0  0  0  0  0  0  0  0  0  0  0
   38.9110   22.3780   37.4190 H   0  0  0  0  0  0  0  0  0  0  0  0
   40.9060   22.8000   36.7780 C   0  0  1  0  0  0  0  0  0  0  0  0
   41.3670   21.5540   37.5240 C   0  0  0  0  0  0  0  0  0  0  0  0
   42.4610   20.9240   36.7120 C   0  0  0  0  0  0  0  0  0  0  0  0
   42.2110   21.4190   35.3270 C   0  0  0  0  0  0  0  0  0  0  0  0
   41.7860   22.8530   35.5710 C   0  0  2  0  0  0  0  0  0  0  0  0
   41.0520   23.6990   37.4300 H   0  0  0  0  0  0  0  0  0  0  0  0
   40.5570   20.7960   37.6280 H   0  0  0  0  0  0  0  0  0  0  0  0
   41.6850   21.8460   38.5480 H   0  0  0  0  0  0  0  0  0  0  0  0
   42.3420   19.8030   36.6730 H   0  0  0  0  0  0  0  0  0  0  0  0
   43.4790   21.0980   37.0870 H   0  0  0  0  0  0  0  0  0  0  0  0
   41.3940   20.8360   34.8820 H   0  0  0  0  0  0  0  0  0  0  0  0
   43.1120   21.4390   34.6790 H   0  0  0  0  0  0  0  0  0  0  0  0
   41.2450   23.2330   34.6770 H   0  0  0  0  0  0  0  0  0  0  0  0
   42.9670   23.7430   35.8100 C   0  0  0  0  0  0  0  0  0  0  0  0
   42.6420   24.9820   35.2460 F   0  0  0  0  0  0  0  0  0  0  0  0
   43.2140   23.9670   37.1340 F   0  0  0  0  0  0  0  0  0  0  0  0
   44.0860   23.2900   35.1440 F   0  0  0  0  0  0  0  0  0  0  0  0
  1  6  2  0  0  0  0
  1  2  1  0  0  0  0
  2  3  2  0  0  0  0
  3  8  1  0  0  0  0
  3  4  1  0  0  0  0
  5 23  1  0  0  0  0
  5  4  2  0  0  0  0
  6  5  1  0  0  0  0
  7  1  1  0  0  0  0
  9 18  1  0  0  0  0
 10  9  2  0  0  0  0
 10  2  1  0  0  0  0
 11 10  1  0  0  0  0
 12 11  2  0  0  0  0
 12 16  1  0  0  0  0
 13 12  1  0  0  0  0
 14 13  1  0  0  0  0
 14 15  2  0  0  0  0
 15 16  1  0  0  0  0
 16 17  2  0  0  0  0
 17  9  1  0  0  0  0
 17 22  1  0  0  0  0
 19 11  1  0  0  0  0
 20 13  1  0  0  0  0
 21 14  1  0  0  0  0
 23 26  1  0  0  0  0
 23 25  1  0  0  0  0
 24 23  1  0  0  0  0
 26 31  1  1  0  0  0
 26 27  1  0  0  0  0
 27 32  1  0  0  0  0
 27 33  1  0  0  0  0
 28 35  1  0  0  0  0
 28 27  1  0  0  0  0
 29 30  1  0  0  0  0
 29 28  1  0  0  0  0
 30 38  1  6  0  0  0
 30 39  1  0  0  0  0
 30 26  1  0  0  0  0
 34 28  1  0  0  0  0
 36 29  1  0  0  0  0
 37 29  1  0  0  0  0
 39 41  1  0  0  0  0
 40 39  1  0  0  0  0
 42 39  1  0  0  0  0
M  END
>  <minimizedAffinity>
-5.66057682

$$$$

 OpenBabel03272501473D

 42 45  0  0  1  0  0  0  0  0999 V2000
   38.8350   27.1340   34.9330 C   0  0  0  0  0  0  0  0  0  0  0  0
   38.2800   27.0320   33.6570 C   0  0  0  0  0  0  0  0  0  0  0  0
   38.8920   26.1510   32.7700 C   0  0  0  0  0  0  0  0  0  0  0  0
   39.9780   25.4430   33.1690 N   0  0  0  0  0  0  0  0  0  0  0  0
   40.4900   25.5700   34.4230 C   0  0  0  0  0  0  0  0  0  0  0  0
   39.9090   26.4150   35.2860 N   0  0  0  0  0  0  0  0  0  0  0  0
   38.4150   27.8000   35.6860 H   0  0  0  0  0  0  0  0  0  0  0  0
   38.4540   26.0800   31.7830 H   0  0  0  0  0  0  0  0  0  0  0  0
   36.8490   28.1220   32.0520 C   0  0  0  0  0  0  0  0  0  0  0  0
   37.1280   27.8500   33.3850 C   0  0  0  0  0  0  0  0  0  0  0  0
   36.2660   28.3940   34.3130 C   0  0  0  0  0  0  0  0  0  0  0  0
   35.1850   29.1710   33.8980 C   0  0  0  0  0  0  0  0  0  0  0  0
   34.2220   29.8020   34.5750 N   0  0  0  0  0  0  0  0  0  0  0  0
   33.4070   30.4190   33.7070 C   0  0  0  0  0  0  0  0  0  0  0  0
   33.8500   30.1850   32.4450 N   0  0  0  0  0  0  0  0  0  0  0  0
   34.9480   29.4150   32.5650 C   0  0  0  0  0  0  0  0  0  0  0  0
   35.7850   28.8860   31.6370 C   0  0  0  0  0  0  0  0  0  0  0  0
   37.4930   27.7200   31.2660 H   0  0  0  0  0  0  0  0  0  0  0  0
   36.4690   28.1930   35.3380 H   0  0  0  0  0  0  0  0  0  0  0  0
   34.0960   29.8280   35.6200 H   0  0  0  0  0  0  0  0  0  0  0  0
   32.5210   31.0250   33.8820 H   0  0  0  0  0  0  0  0  0  0  0  0
   35.6160   29.0670   30.5740 H   0  0  0  0  0  0  0  0  0  0  0  0
   41.6820   24.7530   34.7710 C   0  0  0  0  0  0  0  0  0  0  0  0
   42.2440   25.2760   35.5780 H   0  0  0  0  0  0  0  0  0  0  0  0
   42.3810   24.6560   33.9150 H   0  0  0  0  0  0  0  0  0  0  0  0
   41.3190   23.3970   35.2770 C   0  0  1  0  0  0  0  0  0  0  0  0
   42.0200   22.3830   34.3800 C   0  0  0  0  0  0  0  0  0  0  0  0
   42.9170   21.5570   35.2550 C   0  0  0  0  0  0  0  0  0  0  0  0
   43.1740   22.4320   36.4350 C   0  0  0  0  0  0  0  0  0  0  0  0
   41.8230   23.0860   36.6480 C   0  0  2  0  0  0  0  0  0  0  0  0
   40.2100   23.2510   35.2060 H   0  0  0  0  0  0  0  0  0  0  0  0
   42.6650   22.8680   33.6130 H   0  0  0  0  0  0  0  0  0  0  0  0
   41.2510   21.7870   33.8430 H   0  0  0  0  0  0  0  0  0  0  0  0
   43.9180   21.3880   34.7630 H   0  0  0  0  0  0  0  0  0  0  0  0
   42.5380   20.5540   35.4970 H   0  0  0  0  0  0  0  0  0  0  0  0
   43.9350   23.1770   36.1680 H   0  0  0  0  0  0  0  0  0  0  0  0
   43.4330   21.8820   37.3640 H   0  0  0  0  0  0  0  0  0  0  0  0
   41.9530   24.0040   37.2620 H   0  0  0  0  0  0  0  0  0  0  0  0
   40.8800   22.1760   37.3720 C   0  0  0  0  0  0  0  0  0  0  0  0
   40.2430   22.9620   38.3380 F   0  0  0  0  0  0  0  0  0  0  0  0
   39.8980   21.6700   36.5690 F   0  0  0  0  0  0  0  0  0  0  0  0
   41.5530   21.1850   38.0530 F   0  0  0  0  0  0  0  0  0  0  0  0
  1  6  1  0  0  0  0
  1  7  1  0  0  0  0
  2  1  2  0  0  0  0
  3  4  2  0  0  0  0
  3  2  1  0  0  0  0
  4  5  1  0  0  0  0
  5 23  1  0  0  0  0
  5  6  2  0  0  0  0
  8  3  1  0  0  0  0
  9 10  1  0  0  0  0
 10  2  1  0  0  0  0
 10 11  2  0  0  0  0
 11 19  1  0  0  0  0
 12 11  1  0  0  0  0
 12 13  1  0  0  0  0
 13 20  1  0  0  0  0
 14 21  1  0  0  0  0
 14 13  1  0  0  0  0
 15 16  1  0  0  0  0
 15 14  2  0  0  0  0
 16 12  2  0  0  0  0
 17  9  2  0  0  0  0
 17 16  1  0  0  0  0
 18  9  1  0  0  0  0
 22 17  1  0  0  0  0
 23 26  1  0  0  0  0
 23 24  1  0  0  0  0
 25 23  1  0  0  0  0
 26 31  1  6  0  0  0
 26 30  1  0  0  0  0
 27 28  1  0  0  0  0
 27 26  1  0  0  0  0
 28 35  1  0  0  0  0
 28 29  1  0  0  0  0
 29 30  1  0  0  0  0
 29 37  1  0  0  0  0
 30 38  1  1  0  0  0
 30 39  1  0  0  0  0
 32 27  1  0  0  0  0
 33 27  1  0  0  0  0
 34 28  1  0  0  0  0
 36 29  1  0  0  0  0
 39 42  1  0  0  0  0
 39 40  1  0  0  0  0
 41 39  1  0  0  0  0
M  END
>  <minimizedAffinity>
-5.65217209

$$$$
