
 OpenBabel03262522383D

 22 23  0  0  0  0  0  0  0  0999 V2000
   38.1910   25.0170   35.0730 C   0  0  0  0  0  0  0  0  0  0  0  0
   39.1080   24.1580   34.5180 C   0  0  0  0  0  0  0  0  0  0  0  0
   39.7640   23.1740   35.2210 C   0  0  0  0  0  0  0  0  0  0  0  0
   39.5180   23.0090   36.5570 C   0  0  0  0  0  0  0  0  0  0  0  0
   38.6000   23.8770   37.0880 C   0  0  0  0  0  0  0  0  0  0  0  0
   37.9560   24.8380   36.4090 N   0  0  0  0  0  0  0  0  0  0  0  0
   39.3190   24.2710   33.4550 H   0  0  0  0  0  0  0  0  0  0  0  0
   40.4680   22.5450   34.7030 H   0  0  0  0  0  0  0  0  0  0  0  0
   40.0060   22.2520   37.1570 H   0  0  0  0  0  0  0  0  0  0  0  0
   36.4470   28.1890   34.0540 C   0  0  0  0  0  0  0  0  0  0  0  0
   37.1090   27.2800   34.8930 C   0  0  0  0  0  0  0  0  0  0  0  0
   37.4970   26.0550   34.3270 C   0  0  0  0  0  0  0  0  0  0  0  0
   37.2150   25.8200   33.0170 N   0  0  0  0  0  0  0  0  0  0  0  0
   36.5730   26.7310   32.2470 C   0  0  0  0  0  0  0  0  0  0  0  0
   36.1950   27.9000   32.7600 N   0  0  0  0  0  0  0  0  0  0  0  0
   36.1650   29.1160   34.5260 H   0  0  0  0  0  0  0  0  0  0  0  0
   37.3330   27.4610   35.9240 H   0  0  0  0  0  0  0  0  0  0  0  0
   36.3600   26.5210   31.2080 H   0  0  0  0  0  0  0  0  0  0  0  0
   38.2300   23.8120   38.5440 C   0  0  0  0  0  0  0  0  0  0  0  0
   39.4310   23.5170   39.2050 F   0  0  0  0  0  0  0  0  0  0  0  0
   37.2850   22.8560   38.8040 F   0  0  0  0  0  0  0  0  0  0  0  0
   37.8380   25.0770   38.9360 F   0  0  0  0  0  0  0  0  0  0  0  0
  1  6  1  0  0  0  0
  2  1  2  0  0  0  0
  2  3  1  0  0  0  0
  3  4  2  0  0  0  0
  4  5  1  0  0  0  0
  4  9  1  0  0  0  0
  5 19  1  0  0  0  0
  6  5  2  0  0  0  0
  7  2  1  0  0  0  0
  8  3  1  0  0  0  0
 10 16  1  0  0  0  0
 10 11  1  0  0  0  0
 11 17  1  0  0  0  0
 12 11  2  0  0  0  0
 12  1  1  0  0  0  0
 13 12  1  0  0  0  0
 14 15  1  0  0  0  0
 14 13  2  0  0  0  0
 15 10  2  0  0  0  0
 18 14  1  0  0  0  0
 19 21  1  0  0  0  0
 19 22  1  0  0  0  0
 19 20  1  0  0  0  0
M  END
>  <minimizedAffinity>
-5.04829884

$$$$

 OpenBabel03262522383D

 22 23  0  0  0  0  0  0  0  0999 V2000
   38.4010   22.3450   34.9790 C   0  0  0  0  0  0  0  0  0  0  0  0
   39.7470   22.1200   34.8220 C   0  0  0  0  0  0  0  0  0  0  0  0
   40.6870   22.3670   35.7950 C   0  0  0  0  0  0  0  0  0  0  0  0
   40.2990   22.8690   37.0090 C   0  0  0  0  0  0  0  0  0  0  0  0
   38.9520   23.0850   37.1410 C   0  0  0  0  0  0  0  0  0  0  0  0
   38.0300   22.8470   36.1960 N   0  0  0  0  0  0  0  0  0  0  0  0
   40.0790   21.7200   33.8630 H   0  0  0  0  0  0  0  0  0  0  0  0
   41.7220   22.1600   35.5840 H   0  0  0  0  0  0  0  0  0  0  0  0
   40.9960   23.0810   37.8090 H   0  0  0  0  0  0  0  0  0  0  0  0
   36.3760   22.3900   31.8100 C   0  0  0  0  0  0  0  0  0  0  0  0
   37.3920   22.7460   32.7100 C   0  0  0  0  0  0  0  0  0  0  0  0
   37.4100   22.0820   33.9480 C   0  0  0  0  0  0  0  0  0  0  0  0
   36.4560   21.1470   34.2030 N   0  0  0  0  0  0  0  0  0  0  0  0
   35.4940   20.8390   33.3000 C   0  0  0  0  0  0  0  0  0  0  0  0
   35.4560   21.4530   32.1190 N   0  0  0  0  0  0  0  0  0  0  0  0
   36.3970   22.9220   30.8730 H   0  0  0  0  0  0  0  0  0  0  0  0
   38.1450   23.4810   32.5140 H   0  0  0  0  0  0  0  0  0  0  0  0
   34.7460   20.0910   33.5260 H   0  0  0  0  0  0  0  0  0  0  0  0
   38.3830   23.6340   38.4200 C   0  0  0  0  0  0  0  0  0  0  0  0
   37.9130   24.9110   38.0840 F   0  0  0  0  0  0  0  0  0  0  0  0
   39.3140   23.7060   39.4210 F   0  0  0  0  0  0  0  0  0  0  0  0
   37.2880   22.8620   38.7590 F   0  0  0  0  0  0  0  0  0  0  0  0
  1  6  1  0  0  0  0
  2  1  2  0  0  0  0
  2  3  1  0  0  0  0
  3  4  2  0  0  0  0
  4  5  1  0  0  0  0
  4  9  1  0  0  0  0
  5 19  1  0  0  0  0
  6  5  2  0  0  0  0
  7  2  1  0  0  0  0
  8  3  1  0  0  0  0
 10 15  2  0  0  0  0
 10 11  1  0  0  0  0
 11 12  2  0  0  0  0
 12 13  1  0  0  0  0
 12  1  1  0  0  0  0
 14 18  1  0  0  0  0
 14 13  2  0  0  0  0
 15 14  1  0  0  0  0
 16 10  1  0  0  0  0
 17 11  1  0  0  0  0
 19 22  1  0  0  0  0
 19 21  1  0  0  0  0
 20 19  1  0  0  0  0
M  END
>  <minimizedAffinity>
-4.83010578

$$$$

 OpenBabel03262522383D

 22 23  0  0  0  0  0  0  0  0999 V2000
   38.3640   24.5550   36.1680 C   0  0  0  0  0  0  0  0  0  0  0  0
   37.7530   24.5760   37.3990 C   0  0  0  0  0  0  0  0  0  0  0  0
   38.1950   23.8620   38.4890 C   0  0  0  0  0  0  0  0  0  0  0  0
   39.3060   23.0690   38.3820 C   0  0  0  0  0  0  0  0  0  0  0  0
   39.8970   23.0650   37.1450 C   0  0  0  0  0  0  0  0  0  0  0  0
   39.4720   23.7580   36.0790 N   0  0  0  0  0  0  0  0  0  0  0  0
   36.8670   25.2000   37.5060 H   0  0  0  0  0  0  0  0  0  0  0  0
   37.6530   23.9390   39.4160 H   0  0  0  0  0  0  0  0  0  0  0  0
   39.6960   22.4870   39.2070 H   0  0  0  0  0  0  0  0  0  0  0  0
   37.0160   27.2430   33.9100 C   0  0  0  0  0  0  0  0  0  0  0  0
   37.4390   26.6370   35.1020 C   0  0  0  0  0  0  0  0  0  0  0  0
   37.8950   25.3110   35.0180 C   0  0  0  0  0  0  0  0  0  0  0  0
   37.9010   24.6970   33.8040 N   0  0  0  0  0  0  0  0  0  0  0  0
   37.4820   25.3260   32.6800 C   0  0  0  0  0  0  0  0  0  0  0  0
   37.0460   26.5830   32.7330 N   0  0  0  0  0  0  0  0  0  0  0  0
   36.6740   28.2600   34.0170 H   0  0  0  0  0  0  0  0  0  0  0  0
   37.4360   27.1160   36.0600 H   0  0  0  0  0  0  0  0  0  0  0  0
   37.4960   24.8160   31.7260 H   0  0  0  0  0  0  0  0  0  0  0  0
   41.1260   22.2390   36.8830 C   0  0  0  0  0  0  0  0  0  0  0  0
   42.1880   23.1540   36.9240 F   0  0  0  0  0  0  0  0  0  0  0  0
   41.0810   21.6000   35.6730 F   0  0  0  0  0  0  0  0  0  0  0  0
   41.2830   21.3690   37.9450 F   0  0  0  0  0  0  0  0  0  0  0  0
  1  2  1  0  0  0  0
  2  7  1  0  0  0  0
  2  3  2  0  0  0  0
  3  8  1  0  0  0  0
  4  3  1  0  0  0  0
  4  9  1  0  0  0  0
  5  4  2  0  0  0  0
  6  1  2  0  0  0  0
  6  5  1  0  0  0  0
 10 16  1  0  0  0  0
 10 11  1  0  0  0  0
 11 17  1  0  0  0  0
 12 11  2  0  0  0  0
 12  1  1  0  0  0  0
 13 12  1  0  0  0  0
 14 15  1  0  0  0  0
 14 13  2  0  0  0  0
 15 10  2  0  0  0  0
 18 14  1  0  0  0  0
 19 20  1  0  0  0  0
 19  5  1  0  0  0  0
 19 22  1  0  0  0  0
 21 19  1  0  0  0  0
M  END
>  <minimizedAffinity>
-4.80381393

$$$$

 OpenBabel03262522383D

 22 23  0  0  0  0  0  0  0  0999 V2000
   38.7020   23.3990   34.9640 C   0  0  0  0  0  0  0  0  0  0  0  0
   39.8460   22.6400   34.9180 C   0  0  0  0  0  0  0  0  0  0  0  0
   40.5460   22.2360   36.0300 C   0  0  0  0  0  0  0  0  0  0  0  0
   40.1120   22.5920   37.2790 C   0  0  0  0  0  0  0  0  0  0  0  0
   38.9690   23.3500   37.2990 C   0  0  0  0  0  0  0  0  0  0  0  0
   38.2810   23.7470   36.2180 N   0  0  0  0  0  0  0  0  0  0  0  0
   40.2100   22.3440   33.9340 H   0  0  0  0  0  0  0  0  0  0  0  0
   41.4340   21.6410   35.8990 H   0  0  0  0  0  0  0  0  0  0  0  0
   40.6240   22.3020   38.1860 H   0  0  0  0  0  0  0  0  0  0  0  0
   36.7720   23.4800   31.7370 C   0  0  0  0  0  0  0  0  0  0  0  0
   37.4670   22.9280   32.8240 C   0  0  0  0  0  0  0  0  0  0  0  0
   37.9630   23.8240   33.7850 C   0  0  0  0  0  0  0  0  0  0  0  0
   37.7460   25.1550   33.6130 N   0  0  0  0  0  0  0  0  0  0  0  0
   37.0670   25.6390   32.5450 C   0  0  0  0  0  0  0  0  0  0  0  0
   36.5870   24.8110   31.6200 N   0  0  0  0  0  0  0  0  0  0  0  0
   36.4080   22.7590   31.0220 H   0  0  0  0  0  0  0  0  0  0  0  0
   37.6400   21.8810   32.9640 H   0  0  0  0  0  0  0  0  0  0  0  0
   36.9070   26.7030   32.4300 H   0  0  0  0  0  0  0  0  0  0  0  0
   38.3760   23.8140   38.6010 C   0  0  0  0  0  0  0  0  0  0  0  0
   37.4040   22.8530   38.9140 F   0  0  0  0  0  0  0  0  0  0  0  0
   37.8170   25.0600   38.5090 F   0  0  0  0  0  0  0  0  0  0  0  0
   39.3640   23.7370   39.5630 F   0  0  0  0  0  0  0  0  0  0  0  0
  1  6  1  0  0  0  0
  2  1  2  0  0  0  0
  2  3  1  0  0  0  0
  3  4  2  0  0  0  0
  4  5  1  0  0  0  0
  4  9  1  0  0  0  0
  5 19  1  0  0  0  0
  6  5  2  0  0  0  0
  7  2  1  0  0  0  0
  8  3  1  0  0  0  0
 10 11  1  0  0  0  0
 11 17  1  0  0  0  0
 11 12  2  0  0  0  0
 12  1  1  0  0  0  0
 13 12  1  0  0  0  0
 14 13  2  0  0  0  0
 15 10  2  0  0  0  0
 15 14  1  0  0  0  0
 16 10  1  0  0  0  0
 18 14  1  0  0  0  0
 19 20  1  0  0  0  0
 19 22  1  0  0  0  0
 21 19  1  0  0  0  0
M  END
>  <minimizedAffinity>
-4.71633148

$$$$

 OpenBabel03262522383D

 22 23  0  0  0  0  0  0  0  0999 V2000
   38.0560   25.6090   35.3760 C   0  0  0  0  0  0  0  0  0  0  0  0
   37.9020   26.9310   35.7160 C   0  0  0  0  0  0  0  0  0  0  0  0
   37.3480   27.8790   34.8870 C   0  0  0  0  0  0  0  0  0  0  0  0
   36.9140   27.5250   33.6370 C   0  0  0  0  0  0  0  0  0  0  0  0
   37.0790   26.2010   33.3220 C   0  0  0  0  0  0  0  0  0  0  0  0
   37.6180   25.2720   34.1250 N   0  0  0  0  0  0  0  0  0  0  0  0
   38.2400   27.2350   36.7060 H   0  0  0  0  0  0  0  0  0  0  0  0
   37.2660   28.8930   35.2370 H   0  0  0  0  0  0  0  0  0  0  0  0
   36.4720   28.2290   32.9460 H   0  0  0  0  0  0  0  0  0  0  0  0
   38.7900   23.3140   38.2640 C   0  0  0  0  0  0  0  0  0  0  0  0
   38.1230   24.3020   37.5240 C   0  0  0  0  0  0  0  0  0  0  0  0
   38.6410   24.6090   36.2550 C   0  0  0  0  0  0  0  0  0  0  0  0
   39.7450   23.9430   35.8200 N   0  0  0  0  0  0  0  0  0  0  0  0
   40.3540   22.9960   36.5730 C   0  0  0  0  0  0  0  0  0  0  0  0
   39.8820   22.6860   37.7790 N   0  0  0  0  0  0  0  0  0  0  0  0
   38.3610   23.1080   39.2310 H   0  0  0  0  0  0  0  0  0  0  0  0
   37.2540   24.8290   37.8620 H   0  0  0  0  0  0  0  0  0  0  0  0
   41.2310   22.4800   36.2060 H   0  0  0  0  0  0  0  0  0  0  0  0
   36.6480   25.6700   31.9820 C   0  0  0  0  0  0  0  0  0  0  0  0
   36.2790   24.3390   32.2270 F   0  0  0  0  0  0  0  0  0  0  0  0
   37.6440   25.7340   31.0460 F   0  0  0  0  0  0  0  0  0  0  0  0
   35.5100   26.3560   31.6050 F   0  0  0  0  0  0  0  0  0  0  0  0
  1  2  1  0  0  0  0
  1 12  1  0  0  0  0
  2  7  1  0  0  0  0
  3  8  1  0  0  0  0
  3  2  2  0  0  0  0
  4  3  1  0  0  0  0
  5  4  2  0  0  0  0
  5  6  1  0  0  0  0
  6  1  2  0  0  0  0
  9  4  1  0  0  0  0
 10 16  1  0  0  0  0
 11 17  1  0  0  0  0
 11 10  2  0  0  0  0
 12 11  1  0  0  0  0
 13 12  2  0  0  0  0
 13 14  1  0  0  0  0
 14 15  2  0  0  0  0
 15 10  1  0  0  0  0
 18 14  1  0  0  0  0
 19 20  1  0  0  0  0
 19  5  1  0  0  0  0
 21 19  1  0  0  0  0
 22 19  1  0  0  0  0
M  END
>  <minimizedAffinity>
-4.69113922

$$$$

 OpenBabel03262522383D

 22 23  0  0  0  0  0  0  0  0999 V2000
   37.8880   22.5870   34.5000 C   0  0  0  0  0  0  0  0  0  0  0  0
   38.2260   23.3970   33.4430 C   0  0  0  0  0  0  0  0  0  0  0  0
   37.7500   23.2290   32.1630 C   0  0  0  0  0  0  0  0  0  0  0  0
   36.8860   22.2050   31.8840 C   0  0  0  0  0  0  0  0  0  0  0  0
   36.5640   21.4110   32.9540 C   0  0  0  0  0  0  0  0  0  0  0  0
   37.0240   21.5680   34.2040 N   0  0  0  0  0  0  0  0  0  0  0  0
   38.9130   24.2190   33.6430 H   0  0  0  0  0  0  0  0  0  0  0  0
   38.0690   23.9130   31.3950 H   0  0  0  0  0  0  0  0  0  0  0  0
   36.4810   22.0280   30.8960 H   0  0  0  0  0  0  0  0  0  0  0  0
   40.0530   22.6640   37.5750 C   0  0  0  0  0  0  0  0  0  0  0  0
   39.7030   22.4370   36.2350 C   0  0  0  0  0  0  0  0  0  0  0  0
   38.3930   22.7670   35.8520 C   0  0  0  0  0  0  0  0  0  0  0  0
   37.5480   23.2800   36.7860 N   0  0  0  0  0  0  0  0  0  0  0  0
   37.9330   23.4810   38.0690 C   0  0  0  0  0  0  0  0  0  0  0  0
   39.1700   23.1770   38.4570 N   0  0  0  0  0  0  0  0  0  0  0  0
   41.0660   22.3980   37.8280 H   0  0  0  0  0  0  0  0  0  0  0  0
   40.3650   22.0330   35.4960 H   0  0  0  0  0  0  0  0  0  0  0  0
   37.2430   23.8910   38.7940 H   0  0  0  0  0  0  0  0  0  0  0  0
   35.6250   20.2470   32.7950 C   0  0  0  0  0  0  0  0  0  0  0  0
   34.4210   20.8160   32.3550 F   0  0  0  0  0  0  0  0  0  0  0  0
   35.4380   19.5590   33.9640 F   0  0  0  0  0  0  0  0  0  0  0  0
   36.1090   19.4530   31.7740 F   0  0  0  0  0  0  0  0  0  0  0  0
  1 12  1  0  0  0  0
  2  7  1  0  0  0  0
  2  1  2  0  0  0  0
  3  2  1  0  0  0  0
  4  3  2  0  0  0  0
  4  5  1  0  0  0  0
  5  6  2  0  0  0  0
  6  1  1  0  0  0  0
  8  3  1  0  0  0  0
  9  4  1  0  0  0  0
 10 16  1  0  0  0  0
 10 15  1  0  0  0  0
 11 10  2  0  0  0  0
 12 11  1  0  0  0  0
 12 13  2  0  0  0  0
 13 14  1  0  0  0  0
 14 15  2  0  0  0  0
 14 18  1  0  0  0  0
 17 11  1  0  0  0  0
 19  5  1  0  0  0  0
 19 21  1  0  0  0  0
 20 19  1  0  0  0  0
 22 19  1  0  0  0  0
M  END
>  <minimizedAffinity>
-4.66096973

$$$$

 OpenBabel03262522383D

 22 23  0  0  0  0  0  0  0  0999 V2000
   38.1590   25.6700   34.6670 C   0  0  0  0  0  0  0  0  0  0  0  0
   39.3360   25.2040   34.1340 C   0  0  0  0  0  0  0  0  0  0  0  0
   40.1830   24.3350   34.7830 C   0  0  0  0  0  0  0  0  0  0  0  0
   39.8720   23.8860   36.0390 C   0  0  0  0  0  0  0  0  0  0  0  0
   38.6930   24.3660   36.5490 C   0  0  0  0  0  0  0  0  0  0  0  0
   37.8630   25.2120   35.9220 N   0  0  0  0  0  0  0  0  0  0  0  0
   39.6030   25.5480   33.1360 H   0  0  0  0  0  0  0  0  0  0  0  0
   41.0860   24.0220   34.2880 H   0  0  0  0  0  0  0  0  0  0  0  0
   40.5020   23.2040   36.5930 H   0  0  0  0  0  0  0  0  0  0  0  0
   35.9380   28.5690   33.7700 C   0  0  0  0  0  0  0  0  0  0  0  0
   36.7960   27.7810   34.5510 C   0  0  0  0  0  0  0  0  0  0  0  0
   37.2640   26.5880   33.9790 C   0  0  0  0  0  0  0  0  0  0  0  0
   36.8660   26.2660   32.7180 N   0  0  0  0  0  0  0  0  0  0  0  0
   36.0350   27.0620   32.0040 C   0  0  0  0  0  0  0  0  0  0  0  0
   35.5770   28.1980   32.5240 N   0  0  0  0  0  0  0  0  0  0  0  0
   35.6000   29.4760   34.2460 H   0  0  0  0  0  0  0  0  0  0  0  0
   37.1120   28.0300   35.5440 H   0  0  0  0  0  0  0  0  0  0  0  0
   35.7330   26.7840   31.0030 H   0  0  0  0  0  0  0  0  0  0  0  0
   38.2240   23.9570   37.9180 C   0  0  0  0  0  0  0  0  0  0  0  0
   37.0480   23.2290   37.6910 F   0  0  0  0  0  0  0  0  0  0  0  0
   37.9830   25.0310   38.7330 F   0  0  0  0  0  0  0  0  0  0  0  0
   39.1610   23.0860   38.4400 F   0  0  0  0  0  0  0  0  0  0  0  0
  1  6  1  0  0  0  0
  2  1  2  0  0  0  0
  2  3  1  0  0  0  0
  3  4  2  0  0  0  0
  4  5  1  0  0  0  0
  4  9  1  0  0  0  0
  5 19  1  0  0  0  0
  6  5  2  0  0  0  0
  7  2  1  0  0  0  0
  8  3  1  0  0  0  0
 10 16  1  0  0  0  0
 10 11  1  0  0  0  0
 11 17  1  0  0  0  0
 12 11  2  0  0  0  0
 12  1  1  0  0  0  0
 13 12  1  0  0  0  0
 14 15  1  0  0  0  0
 14 13  2  0  0  0  0
 15 10  2  0  0  0  0
 18 14  1  0  0  0  0
 19 22  1  0  0  0  0
 19 21  1  0  0  0  0
 20 19  1  0  0  0  0
M  END
>  <minimizedAffinity>
-4.64044046

$$$$

 OpenBabel03262522383D

 22 23  0  0  0  0  0  0  0  0999 V2000
   38.1430   25.5880   35.3290 C   0  0  0  0  0  0  0  0  0  0  0  0
   37.9690   26.8870   35.7420 C   0  0  0  0  0  0  0  0  0  0  0  0
   37.3520   27.8580   34.9890 C   0  0  0  0  0  0  0  0  0  0  0  0
   36.8700   27.5550   33.7440 C   0  0  0  0  0  0  0  0  0  0  0  0
   37.0550   26.2530   33.3540 C   0  0  0  0  0  0  0  0  0  0  0  0
   37.6550   25.3010   34.0830 N   0  0  0  0  0  0  0  0  0  0  0  0
   38.3460   27.1510   36.7300 H   0  0  0  0  0  0  0  0  0  0  0  0
   37.2600   28.8520   35.3940 H   0  0  0  0  0  0  0  0  0  0  0  0
   36.3770   28.2790   33.1100 H   0  0  0  0  0  0  0  0  0  0  0  0
   40.4550   22.8980   36.5760 C   0  0  0  0  0  0  0  0  0  0  0  0
   39.9320   23.8600   35.7000 C   0  0  0  0  0  0  0  0  0  0  0  0
   38.7940   24.5630   36.1280 C   0  0  0  0  0  0  0  0  0  0  0  0
   38.2690   24.2760   37.3500 N   0  0  0  0  0  0  0  0  0  0  0  0
   38.8120   23.3360   38.1600 C   0  0  0  0  0  0  0  0  0  0  0  0
   39.8910   22.6560   37.7780 N   0  0  0  0  0  0  0  0  0  0  0  0
   41.3280   22.3810   36.2100 H   0  0  0  0  0  0  0  0  0  0  0  0
   40.3430   24.0900   34.7370 H   0  0  0  0  0  0  0  0  0  0  0  0
   38.3760   23.1250   39.1280 H   0  0  0  0  0  0  0  0  0  0  0  0
   36.5740   25.7770   32.0100 C   0  0  0  0  0  0  0  0  0  0  0  0
   37.7160   25.7910   31.1960 F   0  0  0  0  0  0  0  0  0  0  0  0
   35.5940   26.5780   31.4890 F   0  0  0  0  0  0  0  0  0  0  0  0
   36.1760   24.4610   32.1490 F   0  0  0  0  0  0  0  0  0  0  0  0
  1  2  1  0  0  0  0
  1 12  1  0  0  0  0
  2  7  1  0  0  0  0
  3  8  1  0  0  0  0
  3  2  2  0  0  0  0
  4  3  1  0  0  0  0
  5  4  2  0  0  0  0
  5  6  1  0  0  0  0
  6  1  2  0  0  0  0
  9  4  1  0  0  0  0
 10 15  1  0  0  0  0
 11 12  1  0  0  0  0
 11 10  2  0  0  0  0
 12 13  2  0  0  0  0
 13 14  1  0  0  0  0
 14 18  1  0  0  0  0
 15 14  2  0  0  0  0
 16 10  1  0  0  0  0
 17 11  1  0  0  0  0
 19 22  1  0  0  0  0
 19  5  1  0  0  0  0
 20 19  1  0  0  0  0
 21 19  1  0  0  0  0
M  END
>  <minimizedAffinity>
-4.59195232

$$$$

 OpenBabel03262522383D

 22 23  0  0  0  0  0  0  0  0999 V2000
   38.0920   25.5370   34.0270 C   0  0  0  0  0  0  0  0  0  0  0  0
   38.1920   26.8850   34.2730 C   0  0  0  0  0  0  0  0  0  0  0  0
   38.2890   27.4320   35.5310 C   0  0  0  0  0  0  0  0  0  0  0  0
   38.2880   26.6190   36.6330 C   0  0  0  0  0  0  0  0  0  0  0  0
   38.1880   25.2790   36.3620 C   0  0  0  0  0  0  0  0  0  0  0  0
   38.0930   24.7380   35.1380 N   0  0  0  0  0  0  0  0  0  0  0  0
   38.1940   27.5510   33.4100 H   0  0  0  0  0  0  0  0  0  0  0  0
   38.3630   28.5020   35.6290 H   0  0  0  0  0  0  0  0  0  0  0  0
   38.3620   26.9970   37.6440 H   0  0  0  0  0  0  0  0  0  0  0  0
   36.8200   24.0880   30.7990 C   0  0  0  0  0  0  0  0  0  0  0  0
   36.7670   24.6380   32.0880 C   0  0  0  0  0  0  0  0  0  0  0  0
   37.9910   24.9610   32.6960 C   0  0  0  0  0  0  0  0  0  0  0  0
   39.1430   24.7250   32.0120 N   0  0  0  0  0  0  0  0  0  0  0  0
   39.1420   24.1920   30.7670 C   0  0  0  0  0  0  0  0  0  0  0  0
   37.9950   23.8780   30.1690 N   0  0  0  0  0  0  0  0  0  0  0  0
   35.8590   23.8550   30.3680 H   0  0  0  0  0  0  0  0  0  0  0  0
   35.8620   24.8260   32.6300 H   0  0  0  0  0  0  0  0  0  0  0  0
   40.0710   24.0140   30.2430 H   0  0  0  0  0  0  0  0  0  0  0  0
   38.1750   24.2680   37.4750 C   0  0  0  0  0  0  0  0  0  0  0  0
   38.0120   25.0250   38.6440 F   0  0  0  0  0  0  0  0  0  0  0  0
   39.3290   23.5320   37.5290 F   0  0  0  0  0  0  0  0  0  0  0  0
   37.0460   23.4880   37.3210 F   0  0  0  0  0  0  0  0  0  0  0  0
  1  2  2  0  0  0  0
  1  6  1  0  0  0  0
  2  3  1  0  0  0  0
  3  8  1  0  0  0  0
  3  4  2  0  0  0  0
  4  9  1  0  0  0  0
  5  4  1  0  0  0  0
  5 19  1  0  0  0  0
  6  5  2  0  0  0  0
  7  2  1  0  0  0  0
 10 11  1  0  0  0  0
 11 17  1  0  0  0  0
 11 12  2  0  0  0  0
 12  1  1  0  0  0  0
 13 12  1  0  0  0  0
 14 13  2  0  0  0  0
 15 14  1  0  0  0  0
 15 10  2  0  0  0  0
 16 10  1  0  0  0  0
 18 14  1  0  0  0  0
 19 21  1  0  0  0  0
 19 20  1  0  0  0  0
 22 19  1  0  0  0  0
M  END
>  <minimizedAffinity>
-4.55494499

$$$$
