
 OpenBabel03272505173D

 37 39  0  0  1  0  0  0  0  0999 V2000
   39.1880   23.9210   33.6140 Cl  0  0  0  0  0  0  0  0  0  0  0  0
   37.9490   22.6950   33.5970 C   0  0  0  0  0  0  0  0  0  0  0  0
   37.5590   22.1260   34.7590 C   0  0  0  0  0  0  0  0  0  0  0  0
   36.5470   21.1720   34.6650 C   0  0  0  0  0  0  0  0  0  0  0  0
   35.9490   20.7940   33.4980 C   0  0  0  0  0  0  0  0  0  0  0  0
   36.3730   21.3950   32.3380 C   0  0  0  0  0  0  0  0  0  0  0  0
   37.3760   22.3490   32.3720 C   0  0  0  0  0  0  0  0  0  0  0  0
   36.2120   20.6980   35.5840 H   0  0  0  0  0  0  0  0  0  0  0  0
   35.1670   20.0470   33.4920 H   0  0  0  0  0  0  0  0  0  0  0  0
   35.8980   21.0920   31.4200 H   0  0  0  0  0  0  0  0  0  0  0  0
   37.8270   22.9670   31.1620 N   0  0  0  0  0  0  0  0  0  0  0  0
   38.9570   22.5520   30.3730 C   0  0  0  0  0  0  0  0  0  0  0  0
   39.1630   23.6270   29.3050 C   0  0  0  0  0  0  0  0  0  0  0  0
   39.3030   24.8530   30.0380 N   0  0  0  0  0  0  0  0  0  0  0  0
   38.0670   25.2750   30.6140 C   0  0  0  0  0  0  0  0  0  0  0  0
   37.0830   24.1200   30.6720 C   0  0  2  0  0  0  0  0  0  0  0  0
   39.8850   22.4500   30.9670 H   0  0  0  0  0  0  0  0  0  0  0  0
   38.6940   21.6320   29.8390 H   0  0  0  0  0  0  0  0  0  0  0  0
   38.3640   23.6070   28.5580 H   0  0  0  0  0  0  0  0  0  0  0  0
   40.0990   23.3860   28.7680 H   0  0  0  0  0  0  0  0  0  0  0  0
   39.7790   25.6210   29.5150 H   0  0  0  0  0  0  0  0  0  0  0  0
   38.2600   25.6110   31.6550 H   0  0  0  0  0  0  0  0  0  0  0  0
   37.6440   26.0950   29.9980 H   0  0  0  0  0  0  0  0  0  0  0  0
   36.6790   23.9100   29.6720 H   0  0  0  0  0  0  0  0  0  0  0  0
   35.9770   24.5740   31.5510 C   0  0  0  0  0  0  0  0  0  0  0  0
   35.3280   25.6030   30.8510 F   0  0  0  0  0  0  0  0  0  0  0  0
   35.0400   23.6730   31.9020 F   0  0  0  0  0  0  0  0  0  0  0  0
   36.4420   25.1910   32.7170 F   0  0  0  0  0  0  0  0  0  0  0  0
   38.1000   23.6020   38.1750 C   0  0  0  0  0  0  0  0  0  0  0  0
   37.4800   23.2530   36.9650 C   0  0  0  0  0  0  0  0  0  0  0  0
   38.1800   22.5060   36.0070 C   0  0  0  0  0  0  0  0  0  0  0  0
   39.4660   22.1470   36.3090 N   0  0  0  0  0  0  0  0  0  0  0  0
   40.0480   22.4910   37.4750 C   0  0  0  0  0  0  0  0  0  0  0  0
   39.3740   23.2150   38.4100 N   0  0  0  0  0  0  0  0  0  0  0  0
   37.6630   24.1630   38.9670 H   0  0  0  0  0  0  0  0  0  0  0  0
   36.4920   23.6670   36.9360 H   0  0  0  0  0  0  0  0  0  0  0  0
   41.0530   22.1990   37.6840 H   0  0  0  0  0  0  0  0  0  0  0  0
  2  1  1  0  0  0  0
  2  3  1  0  0  0  0
  3 31  1  0  0  0  0
  4  3  2  0  0  0  0
  4  8  1  0  0  0  0
  5  4  1  0  0  0  0
  6  7  1  0  0  0  0
  6  5  2  0  0  0  0
  7  2  2  0  0  0  0
  9  5  1  0  0  0  0
 10  6  1  0  0  0  0
 11  7  1  0  0  0  0
 12 17  1  0  0  0  0
 12 11  1  0  0  0  0
 13 14  1  0  0  0  0
 13 12  1  0  0  0  0
 14 15  1  0  0  0  0
 15 16  1  0  0  0  0
 15 22  1  0  0  0  0
 16 24  1  6  0  0  0
 16 11  1  0  0  0  0
 16 25  1  0  0  0  0
 18 12  1  0  0  0  0
 19 13  1  0  0  0  0
 20 13  1  0  0  0  0
 21 14  1  0  0  0  0
 23 15  1  0  0  0  0
 25 27  1  0  0  0  0
 25 28  1  0  0  0  0
 26 25  1  0  0  0  0
 29 34  1  0  0  0  0
 29 35  1  0  0  0  0
 30 29  2  0  0  0  0
 31 32  2  0  0  0  0
 31 30  1  0  0  0  0
 32 33  1  0  0  0  0
 33 37  1  0  0  0  0
 33 34  2  0  0  0  0
 36 30  1  0  0  0  0
M  END
>  <minimizedAffinity>
-5.48342943

$$$$

 OpenBabel03272505173D

 37 39  0  0  1  0  0  0  0  0999 V2000
   39.2420   22.5810   32.7910 Cl  0  0  0  0  0  0  0  0  0  0  0  0
   37.7600   23.3070   32.2300 C   0  0  0  0  0  0  0  0  0  0  0  0
   37.5230   24.6140   32.4810 C   0  0  0  0  0  0  0  0  0  0  0  0
   36.3280   25.1280   31.9790 C   0  0  0  0  0  0  0  0  0  0  0  0
   35.4140   24.4020   31.2720 C   0  0  0  0  0  0  0  0  0  0  0  0
   35.6910   23.0770   31.0380 C   0  0  0  0  0  0  0  0  0  0  0  0
   36.8630   22.5150   31.5130 C   0  0  0  0  0  0  0  0  0  0  0  0
   36.1100   26.1760   32.1650 H   0  0  0  0  0  0  0  0  0  0  0  0
   34.5030   24.8610   30.9080 H   0  0  0  0  0  0  0  0  0  0  0  0
   34.9660   22.5100   30.4790 H   0  0  0  0  0  0  0  0  0  0  0  0
   37.1460   21.1310   31.2800 N   0  0  0  0  0  0  0  0  0  0  0  0
   37.8520   20.5930   30.1470 C   0  0  0  0  0  0  0  0  0  0  0  0
   37.7280   19.0720   30.2350 C   0  0  0  0  0  0  0  0  0  0  0  0
   36.3160   18.8210   30.2950 N   0  0  0  0  0  0  0  0  0  0  0  0
   35.7560   19.2130   31.5470 C   0  0  0  0  0  0  0  0  0  0  0  0
   36.6870   20.1690   32.2730 C   0  0  2  0  0  0  0  0  0  0  0  0
   37.4390   20.9350   29.1780 H   0  0  0  0  0  0  0  0  0  0  0  0
   38.9180   20.8240   30.2550 H   0  0  0  0  0  0  0  0  0  0  0  0
   38.3180   18.6700   31.0640 H   0  0  0  0  0  0  0  0  0  0  0  0
   38.1600   18.6490   29.3100 H   0  0  0  0  0  0  0  0  0  0  0  0
   36.0350   17.8540   30.0210 H   0  0  0  0  0  0  0  0  0  0  0  0
   34.8010   19.7460   31.3550 H   0  0  0  0  0  0  0  0  0  0  0  0
   35.5930   18.3080   32.1680 H   0  0  0  0  0  0  0  0  0  0  0  0
   37.5430   19.6240   32.6940 H   0  0  0  0  0  0  0  0  0  0  0  0
   35.8900   20.7440   33.3850 C   0  0  0  0  0  0  0  0  0  0  0  0
   35.4480   19.6530   34.1460 F   0  0  0  0  0  0  0  0  0  0  0  0
   36.5050   21.5990   34.2250 F   0  0  0  0  0  0  0  0  0  0  0  0
   34.7120   21.3520   32.9370 F   0  0  0  0  0  0  0  0  0  0  0  0
   40.3400   26.9560   33.3320 C   0  0  0  0  0  0  0  0  0  0  0  0
   39.4330   26.1900   32.5820 C   0  0  0  0  0  0  0  0  0  0  0  0
   38.4730   25.4020   33.2320 C   0  0  0  0  0  0  0  0  0  0  0  0
   38.4700   25.4190   34.6010 N   0  0  0  0  0  0  0  0  0  0  0  0
   39.3490   26.1580   35.3070 C   0  0  0  0  0  0  0  0  0  0  0  0
   40.2830   26.9270   34.6830 N   0  0  0  0  0  0  0  0  0  0  0  0
   41.1040   27.5870   32.9430 H   0  0  0  0  0  0  0  0  0  0  0  0
   39.6430   26.3080   31.5380 H   0  0  0  0  0  0  0  0  0  0  0  0
   39.3250   26.1510   36.3740 H   0  0  0  0  0  0  0  0  0  0  0  0
  2  3  1  0  0  0  0
  2  1  1  0  0  0  0
  3 31  1  0  0  0  0
  4  8  1  0  0  0  0
  4  3  2  0  0  0  0
  5  4  1  0  0  0  0
  6  5  2  0  0  0  0
  6  7  1  0  0  0  0
  7  2  2  0  0  0  0
  9  5  1  0  0  0  0
 10  6  1  0  0  0  0
 11  7  1  0  0  0  0
 11 16  1  0  0  0  0
 12 13  1  0  0  0  0
 12 18  1  0  0  0  0
 12 11  1  0  0  0  0
 13 14  1  0  0  0  0
 13 19  1  0  0  0  0
 14 15  1  0  0  0  0
 15 23  1  0  0  0  0
 15 16  1  0  0  0  0
 16 24  1  1  0  0  0
 16 25  1  0  0  0  0
 17 12  1  0  0  0  0
 20 13  1  0  0  0  0
 21 14  1  0  0  0  0
 22 15  1  0  0  0  0
 25 26  1  0  0  0  0
 25 27  1  0  0  0  0
 28 25  1  0  0  0  0
 29 34  1  0  0  0  0
 30 31  1  0  0  0  0
 30 29  2  0  0  0  0
 31 32  2  0  0  0  0
 32 33  1  0  0  0  0
 33 37  1  0  0  0  0
 34 33  2  0  0  0  0
 35 29  1  0  0  0  0
 36 30  1  0  0  0  0
M  END
>  <minimizedAffinity>
-5.24829054

$$$$

 OpenBabel03272505173D

 37 39  0  0  1  0  0  0  0  0999 V2000
   38.9060   23.6450   32.9170 Cl  0  0  0  0  0  0  0  0  0  0  0  0
   37.6230   24.6090   32.2370 C   0  0  0  0  0  0  0  0  0  0  0  0
   36.5290   23.9990   31.7300 C   0  0  0  0  0  0  0  0  0  0  0  0
   35.5360   24.8400   31.2270 C   0  0  0  0  0  0  0  0  0  0  0  0
   35.6110   26.2020   31.2200 C   0  0  0  0  0  0  0  0  0  0  0  0
   36.7390   26.7850   31.7440 C   0  0  0  0  0  0  0  0  0  0  0  0
   37.7560   25.9980   32.2560 C   0  0  0  0  0  0  0  0  0  0  0  0
   34.6440   24.3770   30.8130 H   0  0  0  0  0  0  0  0  0  0  0  0
   34.8040   26.7990   30.8140 H   0  0  0  0  0  0  0  0  0  0  0  0
   36.7920   27.8600   31.7350 H   0  0  0  0  0  0  0  0  0  0  0  0
   38.9380   26.6040   32.7920 N   0  0  0  0  0  0  0  0  0  0  0  0
   40.1820   26.7890   32.0930 C   0  0  0  0  0  0  0  0  0  0  0  0
   41.1950   27.2830   33.1260 C   0  0  0  0  0  0  0  0  0  0  0  0
   41.1790   26.2900   34.1620 N   0  0  0  0  0  0  0  0  0  0  0  0
   39.9720   26.3310   34.9230 C   0  0  0  0  0  0  0  0  0  0  0  0
   38.8900   27.0830   34.1670 C   0  0  2  0  0  0  0  0  0  0  0  0
   40.5610   25.8570   31.6300 H   0  0  0  0  0  0  0  0  0  0  0  0
   40.0600   27.6010   31.3670 H   0  0  0  0  0  0  0  0  0  0  0  0
   40.9760   28.3060   33.4440 H   0  0  0  0  0  0  0  0  0  0  0  0
   42.1840   27.3140   32.6320 H   0  0  0  0  0  0  0  0  0  0  0  0
   42.0280   26.2790   34.7680 H   0  0  0  0  0  0  0  0  0  0  0  0
   39.6180   25.2900   35.0800 H   0  0  0  0  0  0  0  0  0  0  0  0
   40.1720   26.8390   35.8890 H   0  0  0  0  0  0  0  0  0  0  0  0
   39.0830   28.1640   34.1960 H   0  0  0  0  0  0  0  0  0  0  0  0
   37.6230   26.8020   34.8870 C   0  0  0  0  0  0  0  0  0  0  0  0
   37.8120   27.2720   36.1950 F   0  0  0  0  0  0  0  0  0  0  0  0
   36.4930   27.3630   34.4170 F   0  0  0  0  0  0  0  0  0  0  0  0
   37.3920   25.4310   35.0440 F   0  0  0  0  0  0  0  0  0  0  0  0
   35.4850   20.4870   32.5760 C   0  0  0  0  0  0  0  0  0  0  0  0
   35.5740   21.8870   32.6090 C   0  0  0  0  0  0  0  0  0  0  0  0
   36.4280   22.5570   31.7220 C   0  0  0  0  0  0  0  0  0  0  0  0
   37.1520   21.7910   30.8480 N   0  0  0  0  0  0  0  0  0  0  0  0
   37.0580   20.4470   30.8310 C   0  0  0  0  0  0  0  0  0  0  0  0
   36.2290   19.7890   31.6870 N   0  0  0  0  0  0  0  0  0  0  0  0
   34.8720   19.8810   33.2000 H   0  0  0  0  0  0  0  0  0  0  0  0
   34.9460   22.2680   33.3890 H   0  0  0  0  0  0  0  0  0  0  0  0
   37.6350   19.8740   30.1400 H   0  0  0  0  0  0  0  0  0  0  0  0
  2  7  1  0  0  0  0
  2  1  1  0  0  0  0
  3  2  2  0  0  0  0
  4  3  1  0  0  0  0
  5  4  2  0  0  0  0
  5  6  1  0  0  0  0
  6  7  2  0  0  0  0
  7 11  1  0  0  0  0
  8  4  1  0  0  0  0
  9  5  1  0  0  0  0
 10  6  1  0  0  0  0
 11 16  1  0  0  0  0
 12 11  1  0  0  0  0
 12 13  1  0  0  0  0
 13 19  1  0  0  0  0
 13 14  1  0  0  0  0
 14 21  1  0  0  0  0
 14 15  1  0  0  0  0
 15 22  1  0  0  0  0
 15 23  1  0  0  0  0
 16 24  1  1  0  0  0
 16 25  1  0  0  0  0
 16 15  1  0  0  0  0
 17 12  1  0  0  0  0
 18 12  1  0  0  0  0
 20 13  1  0  0  0  0
 25 28  1  0  0  0  0
 25 26  1  0  0  0  0
 27 25  1  0  0  0  0
 29 30  1  0  0  0  0
 29 35  1  0  0  0  0
 30 36  1  0  0  0  0
 31  3  1  0  0  0  0
 31 30  2  0  0  0  0
 32 31  1  0  0  0  0
 33 32  2  0  0  0  0
 33 34  1  0  0  0  0
 34 29  2  0  0  0  0
 37 33  1  0  0  0  0
M  END
>  <minimizedAffinity>
-5.07132292

$$$$

 OpenBabel03272505173D

 37 39  0  0  1  0  0  0  0  0999 V2000
   39.3820   25.2990   34.2240 Cl  0  0  0  0  0  0  0  0  0  0  0  0
   38.4770   23.9180   33.6660 C   0  0  0  0  0  0  0  0  0  0  0  0
   38.1120   22.9600   34.5470 C   0  0  0  0  0  0  0  0  0  0  0  0
   37.3700   21.9000   34.0290 C   0  0  0  0  0  0  0  0  0  0  0  0
   37.0050   21.7820   32.7190 C   0  0  0  0  0  0  0  0  0  0  0  0
   37.3950   22.7750   31.8540 C   0  0  0  0  0  0  0  0  0  0  0  0
   38.1340   23.8510   32.3140 C   0  0  0  0  0  0  0  0  0  0  0  0
   37.0620   21.1150   34.7150 H   0  0  0  0  0  0  0  0  0  0  0  0
   36.4270   20.9330   32.3780 H   0  0  0  0  0  0  0  0  0  0  0  0
   37.1050   22.6760   30.8220 H   0  0  0  0  0  0  0  0  0  0  0  0
   38.5520   24.8810   31.4110 N   0  0  0  0  0  0  0  0  0  0  0  0
   39.8190   24.9460   30.7330 C   0  0  0  0  0  0  0  0  0  0  0  0
   39.8810   26.3120   30.0500 C   0  0  0  0  0  0  0  0  0  0  0  0
   39.6650   27.2610   31.1050 N   0  0  0  0  0  0  0  0  0  0  0  0
   38.3150   27.2480   31.5670 C   0  0  0  0  0  0  0  0  0  0  0  0
   37.6180   25.9660   31.1440 C   0  0  2  0  0  0  0  0  0  0  0  0
   40.6820   24.8430   31.4180 H   0  0  0  0  0  0  0  0  0  0  0  0
   39.8270   24.1980   29.9310 H   0  0  0  0  0  0  0  0  0  0  0  0
   39.1860   26.3700   29.2070 H   0  0  0  0  0  0  0  0  0  0  0  0
   40.8960   26.4260   29.6260 H   0  0  0  0  0  0  0  0  0  0  0  0
   40.0040   28.2260   30.8980 H   0  0  0  0  0  0  0  0  0  0  0  0
   38.3210   27.2830   32.6770 H   0  0  0  0  0  0  0  0  0  0  0  0
   37.7800   28.1220   31.1400 H   0  0  0  0  0  0  0  0  0  0  0  0
   37.3740   25.9990   30.0730 H   0  0  0  0  0  0  0  0  0  0  0  0
   36.3550   25.9170   31.9220 C   0  0  0  0  0  0  0  0  0  0  0  0
   35.5930   27.0120   31.4880 F   0  0  0  0  0  0  0  0  0  0  0  0
   35.5850   24.8180   31.8040 F   0  0  0  0  0  0  0  0  0  0  0  0
   36.5600   26.1560   33.2850 F   0  0  0  0  0  0  0  0  0  0  0  0
   38.0130   23.7150   38.2300 C   0  0  0  0  0  0  0  0  0  0  0  0
   37.6290   23.6390   36.8820 C   0  0  0  0  0  0  0  0  0  0  0  0
   38.4900   23.0600   35.9390 C   0  0  0  0  0  0  0  0  0  0  0  0
   39.6930   22.5900   36.3920 N   0  0  0  0  0  0  0  0  0  0  0  0
   40.0490   22.6730   37.6890 C   0  0  0  0  0  0  0  0  0  0  0  0
   39.2170   23.2310   38.6120 N   0  0  0  0  0  0  0  0  0  0  0  0
   37.4400   24.1310   39.0250 H   0  0  0  0  0  0  0  0  0  0  0  0
   36.6680   24.0950   36.7560 H   0  0  0  0  0  0  0  0  0  0  0  0
   40.9930   22.3000   38.0160 H   0  0  0  0  0  0  0  0  0  0  0  0
  2  1  1  0  0  0  0
  2  3  1  0  0  0  0
  3 31  1  0  0  0  0
  4  3  2  0  0  0  0
  4  8  1  0  0  0  0
  5  4  1  0  0  0  0
  6  7  1  0  0  0  0
  6  5  2  0  0  0  0
  7  2  2  0  0  0  0
  9  5  1  0  0  0  0
 10  6  1  0  0  0  0
 11  7  1  0  0  0  0
 12 11  1  0  0  0  0
 12 17  1  0  0  0  0
 13 12  1  0  0  0  0
 13 14  1  0  0  0  0
 14 15  1  0  0  0  0
 15 22  1  0  0  0  0
 16 24  1  6  0  0  0
 16 11  1  0  0  0  0
 16 15  1  0  0  0  0
 16 25  1  0  0  0  0
 18 12  1  0  0  0  0
 19 13  1  0  0  0  0
 20 13  1  0  0  0  0
 21 14  1  0  0  0  0
 23 15  1  0  0  0  0
 25 28  1  0  0  0  0
 26 25  1  0  0  0  0
 27 25  1  0  0  0  0
 29 34  1  0  0  0  0
 29 35  1  0  0  0  0
 30 29  2  0  0  0  0
 31 32  2  0  0  0  0
 31 30  1  0  0  0  0
 32 33  1  0  0  0  0
 33 37  1  0  0  0  0
 33 34  2  0  0  0  0
 36 30  1  0  0  0  0
M  END
>  <minimizedAffinity>
-5.02423191

$$$$

 OpenBabel03272505173D

 37 39  0  0  1  0  0  0  0  0999 V2000
   39.6000   26.3250   34.5610 Cl  0  0  0  0  0  0  0  0  0  0  0  0
   38.7190   24.9580   33.9350 C   0  0  0  0  0  0  0  0  0  0  0  0
   37.8100   25.1450   32.9520 C   0  0  0  0  0  0  0  0  0  0  0  0
   37.1640   24.0000   32.4880 C   0  0  0  0  0  0  0  0  0  0  0  0
   37.3950   22.7410   32.9590 C   0  0  0  0  0  0  0  0  0  0  0  0
   38.3260   22.5910   33.9590 C   0  0  0  0  0  0  0  0  0  0  0  0
   38.9960   23.6940   34.4580 C   0  0  0  0  0  0  0  0  0  0  0  0
   36.4280   24.1200   31.6970 H   0  0  0  0  0  0  0  0  0  0  0  0
   36.8600   21.8900   32.5560 H   0  0  0  0  0  0  0  0  0  0  0  0
   38.5020   21.5950   34.3270 H   0  0  0  0  0  0  0  0  0  0  0  0
   39.9580   23.5410   35.5070 N   0  0  0  0  0  0  0  0  0  0  0  0
   41.3670   23.3040   35.3340 C   0  0  0  0  0  0  0  0  0  0  0  0
   41.9360   23.0090   36.7210 C   0  0  0  0  0  0  0  0  0  0  0  0
   41.1530   21.9120   37.2150 N   0  0  0  0  0  0  0  0  0  0  0  0
   39.8230   22.3100   37.5450 C   0  0  0  0  0  0  0  0  0  0  0  0
   39.4810   23.6330   36.8810 C   0  0  2  0  0  0  0  0  0  0  0  0
   41.5820   22.4490   34.6650 H   0  0  0  0  0  0  0  0  0  0  0  0
   41.8400   24.2330   34.9960 H   0  0  0  0  0  0  0  0  0  0  0  0
   41.9470   23.9060   37.3480 H   0  0  0  0  0  0  0  0  0  0  0  0
   42.9910   22.7070   36.5900 H   0  0  0  0  0  0  0  0  0  0  0  0
   41.6040   21.3660   37.9820 H   0  0  0  0  0  0  0  0  0  0  0  0
   39.1190   21.5430   37.1590 H   0  0  0  0  0  0  0  0  0  0  0  0
   39.7410   22.4140   38.6470 H   0  0  0  0  0  0  0  0  0  0  0  0
   39.9830   24.4620   37.3990 H   0  0  0  0  0  0  0  0  0  0  0  0
   38.0130   23.7930   37.0280 C   0  0  0  0  0  0  0  0  0  0  0  0
   37.7780   23.9310   38.4040 F   0  0  0  0  0  0  0  0  0  0  0  0
   37.4280   24.8380   36.4130 F   0  0  0  0  0  0  0  0  0  0  0  0
   37.3130   22.6350   36.6730 F   0  0  0  0  0  0  0  0  0  0  0  0
   37.9130   28.2310   30.8050 C   0  0  0  0  0  0  0  0  0  0  0  0
   38.1940   26.9440   31.2910 C   0  0  0  0  0  0  0  0  0  0  0  0
   37.5450   26.4700   32.4390 C   0  0  0  0  0  0  0  0  0  0  0  0
   36.6490   27.3090   33.0450 N   0  0  0  0  0  0  0  0  0  0  0  0
   36.3910   28.5430   32.5670 C   0  0  0  0  0  0  0  0  0  0  0  0
   37.0160   29.0090   31.4510 N   0  0  0  0  0  0  0  0  0  0  0  0
   38.3460   28.6870   29.9460 H   0  0  0  0  0  0  0  0  0  0  0  0
   38.9460   26.4860   30.6800 H   0  0  0  0  0  0  0  0  0  0  0  0
   35.6880   29.1770   33.0590 H   0  0  0  0  0  0  0  0  0  0  0  0
  2  7  1  0  0  0  0
  2  1  1  0  0  0  0
  3  2  2  0  0  0  0
  4  3  1  0  0  0  0
  4  5  2  0  0  0  0
  5  6  1  0  0  0  0
  6 10  1  0  0  0  0
  6  7  2  0  0  0  0
  7 11  1  0  0  0  0
  8  4  1  0  0  0  0
  9  5  1  0  0  0  0
 11 16  1  0  0  0  0
 12 11  1  0  0  0  0
 12 13  1  0  0  0  0
 13 14  1  0  0  0  0
 13 19  1  0  0  0  0
 14 15  1  0  0  0  0
 14 21  1  0  0  0  0
 15 23  1  0  0  0  0
 16 25  1  0  0  0  0
 16 24  1  1  0  0  0
 16 15  1  0  0  0  0
 17 12  1  0  0  0  0
 18 12  1  0  0  0  0
 20 13  1  0  0  0  0
 22 15  1  0  0  0  0
 25 26  1  0  0  0  0
 27 25  1  0  0  0  0
 28 25  1  0  0  0  0
 29 30  2  0  0  0  0
 29 34  1  0  0  0  0
 30 31  1  0  0  0  0
 31  3  1  0  0  0  0
 31 32  2  0  0  0  0
 33 32  1  0  0  0  0
 33 37  1  0  0  0  0
 34 33  2  0  0  0  0
 35 29  1  0  0  0  0
 36 30  1  0  0  0  0
M  END
>  <minimizedAffinity>
-5.01154518

$$$$

 OpenBabel03272505173D

 37 39  0  0  1  0  0  0  0  0999 V2000
   36.5090   26.7950   34.9120 Cl  0  0  0  0  0  0  0  0  0  0  0  0
   37.0370   27.3410   33.3430 C   0  0  0  0  0  0  0  0  0  0  0  0
   36.5280   28.4830   32.8300 C   0  0  0  0  0  0  0  0  0  0  0  0
   37.0190   28.8660   31.5820 C   0  0  0  0  0  0  0  0  0  0  0  0
   37.9540   28.1690   30.8740 C   0  0  0  0  0  0  0  0  0  0  0  0
   38.4460   27.0130   31.4290 C   0  0  0  0  0  0  0  0  0  0  0  0
   37.9950   26.5850   32.6660 C   0  0  0  0  0  0  0  0  0  0  0  0
   36.6280   29.7820   31.1450 H   0  0  0  0  0  0  0  0  0  0  0  0
   38.2950   28.5200   29.9090 H   0  0  0  0  0  0  0  0  0  0  0  0
   39.1830   26.4670   30.8650 H   0  0  0  0  0  0  0  0  0  0  0  0
   38.4980   25.3740   33.2390 N   0  0  0  0  0  0  0  0  0  0  0  0
   37.9250   24.0630   33.0810 C   0  0  0  0  0  0  0  0  0  0  0  0
   38.6810   23.1370   34.0330 C   0  0  0  0  0  0  0  0  0  0  0  0
   38.5480   23.7480   35.3250 N   0  0  0  0  0  0  0  0  0  0  0  0
   39.3220   24.9410   35.4340 C   0  0  0  0  0  0  0  0  0  0  0  0
   39.7000   25.4610   34.0580 C   0  0  2  0  0  0  0  0  0  0  0  0
   36.8460   24.0310   33.3250 H   0  0  0  0  0  0  0  0  0  0  0  0
   38.1390   23.7070   32.0670 H   0  0  0  0  0  0  0  0  0  0  0  0
   39.7060   22.9630   33.6920 H   0  0  0  0  0  0  0  0  0  0  0  0
   38.1740   22.1540   34.0130 H   0  0  0  0  0  0  0  0  0  0  0  0
   38.7010   23.1010   36.1300 H   0  0  0  0  0  0  0  0  0  0  0  0
   38.7050   25.7180   35.9340 H   0  0  0  0  0  0  0  0  0  0  0  0
   40.2420   24.7220   36.0150 H   0  0  0  0  0  0  0  0  0  0  0  0
   40.4980   24.8440   33.6220 H   0  0  0  0  0  0  0  0  0  0  0  0
   40.2180   26.8350   34.2720 C   0  0  0  0  0  0  0  0  0  0  0  0
   41.4590   26.6830   34.9070 F   0  0  0  0  0  0  0  0  0  0  0  0
   40.4130   27.6110   33.1880 F   0  0  0  0  0  0  0  0  0  0  0  0
   39.4470   27.5580   35.1880 F   0  0  0  0  0  0  0  0  0  0  0  0
   34.9200   30.8630   35.2570 C   0  0  0  0  0  0  0  0  0  0  0  0
   35.9040   30.1340   34.5710 C   0  0  0  0  0  0  0  0  0  0  0  0
   35.5340   29.2370   33.5580 C   0  0  0  0  0  0  0  0  0  0  0  0
   34.1980   29.1140   33.2860 N   0  0  0  0  0  0  0  0  0  0  0  0
   33.2650   29.8200   33.9560 C   0  0  0  0  0  0  0  0  0  0  0  0
   33.6170   30.6940   34.9390 N   0  0  0  0  0  0  0  0  0  0  0  0
   35.0900   31.5670   36.0380 H   0  0  0  0  0  0  0  0  0  0  0  0
   36.8690   30.3670   34.9720 H   0  0  0  0  0  0  0  0  0  0  0  0
   32.2300   29.7040   33.7250 H   0  0  0  0  0  0  0  0  0  0  0  0
  2  1  1  0  0  0  0
  3  2  1  0  0  0  0
  3 31  1  0  0  0  0
  4  3  2  0  0  0  0
  5  6  2  0  0  0  0
  5  4  1  0  0  0  0
  6  7  1  0  0  0  0
  7 11  1  0  0  0  0
  7  2  2  0  0  0  0
  8  4  1  0  0  0  0
  9  5  1  0  0  0  0
 10  6  1  0  0  0  0
 11 16  1  0  0  0  0
 12 11  1  0  0  0  0
 12 17  1  0  0  0  0
 12 13  1  0  0  0  0
 13 14  1  0  0  0  0
 14 15  1  0  0  0  0
 14 21  1  0  0  0  0
 15 22  1  0  0  0  0
 15 23  1  0  0  0  0
 16 24  1  6  0  0  0
 16 25  1  0  0  0  0
 16 15  1  0  0  0  0
 18 12  1  0  0  0  0
 19 13  1  0  0  0  0
 20 13  1  0  0  0  0
 25 26  1  0  0  0  0
 25 28  1  0  0  0  0
 27 25  1  0  0  0  0
 29 35  1  0  0  0  0
 30 36  1  0  0  0  0
 30 29  2  0  0  0  0
 31 30  1  0  0  0  0
 32 31  2  0  0  0  0
 32 33  1  0  0  0  0
 33 34  2  0  0  0  0
 34 29  1  0  0  0  0
 37 33  1  0  0  0  0
M  END
>  <minimizedAffinity>
-4.96517658

$$$$

 OpenBabel03272505173D

 37 39  0  0  1  0  0  0  0  0999 V2000
   37.0710   25.5200   33.1250 Cl  0  0  0  0  0  0  0  0  0  0  0  0
   38.6980   26.0130   33.5060 C   0  0  0  0  0  0  0  0  0  0  0  0
   39.2960   26.9690   32.7610 C   0  0  0  0  0  0  0  0  0  0  0  0
   40.5890   27.3260   33.1440 C   0  0  0  0  0  0  0  0  0  0  0  0
   41.2600   26.7760   34.1970 C   0  0  0  0  0  0  0  0  0  0  0  0
   40.6200   25.8060   34.9290 C   0  0  0  0  0  0  0  0  0  0  0  0
   39.3350   25.4130   34.5940 C   0  0  0  0  0  0  0  0  0  0  0  0
   41.0940   28.0930   32.5630 H   0  0  0  0  0  0  0  0  0  0  0  0
   42.2640   27.0970   34.4430 H   0  0  0  0  0  0  0  0  0  0  0  0
   41.1550   25.3760   35.7580 H   0  0  0  0  0  0  0  0  0  0  0  0
   38.6710   24.3940   35.3490 N   0  0  0  0  0  0  0  0  0  0  0  0
   37.8290   24.6080   36.4960 C   0  0  0  0  0  0  0  0  0  0  0  0
   37.5210   23.2280   37.0770 C   0  0  0  0  0  0  0  0  0  0  0  0
   38.8060   22.6360   37.3210 N   0  0  0  0  0  0  0  0  0  0  0  0
   39.4700   22.2800   36.1090 C   0  0  0  0  0  0  0  0  0  0  0  0
   38.8540   23.0120   34.9280 C   0  0  2  0  0  0  0  0  0  0  0  0
   38.3090   25.2300   37.2760 H   0  0  0  0  0  0  0  0  0  0  0  0
   36.8720   25.0210   36.1570 H   0  0  0  0  0  0  0  0  0  0  0  0
   36.8520   22.6590   36.4240 H   0  0  0  0  0  0  0  0  0  0  0  0
   36.9760   23.3800   38.0260 H   0  0  0  0  0  0  0  0  0  0  0  0
   38.8010   21.8550   38.0130 H   0  0  0  0  0  0  0  0  0  0  0  0
   40.5330   22.5890   36.1850 H   0  0  0  0  0  0  0  0  0  0  0  0
   39.3780   21.1850   35.9570 H   0  0  0  0  0  0  0  0  0  0  0  0
   37.8850   22.5660   34.6650 H   0  0  0  0  0  0  0  0  0  0  0  0
   39.7940   22.8170   33.7970 C   0  0  0  0  0  0  0  0  0  0  0  0
   39.7740   21.4440   33.5110 F   0  0  0  0  0  0  0  0  0  0  0  0
   39.5410   23.4720   32.6470 F   0  0  0  0  0  0  0  0  0  0  0  0
   41.1210   23.0750   34.1570 F   0  0  0  0  0  0  0  0  0  0  0  0
   38.3750   27.9570   29.2510 C   0  0  0  0  0  0  0  0  0  0  0  0
   39.0670   27.3780   30.3270 C   0  0  0  0  0  0  0  0  0  0  0  0
   38.6070   27.5640   31.6390 C   0  0  0  0  0  0  0  0  0  0  0  0
   37.4790   28.3210   31.8070 N   0  0  0  0  0  0  0  0  0  0  0  0
   36.8270   28.8720   30.7640 C   0  0  0  0  0  0  0  0  0  0  0  0
   37.2660   28.6940   29.4880 N   0  0  0  0  0  0  0  0  0  0  0  0
   38.6340   27.8790   28.2220 H   0  0  0  0  0  0  0  0  0  0  0  0
   39.9310   26.8610   29.9610 H   0  0  0  0  0  0  0  0  0  0  0  0
   35.9510   29.4590   30.9240 H   0  0  0  0  0  0  0  0  0  0  0  0
  1  2  1  0  0  0  0
  2  7  1  0  0  0  0
  3  4  1  0  0  0  0
  3  2  2  0  0  0  0
  4  5  2  0  0  0  0
  5  9  1  0  0  0  0
  5  6  1  0  0  0  0
  6 10  1  0  0  0  0
  7  6  2  0  0  0  0
  7 11  1  0  0  0  0
  8  4  1  0  0  0  0
 11 12  1  0  0  0  0
 12 13  1  0  0  0  0
 12 17  1  0  0  0  0
 13 14  1  0  0  0  0
 13 20  1  0  0  0  0
 14 21  1  0  0  0  0
 15 22  1  0  0  0  0
 15 14  1  0  0  0  0
 16 24  1  6  0  0  0
 16 11  1  0  0  0  0
 16 15  1  0  0  0  0
 18 12  1  0  0  0  0
 19 13  1  0  0  0  0
 23 15  1  0  0  0  0
 25 28  1  0  0  0  0
 25 16  1  0  0  0  0
 26 25  1  0  0  0  0
 27 25  1  0  0  0  0
 29 34  2  0  0  0  0
 29 30  1  0  0  0  0
 30 31  2  0  0  0  0
 31 32  1  0  0  0  0
 31  3  1  0  0  0  0
 33 37  1  0  0  0  0
 33 32  2  0  0  0  0
 34 33  1  0  0  0  0
 35 29  1  0  0  0  0
 36 30  1  0  0  0  0
M  END
>  <minimizedAffinity>
-4.95277023

$$$$

 OpenBabel03272505173D

 37 39  0  0  1  0  0  0  0  0999 V2000
   38.0720   26.8200   34.6030 Cl  0  0  0  0  0  0  0  0  0  0  0  0
   37.5710   25.6450   33.4180 C   0  0  0  0  0  0  0  0  0  0  0  0
   37.7850   24.3310   33.6510 C   0  0  0  0  0  0  0  0  0  0  0  0
   37.3340   23.4510   32.6670 C   0  0  0  0  0  0  0  0  0  0  0  0
   36.7080   23.8370   31.5180 C   0  0  0  0  0  0  0  0  0  0  0  0
   36.5090   25.1810   31.3160 C   0  0  0  0  0  0  0  0  0  0  0  0
   36.9370   26.0980   32.2600 C   0  0  0  0  0  0  0  0  0  0  0  0
   37.4920   22.3880   32.8290 H   0  0  0  0  0  0  0  0  0  0  0  0
   36.3810   23.1040   30.7920 H   0  0  0  0  0  0  0  0  0  0  0  0
   36.0160   25.4780   30.4070 H   0  0  0  0  0  0  0  0  0  0  0  0
   36.7410   27.5000   32.0450 N   0  0  0  0  0  0  0  0  0  0  0  0
   35.5890   28.2630   32.4480 C   0  0  0  0  0  0  0  0  0  0  0  0
   35.7430   29.6510   31.8260 C   0  0  0  0  0  0  0  0  0  0  0  0
   35.8980   29.4100   30.4200 N   0  0  0  0  0  0  0  0  0  0  0  0
   37.1660   28.8320   30.1130 C   0  0  0  0  0  0  0  0  0  0  0  0
   37.7960   28.2350   31.3600 C   0  0  2  0  0  0  0  0  0  0  0  0
   34.6340   27.8170   32.1070 H   0  0  0  0  0  0  0  0  0  0  0  0
   35.6230   28.4040   33.5340 H   0  0  0  0  0  0  0  0  0  0  0  0
   36.5490   30.2160   32.3040 H   0  0  0  0  0  0  0  0  0  0  0  0
   34.8100   30.2100   32.0250 H   0  0  0  0  0  0  0  0  0  0  0  0
   35.6790   30.2290   29.8120 H   0  0  0  0  0  0  0  0  0  0  0  0
   37.0120   28.0100   29.3820 H   0  0  0  0  0  0  0  0  0  0  0  0
   37.8300   29.6190   29.7010 H   0  0  0  0  0  0  0  0  0  0  0  0
   38.1850   29.0300   32.0110 H   0  0  0  0  0  0  0  0  0  0  0  0
   38.9310   27.4070   30.8830 C   0  0  0  0  0  0  0  0  0  0  0  0
   39.8300   28.2980   30.2770 F   0  0  0  0  0  0  0  0  0  0  0  0
   39.6220   26.6980   31.7970 F   0  0  0  0  0  0  0  0  0  0  0  0
   38.5600   26.5370   29.8520 F   0  0  0  0  0  0  0  0  0  0  0  0
   40.4470   23.1980   36.0550 C   0  0  0  0  0  0  0  0  0  0  0  0
   39.8200   23.6060   34.8660 C   0  0  0  0  0  0  0  0  0  0  0  0
   38.4490   23.8980   34.8600 C   0  0  0  0  0  0  0  0  0  0  0  0
   37.7740   23.7650   36.0420 N   0  0  0  0  0  0  0  0  0  0  0  0
   38.3890   23.3700   37.1750 C   0  0  0  0  0  0  0  0  0  0  0  0
   39.7200   23.0860   37.1890 N   0  0  0  0  0  0  0  0  0  0  0  0
   41.4760   22.9540   36.1710 H   0  0  0  0  0  0  0  0  0  0  0  0
   40.5350   23.6080   34.0670 H   0  0  0  0  0  0  0  0  0  0  0  0
   37.8370   23.2730   38.0830 H   0  0  0  0  0  0  0  0  0  0  0  0
  2  3  1  0  0  0  0
  2  1  1  0  0  0  0
  3 31  1  0  0  0  0
  4  8  1  0  0  0  0
  4  3  2  0  0  0  0
  5  4  1  0  0  0  0
  6  5  2  0  0  0  0
  6  7  1  0  0  0  0
  7  2  2  0  0  0  0
  9  5  1  0  0  0  0
 10  6  1  0  0  0  0
 11  7  1  0  0  0  0
 11 12  1  0  0  0  0
 12 18  1  0  0  0  0
 13 20  1  0  0  0  0
 13 19  1  0  0  0  0
 13 12  1  0  0  0  0
 14 13  1  0  0  0  0
 15 14  1  0  0  0  0
 15 16  1  0  0  0  0
 16 24  1  1  0  0  0
 16 11  1  0  0  0  0
 17 12  1  0  0  0  0
 21 14  1  0  0  0  0
 22 15  1  0  0  0  0
 23 15  1  0  0  0  0
 25 16  1  0  0  0  0
 25 27  1  0  0  0  0
 26 25  1  0  0  0  0
 28 25  1  0  0  0  0
 29 35  1  0  0  0  0
 29 34  1  0  0  0  0
 30 29  2  0  0  0  0
 31 30  1  0  0  0  0
 31 32  2  0  0  0  0
 32 33  1  0  0  0  0
 33 34  2  0  0  0  0
 33 37  1  0  0  0  0
 36 30  1  0  0  0  0
M  END
>  <minimizedAffinity>
-4.92037964

$$$$

 OpenBabel03272505173D

 37 39  0  0  1  0  0  0  0  0999 V2000
   38.8300   21.9760   33.4160 Cl  0  0  0  0  0  0  0  0  0  0  0  0
   37.7700   23.1820   32.7390 C   0  0  0  0  0  0  0  0  0  0  0  0
   36.6060   22.8010   32.1670 C   0  0  0  0  0  0  0  0  0  0  0  0
   35.8020   23.8260   31.6700 C   0  0  0  0  0  0  0  0  0  0  0  0
   36.1190   25.1520   31.7290 C   0  0  0  0  0  0  0  0  0  0  0  0
   37.3110   25.5000   32.3170 C   0  0  0  0  0  0  0  0  0  0  0  0
   38.1490   24.5230   32.8260 C   0  0  0  0  0  0  0  0  0  0  0  0
   34.8590   23.5490   31.2060 H   0  0  0  0  0  0  0  0  0  0  0  0
   35.4510   25.9010   31.3250 H   0  0  0  0  0  0  0  0  0  0  0  0
   37.5560   26.5470   32.3590 H   0  0  0  0  0  0  0  0  0  0  0  0
   39.3970   24.8830   33.4290 N   0  0  0  0  0  0  0  0  0  0  0  0
   40.6780   24.8920   32.7740 C   0  0  0  0  0  0  0  0  0  0  0  0
   41.7230   25.1420   33.8610 C   0  0  0  0  0  0  0  0  0  0  0  0
   41.5020   24.1080   34.8310 N   0  0  0  0  0  0  0  0  0  0  0  0
   40.2930   24.3120   35.5630 C   0  0  0  0  0  0  0  0  0  0  0  0
   39.3820   25.2810   34.8300 C   0  0  2  0  0  0  0  0  0  0  0  0
   40.9090   23.9380   32.2620 H   0  0  0  0  0  0  0  0  0  0  0  0
   40.7220   25.7540   32.0980 H   0  0  0  0  0  0  0  0  0  0  0  0
   41.6710   26.1680   34.2390 H   0  0  0  0  0  0  0  0  0  0  0  0
   42.7200   25.0320   33.3950 H   0  0  0  0  0  0  0  0  0  0  0  0
   42.3150   23.9150   35.4560 H   0  0  0  0  0  0  0  0  0  0  0  0
   39.7620   23.3400   35.6440 H   0  0  0  0  0  0  0  0  0  0  0  0
   40.5430   24.7190   36.5640 H   0  0  0  0  0  0  0  0  0  0  0  0
   39.7560   26.3100   34.9330 H   0  0  0  0  0  0  0  0  0  0  0  0
   38.0620   25.1810   35.4990 C   0  0  0  0  0  0  0  0  0  0  0  0
   38.2540   25.6630   36.8030 F   0  0  0  0  0  0  0  0  0  0  0  0
   37.0310   25.8640   34.9650 F   0  0  0  0  0  0  0  0  0  0  0  0
   37.6550   23.8540   35.6780 F   0  0  0  0  0  0  0  0  0  0  0  0
   36.0950   19.3120   30.8590 C   0  0  0  0  0  0  0  0  0  0  0  0
   36.4390   20.6720   30.9080 C   0  0  0  0  0  0  0  0  0  0  0  0
   36.2500   21.4020   32.0890 C   0  0  0  0  0  0  0  0  0  0  0  0
   35.7230   20.7350   33.1620 N   0  0  0  0  0  0  0  0  0  0  0  0
   35.3960   19.4290   33.0990 C   0  0  0  0  0  0  0  0  0  0  0  0
   35.5790   18.7130   31.9550 N   0  0  0  0  0  0  0  0  0  0  0  0
   36.1980   18.6670   30.0190 H   0  0  0  0  0  0  0  0  0  0  0  0
   36.7990   20.9850   29.9480 H   0  0  0  0  0  0  0  0  0  0  0  0
   34.9860   18.9330   33.9500 H   0  0  0  0  0  0  0  0  0  0  0  0
  2  7  1  0  0  0  0
  2  1  1  0  0  0  0
  3  2  2  0  0  0  0
  4  5  2  0  0  0  0
  4  3  1  0  0  0  0
  5  6  1  0  0  0  0
  6 10  1  0  0  0  0
  6  7  2  0  0  0  0
  7 11  1  0  0  0  0
  8  4  1  0  0  0  0
  9  5  1  0  0  0  0
 11 16  1  0  0  0  0
 12 11  1  0  0  0  0
 12 13  1  0  0  0  0
 13 19  1  0  0  0  0
 13 14  1  0  0  0  0
 14 21  1  0  0  0  0
 14 15  1  0  0  0  0
 15 22  1  0  0  0  0
 15 23  1  0  0  0  0
 16 24  1  1  0  0  0
 16 25  1  0  0  0  0
 16 15  1  0  0  0  0
 17 12  1  0  0  0  0
 18 12  1  0  0  0  0
 20 13  1  0  0  0  0
 25 28  1  0  0  0  0
 25 26  1  0  0  0  0
 27 25  1  0  0  0  0
 29 30  2  0  0  0  0
 29 34  1  0  0  0  0
 30 31  1  0  0  0  0
 31  3  1  0  0  0  0
 31 32  2  0  0  0  0
 33 32  1  0  0  0  0
 33 37  1  0  0  0  0
 34 33  2  0  0  0  0
 35 29  1  0  0  0  0
 36 30  1  0  0  0  0
M  END
>  <minimizedAffinity>
-4.88753462

$$$$
