
 OpenBabel03272507393D

 29 30  0  0  0  0  0  0  0  0999 V2000
   38.5470   32.3160   47.0650 C   0  0  0  0  0  0  0  0  0  0  0  0
   38.0090   32.5970   48.3020 C   0  0  0  0  0  0  0  0  0  0  0  0
   38.6010   33.5410   49.1220 C   0  0  0  0  0  0  0  0  0  0  0  0
   39.7420   34.2070   48.6900 C   0  0  0  0  0  0  0  0  0  0  0  0
   40.2810   33.9160   47.4330 C   0  0  0  0  0  0  0  0  0  0  0  0
   39.6590   32.9710   46.6540 C   0  0  0  0  0  0  0  0  0  0  0  0
   38.2470   33.8160   50.0930 H   0  0  0  0  0  0  0  0  0  0  0  0
   40.2290   34.9510   49.3080 H   0  0  0  0  0  0  0  0  0  0  0  0
   41.1660   34.4030   47.0480 H   0  0  0  0  0  0  0  0  0  0  0  0
   40.1570   32.5890   45.2970 C   0  0  0  0  0  0  0  0  0  0  0  0
   41.3570   33.1490   44.9800 F   0  0  0  0  0  0  0  0  0  0  0  0
   40.3210   31.1980   45.2560 F   0  0  0  0  0  0  0  0  0  0  0  0
   39.1700   32.8340   44.3330 F   0  0  0  0  0  0  0  0  0  0  0  0
   37.3300   30.5470   45.6390 N   0  0  0  0  0  0  0  0  0  0  0  0
   37.8670   31.3280   46.2810 C   0  0  0  0  0  0  0  0  0  0  0  0
   36.8860   32.0190   48.8610 O   0  0  0  0  0  0  0  0  0  0  0  0
   36.9090   31.0310   49.7940 C   0  0  0  0  0  0  0  0  0  0  0  0
   36.2310   29.8890   49.3600 C   0  0  0  0  0  0  0  0  0  0  0  0
   36.1430   28.7790   50.1670 C   0  0  0  0  0  0  0  0  0  0  0  0
   36.7460   28.8460   51.4000 N   0  0  0  0  0  0  0  0  0  0  0  0
   37.3980   29.9550   51.8040 C   0  0  0  0  0  0  0  0  0  0  0  0
   37.4730   31.0190   51.0140 N   0  0  0  0  0  0  0  0  0  0  0  0
   35.6430   27.8550   49.9200 H   0  0  0  0  0  0  0  0  0  0  0  0
   37.8280   29.8900   52.7850 H   0  0  0  0  0  0  0  0  0  0  0  0
   34.2780   29.2050   48.0560 C   0  0  0  0  0  0  0  0  0  0  0  0
   33.4510   28.7160   48.9240 O   0  0  0  0  0  0  0  0  0  0  0  0
   35.6120   29.7130   48.1200 N   0  0  0  0  0  0  0  0  0  0  0  0
   33.4200   28.9900   47.4320 H   0  0  0  0  0  0  0  0  0  0  0  0
   35.6870   29.7800   47.1020 H   0  0  0  0  0  0  0  0  0  0  0  0
  1  2  1  0  0  0  0
  2 16  1  0  0  0  0
  2  3  2  0  0  0  0
  3  7  1  0  0  0  0
  4  3  1  0  0  0  0
  4  8  1  0  0  0  0
  5  4  2  0  0  0  0
  6  1  2  0  0  0  0
  6  5  1  0  0  0  0
  9  5  1  0  0  0  0
 10  6  1  0  0  0  0
 11 10  1  0  0  0  0
 12 10  1  0  0  0  0
 13 10  1  0  0  0  0
 14 15  3  0  0  0  0
 15  1  1  0  0  0  0
 16 17  1  0  0  0  0
 17 22  1  0  0  0  0
 18 17  2  0  0  0  0
 18 19  1  0  0  0  0
 19 20  2  0  0  0  0
 20 21  1  0  0  0  0
 21 24  1  0  0  0  0
 22 21  2  0  0  0  0
 23 19  1  0  0  0  0
 25 27  1  0  0  0  0
 25 26  2  0  0  0  0
 27 18  1  0  0  0  0
 28 25  1  0  0  0  0
 29 27  1  0  0  0  0
M  END
>  <minimizedAffinity>
-5.27233028

>  <minimizedRMSD>
0.625657916

$$$$
