
 OpenBabel03272509063D

 28 29  0  0  0  0  0  0  0  0999 V2000
   36.2970   29.0420   33.3860 C   0  0  0  0  0  0  0  0  0  0  0  0
   37.2270   29.6290   33.2230 H   0  0  0  0  0  0  0  0  0  0  0  0
   35.7930   28.9980   32.3850 H   0  0  0  0  0  0  0  0  0  0  0  0
   35.4800   29.7990   34.3850 C   0  0  0  0  0  0  0  0  0  0  0  0
   35.9660   30.7600   35.2550 C   0  0  0  0  0  0  0  0  0  0  0  0
   35.1140   31.3970   36.1340 C   0  0  0  0  0  0  0  0  0  0  0  0
   33.7580   31.0940   36.1690 C   0  0  0  0  0  0  0  0  0  0  0  0
   33.2690   30.1470   35.3140 C   0  0  0  0  0  0  0  0  0  0  0  0
   34.1120   29.5040   34.4310 C   0  0  0  0  0  0  0  0  0  0  0  0
   37.0310   30.9410   35.1690 H   0  0  0  0  0  0  0  0  0  0  0  0
   35.6430   32.1250   36.7530 H   0  0  0  0  0  0  0  0  0  0  0  0
   33.2080   31.6680   36.9040 H   0  0  0  0  0  0  0  0  0  0  0  0
   32.2070   29.9390   35.3720 H   0  0  0  0  0  0  0  0  0  0  0  0
   33.6010   28.7720   33.8040 H   0  0  0  0  0  0  0  0  0  0  0  0
   37.5060   27.4220   34.8410 C   0  0  0  0  0  3  0  0  0  0  0  0
   36.7050   27.7140   33.8670 C   0  0  0  0  0  3  0  0  0  0  0  0
   38.1000   23.8300   34.5120 C   0  0  0  0  0  0  0  0  0  0  0  0
   38.2130   23.4270   35.8590 C   0  0  0  0  0  0  0  0  0  0  0  0
   38.0760   24.4180   36.8520 C   0  0  0  0  0  0  0  0  0  0  0  0
   37.8410   25.7150   36.4570 N   0  0  0  0  0  0  0  0  0  0  0  0
   37.7470   26.0200   35.1460 C   0  0  0  0  0  0  0  0  0  0  0  0
   37.8740   25.0870   34.1760 N   0  0  0  0  0  0  0  0  0  0  0  0
   38.2100   23.0450   33.7710 H   0  0  0  0  0  0  0  0  0  0  0  0
   38.3950   22.4210   36.1850 H   0  0  0  0  0  0  0  0  0  0  0  0
   38.1790   24.0840   38.2930 C   0  0  0  0  0  0  0  0  0  0  0  0
   39.4100   23.5330   38.6070 F   0  0  0  0  0  0  0  0  0  0  0  0
   38.0140   25.2310   39.0200 F   0  0  0  0  0  0  0  0  0  0  0  0
   37.2480   23.1200   38.6580 F   0  0  0  0  0  0  0  0  0  0  0  0
  1 16  1  0  0  0  0
  1  4  1  0  0  0  0
  2  1  1  0  0  0  0
  3  1  1  0  0  0  0
  4  9  2  0  0  0  0
  4  5  1  0  0  0  0
  5  6  2  0  0  0  0
  6  7  1  0  0  0  0
  6 11  1  0  0  0  0
  7 12  1  0  0  0  0
  8 13  1  0  0  0  0
  8  7  2  0  0  0  0
  9  8  1  0  0  0  0
 10  5  1  0  0  0  0
 14  9  1  0  0  0  0
 15 21  1  0  0  0  0
 16 15  2  0  0  0  0
 17 18  1  0  0  0  0
 18 24  1  0  0  0  0
 18 19  2  0  0  0  0
 19 25  1  0  0  0  0
 20 19  1  0  0  0  0
 21 20  2  0  0  0  0
 22 17  2  0  0  0  0
 22 21  1  0  0  0  0
 23 17  1  0  0  0  0
 25 26  1  0  0  0  0
 25 28  1  0  0  0  0
 25 27  1  0  0  0  0
M  END
>  <minimizedAffinity>
-5.59021711

$$$$

 OpenBabel03272509063D

 28 29  0  0  0  0  0  0  0  0999 V2000
   37.1700   22.3000   31.2670 C   0  0  0  0  0  0  0  0  0  0  0  0
   36.4650   22.8200   30.5830 H   0  0  0  0  0  0  0  0  0  0  0  0
   38.1170   22.1730   30.6800 H   0  0  0  0  0  0  0  0  0  0  0  0
   36.5470   20.9820   31.6040 C   0  0  0  0  0  0  0  0  0  0  0  0
   37.2250   19.7810   31.7230 C   0  0  0  0  0  0  0  0  0  0  0  0
   36.5410   18.6250   32.0420 C   0  0  0  0  0  0  0  0  0  0  0  0
   35.1670   18.6360   32.2510 C   0  0  0  0  0  0  0  0  0  0  0  0
   34.4890   19.8170   32.1360 C   0  0  0  0  0  0  0  0  0  0  0  0
   35.1630   20.9780   31.8180 C   0  0  0  0  0  0  0  0  0  0  0  0
   38.2910   19.8520   31.5460 H   0  0  0  0  0  0  0  0  0  0  0  0
   37.2100   17.7630   32.0990 H   0  0  0  0  0  0  0  0  0  0  0  0
   34.7610   17.6620   32.4940 H   0  0  0  0  0  0  0  0  0  0  0  0
   33.4200   19.7830   32.3060 H   0  0  0  0  0  0  0  0  0  0  0  0
   34.5100   21.8500   31.7560 H   0  0  0  0  0  0  0  0  0  0  0  0
   38.1540   23.0070   33.4430 C   0  0  0  0  0  3  0  0  0  0  0  0
   37.3500   23.1660   32.4410 C   0  0  0  0  0  3  0  0  0  0  0  0
   38.1660   26.2130   35.2000 C   0  0  0  0  0  0  0  0  0  0  0  0
   38.1790   25.8070   36.5510 C   0  0  0  0  0  0  0  0  0  0  0  0
   38.1870   24.4230   36.8180 C   0  0  0  0  0  0  0  0  0  0  0  0
   38.1810   23.5490   35.7540 N   0  0  0  0  0  0  0  0  0  0  0  0
   38.1680   24.0180   34.4900 C   0  0  0  0  0  0  0  0  0  0  0  0
   38.1620   25.3410   34.2080 N   0  0  0  0  0  0  0  0  0  0  0  0
   38.1600   27.2840   35.0260 H   0  0  0  0  0  0  0  0  0  0  0  0
   38.1840   26.4730   37.3910 H   0  0  0  0  0  0  0  0  0  0  0  0
   38.2020   23.9070   38.2070 C   0  0  0  0  0  0  0  0  0  0  0  0
   39.4140   23.3180   38.5250 F   0  0  0  0  0  0  0  0  0  0  0  0
   37.9860   24.9530   39.0630 F   0  0  0  0  0  0  0  0  0  0  0  0
   37.2560   22.9070   38.3890 F   0  0  0  0  0  0  0  0  0  0  0  0
  1  4  1  0  0  0  0
  1 16  1  0  0  0  0
  2  1  1  0  0  0  0
  3  1  1  0  0  0  0
  4  5  2  0  0  0  0
  4  9  1  0  0  0  0
  5  6  1  0  0  0  0
  6 11  1  0  0  0  0
  6  7  2  0  0  0  0
  7 12  1  0  0  0  0
  8  7  1  0  0  0  0
  8 13  1  0  0  0  0
  9  8  2  0  0  0  0
 10  5  1  0  0  0  0
 14  9  1  0  0  0  0
 15 21  1  0  0  0  0
 16 15  2  0  0  0  0
 17 18  1  0  0  0  0
 18 19  2  0  0  0  0
 18 24  1  0  0  0  0
 19 25  1  0  0  0  0
 20 19  1  0  0  0  0
 21 20  2  0  0  0  0
 22 21  1  0  0  0  0
 22 17  2  0  0  0  0
 23 17  1  0  0  0  0
 25 28  1  0  0  0  0
 25 26  1  0  0  0  0
 25 27  1  0  0  0  0
M  END
>  <minimizedAffinity>
-5.44332504

$$$$

 OpenBabel03272509063D

 28 29  0  0  0  0  0  0  0  0999 V2000
   36.4980   28.2700   32.9100 C   0  0  0  0  0  0  0  0  0  0  0  0
   35.3980   28.1680   32.7790 H   0  0  0  0  0  0  0  0  0  0  0  0
   36.6370   29.1630   33.5750 H   0  0  0  0  0  0  0  0  0  0  0  0
   37.0730   28.4990   31.5480 C   0  0  0  0  0  0  0  0  0  0  0  0
   36.6380   29.4520   30.6430 C   0  0  0  0  0  0  0  0  0  0  0  0
   37.2500   29.5720   29.4120 C   0  0  0  0  0  0  0  0  0  0  0  0
   38.3100   28.7480   29.0520 C   0  0  0  0  0  0  0  0  0  0  0  0
   38.7460   27.8050   29.9380 C   0  0  0  0  0  0  0  0  0  0  0  0
   38.1410   27.6760   31.1720 C   0  0  0  0  0  0  0  0  0  0  0  0
   35.8100   30.0540   30.9950 H   0  0  0  0  0  0  0  0  0  0  0  0
   36.7980   30.3650   28.8120 H   0  0  0  0  0  0  0  0  0  0  0  0
   38.6950   28.9510   28.0600 H   0  0  0  0  0  0  0  0  0  0  0  0
   39.5740   27.1820   29.6200 H   0  0  0  0  0  0  0  0  0  0  0  0
   38.5810   26.8890   31.7860 H   0  0  0  0  0  0  0  0  0  0  0  0
   37.4840   26.8630   34.7130 C   0  0  0  0  0  3  0  0  0  0  0  0
   36.9750   27.0280   33.5340 C   0  0  0  0  0  3  0  0  0  0  0  0
   38.5550   23.3680   34.6510 C   0  0  0  0  0  0  0  0  0  0  0  0
   38.5940   23.0490   36.0250 C   0  0  0  0  0  0  0  0  0  0  0  0
   38.2430   24.0610   36.9410 C   0  0  0  0  0  0  0  0  0  0  0  0
   37.8830   25.2950   36.4510 N   0  0  0  0  0  0  0  0  0  0  0  0
   37.8710   25.5210   35.1210 C   0  0  0  0  0  0  0  0  0  0  0  0
   38.2040   24.5660   34.2220 N   0  0  0  0  0  0  0  0  0  0  0  0
   38.8310   22.5690   33.9700 H   0  0  0  0  0  0  0  0  0  0  0  0
   38.8710   22.0930   36.4240 H   0  0  0  0  0  0  0  0  0  0  0  0
   38.2540   23.8130   38.4020 C   0  0  0  0  0  0  0  0  0  0  0  0
   37.3170   22.8630   38.7710 F   0  0  0  0  0  0  0  0  0  0  0  0
   39.4970   23.3620   38.7590 F   0  0  0  0  0  0  0  0  0  0  0  0
   37.9110   24.9550   39.1150 F   0  0  0  0  0  0  0  0  0  0  0  0
  1 16  1  0  0  0  0
  1  3  1  0  0  0  0
  2  1  1  0  0  0  0
  4  1  1  0  0  0  0
  5 10  1  0  0  0  0
  5  4  2  0  0  0  0
  6  5  1  0  0  0  0
  7  6  2  0  0  0  0
  7  8  1  0  0  0  0
  8  9  2  0  0  0  0
  9  4  1  0  0  0  0
  9 14  1  0  0  0  0
 11  6  1  0  0  0  0
 12  7  1  0  0  0  0
 13  8  1  0  0  0  0
 15 21  1  0  0  0  0
 16 15  2  0  0  0  0
 17 18  1  0  0  0  0
 18 24  1  0  0  0  0
 18 19  2  0  0  0  0
 19 25  1  0  0  0  0
 20 19  1  0  0  0  0
 21 20  2  0  0  0  0
 22 17  2  0  0  0  0
 22 21  1  0  0  0  0
 23 17  1  0  0  0  0
 25 27  1  0  0  0  0
 25 26  1  0  0  0  0
 25 28  1  0  0  0  0
M  END
>  <minimizedAffinity>
-5.37044907

$$$$

 OpenBabel03272509063D

 28 29  0  0  0  0  0  0  0  0999 V2000
   35.7180   29.2540   33.2720 C   0  0  0  0  0  0  0  0  0  0  0  0
   36.3110   29.9290   32.6180 H   0  0  0  0  0  0  0  0  0  0  0  0
   34.8660   28.8960   32.6370 H   0  0  0  0  0  0  0  0  0  0  0  0
   35.2400   30.0830   34.4230 C   0  0  0  0  0  0  0  0  0  0  0  0
   36.0310   30.9220   35.1890 C   0  0  0  0  0  0  0  0  0  0  0  0
   35.4770   31.6420   36.2290 C   0  0  0  0  0  0  0  0  0  0  0  0
   34.1240   31.5450   36.5300 C   0  0  0  0  0  0  0  0  0  0  0  0
   33.3360   30.7190   35.7790 C   0  0  0  0  0  0  0  0  0  0  0  0
   33.8790   29.9950   34.7380 C   0  0  0  0  0  0  0  0  0  0  0  0
   37.0730   30.9440   34.8950 H   0  0  0  0  0  0  0  0  0  0  0  0
   36.2230   32.2560   36.7370 H   0  0  0  0  0  0  0  0  0  0  0  0
   33.8240   32.1630   37.3670 H   0  0  0  0  0  0  0  0  0  0  0  0
   32.2860   30.6710   36.0460 H   0  0  0  0  0  0  0  0  0  0  0  0
   33.1480   29.3750   34.2180 H   0  0  0  0  0  0  0  0  0  0  0  0
   36.7080   27.5960   34.8460 C   0  0  0  0  0  3  0  0  0  0  0  0
   36.6090   28.1600   33.6840 C   0  0  0  0  0  3  0  0  0  0  0  0
   39.4530   25.2460   34.2950 C   0  0  0  0  0  0  0  0  0  0  0  0
   39.3910   24.4450   35.4550 C   0  0  0  0  0  0  0  0  0  0  0  0
   38.3890   24.7420   36.4020 C   0  0  0  0  0  0  0  0  0  0  0  0
   37.5330   25.7890   36.1450 N   0  0  0  0  0  0  0  0  0  0  0  0
   37.6590   26.5080   35.0110 C   0  0  0  0  0  0  0  0  0  0  0  0
   38.6110   26.2410   34.0870 N   0  0  0  0  0  0  0  0  0  0  0  0
   40.2340   24.9930   33.5850 H   0  0  0  0  0  0  0  0  0  0  0  0
   40.0490   23.6260   35.6700 H   0  0  0  0  0  0  0  0  0  0  0  0
   38.2500   23.9520   37.6480 C   0  0  0  0  0  0  0  0  0  0  0  0
   37.2270   23.0240   37.5570 F   0  0  0  0  0  0  0  0  0  0  0  0
   39.4250   23.2880   37.8770 F   0  0  0  0  0  0  0  0  0  0  0  0
   37.9110   24.7590   38.7260 F   0  0  0  0  0  0  0  0  0  0  0  0
  1 16  1  0  0  0  0
  1  4  1  0  0  0  0
  2  1  1  0  0  0  0
  3  1  1  0  0  0  0
  4  9  2  0  0  0  0
  4  5  1  0  0  0  0
  5  6  2  0  0  0  0
  6  7  1  0  0  0  0
  6 11  1  0  0  0  0
  7 12  1  0  0  0  0
  8 13  1  0  0  0  0
  8  7  2  0  0  0  0
  9  8  1  0  0  0  0
 10  5  1  0  0  0  0
 14  9  1  0  0  0  0
 15 21  1  0  0  0  0
 16 15  2  0  0  0  0
 17 18  1  0  0  0  0
 18 24  1  0  0  0  0
 18 19  2  0  0  0  0
 19 25  1  0  0  0  0
 20 19  1  0  0  0  0
 21 20  2  0  0  0  0
 22 17  2  0  0  0  0
 22 21  1  0  0  0  0
 23 17  1  0  0  0  0
 25 27  1  0  0  0  0
 25 28  1  0  0  0  0
 26 25  1  0  0  0  0
M  END
>  <minimizedAffinity>
-5.30152369

$$$$

 OpenBabel03272509063D

 28 29  0  0  0  0  0  0  0  0999 V2000
   36.4750   22.6640   30.9410 C   0  0  0  0  0  0  0  0  0  0  0  0
   35.6240   22.8850   30.2610 H   0  0  0  0  0  0  0  0  0  0  0  0
   37.3640   22.5230   30.2710 H   0  0  0  0  0  0  0  0  0  0  0  0
   36.1270   21.4060   31.6720 C   0  0  0  0  0  0  0  0  0  0  0  0
   35.8100   21.3200   33.0160 C   0  0  0  0  0  0  0  0  0  0  0  0
   35.5010   20.1000   33.5820 C   0  0  0  0  0  0  0  0  0  0  0  0
   35.4990   18.9350   32.8230 C   0  0  0  0  0  0  0  0  0  0  0  0
   35.8110   19.0100   31.4950 C   0  0  0  0  0  0  0  0  0  0  0  0
   36.1210   20.2250   30.9190 C   0  0  0  0  0  0  0  0  0  0  0  0
   35.8330   22.2680   33.5400 H   0  0  0  0  0  0  0  0  0  0  0  0
   35.2740   20.1940   34.6460 H   0  0  0  0  0  0  0  0  0  0  0  0
   35.2390   18.0510   33.3920 H   0  0  0  0  0  0  0  0  0  0  0  0
   35.7980   18.0800   30.9390 H   0  0  0  0  0  0  0  0  0  0  0  0
   36.3500   20.1500   29.8560 H   0  0  0  0  0  0  0  0  0  0  0  0
   36.5510   25.0810   31.5380 C   0  0  0  0  0  3  0  0  0  0  0  0
   36.6250   23.8230   31.8330 C   0  0  0  0  0  3  0  0  0  0  0  0
   36.4530   28.1700   33.4910 C   0  0  0  0  0  0  0  0  0  0  0  0
   37.0790   27.7770   34.6930 C   0  0  0  0  0  0  0  0  0  0  0  0
   37.5230   26.4430   34.7930 C   0  0  0  0  0  0  0  0  0  0  0  0
   37.3240   25.6020   33.7210 N   0  0  0  0  0  0  0  0  0  0  0  0
   36.7170   26.0560   32.6050 C   0  0  0  0  0  0  0  0  0  0  0  0
   36.2830   27.3310   32.4850 N   0  0  0  0  0  0  0  0  0  0  0  0
   36.1220   29.2020   33.4440 H   0  0  0  0  0  0  0  0  0  0  0  0
   37.2420   28.4180   35.5370 H   0  0  0  0  0  0  0  0  0  0  0  0
   38.1920   25.9440   36.0180 C   0  0  0  0  0  0  0  0  0  0  0  0
   39.4380   25.4070   35.7430 F   0  0  0  0  0  0  0  0  0  0  0  0
   38.3490   26.9910   36.8860 F   0  0  0  0  0  0  0  0  0  0  0  0
   37.4740   24.9100   36.6040 F   0  0  0  0  0  0  0  0  0  0  0  0
  1  4  1  0  0  0  0
  1 16  1  0  0  0  0
  2  1  1  0  0  0  0
  3  1  1  0  0  0  0
  4  5  1  0  0  0  0
  5 10  1  0  0  0  0
  5  6  2  0  0  0  0
  6 11  1  0  0  0  0
  7 12  1  0  0  0  0
  7  6  1  0  0  0  0
  8  7  2  0  0  0  0
  9  8  1  0  0  0  0
  9  4  2  0  0  0  0
 13  8  1  0  0  0  0
 14  9  1  0  0  0  0
 15 16  2  0  0  0  0
 15 21  1  0  0  0  0
 17 18  1  0  0  0  0
 18 19  2  0  0  0  0
 18 24  1  0  0  0  0
 19 25  1  0  0  0  0
 20 19  1  0  0  0  0
 21 20  2  0  0  0  0
 22 21  1  0  0  0  0
 22 17  2  0  0  0  0
 23 17  1  0  0  0  0
 25 28  1  0  0  0  0
 25 27  1  0  0  0  0
 26 25  1  0  0  0  0
M  END
>  <minimizedAffinity>
-5.30144262

$$$$

 OpenBabel03272509063D

 28 29  0  0  0  0  0  0  0  0999 V2000
   35.5070   30.3500   33.4500 C   0  0  0  0  0  0  0  0  0  0  0  0
   36.3570   31.0240   33.2060 H   0  0  0  0  0  0  0  0  0  0  0  0
   34.7780   30.4720   32.6050 H   0  0  0  0  0  0  0  0  0  0  0  0
   34.9360   30.8300   34.7470 C   0  0  0  0  0  0  0  0  0  0  0  0
   35.6030   31.6110   35.6760 C   0  0  0  0  0  0  0  0  0  0  0  0
   34.9710   31.9970   36.8410 C   0  0  0  0  0  0  0  0  0  0  0  0
   33.6610   31.6160   37.1090 C   0  0  0  0  0  0  0  0  0  0  0  0
   32.9960   30.8460   36.1980 C   0  0  0  0  0  0  0  0  0  0  0  0
   33.6180   30.4550   35.0300 C   0  0  0  0  0  0  0  0  0  0  0  0
   36.6180   31.8660   35.3970 H   0  0  0  0  0  0  0  0  0  0  0  0
   35.6230   32.6060   37.4710 H   0  0  0  0  0  0  0  0  0  0  0  0
   33.2910   31.9880   38.0570 H   0  0  0  0  0  0  0  0  0  0  0  0
   31.9770   30.5710   36.4450 H   0  0  0  0  0  0  0  0  0  0  0  0
   32.9810   29.8450   34.3880 H   0  0  0  0  0  0  0  0  0  0  0  0
   36.6230   28.4060   34.5350 C   0  0  0  0  0  3  0  0  0  0  0  0
   36.0470   28.9860   33.5300 C   0  0  0  0  0  3  0  0  0  0  0  0
   37.5390   25.1730   33.0950 C   0  0  0  0  0  0  0  0  0  0  0  0
   37.9260   24.4420   34.2390 C   0  0  0  0  0  0  0  0  0  0  0  0
   37.8540   25.0940   35.4870 C   0  0  0  0  0  0  0  0  0  0  0  0
   37.4150   26.3980   35.5220 N   0  0  0  0  0  0  0  0  0  0  0  0
   37.0640   27.0280   34.3830 C   0  0  0  0  0  0  0  0  0  0  0  0
   37.1230   26.4240   33.1740 N   0  0  0  0  0  0  0  0  0  0  0  0
   37.6050   24.6450   32.1500 H   0  0  0  0  0  0  0  0  0  0  0  0
   38.2700   23.4270   34.2290 H   0  0  0  0  0  0  0  0  0  0  0  0
   38.2400   24.4020   36.7390 C   0  0  0  0  0  0  0  0  0  0  0  0
   37.4140   23.3220   37.0050 F   0  0  0  0  0  0  0  0  0  0  0  0
   39.5250   23.9490   36.6100 F   0  0  0  0  0  0  0  0  0  0  0  0
   38.1100   25.2360   37.8420 F   0  0  0  0  0  0  0  0  0  0  0  0
  1 16  1  0  0  0  0
  1  4  1  0  0  0  0
  2  1  1  0  0  0  0
  3  1  1  0  0  0  0
  4  9  2  0  0  0  0
  4  5  1  0  0  0  0
  5  6  2  0  0  0  0
  6  7  1  0  0  0  0
  6 11  1  0  0  0  0
  7 12  1  0  0  0  0
  8 13  1  0  0  0  0
  8  7  2  0  0  0  0
  9  8  1  0  0  0  0
 10  5  1  0  0  0  0
 14  9  1  0  0  0  0
 16 15  2  0  0  0  0
 17 22  2  0  0  0  0
 17 18  1  0  0  0  0
 18 19  2  0  0  0  0
 19 20  1  0  0  0  0
 19 25  1  0  0  0  0
 21 15  1  0  0  0  0
 21 20  2  0  0  0  0
 22 21  1  0  0  0  0
 23 17  1  0  0  0  0
 24 18  1  0  0  0  0
 25 26  1  0  0  0  0
 25 28  1  0  0  0  0
 27 25  1  0  0  0  0
M  END
>  <minimizedAffinity>
-5.24004889

$$$$

 OpenBabel03272509063D

 28 29  0  0  0  0  0  0  0  0999 V2000
   38.1230   26.8740   32.3070 C   0  0  0  0  0  0  0  0  0  0  0  0
   39.0120   27.4830   32.0330 H   0  0  0  0  0  0  0  0  0  0  0  0
   37.8070   26.3650   31.3590 H   0  0  0  0  0  0  0  0  0  0  0  0
   37.0810   27.8300   32.7960 C   0  0  0  0  0  0  0  0  0  0  0  0
   36.8010   28.0990   34.1250 C   0  0  0  0  0  0  0  0  0  0  0  0
   35.8150   29.0060   34.4570 C   0  0  0  0  0  0  0  0  0  0  0  0
   35.0860   29.6680   33.4760 C   0  0  0  0  0  0  0  0  0  0  0  0
   35.3560   29.4090   32.1620 C   0  0  0  0  0  0  0  0  0  0  0  0
   36.3400   28.5040   31.8190 C   0  0  0  0  0  0  0  0  0  0  0  0
   37.4090   27.5450   34.8290 H   0  0  0  0  0  0  0  0  0  0  0  0
   35.7110   29.1110   35.5390 H   0  0  0  0  0  0  0  0  0  0  0  0
   34.3460   30.3510   33.8770 H   0  0  0  0  0  0  0  0  0  0  0  0
   34.7660   29.9450   31.4290 H   0  0  0  0  0  0  0  0  0  0  0  0
   36.4580   28.3870   30.7410 H   0  0  0  0  0  0  0  0  0  0  0  0
   37.9020   24.9150   33.8300 C   0  0  0  0  0  3  0  0  0  0  0  0
   38.5550   25.9190   33.3380 C   0  0  0  0  0  3  0  0  0  0  0  0
   40.0580   22.4680   35.4810 C   0  0  0  0  0  0  0  0  0  0  0  0
   39.6970   22.6270   36.8360 C   0  0  0  0  0  0  0  0  0  0  0  0
   38.7070   23.5830   37.1410 C   0  0  0  0  0  0  0  0  0  0  0  0
   38.1500   24.3040   36.1100 N   0  0  0  0  0  0  0  0  0  0  0  0
   38.5500   24.0920   34.8390 C   0  0  0  0  0  0  0  0  0  0  0  0
   39.4980   23.1800   34.5210 N   0  0  0  0  0  0  0  0  0  0  0  0
   40.8220   21.7250   35.2770 H   0  0  0  0  0  0  0  0  0  0  0  0
   40.1200   22.0740   37.6520 H   0  0  0  0  0  0  0  0  0  0  0  0
   38.2670   23.8140   38.5370 C   0  0  0  0  0  0  0  0  0  0  0  0
   37.7290   25.0800   38.7040 F   0  0  0  0  0  0  0  0  0  0  0  0
   37.3100   22.8880   38.8530 F   0  0  0  0  0  0  0  0  0  0  0  0
   39.3340   23.7560   39.4240 F   0  0  0  0  0  0  0  0  0  0  0  0
  1  4  1  0  0  0  0
  1 16  1  0  0  0  0
  2  1  1  0  0  0  0
  3  1  1  0  0  0  0
  4  5  1  0  0  0  0
  5  6  2  0  0  0  0
  5 10  1  0  0  0  0
  6 11  1  0  0  0  0
  7 12  1  0  0  0  0
  7  6  1  0  0  0  0
  8  7  2  0  0  0  0
  9  8  1  0  0  0  0
  9  4  2  0  0  0  0
 13  8  1  0  0  0  0
 14  9  1  0  0  0  0
 15 21  1  0  0  0  0
 16 15  2  0  0  0  0
 17 18  1  0  0  0  0
 18 19  2  0  0  0  0
 18 24  1  0  0  0  0
 19 25  1  0  0  0  0
 20 19  1  0  0  0  0
 21 20  2  0  0  0  0
 22 21  1  0  0  0  0
 22 17  2  0  0  0  0
 23 17  1  0  0  0  0
 25 26  1  0  0  0  0
 25 27  1  0  0  0  0
 25 28  1  0  0  0  0
M  END
>  <minimizedAffinity>
-5.20956993

$$$$

 OpenBabel03272509063D

 28 29  0  0  0  0  0  0  0  0999 V2000
   36.3240   28.0670   33.2740 C   0  0  0  0  0  0  0  0  0  0  0  0
   35.6870   27.1670   33.1340 H   0  0  0  0  0  0  0  0  0  0  0  0
   36.4120   28.5310   32.2570 H   0  0  0  0  0  0  0  0  0  0  0  0
   37.6470   27.5820   33.7780 C   0  0  0  0  0  0  0  0  0  0  0  0
   38.7240   27.2220   32.9870 C   0  0  0  0  0  0  0  0  0  0  0  0
   39.8990   26.7890   33.5670 C   0  0  0  0  0  0  0  0  0  0  0  0
   40.0320   26.7070   34.9480 C   0  0  0  0  0  0  0  0  0  0  0  0
   38.9740   27.0610   35.7370 C   0  0  0  0  0  0  0  0  0  0  0  0
   37.7950   27.4940   35.1680 C   0  0  0  0  0  0  0  0  0  0  0  0
   38.5440   27.3120   31.9230 H   0  0  0  0  0  0  0  0  0  0  0  0
   40.6530   26.5420   32.8160 H   0  0  0  0  0  0  0  0  0  0  0  0
   41.0050   26.3540   35.2660 H   0  0  0  0  0  0  0  0  0  0  0  0
   39.1180   26.9820   36.8080 H   0  0  0  0  0  0  0  0  0  0  0  0
   37.0300   27.7460   35.9030 H   0  0  0  0  0  0  0  0  0  0  0  0
   35.6590   30.2340   34.3060 C   0  0  0  0  0  3  0  0  0  0  0  0
   35.6310   28.9410   34.2300 C   0  0  0  0  0  3  0  0  0  0  0  0
   34.6290   32.3790   37.0810 C   0  0  0  0  0  0  0  0  0  0  0  0
   33.2650   32.0450   37.2190 C   0  0  0  0  0  0  0  0  0  0  0  0
   32.7360   31.0770   36.3410 C   0  0  0  0  0  0  0  0  0  0  0  0
   33.5730   30.5130   35.4050 N   0  0  0  0  0  0  0  0  0  0  0  0
   34.8680   30.8870   35.3380 C   0  0  0  0  0  0  0  0  0  0  0  0
   35.3970   31.8130   36.1690 N   0  0  0  0  0  0  0  0  0  0  0  0
   35.0060   33.1270   37.7710 H   0  0  0  0  0  0  0  0  0  0  0  0
   32.5990   32.4740   37.9420 H   0  0  0  0  0  0  0  0  0  0  0  0
   31.3140   30.6660   36.4150 C   0  0  0  0  0  0  0  0  0  0  0  0
   30.5110   31.6780   36.9130 F   0  0  0  0  0  0  0  0  0  0  0  0
   30.8860   30.3470   35.1550 F   0  0  0  0  0  0  0  0  0  0  0  0
   31.1380   29.6010   37.2900 F   0  0  0  0  0  0  0  0  0  0  0  0
  1  4  1  0  0  0  0
  1 16  1  0  0  0  0
  2  1  1  0  0  0  0
  3  1  1  0  0  0  0
  4  9  1  0  0  0  0
  5  6  1  0  0  0  0
  5  4  2  0  0  0  0
  6  7  2  0  0  0  0
  7 12  1  0  0  0  0
  7  8  1  0  0  0  0
  8 13  1  0  0  0  0
  9  8  2  0  0  0  0
  9 14  1  0  0  0  0
 10  5  1  0  0  0  0
 11  6  1  0  0  0  0
 15 21  1  0  0  0  0
 16 15  2  0  0  0  0
 17 18  1  0  0  0  0
 17 23  1  0  0  0  0
 18 24  1  0  0  0  0
 19 25  1  0  0  0  0
 19 18  2  0  0  0  0
 20 19  1  0  0  0  0
 21 20  2  0  0  0  0
 21 22  1  0  0  0  0
 22 17  2  0  0  0  0
 25 26  1  0  0  0  0
 25 28  1  0  0  0  0
 27 25  1  0  0  0  0
M  END
>  <minimizedAffinity>
-5.13423204

$$$$

 OpenBabel03272509063D

 28 29  0  0  0  0  0  0  0  0999 V2000
   35.8480   22.7420   31.2050 C   0  0  0  0  0  0  0  0  0  0  0  0
   34.8010   23.1130   31.2450 H   0  0  0  0  0  0  0  0  0  0  0  0
   36.1770   22.8920   30.1440 H   0  0  0  0  0  0  0  0  0  0  0  0
   35.8040   21.2920   31.5730 C   0  0  0  0  0  0  0  0  0  0  0  0
   35.3150   20.7810   32.7630 C   0  0  0  0  0  0  0  0  0  0  0  0
   35.3230   19.4200   32.9900 C   0  0  0  0  0  0  0  0  0  0  0  0
   35.8160   18.5340   32.0390 C   0  0  0  0  0  0  0  0  0  0  0  0
   36.3010   19.0300   30.8610 C   0  0  0  0  0  0  0  0  0  0  0  0
   36.2970   20.3890   30.6240 C   0  0  0  0  0  0  0  0  0  0  0  0
   34.9490   21.5320   33.4520 H   0  0  0  0  0  0  0  0  0  0  0  0
   34.9070   19.1710   33.9690 H   0  0  0  0  0  0  0  0  0  0  0  0
   35.7620   17.4970   32.3470 H   0  0  0  0  0  0  0  0  0  0  0  0
   36.6760   18.3070   30.1460 H   0  0  0  0  0  0  0  0  0  0  0  0
   36.7090   20.6560   29.6500 H   0  0  0  0  0  0  0  0  0  0  0  0
   37.1660   24.7140   31.9670 C   0  0  0  0  0  3  0  0  0  0  0  0
   36.6280   23.5510   32.1530 C   0  0  0  0  0  3  0  0  0  0  0  0
   39.2010   27.0040   33.9610 C   0  0  0  0  0  0  0  0  0  0  0  0
   39.1710   26.3920   35.2320 C   0  0  0  0  0  0  0  0  0  0  0  0
   38.4420   25.1920   35.3630 C   0  0  0  0  0  0  0  0  0  0  0  0
   37.8060   24.6860   34.2530 N   0  0  0  0  0  0  0  0  0  0  0  0
   37.8830   25.3320   33.0710 C   0  0  0  0  0  0  0  0  0  0  0  0
   38.5760   26.4840   32.9210 N   0  0  0  0  0  0  0  0  0  0  0  0
   39.7690   27.9260   33.8920 H   0  0  0  0  0  0  0  0  0  0  0  0
   39.6610   26.7720   36.1070 H   0  0  0  0  0  0  0  0  0  0  0  0
   38.3580   24.4810   36.6610 C   0  0  0  0  0  0  0  0  0  0  0  0
   37.2810   23.6120   36.7030 F   0  0  0  0  0  0  0  0  0  0  0  0
   39.5080   23.7620   36.8400 F   0  0  0  0  0  0  0  0  0  0  0  0
   38.1490   25.3650   37.7120 F   0  0  0  0  0  0  0  0  0  0  0  0
  1  2  1  0  0  0  0
  1  4  1  0  0  0  0
  1 16  1  0  0  0  0
  3  1  1  0  0  0  0
  4  5  1  0  0  0  0
  5  6  2  0  0  0  0
  5 10  1  0  0  0  0
  6 11  1  0  0  0  0
  7 12  1  0  0  0  0
  7  6  1  0  0  0  0
  8  7  2  0  0  0  0
  9  8  1  0  0  0  0
  9  4  2  0  0  0  0
 13  8  1  0  0  0  0
 14  9  1  0  0  0  0
 15 16  2  0  0  0  0
 15 21  1  0  0  0  0
 17 18  1  0  0  0  0
 18 19  2  0  0  0  0
 18 24  1  0  0  0  0
 19 25  1  0  0  0  0
 20 19  1  0  0  0  0
 21 20  2  0  0  0  0
 22 21  1  0  0  0  0
 22 17  2  0  0  0  0
 23 17  1  0  0  0  0
 25 26  1  0  0  0  0
 25 27  1  0  0  0  0
 25 28  1  0  0  0  0
M  END
>  <minimizedAffinity>
-5.03162432

$$$$
