
 OpenBabel03272504363D

 38 40  0  0  0  0  0  0  0  0999 V2000
   38.0160   20.7020   32.3750 C   0  0  0  0  0  0  0  0  0  0  0  0
   39.3020   20.3590   32.0190 C   0  0  0  0  0  0  0  0  0  0  0  0
   40.3720   21.0310   32.6020 C   0  0  0  0  0  0  0  0  0  0  0  0
   40.0940   22.0090   33.5080 N   0  0  0  0  0  0  0  0  0  0  0  0
   38.8070   22.3160   33.8300 C   0  0  0  0  0  0  0  0  0  0  0  0
   37.7730   21.6760   33.2770 N   0  0  0  0  0  0  0  0  0  0  0  0
   39.4880   19.5920   31.3100 H   0  0  0  0  0  0  0  0  0  0  0  0
   41.4050   20.8060   32.3630 H   0  0  0  0  0  0  0  0  0  0  0  0
   36.8720   20.0530   31.8170 N   0  0  0  0  0  0  0  0  0  0  0  0
   35.6510   20.7680   31.4720 C   0  0  0  0  0  0  0  0  0  0  0  0
   34.3970   20.0860   31.8880 C   0  0  0  0  0  0  0  0  0  0  0  0
   34.4110   18.6800   31.9130 N   0  0  0  0  0  0  0  0  0  0  0  0
   35.6530   18.1340   32.4400 C   0  0  0  0  0  0  0  0  0  0  0  0
   36.7190   18.6740   31.5100 C   0  0  0  0  0  0  0  0  0  0  0  0
   35.7170   21.7990   31.8540 H   0  0  0  0  0  0  0  0  0  0  0  0
   35.6600   20.8620   30.3550 H   0  0  0  0  0  0  0  0  0  0  0  0
   34.1000   20.4700   32.8860 H   0  0  0  0  0  0  0  0  0  0  0  0
   33.5800   20.4380   31.2000 H   0  0  0  0  0  0  0  0  0  0  0  0
   34.3590   18.3380   30.9110 H   0  0  0  0  0  0  0  0  0  0  0  0
   35.8120   18.6290   33.4200 H   0  0  0  0  0  0  0  0  0  0  0  0
   35.6270   17.0410   32.4840 H   0  0  0  0  0  0  0  0  0  0  0  0
   37.6340   18.0510   31.7280 H   0  0  0  0  0  0  0  0  0  0  0  0
   36.3680   18.4940   30.4740 H   0  0  0  0  0  0  0  0  0  0  0  0
   38.5600   23.3730   34.8090 C   0  0  0  0  0  0  0  0  0  0  0  0
   38.3710   24.6700   34.3850 C   0  0  0  0  0  0  0  0  0  0  0  0
   38.1340   25.7090   35.2800 C   0  0  0  0  0  0  0  0  0  0  0  0
   38.0980   25.3730   36.5970 N   0  0  0  0  0  0  0  0  0  0  0  0
   38.2850   24.0990   36.9900 C   0  0  0  0  0  0  0  0  0  0  0  0
   38.5170   23.0870   36.1110 N   0  0  0  0  0  0  0  0  0  0  0  0
   38.3950   24.9640   33.3410 H   0  0  0  0  0  0  0  0  0  0  0  0
   38.2400   23.7640   38.4380 C   0  0  0  0  0  0  0  0  0  0  0  0
   37.2880   22.8030   38.6940 F   0  0  0  0  0  0  0  0  0  0  0  0
   37.8780   24.9350   39.1320 F   0  0  0  0  0  0  0  0  0  0  0  0
   39.4960   23.4300   38.8700 F   0  0  0  0  0  0  0  0  0  0  0  0
   37.9300   27.1030   34.8390 C   0  0  0  0  0  0  0  0  0  0  0  0
   38.4900   27.3150   33.5980 F   0  0  0  0  0  0  0  0  0  0  0  0
   36.5810   27.3820   34.8550 F   0  0  0  0  0  0  0  0  0  0  0  0
   38.5200   27.9760   35.7350 F   0  0  0  0  0  0  0  0  0  0  0  0
  1  6  1  0  0  0  0
  2  1  2  0  0  0  0
  2  3  1  0  0  0  0
  3  4  2  0  0  0  0
  4  5  1  0  0  0  0
  5 24  1  0  0  0  0
  6  5  2  0  0  0  0
  7  2  1  0  0  0  0
  8  3  1  0  0  0  0
  9  1  1  0  0  0  0
 10  9  1  0  0  0  0
 10 15  1  0  0  0  0
 10 11  1  0  0  0  0
 11 12  1  0  0  0  0
 11 17  1  0  0  0  0
 12 13  1  0  0  0  0
 13 21  1  0  0  0  0
 13 20  1  0  0  0  0
 14 22  1  0  0  0  0
 14  9  1  0  0  0  0
 14 13  1  0  0  0  0
 16 10  1  0  0  0  0
 18 11  1  0  0  0  0
 19 12  1  0  0  0  0
 23 14  1  0  0  0  0
 24 29  1  0  0  0  0
 25 24  2  0  0  0  0
 25 26  1  0  0  0  0
 26 27  2  0  0  0  0
 27 28  1  0  0  0  0
 28 31  1  0  0  0  0
 29 28  2  0  0  0  0
 30 25  1  0  0  0  0
 31 32  1  0  0  0  0
 31 34  1  0  0  0  0
 31 33  1  0  0  0  0
 35 37  1  0  0  0  0
 35 26  1  0  0  0  0
 35 38  1  0  0  0  0
 36 35  1  0  0  0  0
M  END
>  <minimizedAffinity>
-6.73630524

$$$$

 OpenBabel03272504363D

 38 40  0  0  0  0  0  0  0  0999 V2000
   38.0090   20.7040   32.3690 C   0  0  0  0  0  0  0  0  0  0  0  0
   39.2920   20.3420   32.0180 C   0  0  0  0  0  0  0  0  0  0  0  0
   40.3700   21.0040   32.5960 C   0  0  0  0  0  0  0  0  0  0  0  0
   40.1030   21.9940   33.4920 N   0  0  0  0  0  0  0  0  0  0  0  0
   38.8190   22.3210   33.8090 C   0  0  0  0  0  0  0  0  0  0  0  0
   37.7780   21.6900   33.2610 N   0  0  0  0  0  0  0  0  0  0  0  0
   39.4690   19.5650   31.3150 H   0  0  0  0  0  0  0  0  0  0  0  0
   41.3990   20.7640   32.3600 H   0  0  0  0  0  0  0  0  0  0  0  0
   36.8580   20.0650   31.8140 N   0  0  0  0  0  0  0  0  0  0  0  0
   35.6320   20.7860   31.5000 C   0  0  0  0  0  0  0  0  0  0  0  0
   34.3840   20.0960   31.9200 C   0  0  0  0  0  0  0  0  0  0  0  0
   34.3990   18.6900   31.9200 N   0  0  0  0  0  0  0  0  0  0  0  0
   35.6480   18.1350   32.4200 C   0  0  0  0  0  0  0  0  0  0  0  0
   36.7010   18.6920   31.4850 C   0  0  0  0  0  0  0  0  0  0  0  0
   35.7030   21.8090   31.8990 H   0  0  0  0  0  0  0  0  0  0  0  0
   35.6250   20.8990   30.3840 H   0  0  0  0  0  0  0  0  0  0  0  0
   34.1010   20.4610   32.9290 H   0  0  0  0  0  0  0  0  0  0  0  0
   33.5580   20.4600   31.2500 H   0  0  0  0  0  0  0  0  0  0  0  0
   34.3330   18.3650   30.9130 H   0  0  0  0  0  0  0  0  0  0  0  0
   35.8200   18.6120   33.4060 H   0  0  0  0  0  0  0  0  0  0  0  0
   35.6230   17.0410   32.4450 H   0  0  0  0  0  0  0  0  0  0  0  0
   37.6190   18.0650   31.6790 H   0  0  0  0  0  0  0  0  0  0  0  0
   36.3360   18.5300   30.4510 H   0  0  0  0  0  0  0  0  0  0  0  0
   38.5840   23.3900   34.7780 C   0  0  0  0  0  0  0  0  0  0  0  0
   38.5540   23.1020   36.1240 C   0  0  0  0  0  0  0  0  0  0  0  0
   38.3330   24.0860   37.0830 C   0  0  0  0  0  0  0  0  0  0  0  0
   38.1490   25.3500   36.6160 N   0  0  0  0  0  0  0  0  0  0  0  0
   38.1820   25.6110   35.2960 C   0  0  0  0  0  0  0  0  0  0  0  0
   38.3980   24.6440   34.3630 N   0  0  0  0  0  0  0  0  0  0  0  0
   38.6980   22.1020   36.5230 H   0  0  0  0  0  0  0  0  0  0  0  0
   37.9770   27.0030   34.8180 C   0  0  0  0  0  0  0  0  0  0  0  0
   36.6650   27.2150   34.4600 F   0  0  0  0  0  0  0  0  0  0  0  0
   38.7770   27.1800   33.6710 F   0  0  0  0  0  0  0  0  0  0  0  0
   38.4460   27.8840   35.7560 F   0  0  0  0  0  0  0  0  0  0  0  0
   38.2980   23.7910   38.5280 C   0  0  0  0  0  0  0  0  0  0  0  0
   39.5350   23.3840   38.9790 F   0  0  0  0  0  0  0  0  0  0  0  0
   37.8410   24.9040   39.2000 F   0  0  0  0  0  0  0  0  0  0  0  0
   37.3890   22.7800   38.7860 F   0  0  0  0  0  0  0  0  0  0  0  0
  1  6  1  0  0  0  0
  2  1  2  0  0  0  0
  2  3  1  0  0  0  0
  3  4  2  0  0  0  0
  4  5  1  0  0  0  0
  5 24  1  0  0  0  0
  6  5  2  0  0  0  0
  7  2  1  0  0  0  0
  8  3  1  0  0  0  0
  9  1  1  0  0  0  0
 10  9  1  0  0  0  0
 10 15  1  0  0  0  0
 10 11  1  0  0  0  0
 11 12  1  0  0  0  0
 11 17  1  0  0  0  0
 12 13  1  0  0  0  0
 13 21  1  0  0  0  0
 13 20  1  0  0  0  0
 14 22  1  0  0  0  0
 14  9  1  0  0  0  0
 14 13  1  0  0  0  0
 16 10  1  0  0  0  0
 18 11  1  0  0  0  0
 19 12  1  0  0  0  0
 23 14  1  0  0  0  0
 24 25  1  0  0  0  0
 25 30  1  0  0  0  0
 25 26  2  0  0  0  0
 26 35  1  0  0  0  0
 27 26  1  0  0  0  0
 28 27  2  0  0  0  0
 29 24  2  0  0  0  0
 29 28  1  0  0  0  0
 31 28  1  0  0  0  0
 31 34  1  0  0  0  0
 32 31  1  0  0  0  0
 33 31  1  0  0  0  0
 35 38  1  0  0  0  0
 35 36  1  0  0  0  0
 35 37  1  0  0  0  0
M  END
>  <minimizedAffinity>
-6.69140291

$$$$

 OpenBabel03272504363D

 38 40  0  0  0  0  0  0  0  0999 V2000
   36.7070   22.2620   32.0900 C   0  0  0  0  0  0  0  0  0  0  0  0
   36.6040   23.4970   31.4880 C   0  0  0  0  0  0  0  0  0  0  0  0
   37.2100   24.5990   32.0830 C   0  0  0  0  0  0  0  0  0  0  0  0
   37.8840   24.4030   33.2490 N   0  0  0  0  0  0  0  0  0  0  0  0
   37.9610   23.1640   33.8110 C   0  0  0  0  0  0  0  0  0  0  0  0
   37.3840   22.1000   33.2470 N   0  0  0  0  0  0  0  0  0  0  0  0
   36.0710   23.6200   30.5770 H   0  0  0  0  0  0  0  0  0  0  0  0
   37.1630   25.5940   31.6570 H   0  0  0  0  0  0  0  0  0  0  0  0
   36.1100   21.0900   31.5330 N   0  0  0  0  0  0  0  0  0  0  0  0
   34.8400   20.5530   32.0030 C   0  0  0  0  0  0  0  0  0  0  0  0
   34.8200   19.0770   32.1790 C   0  0  0  0  0  0  0  0  0  0  0  0
   35.6350   18.3190   31.3200 N   0  0  0  0  0  0  0  0  0  0  0  0
   36.9360   18.9280   31.0860 C   0  0  0  0  0  0  0  0  0  0  0  0
   36.6100   20.2770   30.4810 C   0  0  0  0  0  0  0  0  0  0  0  0
   34.5370   21.0910   32.9150 H   0  0  0  0  0  0  0  0  0  0  0  0
   34.0850   20.8360   31.2240 H   0  0  0  0  0  0  0  0  0  0  0  0
   35.0780   18.8430   33.2330 H   0  0  0  0  0  0  0  0  0  0  0  0
   33.7520   18.7410   32.0730 H   0  0  0  0  0  0  0  0  0  0  0  0
   35.1650   18.2920   30.3690 H   0  0  0  0  0  0  0  0  0  0  0  0
   37.3620   19.1290   32.0900 H   0  0  0  0  0  0  0  0  0  0  0  0
   37.5650   18.3030   30.4450 H   0  0  0  0  0  0  0  0  0  0  0  0
   37.5850   20.6400   30.0440 H   0  0  0  0  0  0  0  0  0  0  0  0
   35.8700   20.1010   29.6750 H   0  0  0  0  0  0  0  0  0  0  0  0
   38.6970   23.0040   35.0640 C   0  0  0  0  0  0  0  0  0  0  0  0
   39.9290   22.3880   35.0610 C   0  0  0  0  0  0  0  0  0  0  0  0
   40.6660   22.2130   36.2290 C   0  0  0  0  0  0  0  0  0  0  0  0
   40.1020   22.6840   37.3730 N   0  0  0  0  0  0  0  0  0  0  0  0
   38.8970   23.2830   37.3540 C   0  0  0  0  0  0  0  0  0  0  0  0
   38.1800   23.4510   36.2090 N   0  0  0  0  0  0  0  0  0  0  0  0
   40.4010   22.0040   34.1630 H   0  0  0  0  0  0  0  0  0  0  0  0
   38.3080   23.7860   38.6220 C   0  0  0  0  0  0  0  0  0  0  0  0
   37.8700   25.0840   38.4830 F   0  0  0  0  0  0  0  0  0  0  0  0
   39.3250   23.7690   39.5980 F   0  0  0  0  0  0  0  0  0  0  0  0
   37.3410   22.9180   39.0550 F   0  0  0  0  0  0  0  0  0  0  0  0
   41.9870   21.5550   36.2400 C   0  0  0  0  0  0  0  0  0  0  0  0
   42.2140   20.8830   35.0580 F   0  0  0  0  0  0  0  0  0  0  0  0
   42.9550   22.5030   36.4920 F   0  0  0  0  0  0  0  0  0  0  0  0
   42.0560   20.6420   37.2770 F   0  0  0  0  0  0  0  0  0  0  0  0
  1  6  1  0  0  0  0
  2  3  1  0  0  0  0
  2  1  2  0  0  0  0
  3  4  2  0  0  0  0
  4  5  1  0  0  0  0
  5 24  1  0  0  0  0
  6  5  2  0  0  0  0
  7  2  1  0  0  0  0
  8  3  1  0  0  0  0
  9 10  1  0  0  0  0
  9  1  1  0  0  0  0
 10 11  1  0  0  0  0
 10 15  1  0  0  0  0
 11 17  1  0  0  0  0
 12 11  1  0  0  0  0
 13 12  1  0  0  0  0
 13 20  1  0  0  0  0
 14 13  1  0  0  0  0
 14  9  1  0  0  0  0
 16 10  1  0  0  0  0
 18 11  1  0  0  0  0
 19 12  1  0  0  0  0
 21 13  1  0  0  0  0
 22 14  1  0  0  0  0
 23 14  1  0  0  0  0
 24 29  1  0  0  0  0
 25 24  2  0  0  0  0
 25 26  1  0  0  0  0
 26 35  1  0  0  0  0
 26 27  2  0  0  0  0
 28 27  1  0  0  0  0
 28 31  1  0  0  0  0
 29 28  2  0  0  0  0
 30 25  1  0  0  0  0
 31 34  1  0  0  0  0
 31 33  1  0  0  0  0
 32 31  1  0  0  0  0
 35 37  1  0  0  0  0
 35 38  1  0  0  0  0
 36 35  1  0  0  0  0
M  END
>  <minimizedAffinity>
-6.36192656

$$$$

 OpenBabel03272504363D

 38 40  0  0  0  0  0  0  0  0999 V2000
   37.2470   21.8840   32.1260 C   0  0  0  0  0  0  0  0  0  0  0  0
   37.5390   22.9390   31.2890 C   0  0  0  0  0  0  0  0  0  0  0  0
   38.4060   23.9350   31.7250 C   0  0  0  0  0  0  0  0  0  0  0  0
   38.9320   23.8200   32.9750 N   0  0  0  0  0  0  0  0  0  0  0  0
   38.6160   22.7610   33.7710 C   0  0  0  0  0  0  0  0  0  0  0  0
   37.7860   21.7980   33.3610 N   0  0  0  0  0  0  0  0  0  0  0  0
   37.1130   23.0020   30.3180 H   0  0  0  0  0  0  0  0  0  0  0  0
   38.6730   24.7890   31.1130 H   0  0  0  0  0  0  0  0  0  0  0  0
   36.3660   20.8270   31.7420 N   0  0  0  0  0  0  0  0  0  0  0  0
   35.3530   20.2820   32.6360 C   0  0  0  0  0  0  0  0  0  0  0  0
   35.2660   18.7980   32.6390 C   0  0  0  0  0  0  0  0  0  0  0  0
   35.5820   18.1360   31.4390 N   0  0  0  0  0  0  0  0  0  0  0  0
   36.7260   18.7190   30.7530 C   0  0  0  0  0  0  0  0  0  0  0  0
   36.3120   20.1510   30.4940 C   0  0  0  0  0  0  0  0  0  0  0  0
   35.5030   20.6970   33.6450 H   0  0  0  0  0  0  0  0  0  0  0  0
   34.3770   20.7020   32.2800 H   0  0  0  0  0  0  0  0  0  0  0  0
   35.9080   18.4070   33.4550 H   0  0  0  0  0  0  0  0  0  0  0  0
   34.2210   18.5240   32.9510 H   0  0  0  0  0  0  0  0  0  0  0  0
   34.7650   18.2620   30.7750 H   0  0  0  0  0  0  0  0  0  0  0  0
   37.5420   18.7590   31.5030 H   0  0  0  0  0  0  0  0  0  0  0  0
   36.9760   18.1650   29.8430 H   0  0  0  0  0  0  0  0  0  0  0  0
   37.0530   20.5320   29.7330 H   0  0  0  0  0  0  0  0  0  0  0  0
   35.2940   20.1210   30.0560 H   0  0  0  0  0  0  0  0  0  0  0  0
   39.2080   22.6810   35.1050 C   0  0  0  0  0  0  0  0  0  0  0  0
   38.5340   23.2040   36.1860 C   0  0  0  0  0  0  0  0  0  0  0  0
   39.0570   23.1520   37.4750 C   0  0  0  0  0  0  0  0  0  0  0  0
   40.2730   22.5560   37.6070 N   0  0  0  0  0  0  0  0  0  0  0  0
   40.9150   22.0520   36.5370 C   0  0  0  0  0  0  0  0  0  0  0  0
   40.3980   22.1060   35.2790 N   0  0  0  0  0  0  0  0  0  0  0  0
   37.5640   23.6840   36.1080 H   0  0  0  0  0  0  0  0  0  0  0  0
   42.2430   21.4070   36.7150 C   0  0  0  0  0  0  0  0  0  0  0  0
   43.2440   22.3490   36.7840 F   0  0  0  0  0  0  0  0  0  0  0  0
   42.4770   20.6010   35.5830 F   0  0  0  0  0  0  0  0  0  0  0  0
   42.2010   20.5610   37.7910 F   0  0  0  0  0  0  0  0  0  0  0  0
   38.3460   23.7080   38.6420 C   0  0  0  0  0  0  0  0  0  0  0  0
   37.2820   22.9080   38.9990 F   0  0  0  0  0  0  0  0  0  0  0  0
   39.2430   23.8690   39.6760 F   0  0  0  0  0  0  0  0  0  0  0  0
   37.8600   24.9690   38.3480 F   0  0  0  0  0  0  0  0  0  0  0  0
  1  6  1  0  0  0  0
  2  3  1  0  0  0  0
  2  1  2  0  0  0  0
  3  4  2  0  0  0  0
  4  5  1  0  0  0  0
  5 24  1  0  0  0  0
  6  5  2  0  0  0  0
  7  2  1  0  0  0  0
  8  3  1  0  0  0  0
  9  1  1  0  0  0  0
  9 10  1  0  0  0  0
 10 11  1  0  0  0  0
 10 15  1  0  0  0  0
 11 18  1  0  0  0  0
 11 17  1  0  0  0  0
 12 11  1  0  0  0  0
 13 12  1  0  0  0  0
 13 20  1  0  0  0  0
 14 13  1  0  0  0  0
 14  9  1  0  0  0  0
 16 10  1  0  0  0  0
 19 12  1  0  0  0  0
 21 13  1  0  0  0  0
 22 14  1  0  0  0  0
 23 14  1  0  0  0  0
 24 29  2  0  0  0  0
 24 25  1  0  0  0  0
 25 26  2  0  0  0  0
 26 27  1  0  0  0  0
 26 35  1  0  0  0  0
 28 31  1  0  0  0  0
 28 27  2  0  0  0  0
 29 28  1  0  0  0  0
 30 25  1  0  0  0  0
 31 32  1  0  0  0  0
 31 34  1  0  0  0  0
 33 31  1  0  0  0  0
 35 36  1  0  0  0  0
 35 37  1  0  0  0  0
 38 35  1  0  0  0  0
M  END
>  <minimizedAffinity>
-6.35015059

$$$$

 OpenBabel03272504363D

 38 40  0  0  0  0  0  0  0  0999 V2000
   38.1830   24.3740   34.8120 C   0  0  0  0  0  0  0  0  0  0  0  0
   38.0080   23.3350   33.9240 C   0  0  0  0  0  0  0  0  0  0  0  0
   37.4630   23.5940   32.6710 C   0  0  0  0  0  0  0  0  0  0  0  0
   37.1230   24.8790   32.3770 N   0  0  0  0  0  0  0  0  0  0  0  0
   37.3130   25.8760   33.2850 C   0  0  0  0  0  0  0  0  0  0  0  0
   37.8360   25.6390   34.4900 N   0  0  0  0  0  0  0  0  0  0  0  0
   38.2830   22.3420   34.1820 H   0  0  0  0  0  0  0  0  0  0  0  0
   37.3020   22.8190   31.9310 H   0  0  0  0  0  0  0  0  0  0  0  0
   38.7370   24.1790   36.1140 N   0  0  0  0  0  0  0  0  0  0  0  0
   40.0120   23.5100   36.3360 C   0  0  0  0  0  0  0  0  0  0  0  0
   40.0090   22.5290   37.4530 C   0  0  0  0  0  0  0  0  0  0  0  0
   39.1500   22.7930   38.5350 N   0  0  0  0  0  0  0  0  0  0  0  0
   37.8530   23.3070   38.1180 C   0  0  0  0  0  0  0  0  0  0  0  0
   38.1840   24.5760   37.3610 C   0  0  0  0  0  0  0  0  0  0  0  0
   40.3570   23.0690   35.3880 H   0  0  0  0  0  0  0  0  0  0  0  0
   40.7450   24.3250   36.5720 H   0  0  0  0  0  0  0  0  0  0  0  0
   39.7830   21.5240   37.0400 H   0  0  0  0  0  0  0  0  0  0  0  0
   41.0650   22.4450   37.8280 H   0  0  0  0  0  0  0  0  0  0  0  0
   39.5850   23.5690   39.1120 H   0  0  0  0  0  0  0  0  0  0  0  0
   37.4670   22.5870   37.3680 H   0  0  0  0  0  0  0  0  0  0  0  0
   37.1900   23.4700   38.9730 H   0  0  0  0  0  0  0  0  0  0  0  0
   37.2020   25.1240   37.2740 H   0  0  0  0  0  0  0  0  0  0  0  0
   38.8930   25.1530   37.9890 H   0  0  0  0  0  0  0  0  0  0  0  0
   36.9330   27.2400   32.9210 C   0  0  0  0  0  0  0  0  0  0  0  0
   36.3420   28.0600   33.8570 C   0  0  0  0  0  0  0  0  0  0  0  0
   35.9630   29.3650   33.5580 C   0  0  0  0  0  0  0  0  0  0  0  0
   36.2070   29.7870   32.2880 N   0  0  0  0  0  0  0  0  0  0  0  0
   36.7850   28.9690   31.3880 C   0  0  0  0  0  0  0  0  0  0  0  0
   37.1540   27.6930   31.6860 N   0  0  0  0  0  0  0  0  0  0  0  0
   36.1360   27.7490   34.8770 H   0  0  0  0  0  0  0  0  0  0  0  0
   37.0380   29.4590   30.0080 C   0  0  0  0  0  0  0  0  0  0  0  0
   36.8510   28.4560   29.0840 F   0  0  0  0  0  0  0  0  0  0  0  0
   38.3860   29.8670   29.9440 F   0  0  0  0  0  0  0  0  0  0  0  0
   36.2840   30.5780   29.7730 F   0  0  0  0  0  0  0  0  0  0  0  0
   35.3300   30.2550   34.5510 C   0  0  0  0  0  0  0  0  0  0  0  0
   34.1420   29.7230   35.0030 F   0  0  0  0  0  0  0  0  0  0  0  0
   36.2210   30.4810   35.5780 F   0  0  0  0  0  0  0  0  0  0  0  0
   35.0650   31.4890   33.9850 F   0  0  0  0  0  0  0  0  0  0  0  0
  1  9  1  0  0  0  0
  2  7  1  0  0  0  0
  2  1  2  0  0  0  0
  3  2  1  0  0  0  0
  4  3  2  0  0  0  0
  4  5  1  0  0  0  0
  5  6  2  0  0  0  0
  6  1  1  0  0  0  0
  8  3  1  0  0  0  0
  9 10  1  0  0  0  0
  9 14  1  0  0  0  0
 10 16  1  0  0  0  0
 10 11  1  0  0  0  0
 11 18  1  0  0  0  0
 11 12  1  0  0  0  0
 12 19  1  0  0  0  0
 13 12  1  0  0  0  0
 13 21  1  0  0  0  0
 14 23  1  0  0  0  0
 14 13  1  0  0  0  0
 15 10  1  0  0  0  0
 17 11  1  0  0  0  0
 20 13  1  0  0  0  0
 22 14  1  0  0  0  0
 24  5  1  0  0  0  0
 24 25  1  0  0  0  0
 25 30  1  0  0  0  0
 26 25  2  0  0  0  0
 26 35  1  0  0  0  0
 27 26  1  0  0  0  0
 28 29  1  0  0  0  0
 28 27  2  0  0  0  0
 29 24  2  0  0  0  0
 31 28  1  0  0  0  0
 32 31  1  0  0  0  0
 33 31  1  0  0  0  0
 34 31  1  0  0  0  0
 35 36  1  0  0  0  0
 35 37  1  0  0  0  0
 38 35  1  0  0  0  0
M  END
>  <minimizedAffinity>
-6.22404051

$$$$

 OpenBabel03272504363D

 38 40  0  0  0  0  0  0  0  0999 V2000
   38.1770   24.3520   34.7730 C   0  0  0  0  0  0  0  0  0  0  0  0
   37.9860   23.3040   33.8980 C   0  0  0  0  0  0  0  0  0  0  0  0
   37.4280   23.5530   32.6480 C   0  0  0  0  0  0  0  0  0  0  0  0
   37.0920   24.8370   32.3440 N   0  0  0  0  0  0  0  0  0  0  0  0
   37.2970   25.8430   33.2400 C   0  0  0  0  0  0  0  0  0  0  0  0
   37.8330   25.6140   34.4420 N   0  0  0  0  0  0  0  0  0  0  0  0
   38.2580   22.3120   34.1630 H   0  0  0  0  0  0  0  0  0  0  0  0
   37.2540   22.7710   31.9180 H   0  0  0  0  0  0  0  0  0  0  0  0
   38.7450   24.1670   36.0710 N   0  0  0  0  0  0  0  0  0  0  0  0
   40.0160   23.4890   36.2860 C   0  0  0  0  0  0  0  0  0  0  0  0
   40.0170   22.5210   37.4140 C   0  0  0  0  0  0  0  0  0  0  0  0
   39.1730   22.8060   38.5030 N   0  0  0  0  0  0  0  0  0  0  0  0
   37.8770   23.3280   38.0950 C   0  0  0  0  0  0  0  0  0  0  0  0
   38.2110   24.5840   37.3190 C   0  0  0  0  0  0  0  0  0  0  0  0
   40.3450   23.0330   35.3390 H   0  0  0  0  0  0  0  0  0  0  0  0
   40.7590   24.3000   36.5020 H   0  0  0  0  0  0  0  0  0  0  0  0
   39.7770   21.5130   37.0160 H   0  0  0  0  0  0  0  0  0  0  0  0
   41.0770   22.4320   37.7780 H   0  0  0  0  0  0  0  0  0  0  0  0
   39.6230   23.5850   39.0650 H   0  0  0  0  0  0  0  0  0  0  0  0
   37.4750   22.6020   37.3590 H   0  0  0  0  0  0  0  0  0  0  0  0
   37.2260   23.5070   38.9560 H   0  0  0  0  0  0  0  0  0  0  0  0
   37.2330   25.1410   37.2370 H   0  0  0  0  0  0  0  0  0  0  0  0
   38.9320   25.1630   37.9310 H   0  0  0  0  0  0  0  0  0  0  0  0
   36.9210   27.2050   32.8660 C   0  0  0  0  0  0  0  0  0  0  0  0
   37.2220   27.6800   31.6090 C   0  0  0  0  0  0  0  0  0  0  0  0
   36.8840   28.9690   31.2090 C   0  0  0  0  0  0  0  0  0  0  0  0
   36.2390   29.7360   32.1300 N   0  0  0  0  0  0  0  0  0  0  0  0
   35.9540   29.2520   33.3540 C   0  0  0  0  0  0  0  0  0  0  0  0
   36.2880   27.9900   33.7390 N   0  0  0  0  0  0  0  0  0  0  0  0
   37.7360   27.0900   30.8570 H   0  0  0  0  0  0  0  0  0  0  0  0
   35.2490   30.1150   34.3370 C   0  0  0  0  0  0  0  0  0  0  0  0
   34.9100   31.3260   33.7790 F   0  0  0  0  0  0  0  0  0  0  0  0
   36.1390   30.3570   35.4030 F   0  0  0  0  0  0  0  0  0  0  0  0
   34.1870   29.4310   34.8680 F   0  0  0  0  0  0  0  0  0  0  0  0
   37.2010   29.4910   29.8660 C   0  0  0  0  0  0  0  0  0  0  0  0
   36.9800   28.5330   28.9000 F   0  0  0  0  0  0  0  0  0  0  0  0
   36.4590   30.6310   29.6440 F   0  0  0  0  0  0  0  0  0  0  0  0
   38.5290   29.8710   29.8030 F   0  0  0  0  0  0  0  0  0  0  0  0
  1  9  1  0  0  0  0
  2  7  1  0  0  0  0
  2  1  2  0  0  0  0
  3  2  1  0  0  0  0
  4  3  2  0  0  0  0
  4  5  1  0  0  0  0
  5  6  2  0  0  0  0
  6  1  1  0  0  0  0
  8  3  1  0  0  0  0
  9 10  1  0  0  0  0
  9 14  1  0  0  0  0
 10 16  1  0  0  0  0
 10 11  1  0  0  0  0
 11 18  1  0  0  0  0
 11 12  1  0  0  0  0
 12 19  1  0  0  0  0
 13 12  1  0  0  0  0
 13 21  1  0  0  0  0
 14 23  1  0  0  0  0
 14 13  1  0  0  0  0
 15 10  1  0  0  0  0
 17 11  1  0  0  0  0
 20 13  1  0  0  0  0
 22 14  1  0  0  0  0
 24  5  1  0  0  0  0
 24 29  1  0  0  0  0
 25 24  2  0  0  0  0
 26 25  1  0  0  0  0
 26 27  2  0  0  0  0
 27 28  1  0  0  0  0
 28 29  2  0  0  0  0
 28 31  1  0  0  0  0
 30 25  1  0  0  0  0
 31 34  1  0  0  0  0
 31 33  1  0  0  0  0
 32 31  1  0  0  0  0
 35 26  1  0  0  0  0
 36 35  1  0  0  0  0
 37 35  1  0  0  0  0
 38 35  1  0  0  0  0
M  END
>  <minimizedAffinity>
-6.21660137

$$$$

 OpenBabel03272504363D

 38 40  0  0  0  0  0  0  0  0999 V2000
   39.4580   25.0040   35.2240 C   0  0  0  0  0  0  0  0  0  0  0  0
   40.6630   25.6710   35.2750 C   0  0  0  0  0  0  0  0  0  0  0  0
   40.9320   26.6650   34.3400 C   0  0  0  0  0  0  0  0  0  0  0  0
   39.9800   26.9340   33.4040 N   0  0  0  0  0  0  0  0  0  0  0  0
   38.8030   26.2500   33.3890 C   0  0  0  0  0  0  0  0  0  0  0  0
   38.5340   25.2950   34.2840 N   0  0  0  0  0  0  0  0  0  0  0  0
   41.3860   25.4390   36.0170 H   0  0  0  0  0  0  0  0  0  0  0  0
   41.8600   27.2230   34.3300 H   0  0  0  0  0  0  0  0  0  0  0  0
   39.1160   23.9740   36.1530 N   0  0  0  0  0  0  0  0  0  0  0  0
   38.0550   24.1230   37.1400 C   0  0  0  0  0  0  0  0  0  0  0  0
   38.4040   23.6390   38.5010 C   0  0  0  0  0  0  0  0  0  0  0  0
   39.3040   22.5620   38.5860 N   0  0  0  0  0  0  0  0  0  0  0  0
   40.3980   22.6590   37.6300 C   0  0  0  0  0  0  0  0  0  0  0  0
   39.7090   22.6900   36.2830 C   0  0  0  0  0  0  0  0  0  0  0  0
   37.7070   25.1680   37.1400 H   0  0  0  0  0  0  0  0  0  0  0  0
   37.1930   23.5200   36.7510 H   0  0  0  0  0  0  0  0  0  0  0  0
   38.7960   24.4940   39.0910 H   0  0  0  0  0  0  0  0  0  0  0  0
   37.4430   23.3630   39.0160 H   0  0  0  0  0  0  0  0  0  0  0  0
   38.7790   21.6790   38.3210 H   0  0  0  0  0  0  0  0  0  0  0  0
   40.8430   23.6630   37.7790 H   0  0  0  0  0  0  0  0  0  0  0  0
   41.1040   21.8300   37.7400 H   0  0  0  0  0  0  0  0  0  0  0  0
   40.5300   22.4860   35.5350 H   0  0  0  0  0  0  0  0  0  0  0  0
   38.9700   21.8640   36.2760 H   0  0  0  0  0  0  0  0  0  0  0  0
   37.8120   26.5770   32.3660 C   0  0  0  0  0  0  0  0  0  0  0  0
   38.0060   27.6660   31.5450 C   0  0  0  0  0  0  0  0  0  0  0  0
   37.0910   28.0160   30.5580 C   0  0  0  0  0  0  0  0  0  0  0  0
   35.9910   27.2230   30.4470 N   0  0  0  0  0  0  0  0  0  0  0  0
   35.8200   26.1620   31.2590 C   0  0  0  0  0  0  0  0  0  0  0  0
   36.7190   25.8250   32.2240 N   0  0  0  0  0  0  0  0  0  0  0  0
   38.8740   28.3150   31.6130 H   0  0  0  0  0  0  0  0  0  0  0  0
   34.6080   25.3150   31.1130 C   0  0  0  0  0  0  0  0  0  0  0  0
   34.7850   24.0910   31.7170 F   0  0  0  0  0  0  0  0  0  0  0  0
   34.4060   25.0990   29.7350 F   0  0  0  0  0  0  0  0  0  0  0  0
   33.5110   26.0030   31.5620 F   0  0  0  0  0  0  0  0  0  0  0  0
   37.2870   29.1800   29.6720 C   0  0  0  0  0  0  0  0  0  0  0  0
   37.3400   28.7920   28.3510 F   0  0  0  0  0  0  0  0  0  0  0  0
   36.2800   30.0920   29.9050 F   0  0  0  0  0  0  0  0  0  0  0  0
   38.4730   29.8210   29.9830 F   0  0  0  0  0  0  0  0  0  0  0  0
  1  2  1  0  0  0  0
  1  9  1  0  0  0  0
  2  7  1  0  0  0  0
  3  2  2  0  0  0  0
  4  3  1  0  0  0  0
  5  4  2  0  0  0  0
  5  6  1  0  0  0  0
  6  1  2  0  0  0  0
  8  3  1  0  0  0  0
  9 14  1  0  0  0  0
  9 10  1  0  0  0  0
 10 11  1  0  0  0  0
 11 12  1  0  0  0  0
 11 18  1  0  0  0  0
 11 17  1  0  0  0  0
 13 21  1  0  0  0  0
 13 20  1  0  0  0  0
 13 12  1  0  0  0  0
 14 13  1  0  0  0  0
 15 10  1  0  0  0  0
 16 10  1  0  0  0  0
 19 12  1  0  0  0  0
 22 14  1  0  0  0  0
 23 14  1  0  0  0  0
 24  5  1  0  0  0  0
 25 30  1  0  0  0  0
 25 24  2  0  0  0  0
 26 25  1  0  0  0  0
 27 26  2  0  0  0  0
 27 28  1  0  0  0  0
 28 29  2  0  0  0  0
 29 24  1  0  0  0  0
 31 28  1  0  0  0  0
 31 34  1  0  0  0  0
 31 32  1  0  0  0  0
 33 31  1  0  0  0  0
 35 37  1  0  0  0  0
 35 38  1  0  0  0  0
 35 26  1  0  0  0  0
 36 35  1  0  0  0  0
M  END
>  <minimizedAffinity>
-6.13616896

$$$$

 OpenBabel03272504363D

 38 40  0  0  0  0  0  0  0  0999 V2000
   37.1360   24.1770   32.0440 C   0  0  0  0  0  0  0  0  0  0  0  0
   36.4910   23.0790   31.5190 C   0  0  0  0  0  0  0  0  0  0  0  0
   36.5710   21.8590   32.1830 C   0  0  0  0  0  0  0  0  0  0  0  0
   37.2950   21.8070   33.3350 N   0  0  0  0  0  0  0  0  0  0  0  0
   37.9180   22.9170   33.8180 C   0  0  0  0  0  0  0  0  0  0  0  0
   37.8460   24.0940   33.1890 N   0  0  0  0  0  0  0  0  0  0  0  0
   35.9340   23.1500   30.6170 H   0  0  0  0  0  0  0  0  0  0  0  0
   36.0860   20.9610   31.8190 H   0  0  0  0  0  0  0  0  0  0  0  0
   37.0940   25.4590   31.4150 N   0  0  0  0  0  0  0  0  0  0  0  0
   38.2950   26.1700   30.9940 C   0  0  0  0  0  0  0  0  0  0  0  0
   38.3050   27.6180   31.3300 C   0  0  0  0  0  0  0  0  0  0  0  0
   37.0640   28.2780   31.3560 N   0  0  0  0  0  0  0  0  0  0  0  0
   36.0080   27.4780   31.9600 C   0  0  0  0  0  0  0  0  0  0  0  0
   35.9470   26.2350   31.0990 C   0  0  0  0  0  0  0  0  0  0  0  0
   39.1800   25.6400   31.3790 H   0  0  0  0  0  0  0  0  0  0  0  0
   38.3390   26.0550   29.8790 H   0  0  0  0  0  0  0  0  0  0  0  0
   38.8140   27.7500   32.3070 H   0  0  0  0  0  0  0  0  0  0  0  0
   38.9830   28.1280   30.5920 H   0  0  0  0  0  0  0  0  0  0  0  0
   36.7580   28.4320   30.3520 H   0  0  0  0  0  0  0  0  0  0  0  0
   36.3970   27.1570   32.9480 H   0  0  0  0  0  0  0  0  0  0  0  0
   35.0620   28.0260   32.0030 H   0  0  0  0  0  0  0  0  0  0  0  0
   34.9700   25.7420   31.3740 H   0  0  0  0  0  0  0  0  0  0  0  0
   35.9240   26.5710   30.0430 H   0  0  0  0  0  0  0  0  0  0  0  0
   38.6810   22.8110   35.0600 C   0  0  0  0  0  0  0  0  0  0  0  0
   39.9370   22.2460   35.0470 C   0  0  0  0  0  0  0  0  0  0  0  0
   40.7010   22.1230   36.2040 C   0  0  0  0  0  0  0  0  0  0  0  0
   40.1380   22.5910   37.3500 N   0  0  0  0  0  0  0  0  0  0  0  0
   38.9080   23.1400   37.3410 C   0  0  0  0  0  0  0  0  0  0  0  0
   38.1660   23.2580   36.2060 N   0  0  0  0  0  0  0  0  0  0  0  0
   40.4090   21.8640   34.1470 H   0  0  0  0  0  0  0  0  0  0  0  0
   38.3210   23.6430   38.6100 C   0  0  0  0  0  0  0  0  0  0  0  0
   37.2760   22.8470   39.0210 F   0  0  0  0  0  0  0  0  0  0  0  0
   37.8150   24.9350   38.3610 F   0  0  0  0  0  0  0  0  0  0  0  0
   39.3100   23.7890   39.5470 F   0  0  0  0  0  0  0  0  0  0  0  0
   42.0480   21.5190   36.2030 C   0  0  0  0  0  0  0  0  0  0  0  0
   42.2520   20.7700   35.0650 F   0  0  0  0  0  0  0  0  0  0  0  0
   42.9850   22.5210   36.3400 F   0  0  0  0  0  0  0  0  0  0  0  0
   42.1990   20.6910   37.3010 F   0  0  0  0  0  0  0  0  0  0  0  0
  1  6  1  0  0  0  0
  2  1  2  0  0  0  0
  2  3  1  0  0  0  0
  3  4  2  0  0  0  0
  4  5  1  0  0  0  0
  5 24  1  0  0  0  0
  6  5  2  0  0  0  0
  7  2  1  0  0  0  0
  8  3  1  0  0  0  0
  9  1  1  0  0  0  0
 10 11  1  0  0  0  0
 10 15  1  0  0  0  0
 10  9  1  0  0  0  0
 11 12  1  0  0  0  0
 11 17  1  0  0  0  0
 12 13  1  0  0  0  0
 13 21  1  0  0  0  0
 13 20  1  0  0  0  0
 14 22  1  0  0  0  0
 14  9  1  0  0  0  0
 14 13  1  0  0  0  0
 16 10  1  0  0  0  0
 18 11  1  0  0  0  0
 19 12  1  0  0  0  0
 23 14  1  0  0  0  0
 24 29  1  0  0  0  0
 25 24  2  0  0  0  0
 25 26  1  0  0  0  0
 26 27  2  0  0  0  0
 28 27  1  0  0  0  0
 28 31  1  0  0  0  0
 29 28  2  0  0  0  0
 30 25  1  0  0  0  0
 31 32  1  0  0  0  0
 31 34  1  0  0  0  0
 33 31  1  0  0  0  0
 35 26  1  0  0  0  0
 35 37  1  0  0  0  0
 35 38  1  0  0  0  0
 36 35  1  0  0  0  0
M  END
>  <minimizedAffinity>
-6.1201539

$$$$

 OpenBabel03272504363D

 38 40  0  0  0  0  0  0  0  0999 V2000
   37.2050   25.6550   32.2720 C   0  0  0  0  0  0  0  0  0  0  0  0
   36.6290   24.7260   31.4330 C   0  0  0  0  0  0  0  0  0  0  0  0
   36.7400   23.3730   31.7360 C   0  0  0  0  0  0  0  0  0  0  0  0
   37.4230   23.0260   32.8610 N   0  0  0  0  0  0  0  0  0  0  0  0
   37.9790   23.9770   33.6620 C   0  0  0  0  0  0  0  0  0  0  0  0
   37.8770   25.2790   33.3810 N   0  0  0  0  0  0  0  0  0  0  0  0
   36.1010   25.0280   30.5620 H   0  0  0  0  0  0  0  0  0  0  0  0
   36.3080   22.5970   31.1150 H   0  0  0  0  0  0  0  0  0  0  0  0
   37.1290   27.0600   32.0210 N   0  0  0  0  0  0  0  0  0  0  0  0
   36.2550   27.9480   32.7760 C   0  0  0  0  0  0  0  0  0  0  0  0
   35.5080   28.9310   31.9460 C   0  0  0  0  0  0  0  0  0  0  0  0
   36.1330   29.3830   30.7710 N   0  0  0  0  0  0  0  0  0  0  0  0
   36.8290   28.3230   30.0550 C   0  0  0  0  0  0  0  0  0  0  0  0
   37.8460   27.8090   31.0510 C   0  0  0  0  0  0  0  0  0  0  0  0
   35.5910   27.3440   33.4140 H   0  0  0  0  0  0  0  0  0  0  0  0
   36.9250   28.5050   33.4820 H   0  0  0  0  0  0  0  0  0  0  0  0
   34.5170   28.4990   31.6950 H   0  0  0  0  0  0  0  0  0  0  0  0
   35.2700   29.8110   32.6040 H   0  0  0  0  0  0  0  0  0  0  0  0
   36.8880   30.0730   31.0500 H   0  0  0  0  0  0  0  0  0  0  0  0
   36.0870   27.5110   29.9160 H   0  0  0  0  0  0  0  0  0  0  0  0
   37.2760   28.6910   29.1260 H   0  0  0  0  0  0  0  0  0  0  0  0
   38.5660   27.1950   30.4370 H   0  0  0  0  0  0  0  0  0  0  0  0
   38.3620   28.6940   31.4760 H   0  0  0  0  0  0  0  0  0  0  0  0
   38.7020   23.5540   34.8600 C   0  0  0  0  0  0  0  0  0  0  0  0
   38.1840   23.8270   36.1060 C   0  0  0  0  0  0  0  0  0  0  0  0
   38.8370   23.4450   37.2740 C   0  0  0  0  0  0  0  0  0  0  0  0
   40.0170   22.7860   37.1170 N   0  0  0  0  0  0  0  0  0  0  0  0
   40.5050   22.5290   35.8880 C   0  0  0  0  0  0  0  0  0  0  0  0
   39.8630   22.9060   34.7500 N   0  0  0  0  0  0  0  0  0  0  0  0
   37.2460   24.3520   36.2590 H   0  0  0  0  0  0  0  0  0  0  0  0
   41.7970   21.8060   35.7500 C   0  0  0  0  0  0  0  0  0  0  0  0
   41.9170   21.2430   34.5000 F   0  0  0  0  0  0  0  0  0  0  0  0
   41.8050   20.7670   36.7010 F   0  0  0  0  0  0  0  0  0  0  0  0
   42.8290   22.6440   36.0830 F   0  0  0  0  0  0  0  0  0  0  0  0
   38.2940   23.7310   38.6160 C   0  0  0  0  0  0  0  0  0  0  0  0
   37.3030   22.8330   38.9490 F   0  0  0  0  0  0  0  0  0  0  0  0
   39.3280   23.7250   39.5260 F   0  0  0  0  0  0  0  0  0  0  0  0
   37.7530   25.0040   38.6490 F   0  0  0  0  0  0  0  0  0  0  0  0
  1  6  1  0  0  0  0
  2  3  1  0  0  0  0
  2  1  2  0  0  0  0
  3  4  2  0  0  0  0
  4  5  1  0  0  0  0
  5 24  1  0  0  0  0
  6  5  2  0  0  0  0
  7  2  1  0  0  0  0
  8  3  1  0  0  0  0
  9  1  1  0  0  0  0
  9 10  1  0  0  0  0
 10 15  1  0  0  0  0
 10 16  1  0  0  0  0
 11 18  1  0  0  0  0
 11 10  1  0  0  0  0
 12 19  1  0  0  0  0
 12 11  1  0  0  0  0
 13 12  1  0  0  0  0
 13 14  1  0  0  0  0
 14 23  1  0  0  0  0
 14  9  1  0  0  0  0
 17 11  1  0  0  0  0
 20 13  1  0  0  0  0
 21 13  1  0  0  0  0
 22 14  1  0  0  0  0
 24 25  1  0  0  0  0
 25 30  1  0  0  0  0
 25 26  2  0  0  0  0
 26 35  1  0  0  0  0
 27 26  1  0  0  0  0
 28 27  2  0  0  0  0
 29 24  2  0  0  0  0
 29 28  1  0  0  0  0
 31 28  1  0  0  0  0
 31 34  1  0  0  0  0
 31 33  1  0  0  0  0
 32 31  1  0  0  0  0
 35 38  1  0  0  0  0
 35 36  1  0  0  0  0
 35 37  1  0  0  0  0
M  END
>  <minimizedAffinity>
-5.99502945

$$$$
