
 OpenBabel03272510233D

 26 28  0  0  0  0  0  0  0  0999 V2000
   35.8470   30.1380   46.7960 C   0  0  0  0  0  0  0  0  0  0  0  0
   36.4620   30.5650   47.9490 C   0  0  0  0  0  0  0  0  0  0  0  0
   37.5440   31.4140   47.8910 C   0  0  0  0  0  0  0  0  0  0  0  0
   37.9770   31.8120   46.6400 C   0  0  0  0  0  0  0  0  0  0  0  0
   39.0200   32.6420   46.3320 N   0  0  0  0  0  0  0  0  0  0  0  0
   39.0640   32.7380   44.9970 C   0  0  0  0  0  0  0  0  0  0  0  0
   38.0890   32.0000   44.4370 N   0  0  0  0  0  0  0  0  0  0  0  0
   37.3930   31.4100   45.4450 C   0  0  0  0  0  0  0  0  0  0  0  0
   36.3090   30.5570   45.5400 C   0  0  0  0  0  0  0  0  0  0  0  0
   34.9980   29.4750   46.7680 H   0  0  0  0  0  0  0  0  0  0  0  0
   38.0190   31.7440   48.7940 H   0  0  0  0  0  0  0  0  0  0  0  0
   39.6730   33.1200   47.0120 H   0  0  0  0  0  0  0  0  0  0  0  0
   35.8280   30.2240   44.6150 H   0  0  0  0  0  0  0  0  0  0  0  0
   36.0460   29.3610   51.4970 C   0  0  0  0  0  0  0  0  0  0  0  0
   36.6540   29.8340   50.3400 C   0  0  0  0  0  0  0  0  0  0  0  0
   35.9030   30.0700   49.2040 C   0  0  0  0  0  0  0  0  0  0  0  0
   34.5590   29.8280   49.2540 N   0  0  0  0  0  0  0  0  0  0  0  0
   33.9910   29.3630   50.4110 C   0  0  0  0  0  0  0  0  0  0  0  0
   34.7180   29.1360   51.5010 N   0  0  0  0  0  0  0  0  0  0  0  0
   36.6590   29.1890   52.3590 H   0  0  0  0  0  0  0  0  0  0  0  0
   37.7020   30.0170   50.3180 H   0  0  0  0  0  0  0  0  0  0  0  0
   32.9190   29.2050   50.3360 H   0  0  0  0  0  0  0  0  0  0  0  0
   40.0820   33.5670   44.2830 C   0  0  0  0  0  0  0  0  0  0  0  0
   41.3480   33.0650   44.3620 F   0  0  0  0  0  0  0  0  0  0  0  0
   40.0720   34.8550   44.8110 F   0  0  0  0  0  0  0  0  0  0  0  0
   39.7540   33.7080   42.9460 F   0  0  0  0  0  0  0  0  0  0  0  0
  1  2  1  0  0  0  0
  2 16  1  0  0  0  0
  3  2  2  0  0  0  0
  3 11  1  0  0  0  0
  4  3  1  0  0  0  0
  5  4  1  0  0  0  0
  5 12  1  0  0  0  0
  6  5  1  0  0  0  0
  7  6  2  0  0  0  0
  7  8  1  0  0  0  0
  8  9  1  0  0  0  0
  8  4  2  0  0  0  0
  9  1  2  0  0  0  0
 10  1  1  0  0  0  0
 13  9  1  0  0  0  0
 14 19  1  0  0  0  0
 14 20  1  0  0  0  0
 15 14  2  0  0  0  0
 16 17  2  0  0  0  0
 16 15  1  0  0  0  0
 17 18  1  0  0  0  0
 18 19  2  0  0  0  0
 21 15  1  0  0  0  0
 22 18  1  0  0  0  0
 23 24  1  0  0  0  0
 23 25  1  0  0  0  0
 23  6  1  0  0  0  0
 26 23  1  0  0  0  0
M  END
>  <minimizedAffinity>
-5.02542639

>  <minimizedRMSD>
1.38153863

$$$$
