
 OpenBabel03272506083D

 39 41  0  0  0  0  0  0  0  0999 V2000
   32.9060   28.1440   48.3580 C   0  0  0  0  0  0  0  0  0  0  0  0
   32.8800   28.5820   46.9840 C   0  0  0  0  0  0  0  0  0  0  0  0
   31.1640   28.3890   46.6110 S   0  0  0  0  0  0  0  0  0  0  0  0
   30.6920   27.7510   48.3190 C   0  0  0  0  0  0  0  0  0  0  0  0
   31.7570   27.7760   48.8450 N   0  0  0  0  0  0  0  0  0  0  0  0
   29.4110   27.3410   48.8630 N   0  0  0  0  0  0  0  0  0  0  0  0
   28.4660   26.8060   47.9350 C   0  0  0  0  0  0  0  0  0  0  0  0
   27.0660   26.7420   48.4430 C   0  0  0  0  0  0  0  0  0  0  0  0
   26.8790   27.4440   49.7010 N   0  0  0  0  0  0  0  0  0  0  0  0
   27.8600   26.8490   50.6140 C   0  0  0  0  0  0  0  0  0  0  0  0
   29.1760   27.4940   50.2740 C   0  0  0  0  0  0  0  0  0  0  0  0
   33.6880   28.9150   46.4130 H   0  0  0  0  0  0  0  0  0  0  0  0
   28.8310   25.8280   47.5320 H   0  0  0  0  0  0  0  0  0  0  0  0
   28.4560   27.4970   47.0410 H   0  0  0  0  0  0  0  0  0  0  0  0
   26.2980   27.0770   47.6930 H   0  0  0  0  0  0  0  0  0  0  0  0
   26.8180   25.6710   48.6590 H   0  0  0  0  0  0  0  0  0  0  0  0
   25.9020   27.2310   50.0270 H   0  0  0  0  0  0  0  0  0  0  0  0
   27.9640   25.7720   50.4750 H   0  0  0  0  0  0  0  0  0  0  0  0
   27.5670   27.1380   51.6470 H   0  0  0  0  0  0  0  0  0  0  0  0
   30.0130   27.1830   50.9170 H   0  0  0  0  0  0  0  0  0  0  0  0
   29.0380   28.6020   50.4440 H   0  0  0  0  0  0  0  0  0  0  0  0
   34.2040   28.1400   49.1030 C   0  0  0  0  0  0  0  0  0  0  0  0
   35.0550   28.2930   48.3990 H   0  0  0  0  0  0  0  0  0  0  0  0
   34.3800   27.1240   49.5380 H   0  0  0  0  0  0  0  0  0  0  0  0
   34.2340   29.1630   50.1740 C   0  0  0  0  0  0  0  0  0  0  0  0
   33.5620   30.0100   50.0520 H   0  0  0  0  0  0  0  0  0  0  0  0
   34.0290   28.6810   51.1690 H   0  0  0  0  0  0  0  0  0  0  0  0
   37.5910   30.1050   51.4800 C   0  0  0  0  0  0  0  0  0  0  0  0
   38.1330   30.8360   50.4170 C   0  0  0  0  0  0  0  0  0  0  0  0
   37.3410   31.0010   49.2570 C   0  0  0  0  0  0  0  0  0  0  0  0
   36.1020   30.4460   49.2310 N   0  0  0  0  0  0  0  0  0  0  0  0
   35.6280   29.7460   50.2950 C   0  0  0  0  0  0  0  0  0  0  0  0
   36.3580   29.5830   51.3870 N   0  0  0  0  0  0  0  0  0  0  0  0
   38.1600   29.9570   52.3810 H   0  0  0  0  0  0  0  0  0  0  0  0
   39.1360   31.2510   50.5110 H   0  0  0  0  0  0  0  0  0  0  0  0
   37.9000   31.7740   48.1180 C   0  0  0  0  0  0  0  0  0  0  0  0
   37.9970   33.1150   48.4320 F   0  0  0  0  0  0  0  0  0  0  0  0
   37.1090   31.5570   47.0070 F   0  0  0  0  0  0  0  0  0  0  0  0
   39.1800   31.2720   47.8770 F   0  0  0  0  0  0  0  0  0  0  0  0
  1  5  1  0  0  0  0
  1 22  1  0  0  0  0
  2  1  2  0  0  0  0
  3  2  1  0  0  0  0
  3  4  1  0  0  0  0
  4  5  2  0  0  0  0
  4  6  1  0  0  0  0
  6 11  1  0  0  0  0
  7  8  1  0  0  0  0
  7  6  1  0  0  0  0
  8 16  1  0  0  0  0
  8  9  1  0  0  0  0
  9 17  1  0  0  0  0
  9 10  1  0  0  0  0
 10 19  1  0  0  0  0
 11 21  1  0  0  0  0
 11 10  1  0  0  0  0
 11 20  1  0  0  0  0
 12  2  1  0  0  0  0
 13  7  1  0  0  0  0
 14  7  1  0  0  0  0
 15  8  1  0  0  0  0
 18 10  1  0  0  0  0
 22 24  1  0  0  0  0
 22 25  1  0  0  0  0
 23 22  1  0  0  0  0
 25 32  1  0  0  0  0
 25 27  1  0  0  0  0
 26 25  1  0  0  0  0
 28 34  1  0  0  0  0
 29 35  1  0  0  0  0
 29 28  2  0  0  0  0
 30 29  1  0  0  0  0
 31 30  2  0  0  0  0
 31 32  1  0  0  0  0
 32 33  2  0  0  0  0
 33 28  1  0  0  0  0
 36 37  1  0  0  0  0
 36 30  1  0  0  0  0
 38 36  1  0  0  0  0
 39 36  1  0  0  0  0
M  END
>  <minimizedAffinity>
-6.80007887

>  <minimizedRMSD>
1.66009784

$$$$
