
 OpenBabel03262521293D

 28 29  0  0  1  0  0  0  0  0999 V2000
   36.3480   30.2410   48.6830 N   0  0  0  0  0  0  0  0  0  0  0  0
   37.7280   30.3650   48.3310 C   0  0  0  0  0  0  0  0  0  0  0  0
   38.1960   31.5600   49.1760 C   0  0  0  0  0  0  0  0  0  0  0  0
   36.9740   31.9920   49.9630 C   0  0  0  0  0  0  0  0  0  0  0  0
   36.2110   30.7070   50.0450 C   0  0  2  0  0  0  0  0  0  0  0  0
   37.7750   30.7140   47.2720 H   0  0  0  0  0  0  0  0  0  0  0  0
   38.3340   29.4660   48.5340 H   0  0  0  0  0  0  0  0  0  0  0  0
   38.4970   32.4160   48.5630 H   0  0  0  0  0  0  0  0  0  0  0  0
   39.0140   31.2060   49.8100 H   0  0  0  0  0  0  0  0  0  0  0  0
   36.3870   32.7530   49.4330 H   0  0  0  0  0  0  0  0  0  0  0  0
   37.2760   32.3480   50.9760 H   0  0  0  0  0  0  0  0  0  0  0  0
   35.1590   30.9620   50.2790 H   0  0  0  0  0  0  0  0  0  0  0  0
   35.2820   29.7590   47.8750 C   0  0  0  0  0  0  0  0  0  0  0  0
   35.3310   30.0730   46.5160 C   0  0  0  0  0  0  0  0  0  0  0  0
   34.3320   29.6420   45.6480 C   0  0  0  0  0  0  0  0  0  0  0  0
   33.3210   28.9040   46.2200 N   0  0  0  0  0  0  0  0  0  0  0  0
   33.3030   28.6160   47.5380 C   0  0  0  0  0  0  0  0  0  0  0  0
   34.2900   29.0470   48.3660 N   0  0  0  0  0  0  0  0  0  0  0  0
   36.1220   30.6540   46.0510 H   0  0  0  0  0  0  0  0  0  0  0  0
   34.3220   29.8560   44.6020 H   0  0  0  0  0  0  0  0  0  0  0  0
   32.1740   27.8100   48.0840 C   0  0  0  0  0  0  0  0  0  0  0  0
   32.3710   26.4590   47.8910 F   0  0  0  0  0  0  0  0  0  0  0  0
   32.1230   28.1180   49.4400 F   0  0  0  0  0  0  0  0  0  0  0  0
   31.0220   28.2260   47.4530 F   0  0  0  0  0  0  0  0  0  0  0  0
   36.7350   29.7530   51.0780 C   0  0  0  0  0  0  0  0  0  0  0  0
   37.4270   28.7110   50.4490 F   0  0  0  0  0  0  0  0  0  0  0  0
   35.7620   29.2790   51.8980 F   0  0  0  0  0  0  0  0  0  0  0  0
   37.6400   30.4010   51.9090 F   0  0  0  0  0  0  0  0  0  0  0  0
  1  5  1  0  0  0  0
  2  7  1  0  0  0  0
  2  1  1  0  0  0  0
  2  3  1  0  0  0  0
  3  9  1  0  0  0  0
  3  4  1  0  0  0  0
  4  5  1  0  0  0  0
  4 11  1  0  0  0  0
  5 12  1  1  0  0  0
  5 25  1  0  0  0  0
  6  2  1  0  0  0  0
  8  3  1  0  0  0  0
 10  4  1  0  0  0  0
 13 18  1  0  0  0  0
 13  1  1  0  0  0  0
 14 13  2  0  0  0  0
 15 16  2  0  0  0  0
 15 14  1  0  0  0  0
 16 17  1  0  0  0  0
 17 21  1  0  0  0  0
 17 18  2  0  0  0  0
 19 14  1  0  0  0  0
 20 15  1  0  0  0  0
 21 23  1  0  0  0  0
 22 21  1  0  0  0  0
 24 21  1  0  0  0  0
 25 27  1  0  0  0  0
 25 28  1  0  0  0  0
 26 25  1  0  0  0  0
M  END
>  <minimizedAffinity>
-5.83840466

>  <minimizedRMSD>
1.43806672

$$$$
