
 OpenBabel03272505483D

 29 31  0  0  0  0  0  0  0  0999 V2000
   38.2710   26.6740   34.4920 C   0  0  0  0  0  0  0  0  0  0  0  0
   37.0080   27.3550   34.1420 C   0  0  0  0  0  0  0  0  0  0  0  0
   37.7730   27.7930   35.3570 C   0  0  0  0  0  0  0  0  0  0  0  0
   37.0030   28.0640   33.2820 H   0  0  0  0  0  0  0  0  0  0  0  0
   36.0730   26.8080   34.3980 H   0  0  0  0  0  0  0  0  0  0  0  0
   37.4240   27.5110   36.3680 H   0  0  0  0  0  0  0  0  0  0  0  0
   38.3850   28.7020   35.3530 H   0  0  0  0  0  0  0  0  0  0  0  0
   40.6100   27.3700   31.7120 C   0  0  0  0  0  0  0  0  0  0  0  0
   41.8600   27.3960   32.3630 C   0  0  0  0  0  0  0  0  0  0  0  0
   41.8930   27.1700   33.7600 C   0  0  0  0  0  0  0  0  0  0  0  0
   40.7150   26.9370   34.4020 N   0  0  0  0  0  0  0  0  0  0  0  0
   39.5200   26.9190   33.7390 C   0  0  0  0  0  0  0  0  0  0  0  0
   39.4710   27.1310   32.4130 N   0  0  0  0  0  0  0  0  0  0  0  0
   40.6590   27.5490   30.6570 H   0  0  0  0  0  0  0  0  0  0  0  0
   42.7860   27.5840   31.8340 H   0  0  0  0  0  0  0  0  0  0  0  0
   42.8110   27.1740   34.3200 H   0  0  0  0  0  0  0  0  0  0  0  0
   38.2090   25.2800   35.0450 C   0  0  0  0  0  0  0  0  0  0  0  0
   38.1640   24.2000   34.2270 C   0  0  0  0  0  0  0  0  0  0  0  0
   38.1220   22.9150   34.7450 C   0  0  0  0  0  0  0  0  0  0  0  0
   38.1260   22.7660   36.1280 C   0  0  0  0  0  0  0  0  0  0  0  0
   38.1710   23.8810   36.9680 C   0  0  0  0  0  0  0  0  0  0  0  0
   38.2110   25.0920   36.3850 N   0  0  0  0  0  0  0  0  0  0  0  0
   38.1310   24.1380   33.1580 H   0  0  0  0  0  0  0  0  0  0  0  0
   38.0850   21.9840   34.2000 H   0  0  0  0  0  0  0  0  0  0  0  0
   38.0960   21.8250   36.6570 H   0  0  0  0  0  0  0  0  0  0  0  0
   38.1740   23.7560   38.4530 C   0  0  0  0  0  0  0  0  0  0  0  0
   37.3170   22.7720   38.9070 F   0  0  0  0  0  0  0  0  0  0  0  0
   37.8680   24.9420   39.0880 F   0  0  0  0  0  0  0  0  0  0  0  0
   39.4300   23.3710   38.9200 F   0  0  0  0  0  0  0  0  0  0  0  0
  1 17  1  0  0  0  0
  1  3  1  0  0  0  0
  2  5  1  0  0  0  0
  2  1  1  0  0  0  0
  2  3  1  0  0  0  0
  3  6  1  0  0  0  0
  4  2  1  0  0  0  0
  7  3  1  0  0  0  0
  8  9  2  0  0  0  0
  8 13  1  0  0  0  0
  9 10  1  0  0  0  0
 10 16  1  0  0  0  0
 10 11  2  0  0  0  0
 12 11  1  0  0  0  0
 12  1  1  0  0  0  0
 13 12  2  0  0  0  0
 14  8  1  0  0  0  0
 15  9  1  0  0  0  0
 17 22  1  0  0  0  0
 18 19  1  0  0  0  0
 18 17  2  0  0  0  0
 19 20  2  0  0  0  0
 20 25  1  0  0  0  0
 20 21  1  0  0  0  0
 21 26  1  0  0  0  0
 22 21  2  0  0  0  0
 23 18  1  0  0  0  0
 24 19  1  0  0  0  0
 26 27  1  0  0  0  0
 26 29  1  0  0  0  0
 26 28  1  0  0  0  0
M  END
>  <minimizedAffinity>
-5.52119827

$$$$

 OpenBabel03272505483D

 29 31  0  0  0  0  0  0  0  0999 V2000
   38.4610   26.1990   34.8070 C   0  0  0  0  0  0  0  0  0  0  0  0
   39.6920   27.0050   34.9410 C   0  0  0  0  0  0  0  0  0  0  0  0
   38.5940   27.1560   35.9530 C   0  0  0  0  0  0  0  0  0  0  0  0
   40.6230   26.5050   35.2950 H   0  0  0  0  0  0  0  0  0  0  0  0
   39.7740   27.8840   34.2630 H   0  0  0  0  0  0  0  0  0  0  0  0
   37.9310   28.0410   35.9300 H   0  0  0  0  0  0  0  0  0  0  0  0
   38.6630   26.6970   36.9460 H   0  0  0  0  0  0  0  0  0  0  0  0
   39.1260   22.5630   34.6920 C   0  0  0  0  0  0  0  0  0  0  0  0
   38.3920   22.0820   35.7950 C   0  0  0  0  0  0  0  0  0  0  0  0
   37.6660   23.0150   36.5750 C   0  0  0  0  0  0  0  0  0  0  0  0
   37.7140   24.3280   36.2160 N   0  0  0  0  0  0  0  0  0  0  0  0
   38.4360   24.7580   35.1390 C   0  0  0  0  0  0  0  0  0  0  0  0
   39.1300   23.8870   34.3890 N   0  0  0  0  0  0  0  0  0  0  0  0
   39.6510   21.8030   34.1480 H   0  0  0  0  0  0  0  0  0  0  0  0
   38.3680   21.0340   36.0650 H   0  0  0  0  0  0  0  0  0  0  0  0
   37.0850   22.7190   37.4290 H   0  0  0  0  0  0  0  0  0  0  0  0
   37.4900   26.5440   33.7160 C   0  0  0  0  0  0  0  0  0  0  0  0
   37.1100   27.8260   33.4900 C   0  0  0  0  0  0  0  0  0  0  0  0
   36.2240   28.1380   32.4710 C   0  0  0  0  0  0  0  0  0  0  0  0
   35.7350   27.0980   31.6870 C   0  0  0  0  0  0  0  0  0  0  0  0
   36.1260   25.7790   31.9230 C   0  0  0  0  0  0  0  0  0  0  0  0
   36.9900   25.5620   32.9300 N   0  0  0  0  0  0  0  0  0  0  0  0
   37.3690   28.7290   34.0060 H   0  0  0  0  0  0  0  0  0  0  0  0
   35.8510   29.1130   32.1950 H   0  0  0  0  0  0  0  0  0  0  0  0
   35.0430   27.2050   30.8660 H   0  0  0  0  0  0  0  0  0  0  0  0
   35.6190   24.6430   31.1030 C   0  0  0  0  0  0  0  0  0  0  0  0
   34.6630   25.0320   30.1850 F   0  0  0  0  0  0  0  0  0  0  0  0
   35.1070   23.6180   31.8740 F   0  0  0  0  0  0  0  0  0  0  0  0
   36.6400   24.0850   30.3340 F   0  0  0  0  0  0  0  0  0  0  0  0
  1  2  1  0  0  0  0
  1 12  1  0  0  0  0
  1  3  1  0  0  0  0
  2  4  1  0  0  0  0
  2  3  1  0  0  0  0
  3  7  1  0  0  0  0
  5  2  1  0  0  0  0
  6  3  1  0  0  0  0
  8  9  1  0  0  0  0
  9 15  1  0  0  0  0
  9 10  2  0  0  0  0
 10 16  1  0  0  0  0
 11 10  1  0  0  0  0
 12 11  2  0  0  0  0
 13  8  2  0  0  0  0
 13 12  1  0  0  0  0
 14  8  1  0  0  0  0
 17  1  1  0  0  0  0
 18 17  1  0  0  0  0
 18 23  1  0  0  0  0
 19 18  2  0  0  0  0
 20 21  2  0  0  0  0
 20 19  1  0  0  0  0
 21 22  1  0  0  0  0
 22 17  2  0  0  0  0
 24 19  1  0  0  0  0
 25 20  1  0  0  0  0
 26 28  1  0  0  0  0
 26 21  1  0  0  0  0
 27 26  1  0  0  0  0
 29 26  1  0  0  0  0
M  END
>  <minimizedAffinity>
-5.45085812

$$$$

 OpenBabel03272505483D

 29 31  0  0  0  0  0  0  0  0999 V2000
   38.5460   25.9010   35.0170 C   0  0  0  0  0  0  0  0  0  0  0  0
   38.4690   27.3200   35.4200 C   0  0  0  0  0  0  0  0  0  0  0  0
   39.7000   26.8130   34.7270 C   0  0  0  0  0  0  0  0  0  0  0  0
   37.8210   28.0090   34.8310 H   0  0  0  0  0  0  0  0  0  0  0  0
   38.6410   27.5290   36.5000 H   0  0  0  0  0  0  0  0  0  0  0  0
   40.6270   26.6260   35.3000 H   0  0  0  0  0  0  0  0  0  0  0  0
   39.8860   27.0170   33.6660 H   0  0  0  0  0  0  0  0  0  0  0  0
   36.3500   25.7530   32.0450 C   0  0  0  0  0  0  0  0  0  0  0  0
   36.4280   24.3950   31.6740 C   0  0  0  0  0  0  0  0  0  0  0  0
   37.2370   23.5330   32.4530 C   0  0  0  0  0  0  0  0  0  0  0  0
   37.8950   24.0600   33.5220 N   0  0  0  0  0  0  0  0  0  0  0  0
   37.7960   25.3820   33.8530 C   0  0  0  0  0  0  0  0  0  0  0  0
   37.0330   26.2140   33.1250 N   0  0  0  0  0  0  0  0  0  0  0  0
   35.7220   26.3460   31.4120 H   0  0  0  0  0  0  0  0  0  0  0  0
   35.8970   23.9950   30.8190 H   0  0  0  0  0  0  0  0  0  0  0  0
   37.3420   22.4870   32.2280 H   0  0  0  0  0  0  0  0  0  0  0  0
   38.7280   24.8590   36.0820 C   0  0  0  0  0  0  0  0  0  0  0  0
   37.8120   24.6930   37.0680 C   0  0  0  0  0  0  0  0  0  0  0  0
   37.9790   23.7180   38.0390 C   0  0  0  0  0  0  0  0  0  0  0  0
   39.1140   22.9150   37.9730 C   0  0  0  0  0  0  0  0  0  0  0  0
   40.0560   23.0910   36.9580 C   0  0  0  0  0  0  0  0  0  0  0  0
   39.8180   24.0580   36.0550 N   0  0  0  0  0  0  0  0  0  0  0  0
   36.9090   25.2310   37.2760 H   0  0  0  0  0  0  0  0  0  0  0  0
   37.3240   23.4900   38.8660 H   0  0  0  0  0  0  0  0  0  0  0  0
   39.3620   22.1240   38.6640 H   0  0  0  0  0  0  0  0  0  0  0  0
   41.2820   22.2500   36.8610 C   0  0  0  0  0  0  0  0  0  0  0  0
   42.4460   22.9900   36.9530 F   0  0  0  0  0  0  0  0  0  0  0  0
   41.3220   21.4990   35.7030 F   0  0  0  0  0  0  0  0  0  0  0  0
   41.3560   21.3460   37.9200 F   0  0  0  0  0  0  0  0  0  0  0  0
  1  2  1  0  0  0  0
  1 17  1  0  0  0  0
  2  5  1  0  0  0  0
  3  1  1  0  0  0  0
  3  6  1  0  0  0  0
  3  2  1  0  0  0  0
  4  2  1  0  0  0  0
  7  3  1  0  0  0  0
  8 13  1  0  0  0  0
  9  8  2  0  0  0  0
  9 10  1  0  0  0  0
 10 11  2  0  0  0  0
 11 12  1  0  0  0  0
 12  1  1  0  0  0  0
 13 12  2  0  0  0  0
 14  8  1  0  0  0  0
 15  9  1  0  0  0  0
 16 10  1  0  0  0  0
 17 18  1  0  0  0  0
 18 23  1  0  0  0  0
 18 19  2  0  0  0  0
 19 24  1  0  0  0  0
 20 19  1  0  0  0  0
 20 25  1  0  0  0  0
 21 20  2  0  0  0  0
 22 17  2  0  0  0  0
 22 21  1  0  0  0  0
 26 27  1  0  0  0  0
 26 21  1  0  0  0  0
 26 29  1  0  0  0  0
 28 26  1  0  0  0  0
M  END
>  <minimizedAffinity>
-5.41522169

$$$$

 OpenBabel03272505483D

 29 31  0  0  0  0  0  0  0  0999 V2000
   39.1220   26.2520   34.3010 C   0  0  0  0  0  0  0  0  0  0  0  0
   40.3880   26.8540   34.7650 C   0  0  0  0  0  0  0  0  0  0  0  0
   40.3250   26.2180   33.4080 C   0  0  0  0  0  0  0  0  0  0  0  0
   40.4770   27.9650   34.7850 H   0  0  0  0  0  0  0  0  0  0  0  0
   40.9750   26.2520   35.4940 H   0  0  0  0  0  0  0  0  0  0  0  0
   40.7780   25.2240   33.2350 H   0  0  0  0  0  0  0  0  0  0  0  0
   40.2530   26.8200   32.4940 H   0  0  0  0  0  0  0  0  0  0  0  0
   36.1810   28.4940   34.3680 C   0  0  0  0  0  0  0  0  0  0  0  0
   35.8820   28.6480   32.9990 C   0  0  0  0  0  0  0  0  0  0  0  0
   36.6950   27.9750   32.0560 C   0  0  0  0  0  0  0  0  0  0  0  0
   37.7230   27.2110   32.5210 N   0  0  0  0  0  0  0  0  0  0  0  0
   37.9830   27.0840   33.8560 C   0  0  0  0  0  0  0  0  0  0  0  0
   37.2210   27.7160   34.7650 N   0  0  0  0  0  0  0  0  0  0  0  0
   35.5260   29.0310   35.0250 H   0  0  0  0  0  0  0  0  0  0  0  0
   35.0610   29.2610   32.6500 H   0  0  0  0  0  0  0  0  0  0  0  0
   36.5250   28.0470   30.9970 H   0  0  0  0  0  0  0  0  0  0  0  0
   38.6700   24.9600   34.9170 C   0  0  0  0  0  0  0  0  0  0  0  0
   38.3440   23.8910   34.1500 C   0  0  0  0  0  0  0  0  0  0  0  0
   37.9420   22.6960   34.7270 C   0  0  0  0  0  0  0  0  0  0  0  0
   37.8830   22.6260   36.1150 C   0  0  0  0  0  0  0  0  0  0  0  0
   38.2180   23.7300   36.9020 C   0  0  0  0  0  0  0  0  0  0  0  0
   38.5980   24.8500   36.2640 N   0  0  0  0  0  0  0  0  0  0  0  0
   38.3130   23.7830   33.0850 H   0  0  0  0  0  0  0  0  0  0  0  0
   37.6600   21.7820   34.2260 H   0  0  0  0  0  0  0  0  0  0  0  0
   37.5870   21.7590   36.6860 H   0  0  0  0  0  0  0  0  0  0  0  0
   38.1630   23.6880   38.3900 C   0  0  0  0  0  0  0  0  0  0  0  0
   39.3960   23.4430   38.9630 F   0  0  0  0  0  0  0  0  0  0  0  0
   37.2590   22.7580   38.8640 F   0  0  0  0  0  0  0  0  0  0  0  0
   37.7710   24.9210   38.9120 F   0  0  0  0  0  0  0  0  0  0  0  0
  1  2  1  0  0  0  0
  1 17  1  0  0  0  0
  2  4  1  0  0  0  0
  2  5  1  0  0  0  0
  3  1  1  0  0  0  0
  3  2  1  0  0  0  0
  6  3  1  0  0  0  0
  7  3  1  0  0  0  0
  8 13  1  0  0  0  0
  8 14  1  0  0  0  0
  9  8  2  0  0  0  0
 10 11  2  0  0  0  0
 10  9  1  0  0  0  0
 11 12  1  0  0  0  0
 12  1  1  0  0  0  0
 12 13  2  0  0  0  0
 15  9  1  0  0  0  0
 16 10  1  0  0  0  0
 17 22  1  0  0  0  0
 18 19  1  0  0  0  0
 18 17  2  0  0  0  0
 19 20  2  0  0  0  0
 20 25  1  0  0  0  0
 20 21  1  0  0  0  0
 21 26  1  0  0  0  0
 22 21  2  0  0  0  0
 23 18  1  0  0  0  0
 24 19  1  0  0  0  0
 26 28  1  0  0  0  0
 26 29  1  0  0  0  0
 26 27  1  0  0  0  0
M  END
>  <minimizedAffinity>
-5.41230011

$$$$

 OpenBabel03272505483D

 29 31  0  0  0  0  0  0  0  0999 V2000
   38.5980   22.7220   33.4820 C   0  0  0  0  0  0  0  0  0  0  0  0
   39.7380   22.8400   32.5500 C   0  0  0  0  0  0  0  0  0  0  0  0
   39.7670   21.7960   33.6280 C   0  0  0  0  0  0  0  0  0  0  0  0
   39.6180   22.4670   31.5070 H   0  0  0  0  0  0  0  0  0  0  0  0
   40.4420   23.6790   32.7470 H   0  0  0  0  0  0  0  0  0  0  0  0
   40.3950   21.9400   34.5270 H   0  0  0  0  0  0  0  0  0  0  0  0
   39.5660   20.7410   33.4110 H   0  0  0  0  0  0  0  0  0  0  0  0
   35.5630   20.6060   33.4600 C   0  0  0  0  0  0  0  0  0  0  0  0
   34.9110   21.0190   32.2810 C   0  0  0  0  0  0  0  0  0  0  0  0
   35.5220   22.0250   31.4930 C   0  0  0  0  0  0  0  0  0  0  0  0
   36.7100   22.5390   31.9160 N   0  0  0  0  0  0  0  0  0  0  0  0
   37.3140   22.1150   33.0660 C   0  0  0  0  0  0  0  0  0  0  0  0
   36.7480   21.1620   33.8240 N   0  0  0  0  0  0  0  0  0  0  0  0
   35.0450   19.8440   34.0060 H   0  0  0  0  0  0  0  0  0  0  0  0
   33.9660   20.5980   31.9630 H   0  0  0  0  0  0  0  0  0  0  0  0
   35.0810   22.3860   30.5820 H   0  0  0  0  0  0  0  0  0  0  0  0
   38.4080   23.7820   34.5270 C   0  0  0  0  0  0  0  0  0  0  0  0
   38.2200   25.0810   34.1860 C   0  0  0  0  0  0  0  0  0  0  0  0
   38.0310   26.0520   35.1560 C   0  0  0  0  0  0  0  0  0  0  0  0
   38.0400   25.6560   36.4900 C   0  0  0  0  0  0  0  0  0  0  0  0
   38.2360   24.3180   36.8370 C   0  0  0  0  0  0  0  0  0  0  0  0
   38.4110   23.4390   35.8360 N   0  0  0  0  0  0  0  0  0  0  0  0
   38.2080   25.5520   33.2240 H   0  0  0  0  0  0  0  0  0  0  0  0
   37.8710   27.1100   35.0100 H   0  0  0  0  0  0  0  0  0  0  0  0
   37.9050   26.3100   37.3380 H   0  0  0  0  0  0  0  0  0  0  0  0
   38.2540   23.8620   38.2560 C   0  0  0  0  0  0  0  0  0  0  0  0
   39.4790   23.3460   38.6350 F   0  0  0  0  0  0  0  0  0  0  0  0
   37.2740   22.9290   38.5270 F   0  0  0  0  0  0  0  0  0  0  0  0
   38.0360   24.9280   39.1280 F   0  0  0  0  0  0  0  0  0  0  0  0
  1  3  1  0  0  0  0
  1 17  1  0  0  0  0
  2  5  1  0  0  0  0
  2  1  1  0  0  0  0
  2  3  1  0  0  0  0
  3  6  1  0  0  0  0
  4  2  1  0  0  0  0
  7  3  1  0  0  0  0
  8 13  1  0  0  0  0
  8 14  1  0  0  0  0
  9  8  2  0  0  0  0
 10 11  2  0  0  0  0
 10  9  1  0  0  0  0
 11 12  1  0  0  0  0
 12  1  1  0  0  0  0
 12 13  2  0  0  0  0
 15  9  1  0  0  0  0
 16 10  1  0  0  0  0
 17 22  1  0  0  0  0
 18 17  2  0  0  0  0
 18 19  1  0  0  0  0
 19 20  2  0  0  0  0
 20 21  1  0  0  0  0
 20 25  1  0  0  0  0
 21 26  1  0  0  0  0
 22 21  2  0  0  0  0
 23 18  1  0  0  0  0
 24 19  1  0  0  0  0
 26 28  1  0  0  0  0
 26 27  1  0  0  0  0
 26 29  1  0  0  0  0
M  END
>  <minimizedAffinity>
-5.26505661

$$$$

 OpenBabel03272505483D

 29 31  0  0  0  0  0  0  0  0999 V2000
   38.4970   24.0600   36.9330 C   0  0  0  0  0  0  0  0  0  0  0  0
   37.9250   24.1210   38.2930 C   0  0  0  0  0  0  0  0  0  0  0  0
   37.3520   23.1610   37.2910 C   0  0  0  0  0  0  0  0  0  0  0  0
   38.4980   23.6690   39.1350 H   0  0  0  0  0  0  0  0  0  0  0  0
   37.2480   24.9800   38.4990 H   0  0  0  0  0  0  0  0  0  0  0  0
   36.3870   23.3790   36.7980 H   0  0  0  0  0  0  0  0  0  0  0  0
   37.5850   22.0900   37.3240 H   0  0  0  0  0  0  0  0  0  0  0  0
   41.7910   23.2950   35.4360 C   0  0  0  0  0  0  0  0  0  0  0  0
   42.2290   22.1970   36.2040 C   0  0  0  0  0  0  0  0  0  0  0  0
   41.3830   21.7200   37.2350 C   0  0  0  0  0  0  0  0  0  0  0  0
   40.1900   22.3470   37.4290 N   0  0  0  0  0  0  0  0  0  0  0  0
   39.7980   23.4100   36.6650 C   0  0  0  0  0  0  0  0  0  0  0  0
   40.5880   23.8740   35.6830 N   0  0  0  0  0  0  0  0  0  0  0  0
   42.4800   23.6020   34.6750 H   0  0  0  0  0  0  0  0  0  0  0  0
   43.1820   21.7120   36.0340 H   0  0  0  0  0  0  0  0  0  0  0  0
   41.6530   20.8870   37.8580 H   0  0  0  0  0  0  0  0  0  0  0  0
   38.2270   25.1940   35.9870 C   0  0  0  0  0  0  0  0  0  0  0  0
   38.4200   26.4830   36.3600 C   0  0  0  0  0  0  0  0  0  0  0  0
   38.1830   27.5240   35.4760 C   0  0  0  0  0  0  0  0  0  0  0  0
   37.7410   27.2080   34.1950 C   0  0  0  0  0  0  0  0  0  0  0  0
   37.5410   25.8790   33.8150 C   0  0  0  0  0  0  0  0  0  0  0  0
   37.7950   24.9290   34.7320 N   0  0  0  0  0  0  0  0  0  0  0  0
   38.7300   26.8960   37.2990 H   0  0  0  0  0  0  0  0  0  0  0  0
   38.3010   28.5820   35.6540 H   0  0  0  0  0  0  0  0  0  0  0  0
   37.5210   27.9200   33.4150 H   0  0  0  0  0  0  0  0  0  0  0  0
   37.0660   25.5080   32.4520 C   0  0  0  0  0  0  0  0  0  0  0  0
   36.5840   24.2140   32.3900 F   0  0  0  0  0  0  0  0  0  0  0  0
   38.0410   25.6670   31.4870 F   0  0  0  0  0  0  0  0  0  0  0  0
   35.9900   26.3040   32.0620 F   0  0  0  0  0  0  0  0  0  0  0  0
  1  3  1  0  0  0  0
  1  2  1  0  0  0  0
  2  5  1  0  0  0  0
  2  4  1  0  0  0  0
  3  7  1  0  0  0  0
  3  2  1  0  0  0  0
  6  3  1  0  0  0  0
  8 13  2  0  0  0  0
  8  9  1  0  0  0  0
  9 10  2  0  0  0  0
 10 11  1  0  0  0  0
 10 16  1  0  0  0  0
 12  1  1  0  0  0  0
 12 11  2  0  0  0  0
 13 12  1  0  0  0  0
 14  8  1  0  0  0  0
 15  9  1  0  0  0  0
 17 18  1  0  0  0  0
 17  1  1  0  0  0  0
 18 23  1  0  0  0  0
 19 24  1  0  0  0  0
 19 18  2  0  0  0  0
 20 19  1  0  0  0  0
 21 20  2  0  0  0  0
 21 22  1  0  0  0  0
 22 17  2  0  0  0  0
 25 20  1  0  0  0  0
 26 21  1  0  0  0  0
 27 26  1  0  0  0  0
 28 26  1  0  0  0  0
 29 26  1  0  0  0  0
M  END
>  <minimizedAffinity>
-5.23274755

$$$$

 OpenBabel03272505483D

 29 31  0  0  0  0  0  0  0  0999 V2000
   38.6590   25.1070   32.7400 C   0  0  0  0  0  0  0  0  0  0  0  0
   39.9150   25.3130   31.9910 C   0  0  0  0  0  0  0  0  0  0  0  0
   39.5710   23.9430   32.4980 C   0  0  0  0  0  0  0  0  0  0  0  0
   39.8620   25.4570   30.8870 H   0  0  0  0  0  0  0  0  0  0  0  0
   40.7490   25.7840   32.5580 H   0  0  0  0  0  0  0  0  0  0  0  0
   40.0850   23.5310   33.3860 H   0  0  0  0  0  0  0  0  0  0  0  0
   39.1800   23.1660   31.8310 H   0  0  0  0  0  0  0  0  0  0  0  0
   35.4670   23.8790   31.3300 C   0  0  0  0  0  0  0  0  0  0  0  0
   34.8870   25.0560   30.8150 C   0  0  0  0  0  0  0  0  0  0  0  0
   35.6010   26.2710   30.9520 C   0  0  0  0  0  0  0  0  0  0  0  0
   36.8130   26.2380   31.5740 N   0  0  0  0  0  0  0  0  0  0  0  0
   37.3450   25.0780   32.0620 C   0  0  0  0  0  0  0  0  0  0  0  0
   36.6810   23.9170   31.9400 N   0  0  0  0  0  0  0  0  0  0  0  0
   34.8730   22.9990   31.1930 H   0  0  0  0  0  0  0  0  0  0  0  0
   33.9220   25.0610   30.3250 H   0  0  0  0  0  0  0  0  0  0  0  0
   35.2200   27.2050   30.5820 H   0  0  0  0  0  0  0  0  0  0  0  0
   38.5600   25.6400   34.1400 C   0  0  0  0  0  0  0  0  0  0  0  0
   38.6460   26.9680   34.3950 C   0  0  0  0  0  0  0  0  0  0  0  0
   38.5390   27.4540   35.6890 C   0  0  0  0  0  0  0  0  0  0  0  0
   38.3400   26.5390   36.7180 C   0  0  0  0  0  0  0  0  0  0  0  0
   38.2540   25.1710   36.4520 C   0  0  0  0  0  0  0  0  0  0  0  0
   38.3670   24.7830   35.1700 N   0  0  0  0  0  0  0  0  0  0  0  0
   38.8180   27.7940   33.7340 H   0  0  0  0  0  0  0  0  0  0  0  0
   38.5890   28.4820   36.0160 H   0  0  0  0  0  0  0  0  0  0  0  0
   38.2410   26.7850   37.7640 H   0  0  0  0  0  0  0  0  0  0  0  0
   38.0440   24.1650   37.5310 C   0  0  0  0  0  0  0  0  0  0  0  0
   37.0370   23.2660   37.2340 F   0  0  0  0  0  0  0  0  0  0  0  0
   37.7760   24.7450   38.7540 F   0  0  0  0  0  0  0  0  0  0  0  0
   39.1800   23.3760   37.7080 F   0  0  0  0  0  0  0  0  0  0  0  0
  1 17  1  0  0  0  0
  2  3  1  0  0  0  0
  2  5  1  0  0  0  0
  2  1  1  0  0  0  0
  3  1  1  0  0  0  0
  3  6  1  0  0  0  0
  4  2  1  0  0  0  0
  7  3  1  0  0  0  0
  8 13  1  0  0  0  0
  9 10  1  0  0  0  0
  9  8  2  0  0  0  0
 10 11  2  0  0  0  0
 11 12  1  0  0  0  0
 12  1  1  0  0  0  0
 13 12  2  0  0  0  0
 14  8  1  0  0  0  0
 15  9  1  0  0  0  0
 16 10  1  0  0  0  0
 17 18  2  0  0  0  0
 17 22  1  0  0  0  0
 18 19  1  0  0  0  0
 19 24  1  0  0  0  0
 19 20  2  0  0  0  0
 20 25  1  0  0  0  0
 21 20  1  0  0  0  0
 21 26  1  0  0  0  0
 22 21  2  0  0  0  0
 23 18  1  0  0  0  0
 26 29  1  0  0  0  0
 26 28  1  0  0  0  0
 27 26  1  0  0  0  0
M  END
>  <minimizedAffinity>
-5.17479563

$$$$

 OpenBabel03272505483D

 29 31  0  0  0  0  0  0  0  0999 V2000
   39.1150   23.6800   33.8780 C   0  0  0  0  0  0  0  0  0  0  0  0
   40.4160   23.4500   33.2190 C   0  0  0  0  0  0  0  0  0  0  0  0
   39.8940   24.8500   33.3580 C   0  0  0  0  0  0  0  0  0  0  0  0
   41.2970   23.1880   33.8490 H   0  0  0  0  0  0  0  0  0  0  0  0
   40.3720   23.0790   32.1700 H   0  0  0  0  0  0  0  0  0  0  0  0
   39.4640   25.3750   32.4860 H   0  0  0  0  0  0  0  0  0  0  0  0
   40.2840   25.5340   34.1210 H   0  0  0  0  0  0  0  0  0  0  0  0
   39.6780   22.7240   37.4060 C   0  0  0  0  0  0  0  0  0  0  0  0
   38.6630   23.4310   38.0810 C   0  0  0  0  0  0  0  0  0  0  0  0
   37.7830   24.2340   37.3160 C   0  0  0  0  0  0  0  0  0  0  0  0
   37.9630   24.2790   35.9670 N   0  0  0  0  0  0  0  0  0  0  0  0
   38.9590   23.5800   35.3450 C   0  0  0  0  0  0  0  0  0  0  0  0
   39.8020   22.8130   36.0570 N   0  0  0  0  0  0  0  0  0  0  0  0
   40.3060   22.1380   38.0470 H   0  0  0  0  0  0  0  0  0  0  0  0
   38.5360   23.3820   39.1550 H   0  0  0  0  0  0  0  0  0  0  0  0
   36.9860   24.7990   37.7640 H   0  0  0  0  0  0  0  0  0  0  0  0
   37.8600   23.2950   33.1500 C   0  0  0  0  0  0  0  0  0  0  0  0
   37.2760   24.1360   32.2610 C   0  0  0  0  0  0  0  0  0  0  0  0
   36.1260   23.7680   31.5810 C   0  0  0  0  0  0  0  0  0  0  0  0
   35.5880   22.5100   31.8370 C   0  0  0  0  0  0  0  0  0  0  0  0
   36.1910   21.6480   32.7550 C   0  0  0  0  0  0  0  0  0  0  0  0
   37.3040   22.0810   33.3710 N   0  0  0  0  0  0  0  0  0  0  0  0
   37.5420   25.1310   31.9670 H   0  0  0  0  0  0  0  0  0  0  0  0
   35.5740   24.3450   30.8540 H   0  0  0  0  0  0  0  0  0  0  0  0
   34.7000   22.1040   31.3770 H   0  0  0  0  0  0  0  0  0  0  0  0
   35.6380   20.2960   33.0540 C   0  0  0  0  0  0  0  0  0  0  0  0
   34.4500   20.0480   32.3940 F   0  0  0  0  0  0  0  0  0  0  0  0
   35.4510   20.0850   34.4050 F   0  0  0  0  0  0  0  0  0  0  0  0
   36.5010   19.2940   32.6140 F   0  0  0  0  0  0  0  0  0  0  0  0
  1 12  1  0  0  0  0
  2  3  1  0  0  0  0
  2  4  1  0  0  0  0
  2  1  1  0  0  0  0
  3  1  1  0  0  0  0
  3  7  1  0  0  0  0
  5  2  1  0  0  0  0
  6  3  1  0  0  0  0
  8 14  1  0  0  0  0
  8  9  1  0  0  0  0
  9 15  1  0  0  0  0
 10 16  1  0  0  0  0
 10  9  2  0  0  0  0
 11 10  1  0  0  0  0
 12 11  2  0  0  0  0
 12 13  1  0  0  0  0
 13  8  2  0  0  0  0
 17 22  1  0  0  0  0
 17  1  1  0  0  0  0
 18 17  2  0  0  0  0
 19 20  2  0  0  0  0
 19 18  1  0  0  0  0
 20 21  1  0  0  0  0
 21 26  1  0  0  0  0
 21 22  2  0  0  0  0
 23 18  1  0  0  0  0
 24 19  1  0  0  0  0
 25 20  1  0  0  0  0
 26 28  1  0  0  0  0
 27 26  1  0  0  0  0
 29 26  1  0  0  0  0
M  END
>  <minimizedAffinity>
-5.00239277

$$$$

 OpenBabel03272505483D

 29 31  0  0  0  0  0  0  0  0999 V2000
   38.4420   23.4040   36.7070 C   0  0  0  0  0  0  0  0  0  0  0  0
   38.0470   24.8230   36.8020 C   0  0  0  0  0  0  0  0  0  0  0  0
   38.0160   23.9620   38.0300 C   0  0  0  0  0  0  0  0  0  0  0  0
   38.8420   25.6040   36.7680 H   0  0  0  0  0  0  0  0  0  0  0  0
   37.0280   25.0710   36.4270 H   0  0  0  0  0  0  0  0  0  0  0  0
   37.0530   23.5930   38.4300 H   0  0  0  0  0  0  0  0  0  0  0  0
   38.8010   24.0220   38.7930 H   0  0  0  0  0  0  0  0  0  0  0  0
   41.9850   23.3300   35.6450 C   0  0  0  0  0  0  0  0  0  0  0  0
   42.5000   22.2390   36.3740 C   0  0  0  0  0  0  0  0  0  0  0  0
   41.6220   21.5280   37.2290 C   0  0  0  0  0  0  0  0  0  0  0  0
   40.3240   21.9360   37.2990 N   0  0  0  0  0  0  0  0  0  0  0  0
   39.8590   22.9990   36.5780 C   0  0  0  0  0  0  0  0  0  0  0  0
   40.6780   23.6830   35.7630 N   0  0  0  0  0  0  0  0  0  0  0  0
   42.7040   23.8200   35.0210 H   0  0  0  0  0  0  0  0  0  0  0  0
   43.5360   21.9310   36.3050 H   0  0  0  0  0  0  0  0  0  0  0  0
   41.9470   20.6860   37.8130 H   0  0  0  0  0  0  0  0  0  0  0  0
   37.5160   22.4420   36.0210 C   0  0  0  0  0  0  0  0  0  0  0  0
   36.5230   21.8160   36.7000 C   0  0  0  0  0  0  0  0  0  0  0  0
   35.6620   20.9410   36.0570 C   0  0  0  0  0  0  0  0  0  0  0  0
   35.8460   20.7230   34.6950 C   0  0  0  0  0  0  0  0  0  0  0  0
   36.8700   21.3680   34.0000 C   0  0  0  0  0  0  0  0  0  0  0  0
   37.6610   22.2020   34.6970 N   0  0  0  0  0  0  0  0  0  0  0  0
   36.2600   21.8520   37.7380 H   0  0  0  0  0  0  0  0  0  0  0  0
   34.8390   20.3880   36.4860 H   0  0  0  0  0  0  0  0  0  0  0  0
   35.2470   20.0690   34.0790 H   0  0  0  0  0  0  0  0  0  0  0  0
   37.0960   21.1540   32.5420 C   0  0  0  0  0  0  0  0  0  0  0  0
   35.9540   21.3590   31.7900 F   0  0  0  0  0  0  0  0  0  0  0  0
   37.5970   19.9000   32.2600 F   0  0  0  0  0  0  0  0  0  0  0  0
   38.0180   22.0710   32.0380 F   0  0  0  0  0  0  0  0  0  0  0  0
  1  2  1  0  0  0  0
  1  3  1  0  0  0  0
  2  3  1  0  0  0  0
  3  6  1  0  0  0  0
  3  7  1  0  0  0  0
  4  2  1  0  0  0  0
  5  2  1  0  0  0  0
  8 13  2  0  0  0  0
  8  9  1  0  0  0  0
  9 10  2  0  0  0  0
 10 11  1  0  0  0  0
 10 16  1  0  0  0  0
 12  1  1  0  0  0  0
 12 11  2  0  0  0  0
 13 12  1  0  0  0  0
 14  8  1  0  0  0  0
 15  9  1  0  0  0  0
 17 18  1  0  0  0  0
 17  1  1  0  0  0  0
 18 23  1  0  0  0  0
 19 24  1  0  0  0  0
 19 18  2  0  0  0  0
 20 19  1  0  0  0  0
 21 20  2  0  0  0  0
 21 22  1  0  0  0  0
 22 17  2  0  0  0  0
 25 20  1  0  0  0  0
 26 21  1  0  0  0  0
 27 26  1  0  0  0  0
 28 26  1  0  0  0  0
 29 26  1  0  0  0  0
M  END
>  <minimizedAffinity>
-4.9777236

$$$$
