
 OpenBabel03272506593D

 23 24  0  0  0  0  0  0  0  0999 V2000
   38.4350   24.1080   34.7430 C   0  0  0  0  0  0  0  0  0  0  0  0
   39.4920   23.2650   34.5540 C   0  0  0  0  0  0  0  0  0  0  0  0
   40.1910   22.5890   35.5260 C   0  0  0  0  0  0  0  0  0  0  0  0
   39.7700   22.7970   36.7890 N   0  0  0  0  0  0  0  0  0  0  0  0
   38.7170   23.6310   37.0290 C   0  0  0  0  0  0  0  0  0  0  0  0
   38.0520   24.2820   36.0350 N   0  0  0  0  0  0  0  0  0  0  0  0
   39.8200   23.1080   33.5270 H   0  0  0  0  0  0  0  0  0  0  0  0
   41.0080   21.9500   35.2720 H   0  0  0  0  0  0  0  0  0  0  0  0
   36.8880   24.6300   31.4950 C   0  0  0  0  0  0  0  0  0  0  0  0
   36.4960   25.9590   31.4800 C   0  0  0  0  0  0  0  0  0  0  0  0
   36.7890   26.6800   32.6540 C   0  0  0  0  0  0  0  0  0  0  0  0
   37.4120   26.0870   33.7040 N   0  0  0  0  0  0  0  0  0  0  0  0
   37.7590   24.7800   33.6290 C   0  0  0  0  0  0  0  0  0  0  0  0
   37.5090   24.0260   32.5340 N   0  0  0  0  0  0  0  0  0  0  0  0
   36.7040   23.9980   30.6370 H   0  0  0  0  0  0  0  0  0  0  0  0
   36.4930   27.7200   32.6650 H   0  0  0  0  0  0  0  0  0  0  0  0
   35.8510   26.5360   30.3660 N   0  0  0  0  0  0  0  0  0  0  0  0
   35.0580   27.2250   30.4430 H   0  0  0  0  0  0  0  0  0  0  0  0
   36.2540   26.2000   29.4550 H   0  0  0  0  0  0  0  0  0  0  0  0
   38.2970   23.8200   38.4510 C   0  0  0  0  0  0  0  0  0  0  0  0
   39.3900   23.5630   39.2690 F   0  0  0  0  0  0  0  0  0  0  0  0
   37.8890   25.1180   38.6800 F   0  0  0  0  0  0  0  0  0  0  0  0
   37.3100   22.9120   38.7760 F   0  0  0  0  0  0  0  0  0  0  0  0
  1  6  1  0  0  0  0
  2  1  2  0  0  0  0
  2  3  1  0  0  0  0
  3  4  2  0  0  0  0
  4  5  1  0  0  0  0
  5 20  1  0  0  0  0
  6  5  2  0  0  0  0
  7  2  1  0  0  0  0
  8  3  1  0  0  0  0
  9 14  1  0  0  0  0
 10  9  2  0  0  0  0
 10 11  1  0  0  0  0
 11 16  1  0  0  0  0
 11 12  2  0  0  0  0
 13 12  1  0  0  0  0
 13  1  1  0  0  0  0
 14 13  2  0  0  0  0
 15  9  1  0  0  0  0
 17 18  1  0  0  0  0
 17 10  1  0  0  0  0
 19 17  1  0  0  0  0
 20 22  1  0  0  0  0
 20 23  1  0  0  0  0
 20 21  1  0  0  0  0
M  END
>  <minimizedAffinity>
-5.15321064

$$$$

 OpenBabel03272506593D

 23 24  0  0  0  0  0  0  0  0999 V2000
   38.4000   23.8650   34.6240 C   0  0  0  0  0  0  0  0  0  0  0  0
   39.3990   22.9510   34.4600 C   0  0  0  0  0  0  0  0  0  0  0  0
   40.0750   22.2800   35.4520 C   0  0  0  0  0  0  0  0  0  0  0  0
   39.6900   22.5730   36.7090 N   0  0  0  0  0  0  0  0  0  0  0  0
   38.6930   23.4800   36.9250 C   0  0  0  0  0  0  0  0  0  0  0  0
   38.0510   24.1220   35.9120 N   0  0  0  0  0  0  0  0  0  0  0  0
   39.6990   22.7260   33.4360 H   0  0  0  0  0  0  0  0  0  0  0  0
   40.8460   21.5810   35.2160 H   0  0  0  0  0  0  0  0  0  0  0  0
   36.8050   26.4460   32.6210 C   0  0  0  0  0  0  0  0  0  0  0  0
   36.5060   25.8440   31.4090 C   0  0  0  0  0  0  0  0  0  0  0  0
   36.8840   24.4910   31.3070 C   0  0  0  0  0  0  0  0  0  0  0  0
   37.4930   23.8540   32.3390 N   0  0  0  0  0  0  0  0  0  0  0  0
   37.7450   24.5240   33.4880 C   0  0  0  0  0  0  0  0  0  0  0  0
   37.4120   25.8230   33.6580 N   0  0  0  0  0  0  0  0  0  0  0  0
   36.5530   27.4840   32.7910 H   0  0  0  0  0  0  0  0  0  0  0  0
   36.6600   24.0000   30.3700 H   0  0  0  0  0  0  0  0  0  0  0  0
   35.8710   26.5450   30.3620 N   0  0  0  0  0  0  0  0  0  0  0  0
   36.1240   26.4300   29.3460 H   0  0  0  0  0  0  0  0  0  0  0  0
   35.1200   27.1910   30.7150 H   0  0  0  0  0  0  0  0  0  0  0  0
   38.3120   23.7610   38.3430 C   0  0  0  0  0  0  0  0  0  0  0  0
   39.4150   23.5180   39.1500 F   0  0  0  0  0  0  0  0  0  0  0  0
   37.9460   25.0820   38.5060 F   0  0  0  0  0  0  0  0  0  0  0  0
   37.3060   22.9030   38.7400 F   0  0  0  0  0  0  0  0  0  0  0  0
  1  6  1  0  0  0  0
  2  1  2  0  0  0  0
  2  3  1  0  0  0  0
  3  4  2  0  0  0  0
  4  5  1  0  0  0  0
  5 20  1  0  0  0  0
  6  5  2  0  0  0  0
  7  2  1  0  0  0  0
  8  3  1  0  0  0  0
  9 15  1  0  0  0  0
  9 14  1  0  0  0  0
 10  9  2  0  0  0  0
 11 10  1  0  0  0  0
 11 12  2  0  0  0  0
 12 13  1  0  0  0  0
 13 14  2  0  0  0  0
 13  1  1  0  0  0  0
 16 11  1  0  0  0  0
 17 19  1  0  0  0  0
 17 10  1  0  0  0  0
 18 17  1  0  0  0  0
 20 22  1  0  0  0  0
 20 23  1  0  0  0  0
 20 21  1  0  0  0  0
M  END
>  <minimizedAffinity>
-5.12007666

$$$$

 OpenBabel03272506593D

 23 24  0  0  0  0  0  0  0  0999 V2000
   37.7560   25.6340   34.7060 C   0  0  0  0  0  0  0  0  0  0  0  0
   37.4770   26.9050   35.1180 C   0  0  0  0  0  0  0  0  0  0  0  0
   36.8550   27.8910   34.3880 C   0  0  0  0  0  0  0  0  0  0  0  0
   36.4930   27.5410   33.1390 N   0  0  0  0  0  0  0  0  0  0  0  0
   36.7490   26.2810   32.6810 C   0  0  0  0  0  0  0  0  0  0  0  0
   37.3680   25.3350   33.4380 N   0  0  0  0  0  0  0  0  0  0  0  0
   37.7770   27.1710   36.1320 H   0  0  0  0  0  0  0  0  0  0  0  0
   36.6830   28.8580   34.8060 H   0  0  0  0  0  0  0  0  0  0  0  0
   40.2230   23.2460   35.8980 C   0  0  0  0  0  0  0  0  0  0  0  0
   39.7560   22.8130   37.1290 C   0  0  0  0  0  0  0  0  0  0  0  0
   38.5370   23.3870   37.5390 C   0  0  0  0  0  0  0  0  0  0  0  0
   37.8930   24.2940   36.7620 N   0  0  0  0  0  0  0  0  0  0  0  0
   38.4260   24.6580   35.5710 C   0  0  0  0  0  0  0  0  0  0  0  0
   39.5920   24.1490   35.1130 N   0  0  0  0  0  0  0  0  0  0  0  0
   41.1520   22.8600   35.5010 H   0  0  0  0  0  0  0  0  0  0  0  0
   38.1530   23.0640   38.4970 H   0  0  0  0  0  0  0  0  0  0  0  0
   40.4590   21.8660   37.9040 N   0  0  0  0  0  0  0  0  0  0  0  0
   40.5460   21.9210   38.9530 H   0  0  0  0  0  0  0  0  0  0  0  0
   40.8800   21.1040   37.3160 H   0  0  0  0  0  0  0  0  0  0  0  0
   36.3220   25.9550   31.2860 C   0  0  0  0  0  0  0  0  0  0  0  0
   36.2400   27.1380   30.5640 F   0  0  0  0  0  0  0  0  0  0  0  0
   37.2440   25.1380   30.6640 F   0  0  0  0  0  0  0  0  0  0  0  0
   35.0650   25.3850   31.2990 F   0  0  0  0  0  0  0  0  0  0  0  0
  1  2  1  0  0  0  0
  1 13  1  0  0  0  0
  2  7  1  0  0  0  0
  3  8  1  0  0  0  0
  3  2  2  0  0  0  0
  4  3  1  0  0  0  0
  5  4  2  0  0  0  0
  5  6  1  0  0  0  0
  6  1  2  0  0  0  0
  9 10  1  0  0  0  0
 10 11  2  0  0  0  0
 10 17  1  0  0  0  0
 11 16  1  0  0  0  0
 12 11  1  0  0  0  0
 13 12  2  0  0  0  0
 14 13  1  0  0  0  0
 14  9  2  0  0  0  0
 15  9  1  0  0  0  0
 17 18  1  0  0  0  0
 19 17  1  0  0  0  0
 20 23  1  0  0  0  0
 20  5  1  0  0  0  0
 21 20  1  0  0  0  0
 22 20  1  0  0  0  0
M  END
>  <minimizedAffinity>
-5.01906443

$$$$

 OpenBabel03272506593D

 23 24  0  0  0  0  0  0  0  0999 V2000
   37.7310   22.5910   34.5570 C   0  0  0  0  0  0  0  0  0  0  0  0
   38.2360   23.7200   33.9800 C   0  0  0  0  0  0  0  0  0  0  0  0
   38.7640   24.8120   34.6280 C   0  0  0  0  0  0  0  0  0  0  0  0
   38.7730   24.7360   35.9720 N   0  0  0  0  0  0  0  0  0  0  0  0
   38.2790   23.6260   36.5970 C   0  0  0  0  0  0  0  0  0  0  0  0
   37.7640   22.5670   35.9150 N   0  0  0  0  0  0  0  0  0  0  0  0
   38.2210   23.7650   32.8910 H   0  0  0  0  0  0  0  0  0  0  0  0
   39.1350   25.6500   34.0800 H   0  0  0  0  0  0  0  0  0  0  0  0
   35.4690   19.9790   33.4290 C   0  0  0  0  0  0  0  0  0  0  0  0
   36.0950   19.3900   32.3410 C   0  0  0  0  0  0  0  0  0  0  0  0
   37.3480   19.9390   32.0060 C   0  0  0  0  0  0  0  0  0  0  0  0
   37.8750   20.9680   32.7170 N   0  0  0  0  0  0  0  0  0  0  0  0
   37.1900   21.4810   33.7670 C   0  0  0  0  0  0  0  0  0  0  0  0
   35.9820   21.0050   34.1460 N   0  0  0  0  0  0  0  0  0  0  0  0
   34.5020   19.6240   33.7590 H   0  0  0  0  0  0  0  0  0  0  0  0
   37.8550   19.4950   31.1600 H   0  0  0  0  0  0  0  0  0  0  0  0
   35.5100   18.3210   31.6310 N   0  0  0  0  0  0  0  0  0  0  0  0
   35.5560   18.2230   30.5830 H   0  0  0  0  0  0  0  0  0  0  0  0
   35.0280   17.6370   32.2670 H   0  0  0  0  0  0  0  0  0  0  0  0
   38.3170   23.6020   38.0910 C   0  0  0  0  0  0  0  0  0  0  0  0
   37.2910   22.7820   38.5420 F   0  0  0  0  0  0  0  0  0  0  0  0
   39.5110   23.0830   38.5490 F   0  0  0  0  0  0  0  0  0  0  0  0
   38.0890   24.8690   38.5890 F   0  0  0  0  0  0  0  0  0  0  0  0
  1  6  1  0  0  0  0
  2  1  2  0  0  0  0
  2  3  1  0  0  0  0
  3  4  2  0  0  0  0
  4  5  1  0  0  0  0
  5 20  1  0  0  0  0
  6  5  2  0  0  0  0
  7  2  1  0  0  0  0
  8  3  1  0  0  0  0
  9 15  1  0  0  0  0
  9 14  1  0  0  0  0
 10  9  2  0  0  0  0
 11 10  1  0  0  0  0
 11 12  2  0  0  0  0
 12 13  1  0  0  0  0
 13 14  2  0  0  0  0
 13  1  1  0  0  0  0
 16 11  1  0  0  0  0
 17 19  1  0  0  0  0
 17 10  1  0  0  0  0
 18 17  1  0  0  0  0
 20 21  1  0  0  0  0
 20 22  1  0  0  0  0
 20 23  1  0  0  0  0
M  END
>  <minimizedAffinity>
-4.95170546

$$$$

 OpenBabel03272506593D

 23 24  0  0  0  0  0  0  0  0999 V2000
   37.5660   25.8880   34.4110 C   0  0  0  0  0  0  0  0  0  0  0  0
   37.4300   25.6150   33.0820 C   0  0  0  0  0  0  0  0  0  0  0  0
   36.8390   26.4140   32.1310 C   0  0  0  0  0  0  0  0  0  0  0  0
   36.3540   27.5860   32.5860 N   0  0  0  0  0  0  0  0  0  0  0  0
   36.4670   27.9060   33.9080 C   0  0  0  0  0  0  0  0  0  0  0  0
   37.0590   27.0820   34.8150 N   0  0  0  0  0  0  0  0  0  0  0  0
   37.8280   24.6620   32.7310 H   0  0  0  0  0  0  0  0  0  0  0  0
   36.7830   26.1060   31.1110 H   0  0  0  0  0  0  0  0  0  0  0  0
   38.2100   23.9450   37.4150 C   0  0  0  0  0  0  0  0  0  0  0  0
   39.3700   23.2320   37.1550 C   0  0  0  0  0  0  0  0  0  0  0  0
   39.9300   23.4510   35.8810 C   0  0  0  0  0  0  0  0  0  0  0  0
   39.3520   24.3040   34.9980 N   0  0  0  0  0  0  0  0  0  0  0  0
   38.2170   24.9580   35.3400 C   0  0  0  0  0  0  0  0  0  0  0  0
   37.6220   24.7970   36.5440 N   0  0  0  0  0  0  0  0  0  0  0  0
   37.7080   23.8400   38.3680 H   0  0  0  0  0  0  0  0  0  0  0  0
   40.8370   22.9060   35.6560 H   0  0  0  0  0  0  0  0  0  0  0  0
   39.9380   22.3560   38.1040 N   0  0  0  0  0  0  0  0  0  0  0  0
   40.3690   21.4280   37.8550 H   0  0  0  0  0  0  0  0  0  0  0  0
   39.8820   22.7380   39.0820 H   0  0  0  0  0  0  0  0  0  0  0  0
   35.9090   29.2190   34.3500 C   0  0  0  0  0  0  0  0  0  0  0  0
   34.5720   29.0390   34.6810 F   0  0  0  0  0  0  0  0  0  0  0  0
   36.5660   29.6870   35.4690 F   0  0  0  0  0  0  0  0  0  0  0  0
   35.9630   30.1280   33.3120 F   0  0  0  0  0  0  0  0  0  0  0  0
  1  6  1  0  0  0  0
  1 13  1  0  0  0  0
  2  1  2  0  0  0  0
  3  4  2  0  0  0  0
  3  2  1  0  0  0  0
  4  5  1  0  0  0  0
  5 20  1  0  0  0  0
  5  6  2  0  0  0  0
  7  2  1  0  0  0  0
  8  3  1  0  0  0  0
  9 15  1  0  0  0  0
 10  9  1  0  0  0  0
 10 17  1  0  0  0  0
 11 10  2  0  0  0  0
 12 13  2  0  0  0  0
 12 11  1  0  0  0  0
 13 14  1  0  0  0  0
 14  9  2  0  0  0  0
 16 11  1  0  0  0  0
 17 19  1  0  0  0  0
 18 17  1  0  0  0  0
 20 21  1  0  0  0  0
 20 22  1  0  0  0  0
 23 20  1  0  0  0  0
M  END
>  <minimizedAffinity>
-4.92108583

$$$$

 OpenBabel03272506593D

 23 24  0  0  0  0  0  0  0  0999 V2000
   38.4360   24.5200   36.1550 C   0  0  0  0  0  0  0  0  0  0  0  0
   37.8300   24.4270   37.3740 C   0  0  0  0  0  0  0  0  0  0  0  0
   38.2510   23.6820   38.4500 C   0  0  0  0  0  0  0  0  0  0  0  0
   39.3840   22.9790   38.2560 N   0  0  0  0  0  0  0  0  0  0  0  0
   40.0270   23.0400   37.0540 C   0  0  0  0  0  0  0  0  0  0  0  0
   39.5740   23.7910   36.0140 N   0  0  0  0  0  0  0  0  0  0  0  0
   36.9140   25.0020   37.5150 H   0  0  0  0  0  0  0  0  0  0  0  0
   37.7010   23.6780   39.3650 H   0  0  0  0  0  0  0  0  0  0  0  0
   37.3790   25.5430   32.8310 C   0  0  0  0  0  0  0  0  0  0  0  0
   36.9050   26.8370   32.9730 C   0  0  0  0  0  0  0  0  0  0  0  0
   36.9640   27.3510   34.2830 C   0  0  0  0  0  0  0  0  0  0  0  0
   37.4550   26.6080   35.3070 N   0  0  0  0  0  0  0  0  0  0  0  0
   37.8970   25.3500   35.0730 C   0  0  0  0  0  0  0  0  0  0  0  0
   37.8710   24.7900   33.8420 N   0  0  0  0  0  0  0  0  0  0  0  0
   37.3730   25.0640   31.8610 H   0  0  0  0  0  0  0  0  0  0  0  0
   36.5990   28.3610   34.4190 H   0  0  0  0  0  0  0  0  0  0  0  0
   36.4030   27.5740   31.8800 N   0  0  0  0  0  0  0  0  0  0  0  0
   35.5630   28.2060   31.9410 H   0  0  0  0  0  0  0  0  0  0  0  0
   36.9650   27.4190   31.0050 H   0  0  0  0  0  0  0  0  0  0  0  0
   41.2790   22.2370   36.9010 C   0  0  0  0  0  0  0  0  0  0  0  0
   41.3560   21.3390   37.9580 F   0  0  0  0  0  0  0  0  0  0  0  0
   41.2640   21.5130   35.7260 F   0  0  0  0  0  0  0  0  0  0  0  0
   42.3820   23.0640   36.9740 F   0  0  0  0  0  0  0  0  0  0  0  0
  1  2  1  0  0  0  0
  2  7  1  0  0  0  0
  2  3  2  0  0  0  0
  3  8  1  0  0  0  0
  4  3  1  0  0  0  0
  5  4  2  0  0  0  0
  6  1  2  0  0  0  0
  6  5  1  0  0  0  0
  9 10  2  0  0  0  0
  9 14  1  0  0  0  0
 10 11  1  0  0  0  0
 11 16  1  0  0  0  0
 11 12  2  0  0  0  0
 13 12  1  0  0  0  0
 13  1  1  0  0  0  0
 14 13  2  0  0  0  0
 15  9  1  0  0  0  0
 17 18  1  0  0  0  0
 17 10  1  0  0  0  0
 19 17  1  0  0  0  0
 20 23  1  0  0  0  0
 20  5  1  0  0  0  0
 20 21  1  0  0  0  0
 22 20  1  0  0  0  0
M  END
>  <minimizedAffinity>
-4.83499765

$$$$

 OpenBabel03272506593D

 23 24  0  0  0  0  0  0  0  0999 V2000
   37.7750   24.5600   33.6880 C   0  0  0  0  0  0  0  0  0  0  0  0
   37.4600   23.8990   32.5370 C   0  0  0  0  0  0  0  0  0  0  0  0
   36.8480   24.4260   31.4240 C   0  0  0  0  0  0  0  0  0  0  0  0
   36.5370   25.7340   31.5030 N   0  0  0  0  0  0  0  0  0  0  0  0
   36.8330   26.4390   32.6340 C   0  0  0  0  0  0  0  0  0  0  0  0
   37.4390   25.8760   33.7150 N   0  0  0  0  0  0  0  0  0  0  0  0
   37.7190   22.8410   32.4900 H   0  0  0  0  0  0  0  0  0  0  0  0
   36.6450   23.8200   30.5690 H   0  0  0  0  0  0  0  0  0  0  0  0
   40.0140   22.3790   35.5450 C   0  0  0  0  0  0  0  0  0  0  0  0
   39.7180   22.5940   36.8810 C   0  0  0  0  0  0  0  0  0  0  0  0
   38.7000   23.5370   37.1220 C   0  0  0  0  0  0  0  0  0  0  0  0
   38.0750   24.1700   36.0970 N   0  0  0  0  0  0  0  0  0  0  0  0
   38.4310   23.8960   34.8190 C   0  0  0  0  0  0  0  0  0  0  0  0
   39.4000   23.0030   34.5130 N   0  0  0  0  0  0  0  0  0  0  0  0
   40.7830   21.6720   35.2630 H   0  0  0  0  0  0  0  0  0  0  0  0
   38.4520   23.7210   38.1580 H   0  0  0  0  0  0  0  0  0  0  0  0
   40.3940   21.9120   37.9160 N   0  0  0  0  0  0  0  0  0  0  0  0
   40.6790   22.3650   38.8230 H   0  0  0  0  0  0  0  0  0  0  0  0
   40.5760   20.9050   37.6750 H   0  0  0  0  0  0  0  0  0  0  0  0
   36.4620   27.8870   32.6610 C   0  0  0  0  0  0  0  0  0  0  0  0
   35.2240   28.0340   32.0500 F   0  0  0  0  0  0  0  0  0  0  0  0
   36.3560   28.3490   33.9570 F   0  0  0  0  0  0  0  0  0  0  0  0
   37.3770   28.6220   31.9330 F   0  0  0  0  0  0  0  0  0  0  0  0
  1  6  1  0  0  0  0
  1 13  1  0  0  0  0
  2  1  2  0  0  0  0
  3  4  2  0  0  0  0
  3  2  1  0  0  0  0
  4  5  1  0  0  0  0
  5 20  1  0  0  0  0
  5  6  2  0  0  0  0
  7  2  1  0  0  0  0
  8  3  1  0  0  0  0
  9 10  1  0  0  0  0
 10 11  2  0  0  0  0
 10 17  1  0  0  0  0
 11 16  1  0  0  0  0
 12 11  1  0  0  0  0
 13 12  2  0  0  0  0
 14 13  1  0  0  0  0
 14  9  2  0  0  0  0
 15  9  1  0  0  0  0
 17 18  1  0  0  0  0
 19 17  1  0  0  0  0
 20 22  1  0  0  0  0
 21 20  1  0  0  0  0
 23 20  1  0  0  0  0
M  END
>  <minimizedAffinity>
-4.6584425

$$$$

 OpenBabel03272506593D

 23 24  0  0  0  0  0  0  0  0999 V2000
   38.3200   24.3810   34.4510 C   0  0  0  0  0  0  0  0  0  0  0  0
   38.1450   25.7220   34.6290 C   0  0  0  0  0  0  0  0  0  0  0  0
   37.4250   26.5730   33.8230 C   0  0  0  0  0  0  0  0  0  0  0  0
   36.8410   25.9980   32.7540 N   0  0  0  0  0  0  0  0  0  0  0  0
   36.9860   24.6590   32.5350 C   0  0  0  0  0  0  0  0  0  0  0  0
   37.7100   23.8530   33.3580 N   0  0  0  0  0  0  0  0  0  0  0  0
   38.6240   26.1720   35.4990 H   0  0  0  0  0  0  0  0  0  0  0  0
   37.3490   27.6140   34.0520 H   0  0  0  0  0  0  0  0  0  0  0  0
   40.7480   21.9590   35.6580 C   0  0  0  0  0  0  0  0  0  0  0  0
   40.6450   21.9870   37.0400 C   0  0  0  0  0  0  0  0  0  0  0  0
   39.6910   22.8890   37.5480 C   0  0  0  0  0  0  0  0  0  0  0  0
   38.9430   23.6600   36.7180 N   0  0  0  0  0  0  0  0  0  0  0  0
   39.1130   23.5650   35.3770 C   0  0  0  0  0  0  0  0  0  0  0  0
   40.0100   22.7210   34.8180 N   0  0  0  0  0  0  0  0  0  0  0  0
   41.4550   21.2960   35.1770 H   0  0  0  0  0  0  0  0  0  0  0  0
   39.5920   22.9280   38.6240 H   0  0  0  0  0  0  0  0  0  0  0  0
   41.4430   21.1670   37.8650 N   0  0  0  0  0  0  0  0  0  0  0  0
   41.8600   21.4890   38.7770 H   0  0  0  0  0  0  0  0  0  0  0  0
   41.5680   20.2020   37.4660 H   0  0  0  0  0  0  0  0  0  0  0  0
   36.3140   24.0810   31.3320 C   0  0  0  0  0  0  0  0  0  0  0  0
   35.4130   23.1120   31.7550 F   0  0  0  0  0  0  0  0  0  0  0  0
   35.6090   25.0480   30.6440 F   0  0  0  0  0  0  0  0  0  0  0  0
   37.2450   23.4600   30.5230 F   0  0  0  0  0  0  0  0  0  0  0  0
  1  2  1  0  0  0  0
  1 13  1  0  0  0  0
  2  7  1  0  0  0  0
  3  8  1  0  0  0  0
  3  2  2  0  0  0  0
  4  3  1  0  0  0  0
  5  4  2  0  0  0  0
  5  6  1  0  0  0  0
  6  1  2  0  0  0  0
  9 10  1  0  0  0  0
 10 11  2  0  0  0  0
 10 17  1  0  0  0  0
 11 16  1  0  0  0  0
 12 11  1  0  0  0  0
 13 12  2  0  0  0  0
 14 13  1  0  0  0  0
 14  9  2  0  0  0  0
 15  9  1  0  0  0  0
 17 18  1  0  0  0  0
 19 17  1  0  0  0  0
 20 21  1  0  0  0  0
 20  5  1  0  0  0  0
 22 20  1  0  0  0  0
 23 20  1  0  0  0  0
M  END
>  <minimizedAffinity>
-4.60709906

$$$$

 OpenBabel03272506593D

 23 24  0  0  0  0  0  0  0  0999 V2000
   35.0670   30.5060   34.5120 C   0  0  0  0  0  0  0  0  0  0  0  0
   35.8840   31.3860   35.1610 C   0  0  0  0  0  0  0  0  0  0  0  0
   35.5920   32.0930   36.3040 C   0  0  0  0  0  0  0  0  0  0  0  0
   34.3650   31.8770   36.8170 N   0  0  0  0  0  0  0  0  0  0  0  0
   33.5120   31.0050   36.2040 C   0  0  0  0  0  0  0  0  0  0  0  0
   33.8430   30.3260   35.0720 N   0  0  0  0  0  0  0  0  0  0  0  0
   36.8730   31.5490   34.7330 H   0  0  0  0  0  0  0  0  0  0  0  0
   36.3050   32.7610   36.7350 H   0  0  0  0  0  0  0  0  0  0  0  0
   35.7840   29.8690   31.0060 C   0  0  0  0  0  0  0  0  0  0  0  0
   36.2400   28.5610   30.9510 C   0  0  0  0  0  0  0  0  0  0  0  0
   36.2930   27.8970   32.1920 C   0  0  0  0  0  0  0  0  0  0  0  0
   35.9170   28.5210   33.3380 N   0  0  0  0  0  0  0  0  0  0  0  0
   35.4830   29.8030   33.2940 C   0  0  0  0  0  0  0  0  0  0  0  0
   35.4060   30.5030   32.1400 N   0  0  0  0  0  0  0  0  0  0  0  0
   35.7100   30.4580   30.1010 H   0  0  0  0  0  0  0  0  0  0  0  0
   36.6450   26.8750   32.1750 H   0  0  0  0  0  0  0  0  0  0  0  0
   36.6200   27.9520   29.7370 N   0  0  0  0  0  0  0  0  0  0  0  0
   37.4480   27.3070   29.6430 H   0  0  0  0  0  0  0  0  0  0  0  0
   35.9830   28.2150   28.9440 H   0  0  0  0  0  0  0  0  0  0  0  0
   32.1660   30.8090   36.8220 C   0  0  0  0  0  0  0  0  0  0  0  0
   31.6740   32.0490   37.2070 F   0  0  0  0  0  0  0  0  0  0  0  0
   31.2790   30.2600   35.9180 F   0  0  0  0  0  0  0  0  0  0  0  0
   32.2770   30.0330   37.9590 F   0  0  0  0  0  0  0  0  0  0  0  0
  1  6  2  0  0  0  0
  1  2  1  0  0  0  0
  2  3  2  0  0  0  0
  3  8  1  0  0  0  0
  3  4  1  0  0  0  0
  5  4  2  0  0  0  0
  5 20  1  0  0  0  0
  6  5  1  0  0  0  0
  7  2  1  0  0  0  0
  9 14  1  0  0  0  0
 10  9  2  0  0  0  0
 10 11  1  0  0  0  0
 11 12  2  0  0  0  0
 13 12  1  0  0  0  0
 13  1  1  0  0  0  0
 14 13  2  0  0  0  0
 15  9  1  0  0  0  0
 16 11  1  0  0  0  0
 17 10  1  0  0  0  0
 18 17  1  0  0  0  0
 19 17  1  0  0  0  0
 20 21  1  0  0  0  0
 20 23  1  0  0  0  0
 22 20  1  0  0  0  0
M  END
>  <minimizedAffinity>
-4.56929159

$$$$
