
 OpenBabel03272509503D

 28 29  0  0  0  0  0  0  0  0999 V2000
   33.9490   28.6160   48.6390 C   0  0  0  0  0  0  0  0  0  0  0  0
   33.2920   29.3590   49.1780 H   0  0  0  0  0  0  0  0  0  0  0  0
   34.4050   29.1560   47.8030 H   0  0  0  0  0  0  0  0  0  0  0  0
   33.0640   27.4710   48.2310 C   0  0  0  0  0  0  0  0  0  0  0  0
   33.1470   26.6540   48.9950 H   0  0  0  0  0  0  0  0  0  0  0  0
   33.4610   26.9980   47.2890 H   0  0  0  0  0  0  0  0  0  0  0  0
   31.6410   27.8660   48.1090 C   0  0  0  0  0  0  0  0  0  0  0  0
   30.8260   27.6250   49.1900 C   0  0  0  0  0  0  0  0  0  0  0  0
   29.4920   27.9440   49.2020 C   0  0  0  0  0  0  0  0  0  0  0  0
   28.9470   28.5160   48.1200 N   0  0  0  0  0  0  0  0  0  0  0  0
   29.7480   28.7530   47.0600 C   0  0  0  0  0  0  0  0  0  0  0  0
   31.0580   28.4440   47.0350 N   0  0  0  0  0  0  0  0  0  0  0  0
   31.2100   27.1610   50.1040 H   0  0  0  0  0  0  0  0  0  0  0  0
   28.8320   27.7560   50.0620 H   0  0  0  0  0  0  0  0  0  0  0  0
   29.3480   29.2110   46.1690 H   0  0  0  0  0  0  0  0  0  0  0  0
   34.9000   28.1760   49.5940 O   0  0  0  0  0  0  0  0  0  0  0  0
   37.2920   30.2110   51.3950 C   0  0  0  0  0  0  0  0  0  0  0  0
   37.9470   30.8390   50.3270 C   0  0  0  0  0  0  0  0  0  0  0  0
   37.5140   30.5150   49.0420 C   0  0  0  0  0  0  0  0  0  0  0  0
   36.4940   29.6190   48.9090 N   0  0  0  0  0  0  0  0  0  0  0  0
   35.8980   29.0420   49.9580 C   0  0  0  0  0  0  0  0  0  0  0  0
   36.3040   29.3450   51.2020 N   0  0  0  0  0  0  0  0  0  0  0  0
   37.6520   30.4840   52.3820 H   0  0  0  0  0  0  0  0  0  0  0  0
   38.7530   31.5460   50.4650 H   0  0  0  0  0  0  0  0  0  0  0  0
   38.1530   31.1360   47.8290 C   0  0  0  0  0  0  0  0  0  0  0  0
   39.1740   31.9550   48.3280 F   0  0  0  0  0  0  0  0  0  0  0  0
   38.6720   30.1410   47.0070 F   0  0  0  0  0  0  0  0  0  0  0  0
   37.1910   31.8470   47.1730 F   0  0  0  0  0  0  0  0  0  0  0  0
  1  2  1  0  0  0  0
  1 16  1  0  0  0  0
  3  1  1  0  0  0  0
  4  1  1  0  0  0  0
  4  5  1  0  0  0  0
  6  4  1  0  0  0  0
  7  4  1  0  0  0  0
  7  8  1  0  0  0  0
  8  9  2  0  0  0  0
  8 13  1  0  0  0  0
  9 14  1  0  0  0  0
 10  9  1  0  0  0  0
 11 10  2  0  0  0  0
 12 11  1  0  0  0  0
 12  7  2  0  0  0  0
 15 11  1  0  0  0  0
 16 21  1  0  0  0  0
 17 23  1  0  0  0  0
 18 24  1  0  0  0  0
 18 17  2  0  0  0  0
 19 18  1  0  0  0  0
 20 19  2  0  0  0  0
 20 21  1  0  0  0  0
 21 22  2  0  0  0  0
 22 17  1  0  0  0  0
 25 26  1  0  0  0  0
 25 19  1  0  0  0  0
 27 25  1  0  0  0  0
 28 25  1  0  0  0  0
M  END
>  <minimizedAffinity>
-5.20029497

>  <minimizedRMSD>
0.416280359

$$$$
