
 OpenBabel03272509003D

 23 24  0  0  0  0  0  0  0  0999 V2000
   38.4140   30.6140   49.1450 Cl  0  0  0  0  0  0  0  0  0  0  0  0
   37.1210   30.3190   48.0300 C   0  0  0  0  0  0  0  0  0  0  0  0
   37.2520   30.6960   46.7120 C   0  0  0  0  0  0  0  0  0  0  0  0
   36.2510   30.4860   45.7920 C   0  0  0  0  0  0  0  0  0  0  0  0
   35.0670   29.8810   46.1710 C   0  0  0  0  0  0  0  0  0  0  0  0
   34.9050   29.4880   47.4980 C   0  0  0  0  0  0  0  0  0  0  0  0
   33.4550   28.7130   48.1090 Cl  0  0  0  0  0  0  0  0  0  0  0  0
   35.9340   29.7200   48.3770 C   0  0  0  0  0  0  0  0  0  0  0  0
   36.3460   30.7800   44.7580 H   0  0  0  0  0  0  0  0  0  0  0  0
   34.2490   29.6930   45.4900 H   0  0  0  0  0  0  0  0  0  0  0  0
   39.8600   33.2040   46.0880 C   0  0  0  0  0  0  0  0  0  0  0  0
   40.8490   32.4700   45.4340 C   0  0  0  0  0  0  0  0  0  0  0  0
   40.6060   31.0880   45.2060 C   0  0  0  0  0  0  0  0  0  0  0  0
   39.4280   30.5720   45.6400 N   0  0  0  0  0  0  0  0  0  0  0  0
   38.4920   31.3380   46.2780 C   0  0  0  0  0  0  0  0  0  0  0  0
   38.7170   32.6410   46.4940 N   0  0  0  0  0  0  0  0  0  0  0  0
   40.0920   34.2530   46.2380 H   0  0  0  0  0  0  0  0  0  0  0  0
   41.7700   32.8740   45.0930 H   0  0  0  0  0  0  0  0  0  0  0  0
   41.3300   30.4590   44.7040 H   0  0  0  0  0  0  0  0  0  0  0  0
   35.7890   29.3080   49.8120 C   0  0  0  0  0  0  0  0  0  0  0  0
   34.9760   30.1770   50.5070 F   0  0  0  0  0  0  0  0  0  0  0  0
   35.1080   28.0870   49.8100 F   0  0  0  0  0  0  0  0  0  0  0  0
   37.0050   29.0930   50.3910 F   0  0  0  0  0  0  0  0  0  0  0  0
  2  8  1  0  0  0  0
  2  1  1  0  0  0  0
  3  2  2  0  0  0  0
  4  5  2  0  0  0  0
  4  3  1  0  0  0  0
  5  6  1  0  0  0  0
  6  7  1  0  0  0  0
  6  8  2  0  0  0  0
  8 20  1  0  0  0  0
  9  4  1  0  0  0  0
 10  5  1  0  0  0  0
 11 17  1  0  0  0  0
 11 16  1  0  0  0  0
 12 11  2  0  0  0  0
 13 12  1  0  0  0  0
 13 14  2  0  0  0  0
 14 15  1  0  0  0  0
 15 16  2  0  0  0  0
 15  3  1  0  0  0  0
 18 12  1  0  0  0  0
 19 13  1  0  0  0  0
 20 23  1  0  0  0  0
 20 21  1  0  0  0  0
 22 20  1  0  0  0  0
M  END
>  <minimizedAffinity>
-5.67044115

>  <minimizedRMSD>
2.61849046

$$$$
