REMARK  Name = 
REMARK  2 active torsions:
REMARK  status: ('A' for Active; 'I' for Inactive)
REMARK    1  A    between atoms: C_2  and  C_12
REMARK    2  A    between atoms: C_6  and  C_23
REMARK                            x       y       z     vdW  Elec       q    Type
REMARK                         _______ _______ _______ _____ _____    ______ ____
ROOT
ATOM      1  C   UNL     1      37.053  30.720  46.779  0.00  0.00    +0.000 A 
ATOM      2  C   UNL     1      37.701  31.144  47.915  0.00  0.00    +0.000 A 
ATOM      3  C   UNL     1      38.722  32.063  47.835  0.00  0.00    +0.000 A 
ATOM      4  C   UNL     1      39.061  32.534  46.580  0.00  0.00    +0.000 A 
ATOM      5  N   UNL     1      40.031  33.441  46.251  0.00  0.00    +0.000 N 
ATOM      6  C   UNL     1      39.996  33.589  44.920  0.00  0.00    +0.000 A 
ATOM      7  N   UNL     1      39.040  32.809  44.383  0.00  0.00    +0.000 NA
ATOM      8  C   UNL     1      38.439  32.139  45.401  0.00  0.00    +0.000 A 
ATOM      9  C   UNL     1      37.418  31.214  45.519  0.00  0.00    +0.000 A 
ATOM     10  H   UNL     1      36.247  30.004  46.769  0.00  0.00    +0.000 HD
ATOM     11  H   UNL     1      39.224  32.391  48.724  0.00  0.00    +0.000 HD
ATOM     12  H   UNL     1      40.688  33.936  46.915  0.00  0.00    +0.000 HD
ATOM     13  H   UNL     1      36.910  30.884  44.607  0.00  0.00    +0.000 HD
ENDROOT
BRANCH   2  16
ATOM     14  C   UNL     1      37.387  30.172  51.544  0.00  0.00    +0.000 A 
ATOM     15  C   UNL     1      37.887  30.756  50.385  0.00  0.00    +0.000 A 
ATOM     16  C   UNL     1      37.244  30.568  49.176  0.00  0.00    +0.000 A 
ATOM     17  N   UNL     1      36.114  29.800  49.156  0.00  0.00    +0.000 NA
ATOM     18  C   UNL     1      35.648  29.239  50.316  0.00  0.00    +0.000 A 
ATOM     19  N   UNL     1      36.271  29.422  51.477  0.00  0.00    +0.000 NA
ATOM     20  H   UNL     1      37.911  30.339  52.463  0.00  0.00    +0.000 HD
ATOM     21  H   UNL     1      38.768  31.352  50.419  0.00  0.00    +0.000 HD
ATOM     22  H   UNL     1      34.746  28.649  50.182  0.00  0.00    +0.000 HD
ENDBRANCH   2  16
BRANCH   6  23
ATOM     23  C   UNL     1      40.919  34.508  44.188  0.00  0.00    +0.000 C 
ATOM     24  F   UNL     1      42.088  34.747  44.849  0.00  0.00    +0.000 F 
ATOM     25  F   UNL     1      40.271  35.719  43.961  0.00  0.00    +0.000 F 
ATOM     26  F   UNL     1      41.223  34.006  42.935  0.00  0.00    +0.000 F 
ENDBRANCH   6  23
TORSDOF 2
