
 OpenBabel03262521583D

 28 29  0  0  1  0  0  0  0  0999 V2000
   35.9000   29.8050   48.8260 N   0  0  0  0  0  0  0  0  0  0  0  0
   36.7730   28.9650   49.5840 C   0  0  0  0  0  0  0  0  0  0  0  0
   37.2610   29.4690   50.8830 C   0  0  0  0  0  0  0  0  0  0  0  0
   37.3490   30.9420   51.0760 C   0  0  0  0  0  0  0  0  0  0  0  0
   36.4650   31.7440   50.1530 C   0  0  0  0  0  0  0  0  0  0  0  0
   36.4810   31.0970   48.7620 C   0  0  1  0  0  0  0  0  0  0  0  0
   37.5940   28.6150   48.9220 H   0  0  0  0  0  0  0  0  0  0  0  0
   36.1860   28.0210   49.7760 H   0  0  0  0  0  0  0  0  0  0  0  0
   36.6200   29.0770   51.7200 H   0  0  0  0  0  0  0  0  0  0  0  0
   38.2660   29.0360   51.0880 H   0  0  0  0  0  0  0  0  0  0  0  0
   37.0340   31.2570   52.1150 H   0  0  0  0  0  0  0  0  0  0  0  0
   38.3940   31.3030   50.9920 H   0  0  0  0  0  0  0  0  0  0  0  0
   35.4300   31.8260   50.5030 H   0  0  0  0  0  0  0  0  0  0  0  0
   36.9450   32.7360   49.9960 H   0  0  0  0  0  0  0  0  0  0  0  0
   35.8370   31.7370   48.1230 H   0  0  0  0  0  0  0  0  0  0  0  0
   34.6630   29.3790   48.2500 C   0  0  0  0  0  0  0  0  0  0  0  0
   34.1240   29.9210   47.0720 C   0  0  0  0  0  0  0  0  0  0  0  0
   32.9150   29.4240   46.6140 C   0  0  0  0  0  0  0  0  0  0  0  0
   32.3180   28.4270   47.3430 N   0  0  0  0  0  0  0  0  0  0  0  0
   32.8580   27.9340   48.4580 C   0  0  0  0  0  0  0  0  0  0  0  0
   34.0200   28.4160   48.8960 N   0  0  0  0  0  0  0  0  0  0  0  0
   34.6680   30.6910   46.5840 H   0  0  0  0  0  0  0  0  0  0  0  0
   32.5060   29.8380   45.7170 H   0  0  0  0  0  0  0  0  0  0  0  0
   32.3340   27.1360   49.0010 H   0  0  0  0  0  0  0  0  0  0  0  0
   37.8600   31.1920   48.1820 C   0  0  0  0  0  0  0  0  0  0  0  0
   37.8070   32.2390   47.2470 F   0  0  0  0  0  0  0  0  0  0  0  0
   38.1370   30.0720   47.4250 F   0  0  0  0  0  0  0  0  0  0  0  0
   38.8420   31.5280   49.0550 F   0  0  0  0  0  0  0  0  0  0  0  0
  1  2  1  0  0  0  0
  2  8  1  0  0  0  0
  2  3  1  0  0  0  0
  3  4  1  0  0  0  0
  3 10  1  0  0  0  0
  3  9  1  0  0  0  0
  4 11  1  0  0  0  0
  5 13  1  0  0  0  0
  5  4  1  0  0  0  0
  6 15  1  6  0  0  0
  6  1  1  0  0  0  0
  6  5  1  0  0  0  0
  7  2  1  0  0  0  0
 12  4  1  0  0  0  0
 14  5  1  0  0  0  0
 16  1  1  0  0  0  0
 16 21  1  0  0  0  0
 17 16  2  0  0  0  0
 18 17  1  0  0  0  0
 18 19  2  0  0  0  0
 19 20  1  0  0  0  0
 20 21  2  0  0  0  0
 20 24  1  0  0  0  0
 22 17  1  0  0  0  0
 23 18  1  0  0  0  0
 25  6  1  0  0  0  0
 25 28  1  0  0  0  0
 26 25  1  0  0  0  0
 27 25  1  0  0  0  0
M  END
>  <minimizedAffinity>
-5.04113579

>  <minimizedRMSD>
1.62773395

$$$$
