
 OpenBabel03262523283D

 26 28  0  0  0  0  0  0  0  0999 V2000
   37.2500   30.8890   46.4210 C   0  0  0  0  0  0  0  0  0  0  0  0
   37.8400   31.3790   47.5790 C   0  0  0  0  0  0  0  0  0  0  0  0
   38.8200   32.3380   47.5010 C   0  0  0  0  0  0  0  0  0  0  0  0
   39.1840   32.7830   46.2290 C   0  0  0  0  0  0  0  0  0  0  0  0
   40.1210   33.7190   45.9240 N   0  0  0  0  0  0  0  0  0  0  0  0
   40.1210   33.8160   44.5730 C   0  0  0  0  0  0  0  0  0  0  0  0
   39.2260   32.9830   44.0410 N   0  0  0  0  0  0  0  0  0  0  0  0
   38.6180   32.3190   45.0480 C   0  0  0  0  0  0  0  0  0  0  0  0
   37.6290   31.3480   45.1590 C   0  0  0  0  0  0  0  0  0  0  0  0
   36.4740   30.1340   46.4130 H   0  0  0  0  0  0  0  0  0  0  0  0
   39.2870   32.7290   48.3930 H   0  0  0  0  0  0  0  0  0  0  0  0
   40.7400   34.2730   46.5840 H   0  0  0  0  0  0  0  0  0  0  0  0
   40.7290   34.4520   43.9440 H   0  0  0  0  0  0  0  0  0  0  0  0
   37.1760   30.9720   44.2540 H   0  0  0  0  0  0  0  0  0  0  0  0
   37.5470   30.2860   51.1680 C   0  0  0  0  0  0  0  0  0  0  0  0
   38.1050   30.8440   50.0150 C   0  0  0  0  0  0  0  0  0  0  0  0
   37.3710   30.8320   48.8380 C   0  0  0  0  0  0  0  0  0  0  0  0
   36.1250   30.2710   48.8630 N   0  0  0  0  0  0  0  0  0  0  0  0
   35.6020   29.7340   50.0000 C   0  0  0  0  0  0  0  0  0  0  0  0
   36.3160   29.7450   51.1440 N   0  0  0  0  0  0  0  0  0  0  0  0
   38.1390   30.3050   52.0820 H   0  0  0  0  0  0  0  0  0  0  0  0
   39.0930   31.2880   49.9990 H   0  0  0  0  0  0  0  0  0  0  0  0
   34.2410   29.1630   49.8680 C   0  0  0  0  0  0  0  0  0  0  0  0
   33.4390   29.5940   50.9250 F   0  0  0  0  0  0  0  0  0  0  0  0
   34.3660   27.7780   49.8670 F   0  0  0  0  0  0  0  0  0  0  0  0
   33.7280   29.5570   48.6460 F   0  0  0  0  0  0  0  0  0  0  0  0
  1  2  1  0  0  0  0
  2 17  1  0  0  0  0
  3  2  2  0  0  0  0
  3 11  1  0  0  0  0
  4  3  1  0  0  0  0
  5  4  1  0  0  0  0
  5 12  1  0  0  0  0
  6  5  1  0  0  0  0
  7  6  2  0  0  0  0
  7  8  1  0  0  0  0
  8  9  1  0  0  0  0
  8  4  2  0  0  0  0
  9  1  2  0  0  0  0
 10  1  1  0  0  0  0
 13  6  1  0  0  0  0
 14  9  1  0  0  0  0
 15 21  1  0  0  0  0
 16 15  2  0  0  0  0
 17 18  2  0  0  0  0
 17 16  1  0  0  0  0
 18 19  1  0  0  0  0
 19 20  2  0  0  0  0
 20 15  1  0  0  0  0
 22 16  1  0  0  0  0
 23 19  1  0  0  0  0
 23 24  1  0  0  0  0
 25 23  1  0  0  0  0
 26 23  1  0  0  0  0
M  END
>  <minimizedAffinity>
-6.62403727

>  <minimizedRMSD>
0.582056284

$$$$
