
     RDKit          3D

 26 28  0  0  0  0  0  0  0  0999 V2000
   37.0526   30.7198   46.7787 C   0  0  0  0  0  0  0  0  0  0  0  0
   37.7006   31.1440   47.9152 C   0  0  0  0  0  0  0  0  0  0  0  0
   38.7218   32.0635   47.8349 C   0  0  0  0  0  0  0  0  0  0  0  0
   39.0610   32.5337   46.5801 C   0  0  0  0  0  0  0  0  0  0  0  0
   40.0307   33.4407   46.2512 N   0  0  0  0  0  0  0  0  0  0  0  0
   39.9963   33.5887   44.9196 C   0  0  0  0  0  0  0  0  0  0  0  0
   39.0398   32.8095   44.3832 N   0  0  0  0  0  0  0  0  0  0  0  0
   38.4393   32.1385   45.4015 C   0  0  0  0  0  0  0  0  0  0  0  0
   37.4178   31.2138   45.5186 C   0  0  0  0  0  0  0  0  0  0  0  0
   37.3873   30.1723   51.5438 C   0  0  0  0  0  0  0  0  0  0  0  0
   37.8869   30.7562   50.3845 C   0  0  0  0  0  0  0  0  0  0  0  0
   37.2436   30.5682   49.1757 C   0  0  0  0  0  0  0  0  0  0  0  0
   36.1145   29.7998   49.1556 N   0  0  0  0  0  0  0  0  0  0  0  0
   35.6484   29.2388   50.3158 C   0  0  0  0  0  0  0  0  0  0  0  0
   36.2708   29.4223   51.4768 N   0  0  0  0  0  0  0  0  0  0  0  0
   36.2467   30.0041   46.7688 H   0  0  0  0  0  0  0  0  0  0  0  0
   39.2238   32.3910   48.7237 H   0  0  0  0  0  0  0  0  0  0  0  0
   40.6876   33.9362   46.9153 H   0  0  0  0  0  0  0  0  0  0  0  0
   36.9095   30.8837   44.6074 H   0  0  0  0  0  0  0  0  0  0  0  0
   37.9106   30.3386   52.4626 H   0  0  0  0  0  0  0  0  0  0  0  0
   38.7676   31.3516   50.4185 H   0  0  0  0  0  0  0  0  0  0  0  0
   34.7461   28.6493   50.1822 H   0  0  0  0  0  0  0  0  0  0  0  0
   40.9187   34.5076   44.1882 C   0  0  0  0  0  0  0  0  0  0  0  0
   42.2387   34.2693   44.4386 F   0  0  0  0  0  0  0  0  0  0  0  0
   40.6223   35.8235   44.5345 F   0  0  0  0  0  0  0  0  0  0  0  0
   40.7149   34.4263   42.8220 F   0  0  0  0  0  0  0  0  0  0  0  0
  1  2  2  0
  2 12  1  0
  3  2  1  0
  4  3  2  0
  5  4  1  0
  6  5  1  0
  7  6  2  0
  7  8  1  0
  8  9  2  0
  8  4  1  0
  9  1  1  0
 11 10  2  0
 12 11  1  0
 13 12  2  0
 13 14  1  0
 14 15  2  0
 15 10  1  0
  1 16  1  0
  3 17  1  0
  5 18  1  0
  9 19  1  0
 10 20  1  0
 11 21  1  0
 14 22  1  0
 23 24  1  0
 23 25  1  0
 23 26  1  0
  6 23  1  0
M  ISO  7  16  14  17  14  18   9  19  14  20  14  21  14  22  14
M  END
>  <DihAtoms>  (1) 
4,5,22,23

>  <DihDeg>  (1) 
85.07507621828232

$$$$
