
 OpenBabel03272500533D

 23 24  0  0  0  0  0  0  0  0999 V2000
   38.2330   31.3150   47.8500 C   0  0  0  0  0  0  0  0  0  0  0  0
   38.4340   30.5840   46.6810 C   0  0  0  0  0  0  0  0  0  0  0  0
   39.2390   31.0050   45.6400 C   0  0  0  0  0  0  0  0  0  0  0  0
   39.8920   32.2270   45.7540 C   0  0  0  0  0  0  0  0  0  0  0  0
   39.6840   32.9510   46.9310 C   0  0  0  0  0  0  0  0  0  0  0  0
   38.8750   32.5480   47.9960 C   0  0  0  0  0  0  0  0  0  0  0  0
   37.9680   29.6240   46.5050 H   0  0  0  0  0  0  0  0  0  0  0  0
   39.3980   30.4520   44.7420 H   0  0  0  0  0  0  0  0  0  0  0  0
   40.5410   32.6330   44.9900 H   0  0  0  0  0  0  0  0  0  0  0  0
   40.2040   33.9010   46.9960 H   0  0  0  0  0  0  0  0  0  0  0  0
   37.9130   29.9820   49.8630 C   0  0  0  0  0  0  0  0  0  0  0  0
   37.3430   30.7220   48.8170 C   0  0  0  0  0  0  0  0  0  0  0  0
   35.9310   30.8100   48.8330 C   0  0  0  0  0  0  0  0  0  0  0  0
   35.2230   30.2100   49.8090 N   0  0  0  0  0  0  0  0  0  0  0  0
   35.8340   29.5040   50.8040 C   0  0  0  0  0  0  0  0  0  0  0  0
   37.1950   29.3970   50.8190 N   0  0  0  0  0  0  0  0  0  0  0  0
   38.9340   29.7310   50.0710 H   0  0  0  0  0  0  0  0  0  0  0  0
   35.5100   31.3810   48.0220 H   0  0  0  0  0  0  0  0  0  0  0  0
   35.0840   29.1120   51.4730 H   0  0  0  0  0  0  0  0  0  0  0  0
   38.7190   33.4170   49.1650 C   0  0  0  0  0  0  0  0  0  0  0  0
   39.2090   32.7000   50.2840 F   0  0  0  0  0  0  0  0  0  0  0  0
   37.3720   33.5620   49.4900 F   0  0  0  0  0  0  0  0  0  0  0  0
   39.4080   34.5870   49.1310 F   0  0  0  0  0  0  0  0  0  0  0  0
  1  6  1  0  0  0  0
  1 12  1  0  0  0  0
  2  1  2  0  0  0  0
  3  4  2  0  0  0  0
  3  2  1  0  0  0  0
  4  5  1  0  0  0  0
  5 10  1  0  0  0  0
  5  6  2  0  0  0  0
  6 20  1  0  0  0  0
  7  2  1  0  0  0  0
  8  3  1  0  0  0  0
  9  4  1  0  0  0  0
 11 17  1  0  0  0  0
 11 16  1  0  0  0  0
 12 13  1  0  0  0  0
 12 11  2  0  0  0  0
 13 14  2  0  0  0  0
 14 15  1  0  0  0  0
 15 16  2  0  0  0  0
 15 19  1  0  0  0  0
 18 13  1  0  0  0  0
 20 22  1  0  0  0  0
 20 21  1  0  0  0  0
 23 20  1  0  0  0  0
M  END
>  <minimizedAffinity>
-6.19848967

>  <minimizedRMSD>
1.65544891

$$$$
