
 OpenBabel03272510333D

 23 24  0  0  0  0  0  0  0  0999 V2000
   36.2610   30.4040   48.7490 C   0  0  0  0  0  0  0  0  0  0  0  0
   35.2190   30.3630   47.8390 C   0  0  0  0  0  0  0  0  0  0  0  0
   34.2150   29.4210   47.9460 C   0  0  0  0  0  0  0  0  0  0  0  0
   34.2860   28.5150   48.9970 C   0  0  0  0  0  0  0  0  0  0  0  0
   35.3150   28.5410   49.9120 C   0  0  0  0  0  0  0  0  0  0  0  0
   36.3230   29.5030   49.7880 C   0  0  0  0  0  0  0  0  0  0  0  0
   35.1720   31.0730   47.0220 H   0  0  0  0  0  0  0  0  0  0  0  0
   33.3920   29.3520   47.2670 H   0  0  0  0  0  0  0  0  0  0  0  0
   33.5330   27.7500   49.1400 H   0  0  0  0  0  0  0  0  0  0  0  0
   35.3420   27.8230   50.7180 H   0  0  0  0  0  0  0  0  0  0  0  0
   38.1880   33.4400   49.2760 C   0  0  0  0  0  0  0  0  0  0  0  0
   39.1330   33.4520   48.2510 C   0  0  0  0  0  0  0  0  0  0  0  0
   39.0950   32.3710   47.3550 C   0  0  0  0  0  0  0  0  0  0  0  0
   38.1650   31.3960   47.5280 N   0  0  0  0  0  0  0  0  0  0  0  0
   37.2650   31.4290   48.5450 C   0  0  0  0  0  0  0  0  0  0  0  0
   37.2990   32.4600   49.4010 N   0  0  0  0  0  0  0  0  0  0  0  0
   38.1730   34.2560   50.0000 H   0  0  0  0  0  0  0  0  0  0  0  0
   39.8570   34.2420   48.1400 H   0  0  0  0  0  0  0  0  0  0  0  0
   39.8060   32.3170   46.5270 H   0  0  0  0  0  0  0  0  0  0  0  0
   37.4110   29.5170   50.7770 C   0  0  0  0  0  0  0  0  0  0  0  0
   37.4680   28.3580   51.5080 F   0  0  0  0  0  0  0  0  0  0  0  0
   38.5890   29.8470   50.1440 F   0  0  0  0  0  0  0  0  0  0  0  0
   37.1950   30.5270   51.7320 F   0  0  0  0  0  0  0  0  0  0  0  0
  1  6  1  0  0  0  0
  2  3  1  0  0  0  0
  2  1  2  0  0  0  0
  3  4  2  0  0  0  0
  4  9  1  0  0  0  0
  4  5  1  0  0  0  0
  5 10  1  0  0  0  0
  6  5  2  0  0  0  0
  6 20  1  0  0  0  0
  7  2  1  0  0  0  0
  8  3  1  0  0  0  0
 11 16  1  0  0  0  0
 11 17  1  0  0  0  0
 12 11  2  0  0  0  0
 13 14  2  0  0  0  0
 13 12  1  0  0  0  0
 14 15  1  0  0  0  0
 15  1  1  0  0  0  0
 15 16  2  0  0  0  0
 18 12  1  0  0  0  0
 19 13  1  0  0  0  0
 20 21  1  0  0  0  0
 20 23  1  0  0  0  0
 22 20  1  0  0  0  0
M  END
>  <minimizedAffinity>
-5.98577023

>  <minimizedRMSD>
0.583402157

$$$$
