
 OpenBabel03262522233D

 26 27  0  0  0  0  0  0  0  0999 V2000
   37.2580   24.5380   32.1930 C   0  0  0  0  0  0  0  0  0  0  0  0
   36.2070   23.7610   31.8530 C   0  0  0  0  0  0  0  0  0  0  0  0
   35.1590   24.2810   31.1570 C   0  0  0  0  0  0  0  0  0  0  0  0
   35.2100   25.6160   30.8180 C   0  0  0  0  0  0  0  0  0  0  0  0
   36.2840   26.4060   31.1670 C   0  0  0  0  0  0  0  0  0  0  0  0
   37.2930   25.8220   31.8600 N   0  0  0  0  0  0  0  0  0  0  0  0
   36.2700   22.7120   32.1740 H   0  0  0  0  0  0  0  0  0  0  0  0
   34.3250   23.6600   30.8870 H   0  0  0  0  0  0  0  0  0  0  0  0
   34.4000   26.0850   30.2620 H   0  0  0  0  0  0  0  0  0  0  0  0
   36.3250   27.8560   30.7900 C   0  0  0  0  0  0  0  0  0  0  0  0
   37.2220   28.3110   31.2540 H   0  0  0  0  0  0  0  0  0  0  0  0
   35.4430   28.3150   31.3190 H   0  0  0  0  0  0  0  0  0  0  0  0
   36.2700   28.0120   29.7140 H   0  0  0  0  0  0  0  0  0  0  0  0
   38.4080   24.1680   32.9020 O   0  0  0  0  0  0  0  0  0  0  0  0
   38.3590   22.9010   34.8500 C   0  0  0  0  0  0  0  0  0  0  0  0
   38.3430   24.1870   34.2580 C   0  0  0  0  0  0  0  0  0  0  0  0
   38.2660   25.2800   35.1070 C   0  0  0  0  0  0  0  0  0  0  0  0
   38.2110   25.0450   36.4360 N   0  0  0  0  0  0  0  0  0  0  0  0
   38.2280   23.8390   36.9670 C   0  0  0  0  0  0  0  0  0  0  0  0
   38.3030   22.7130   36.1810 N   0  0  0  0  0  0  0  0  0  0  0  0
   38.4160   21.9810   34.3010 H   0  0  0  0  0  0  0  0  0  0  0  0
   38.2570   26.2220   34.6090 H   0  0  0  0  0  0  0  0  0  0  0  0
   38.1600   23.7620   38.4610 C   0  0  0  0  0  0  0  0  0  0  0  0
   37.2760   22.7970   38.8750 F   0  0  0  0  0  0  0  0  0  0  0  0
   37.9040   24.9920   39.0340 F   0  0  0  0  0  0  0  0  0  0  0  0
   39.4400   23.3820   38.8840 F   0  0  0  0  0  0  0  0  0  0  0  0
  1 14  1  0  0  0  0
  2  7  1  0  0  0  0
  2  1  2  0  0  0  0
  3  2  1  0  0  0  0
  4  3  2  0  0  0  0
  4  5  1  0  0  0  0
  5  6  2  0  0  0  0
  6  1  1  0  0  0  0
  8  3  1  0  0  0  0
  9  4  1  0  0  0  0
 10  5  1  0  0  0  0
 10 11  1  0  0  0  0
 10 12  1  0  0  0  0
 13 10  1  0  0  0  0
 14 16  1  0  0  0  0
 15 20  1  0  0  0  0
 16 15  2  0  0  0  0
 16 17  1  0  0  0  0
 17 18  2  0  0  0  0
 18 19  1  0  0  0  0
 19 23  1  0  0  0  0
 20 19  2  0  0  0  0
 21 15  1  0  0  0  0
 22 17  1  0  0  0  0
 23 24  1  0  0  0  0
 23 26  1  0  0  0  0
 23 25  1  0  0  0  0
M  END
>  <minimizedAffinity>
-5.37991381

$$$$

 OpenBabel03262522233D

 26 27  0  0  0  0  0  0  0  0999 V2000
   37.4330   25.1100   32.3160 C   0  0  0  0  0  0  0  0  0  0  0  0
   36.6750   26.1230   31.8420 C   0  0  0  0  0  0  0  0  0  0  0  0
   35.5290   25.8660   31.1530 C   0  0  0  0  0  0  0  0  0  0  0  0
   35.1780   24.5470   30.9600 C   0  0  0  0  0  0  0  0  0  0  0  0
   35.9530   23.5170   31.4440 C   0  0  0  0  0  0  0  0  0  0  0  0
   37.0820   23.8460   32.1220 N   0  0  0  0  0  0  0  0  0  0  0  0
   37.0490   27.1350   32.0540 H   0  0  0  0  0  0  0  0  0  0  0  0
   34.9280   26.6730   30.7790 H   0  0  0  0  0  0  0  0  0  0  0  0
   34.2720   24.2820   30.4160 H   0  0  0  0  0  0  0  0  0  0  0  0
   35.5560   22.0880   31.2260 C   0  0  0  0  0  0  0  0  0  0  0  0
   36.3670   21.4390   31.6100 H   0  0  0  0  0  0  0  0  0  0  0  0
   35.5640   21.9560   30.1080 H   0  0  0  0  0  0  0  0  0  0  0  0
   34.5810   21.8540   31.6480 H   0  0  0  0  0  0  0  0  0  0  0  0
   38.6300   25.1970   33.0380 O   0  0  0  0  0  0  0  0  0  0  0  0
   37.8910   25.6010   35.2050 C   0  0  0  0  0  0  0  0  0  0  0  0
   38.6200   24.7650   34.3260 C   0  0  0  0  0  0  0  0  0  0  0  0
   39.2210   23.6390   34.8670 C   0  0  0  0  0  0  0  0  0  0  0  0
   39.0700   23.4170   36.1900 N   0  0  0  0  0  0  0  0  0  0  0  0
   38.3860   24.2080   36.9910 C   0  0  0  0  0  0  0  0  0  0  0  0
   37.7660   25.3410   36.5190 N   0  0  0  0  0  0  0  0  0  0  0  0
   37.3830   26.4990   34.9070 H   0  0  0  0  0  0  0  0  0  0  0  0
   39.7570   23.0460   34.1610 H   0  0  0  0  0  0  0  0  0  0  0  0
   38.3200   23.8090   38.4330 C   0  0  0  0  0  0  0  0  0  0  0  0
   39.5390   23.3710   38.8900 F   0  0  0  0  0  0  0  0  0  0  0  0
   37.3090   22.9020   38.6770 F   0  0  0  0  0  0  0  0  0  0  0  0
   37.9910   24.9740   39.1390 F   0  0  0  0  0  0  0  0  0  0  0  0
  1 14  1  0  0  0  0
  2  7  1  0  0  0  0
  2  1  2  0  0  0  0
  3  2  1  0  0  0  0
  4  3  2  0  0  0  0
  4  5  1  0  0  0  0
  5  6  2  0  0  0  0
  6  1  1  0  0  0  0
  8  3  1  0  0  0  0
  9  4  1  0  0  0  0
 10  5  1  0  0  0  0
 10 11  1  0  0  0  0
 10 13  1  0  0  0  0
 12 10  1  0  0  0  0
 14 16  1  0  0  0  0
 15 20  1  0  0  0  0
 16 17  1  0  0  0  0
 16 15  2  0  0  0  0
 17 18  2  0  0  0  0
 18 19  1  0  0  0  0
 19 23  1  0  0  0  0
 20 19  2  0  0  0  0
 21 15  1  0  0  0  0
 22 17  1  0  0  0  0
 23 25  1  0  0  0  0
 23 24  1  0  0  0  0
 23 26  1  0  0  0  0
M  END
>  <minimizedAffinity>
-5.33449268

$$$$

 OpenBabel03262522233D

 26 27  0  0  0  0  0  0  0  0999 V2000
   37.9820   26.1660   32.4200 C   0  0  0  0  0  0  0  0  0  0  0  0
   38.0630   27.5030   32.2370 C   0  0  0  0  0  0  0  0  0  0  0  0
   37.0780   28.1720   31.5770 C   0  0  0  0  0  0  0  0  0  0  0  0
   36.0090   27.4410   31.1050 C   0  0  0  0  0  0  0  0  0  0  0  0
   35.9290   26.0780   31.2930 C   0  0  0  0  0  0  0  0  0  0  0  0
   36.9460   25.4770   31.9600 N   0  0  0  0  0  0  0  0  0  0  0  0
   38.9580   27.9840   32.6540 H   0  0  0  0  0  0  0  0  0  0  0  0
   37.1460   29.2340   31.4340 H   0  0  0  0  0  0  0  0  0  0  0  0
   35.1930   27.9230   30.5700 H   0  0  0  0  0  0  0  0  0  0  0  0
   34.7590   25.2990   30.7750 C   0  0  0  0  0  0  0  0  0  0  0  0
   34.9520   24.2230   30.9510 H   0  0  0  0  0  0  0  0  0  0  0  0
   34.7940   25.4360   29.6580 H   0  0  0  0  0  0  0  0  0  0  0  0
   33.8110   25.6390   31.1880 H   0  0  0  0  0  0  0  0  0  0  0  0
   38.8970   25.3290   33.0700 O   0  0  0  0  0  0  0  0  0  0  0  0
   39.4110   23.9460   34.8670 C   0  0  0  0  0  0  0  0  0  0  0  0
   38.6750   25.0540   34.3820 C   0  0  0  0  0  0  0  0  0  0  0  0
   37.8410   25.7070   35.2750 C   0  0  0  0  0  0  0  0  0  0  0  0
   37.7860   25.2440   36.5430 N   0  0  0  0  0  0  0  0  0  0  0  0
   38.4800   24.2110   36.9740 C   0  0  0  0  0  0  0  0  0  0  0  0
   39.3270   23.5180   36.1400 N   0  0  0  0  0  0  0  0  0  0  0  0
   40.0890   23.3610   34.2740 H   0  0  0  0  0  0  0  0  0  0  0  0
   37.3100   26.5320   34.8570 H   0  0  0  0  0  0  0  0  0  0  0  0
   38.2990   23.8330   38.4120 C   0  0  0  0  0  0  0  0  0  0  0  0
   37.3130   22.8900   38.5640 F   0  0  0  0  0  0  0  0  0  0  0  0
   38.1030   24.9360   39.2180 F   0  0  0  0  0  0  0  0  0  0  0  0
   39.5110   23.2550   38.8120 F   0  0  0  0  0  0  0  0  0  0  0  0
  1 14  1  0  0  0  0
  2  1  1  0  0  0  0
  2  7  1  0  0  0  0
  3  2  2  0  0  0  0
  4  5  2  0  0  0  0
  4  3  1  0  0  0  0
  5  6  1  0  0  0  0
  6  1  2  0  0  0  0
  8  3  1  0  0  0  0
  9  4  1  0  0  0  0
 10 11  1  0  0  0  0
 10 13  1  0  0  0  0
 10  5  1  0  0  0  0
 12 10  1  0  0  0  0
 14 16  1  0  0  0  0
 15 20  1  0  0  0  0
 16 15  2  0  0  0  0
 16 17  1  0  0  0  0
 17 18  2  0  0  0  0
 18 19  1  0  0  0  0
 19 23  1  0  0  0  0
 20 19  2  0  0  0  0
 21 15  1  0  0  0  0
 22 17  1  0  0  0  0
 23 24  1  0  0  0  0
 23 26  1  0  0  0  0
 23 25  1  0  0  0  0
M  END
>  <minimizedAffinity>
-5.21280575

$$$$

 OpenBabel03262522233D

 26 27  0  0  0  0  0  0  0  0999 V2000
   37.6240   22.6530   32.1960 C   0  0  0  0  0  0  0  0  0  0  0  0
   36.3320   22.9730   31.9570 C   0  0  0  0  0  0  0  0  0  0  0  0
   35.5290   22.1270   31.2550 C   0  0  0  0  0  0  0  0  0  0  0  0
   36.0780   20.9470   30.8010 C   0  0  0  0  0  0  0  0  0  0  0  0
   37.3950   20.6250   31.0460 C   0  0  0  0  0  0  0  0  0  0  0  0
   38.1370   21.5130   31.7530 N   0  0  0  0  0  0  0  0  0  0  0  0
   36.0000   23.9380   32.3650 H   0  0  0  0  0  0  0  0  0  0  0  0
   34.5040   22.3840   31.0670 H   0  0  0  0  0  0  0  0  0  0  0  0
   35.4830   20.2340   30.2330 H   0  0  0  0  0  0  0  0  0  0  0  0
   37.9760   19.3370   30.5460 C   0  0  0  0  0  0  0  0  0  0  0  0
   39.0600   19.3340   30.7710 H   0  0  0  0  0  0  0  0  0  0  0  0
   37.8970   19.4030   29.4250 H   0  0  0  0  0  0  0  0  0  0  0  0
   37.4540   18.4630   30.9310 H   0  0  0  0  0  0  0  0  0  0  0  0
   38.5800   23.4010   32.8950 O   0  0  0  0  0  0  0  0  0  0  0  0
   38.1640   24.6290   34.8250 C   0  0  0  0  0  0  0  0  0  0  0  0
   38.5220   23.3850   34.2520 C   0  0  0  0  0  0  0  0  0  0  0  0
   38.7640   22.3290   35.1170 C   0  0  0  0  0  0  0  0  0  0  0  0
   38.6430   22.5580   36.4420 N   0  0  0  0  0  0  0  0  0  0  0  0
   38.3080   23.7250   36.9550 C   0  0  0  0  0  0  0  0  0  0  0  0
   38.0550   24.8130   36.1530 N   0  0  0  0  0  0  0  0  0  0  0  0
   37.9530   25.5180   34.2610 H   0  0  0  0  0  0  0  0  0  0  0  0
   39.0300   21.4170   34.6330 H   0  0  0  0  0  0  0  0  0  0  0  0
   38.2190   23.8010   38.4480 C   0  0  0  0  0  0  0  0  0  0  0  0
   37.3240   22.8870   38.9460 F   0  0  0  0  0  0  0  0  0  0  0  0
   37.9620   25.0840   38.8890 F   0  0  0  0  0  0  0  0  0  0  0  0
   39.4920   23.4610   38.9260 F   0  0  0  0  0  0  0  0  0  0  0  0
  1 14  1  0  0  0  0
  2  1  1  0  0  0  0
  2  7  1  0  0  0  0
  3  2  2  0  0  0  0
  4  5  2  0  0  0  0
  4  3  1  0  0  0  0
  5  6  1  0  0  0  0
  6  1  2  0  0  0  0
  8  3  1  0  0  0  0
  9  4  1  0  0  0  0
 10 11  1  0  0  0  0
 10 13  1  0  0  0  0
 10  5  1  0  0  0  0
 12 10  1  0  0  0  0
 14 16  1  0  0  0  0
 15 20  1  0  0  0  0
 16 15  2  0  0  0  0
 16 17  1  0  0  0  0
 17 18  2  0  0  0  0
 18 19  1  0  0  0  0
 19 23  1  0  0  0  0
 20 19  2  0  0  0  0
 21 15  1  0  0  0  0
 22 17  1  0  0  0  0
 23 25  1  0  0  0  0
 23 26  1  0  0  0  0
 23 24  1  0  0  0  0
M  END
>  <minimizedAffinity>
-4.93172359

$$$$

 OpenBabel03262522233D

 26 27  0  0  0  0  0  0  0  0999 V2000
   38.5840   24.2910   35.8760 C   0  0  0  0  0  0  0  0  0  0  0  0
   37.7190   24.5680   36.8760 C   0  0  0  0  0  0  0  0  0  0  0  0
   37.8840   24.0130   38.1080 C   0  0  0  0  0  0  0  0  0  0  0  0
   38.9550   23.1660   38.2930 C   0  0  0  0  0  0  0  0  0  0  0  0
   39.8360   22.8860   37.2710 C   0  0  0  0  0  0  0  0  0  0  0  0
   39.6110   23.4740   36.0700 N   0  0  0  0  0  0  0  0  0  0  0  0
   36.9010   25.2560   36.6180 H   0  0  0  0  0  0  0  0  0  0  0  0
   37.1940   24.2350   38.9000 H   0  0  0  0  0  0  0  0  0  0  0  0
   39.1370   22.6930   39.2570 H   0  0  0  0  0  0  0  0  0  0  0  0
   40.9970   21.9630   37.4900 C   0  0  0  0  0  0  0  0  0  0  0  0
   41.5060   21.8080   36.5180 H   0  0  0  0  0  0  0  0  0  0  0  0
   40.5310   20.9720   37.7510 H   0  0  0  0  0  0  0  0  0  0  0  0
   41.6660   22.3080   38.2760 H   0  0  0  0  0  0  0  0  0  0  0  0
   38.5620   24.7720   34.5610 O   0  0  0  0  0  0  0  0  0  0  0  0
   37.1520   25.9000   33.0960 C   0  0  0  0  0  0  0  0  0  0  0  0
   37.8640   25.9120   34.3200 C   0  0  0  0  0  0  0  0  0  0  0  0
   37.7670   27.0510   35.1040 C   0  0  0  0  0  0  0  0  0  0  0  0
   37.0050   28.0680   34.6480 N   0  0  0  0  0  0  0  0  0  0  0  0
   36.3500   28.0360   33.5060 C   0  0  0  0  0  0  0  0  0  0  0  0
   36.4030   26.9370   32.6810 N   0  0  0  0  0  0  0  0  0  0  0  0
   37.1480   25.0780   32.4050 H   0  0  0  0  0  0  0  0  0  0  0  0
   38.3230   27.0060   36.0130 H   0  0  0  0  0  0  0  0  0  0  0  0
   35.5500   29.2530   33.1560 C   0  0  0  0  0  0  0  0  0  0  0  0
   35.4630   29.4250   31.7970 F   0  0  0  0  0  0  0  0  0  0  0  0
   36.0130   30.3830   33.8010 F   0  0  0  0  0  0  0  0  0  0  0  0
   34.2580   29.0160   33.6420 F   0  0  0  0  0  0  0  0  0  0  0  0
  1  6  2  0  0  0  0
  1  2  1  0  0  0  0
  2  3  2  0  0  0  0
  3  4  1  0  0  0  0
  3  8  1  0  0  0  0
  4  9  1  0  0  0  0
  5 10  1  0  0  0  0
  5  4  2  0  0  0  0
  6  5  1  0  0  0  0
  7  2  1  0  0  0  0
 10 12  1  0  0  0  0
 10 13  1  0  0  0  0
 11 10  1  0  0  0  0
 14  1  1  0  0  0  0
 15 16  1  0  0  0  0
 16 14  1  0  0  0  0
 16 17  2  0  0  0  0
 17 22  1  0  0  0  0
 18 17  1  0  0  0  0
 19 18  2  0  0  0  0
 20 15  2  0  0  0  0
 20 19  1  0  0  0  0
 21 15  1  0  0  0  0
 23 19  1  0  0  0  0
 23 26  1  0  0  0  0
 23 25  1  0  0  0  0
 24 23  1  0  0  0  0
M  END
>  <minimizedAffinity>
-4.89605427

$$$$

 OpenBabel03262522233D

 26 27  0  0  0  0  0  0  0  0999 V2000
   38.3460   25.9300   33.6810 C   0  0  0  0  0  0  0  0  0  0  0  0
   39.1740   26.0520   34.7430 C   0  0  0  0  0  0  0  0  0  0  0  0
   38.9590   27.0160   35.6800 C   0  0  0  0  0  0  0  0  0  0  0  0
   37.8790   27.8530   35.5060 C   0  0  0  0  0  0  0  0  0  0  0  0
   37.0370   27.7260   34.4220 C   0  0  0  0  0  0  0  0  0  0  0  0
   37.3100   26.7440   33.5280 N   0  0  0  0  0  0  0  0  0  0  0  0
   40.0030   25.3320   34.7820 H   0  0  0  0  0  0  0  0  0  0  0  0
   39.6180   27.1090   36.5220 H   0  0  0  0  0  0  0  0  0  0  0  0
   37.6590   28.6420   36.2230 H   0  0  0  0  0  0  0  0  0  0  0  0
   35.8650   28.6450   34.2480 C   0  0  0  0  0  0  0  0  0  0  0  0
   35.3940   28.4260   33.2700 H   0  0  0  0  0  0  0  0  0  0  0  0
   36.3180   29.6700   34.1450 H   0  0  0  0  0  0  0  0  0  0  0  0
   35.1680   28.5990   35.0820 H   0  0  0  0  0  0  0  0  0  0  0  0
   38.4210   25.0030   32.6340 O   0  0  0  0  0  0  0  0  0  0  0  0
   36.6890   23.6010   31.9690 C   0  0  0  0  0  0  0  0  0  0  0  0
   37.8090   23.8040   32.8110 C   0  0  0  0  0  0  0  0  0  0  0  0
   38.1390   22.7840   33.6910 C   0  0  0  0  0  0  0  0  0  0  0  0
   37.3730   21.6720   33.6850 N   0  0  0  0  0  0  0  0  0  0  0  0
   36.3350   21.5040   32.8920 C   0  0  0  0  0  0  0  0  0  0  0  0
   35.9530   22.4760   31.9970 N   0  0  0  0  0  0  0  0  0  0  0  0
   36.3350   24.3140   31.2490 H   0  0  0  0  0  0  0  0  0  0  0  0
   38.9900   22.9890   34.3010 H   0  0  0  0  0  0  0  0  0  0  0  0
   35.5970   20.2070   33.0180 C   0  0  0  0  0  0  0  0  0  0  0  0
   36.3650   19.1490   32.5980 F   0  0  0  0  0  0  0  0  0  0  0  0
   34.3660   20.2460   32.3940 F   0  0  0  0  0  0  0  0  0  0  0  0
   35.3470   20.0390   34.3870 F   0  0  0  0  0  0  0  0  0  0  0  0
  1  2  1  0  0  0  0
  2  7  1  0  0  0  0
  2  3  2  0  0  0  0
  3  8  1  0  0  0  0
  4  3  1  0  0  0  0
  4  9  1  0  0  0  0
  5  4  2  0  0  0  0
  6  1  2  0  0  0  0
  6  5  1  0  0  0  0
 10  5  1  0  0  0  0
 10 13  1  0  0  0  0
 11 10  1  0  0  0  0
 12 10  1  0  0  0  0
 14 16  1  0  0  0  0
 14  1  1  0  0  0  0
 15 20  2  0  0  0  0
 15 16  1  0  0  0  0
 16 17  2  0  0  0  0
 17 22  1  0  0  0  0
 18 17  1  0  0  0  0
 19 23  1  0  0  0  0
 19 18  2  0  0  0  0
 20 19  1  0  0  0  0
 21 15  1  0  0  0  0
 23 26  1  0  0  0  0
 24 23  1  0  0  0  0
 25 23  1  0  0  0  0
M  END
>  <minimizedAffinity>
-4.85442352

$$$$

 OpenBabel03262522233D

 26 27  0  0  0  0  0  0  0  0999 V2000
   39.0820   24.4870   35.6920 C   0  0  0  0  0  0  0  0  0  0  0  0
   38.1130   25.2670   36.2190 C   0  0  0  0  0  0  0  0  0  0  0  0
   38.1590   26.6200   36.0760 C   0  0  0  0  0  0  0  0  0  0  0  0
   39.2210   27.1580   35.3820 C   0  0  0  0  0  0  0  0  0  0  0  0
   40.2080   26.3590   34.8460 C   0  0  0  0  0  0  0  0  0  0  0  0
   40.0980   25.0200   35.0260 N   0  0  0  0  0  0  0  0  0  0  0  0
   37.3130   24.7340   36.7530 H   0  0  0  0  0  0  0  0  0  0  0  0
   37.3870   27.2370   36.4960 H   0  0  0  0  0  0  0  0  0  0  0  0
   39.3100   28.2330   35.2370 H   0  0  0  0  0  0  0  0  0  0  0  0
   41.3560   26.9600   34.0920 C   0  0  0  0  0  0  0  0  0  0  0  0
   42.0690   26.1500   33.8410 H   0  0  0  0  0  0  0  0  0  0  0  0
   41.8850   27.6090   34.8450 H   0  0  0  0  0  0  0  0  0  0  0  0
   41.0360   27.5350   33.2260 H   0  0  0  0  0  0  0  0  0  0  0  0
   39.1880   23.0920   35.7450 O   0  0  0  0  0  0  0  0  0  0  0  0
   38.4730   22.2030   33.7190 C   0  0  0  0  0  0  0  0  0  0  0  0
   38.2360   22.3640   35.1060 C   0  0  0  0  0  0  0  0  0  0  0  0
   37.0950   21.7780   35.6310 C   0  0  0  0  0  0  0  0  0  0  0  0
   36.2900   21.0960   34.7870 N   0  0  0  0  0  0  0  0  0  0  0  0
   36.5300   20.9580   33.4990 C   0  0  0  0  0  0  0  0  0  0  0  0
   37.6440   21.5140   32.9150 N   0  0  0  0  0  0  0  0  0  0  0  0
   39.3190   22.6090   33.1970 H   0  0  0  0  0  0  0  0  0  0  0  0
   36.9660   21.9300   36.6780 H   0  0  0  0  0  0  0  0  0  0  0  0
   35.5310   20.1680   32.7120 C   0  0  0  0  0  0  0  0  0  0  0  0
   34.4070   20.9070   32.4390 F   0  0  0  0  0  0  0  0  0  0  0  0
   35.2350   18.9590   33.3100 F   0  0  0  0  0  0  0  0  0  0  0  0
   36.1540   19.8680   31.4930 F   0  0  0  0  0  0  0  0  0  0  0  0
  1 14  1  0  0  0  0
  1  2  1  0  0  0  0
  2  7  1  0  0  0  0
  3  2  2  0  0  0  0
  3  8  1  0  0  0  0
  4  3  1  0  0  0  0
  5  6  1  0  0  0  0
  5  4  2  0  0  0  0
  6  1  2  0  0  0  0
  9  4  1  0  0  0  0
 10 12  1  0  0  0  0
 10  5  1  0  0  0  0
 11 10  1  0  0  0  0
 13 10  1  0  0  0  0
 15 16  1  0  0  0  0
 16 17  2  0  0  0  0
 16 14  1  0  0  0  0
 17 22  1  0  0  0  0
 18 17  1  0  0  0  0
 19 18  2  0  0  0  0
 20 19  1  0  0  0  0
 20 15  2  0  0  0  0
 21 15  1  0  0  0  0
 23 25  1  0  0  0  0
 23 19  1  0  0  0  0
 24 23  1  0  0  0  0
 26 23  1  0  0  0  0
M  END
>  <minimizedAffinity>
-4.83558321

$$$$

 OpenBabel03262522233D

 26 27  0  0  0  0  0  0  0  0999 V2000
   37.9790   25.8630   33.3500 C   0  0  0  0  0  0  0  0  0  0  0  0
   37.2620   26.3290   34.3970 C   0  0  0  0  0  0  0  0  0  0  0  0
   37.8750   26.9990   35.4120 C   0  0  0  0  0  0  0  0  0  0  0  0
   39.2380   27.1800   35.3320 C   0  0  0  0  0  0  0  0  0  0  0  0
   39.9660   26.7040   34.2630 C   0  0  0  0  0  0  0  0  0  0  0  0
   39.2910   26.0460   33.2880 N   0  0  0  0  0  0  0  0  0  0  0  0
   36.1820   26.1280   34.3580 H   0  0  0  0  0  0  0  0  0  0  0  0
   37.3010   27.3680   36.2410 H   0  0  0  0  0  0  0  0  0  0  0  0
   39.7810   27.7080   36.1150 H   0  0  0  0  0  0  0  0  0  0  0  0
   41.4490   26.9100   34.1920 C   0  0  0  0  0  0  0  0  0  0  0  0
   41.8340   26.3650   33.3080 H   0  0  0  0  0  0  0  0  0  0  0  0
   41.8590   26.3650   35.0870 H   0  0  0  0  0  0  0  0  0  0  0  0
   41.7280   27.9620   34.2040 H   0  0  0  0  0  0  0  0  0  0  0  0
   37.5130   25.1600   32.2330 O   0  0  0  0  0  0  0  0  0  0  0  0
   35.9900   23.5000   31.6590 C   0  0  0  0  0  0  0  0  0  0  0  0
   37.1260   23.8710   32.4170 C   0  0  0  0  0  0  0  0  0  0  0  0
   37.6930   22.9050   33.2330 C   0  0  0  0  0  0  0  0  0  0  0  0
   37.1240   21.6800   33.2510 N   0  0  0  0  0  0  0  0  0  0  0  0
   36.0660   21.3550   32.5360 C   0  0  0  0  0  0  0  0  0  0  0  0
   35.4560   22.2660   31.7060 N   0  0  0  0  0  0  0  0  0  0  0  0
   35.4640   24.1570   30.9930 H   0  0  0  0  0  0  0  0  0  0  0  0
   38.5450   23.2380   33.7810 H   0  0  0  0  0  0  0  0  0  0  0  0
   35.5680   19.9500   32.6760 C   0  0  0  0  0  0  0  0  0  0  0  0
   36.4820   19.0420   32.2020 F   0  0  0  0  0  0  0  0  0  0  0  0
   34.3180   19.7830   32.1130 F   0  0  0  0  0  0  0  0  0  0  0  0
   35.4200   19.7310   34.0520 F   0  0  0  0  0  0  0  0  0  0  0  0
  1  2  1  0  0  0  0
  2  3  2  0  0  0  0
  3  8  1  0  0  0  0
  4  3  1  0  0  0  0
  4  9  1  0  0  0  0
  5  4  2  0  0  0  0
  6  1  2  0  0  0  0
  6  5  1  0  0  0  0
  7  2  1  0  0  0  0
 10 13  1  0  0  0  0
 10  5  1  0  0  0  0
 10 12  1  0  0  0  0
 11 10  1  0  0  0  0
 14 16  1  0  0  0  0
 14  1  1  0  0  0  0
 15 20  2  0  0  0  0
 15 16  1  0  0  0  0
 16 17  2  0  0  0  0
 17 18  1  0  0  0  0
 17 22  1  0  0  0  0
 19 23  1  0  0  0  0
 19 18  2  0  0  0  0
 20 19  1  0  0  0  0
 21 15  1  0  0  0  0
 23 26  1  0  0  0  0
 24 23  1  0  0  0  0
 25 23  1  0  0  0  0
M  END
>  <minimizedAffinity>
-4.77850628

$$$$

 OpenBabel03262522233D

 26 27  0  0  0  0  0  0  0  0999 V2000
   36.3080   22.3530   31.4700 C   0  0  0  0  0  0  0  0  0  0  0  0
   35.2440   22.0040   32.2260 C   0  0  0  0  0  0  0  0  0  0  0  0
   34.8440   20.7050   32.2990 C   0  0  0  0  0  0  0  0  0  0  0  0
   35.5560   19.7710   31.5790 C   0  0  0  0  0  0  0  0  0  0  0  0
   36.6400   20.1300   30.8090 C   0  0  0  0  0  0  0  0  0  0  0  0
   36.9840   21.4420   30.7830 N   0  0  0  0  0  0  0  0  0  0  0  0
   34.7500   22.8290   32.7580 H   0  0  0  0  0  0  0  0  0  0  0  0
   33.9980   20.4310   32.9020 H   0  0  0  0  0  0  0  0  0  0  0  0
   35.2810   18.7170   31.5990 H   0  0  0  0  0  0  0  0  0  0  0  0
   37.4060   19.1010   30.0320 C   0  0  0  0  0  0  0  0  0  0  0  0
   38.1640   19.6230   29.4160 H   0  0  0  0  0  0  0  0  0  0  0  0
   36.6590   18.6790   29.3030 H   0  0  0  0  0  0  0  0  0  0  0  0
   37.8270   18.3240   30.6660 H   0  0  0  0  0  0  0  0  0  0  0  0
   36.8500   23.6310   31.2840 O   0  0  0  0  0  0  0  0  0  0  0  0
   36.7860   25.6040   32.5120 C   0  0  0  0  0  0  0  0  0  0  0  0
   37.2970   24.2900   32.3840 C   0  0  0  0  0  0  0  0  0  0  0  0
   38.1670   23.8450   33.3670 C   0  0  0  0  0  0  0  0  0  0  0  0
   38.4680   24.6920   34.3750 N   0  0  0  0  0  0  0  0  0  0  0  0
   37.9800   25.9120   34.4760 C   0  0  0  0  0  0  0  0  0  0  0  0
   37.1120   26.4150   33.5350 N   0  0  0  0  0  0  0  0  0  0  0  0
   36.1060   26.0610   31.8180 H   0  0  0  0  0  0  0  0  0  0  0  0
   38.5220   22.8510   33.2210 H   0  0  0  0  0  0  0  0  0  0  0  0
   38.4190   26.7150   35.6610 C   0  0  0  0  0  0  0  0  0  0  0  0
   39.7210   27.1330   35.5310 F   0  0  0  0  0  0  0  0  0  0  0  0
   38.1950   26.0520   36.8510 F   0  0  0  0  0  0  0  0  0  0  0  0
   37.6020   27.8530   35.6770 F   0  0  0  0  0  0  0  0  0  0  0  0
  1  2  1  0  0  0  0
  2  3  2  0  0  0  0
  2  7  1  0  0  0  0
  3  8  1  0  0  0  0
  4  9  1  0  0  0  0
  4  3  1  0  0  0  0
  5  4  2  0  0  0  0
  6  5  1  0  0  0  0
  6  1  2  0  0  0  0
 10 13  1  0  0  0  0
 10  5  1  0  0  0  0
 11 10  1  0  0  0  0
 12 10  1  0  0  0  0
 14  1  1  0  0  0  0
 14 16  1  0  0  0  0
 15 20  1  0  0  0  0
 16 15  2  0  0  0  0
 16 17  1  0  0  0  0
 17 18  2  0  0  0  0
 18 19  1  0  0  0  0
 19 23  1  0  0  0  0
 20 19  2  0  0  0  0
 21 15  1  0  0  0  0
 22 17  1  0  0  0  0
 23 26  1  0  0  0  0
 23 25  1  0  0  0  0
 24 23  1  0  0  0  0
M  END
>  <minimizedAffinity>
-4.77732658

$$$$
