
 OpenBabel03272506473D

 37 39  0  0  1  0  0  0  0  0999 V2000
   32.3340   28.5450   47.4210 C   0  0  2  0  0  0  0  0  0  0  0  0
   33.5550   28.4430   48.2880 C   0  0  1  0  0  0  0  0  0  0  0  0
   33.9900   27.1520   48.2550 O   0  0  0  0  0  0  0  0  0  0  0  0
   33.3380   26.4750   47.2290 C   0  0  0  0  0  0  0  0  0  0  0  0
   32.7330   27.5140   46.3190 C   0  0  1  0  0  0  0  0  0  0  0  0
   31.3990   28.2290   47.8750 H   0  0  0  0  0  0  0  0  0  0  0  0
   33.3450   28.8370   49.2990 H   0  0  0  0  0  0  0  0  0  0  0  0
   32.6530   25.7870   47.6980 H   0  0  0  0  0  0  0  0  0  0  0  0
   34.0860   25.8420   46.6840 H   0  0  0  0  0  0  0  0  0  0  0  0
   33.4280   28.0180   45.6590 H   0  0  0  0  0  0  0  0  0  0  0  0
   32.2460   29.8230   46.8340 O   0  0  0  0  0  0  0  0  0  0  0  0
   31.3670   30.2220   46.9400 H   0  0  0  0  0  0  0  0  0  0  0  0
   34.8580   29.5010   47.5370 S   0  0  0  0  0  0  0  0  0  0  0  0
   37.3230   29.3130   50.6270 C   0  0  0  0  0  0  0  0  0  0  0  0
   37.8200   30.6120   50.7830 C   0  0  0  0  0  0  0  0  0  0  0  0
   37.3640   31.5880   49.8810 C   0  0  0  0  0  0  0  0  0  0  0  0
   36.4780   31.2260   48.9200 N   0  0  0  0  0  0  0  0  0  0  0  0
   36.0270   29.9550   48.8130 C   0  0  0  0  0  0  0  0  0  0  0  0
   36.4420   28.9810   49.6640 N   0  0  0  0  0  0  0  0  0  0  0  0
   37.6600   28.5490   51.3090 H   0  0  0  0  0  0  0  0  0  0  0  0
   38.5290   30.8730   51.5610 H   0  0  0  0  0  0  0  0  0  0  0  0
   37.6960   32.6050   49.9320 H   0  0  0  0  0  0  0  0  0  0  0  0
   31.6200   26.9830   45.7140 O   0  0  0  0  0  0  0  0  0  0  0  0
   30.2010   29.0200   44.1290 Cl  0  0  0  0  0  0  0  0  0  0  0  0
   29.5980   28.0570   45.4580 C   0  0  0  0  0  0  0  0  0  0  0  0
   30.3630   27.1220   46.1180 C   0  0  0  0  0  0  0  0  0  0  0  0
   29.7630   26.3960   47.1500 C   0  0  0  0  0  0  0  0  0  0  0  0
   28.4440   26.6160   47.4900 C   0  0  0  0  0  0  0  0  0  0  0  0
   27.6690   27.5550   46.8310 C   0  0  0  0  0  0  0  0  0  0  0  0
   28.2720   28.2760   45.8030 C   0  0  0  0  0  0  0  0  0  0  0  0
   30.2760   25.6410   47.7200 H   0  0  0  0  0  0  0  0  0  0  0  0
   27.9220   26.0910   48.2740 H   0  0  0  0  0  0  0  0  0  0  0  0
   26.6350   27.7370   47.0870 H   0  0  0  0  0  0  0  0  0  0  0  0
   27.4480   29.2860   45.0890 C   0  0  0  0  0  0  0  0  0  0  0  0
   27.4030   29.0500   43.7270 F   0  0  0  0  0  0  0  0  0  0  0  0
   28.0650   30.5270   45.2970 F   0  0  0  0  0  0  0  0  0  0  0  0
   26.1970   29.4050   45.6290 F   0  0  0  0  0  0  0  0  0  0  0  0
  1  6  1  1  0  0  0
  1  2  1  0  0  0  0
  2  7  1  1  0  0  0
  3  2  1  0  0  0  0
  4  8  1  0  0  0  0
  4  3  1  0  0  0  0
  5 10  1  6  0  0  0
  5  4  1  0  0  0  0
  5  1  1  0  0  0  0
  9  4  1  0  0  0  0
 11 12  1  0  0  0  0
 11  1  1  0  0  0  0
 13  2  1  0  0  0  0
 13 18  1  0  0  0  0
 14 15  1  0  0  0  0
 14 20  1  0  0  0  0
 15 21  1  0  0  0  0
 16 22  1  0  0  0  0
 16 15  2  0  0  0  0
 17 16  1  0  0  0  0
 18 17  2  0  0  0  0
 18 19  1  0  0  0  0
 19 14  2  0  0  0  0
 23 26  1  0  0  0  0
 23  5  1  0  0  0  0
 24 25  1  0  0  0  0
 25 30  2  0  0  0  0
 25 26  1  0  0  0  0
 26 27  2  0  0  0  0
 27 28  1  0  0  0  0
 27 31  1  0  0  0  0
 28 32  1  0  0  0  0
 29 33  1  0  0  0  0
 29 28  2  0  0  0  0
 30 29  1  0  0  0  0
 34 36  1  0  0  0  0
 34 37  1  0  0  0  0
 34 30  1  0  0  0  0
 35 34  1  0  0  0  0
M  END
>  <minimizedAffinity>
-4.72408772

>  <minimizedRMSD>
0.252312034

$$$$
