
 OpenBabel03272508503D

 35 38  0  0  0  0  0  0  0  0999 V2000
   37.6930   27.3760   33.9320 C   0  0  0  0  0  0  0  0  0  0  0  0
   37.1710   27.5560   32.6590 C   0  0  0  0  0  0  0  0  0  0  0  0
   36.1560   28.4830   32.8610 C   0  0  0  0  0  0  0  0  0  0  0  0
   36.0990   28.8220   34.1930 C   0  0  0  0  0  0  0  0  0  0  0  0
   37.0420   28.1300   34.7900 O   0  0  0  0  0  0  0  0  0  0  0  0
   37.4810   27.0840   31.7250 H   0  0  0  0  0  0  0  0  0  0  0  0
   35.5060   28.8840   32.0880 H   0  0  0  0  0  0  0  0  0  0  0  0
   33.8390   29.6980   34.5270 C   0  0  0  0  0  0  0  0  0  0  0  0
   35.1840   29.7580   34.8350 C   0  0  0  0  0  0  0  0  0  0  0  0
   35.6860   30.6760   35.7340 C   0  0  0  0  0  0  0  0  0  0  0  0
   34.8360   31.5830   36.3630 C   0  0  0  0  0  0  0  0  0  0  0  0
   35.0150   32.5720   37.2620 N   0  0  0  0  0  0  0  0  0  0  0  0
   33.8230   33.0990   37.4940 N   0  0  0  0  0  0  0  0  0  0  0  0
   32.8810   32.4650   36.7620 C   0  0  0  0  0  0  0  0  0  0  0  0
   33.5080   31.4710   36.0130 C   0  0  0  0  0  0  0  0  0  0  0  0
   32.9420   30.5880   35.1330 C   0  0  0  0  0  0  0  0  0  0  0  0
   33.4780   28.9810   33.8310 H   0  0  0  0  0  0  0  0  0  0  0  0
   36.7600   30.6910   35.9510 H   0  0  0  0  0  0  0  0  0  0  0  0
   35.9750   32.7830   37.6290 H   0  0  0  0  0  0  0  0  0  0  0  0
   31.8410   32.7540   36.8150 H   0  0  0  0  0  0  0  0  0  0  0  0
   31.9000   30.5860   34.9330 H   0  0  0  0  0  0  0  0  0  0  0  0
   38.8000   26.4780   34.2450 C   0  0  0  0  0  0  0  0  0  0  0  0
   39.9510   26.8120   33.9080 O   0  0  0  0  0  0  0  0  0  0  0  0
   38.0530   22.9440   34.7790 C   0  0  0  0  0  0  0  0  0  0  0  0
   38.0070   22.8320   36.1730 C   0  0  0  0  0  0  0  0  0  0  0  0
   38.2300   23.9600   36.9200 C   0  0  0  0  0  0  0  0  0  0  0  0
   38.4830   25.1230   36.2860 N   0  0  0  0  0  0  0  0  0  0  0  0
   38.5270   25.2230   34.9400 C   0  0  0  0  0  0  0  0  0  0  0  0
   38.3090   24.1260   34.1860 N   0  0  0  0  0  0  0  0  0  0  0  0
   37.8790   22.0630   34.1780 H   0  0  0  0  0  0  0  0  0  0  0  0
   37.8040   21.8990   36.6600 H   0  0  0  0  0  0  0  0  0  0  0  0
   38.1810   23.8420   38.4000 C   0  0  0  0  0  0  0  0  0  0  0  0
   37.8740   25.0580   39.0130 F   0  0  0  0  0  0  0  0  0  0  0  0
   37.2830   22.8560   38.8040 F   0  0  0  0  0  0  0  0  0  0  0  0
   39.4000   23.4590   38.9240 F   0  0  0  0  0  0  0  0  0  0  0  0
  1 22  1  0  0  0  0
  1  5  1  0  0  0  0
  2  3  1  0  0  0  0
  2  1  2  0  0  0  0
  3  4  2  0  0  0  0
  4  5  1  0  0  0  0
  4  9  1  0  0  0  0
  6  2  1  0  0  0  0
  7  3  1  0  0  0  0
  8  9  2  0  0  0  0
  8 16  1  0  0  0  0
  9 10  1  0  0  0  0
 10 18  1  0  0  0  0
 10 11  2  0  0  0  0
 11 12  1  0  0  0  0
 12 13  1  0  0  0  0
 12 19  1  0  0  0  0
 14 20  1  0  0  0  0
 14 13  2  0  0  0  0
 15 11  1  0  0  0  0
 15 14  1  0  0  0  0
 16 15  2  0  0  0  0
 17  8  1  0  0  0  0
 21 16  1  0  0  0  0
 22 28  1  0  0  0  0
 23 22  2  0  0  0  0
 24 25  1  0  0  0  0
 25 31  1  0  0  0  0
 25 26  2  0  0  0  0
 26 32  1  0  0  0  0
 27 26  1  0  0  0  0
 28 27  2  0  0  0  0
 29 24  2  0  0  0  0
 29 28  1  0  0  0  0
 30 24  1  0  0  0  0
 32 34  1  0  0  0  0
 32 35  1  0  0  0  0
 32 33  1  0  0  0  0
M  END
>  <minimizedAffinity>
-6.90797091

$$$$

 OpenBabel03272508503D

 35 38  0  0  0  0  0  0  0  0999 V2000
   37.5290   27.4100   33.9360 C   0  0  0  0  0  0  0  0  0  0  0  0
   36.8110   27.5150   32.7540 C   0  0  0  0  0  0  0  0  0  0  0  0
   35.8710   28.4960   33.0400 C   0  0  0  0  0  0  0  0  0  0  0  0
   36.0430   28.9370   34.3320 C   0  0  0  0  0  0  0  0  0  0  0  0
   37.0500   28.2530   34.8230 O   0  0  0  0  0  0  0  0  0  0  0  0
   36.9490   26.9600   31.8230 H   0  0  0  0  0  0  0  0  0  0  0  0
   35.1140   28.8640   32.3530 H   0  0  0  0  0  0  0  0  0  0  0  0
   35.9460   30.9640   35.6990 C   0  0  0  0  0  0  0  0  0  0  0  0
   35.2740   29.9570   35.0340 C   0  0  0  0  0  0  0  0  0  0  0  0
   33.8950   29.8900   35.0150 C   0  0  0  0  0  0  0  0  0  0  0  0
   33.1350   30.8500   35.6780 C   0  0  0  0  0  0  0  0  0  0  0  0
   31.8120   31.0540   35.8400 N   0  0  0  0  0  0  0  0  0  0  0  0
   31.6800   32.1450   36.5780 N   0  0  0  0  0  0  0  0  0  0  0  0
   32.8940   32.6470   36.8920 C   0  0  0  0  0  0  0  0  0  0  0  0
   33.8650   31.8260   36.3210 C   0  0  0  0  0  0  0  0  0  0  0  0
   35.2270   31.9540   36.3810 C   0  0  0  0  0  0  0  0  0  0  0  0
   37.0080   30.9930   35.6980 H   0  0  0  0  0  0  0  0  0  0  0  0
   33.4010   29.0750   34.4760 H   0  0  0  0  0  0  0  0  0  0  0  0
   31.1200   30.3940   35.4090 H   0  0  0  0  0  0  0  0  0  0  0  0
   32.9950   33.5400   37.4930 H   0  0  0  0  0  0  0  0  0  0  0  0
   35.6930   32.7500   36.9070 H   0  0  0  0  0  0  0  0  0  0  0  0
   38.6470   26.4930   34.1380 C   0  0  0  0  0  0  0  0  0  0  0  0
   39.7690   26.8180   33.7100 O   0  0  0  0  0  0  0  0  0  0  0  0
   37.9710   22.9440   34.6700 C   0  0  0  0  0  0  0  0  0  0  0  0
   37.9730   22.8220   36.0640 C   0  0  0  0  0  0  0  0  0  0  0  0
   38.2040   23.9470   36.8110 C   0  0  0  0  0  0  0  0  0  0  0  0
   38.4180   25.1190   36.1790 N   0  0  0  0  0  0  0  0  0  0  0  0
   38.4160   25.2290   34.8330 C   0  0  0  0  0  0  0  0  0  0  0  0
   38.1900   24.1330   34.0780 N   0  0  0  0  0  0  0  0  0  0  0  0
   37.7900   22.0650   34.0680 H   0  0  0  0  0  0  0  0  0  0  0  0
   37.8010   21.8820   36.5500 H   0  0  0  0  0  0  0  0  0  0  0  0
   38.2060   23.8190   38.2910 C   0  0  0  0  0  0  0  0  0  0  0  0
   37.2300   22.9280   38.7420 F   0  0  0  0  0  0  0  0  0  0  0  0
   39.4610   23.4430   38.7690 F   0  0  0  0  0  0  0  0  0  0  0  0
   37.9280   25.0200   38.9110 F   0  0  0  0  0  0  0  0  0  0  0  0
  1 22  1  0  0  0  0
  1  5  1  0  0  0  0
  2  3  1  0  0  0  0
  2  1  2  0  0  0  0
  3  4  2  0  0  0  0
  4  5  1  0  0  0  0
  4  9  1  0  0  0  0
  6  2  1  0  0  0  0
  7  3  1  0  0  0  0
  8 16  1  0  0  0  0
  9  8  2  0  0  0  0
 10  9  1  0  0  0  0
 10 11  2  0  0  0  0
 11 12  1  0  0  0  0
 11 15  1  0  0  0  0
 12 13  1  0  0  0  0
 13 14  2  0  0  0  0
 14 20  1  0  0  0  0
 15 16  2  0  0  0  0
 15 14  1  0  0  0  0
 16 21  1  0  0  0  0
 17  8  1  0  0  0  0
 18 10  1  0  0  0  0
 19 12  1  0  0  0  0
 22 28  1  0  0  0  0
 23 22  2  0  0  0  0
 24 25  1  0  0  0  0
 25 31  1  0  0  0  0
 25 26  2  0  0  0  0
 26 32  1  0  0  0  0
 27 26  1  0  0  0  0
 28 27  2  0  0  0  0
 29 24  2  0  0  0  0
 29 28  1  0  0  0  0
 30 24  1  0  0  0  0
 32 33  1  0  0  0  0
 32 34  1  0  0  0  0
 32 35  1  0  0  0  0
M  END
>  <minimizedAffinity>
-6.63776016

$$$$

 OpenBabel03272508503D

 35 38  0  0  0  0  0  0  0  0999 V2000
   38.0950   25.1000   33.1790 C   0  0  0  0  0  0  0  0  0  0  0  0
   39.1580   25.7550   32.5730 C   0  0  0  0  0  0  0  0  0  0  0  0
   38.6750   27.0450   32.3940 C   0  0  0  0  0  0  0  0  0  0  0  0
   37.3890   27.1270   32.8770 C   0  0  0  0  0  0  0  0  0  0  0  0
   37.0910   25.9330   33.3370 O   0  0  0  0  0  0  0  0  0  0  0  0
   40.1370   25.3550   32.3020 H   0  0  0  0  0  0  0  0  0  0  0  0
   39.2240   27.8660   31.9430 H   0  0  0  0  0  0  0  0  0  0  0  0
   36.0160   28.7450   34.0940 C   0  0  0  0  0  0  0  0  0  0  0  0
   36.5150   28.2930   32.8880 C   0  0  0  0  0  0  0  0  0  0  0  0
   36.2110   28.9150   31.6940 C   0  0  0  0  0  0  0  0  0  0  0  0
   35.3780   30.0300   31.6740 C   0  0  0  0  0  0  0  0  0  0  0  0
   34.9080   30.8350   30.6990 N   0  0  0  0  0  0  0  0  0  0  0  0
   34.1470   31.7450   31.2870 N   0  0  0  0  0  0  0  0  0  0  0  0
   34.1220   31.5410   32.6220 C   0  0  0  0  0  0  0  0  0  0  0  0
   34.9140   30.4310   32.9080 C   0  0  0  0  0  0  0  0  0  0  0  0
   35.1740   29.8650   34.1270 C   0  0  0  0  0  0  0  0  0  0  0  0
   36.2660   28.2490   34.9990 H   0  0  0  0  0  0  0  0  0  0  0  0
   36.6270   28.5250   30.7590 H   0  0  0  0  0  0  0  0  0  0  0  0
   35.1710   30.6610   29.6990 H   0  0  0  0  0  0  0  0  0  0  0  0
   33.5530   32.1850   33.2790 H   0  0  0  0  0  0  0  0  0  0  0  0
   34.7630   30.2540   35.0260 H   0  0  0  0  0  0  0  0  0  0  0  0
   38.1160   23.6940   33.5740 C   0  0  0  0  0  0  0  0  0  0  0  0
   37.5860   22.8570   32.8210 O   0  0  0  0  0  0  0  0  0  0  0  0
   40.5000   22.1880   35.8940 C   0  0  0  0  0  0  0  0  0  0  0  0
   40.0080   22.5640   37.1480 C   0  0  0  0  0  0  0  0  0  0  0  0
   38.8700   23.3270   37.1950 C   0  0  0  0  0  0  0  0  0  0  0  0
   38.2740   23.6810   36.0390 N   0  0  0  0  0  0  0  0  0  0  0  0
   38.7540   23.3150   34.8310 C   0  0  0  0  0  0  0  0  0  0  0  0
   39.8730   22.5640   34.7620 N   0  0  0  0  0  0  0  0  0  0  0  0
   41.3960   21.5870   35.8420 H   0  0  0  0  0  0  0  0  0  0  0  0
   40.4950   22.2730   38.0580 H   0  0  0  0  0  0  0  0  0  0  0  0
   38.3480   23.7260   38.5270 C   0  0  0  0  0  0  0  0  0  0  0  0
   37.8500   25.0310   38.5260 F   0  0  0  0  0  0  0  0  0  0  0  0
   37.3740   22.8380   38.9810 F   0  0  0  0  0  0  0  0  0  0  0  0
   39.3350   23.7060   39.4920 F   0  0  0  0  0  0  0  0  0  0  0  0
  1  5  1  0  0  0  0
  1 22  1  0  0  0  0
  2  1  2  0  0  0  0
  3  2  1  0  0  0  0
  3  4  2  0  0  0  0
  4  9  1  0  0  0  0
  4  5  1  0  0  0  0
  6  2  1  0  0  0  0
  7  3  1  0  0  0  0
  8 16  1  0  0  0  0
  8 17  1  0  0  0  0
  9  8  2  0  0  0  0
 10  9  1  0  0  0  0
 11 10  2  0  0  0  0
 11 15  1  0  0  0  0
 12 13  1  0  0  0  0
 12 11  1  0  0  0  0
 13 14  2  0  0  0  0
 14 15  1  0  0  0  0
 14 20  1  0  0  0  0
 15 16  2  0  0  0  0
 16 21  1  0  0  0  0
 18 10  1  0  0  0  0
 19 12  1  0  0  0  0
 22 28  1  0  0  0  0
 23 22  2  0  0  0  0
 24 25  1  0  0  0  0
 25 26  2  0  0  0  0
 25 31  1  0  0  0  0
 26 32  1  0  0  0  0
 27 26  1  0  0  0  0
 28 27  2  0  0  0  0
 29 28  1  0  0  0  0
 29 24  2  0  0  0  0
 30 24  1  0  0  0  0
 32 34  1  0  0  0  0
 32 35  1  0  0  0  0
 33 32  1  0  0  0  0
M  END
>  <minimizedAffinity>
-6.48638773

$$$$

 OpenBabel03272508503D

 35 38  0  0  0  0  0  0  0  0999 V2000
   38.0750   27.1240   33.6610 C   0  0  0  0  0  0  0  0  0  0  0  0
   37.8400   27.0020   32.2990 C   0  0  0  0  0  0  0  0  0  0  0  0
   36.7040   27.7780   32.1030 C   0  0  0  0  0  0  0  0  0  0  0  0
   36.3050   28.3220   33.3010 C   0  0  0  0  0  0  0  0  0  0  0  0
   37.1610   27.8980   34.2020 O   0  0  0  0  0  0  0  0  0  0  0  0
   38.4090   26.4350   31.5590 H   0  0  0  0  0  0  0  0  0  0  0  0
   36.2050   27.9350   31.1510 H   0  0  0  0  0  0  0  0  0  0  0  0
   35.1840   30.0320   34.6450 C   0  0  0  0  0  0  0  0  0  0  0  0
   35.1640   29.1950   33.5460 C   0  0  0  0  0  0  0  0  0  0  0  0
   34.0950   29.1640   32.6730 C   0  0  0  0  0  0  0  0  0  0  0  0
   32.9920   29.9880   32.8820 C   0  0  0  0  0  0  0  0  0  0  0  0
   31.8280   30.1840   32.2300 N   0  0  0  0  0  0  0  0  0  0  0  0
   31.1610   31.1060   32.9060 N   0  0  0  0  0  0  0  0  0  0  0  0
   31.8750   31.5070   33.9800 C   0  0  0  0  0  0  0  0  0  0  0  0
   33.0740   30.7980   33.9940 C   0  0  0  0  0  0  0  0  0  0  0  0
   34.0980   30.8810   34.8990 C   0  0  0  0  0  0  0  0  0  0  0  0
   36.0200   30.0380   35.3010 H   0  0  0  0  0  0  0  0  0  0  0  0
   34.1180   28.4860   31.8140 H   0  0  0  0  0  0  0  0  0  0  0  0
   31.6140   29.6400   31.3600 H   0  0  0  0  0  0  0  0  0  0  0  0
   31.4960   32.2590   34.6580 H   0  0  0  0  0  0  0  0  0  0  0  0
   34.0630   31.5430   35.7280 H   0  0  0  0  0  0  0  0  0  0  0  0
   39.1800   26.4780   34.3630 C   0  0  0  0  0  0  0  0  0  0  0  0
   40.2900   27.0400   34.3700 O   0  0  0  0  0  0  0  0  0  0  0  0
   38.7650   22.8820   34.8440 C   0  0  0  0  0  0  0  0  0  0  0  0
   38.5270   22.7670   36.2180 C   0  0  0  0  0  0  0  0  0  0  0  0
   38.5100   23.9130   36.9700 C   0  0  0  0  0  0  0  0  0  0  0  0
   38.7210   25.0970   36.3600 N   0  0  0  0  0  0  0  0  0  0  0  0
   38.9500   25.2010   35.0330 C   0  0  0  0  0  0  0  0  0  0  0  0
   38.9710   24.0850   34.2740 N   0  0  0  0  0  0  0  0  0  0  0  0
   38.7810   21.9870   34.2390 H   0  0  0  0  0  0  0  0  0  0  0  0
   38.3610   21.8170   36.6860 H   0  0  0  0  0  0  0  0  0  0  0  0
   38.2580   23.7920   38.4290 C   0  0  0  0  0  0  0  0  0  0  0  0
   37.2340   22.8860   38.7110 F   0  0  0  0  0  0  0  0  0  0  0  0
   39.4170   23.4420   39.1200 F   0  0  0  0  0  0  0  0  0  0  0  0
   37.8550   24.9910   38.9810 F   0  0  0  0  0  0  0  0  0  0  0  0
  1  5  1  0  0  0  0
  1 22  1  0  0  0  0
  2  1  2  0  0  0  0
  3  2  1  0  0  0  0
  3  4  2  0  0  0  0
  4  9  1  0  0  0  0
  4  5  1  0  0  0  0
  6  2  1  0  0  0  0
  7  3  1  0  0  0  0
  8 16  1  0  0  0  0
  8 17  1  0  0  0  0
  9  8  2  0  0  0  0
 10 11  2  0  0  0  0
 10  9  1  0  0  0  0
 11 15  1  0  0  0  0
 12 11  1  0  0  0  0
 12 13  1  0  0  0  0
 13 14  2  0  0  0  0
 14 15  1  0  0  0  0
 14 20  1  0  0  0  0
 15 16  2  0  0  0  0
 16 21  1  0  0  0  0
 18 10  1  0  0  0  0
 19 12  1  0  0  0  0
 22 23  2  0  0  0  0
 22 28  1  0  0  0  0
 24 25  1  0  0  0  0
 25 31  1  0  0  0  0
 25 26  2  0  0  0  0
 26 32  1  0  0  0  0
 27 26  1  0  0  0  0
 28 27  2  0  0  0  0
 29 24  2  0  0  0  0
 29 28  1  0  0  0  0
 30 24  1  0  0  0  0
 32 33  1  0  0  0  0
 32 35  1  0  0  0  0
 32 34  1  0  0  0  0
M  END
>  <minimizedAffinity>
-6.33275461

$$$$

 OpenBabel03272508503D

 35 38  0  0  0  0  0  0  0  0999 V2000
   38.2230   24.4420   35.3440 C   0  0  0  0  0  0  0  0  0  0  0  0
   38.5310   25.2800   36.4070 C   0  0  0  0  0  0  0  0  0  0  0  0
   38.1430   26.5310   35.9450 C   0  0  0  0  0  0  0  0  0  0  0  0
   37.6340   26.4170   34.6730 C   0  0  0  0  0  0  0  0  0  0  0  0
   37.7050   25.1430   34.3610 O   0  0  0  0  0  0  0  0  0  0  0  0
   38.9710   25.0200   37.3710 H   0  0  0  0  0  0  0  0  0  0  0  0
   38.2260   27.4610   36.5010 H   0  0  0  0  0  0  0  0  0  0  0  0
   36.2320   28.3980   34.3610 C   0  0  0  0  0  0  0  0  0  0  0  0
   37.1140   27.4800   33.8230 C   0  0  0  0  0  0  0  0  0  0  0  0
   37.5180   27.5440   32.5050 C   0  0  0  0  0  0  0  0  0  0  0  0
   37.0380   28.5490   31.6690 C   0  0  0  0  0  0  0  0  0  0  0  0
   37.2370   28.8710   30.3750 N   0  0  0  0  0  0  0  0  0  0  0  0
   36.5030   29.9450   30.1300 N   0  0  0  0  0  0  0  0  0  0  0  0
   35.8360   30.3200   31.2430 C   0  0  0  0  0  0  0  0  0  0  0  0
   36.1630   29.4310   32.2660 C   0  0  0  0  0  0  0  0  0  0  0  0
   35.7210   29.4280   33.5610 C   0  0  0  0  0  0  0  0  0  0  0  0
   35.9370   28.3270   35.3790 H   0  0  0  0  0  0  0  0  0  0  0  0
   38.2190   26.7980   32.1170 H   0  0  0  0  0  0  0  0  0  0  0  0
   37.8800   28.2930   29.7810 H   0  0  0  0  0  0  0  0  0  0  0  0
   35.1810   31.1800   31.2430 H   0  0  0  0  0  0  0  0  0  0  0  0
   35.0410   30.1590   33.9240 H   0  0  0  0  0  0  0  0  0  0  0  0
   38.4510   23.0000   35.3450 C   0  0  0  0  0  0  0  0  0  0  0  0
   39.5020   22.5630   35.8470 O   0  0  0  0  0  0  0  0  0  0  0  0
   35.7060   20.6030   35.1160 C   0  0  0  0  0  0  0  0  0  0  0  0
   35.5320   20.4440   33.7370 C   0  0  0  0  0  0  0  0  0  0  0  0
   36.3500   21.1530   32.8960 C   0  0  0  0  0  0  0  0  0  0  0  0
   37.2820   21.9690   33.4270 N   0  0  0  0  0  0  0  0  0  0  0  0
   37.4440   22.1180   34.7600 C   0  0  0  0  0  0  0  0  0  0  0  0
   36.6500   21.4290   35.6060 N   0  0  0  0  0  0  0  0  0  0  0  0
   35.0680   20.0500   35.7910 H   0  0  0  0  0  0  0  0  0  0  0  0
   34.7850   19.7900   33.3320 H   0  0  0  0  0  0  0  0  0  0  0  0
   36.1660   20.9850   31.4310 C   0  0  0  0  0  0  0  0  0  0  0  0
   37.3570   21.1720   30.7280 F   0  0  0  0  0  0  0  0  0  0  0  0
   35.6130   19.7430   31.1260 F   0  0  0  0  0  0  0  0  0  0  0  0
   35.2810   21.9110   30.9170 F   0  0  0  0  0  0  0  0  0  0  0  0
  1 22  1  0  0  0  0
  1  2  2  0  0  0  0
  2  6  1  0  0  0  0
  3  2  1  0  0  0  0
  3  7  1  0  0  0  0
  4  3  2  0  0  0  0
  5  4  1  0  0  0  0
  5  1  1  0  0  0  0
  8 17  1  0  0  0  0
  9  8  1  0  0  0  0
  9  4  1  0  0  0  0
 10  9  2  0  0  0  0
 11 15  2  0  0  0  0
 11 10  1  0  0  0  0
 12 11  1  0  0  0  0
 13 12  1  0  0  0  0
 13 14  2  0  0  0  0
 14 15  1  0  0  0  0
 15 16  1  0  0  0  0
 16 21  1  0  0  0  0
 16  8  2  0  0  0  0
 18 10  1  0  0  0  0
 19 12  1  0  0  0  0
 20 14  1  0  0  0  0
 22 23  2  0  0  0  0
 24 29  1  0  0  0  0
 24 30  1  0  0  0  0
 25 24  2  0  0  0  0
 26 27  2  0  0  0  0
 26 25  1  0  0  0  0
 27 28  1  0  0  0  0
 28 22  1  0  0  0  0
 28 29  2  0  0  0  0
 31 25  1  0  0  0  0
 32 26  1  0  0  0  0
 33 32  1  0  0  0  0
 34 32  1  0  0  0  0
 35 32  1  0  0  0  0
M  END
>  <minimizedAffinity>
-6.31875181

$$$$

 OpenBabel03272508503D

 35 38  0  0  0  0  0  0  0  0999 V2000
   36.0900   26.0810   32.0880 C   0  0  0  0  0  0  0  0  0  0  0  0
   37.1350   25.8950   32.9820 C   0  0  0  0  0  0  0  0  0  0  0  0
   37.2340   27.1290   33.6130 C   0  0  0  0  0  0  0  0  0  0  0  0
   36.2870   27.9860   33.1030 C   0  0  0  0  0  0  0  0  0  0  0  0
   35.6280   27.3070   32.1920 O   0  0  0  0  0  0  0  0  0  0  0  0
   37.7340   24.9990   33.1510 H   0  0  0  0  0  0  0  0  0  0  0  0
   37.9480   27.3830   34.3920 H   0  0  0  0  0  0  0  0  0  0  0  0
   35.8810   30.3190   32.4890 C   0  0  0  0  0  0  0  0  0  0  0  0
   36.0440   29.3720   33.4820 C   0  0  0  0  0  0  0  0  0  0  0  0
   35.9810   29.7010   34.8210 C   0  0  0  0  0  0  0  0  0  0  0  0
   35.7510   31.0170   35.2120 C   0  0  0  0  0  0  0  0  0  0  0  0
   35.6380   31.6380   36.4040 N   0  0  0  0  0  0  0  0  0  0  0  0
   35.4150   32.9180   36.1500 N   0  0  0  0  0  0  0  0  0  0  0  0
   35.3820   33.1310   34.8160 C   0  0  0  0  0  0  0  0  0  0  0  0
   35.5970   31.9130   34.1750 C   0  0  0  0  0  0  0  0  0  0  0  0
   35.6460   31.6580   32.8310 C   0  0  0  0  0  0  0  0  0  0  0  0
   35.9330   30.0400   31.4660 H   0  0  0  0  0  0  0  0  0  0  0  0
   36.1160   28.9200   35.5770 H   0  0  0  0  0  0  0  0  0  0  0  0
   35.7310   31.0910   37.2940 H   0  0  0  0  0  0  0  0  0  0  0  0
   35.2110   34.1180   34.4090 H   0  0  0  0  0  0  0  0  0  0  0  0
   35.5130   32.4250   32.1090 H   0  0  0  0  0  0  0  0  0  0  0  0
   35.5980   25.0510   31.1780 C   0  0  0  0  0  0  0  0  0  0  0  0
   34.7060   25.3530   30.3640 O   0  0  0  0  0  0  0  0  0  0  0  0
   37.9290   22.2800   30.7050 C   0  0  0  0  0  0  0  0  0  0  0  0
   37.2890   21.2100   31.3400 C   0  0  0  0  0  0  0  0  0  0  0  0
   36.0690   21.4390   31.9230 C   0  0  0  0  0  0  0  0  0  0  0  0
   35.5390   22.6780   31.8620 N   0  0  0  0  0  0  0  0  0  0  0  0
   36.1630   23.7070   31.2490 C   0  0  0  0  0  0  0  0  0  0  0  0
   37.3640   23.5030   30.6670 N   0  0  0  0  0  0  0  0  0  0  0  0
   38.8900   22.1140   30.2410 H   0  0  0  0  0  0  0  0  0  0  0  0
   37.7250   20.2320   31.3780 H   0  0  0  0  0  0  0  0  0  0  0  0
   35.3890   20.3040   32.5970 C   0  0  0  0  0  0  0  0  0  0  0  0
   34.1140   20.0730   32.0760 F   0  0  0  0  0  0  0  0  0  0  0  0
   36.1550   19.1410   32.5350 F   0  0  0  0  0  0  0  0  0  0  0  0
   35.2030   20.5440   33.9430 F   0  0  0  0  0  0  0  0  0  0  0  0
  1  5  1  0  0  0  0
  1  2  2  0  0  0  0
  2  6  1  0  0  0  0
  2  3  1  0  0  0  0
  3  7  1  0  0  0  0
  4  9  1  0  0  0  0
  4  3  2  0  0  0  0
  5  4  1  0  0  0  0
  8 16  2  0  0  0  0
  8  9  1  0  0  0  0
  9 10  2  0  0  0  0
 10 11  1  0  0  0  0
 10 18  1  0  0  0  0
 11 12  1  0  0  0  0
 12 19  1  0  0  0  0
 13 12  1  0  0  0  0
 14 13  2  0  0  0  0
 15 14  1  0  0  0  0
 15 11  2  0  0  0  0
 16 15  1  0  0  0  0
 17  8  1  0  0  0  0
 20 14  1  0  0  0  0
 21 16  1  0  0  0  0
 22 28  1  0  0  0  0
 22  1  1  0  0  0  0
 23 22  2  0  0  0  0
 24 25  1  0  0  0  0
 25 31  1  0  0  0  0
 25 26  2  0  0  0  0
 26 32  1  0  0  0  0
 27 26  1  0  0  0  0
 28 27  2  0  0  0  0
 29 24  2  0  0  0  0
 29 28  1  0  0  0  0
 30 24  1  0  0  0  0
 32 35  1  0  0  0  0
 33 32  1  0  0  0  0
 34 32  1  0  0  0  0
M  END
>  <minimizedAffinity>
-6.29462242

$$$$

 OpenBabel03272508503D

 35 38  0  0  0  0  0  0  0  0999 V2000
   36.7450   27.2980   32.8730 C   0  0  0  0  0  0  0  0  0  0  0  0
   36.7950   28.2270   31.8440 C   0  0  0  0  0  0  0  0  0  0  0  0
   36.2240   29.3590   32.4110 C   0  0  0  0  0  0  0  0  0  0  0  0
   35.8630   29.0920   33.7110 C   0  0  0  0  0  0  0  0  0  0  0  0
   36.1980   27.8420   33.9370 O   0  0  0  0  0  0  0  0  0  0  0  0
   37.1870   28.1010   30.8330 H   0  0  0  0  0  0  0  0  0  0  0  0
   36.0840   30.3130   31.9100 H   0  0  0  0  0  0  0  0  0  0  0  0
   36.0280   30.8710   35.3830 C   0  0  0  0  0  0  0  0  0  0  0  0
   35.2350   29.9970   34.6650 C   0  0  0  0  0  0  0  0  0  0  0  0
   33.8640   29.9590   34.8240 C   0  0  0  0  0  0  0  0  0  0  0  0
   33.2360   30.8120   35.7280 C   0  0  0  0  0  0  0  0  0  0  0  0
   31.9550   31.0100   36.1000 N   0  0  0  0  0  0  0  0  0  0  0  0
   31.9650   31.9690   37.0120 N   0  0  0  0  0  0  0  0  0  0  0  0
   33.2290   32.3920   37.2320 C   0  0  0  0  0  0  0  0  0  0  0  0
   34.0830   31.6580   36.4110 C   0  0  0  0  0  0  0  0  0  0  0  0
   35.4440   31.7510   36.3040 C   0  0  0  0  0  0  0  0  0  0  0  0
   37.0810   30.8820   35.2410 H   0  0  0  0  0  0  0  0  0  0  0  0
   33.2710   29.2510   34.2360 H   0  0  0  0  0  0  0  0  0  0  0  0
   31.1870   30.4410   35.6680 H   0  0  0  0  0  0  0  0  0  0  0  0
   33.4430   33.1740   37.9470 H   0  0  0  0  0  0  0  0  0  0  0  0
   36.0070   32.4420   36.8810 H   0  0  0  0  0  0  0  0  0  0  0  0
   37.2350   25.9270   32.7650 C   0  0  0  0  0  0  0  0  0  0  0  0
   36.8340   25.2240   31.8200 O   0  0  0  0  0  0  0  0  0  0  0  0
   40.3940   24.9540   34.3170 C   0  0  0  0  0  0  0  0  0  0  0  0
   40.0030   24.4960   35.5800 C   0  0  0  0  0  0  0  0  0  0  0  0
   38.6690   24.5220   35.8940 C   0  0  0  0  0  0  0  0  0  0  0  0
   37.7920   24.9840   34.9790 N   0  0  0  0  0  0  0  0  0  0  0  0
   38.1770   25.4250   33.7620 C   0  0  0  0  0  0  0  0  0  0  0  0
   39.4850   25.4070   33.4330 N   0  0  0  0  0  0  0  0  0  0  0  0
   41.4420   24.9390   34.0570 H   0  0  0  0  0  0  0  0  0  0  0  0
   40.7140   24.1320   36.2950 H   0  0  0  0  0  0  0  0  0  0  0  0
   38.2540   24.0360   37.2350 C   0  0  0  0  0  0  0  0  0  0  0  0
   38.0850   25.0830   38.1430 F   0  0  0  0  0  0  0  0  0  0  0  0
   37.0940   23.2670   37.1620 F   0  0  0  0  0  0  0  0  0  0  0  0
   39.2030   23.2070   37.7960 F   0  0  0  0  0  0  0  0  0  0  0  0
  1  5  1  0  0  0  0
  2  3  1  0  0  0  0
  2  1  2  0  0  0  0
  3  4  2  0  0  0  0
  4  5  1  0  0  0  0
  4  9  1  0  0  0  0
  6  2  1  0  0  0  0
  7  3  1  0  0  0  0
  8 16  1  0  0  0  0
  9 10  1  0  0  0  0
  9  8  2  0  0  0  0
 10 11  2  0  0  0  0
 11 12  1  0  0  0  0
 11 15  1  0  0  0  0
 12 13  1  0  0  0  0
 13 14  2  0  0  0  0
 14 20  1  0  0  0  0
 15 14  1  0  0  0  0
 16 15  2  0  0  0  0
 16 21  1  0  0  0  0
 17  8  1  0  0  0  0
 18 10  1  0  0  0  0
 19 12  1  0  0  0  0
 22  1  1  0  0  0  0
 22 28  1  0  0  0  0
 23 22  2  0  0  0  0
 24 25  1  0  0  0  0
 25 26  2  0  0  0  0
 25 31  1  0  0  0  0
 26 32  1  0  0  0  0
 27 26  1  0  0  0  0
 28 27  2  0  0  0  0
 29 28  1  0  0  0  0
 29 24  2  0  0  0  0
 30 24  1  0  0  0  0
 32 35  1  0  0  0  0
 32 33  1  0  0  0  0
 34 32  1  0  0  0  0
M  END
>  <minimizedAffinity>
-6.25190926

$$$$

 OpenBabel03272508503D

 35 38  0  0  0  0  0  0  0  0999 V2000
   37.8590   23.4910   32.7790 C   0  0  0  0  0  0  0  0  0  0  0  0
   38.1630   23.5000   31.4250 C   0  0  0  0  0  0  0  0  0  0  0  0
   37.8400   24.7940   31.0360 C   0  0  0  0  0  0  0  0  0  0  0  0
   37.3720   25.4980   32.1210 C   0  0  0  0  0  0  0  0  0  0  0  0
   37.4040   24.6700   33.1400 O   0  0  0  0  0  0  0  0  0  0  0  0
   38.5590   22.6880   30.8120 H   0  0  0  0  0  0  0  0  0  0  0  0
   37.9420   25.1940   30.0310 H   0  0  0  0  0  0  0  0  0  0  0  0
   36.8470   27.5950   30.9740 C   0  0  0  0  0  0  0  0  0  0  0  0
   36.9250   26.8850   32.1570 C   0  0  0  0  0  0  0  0  0  0  0  0
   36.5890   27.4510   33.3700 C   0  0  0  0  0  0  0  0  0  0  0  0
   36.1580   28.7740   33.4340 C   0  0  0  0  0  0  0  0  0  0  0  0
   35.7700   29.5890   34.4360 N   0  0  0  0  0  0  0  0  0  0  0  0
   35.4670   30.7540   33.8860 N   0  0  0  0  0  0  0  0  0  0  0  0
   35.6530   30.7030   32.5490 C   0  0  0  0  0  0  0  0  0  0  0  0
   36.1030   29.4260   32.2210 C   0  0  0  0  0  0  0  0  0  0  0  0
   36.4190   28.9290   30.9850 C   0  0  0  0  0  0  0  0  0  0  0  0
   37.1110   27.1350   30.0530 H   0  0  0  0  0  0  0  0  0  0  0  0
   36.6640   26.8540   34.2850 H   0  0  0  0  0  0  0  0  0  0  0  0
   35.7560   29.2390   35.4240 H   0  0  0  0  0  0  0  0  0  0  0  0
   35.4580   31.5620   31.9210 H   0  0  0  0  0  0  0  0  0  0  0  0
   36.3410   29.5190   30.1060 H   0  0  0  0  0  0  0  0  0  0  0  0
   38.0290   22.3320   33.6500 C   0  0  0  0  0  0  0  0  0  0  0  0
   37.5210   21.2490   33.3070 O   0  0  0  0  0  0  0  0  0  0  0  0
   40.8270   22.2230   35.9940 C   0  0  0  0  0  0  0  0  0  0  0  0
   40.2720   22.7180   37.1800 C   0  0  0  0  0  0  0  0  0  0  0  0
   38.9520   23.0850   37.1720 C   0  0  0  0  0  0  0  0  0  0  0  0
   38.2450   22.9550   36.0310 N   0  0  0  0  0  0  0  0  0  0  0  0
   38.7860   22.4770   34.8910 C   0  0  0  0  0  0  0  0  0  0  0  0
   40.0850   22.1090   34.8760 N   0  0  0  0  0  0  0  0  0  0  0  0
   41.8670   21.9290   35.9860 H   0  0  0  0  0  0  0  0  0  0  0  0
   40.8500   22.8140   38.0770 H   0  0  0  0  0  0  0  0  0  0  0  0
   38.3620   23.6120   38.4300 C   0  0  0  0  0  0  0  0  0  0  0  0
   37.2830   22.8410   38.8660 F   0  0  0  0  0  0  0  0  0  0  0  0
   39.3200   23.7180   39.4370 F   0  0  0  0  0  0  0  0  0  0  0  0
   37.8650   24.8890   38.2670 F   0  0  0  0  0  0  0  0  0  0  0  0
  1  5  1  0  0  0  0
  1 22  1  0  0  0  0
  2  1  2  0  0  0  0
  3  2  1  0  0  0  0
  3  4  2  0  0  0  0
  4  9  1  0  0  0  0
  4  5  1  0  0  0  0
  6  2  1  0  0  0  0
  7  3  1  0  0  0  0
  8 16  2  0  0  0  0
  8  9  1  0  0  0  0
  9 10  2  0  0  0  0
 10 11  1  0  0  0  0
 10 18  1  0  0  0  0
 11 12  1  0  0  0  0
 12 19  1  0  0  0  0
 13 12  1  0  0  0  0
 14 13  2  0  0  0  0
 15 14  1  0  0  0  0
 15 11  2  0  0  0  0
 16 15  1  0  0  0  0
 17  8  1  0  0  0  0
 20 14  1  0  0  0  0
 21 16  1  0  0  0  0
 22 28  1  0  0  0  0
 23 22  2  0  0  0  0
 24 25  1  0  0  0  0
 25 31  1  0  0  0  0
 26 25  2  0  0  0  0
 26 32  1  0  0  0  0
 27 26  1  0  0  0  0
 28 27  2  0  0  0  0
 29 28  1  0  0  0  0
 29 24  2  0  0  0  0
 30 24  1  0  0  0  0
 32 33  1  0  0  0  0
 32 34  1  0  0  0  0
 35 32  1  0  0  0  0
M  END
>  <minimizedAffinity>
-6.19992256

$$$$

 OpenBabel03272508503D

 35 38  0  0  0  0  0  0  0  0999 V2000
   37.1570   27.4590   32.8360 C   0  0  0  0  0  0  0  0  0  0  0  0
   37.0930   28.3790   31.8000 C   0  0  0  0  0  0  0  0  0  0  0  0
   36.2760   29.3780   32.3140 C   0  0  0  0  0  0  0  0  0  0  0  0
   35.8880   29.0460   33.5910 C   0  0  0  0  0  0  0  0  0  0  0  0
   36.4440   27.8860   33.8550 O   0  0  0  0  0  0  0  0  0  0  0  0
   37.5680   28.3320   30.8190 H   0  0  0  0  0  0  0  0  0  0  0  0
   35.9860   30.2860   31.7920 H   0  0  0  0  0  0  0  0  0  0  0  0
   33.6700   29.5880   34.4690 C   0  0  0  0  0  0  0  0  0  0  0  0
   35.0330   29.8110   34.4900 C   0  0  0  0  0  0  0  0  0  0  0  0
   35.6080   30.7360   35.3380 C   0  0  0  0  0  0  0  0  0  0  0  0
   34.8150   31.4810   36.2070 C   0  0  0  0  0  0  0  0  0  0  0  0
   35.0690   32.4320   37.1290 N   0  0  0  0  0  0  0  0  0  0  0  0
   33.9030   32.7790   37.6520 N   0  0  0  0  0  0  0  0  0  0  0  0
   32.9050   32.0670   37.0840 C   0  0  0  0  0  0  0  0  0  0  0  0
   33.4650   31.2120   36.1370 C   0  0  0  0  0  0  0  0  0  0  0  0
   32.8290   30.3120   35.3250 C   0  0  0  0  0  0  0  0  0  0  0  0
   33.2520   28.8690   33.8070 H   0  0  0  0  0  0  0  0  0  0  0  0
   36.6930   30.8830   35.3230 H   0  0  0  0  0  0  0  0  0  0  0  0
   36.0530   32.7500   37.3010 H   0  0  0  0  0  0  0  0  0  0  0  0
   31.8750   32.2090   37.3800 H   0  0  0  0  0  0  0  0  0  0  0  0
   31.7760   30.1800   35.3500 H   0  0  0  0  0  0  0  0  0  0  0  0
   37.9110   26.2100   32.7780 C   0  0  0  0  0  0  0  0  0  0  0  0
   39.1330   26.2410   33.0090 O   0  0  0  0  0  0  0  0  0  0  0  0
   35.5250   23.9200   31.2280 C   0  0  0  0  0  0  0  0  0  0  0  0
   35.8530   22.6840   31.7940 C   0  0  0  0  0  0  0  0  0  0  0  0
   36.8830   22.6380   32.6980 C   0  0  0  0  0  0  0  0  0  0  0  0
   37.5330   23.7790   33.0040 N   0  0  0  0  0  0  0  0  0  0  0  0
   37.2120   24.9690   32.4530 C   0  0  0  0  0  0  0  0  0  0  0  0
   36.2010   25.0370   31.5620 N   0  0  0  0  0  0  0  0  0  0  0  0
   34.7160   23.9710   30.5140 H   0  0  0  0  0  0  0  0  0  0  0  0
   35.3240   21.7870   31.5390 H   0  0  0  0  0  0  0  0  0  0  0  0
   37.2310   21.3250   33.2990 C   0  0  0  0  0  0  0  0  0  0  0  0
   38.2690   21.4320   34.2260 F   0  0  0  0  0  0  0  0  0  0  0  0
   36.1200   20.7200   33.8830 F   0  0  0  0  0  0  0  0  0  0  0  0
   37.6740   20.4280   32.3480 F   0  0  0  0  0  0  0  0  0  0  0  0
  1  5  1  0  0  0  0
  2  3  1  0  0  0  0
  2  1  2  0  0  0  0
  3  4  2  0  0  0  0
  4  5  1  0  0  0  0
  4  9  1  0  0  0  0
  6  2  1  0  0  0  0
  7  3  1  0  0  0  0
  8  9  2  0  0  0  0
  8 16  1  0  0  0  0
  9 10  1  0  0  0  0
 10 11  2  0  0  0  0
 11 12  1  0  0  0  0
 12 19  1  0  0  0  0
 12 13  1  0  0  0  0
 14 20  1  0  0  0  0
 14 13  2  0  0  0  0
 15 11  1  0  0  0  0
 15 14  1  0  0  0  0
 16 21  1  0  0  0  0
 16 15  2  0  0  0  0
 17  8  1  0  0  0  0
 18 10  1  0  0  0  0
 22  1  1  0  0  0  0
 22 23  2  0  0  0  0
 24 29  2  0  0  0  0
 24 25  1  0  0  0  0
 25 26  2  0  0  0  0
 26 27  1  0  0  0  0
 26 32  1  0  0  0  0
 28 22  1  0  0  0  0
 28 27  2  0  0  0  0
 29 28  1  0  0  0  0
 30 24  1  0  0  0  0
 31 25  1  0  0  0  0
 32 34  1  0  0  0  0
 32 33  1  0  0  0  0
 35 32  1  0  0  0  0
M  END
>  <minimizedAffinity>
-6.1519022

$$$$
