
 OpenBabel03272506233D

 26 27  0  0  0  0  0  0  0  0999 V2000
   38.2420   31.1590   48.0620 C   0  0  0  0  0  0  0  0  0  0  0  0
   38.5080   30.3580   46.9690 C   0  0  0  0  0  0  0  0  0  0  0  0
   39.2480   30.7470   45.8680 C   0  0  0  0  0  0  0  0  0  0  0  0
   39.7780   32.0590   45.8510 C   0  0  0  0  0  0  0  0  0  0  0  0
   39.5060   32.8550   46.9520 C   0  0  0  0  0  0  0  0  0  0  0  0
   38.7620   32.4730   48.0640 C   0  0  0  0  0  0  0  0  0  0  0  0
   38.1410   29.3410   46.9030 H   0  0  0  0  0  0  0  0  0  0  0  0
   39.4450   30.1090   45.0260 H   0  0  0  0  0  0  0  0  0  0  0  0
   40.3680   32.4510   45.0370 H   0  0  0  0  0  0  0  0  0  0  0  0
   39.9120   33.8520   46.9330 H   0  0  0  0  0  0  0  0  0  0  0  0
   38.0780   30.3850   50.3690 C   0  0  0  0  0  0  0  0  0  0  0  0
   37.4540   30.5820   49.1070 C   0  0  0  0  0  0  0  0  0  0  0  0
   36.1180   30.1870   49.0050 C   0  0  0  0  0  0  0  0  0  0  0  0
   35.5050   29.6520   50.0970 N   0  0  0  0  0  0  0  0  0  0  0  0
   36.1300   29.4810   51.2890 C   0  0  0  0  0  0  0  0  0  0  0  0
   37.4430   29.8570   51.4170 N   0  0  0  0  0  0  0  0  0  0  0  0
   39.0980   30.6010   50.6270 H   0  0  0  0  0  0  0  0  0  0  0  0
   35.5700   29.0510   52.0990 H   0  0  0  0  0  0  0  0  0  0  0  0
   35.3340   30.3190   47.7600 C   0  0  0  0  0  0  0  0  0  0  0  0
   34.0540   30.7950   48.0500 F   0  0  0  0  0  0  0  0  0  0  0  0
   35.8840   31.0480   46.7700 F   0  0  0  0  0  0  0  0  0  0  0  0
   35.0600   29.0360   47.2320 F   0  0  0  0  0  0  0  0  0  0  0  0
   38.4900   33.3980   49.1810 C   0  0  0  0  0  0  0  0  0  0  0  0
   39.2740   32.9240   50.2490 F   0  0  0  0  0  0  0  0  0  0  0  0
   38.9520   34.6750   48.9250 F   0  0  0  0  0  0  0  0  0  0  0  0
   37.2230   33.4290   49.6480 F   0  0  0  0  0  0  0  0  0  0  0  0
  1  6  1  0  0  0  0
  1 12  1  0  0  0  0
  2  1  2  0  0  0  0
  3  2  1  0  0  0  0
  4  3  2  0  0  0  0
  4  5  1  0  0  0  0
  5  6  2  0  0  0  0
  6 23  1  0  0  0  0
  7  2  1  0  0  0  0
  8  3  1  0  0  0  0
  9  4  1  0  0  0  0
 10  5  1  0  0  0  0
 11 17  1  0  0  0  0
 11 16  1  0  0  0  0
 12 11  2  0  0  0  0
 13 12  1  0  0  0  0
 13 14  2  0  0  0  0
 14 15  1  0  0  0  0
 15 16  2  0  0  0  0
 15 18  1  0  0  0  0
 19 20  1  0  0  0  0
 19 13  1  0  0  0  0
 21 19  1  0  0  0  0
 22 19  1  0  0  0  0
 23 26  1  0  0  0  0
 23 24  1  0  0  0  0
 25 23  1  0  0  0  0
M  END
>  <minimizedAffinity>
-6.54187775

>  <minimizedRMSD>
0.713534534

$$$$
