REMARK  Name = 
REMARK  4 active torsions:
REMARK  status: ('A' for Active; 'I' for Inactive)
REMARK    1  A    between atoms: C_1  and  C_8
REMARK    2  A    between atoms: C_4  and  O_13
REMARK    3  A    between atoms: O_13  and  C_14
REMARK    4  A    between atoms: N_17  and  C_27
REMARK                            x       y       z     vdW  Elec       q    Type
REMARK                         _______ _______ _______ _____ _____    ______ ____
ROOT
ATOM      1  C   UNL     1      33.847  28.791  48.272  0.00  0.00    +0.000 A 
ATOM      2  C   UNL     1      34.436  28.421  49.429  0.00  0.00    +0.000 A 
ATOM      3  C   UNL     1      35.712  28.788  49.813  0.00  0.00    +0.000 A 
ATOM      4  C   UNL     1      36.461  29.578  48.995  0.00  0.00    +0.000 A 
ATOM      5  C   UNL     1      35.848  29.962  47.792  0.00  0.00    +0.000 A 
ATOM      6  N   UNL     1      34.602  29.577  47.467  0.00  0.00    +0.000 NA
ATOM      7  H   UNL     1      33.924  27.794  50.147  0.00  0.00    +0.000 HD
ATOM      8  H   UNL     1      36.187  28.494  50.738  0.00  0.00    +0.000 HD
ATOM      9  H   UNL     1      36.381  30.592  47.089  0.00  0.00    +0.000 HD
ENDROOT
BRANCH   1  11
ATOM     10  C   UNL     1      31.642  27.666  48.694  0.00  0.00    +0.000 A 
ATOM     11  C   UNL     1      32.521  28.401  47.886  0.00  0.00    +0.000 A 
ATOM     12  C   UNL     1      32.024  28.745  46.649  0.00  0.00    +0.000 A 
ATOM     13  N   UNL     1      30.774  28.387  46.264  0.00  0.00    +0.000 NA
ATOM     14  C   UNL     1      29.979  27.672  47.105  0.00  0.00    +0.000 A 
ATOM     15  N   UNL     1      30.404  27.309  48.317  0.00  0.00    +0.000 NA
ATOM     16  H   UNL     1      31.986  27.371  49.676  0.00  0.00    +0.000 HD
ATOM     17  H   UNL     1      32.673  29.323  45.974  0.00  0.00    +0.000 HD
ATOM     18  H   UNL     1      29.025  27.469  46.654  0.00  0.00    +0.000 HD
ENDBRANCH   1  11
BRANCH   4  19
ATOM     19  O   UNL     1      37.754  30.049  49.206  0.00  0.00    +0.000 OA
BRANCH  19  20
ATOM     20  C   UNL     1      38.159  31.306  48.781  0.00  0.00    +0.000 A 
ATOM     21  C   UNL     1      37.867  32.331  49.684  0.00  0.00    +0.000 A 
ATOM     22  C   UNL     1      38.335  33.510  49.109  0.00  0.00    +0.000 A 
ATOM     23  N   UNL     1      38.870  33.173  47.930  0.00  0.00    +0.000 N 
ATOM     24  N   UNL     1      38.772  31.883  47.729  0.00  0.00    +0.000 NA
ATOM     25  H   UNL     1      37.393  32.395  50.655  0.00  0.00    +0.000 HD
ATOM     26  H   UNL     1      38.295  34.532  49.504  0.00  0.00    +0.000 HD
BRANCH  23  27
ATOM     27  C   UNL     1      39.475  34.123  47.010  0.00  0.00    +0.000 C 
ATOM     28  F   UNL     1      40.684  33.642  46.519  0.00  0.00    +0.000 F 
ATOM     29  F   UNL     1      39.752  35.318  47.605  0.00  0.00    +0.000 F 
ATOM     30  F   UNL     1      38.659  34.301  45.905  0.00  0.00    +0.000 F 
ENDBRANCH  23  27
ENDBRANCH  19  20
ENDBRANCH   4  19
TORSDOF 4
