
 OpenBabel03272504243D

 34 36  0  0  0  0  0  0  0  0999 V2000
   35.6860   29.8050   48.5100 C   0  0  0  0  0  0  0  0  0  0  0  0
   35.4760   28.8690   49.4450 C   0  0  0  0  0  0  0  0  0  0  0  0
   34.6800   27.8170   49.2190 C   0  0  0  0  0  0  0  0  0  0  0  0
   34.0770   27.7130   48.0100 N   0  0  0  0  0  0  0  0  0  0  0  0
   34.2800   28.6320   47.0880 C   0  0  0  0  0  0  0  0  0  0  0  0
   35.0800   29.6900   47.3110 N   0  0  0  0  0  0  0  0  0  0  0  0
   35.9620   28.9620   50.4060 H   0  0  0  0  0  0  0  0  0  0  0  0
   34.5430   27.0860   50.0050 H   0  0  0  0  0  0  0  0  0  0  0  0
   32.2690   28.0530   45.8120 C   0  0  0  0  0  0  0  0  0  0  0  0
   33.6270   28.3990   45.8130 C   0  0  0  0  0  0  0  0  0  0  0  0
   34.4050   28.4860   44.6810 C   0  0  0  0  0  0  0  0  0  0  0  0
   33.8350   28.2170   43.4570 C   0  0  0  0  0  0  0  0  0  0  0  0
   32.5160   27.8700   43.3500 C   0  0  0  0  0  0  0  0  0  0  0  0
   31.8270   27.8110   44.5190 C   0  0  0  0  0  0  0  0  0  0  0  0
   35.4560   28.7630   44.7620 H   0  0  0  0  0  0  0  0  0  0  0  0
   34.4590   28.2930   42.6300 H   0  0  0  0  0  0  0  0  0  0  0  0
   32.0520   27.6570   42.4200 H   0  0  0  0  0  0  0  0  0  0  0  0
   30.7600   27.5320   44.4380 H   0  0  0  0  0  0  0  0  0  0  0  0
   31.2700   28.0310   47.1480 S   0  0  0  0  0  0  0  0  0  0  0  0
   30.4700   26.7420   46.7250 O   0  0  0  0  0  0  0  0  0  0  0  0
   30.3550   29.2090   47.0770 O   0  0  0  0  0  0  0  0  0  0  0  0
   30.9720   27.6210   48.6630 C   0  0  0  0  0  0  0  0  0  0  0  0
   30.5440   26.3500   49.1080 F   0  0  0  0  0  0  0  0  0  0  0  0
   29.6820   28.1950   49.0830 F   0  0  0  0  0  0  0  0  0  0  0  0
   31.5450   28.3450   49.7540 F   0  0  0  0  0  0  0  0  0  0  0  0
   37.3090   32.7560   49.9710 C   0  0  0  0  0  0  0  0  0  0  0  0
   38.2470   33.1150   48.9860 C   0  0  0  0  0  0  0  0  0  0  0  0
   38.3010   32.3260   47.8320 C   0  0  0  0  0  0  0  0  0  0  0  0
   37.4500   31.2710   47.7340 N   0  0  0  0  0  0  0  0  0  0  0  0
   36.5590   30.9560   48.7050 C   0  0  0  0  0  0  0  0  0  0  0  0
   36.4950   31.7040   49.8190 N   0  0  0  0  0  0  0  0  0  0  0  0
   37.3010   33.3910   50.8430 H   0  0  0  0  0  0  0  0  0  0  0  0
   38.9280   33.9390   49.0370 H   0  0  0  0  0  0  0  0  0  0  0  0
   38.9630   32.4790   47.0020 H   0  0  0  0  0  0  0  0  0  0  0  0
  1 30  1  0  0  0  0
  1  2  1  0  0  0  0
  2  7  1  0  0  0  0
  3  2  2  0  0  0  0
  3  8  1  0  0  0  0
  4  3  1  0  0  0  0
  5  6  1  0  0  0  0
  5  4  2  0  0  0  0
  6  1  2  0  0  0  0
  9 10  1  0  0  0  0
  9 19  1  0  0  0  0
 10  5  1  0  0  0  0
 11 15  1  0  0  0  0
 11 10  2  0  0  0  0
 12 11  1  0  0  0  0
 13 12  2  0  0  0  0
 13 14  1  0  0  0  0
 14  9  2  0  0  0  0
 16 12  1  0  0  0  0
 17 13  1  0  0  0  0
 18 14  1  0  0  0  0
 19 22  1  0  0  0  0
 20 19  2  0  0  0  0
 21 19  2  0  0  0  0
 22 24  1  0  0  0  0
 22 23  1  0  0  0  0
 22 25  1  0  0  0  0
 26 32  1  0  0  0  0
 27 33  1  0  0  0  0
 27 26  2  0  0  0  0
 28 27  1  0  0  0  0
 29 28  2  0  0  0  0
 29 30  1  0  0  0  0
 30 31  2  0  0  0  0
 31 26  1  0  0  0  0
 34 28  1  0  0  0  0
M  END
>  <minimizedAffinity>
-5.19471836

>  <minimizedRMSD>
1.73775113

$$$$
