
     RDKit          3D

 35 36  0  0  0  0  0  0  0  0999 V2000
   37.0795   30.9486   49.0333 C   0  0  0  0  0  0  0  0  0  0  0  0
   36.8123   31.8771   50.0368 C   0  0  0  0  0  0  0  0  0  0  0  0
   37.4240   33.1233   50.0626 C   0  0  0  0  0  0  0  0  0  0  0  0
   38.3336   33.4651   49.0577 C   0  0  0  0  0  0  0  0  0  0  0  0
   38.5863   32.5424   48.0779 C   0  0  0  0  0  0  0  0  0  0  0  0
   37.9557   31.3060   48.0869 C   0  0  0  0  0  0  0  0  0  0  0  0
   36.4660   29.6386   49.0220 C   0  0  1  0  0  0  0  0  0  0  0  0
   36.8676   28.8935   49.9905 O   0  0  0  0  0  0  0  0  0  0  0  0
   33.6146   30.1508   46.8288 C   0  0  0  0  0  0  0  0  0  0  0  0
   32.9554   28.9415   46.8409 C   0  0  0  0  0  0  0  0  0  0  0  0
   33.4508   27.9393   47.6601 C   0  0  0  0  0  0  0  0  0  0  0  0
   34.5723   28.1828   48.4234 N   0  0  0  0  0  0  0  0  0  0  0  0
   35.1573   29.3610   48.3636 C   0  0  0  0  0  0  0  0  0  0  0  0
   34.6863   30.3542   47.5710 N   0  0  0  0  0  0  0  0  0  0  0  0
   38.3456   30.4182   47.0165 C   0  0  0  0  0  0  0  0  0  0  0  0
   38.8106   30.8365   45.8340 C   0  0  0  0  0  0  0  0  0  0  0  0
   39.2836   30.0221   44.6895 C   0  0  0  0  0  0  0  0  0  0  0  0
   39.1915   30.9850   43.1785 S   0  0  0  0  0  0  0  0  0  0  0  0
   36.0994   31.6067   50.8196 H   0  0  0  0  0  0  0  0  0  0  0  0
   37.1582   33.7689   50.8718 H   0  0  0  0  0  0  0  0  0  0  0  0
   38.7707   34.4507   49.1414 H   0  0  0  0  0  0  0  0  0  0  0  0
   39.3130   32.9478   47.3682 H   0  0  0  0  0  0  0  0  0  0  0  0
   37.0106   29.0625   48.1787 H   0  0  0  0  0  0  0  0  0  0  0  0
   36.5713   29.0287   50.9174 H   0  0  0  0  0  0  0  0  0  0  0  0
   33.1858   30.8974   46.1737 H   0  0  0  0  0  0  0  0  0  0  0  0
   32.0769   28.6562   46.2815 H   0  0  0  0  0  0  0  0  0  0  0  0
   33.0755   26.9297   47.8088 H   0  0  0  0  0  0  0  0  0  0  0  0
   38.3780   29.3239   46.9025 H   0  0  0  0  0  0  0  0  0  0  0  0
   38.8908   31.9353   45.6847 H   0  0  0  0  0  0  0  0  0  0  0  0
   38.7237   29.0547   44.6272 H   0  0  0  0  0  0  0  0  0  0  0  0
   40.3425   29.7378   44.8966 H   0  0  0  0  0  0  0  0  0  0  0  0
   39.7117   29.9694   41.7537 C   0  0  0  0  0  0  0  0  0  0  0  0
   41.0750   29.7169   41.8963 F   0  0  0  0  0  0  0  0  0  0  0  0
   39.5420   30.7004   40.5678 F   0  0  0  0  0  0  0  0  0  0  0  0
   39.0192   28.7942   41.6874 F   0  0  0  0  0  0  0  0  0  0  0  0
  1  7  1  0
  1  2  2  0
  2  3  1  0
  4  3  2  0
  5  6  2  0
  5  4  1  0
  6  1  1  0
  7  8  1  0
  9 10  2  0
  9 14  1  0
 10 11  1  0
 11 12  2  0
 13 12  1  0
 13  7  1  0
 14 13  2  0
 15  6  1  0
 16 15  2  0
 17 16  1  0
 18 17  1  0
  2 19  1  0
  3 20  1  0
  4 21  1  0
  5 22  1  0
  7 23  1  6
  8 24  1  0
  9 25  1  0
 10 26  1  0
 11 27  1  0
 15 28  1  0
 16 29  1  0
 17 30  1  0
 17 31  1  0
 32 33  1  0
 32 34  1  0
 32 35  1  0
 18 32  1  0
M  ISO  8  19  14  20  14  21  14  22  14  23   8  24   3  25  14  26  14
M  ISO  3  27  14  30   8  31   8
M  END
>  <DihAtoms>  (1) 
16,17,31,32

>  <DihDeg>  (1) 
67.08122186591861

$$$$
