
 OpenBabel03272509423D

 33 34  0  0  1  0  0  0  0  0999 V2000
   37.0820   30.9380   49.0610 C   0  0  0  0  0  0  0  0  0  0  0  0
   36.8050   31.8690   50.0590 C   0  0  0  0  0  0  0  0  0  0  0  0
   37.3980   33.1250   50.0720 C   0  0  0  0  0  0  0  0  0  0  0  0
   38.2970   33.4730   49.0590 C   0  0  0  0  0  0  0  0  0  0  0  0
   38.5580   32.5460   48.0850 C   0  0  0  0  0  0  0  0  0  0  0  0
   37.9470   31.3010   48.1070 C   0  0  0  0  0  0  0  0  0  0  0  0
   36.1010   31.5950   50.8480 H   0  0  0  0  0  0  0  0  0  0  0  0
   37.1270   33.7730   50.8770 H   0  0  0  0  0  0  0  0  0  0  0  0
   38.7190   34.4660   49.1320 H   0  0  0  0  0  0  0  0  0  0  0  0
   39.2740   32.9580   47.3670 H   0  0  0  0  0  0  0  0  0  0  0  0
   36.4880   29.6180   49.0640 C   0  0  2  0  0  0  0  0  0  0  0  0
   36.9900   29.0640   48.1790 H   0  0  0  0  0  0  0  0  0  0  0  0
   33.6240   29.9600   46.8550 C   0  0  0  0  0  0  0  0  0  0  0  0
   32.8810   28.8230   47.0830 C   0  0  0  0  0  0  0  0  0  0  0  0
   33.3260   27.9400   48.0550 C   0  0  0  0  0  0  0  0  0  0  0  0
   34.4810   28.2260   48.7500 N   0  0  0  0  0  0  0  0  0  0  0  0
   35.1460   29.3300   48.4810 C   0  0  0  0  0  0  0  0  0  0  0  0
   34.7260   30.2060   47.5360 N   0  0  0  0  0  0  0  0  0  0  0  0
   33.2320   30.6130   46.0870 H   0  0  0  0  0  0  0  0  0  0  0  0
   31.9700   28.5120   46.5940 H   0  0  0  0  0  0  0  0  0  0  0  0
   32.8830   27.0020   48.3810 H   0  0  0  0  0  0  0  0  0  0  0  0
   36.9600   28.8630   49.9920 O   0  0  0  0  0  0  0  0  0  0  0  0
   36.7170   28.9780   50.9380 H   0  0  0  0  0  0  0  0  0  0  0  0
   38.3450   30.4100   47.0420 C   0  0  0  0  0  0  0  0  0  0  0  0
   38.6930   30.8230   45.8170 C   0  0  0  0  0  0  0  0  0  0  0  0
   39.1620   30.0100   44.6700 C   0  0  0  0  0  0  0  0  0  0  0  0
   38.3010   29.6660   44.0440 H   0  0  0  0  0  0  0  0  0  0  0  0
   39.6180   29.0800   45.0840 H   0  0  0  0  0  0  0  0  0  0  0  0
   40.3860   30.9290   43.7340 S   0  0  0  0  0  0  0  0  0  0  0  0
   40.7470   30.0730   42.1630 C   0  0  0  0  0  0  0  0  0  0  0  0
   39.6880   29.2050   41.9070 F   0  0  0  0  0  0  0  0  0  0  0  0
   41.9050   29.2930   42.3060 F   0  0  0  0  0  0  0  0  0  0  0  0
   40.8960   30.9530   41.1280 F   0  0  0  0  0  0  0  0  0  0  0  0
  1 11  1  0  0  0  0
  1  2  1  0  0  0  0
  2  3  2  0  0  0  0
  2  7  1  0  0  0  0
  3  8  1  0  0  0  0
  4  9  1  0  0  0  0
  4  3  1  0  0  0  0
  5  6  1  0  0  0  0
  5  4  2  0  0  0  0
  6  1  2  0  0  0  0
 10  5  1  0  0  0  0
 11 12  1  6  0  0  0
 11 22  1  0  0  0  0
 13 14  2  0  0  0  0
 13 18  1  0  0  0  0
 14 15  1  0  0  0  0
 15 21  1  0  0  0  0
 15 16  2  0  0  0  0
 17 16  1  0  0  0  0
 17 11  1  0  0  0  0
 18 17  2  0  0  0  0
 19 13  1  0  0  0  0
 20 14  1  0  0  0  0
 22 23  1  0  0  0  0
 24  6  1  0  0  0  0
 25 24  2  0  0  0  0
 26 28  1  0  0  0  0
 26 25  1  0  0  0  0
 27 26  1  0  0  0  0
 29 26  1  0  0  0  0
 30 32  1  0  0  0  0
 30 29  1  0  0  0  0
 31 30  1  0  0  0  0
 33 30  1  0  0  0  0
M  END
>  <minimizedAffinity>
-5.75696373

>  <minimizedRMSD>
0.627830446

$$$$
