
 OpenBabel03272504253D

 34 36  0  0  0  0  0  0  0  0999 V2000
   38.0240   25.8900   33.6860 C   0  0  0  0  0  0  0  0  0  0  0  0
   37.9900   26.9990   34.4360 C   0  0  0  0  0  0  0  0  0  0  0  0
   38.9480   27.2720   35.3310 C   0  0  0  0  0  0  0  0  0  0  0  0
   39.9690   26.3910   35.4700 N   0  0  0  0  0  0  0  0  0  0  0  0
   40.0060   25.2980   34.7340 C   0  0  0  0  0  0  0  0  0  0  0  0
   39.0450   25.0220   33.8340 N   0  0  0  0  0  0  0  0  0  0  0  0
   37.1710   27.6950   34.3170 H   0  0  0  0  0  0  0  0  0  0  0  0
   38.8780   28.1810   35.9120 H   0  0  0  0  0  0  0  0  0  0  0  0
   41.1080   23.4520   35.9100 C   0  0  0  0  0  0  0  0  0  0  0  0
   41.1660   24.4490   34.9280 C   0  0  0  0  0  0  0  0  0  0  0  0
   42.2760   24.7140   34.1590 C   0  0  0  0  0  0  0  0  0  0  0  0
   43.4170   23.9670   34.3510 C   0  0  0  0  0  0  0  0  0  0  0  0
   43.4610   22.9700   35.2870 C   0  0  0  0  0  0  0  0  0  0  0  0
   42.3180   22.7790   35.9960 C   0  0  0  0  0  0  0  0  0  0  0  0
   42.2450   25.5080   33.4120 H   0  0  0  0  0  0  0  0  0  0  0  0
   44.2310   24.2030   33.7510 H   0  0  0  0  0  0  0  0  0  0  0  0
   44.3260   22.3800   35.4560 H   0  0  0  0  0  0  0  0  0  0  0  0
   42.3490   21.9740   36.7540 H   0  0  0  0  0  0  0  0  0  0  0  0
   39.7550   23.0350   36.7940 S   0  0  0  0  0  0  0  0  0  0  0  0
   40.5330   22.2310   37.9020 O   0  0  0  0  0  0  0  0  0  0  0  0
   38.9390   22.0780   35.9900 O   0  0  0  0  0  0  0  0  0  0  0  0
   38.6620   23.3610   37.9110 C   0  0  0  0  0  0  0  0  0  0  0  0
   37.3210   22.9160   37.9120 F   0  0  0  0  0  0  0  0  0  0  0  0
   38.1930   24.7480   37.7500 F   0  0  0  0  0  0  0  0  0  0  0  0
   39.0440   23.7420   39.2340 F   0  0  0  0  0  0  0  0  0  0  0  0
   35.4000   26.1920   31.1370 C   0  0  0  0  0  0  0  0  0  0  0  0
   35.1240   24.8510   30.8140 C   0  0  0  0  0  0  0  0  0  0  0  0
   35.8540   23.8650   31.4860 C   0  0  0  0  0  0  0  0  0  0  0  0
   36.7760   24.2600   32.4030 N   0  0  0  0  0  0  0  0  0  0  0  0
   37.0140   25.5630   32.6870 C   0  0  0  0  0  0  0  0  0  0  0  0
   36.3220   26.5220   32.0500 N   0  0  0  0  0  0  0  0  0  0  0  0
   34.8150   26.9190   30.5950 H   0  0  0  0  0  0  0  0  0  0  0  0
   34.4040   24.5110   30.0980 H   0  0  0  0  0  0  0  0  0  0  0  0
   35.7510   22.8060   31.3430 H   0  0  0  0  0  0  0  0  0  0  0  0
  1  6  2  0  0  0  0
  1  2  1  0  0  0  0
  2  3  2  0  0  0  0
  3  4  1  0  0  0  0
  3  8  1  0  0  0  0
  5 10  1  0  0  0  0
  5  4  2  0  0  0  0
  6  5  1  0  0  0  0
  7  2  1  0  0  0  0
  9 14  1  0  0  0  0
  9 19  1  0  0  0  0
 10  9  2  0  0  0  0
 11 12  2  0  0  0  0
 11 10  1  0  0  0  0
 12 13  1  0  0  0  0
 13 17  1  0  0  0  0
 13 14  2  0  0  0  0
 14 18  1  0  0  0  0
 15 11  1  0  0  0  0
 16 12  1  0  0  0  0
 19 20  2  0  0  0  0
 19 22  1  0  0  0  0
 21 19  2  0  0  0  0
 22 23  1  0  0  0  0
 22 25  1  0  0  0  0
 24 22  1  0  0  0  0
 26 31  1  0  0  0  0
 27 26  2  0  0  0  0
 27 28  1  0  0  0  0
 28 29  2  0  0  0  0
 29 30  1  0  0  0  0
 30  1  1  0  0  0  0
 31 30  2  0  0  0  0
 32 26  1  0  0  0  0
 33 27  1  0  0  0  0
 34 28  1  0  0  0  0
M  END
>  <minimizedAffinity>
-6.15714836

$$$$

 OpenBabel03272504253D

 34 36  0  0  0  0  0  0  0  0999 V2000
   36.3630   28.1060   33.5290 C   0  0  0  0  0  0  0  0  0  0  0  0
   36.3000   28.6080   32.2890 C   0  0  0  0  0  0  0  0  0  0  0  0
   35.7200   29.7880   32.0370 C   0  0  0  0  0  0  0  0  0  0  0  0
   35.1880   30.4790   33.0740 N   0  0  0  0  0  0  0  0  0  0  0  0
   35.2470   29.9890   34.2960 C   0  0  0  0  0  0  0  0  0  0  0  0
   35.8280   28.8030   34.5530 N   0  0  0  0  0  0  0  0  0  0  0  0
   36.7280   28.0480   31.4690 H   0  0  0  0  0  0  0  0  0  0  0  0
   35.6960   30.1520   31.0190 H   0  0  0  0  0  0  0  0  0  0  0  0
   33.3220   30.7280   35.6200 C   0  0  0  0  0  0  0  0  0  0  0  0
   34.6900   30.8310   35.3390 C   0  0  0  0  0  0  0  0  0  0  0  0
   35.5430   31.7200   35.9530 C   0  0  0  0  0  0  0  0  0  0  0  0
   35.0410   32.5750   36.9080 C   0  0  0  0  0  0  0  0  0  0  0  0
   33.7180   32.5530   37.2550 C   0  0  0  0  0  0  0  0  0  0  0  0
   32.9540   31.6420   36.5970 C   0  0  0  0  0  0  0  0  0  0  0  0
   36.5980   31.7400   35.6800 H   0  0  0  0  0  0  0  0  0  0  0  0
   35.7190   33.2300   37.3450 H   0  0  0  0  0  0  0  0  0  0  0  0
   33.3060   33.2000   37.9860 H   0  0  0  0  0  0  0  0  0  0  0  0
   31.8830   31.6200   36.8740 H   0  0  0  0  0  0  0  0  0  0  0  0
   32.2770   29.6020   34.9700 S   0  0  0  0  0  0  0  0  0  0  0  0
   30.9750   30.4670   35.1610 O   0  0  0  0  0  0  0  0  0  0  0  0
   32.2120   28.4260   35.8880 O   0  0  0  0  0  0  0  0  0  0  0  0
   31.5510   28.9320   33.7150 C   0  0  0  0  0  0  0  0  0  0  0  0
   31.0600   27.6080   33.6520 F   0  0  0  0  0  0  0  0  0  0  0  0
   32.5520   28.6010   32.6870 F   0  0  0  0  0  0  0  0  0  0  0  0
   30.9190   29.7280   32.7110 F   0  0  0  0  0  0  0  0  0  0  0  0
   37.9320   25.3540   35.3820 C   0  0  0  0  0  0  0  0  0  0  0  0
   38.2010   24.4120   34.3720 C   0  0  0  0  0  0  0  0  0  0  0  0
   37.8320   24.7480   33.0660 C   0  0  0  0  0  0  0  0  0  0  0  0
   37.2420   25.9540   32.8540 N   0  0  0  0  0  0  0  0  0  0  0  0
   37.0000   26.8360   33.8530 C   0  0  0  0  0  0  0  0  0  0  0  0
   37.3480   26.5270   35.1140 N   0  0  0  0  0  0  0  0  0  0  0  0
   38.2330   25.0540   36.3730 H   0  0  0  0  0  0  0  0  0  0  0  0
   38.6630   23.4560   34.5100 H   0  0  0  0  0  0  0  0  0  0  0  0
   37.9730   24.1320   32.1990 H   0  0  0  0  0  0  0  0  0  0  0  0
  1 30  1  0  0  0  0
  1  6  1  0  0  0  0
  2  1  2  0  0  0  0
  3  2  1  0  0  0  0
  3  4  2  0  0  0  0
  4  5  1  0  0  0  0
  5  6  2  0  0  0  0
  5 10  1  0  0  0  0
  7  2  1  0  0  0  0
  8  3  1  0  0  0  0
  9 14  1  0  0  0  0
 10  9  2  0  0  0  0
 10 11  1  0  0  0  0
 11 12  2  0  0  0  0
 12 13  1  0  0  0  0
 12 16  1  0  0  0  0
 13 17  1  0  0  0  0
 14 18  1  0  0  0  0
 14 13  2  0  0  0  0
 15 11  1  0  0  0  0
 19 20  2  0  0  0  0
 19  9  1  0  0  0  0
 19 21  2  0  0  0  0
 22 19  1  0  0  0  0
 23 22  1  0  0  0  0
 24 22  1  0  0  0  0
 25 22  1  0  0  0  0
 26 32  1  0  0  0  0
 27 33  1  0  0  0  0
 27 26  2  0  0  0  0
 28 27  1  0  0  0  0
 29 28  2  0  0  0  0
 29 30  1  0  0  0  0
 30 31  2  0  0  0  0
 31 26  1  0  0  0  0
 34 28  1  0  0  0  0
M  END
>  <minimizedAffinity>
-5.84943104

$$$$

 OpenBabel03272504253D

 34 36  0  0  0  0  0  0  0  0999 V2000
   36.2910   29.5840   31.1350 C   0  0  0  0  0  0  0  0  0  0  0  0
   35.0990   30.0080   31.5750 C   0  0  0  0  0  0  0  0  0  0  0  0
   34.5950   29.5950   32.7450 C   0  0  0  0  0  0  0  0  0  0  0  0
   35.3220   28.7250   33.4880 N   0  0  0  0  0  0  0  0  0  0  0  0
   36.4950   28.3050   33.0580 C   0  0  0  0  0  0  0  0  0  0  0  0
   37.0040   28.7180   31.8830 N   0  0  0  0  0  0  0  0  0  0  0  0
   34.5280   30.7020   30.9740 H   0  0  0  0  0  0  0  0  0  0  0  0
   33.6300   29.9660   33.0590 H   0  0  0  0  0  0  0  0  0  0  0  0
   37.3620   26.0730   33.5780 C   0  0  0  0  0  0  0  0  0  0  0  0
   37.2110   27.4150   33.9520 C   0  0  0  0  0  0  0  0  0  0  0  0
   37.6540   27.9410   35.1440 C   0  0  0  0  0  0  0  0  0  0  0  0
   38.2890   27.1150   36.0450 C   0  0  0  0  0  0  0  0  0  0  0  0
   38.4860   25.7890   35.7730 C   0  0  0  0  0  0  0  0  0  0  0  0
   38.0160   25.3590   34.5730 C   0  0  0  0  0  0  0  0  0  0  0  0
   37.5000   28.9980   35.3640 H   0  0  0  0  0  0  0  0  0  0  0  0
   38.6050   27.5540   36.9310 H   0  0  0  0  0  0  0  0  0  0  0  0
   38.9700   25.1310   36.4480 H   0  0  0  0  0  0  0  0  0  0  0  0
   38.1730   24.2880   34.3480 H   0  0  0  0  0  0  0  0  0  0  0  0
   36.9270   25.4180   32.1070 S   0  0  0  0  0  0  0  0  0  0  0  0
   37.0670   23.9150   32.5560 O   0  0  0  0  0  0  0  0  0  0  0  0
   37.9990   25.7250   31.1140 O   0  0  0  0  0  0  0  0  0  0  0  0
   35.8150   24.9220   31.0730 C   0  0  0  0  0  0  0  0  0  0  0  0
   34.9800   25.7540   30.2940 F   0  0  0  0  0  0  0  0  0  0  0  0
   34.6350   24.4430   31.8140 F   0  0  0  0  0  0  0  0  0  0  0  0
   35.8680   23.6160   30.4970 F   0  0  0  0  0  0  0  0  0  0  0  0
   38.2270   29.6440   28.0170 C   0  0  0  0  0  0  0  0  0  0  0  0
   37.9700   30.9330   27.5150 C   0  0  0  0  0  0  0  0  0  0  0  0
   37.1290   31.7590   28.2680 C   0  0  0  0  0  0  0  0  0  0  0  0
   36.6160   31.2700   29.4270 N   0  0  0  0  0  0  0  0  0  0  0  0
   36.8870   30.0210   29.8780 C   0  0  0  0  0  0  0  0  0  0  0  0
   37.6930   29.2160   29.1670 N   0  0  0  0  0  0  0  0  0  0  0  0
   38.8800   29.0410   27.4050 H   0  0  0  0  0  0  0  0  0  0  0  0
   38.3590   31.3440   26.6070 H   0  0  0  0  0  0  0  0  0  0  0  0
   36.8450   32.7610   28.0100 H   0  0  0  0  0  0  0  0  0  0  0  0
  1  2  2  0  0  0  0
  1  6  1  0  0  0  0
  2  3  1  0  0  0  0
  3  8  1  0  0  0  0
  3  4  2  0  0  0  0
  5  4  1  0  0  0  0
  5 10  1  0  0  0  0
  6  5  2  0  0  0  0
  7  2  1  0  0  0  0
  9 10  2  0  0  0  0
  9 14  1  0  0  0  0
 10 11  1  0  0  0  0
 11 15  1  0  0  0  0
 11 12  2  0  0  0  0
 12 16  1  0  0  0  0
 13 12  1  0  0  0  0
 13 17  1  0  0  0  0
 14 13  2  0  0  0  0
 18 14  1  0  0  0  0
 19 20  2  0  0  0  0
 19  9  1  0  0  0  0
 21 19  2  0  0  0  0
 22 24  1  0  0  0  0
 22 19  1  0  0  0  0
 23 22  1  0  0  0  0
 25 22  1  0  0  0  0
 26 31  1  0  0  0  0
 27 26  2  0  0  0  0
 27 28  1  0  0  0  0
 28 29  2  0  0  0  0
 29 30  1  0  0  0  0
 30  1  1  0  0  0  0
 31 30  2  0  0  0  0
 32 26  1  0  0  0  0
 33 27  1  0  0  0  0
 34 28  1  0  0  0  0
M  END
>  <minimizedAffinity>
-5.65774345

$$$$

 OpenBabel03272504253D

 34 36  0  0  0  0  0  0  0  0999 V2000
   35.6770   29.6350   33.2140 C   0  0  0  0  0  0  0  0  0  0  0  0
   36.2790   30.3090   32.2260 C   0  0  0  0  0  0  0  0  0  0  0  0
   36.8220   29.6800   31.1750 C   0  0  0  0  0  0  0  0  0  0  0  0
   36.7520   28.3280   31.1290 N   0  0  0  0  0  0  0  0  0  0  0  0
   36.1610   27.6600   32.0990 C   0  0  0  0  0  0  0  0  0  0  0  0
   35.6150   28.2890   33.1550 N   0  0  0  0  0  0  0  0  0  0  0  0
   36.3290   31.3880   32.2740 H   0  0  0  0  0  0  0  0  0  0  0  0
   37.2960   30.2680   30.4010 H   0  0  0  0  0  0  0  0  0  0  0  0
   36.9950   25.4230   32.6490 C   0  0  0  0  0  0  0  0  0  0  0  0
   36.0990   26.2210   31.9260 C   0  0  0  0  0  0  0  0  0  0  0  0
   35.1890   25.7340   31.0150 C   0  0  0  0  0  0  0  0  0  0  0  0
   35.1380   24.3790   30.7810 C   0  0  0  0  0  0  0  0  0  0  0  0
   35.9720   23.5140   31.4370 C   0  0  0  0  0  0  0  0  0  0  0  0
   36.8340   24.0850   32.3180 C   0  0  0  0  0  0  0  0  0  0  0  0
   34.5240   26.4200   30.4910 H   0  0  0  0  0  0  0  0  0  0  0  0
   34.4380   24.0560   30.0850 H   0  0  0  0  0  0  0  0  0  0  0  0
   35.9540   22.4670   31.2760 H   0  0  0  0  0  0  0  0  0  0  0  0
   37.5090   23.3900   32.8510 H   0  0  0  0  0  0  0  0  0  0  0  0
   38.0440   25.9610   33.8300 S   0  0  0  0  0  0  0  0  0  0  0  0
   39.2100   26.3410   32.8430 O   0  0  0  0  0  0  0  0  0  0  0  0
   38.4730   24.7930   34.6540 O   0  0  0  0  0  0  0  0  0  0  0  0
   38.5910   27.1130   34.7920 C   0  0  0  0  0  0  0  0  0  0  0  0
   39.9290   27.5580   34.8720 F   0  0  0  0  0  0  0  0  0  0  0  0
   38.6870   26.5980   36.1690 F   0  0  0  0  0  0  0  0  0  0  0  0
   37.7180   28.1110   35.3250 F   0  0  0  0  0  0  0  0  0  0  0  0
   33.2020   30.7420   35.6880 C   0  0  0  0  0  0  0  0  0  0  0  0
   33.9690   31.5310   36.5640 C   0  0  0  0  0  0  0  0  0  0  0  0
   35.3320   31.6650   36.2820 C   0  0  0  0  0  0  0  0  0  0  0  0
   35.8270   31.0300   35.1870 N   0  0  0  0  0  0  0  0  0  0  0  0
   35.0560   30.2780   34.3660 C   0  0  0  0  0  0  0  0  0  0  0  0
   33.7450   30.1400   34.6240 N   0  0  0  0  0  0  0  0  0  0  0  0
   32.1570   30.6660   35.9430 H   0  0  0  0  0  0  0  0  0  0  0  0
   33.6060   32.0420   37.4320 H   0  0  0  0  0  0  0  0  0  0  0  0
   36.0360   32.2320   36.8590 H   0  0  0  0  0  0  0  0  0  0  0  0
  1 30  1  0  0  0  0
  2  7  1  0  0  0  0
  2  1  2  0  0  0  0
  3  2  1  0  0  0  0
  4  3  2  0  0  0  0
  4  5  1  0  0  0  0
  5  6  2  0  0  0  0
  6  1  1  0  0  0  0
  8  3  1  0  0  0  0
  9 19  1  0  0  0  0
 10  5  1  0  0  0  0
 10  9  2  0  0  0  0
 11 10  1  0  0  0  0
 12 11  2  0  0  0  0
 12 13  1  0  0  0  0
 13 14  2  0  0  0  0
 14  9  1  0  0  0  0
 14 18  1  0  0  0  0
 15 11  1  0  0  0  0
 16 12  1  0  0  0  0
 17 13  1  0  0  0  0
 19 21  2  0  0  0  0
 19 22  1  0  0  0  0
 20 19  2  0  0  0  0
 22 23  1  0  0  0  0
 22 25  1  0  0  0  0
 22 24  1  0  0  0  0
 26 32  1  0  0  0  0
 26 27  1  0  0  0  0
 27 33  1  0  0  0  0
 28 27  2  0  0  0  0
 28 34  1  0  0  0  0
 29 28  1  0  0  0  0
 30 31  1  0  0  0  0
 30 29  2  0  0  0  0
 31 26  2  0  0  0  0
M  END
>  <minimizedAffinity>
-5.57628632

$$$$

 OpenBabel03272504253D

 34 36  0  0  0  0  0  0  0  0999 V2000
   37.0480   23.0890   31.5590 C   0  0  0  0  0  0  0  0  0  0  0  0
   38.0030   23.2090   30.6270 C   0  0  0  0  0  0  0  0  0  0  0  0
   38.5250   24.3990   30.3040 C   0  0  0  0  0  0  0  0  0  0  0  0
   38.0630   25.4990   30.9460 N   0  0  0  0  0  0  0  0  0  0  0  0
   37.1240   25.3860   31.8640 C   0  0  0  0  0  0  0  0  0  0  0  0
   36.5970   24.1920   32.1900 N   0  0  0  0  0  0  0  0  0  0  0  0
   38.3630   22.3240   30.1210 H   0  0  0  0  0  0  0  0  0  0  0  0
   39.2940   24.4440   29.5470 H   0  0  0  0  0  0  0  0  0  0  0  0
   37.2510   26.8840   33.7990 C   0  0  0  0  0  0  0  0  0  0  0  0
   36.7360   26.6190   32.5230 C   0  0  0  0  0  0  0  0  0  0  0  0
   35.8400   27.4310   31.8650 C   0  0  0  0  0  0  0  0  0  0  0  0
   35.4040   28.5820   32.4820 C   0  0  0  0  0  0  0  0  0  0  0  0
   35.8480   28.9300   33.7290 C   0  0  0  0  0  0  0  0  0  0  0  0
   36.7320   28.0700   34.2990 C   0  0  0  0  0  0  0  0  0  0  0  0
   35.4840   27.1570   30.8720 H   0  0  0  0  0  0  0  0  0  0  0  0
   34.7270   29.1630   31.9510 H   0  0  0  0  0  0  0  0  0  0  0  0
   35.5280   29.8100   34.2260 H   0  0  0  0  0  0  0  0  0  0  0  0
   37.0940   28.3470   35.3060 H   0  0  0  0  0  0  0  0  0  0  0  0
   38.4100   25.9800   34.5880 S   0  0  0  0  0  0  0  0  0  0  0  0
   37.4690   25.5020   35.7560 O   0  0  0  0  0  0  0  0  0  0  0  0
   39.4380   26.9070   35.1460 O   0  0  0  0  0  0  0  0  0  0  0  0
   39.2190   24.6170   34.7900 C   0  0  0  0  0  0  0  0  0  0  0  0
   39.8680   23.8810   33.7740 F   0  0  0  0  0  0  0  0  0  0  0  0
   38.2700   23.5060   34.9780 F   0  0  0  0  0  0  0  0  0  0  0  0
   39.7530   24.2540   36.0650 F   0  0  0  0  0  0  0  0  0  0  0  0
   35.6140   20.3740   33.5700 C   0  0  0  0  0  0  0  0  0  0  0  0
   35.3690   19.3730   32.6130 C   0  0  0  0  0  0  0  0  0  0  0  0
   35.7060   19.6570   31.2850 C   0  0  0  0  0  0  0  0  0  0  0  0
   36.2450   20.8730   31.0050 N   0  0  0  0  0  0  0  0  0  0  0  0
   36.4650   21.8130   31.9550 C   0  0  0  0  0  0  0  0  0  0  0  0
   36.1470   21.5550   33.2350 N   0  0  0  0  0  0  0  0  0  0  0  0
   35.3390   20.1130   34.5800 H   0  0  0  0  0  0  0  0  0  0  0  0
   34.9470   18.4080   32.8050 H   0  0  0  0  0  0  0  0  0  0  0  0
   35.5770   18.9930   30.4520 H   0  0  0  0  0  0  0  0  0  0  0  0
  1 30  1  0  0  0  0
  1  6  1  0  0  0  0
  2  1  2  0  0  0  0
  3  2  1  0  0  0  0
  3  4  2  0  0  0  0
  4  5  1  0  0  0  0
  5  6  2  0  0  0  0
  5 10  1  0  0  0  0
  7  2  1  0  0  0  0
  8  3  1  0  0  0  0
  9 14  1  0  0  0  0
  9 19  1  0  0  0  0
 10  9  2  0  0  0  0
 11 12  2  0  0  0  0
 11 10  1  0  0  0  0
 12 13  1  0  0  0  0
 13 17  1  0  0  0  0
 13 14  2  0  0  0  0
 14 18  1  0  0  0  0
 15 11  1  0  0  0  0
 16 12  1  0  0  0  0
 19 22  1  0  0  0  0
 19 21  2  0  0  0  0
 19 20  2  0  0  0  0
 22 24  1  0  0  0  0
 22 25  1  0  0  0  0
 23 22  1  0  0  0  0
 26 32  1  0  0  0  0
 27 33  1  0  0  0  0
 27 26  2  0  0  0  0
 28 27  1  0  0  0  0
 29 28  2  0  0  0  0
 29 30  1  0  0  0  0
 30 31  2  0  0  0  0
 31 26  1  0  0  0  0
 34 28  1  0  0  0  0
M  END
>  <minimizedAffinity>
-5.54546642

$$$$

 OpenBabel03272504253D

 34 36  0  0  0  0  0  0  0  0999 V2000
   37.8440   25.4340   33.1350 C   0  0  0  0  0  0  0  0  0  0  0  0
   37.4090   24.4330   32.3590 C   0  0  0  0  0  0  0  0  0  0  0  0
   38.0680   23.2700   32.2760 C   0  0  0  0  0  0  0  0  0  0  0  0
   39.2030   23.1210   33.0000 N   0  0  0  0  0  0  0  0  0  0  0  0
   39.6360   24.1030   33.7640 C   0  0  0  0  0  0  0  0  0  0  0  0
   38.9770   25.2720   33.8500 N   0  0  0  0  0  0  0  0  0  0  0  0
   36.5010   24.5640   31.7860 H   0  0  0  0  0  0  0  0  0  0  0  0
   37.6750   22.4910   31.6370 H   0  0  0  0  0  0  0  0  0  0  0  0
   40.6920   23.4450   35.8750 C   0  0  0  0  0  0  0  0  0  0  0  0
   40.8340   23.8210   34.5330 C   0  0  0  0  0  0  0  0  0  0  0  0
   42.0440   23.9920   33.9000 C   0  0  0  0  0  0  0  0  0  0  0  0
   43.2050   23.7890   34.6120 C   0  0  0  0  0  0  0  0  0  0  0  0
   43.1730   23.4200   35.9290 C   0  0  0  0  0  0  0  0  0  0  0  0
   41.9350   23.2730   36.4680 C   0  0  0  0  0  0  0  0  0  0  0  0
   42.0730   24.2850   32.8500 H   0  0  0  0  0  0  0  0  0  0  0  0
   44.0950   23.9300   34.0950 H   0  0  0  0  0  0  0  0  0  0  0  0
   44.0510   23.2570   36.5000 H   0  0  0  0  0  0  0  0  0  0  0  0
   41.9040   22.9750   37.5320 H   0  0  0  0  0  0  0  0  0  0  0  0
   39.2480   23.1340   36.6510 S   0  0  0  0  0  0  0  0  0  0  0  0
   39.8870   22.8480   38.0620 O   0  0  0  0  0  0  0  0  0  0  0  0
   38.6840   21.8620   36.1120 O   0  0  0  0  0  0  0  0  0  0  0  0
   37.9460   23.6320   37.4300 C   0  0  0  0  0  0  0  0  0  0  0  0
   36.9520   24.4940   36.9140 F   0  0  0  0  0  0  0  0  0  0  0  0
   38.3240   24.6670   38.4080 F   0  0  0  0  0  0  0  0  0  0  0  0
   37.4220   22.9040   38.5420 F   0  0  0  0  0  0  0  0  0  0  0  0
   36.2900   28.4330   34.5720 C   0  0  0  0  0  0  0  0  0  0  0  0
   35.8270   29.1190   33.4340 C   0  0  0  0  0  0  0  0  0  0  0  0
   36.0640   28.5290   32.1880 C   0  0  0  0  0  0  0  0  0  0  0  0
   36.7190   27.3400   32.1530 N   0  0  0  0  0  0  0  0  0  0  0  0
   37.1500   26.7080   33.2720 C   0  0  0  0  0  0  0  0  0  0  0  0
   36.9310   27.2620   34.4760 N   0  0  0  0  0  0  0  0  0  0  0  0
   36.0870   28.9220   35.5110 H   0  0  0  0  0  0  0  0  0  0  0  0
   35.3090   30.0550   33.4320 H   0  0  0  0  0  0  0  0  0  0  0  0
   35.7700   28.9360   31.2400 H   0  0  0  0  0  0  0  0  0  0  0  0
  1 30  1  0  0  0  0
  1  6  1  0  0  0  0
  2  1  2  0  0  0  0
  3  2  1  0  0  0  0
  3  4  2  0  0  0  0
  4  5  1  0  0  0  0
  5  6  2  0  0  0  0
  5 10  1  0  0  0  0
  7  2  1  0  0  0  0
  8  3  1  0  0  0  0
  9 14  1  0  0  0  0
  9 19  1  0  0  0  0
 10  9  2  0  0  0  0
 11 10  1  0  0  0  0
 11 12  2  0  0  0  0
 12 13  1  0  0  0  0
 13 14  2  0  0  0  0
 13 17  1  0  0  0  0
 14 18  1  0  0  0  0
 15 11  1  0  0  0  0
 16 12  1  0  0  0  0
 19 22  1  0  0  0  0
 19 20  2  0  0  0  0
 21 19  2  0  0  0  0
 22 24  1  0  0  0  0
 22 25  1  0  0  0  0
 23 22  1  0  0  0  0
 26 32  1  0  0  0  0
 27 26  2  0  0  0  0
 28 27  1  0  0  0  0
 29 28  2  0  0  0  0
 29 30  1  0  0  0  0
 30 31  2  0  0  0  0
 31 26  1  0  0  0  0
 33 27  1  0  0  0  0
 34 28  1  0  0  0  0
M  END
>  <minimizedAffinity>
-5.47377014

$$$$

 OpenBabel03272504253D

 34 36  0  0  0  0  0  0  0  0999 V2000
   34.4900   29.4510   32.7160 C   0  0  0  0  0  0  0  0  0  0  0  0
   35.1070   29.9200   31.6250 C   0  0  0  0  0  0  0  0  0  0  0  0
   36.3690   29.5810   31.3300 C   0  0  0  0  0  0  0  0  0  0  0  0
   37.0220   28.7420   32.1700 N   0  0  0  0  0  0  0  0  0  0  0  0
   36.4180   28.2780   33.2460 C   0  0  0  0  0  0  0  0  0  0  0  0
   35.1510   28.6170   33.5440 N   0  0  0  0  0  0  0  0  0  0  0  0
   34.5760   30.5890   30.9620 H   0  0  0  0  0  0  0  0  0  0  0  0
   36.8240   29.9840   30.4360 H   0  0  0  0  0  0  0  0  0  0  0  0
   37.2620   26.0110   33.6410 C   0  0  0  0  0  0  0  0  0  0  0  0
   37.1910   27.3500   34.0500 C   0  0  0  0  0  0  0  0  0  0  0  0
   37.7670   27.8400   35.2000 C   0  0  0  0  0  0  0  0  0  0  0  0
   38.4600   26.9780   36.0190 C   0  0  0  0  0  0  0  0  0  0  0  0
   38.5870   25.6520   35.7080 C   0  0  0  0  0  0  0  0  0  0  0  0
   37.9880   25.2600   34.5540 C   0  0  0  0  0  0  0  0  0  0  0  0
   37.6680   28.8960   35.4510 H   0  0  0  0  0  0  0  0  0  0  0  0
   38.8770   27.3900   36.8770 H   0  0  0  0  0  0  0  0  0  0  0  0
   39.1150   24.9670   36.3210 H   0  0  0  0  0  0  0  0  0  0  0  0
   38.0880   24.1890   34.2980 H   0  0  0  0  0  0  0  0  0  0  0  0
   36.6630   25.3980   32.2100 S   0  0  0  0  0  0  0  0  0  0  0  0
   36.8280   23.8830   32.6070 O   0  0  0  0  0  0  0  0  0  0  0  0
   37.6280   25.7160   31.1150 O   0  0  0  0  0  0  0  0  0  0  0  0
   35.4400   24.9410   31.2900 C   0  0  0  0  0  0  0  0  0  0  0  0
   35.3950   23.7760   30.4910 F   0  0  0  0  0  0  0  0  0  0  0  0
   35.4060   25.7680   30.0710 F   0  0  0  0  0  0  0  0  0  0  0  0
   34.1130   25.4100   31.5330 F   0  0  0  0  0  0  0  0  0  0  0  0
   31.0710   30.7810   32.5880 C   0  0  0  0  0  0  0  0  0  0  0  0
   30.5230   30.3500   33.8090 C   0  0  0  0  0  0  0  0  0  0  0  0
   31.3490   29.6040   34.6560 C   0  0  0  0  0  0  0  0  0  0  0  0
   32.6200   29.3450   34.2510 N   0  0  0  0  0  0  0  0  0  0  0  0
   33.1120   29.7780   33.0660 C   0  0  0  0  0  0  0  0  0  0  0  0
   32.3310   30.4950   32.2410 N   0  0  0  0  0  0  0  0  0  0  0  0
   30.4000   31.3530   31.9660 H   0  0  0  0  0  0  0  0  0  0  0  0
   29.5270   30.5390   34.1540 H   0  0  0  0  0  0  0  0  0  0  0  0
   31.0680   29.2100   35.6140 H   0  0  0  0  0  0  0  0  0  0  0  0
  1 30  1  0  0  0  0
  1  6  1  0  0  0  0
  2  1  2  0  0  0  0
  3  2  1  0  0  0  0
  3  4  2  0  0  0  0
  4  5  1  0  0  0  0
  5  6  2  0  0  0  0
  5 10  1  0  0  0  0
  7  2  1  0  0  0  0
  8  3  1  0  0  0  0
  9 10  2  0  0  0  0
  9 14  1  0  0  0  0
 10 11  1  0  0  0  0
 11 15  1  0  0  0  0
 11 12  2  0  0  0  0
 12 16  1  0  0  0  0
 13 12  1  0  0  0  0
 13 17  1  0  0  0  0
 14 13  2  0  0  0  0
 18 14  1  0  0  0  0
 19 20  2  0  0  0  0
 19  9  1  0  0  0  0
 21 19  2  0  0  0  0
 22 25  1  0  0  0  0
 22 19  1  0  0  0  0
 23 22  1  0  0  0  0
 24 22  1  0  0  0  0
 26 27  1  0  0  0  0
 27 33  1  0  0  0  0
 27 28  2  0  0  0  0
 28 34  1  0  0  0  0
 29 28  1  0  0  0  0
 30 29  2  0  0  0  0
 31 26  2  0  0  0  0
 31 30  1  0  0  0  0
 32 26  1  0  0  0  0
M  END
>  <minimizedAffinity>
-5.46785641

$$$$

 OpenBabel03272504253D

 34 36  0  0  0  0  0  0  0  0999 V2000
   36.8480   24.3460   31.3640 C   0  0  0  0  0  0  0  0  0  0  0  0
   35.8610   25.2400   31.2150 C   0  0  0  0  0  0  0  0  0  0  0  0
   36.0800   26.5550   31.3370 C   0  0  0  0  0  0  0  0  0  0  0  0
   37.3370   26.9750   31.6190 N   0  0  0  0  0  0  0  0  0  0  0  0
   38.3110   26.0990   31.7670 C   0  0  0  0  0  0  0  0  0  0  0  0
   38.0940   24.7770   31.6460 N   0  0  0  0  0  0  0  0  0  0  0  0
   34.8620   24.8930   30.9900 H   0  0  0  0  0  0  0  0  0  0  0  0
   35.2520   27.2370   31.2050 H   0  0  0  0  0  0  0  0  0  0  0  0
   40.0940   26.6940   33.3390 C   0  0  0  0  0  0  0  0  0  0  0  0
   39.6260   26.6580   32.0190 C   0  0  0  0  0  0  0  0  0  0  0  0
   40.3130   27.1650   30.9390 C   0  0  0  0  0  0  0  0  0  0  0  0
   41.5400   27.7540   31.1450 C   0  0  0  0  0  0  0  0  0  0  0  0
   42.0850   27.8400   32.3970 C   0  0  0  0  0  0  0  0  0  0  0  0
   41.3360   27.3110   33.4000 C   0  0  0  0  0  0  0  0  0  0  0  0
   39.8820   27.0990   29.9400 H   0  0  0  0  0  0  0  0  0  0  0  0
   42.0220   28.1250   30.3030 H   0  0  0  0  0  0  0  0  0  0  0  0
   43.0270   28.2880   32.5840 H   0  0  0  0  0  0  0  0  0  0  0  0
   41.7720   27.3770   34.4140 H   0  0  0  0  0  0  0  0  0  0  0  0
   39.3400   26.0060   34.6580 S   0  0  0  0  0  0  0  0  0  0  0  0
   39.4410   27.2790   35.5790 O   0  0  0  0  0  0  0  0  0  0  0  0
   40.2280   24.9410   35.2110 O   0  0  0  0  0  0  0  0  0  0  0  0
   38.0180   25.6230   35.4680 C   0  0  0  0  0  0  0  0  0  0  0  0
   36.7590   26.2550   35.3440 F   0  0  0  0  0  0  0  0  0  0  0  0
   38.1250   26.1250   36.8490 F   0  0  0  0  0  0  0  0  0  0  0  0
   37.8520   24.3290   36.0500 F   0  0  0  0  0  0  0  0  0  0  0  0
   35.3540   20.9930   31.4110 C   0  0  0  0  0  0  0  0  0  0  0  0
   36.3950   20.1820   30.9230 C   0  0  0  0  0  0  0  0  0  0  0  0
   37.5960   20.8130   30.5850 C   0  0  0  0  0  0  0  0  0  0  0  0
   37.6850   22.1590   30.7490 N   0  0  0  0  0  0  0  0  0  0  0  0
   36.6600   22.9070   31.2230 C   0  0  0  0  0  0  0  0  0  0  0  0
   35.4990   22.3160   31.5510 N   0  0  0  0  0  0  0  0  0  0  0  0
   34.4460   20.4660   31.6590 H   0  0  0  0  0  0  0  0  0  0  0  0
   36.3530   19.1210   30.7840 H   0  0  0  0  0  0  0  0  0  0  0  0
   38.4720   20.3240   30.2020 H   0  0  0  0  0  0  0  0  0  0  0  0
  1  6  1  0  0  0  0
  2  3  1  0  0  0  0
  2  1  2  0  0  0  0
  3  4  2  0  0  0  0
  4  5  1  0  0  0  0
  5 10  1  0  0  0  0
  6  5  2  0  0  0  0
  7  2  1  0  0  0  0
  8  3  1  0  0  0  0
  9 14  1  0  0  0  0
  9 19  1  0  0  0  0
 10  9  2  0  0  0  0
 11 12  2  0  0  0  0
 11 10  1  0  0  0  0
 12 13  1  0  0  0  0
 13 17  1  0  0  0  0
 13 14  2  0  0  0  0
 14 18  1  0  0  0  0
 15 11  1  0  0  0  0
 16 12  1  0  0  0  0
 19 21  2  0  0  0  0
 19 22  1  0  0  0  0
 19 20  2  0  0  0  0
 22 25  1  0  0  0  0
 22 24  1  0  0  0  0
 23 22  1  0  0  0  0
 26 31  1  0  0  0  0
 26 32  1  0  0  0  0
 27 26  2  0  0  0  0
 28 29  2  0  0  0  0
 28 27  1  0  0  0  0
 29 30  1  0  0  0  0
 30  1  1  0  0  0  0
 30 31  2  0  0  0  0
 33 27  1  0  0  0  0
 34 28  1  0  0  0  0
M  END
>  <minimizedAffinity>
-5.45334864

$$$$

 OpenBabel03272504253D

 34 36  0  0  0  0  0  0  0  0999 V2000
   36.1240   28.7080   33.4820 C   0  0  0  0  0  0  0  0  0  0  0  0
   36.0770   29.2290   32.2490 C   0  0  0  0  0  0  0  0  0  0  0  0
   35.0110   29.9130   31.8150 C   0  0  0  0  0  0  0  0  0  0  0  0
   33.9610   30.0700   32.6580 N   0  0  0  0  0  0  0  0  0  0  0  0
   34.0030   29.5590   33.8720 C   0  0  0  0  0  0  0  0  0  0  0  0
   35.0730   28.8720   34.3110 N   0  0  0  0  0  0  0  0  0  0  0  0
   36.9210   29.0970   31.5860 H   0  0  0  0  0  0  0  0  0  0  0  0
   35.0210   30.3160   30.8130 H   0  0  0  0  0  0  0  0  0  0  0  0
   32.9330   30.8570   35.6530 C   0  0  0  0  0  0  0  0  0  0  0  0
   32.8470   29.8270   34.7080 C   0  0  0  0  0  0  0  0  0  0  0  0
   31.7510   29.0100   34.5480 C   0  0  0  0  0  0  0  0  0  0  0  0
   30.6560   29.1970   35.3620 C   0  0  0  0  0  0  0  0  0  0  0  0
   30.6400   30.1760   36.3170 C   0  0  0  0  0  0  0  0  0  0  0  0
   31.7650   30.9340   36.3990 C   0  0  0  0  0  0  0  0  0  0  0  0
   31.7600   28.2290   33.7880 H   0  0  0  0  0  0  0  0  0  0  0  0
   29.8520   28.5570   35.2080 H   0  0  0  0  0  0  0  0  0  0  0  0
   29.8110   30.3410   36.9560 H   0  0  0  0  0  0  0  0  0  0  0  0
   31.7570   31.7270   37.1700 H   0  0  0  0  0  0  0  0  0  0  0  0
   34.2010   31.9300   35.8130 S   0  0  0  0  0  0  0  0  0  0  0  0
   34.3020   31.8220   37.3810 O   0  0  0  0  0  0  0  0  0  0  0  0
   33.7170   33.2960   35.4550 O   0  0  0  0  0  0  0  0  0  0  0  0
   35.7650   32.2520   35.8140 C   0  0  0  0  0  0  0  0  0  0  0  0
   36.3480   33.5230   36.0150 F   0  0  0  0  0  0  0  0  0  0  0  0
   36.2690   32.2470   34.4300 F   0  0  0  0  0  0  0  0  0  0  0  0
   36.7330   31.2320   36.0720 F   0  0  0  0  0  0  0  0  0  0  0  0
   38.5770   27.2200   35.7720 C   0  0  0  0  0  0  0  0  0  0  0  0
   39.4620   26.5640   34.8970 C   0  0  0  0  0  0  0  0  0  0  0  0
   39.1920   26.6500   33.5270 C   0  0  0  0  0  0  0  0  0  0  0  0
   38.1010   27.3550   33.1290 N   0  0  0  0  0  0  0  0  0  0  0  0
   37.2710   27.9740   34.0030 C   0  0  0  0  0  0  0  0  0  0  0  0
   37.5160   27.9010   35.3220 N   0  0  0  0  0  0  0  0  0  0  0  0
   38.8230   27.1280   36.8180 H   0  0  0  0  0  0  0  0  0  0  0  0
   40.3280   26.0030   35.1820 H   0  0  0  0  0  0  0  0  0  0  0  0
   39.7770   26.2020   32.7460 H   0  0  0  0  0  0  0  0  0  0  0  0
  1 30  1  0  0  0  0
  1  6  1  0  0  0  0
  2  1  2  0  0  0  0
  3  2  1  0  0  0  0
  3  4  2  0  0  0  0
  4  5  1  0  0  0  0
  5  6  2  0  0  0  0
  5 10  1  0  0  0  0
  7  2  1  0  0  0  0
  8  3  1  0  0  0  0
  9 19  1  0  0  0  0
  9 14  1  0  0  0  0
 10  9  2  0  0  0  0
 11 10  1  0  0  0  0
 11 12  2  0  0  0  0
 12 13  1  0  0  0  0
 13 14  2  0  0  0  0
 13 17  1  0  0  0  0
 14 18  1  0  0  0  0
 15 11  1  0  0  0  0
 16 12  1  0  0  0  0
 19 22  1  0  0  0  0
 19 20  2  0  0  0  0
 21 19  2  0  0  0  0
 22 23  1  0  0  0  0
 22 25  1  0  0  0  0
 24 22  1  0  0  0  0
 26 32  1  0  0  0  0
 27 33  1  0  0  0  0
 27 26  2  0  0  0  0
 28 27  1  0  0  0  0
 29 28  2  0  0  0  0
 29 30  1  0  0  0  0
 30 31  2  0  0  0  0
 31 26  1  0  0  0  0
 34 28  1  0  0  0  0
M  END
>  <minimizedAffinity>
-5.44394016

$$$$
