
 OpenBabel03272508003D

 34 36  0  0  0  0  0  0  0  0999 V2000
   37.5400   22.7130   31.6580 C   0  0  0  0  0  0  0  0  0  0  0  0
   37.5000   23.6690   30.6530 C   0  0  0  0  0  0  0  0  0  0  0  0
   37.6230   25.0180   31.0080 C   0  0  0  0  0  0  0  0  0  0  0  0
   37.7840   25.3850   32.3370 C   0  0  0  0  0  0  0  0  0  0  0  0
   37.8210   24.4010   33.3070 C   0  0  0  0  0  0  0  0  0  0  0  0
   37.7000   23.1250   32.9330 N   0  0  0  0  0  0  0  0  0  0  0  0
   37.4010   23.6330   29.5810 H   0  0  0  0  0  0  0  0  0  0  0  0
   37.6100   25.8740   30.3560 H   0  0  0  0  0  0  0  0  0  0  0  0
   37.8870   26.3880   32.7030 H   0  0  0  0  0  0  0  0  0  0  0  0
   36.1290   19.3180   30.9090 C   0  0  0  0  0  0  0  0  0  0  0  0
   36.2470   20.6370   31.4310 C   0  0  0  0  0  0  0  0  0  0  0  0
   37.3960   21.3760   31.1400 C   0  0  0  0  0  0  0  0  0  0  0  0
   38.3460   20.7840   30.3620 N   0  0  0  0  0  0  0  0  0  0  0  0
   38.1970   19.5170   29.8790 C   0  0  0  0  0  0  0  0  0  0  0  0
   37.1100   18.7950   30.1460 N   0  0  0  0  0  0  0  0  0  0  0  0
   39.3190   19.1290   29.0990 N   0  0  0  0  0  0  0  0  0  0  0  0
   35.2420   18.7720   31.1450 H   0  0  0  0  0  0  0  0  0  0  0  0
   40.1620   18.6330   29.4680 H   0  0  0  0  0  0  0  0  0  0  0  0
   39.1650   19.4210   28.0980 H   0  0  0  0  0  0  0  0  0  0  0  0
   35.1410   21.1610   32.2630 C   0  0  0  0  0  0  0  0  0  0  0  0
   33.9670   20.4220   32.0780 F   0  0  0  0  0  0  0  0  0  0  0  0
   35.4750   21.0890   33.5680 F   0  0  0  0  0  0  0  0  0  0  0  0
   34.8160   22.4850   31.9740 F   0  0  0  0  0  0  0  0  0  0  0  0
   37.9950   24.6960   34.7210 C   0  0  0  0  0  0  0  0  0  0  0  0
   38.1430   25.9410   35.2870 C   0  0  0  0  0  0  0  0  0  0  0  0
   38.2810   25.8170   36.6610 C   0  0  0  0  0  0  0  0  0  0  0  0
   38.2110   24.4750   36.8840 N   0  0  0  0  0  0  0  0  0  0  0  0
   38.0440   23.8310   35.7430 N   0  0  0  0  0  0  0  0  0  0  0  0
   38.1580   26.9220   34.7920 H   0  0  0  0  0  0  0  0  0  0  0  0
   38.4150   26.5530   37.4180 H   0  0  0  0  0  0  0  0  0  0  0  0
   38.3090   23.8650   38.1980 C   0  0  0  0  0  0  0  0  0  0  0  0
   38.1970   24.8160   39.2150 F   0  0  0  0  0  0  0  0  0  0  0  0
   39.5280   23.2420   38.3790 F   0  0  0  0  0  0  0  0  0  0  0  0
   37.3150   22.9300   38.4230 F   0  0  0  0  0  0  0  0  0  0  0  0
  1  6  1  0  0  0  0
  2  3  1  0  0  0  0
  2  1  2  0  0  0  0
  3  4  2  0  0  0  0
  4  9  1  0  0  0  0
  4  5  1  0  0  0  0
  5 24  1  0  0  0  0
  6  5  2  0  0  0  0
  7  2  1  0  0  0  0
  8  3  1  0  0  0  0
 10 17  1  0  0  0  0
 10 11  1  0  0  0  0
 11 20  1  0  0  0  0
 12 11  2  0  0  0  0
 12  1  1  0  0  0  0
 13 12  1  0  0  0  0
 14 15  1  0  0  0  0
 14 13  2  0  0  0  0
 15 10  2  0  0  0  0
 16 18  1  0  0  0  0
 16 14  1  0  0  0  0
 19 16  1  0  0  0  0
 20 22  1  0  0  0  0
 21 20  1  0  0  0  0
 23 20  1  0  0  0  0
 24 25  1  0  0  0  0
 24 28  2  0  0  0  0
 25 26  2  0  0  0  0
 26 27  1  0  0  0  0
 26 30  1  0  0  0  0
 27 31  1  0  0  0  0
 28 27  1  0  0  0  0
 29 25  1  0  0  0  0
 31 33  1  0  0  0  0
 31 34  1  0  0  0  0
 31 32  1  0  0  0  0
M  END
>  <minimizedAffinity>
-6.21105909

$$$$

 OpenBabel03272508003D

 34 36  0  0  0  0  0  0  0  0999 V2000
   35.2730   29.1760   33.8490 C   0  0  0  0  0  0  0  0  0  0  0  0
   35.5390   29.5510   32.5400 C   0  0  0  0  0  0  0  0  0  0  0  0
   36.6010   28.9300   31.8690 C   0  0  0  0  0  0  0  0  0  0  0  0
   37.3650   27.9610   32.5050 C   0  0  0  0  0  0  0  0  0  0  0  0
   37.0650   27.6160   33.8090 C   0  0  0  0  0  0  0  0  0  0  0  0
   36.0470   28.2280   34.4180 N   0  0  0  0  0  0  0  0  0  0  0  0
   35.0930   30.2460   31.8480 H   0  0  0  0  0  0  0  0  0  0  0  0
   36.9360   29.1060   30.8620 H   0  0  0  0  0  0  0  0  0  0  0  0
   38.1940   27.4330   32.0740 H   0  0  0  0  0  0  0  0  0  0  0  0
   33.2730   31.7320   35.7320 C   0  0  0  0  0  0  0  0  0  0  0  0
   34.3900   31.0330   35.1940 C   0  0  0  0  0  0  0  0  0  0  0  0
   34.1600   29.9030   34.4050 C   0  0  0  0  0  0  0  0  0  0  0  0
   32.8640   29.5350   34.1940 N   0  0  0  0  0  0  0  0  0  0  0  0
   31.8190   30.2310   34.7260 C   0  0  0  0  0  0  0  0  0  0  0  0
   32.0170   31.3100   35.4820 N   0  0  0  0  0  0  0  0  0  0  0  0
   30.5750   29.6500   34.3630 N   0  0  0  0  0  0  0  0  0  0  0  0
   33.4730   32.5920   36.3320 H   0  0  0  0  0  0  0  0  0  0  0  0
   30.0670   28.9270   34.9200 H   0  0  0  0  0  0  0  0  0  0  0  0
   30.2520   30.0620   33.4480 H   0  0  0  0  0  0  0  0  0  0  0  0
   35.7460   31.5380   35.5000 C   0  0  0  0  0  0  0  0  0  0  0  0
   36.3450   32.1130   34.3720 F   0  0  0  0  0  0  0  0  0  0  0  0
   35.6780   32.4830   36.4610 F   0  0  0  0  0  0  0  0  0  0  0  0
   36.6170   30.5420   35.9360 F   0  0  0  0  0  0  0  0  0  0  0  0
   37.8080   26.6060   34.5470 C   0  0  0  0  0  0  0  0  0  0  0  0
   39.0830   26.1650   34.2760 C   0  0  0  0  0  0  0  0  0  0  0  0
   39.4500   25.1980   35.2010 C   0  0  0  0  0  0  0  0  0  0  0  0
   38.3640   25.0860   36.0140 N   0  0  0  0  0  0  0  0  0  0  0  0
   37.4120   25.9130   35.6220 N   0  0  0  0  0  0  0  0  0  0  0  0
   39.7630   26.4820   33.4730 H   0  0  0  0  0  0  0  0  0  0  0  0
   40.3490   24.6390   35.3050 H   0  0  0  0  0  0  0  0  0  0  0  0
   38.2890   24.1780   37.1460 C   0  0  0  0  0  0  0  0  0  0  0  0
   38.0440   24.8640   38.3380 F   0  0  0  0  0  0  0  0  0  0  0  0
   39.4730   23.4920   37.3260 F   0  0  0  0  0  0  0  0  0  0  0  0
   37.2740   23.2480   37.0120 F   0  0  0  0  0  0  0  0  0  0  0  0
  1 12  1  0  0  0  0
  1  6  1  0  0  0  0
  2  1  2  0  0  0  0
  3  4  2  0  0  0  0
  3  2  1  0  0  0  0
  4  5  1  0  0  0  0
  5  6  2  0  0  0  0
  5 24  1  0  0  0  0
  7  2  1  0  0  0  0
  8  3  1  0  0  0  0
  9  4  1  0  0  0  0
 10 17  1  0  0  0  0
 11 20  1  0  0  0  0
 11 10  2  0  0  0  0
 12 11  1  0  0  0  0
 13 12  2  0  0  0  0
 13 14  1  0  0  0  0
 14 15  2  0  0  0  0
 15 10  1  0  0  0  0
 16 14  1  0  0  0  0
 16 18  1  0  0  0  0
 19 16  1  0  0  0  0
 20 23  1  0  0  0  0
 20 22  1  0  0  0  0
 21 20  1  0  0  0  0
 24 28  2  0  0  0  0
 25 24  1  0  0  0  0
 25 26  2  0  0  0  0
 26 30  1  0  0  0  0
 26 27  1  0  0  0  0
 27 31  1  0  0  0  0
 28 27  1  0  0  0  0
 29 25  1  0  0  0  0
 31 33  1  0  0  0  0
 31 32  1  0  0  0  0
 34 31  1  0  0  0  0
M  END
>  <minimizedAffinity>
-6.19043207

$$$$

 OpenBabel03272508003D

 34 36  0  0  0  0  0  0  0  0999 V2000
   36.7110   26.3680   32.2190 C   0  0  0  0  0  0  0  0  0  0  0  0
   36.3400   25.4730   31.2260 C   0  0  0  0  0  0  0  0  0  0  0  0
   36.6030   24.1100   31.4210 C   0  0  0  0  0  0  0  0  0  0  0  0
   37.2190   23.6720   32.5840 C   0  0  0  0  0  0  0  0  0  0  0  0
   37.5710   24.5960   33.5490 C   0  0  0  0  0  0  0  0  0  0  0  0
   37.3060   25.8860   33.3300 N   0  0  0  0  0  0  0  0  0  0  0  0
   35.8500   25.5660   30.2700 H   0  0  0  0  0  0  0  0  0  0  0  0
   36.3820   23.2960   30.7540 H   0  0  0  0  0  0  0  0  0  0  0  0
   37.4590   22.6530   32.8210 H   0  0  0  0  0  0  0  0  0  0  0  0
   36.9380   29.8400   30.8140 C   0  0  0  0  0  0  0  0  0  0  0  0
   37.2860   28.4990   31.1410 C   0  0  0  0  0  0  0  0  0  0  0  0
   36.3810   27.7270   31.8740 C   0  0  0  0  0  0  0  0  0  0  0  0
   35.2030   28.3110   32.2340 N   0  0  0  0  0  0  0  0  0  0  0  0
   34.9040   29.6000   31.9020 C   0  0  0  0  0  0  0  0  0  0  0  0
   35.7530   30.3530   31.2050 N   0  0  0  0  0  0  0  0  0  0  0  0
   33.6240   29.9730   32.3910 N   0  0  0  0  0  0  0  0  0  0  0  0
   37.6450   30.4100   30.2540 H   0  0  0  0  0  0  0  0  0  0  0  0
   33.4450   30.4220   33.3180 H   0  0  0  0  0  0  0  0  0  0  0  0
   32.8910   29.7240   31.6750 H   0  0  0  0  0  0  0  0  0  0  0  0
   38.5990   27.9870   30.6880 C   0  0  0  0  0  0  0  0  0  0  0  0
   38.4510   26.9180   29.7970 F   0  0  0  0  0  0  0  0  0  0  0  0
   39.2790   28.9650   30.0550 F   0  0  0  0  0  0  0  0  0  0  0  0
   39.3930   27.5150   31.7310 F   0  0  0  0  0  0  0  0  0  0  0  0
   38.2130   24.2230   34.8010 C   0  0  0  0  0  0  0  0  0  0  0  0
   39.4710   23.6850   34.9480 C   0  0  0  0  0  0  0  0  0  0  0  0
   39.7300   23.4650   36.2930 C   0  0  0  0  0  0  0  0  0  0  0  0
   38.5990   23.8850   36.9240 N   0  0  0  0  0  0  0  0  0  0  0  0
   37.7210   24.3260   36.0410 N   0  0  0  0  0  0  0  0  0  0  0  0
   40.2080   23.4410   34.1710 H   0  0  0  0  0  0  0  0  0  0  0  0
   40.5870   23.0660   36.7810 H   0  0  0  0  0  0  0  0  0  0  0  0
   38.4110   23.8450   38.3640 C   0  0  0  0  0  0  0  0  0  0  0  0
   37.4140   22.9360   38.7250 F   0  0  0  0  0  0  0  0  0  0  0  0
   38.0180   25.0730   38.8590 F   0  0  0  0  0  0  0  0  0  0  0  0
   39.5560   23.4610   39.0370 F   0  0  0  0  0  0  0  0  0  0  0  0
  1  6  1  0  0  0  0
  2  3  1  0  0  0  0
  2  1  2  0  0  0  0
  3  4  2  0  0  0  0
  4  9  1  0  0  0  0
  4  5  1  0  0  0  0
  5 24  1  0  0  0  0
  6  5  2  0  0  0  0
  7  2  1  0  0  0  0
  8  3  1  0  0  0  0
 10 11  2  0  0  0  0
 10 15  1  0  0  0  0
 11 12  1  0  0  0  0
 12  1  1  0  0  0  0
 12 13  2  0  0  0  0
 14 13  1  0  0  0  0
 14 16  1  0  0  0  0
 15 14  2  0  0  0  0
 16 18  1  0  0  0  0
 17 10  1  0  0  0  0
 19 16  1  0  0  0  0
 20 11  1  0  0  0  0
 20 23  1  0  0  0  0
 21 20  1  0  0  0  0
 22 20  1  0  0  0  0
 24 25  1  0  0  0  0
 24 28  2  0  0  0  0
 25 26  2  0  0  0  0
 26 30  1  0  0  0  0
 26 27  1  0  0  0  0
 27 31  1  0  0  0  0
 28 27  1  0  0  0  0
 29 25  1  0  0  0  0
 31 32  1  0  0  0  0
 31 33  1  0  0  0  0
 31 34  1  0  0  0  0
M  END
>  <minimizedAffinity>
-5.97484493

$$$$

 OpenBabel03272508003D

 34 36  0  0  0  0  0  0  0  0999 V2000
   36.6160   27.6770   32.6730 C   0  0  0  0  0  0  0  0  0  0  0  0
   36.8750   28.2640   31.4430 C   0  0  0  0  0  0  0  0  0  0  0  0
   36.5850   29.6240   31.2750 C   0  0  0  0  0  0  0  0  0  0  0  0
   36.0510   30.3640   32.3210 C   0  0  0  0  0  0  0  0  0  0  0  0
   35.8100   29.7410   33.5310 C   0  0  0  0  0  0  0  0  0  0  0  0
   36.0980   28.4440   33.6550 N   0  0  0  0  0  0  0  0  0  0  0  0
   37.2880   27.9130   30.5110 H   0  0  0  0  0  0  0  0  0  0  0  0
   36.7240   30.2230   30.3920 H   0  0  0  0  0  0  0  0  0  0  0  0
   35.7980   31.4060   32.2870 H   0  0  0  0  0  0  0  0  0  0  0  0
   38.4080   24.4600   33.3930 C   0  0  0  0  0  0  0  0  0  0  0  0
   38.0880   25.8470   33.3930 C   0  0  0  0  0  0  0  0  0  0  0  0
   36.9610   26.2790   32.6900 C   0  0  0  0  0  0  0  0  0  0  0  0
   36.2240   25.3330   32.0400 N   0  0  0  0  0  0  0  0  0  0  0  0
   36.5610   24.0120   32.0640 C   0  0  0  0  0  0  0  0  0  0  0  0
   37.6330   23.5800   32.7260 N   0  0  0  0  0  0  0  0  0  0  0  0
   35.6400   23.2330   31.3140 N   0  0  0  0  0  0  0  0  0  0  0  0
   39.2750   24.1540   33.9360 H   0  0  0  0  0  0  0  0  0  0  0  0
   35.7420   22.9950   30.3010 H   0  0  0  0  0  0  0  0  0  0  0  0
   34.8450   22.9370   31.9390 H   0  0  0  0  0  0  0  0  0  0  0  0
   38.9730   26.7690   34.1390 C   0  0  0  0  0  0  0  0  0  0  0  0
   39.9910   26.0750   34.8050 F   0  0  0  0  0  0  0  0  0  0  0  0
   39.5530   27.6390   33.2870 F   0  0  0  0  0  0  0  0  0  0  0  0
   38.3030   27.5030   35.1160 F   0  0  0  0  0  0  0  0  0  0  0  0
   35.2600   30.4430   34.6820 C   0  0  0  0  0  0  0  0  0  0  0  0
   35.9520   31.2500   35.5560 C   0  0  0  0  0  0  0  0  0  0  0  0
   35.0860   31.7420   36.5220 C   0  0  0  0  0  0  0  0  0  0  0  0
   33.8790   31.2060   36.1920 N   0  0  0  0  0  0  0  0  0  0  0  0
   33.9940   30.4490   35.1150 N   0  0  0  0  0  0  0  0  0  0  0  0
   37.0190   31.5090   35.5530 H   0  0  0  0  0  0  0  0  0  0  0  0
   35.2590   32.3860   37.3500 H   0  0  0  0  0  0  0  0  0  0  0  0
   32.6540   31.4470   36.9350 C   0  0  0  0  0  0  0  0  0  0  0  0
   32.6010   32.7540   37.4260 F   0  0  0  0  0  0  0  0  0  0  0  0
   32.5520   30.6140   38.0310 F   0  0  0  0  0  0  0  0  0  0  0  0
   31.5210   31.2720   36.1600 F   0  0  0  0  0  0  0  0  0  0  0  0
  1 12  1  0  0  0  0
  1  6  1  0  0  0  0
  2  1  2  0  0  0  0
  3  2  1  0  0  0  0
  3  4  2  0  0  0  0
  4  5  1  0  0  0  0
  5  6  2  0  0  0  0
  5 24  1  0  0  0  0
  7  2  1  0  0  0  0
  8  3  1  0  0  0  0
  9  4  1  0  0  0  0
 10 11  1  0  0  0  0
 10 17  1  0  0  0  0
 11 20  1  0  0  0  0
 12 11  2  0  0  0  0
 13 14  2  0  0  0  0
 13 12  1  0  0  0  0
 14 15  1  0  0  0  0
 15 10  2  0  0  0  0
 16 19  1  0  0  0  0
 16 14  1  0  0  0  0
 18 16  1  0  0  0  0
 20 21  1  0  0  0  0
 20 23  1  0  0  0  0
 22 20  1  0  0  0  0
 24 28  2  0  0  0  0
 24 25  1  0  0  0  0
 25 26  2  0  0  0  0
 26 30  1  0  0  0  0
 27 26  1  0  0  0  0
 27 31  1  0  0  0  0
 28 27  1  0  0  0  0
 29 25  1  0  0  0  0
 31 32  1  0  0  0  0
 31 33  1  0  0  0  0
 34 31  1  0  0  0  0
M  END
>  <minimizedAffinity>
-5.93128395

$$$$

 OpenBabel03272508003D

 34 36  0  0  0  0  0  0  0  0999 V2000
   38.6570   24.0850   34.4350 C   0  0  0  0  0  0  0  0  0  0  0  0
   38.2730   23.0890   33.5490 C   0  0  0  0  0  0  0  0  0  0  0  0
   37.3780   23.4150   32.5210 C   0  0  0  0  0  0  0  0  0  0  0  0
   36.8910   24.7080   32.3960 C   0  0  0  0  0  0  0  0  0  0  0  0
   37.3000   25.6710   33.2990 C   0  0  0  0  0  0  0  0  0  0  0  0
   38.1540   25.3250   34.2660 N   0  0  0  0  0  0  0  0  0  0  0  0
   38.5180   22.0450   33.4340 H   0  0  0  0  0  0  0  0  0  0  0  0
   36.9840   22.7640   31.7610 H   0  0  0  0  0  0  0  0  0  0  0  0
   36.2060   25.0500   31.6450 H   0  0  0  0  0  0  0  0  0  0  0  0
   40.0200   22.7360   37.6600 C   0  0  0  0  0  0  0  0  0  0  0  0
   39.0940   23.2120   36.6890 C   0  0  0  0  0  0  0  0  0  0  0  0
   39.5730   23.5980   35.4340 C   0  0  0  0  0  0  0  0  0  0  0  0
   40.9140   23.4920   35.2120 N   0  0  0  0  0  0  0  0  0  0  0  0
   41.7700   23.0290   36.1680 C   0  0  0  0  0  0  0  0  0  0  0  0
   41.3340   22.6580   37.3710 N   0  0  0  0  0  0  0  0  0  0  0  0
   43.1090   23.0140   35.6940 N   0  0  0  0  0  0  0  0  0  0  0  0
   39.6300   22.4470   38.6110 H   0  0  0  0  0  0  0  0  0  0  0  0
   43.7920   23.7980   35.8020 H   0  0  0  0  0  0  0  0  0  0  0  0
   43.3010   22.0920   35.2200 H   0  0  0  0  0  0  0  0  0  0  0  0
   37.6630   23.2780   37.0600 C   0  0  0  0  0  0  0  0  0  0  0  0
   37.4680   22.9520   38.4070 F   0  0  0  0  0  0  0  0  0  0  0  0
   37.1950   24.5280   36.8640 F   0  0  0  0  0  0  0  0  0  0  0  0
   36.8660   22.4000   36.3290 F   0  0  0  0  0  0  0  0  0  0  0  0
   36.8460   27.0530   33.2360 C   0  0  0  0  0  0  0  0  0  0  0  0
   36.7370   27.8290   32.1050 C   0  0  0  0  0  0  0  0  0  0  0  0
   36.2680   29.0890   32.4470 C   0  0  0  0  0  0  0  0  0  0  0  0
   36.1060   29.0300   33.7980 N   0  0  0  0  0  0  0  0  0  0  0  0
   36.4480   27.8350   34.2470 N   0  0  0  0  0  0  0  0  0  0  0  0
   36.9670   27.5620   31.0650 H   0  0  0  0  0  0  0  0  0  0  0  0
   36.0620   29.9430   31.8470 H   0  0  0  0  0  0  0  0  0  0  0  0
   35.6250   30.1370   34.6060 C   0  0  0  0  0  0  0  0  0  0  0  0
   34.3430   29.8890   35.1030 F   0  0  0  0  0  0  0  0  0  0  0  0
   35.5410   31.3030   33.8720 F   0  0  0  0  0  0  0  0  0  0  0  0
   36.4320   30.3810   35.7030 F   0  0  0  0  0  0  0  0  0  0  0  0
  1 12  1  0  0  0  0
  2  1  2  0  0  0  0
  3  2  1  0  0  0  0
  4  3  2  0  0  0  0
  4  5  1  0  0  0  0
  5  6  2  0  0  0  0
  6  1  1  0  0  0  0
  7  2  1  0  0  0  0
  8  3  1  0  0  0  0
  9  4  1  0  0  0  0
 10 17  1  0  0  0  0
 11 20  1  0  0  0  0
 11 10  2  0  0  0  0
 12 11  1  0  0  0  0
 13 12  2  0  0  0  0
 13 14  1  0  0  0  0
 14 15  2  0  0  0  0
 15 10  1  0  0  0  0
 16 18  1  0  0  0  0
 16 14  1  0  0  0  0
 19 16  1  0  0  0  0
 20 21  1  0  0  0  0
 22 20  1  0  0  0  0
 23 20  1  0  0  0  0
 24  5  1  0  0  0  0
 24 28  2  0  0  0  0
 25 26  2  0  0  0  0
 25 24  1  0  0  0  0
 26 27  1  0  0  0  0
 27 28  1  0  0  0  0
 27 31  1  0  0  0  0
 29 25  1  0  0  0  0
 30 26  1  0  0  0  0
 31 32  1  0  0  0  0
 31 34  1  0  0  0  0
 33 31  1  0  0  0  0
M  END
>  <minimizedAffinity>
-5.91460943

$$$$

 OpenBabel03272508003D

 34 36  0  0  0  0  0  0  0  0999 V2000
   37.7980   25.1130   31.5290 C   0  0  0  0  0  0  0  0  0  0  0  0
   37.0100   24.2500   30.7810 C   0  0  0  0  0  0  0  0  0  0  0  0
   36.6520   23.0160   31.3410 C   0  0  0  0  0  0  0  0  0  0  0  0
   37.0770   22.6720   32.6160 C   0  0  0  0  0  0  0  0  0  0  0  0
   37.8590   23.5610   33.3280 C   0  0  0  0  0  0  0  0  0  0  0  0
   38.1820   24.7270   32.7640 N   0  0  0  0  0  0  0  0  0  0  0  0
   36.5570   24.2960   29.8040 H   0  0  0  0  0  0  0  0  0  0  0  0
   36.0530   22.2410   30.8960 H   0  0  0  0  0  0  0  0  0  0  0  0
   36.8530   21.7540   33.1250 H   0  0  0  0  0  0  0  0  0  0  0  0
   37.5950   28.6570   30.3130 C   0  0  0  0  0  0  0  0  0  0  0  0
   37.2900   27.4630   31.0260 C   0  0  0  0  0  0  0  0  0  0  0  0
   38.0860   26.3340   30.8210 C   0  0  0  0  0  0  0  0  0  0  0  0
   39.1220   26.4450   29.9410 N   0  0  0  0  0  0  0  0  0  0  0  0
   39.3840   27.6070   29.2770 C   0  0  0  0  0  0  0  0  0  0  0  0
   38.6360   28.6940   29.4570 N   0  0  0  0  0  0  0  0  0  0  0  0
   40.5100   27.4680   28.4220 N   0  0  0  0  0  0  0  0  0  0  0  0
   36.9720   29.5060   30.4860 H   0  0  0  0  0  0  0  0  0  0  0  0
   40.4670   27.1820   27.4170 H   0  0  0  0  0  0  0  0  0  0  0  0
   41.3870   27.6960   28.9600 H   0  0  0  0  0  0  0  0  0  0  0  0
   36.1350   27.4770   31.9520 C   0  0  0  0  0  0  0  0  0  0  0  0
   35.5620   28.7520   32.0360 F   0  0  0  0  0  0  0  0  0  0  0  0
   35.1870   26.6230   31.5150 F   0  0  0  0  0  0  0  0  0  0  0  0
   36.4730   27.1170   33.2550 F   0  0  0  0  0  0  0  0  0  0  0  0
   38.3410   23.2850   34.6730 C   0  0  0  0  0  0  0  0  0  0  0  0
   39.3680   22.4360   35.0170 C   0  0  0  0  0  0  0  0  0  0  0  0
   39.5330   22.4380   36.3950 C   0  0  0  0  0  0  0  0  0  0  0  0
   38.5830   23.3030   36.8440 N   0  0  0  0  0  0  0  0  0  0  0  0
   37.8930   23.7910   35.8290 N   0  0  0  0  0  0  0  0  0  0  0  0
   40.0000   21.8230   34.3610 H   0  0  0  0  0  0  0  0  0  0  0  0
   40.2180   21.9110   37.0150 H   0  0  0  0  0  0  0  0  0  0  0  0
   38.3780   23.6270   38.2450 C   0  0  0  0  0  0  0  0  0  0  0  0
   38.0240   24.9670   38.4150 F   0  0  0  0  0  0  0  0  0  0  0  0
   39.5270   23.4300   38.9850 F   0  0  0  0  0  0  0  0  0  0  0  0
   37.3680   22.8770   38.8200 F   0  0  0  0  0  0  0  0  0  0  0  0
  1  6  1  0  0  0  0
  2  3  1  0  0  0  0
  2  1  2  0  0  0  0
  3  4  2  0  0  0  0
  4  9  1  0  0  0  0
  4  5  1  0  0  0  0
  5 24  1  0  0  0  0
  6  5  2  0  0  0  0
  7  2  1  0  0  0  0
  8  3  1  0  0  0  0
 10 17  1  0  0  0  0
 10 11  1  0  0  0  0
 11 20  1  0  0  0  0
 12 11  2  0  0  0  0
 12  1  1  0  0  0  0
 13 12  1  0  0  0  0
 14 15  1  0  0  0  0
 14 13  2  0  0  0  0
 15 10  2  0  0  0  0
 16 19  1  0  0  0  0
 16 14  1  0  0  0  0
 18 16  1  0  0  0  0
 20 21  1  0  0  0  0
 20 23  1  0  0  0  0
 22 20  1  0  0  0  0
 24 25  1  0  0  0  0
 24 28  2  0  0  0  0
 25 26  2  0  0  0  0
 26 27  1  0  0  0  0
 26 30  1  0  0  0  0
 27 31  1  0  0  0  0
 28 27  1  0  0  0  0
 29 25  1  0  0  0  0
 31 32  1  0  0  0  0
 31 34  1  0  0  0  0
 31 33  1  0  0  0  0
M  END
>  <minimizedAffinity>
-5.85437632

$$$$

 OpenBabel03272508003D

 34 36  0  0  0  0  0  0  0  0999 V2000
   35.3630   29.6720   33.9510 C   0  0  0  0  0  0  0  0  0  0  0  0
   35.6260   30.1860   32.6900 C   0  0  0  0  0  0  0  0  0  0  0  0
   36.4690   29.4630   31.8350 C   0  0  0  0  0  0  0  0  0  0  0  0
   37.0230   28.2590   32.2450 C   0  0  0  0  0  0  0  0  0  0  0  0
   36.7340   27.7820   33.5100 C   0  0  0  0  0  0  0  0  0  0  0  0
   35.9280   28.4970   34.2980 N   0  0  0  0  0  0  0  0  0  0  0  0
   35.3130   31.0660   32.1520 H   0  0  0  0  0  0  0  0  0  0  0  0
   36.7720   29.7220   30.8350 H   0  0  0  0  0  0  0  0  0  0  0  0
   37.6760   27.6380   31.6630 H   0  0  0  0  0  0  0  0  0  0  0  0
   32.2950   31.4790   35.1360 C   0  0  0  0  0  0  0  0  0  0  0  0
   33.1380   30.6260   34.3680 C   0  0  0  0  0  0  0  0  0  0  0  0
   34.4880   30.5260   34.7120 C   0  0  0  0  0  0  0  0  0  0  0  0
   34.9230   31.2590   35.7770 N   0  0  0  0  0  0  0  0  0  0  0  0
   34.0840   32.0650   36.4890 C   0  0  0  0  0  0  0  0  0  0  0  0
   32.7940   32.1760   36.1770 N   0  0  0  0  0  0  0  0  0  0  0  0
   34.7740   32.7190   37.5450 N   0  0  0  0  0  0  0  0  0  0  0  0
   31.2670   31.5390   34.8530 H   0  0  0  0  0  0  0  0  0  0  0  0
   35.2270   33.6580   37.4720 H   0  0  0  0  0  0  0  0  0  0  0  0
   34.7540   32.1100   38.4050 H   0  0  0  0  0  0  0  0  0  0  0  0
   32.5390   29.8860   33.2350 C   0  0  0  0  0  0  0  0  0  0  0  0
   31.1510   29.7680   33.3780 F   0  0  0  0  0  0  0  0  0  0  0  0
   32.7850   30.5370   32.0800 F   0  0  0  0  0  0  0  0  0  0  0  0
   33.0270   28.5860   33.1100 F   0  0  0  0  0  0  0  0  0  0  0  0
   37.2650   26.5250   34.0180 C   0  0  0  0  0  0  0  0  0  0  0  0
   37.7190   25.4650   33.2680 C   0  0  0  0  0  0  0  0  0  0  0  0
   38.1490   24.4480   34.1080 C   0  0  0  0  0  0  0  0  0  0  0  0
   37.9350   24.9380   35.3610 N   0  0  0  0  0  0  0  0  0  0  0  0
   37.4190   26.1520   35.2940 N   0  0  0  0  0  0  0  0  0  0  0  0
   37.7650   25.3670   32.1740 H   0  0  0  0  0  0  0  0  0  0  0  0
   38.5560   23.4900   33.8910 H   0  0  0  0  0  0  0  0  0  0  0  0
   38.2410   24.2100   36.5800 C   0  0  0  0  0  0  0  0  0  0  0  0
   39.5400   23.6980   36.5580 F   0  0  0  0  0  0  0  0  0  0  0  0
   37.3990   23.1290   36.7500 F   0  0  0  0  0  0  0  0  0  0  0  0
   38.1490   25.0040   37.7080 F   0  0  0  0  0  0  0  0  0  0  0  0
  1  6  1  0  0  0  0
  1 12  1  0  0  0  0
  2  1  2  0  0  0  0
  3  4  2  0  0  0  0
  3  2  1  0  0  0  0
  4  5  1  0  0  0  0
  5 24  1  0  0  0  0
  5  6  2  0  0  0  0
  7  2  1  0  0  0  0
  8  3  1  0  0  0  0
  9  4  1  0  0  0  0
 10 15  1  0  0  0  0
 11 12  1  0  0  0  0
 11 10  2  0  0  0  0
 12 13  2  0  0  0  0
 13 14  1  0  0  0  0
 14 16  1  0  0  0  0
 15 14  2  0  0  0  0
 16 19  1  0  0  0  0
 17 10  1  0  0  0  0
 18 16  1  0  0  0  0
 20 21  1  0  0  0  0
 20 11  1  0  0  0  0
 22 20  1  0  0  0  0
 23 20  1  0  0  0  0
 24 28  2  0  0  0  0
 25 24  1  0  0  0  0
 25 26  2  0  0  0  0
 26 27  1  0  0  0  0
 27 31  1  0  0  0  0
 28 27  1  0  0  0  0
 29 25  1  0  0  0  0
 30 26  1  0  0  0  0
 31 33  1  0  0  0  0
 31 34  1  0  0  0  0
 32 31  1  0  0  0  0
M  END
>  <minimizedAffinity>
-5.84736395

$$$$

 OpenBabel03272508003D

 34 36  0  0  0  0  0  0  0  0999 V2000
   37.7680   26.3630   32.9980 C   0  0  0  0  0  0  0  0  0  0  0  0
   38.8780   26.4990   32.1780 C   0  0  0  0  0  0  0  0  0  0  0  0
   38.8900   27.5330   31.2330 C   0  0  0  0  0  0  0  0  0  0  0  0
   37.8130   28.4000   31.1250 C   0  0  0  0  0  0  0  0  0  0  0  0
   36.7260   28.2310   31.9620 C   0  0  0  0  0  0  0  0  0  0  0  0
   36.7480   27.2360   32.8510 N   0  0  0  0  0  0  0  0  0  0  0  0
   39.8160   25.9760   32.0840 H   0  0  0  0  0  0  0  0  0  0  0  0
   39.6670   27.7710   30.5270 H   0  0  0  0  0  0  0  0  0  0  0  0
   37.7320   29.2180   30.4340 H   0  0  0  0  0  0  0  0  0  0  0  0
   38.2570   24.3860   36.1490 C   0  0  0  0  0  0  0  0  0  0  0  0
   38.1290   25.4970   35.2680 C   0  0  0  0  0  0  0  0  0  0  0  0
   37.9000   25.2570   33.9110 C   0  0  0  0  0  0  0  0  0  0  0  0
   37.8100   23.9570   33.5070 N   0  0  0  0  0  0  0  0  0  0  0  0
   37.9370   22.9190   34.3820 C   0  0  0  0  0  0  0  0  0  0  0  0
   38.1570   23.1260   35.6790 N   0  0  0  0  0  0  0  0  0  0  0  0
   37.8050   21.6700   33.7190 N   0  0  0  0  0  0  0  0  0  0  0  0
   38.4320   24.5940   37.1820 H   0  0  0  0  0  0  0  0  0  0  0  0
   38.5970   21.1180   33.3190 H   0  0  0  0  0  0  0  0  0  0  0  0
   36.7880   21.3930   33.6960 H   0  0  0  0  0  0  0  0  0  0  0  0
   38.2480   26.8580   35.8360 C   0  0  0  0  0  0  0  0  0  0  0  0
   39.3950   27.5100   35.3660 F   0  0  0  0  0  0  0  0  0  0  0  0
   37.1760   27.5980   35.4840 F   0  0  0  0  0  0  0  0  0  0  0  0
   38.3400   26.8660   37.2270 F   0  0  0  0  0  0  0  0  0  0  0  0
   35.5590   29.1000   31.9220 C   0  0  0  0  0  0  0  0  0  0  0  0
   35.4270   30.2630   31.1990 C   0  0  0  0  0  0  0  0  0  0  0  0
   34.1700   30.8080   31.4160 C   0  0  0  0  0  0  0  0  0  0  0  0
   33.5740   29.9400   32.2800 N   0  0  0  0  0  0  0  0  0  0  0  0
   34.3960   28.9460   32.5680 N   0  0  0  0  0  0  0  0  0  0  0  0
   36.1570   30.7440   30.5340 H   0  0  0  0  0  0  0  0  0  0  0  0
   33.7170   31.6910   31.0330 H   0  0  0  0  0  0  0  0  0  0  0  0
   32.2260   30.1060   32.7960 C   0  0  0  0  0  0  0  0  0  0  0  0
   31.4470   30.8960   31.9480 F   0  0  0  0  0  0  0  0  0  0  0  0
   32.2270   30.7350   34.0250 F   0  0  0  0  0  0  0  0  0  0  0  0
   31.5610   28.9010   32.9340 F   0  0  0  0  0  0  0  0  0  0  0  0
  1 12  1  0  0  0  0
  2  1  2  0  0  0  0
  3  2  1  0  0  0  0
  4  3  2  0  0  0  0
  4  5  1  0  0  0  0
  5  6  2  0  0  0  0
  6  1  1  0  0  0  0
  7  2  1  0  0  0  0
  8  3  1  0  0  0  0
  9  4  1  0  0  0  0
 10 17  1  0  0  0  0
 11 20  1  0  0  0  0
 11 10  2  0  0  0  0
 12 11  1  0  0  0  0
 13 12  2  0  0  0  0
 13 14  1  0  0  0  0
 14 15  2  0  0  0  0
 15 10  1  0  0  0  0
 16 14  1  0  0  0  0
 18 16  1  0  0  0  0
 19 16  1  0  0  0  0
 20 23  1  0  0  0  0
 21 20  1  0  0  0  0
 22 20  1  0  0  0  0
 24  5  1  0  0  0  0
 24 28  2  0  0  0  0
 25 26  2  0  0  0  0
 25 24  1  0  0  0  0
 26 27  1  0  0  0  0
 27 28  1  0  0  0  0
 27 31  1  0  0  0  0
 29 25  1  0  0  0  0
 30 26  1  0  0  0  0
 31 34  1  0  0  0  0
 31 33  1  0  0  0  0
 32 31  1  0  0  0  0
M  END
>  <minimizedAffinity>
-5.79406834

$$$$

 OpenBabel03272508003D

 34 36  0  0  0  0  0  0  0  0999 V2000
   37.5370   26.6540   33.1240 C   0  0  0  0  0  0  0  0  0  0  0  0
   37.9140   26.9210   31.8160 C   0  0  0  0  0  0  0  0  0  0  0  0
   37.4030   28.0680   31.1930 C   0  0  0  0  0  0  0  0  0  0  0  0
   36.5400   28.9140   31.8750 C   0  0  0  0  0  0  0  0  0  0  0  0
   36.1900   28.6110   33.1770 C   0  0  0  0  0  0  0  0  0  0  0  0
   36.6960   27.5110   33.7390 N   0  0  0  0  0  0  0  0  0  0  0  0
   38.5630   26.4390   31.1040 H   0  0  0  0  0  0  0  0  0  0  0  0
   37.5940   28.4130   30.1920 H   0  0  0  0  0  0  0  0  0  0  0  0
   36.1000   29.8100   31.4820 H   0  0  0  0  0  0  0  0  0  0  0  0
   39.8700   24.3000   34.8840 C   0  0  0  0  0  0  0  0  0  0  0  0
   39.2950   25.5100   34.4030 C   0  0  0  0  0  0  0  0  0  0  0  0
   38.1370   25.4440   33.6240 C   0  0  0  0  0  0  0  0  0  0  0  0
   37.6190   24.2080   33.3700 N   0  0  0  0  0  0  0  0  0  0  0  0
   38.1980   23.0700   33.8490 C   0  0  0  0  0  0  0  0  0  0  0  0
   39.3030   23.1120   34.5930 N   0  0  0  0  0  0  0  0  0  0  0  0
   37.4730   21.9160   33.4490 N   0  0  0  0  0  0  0  0  0  0  0  0
   40.7540   24.3760   35.4770 H   0  0  0  0  0  0  0  0  0  0  0  0
   37.6610   21.3620   32.5830 H   0  0  0  0  0  0  0  0  0  0  0  0
   36.7210   21.7130   34.1590 H   0  0  0  0  0  0  0  0  0  0  0  0
   39.9580   26.7870   34.7520 C   0  0  0  0  0  0  0  0  0  0  0  0
   39.1880   27.5340   35.6510 F   0  0  0  0  0  0  0  0  0  0  0  0
   41.1510   26.5410   35.3310 F   0  0  0  0  0  0  0  0  0  0  0  0
   40.1750   27.6110   33.6490 F   0  0  0  0  0  0  0  0  0  0  0  0
   35.2990   29.4470   33.9680 C   0  0  0  0  0  0  0  0  0  0  0  0
   33.9230   29.4230   33.9500 C   0  0  0  0  0  0  0  0  0  0  0  0
   33.4280   30.3640   34.8410 C   0  0  0  0  0  0  0  0  0  0  0  0
   34.5420   30.9350   35.3770 N   0  0  0  0  0  0  0  0  0  0  0  0
   35.6280   30.3910   34.8580 N   0  0  0  0  0  0  0  0  0  0  0  0
   33.2550   28.7880   33.3520 H   0  0  0  0  0  0  0  0  0  0  0  0
   32.4290   30.6280   35.0930 H   0  0  0  0  0  0  0  0  0  0  0  0
   34.5130   31.9900   36.3750 C   0  0  0  0  0  0  0  0  0  0  0  0
   33.8870   33.1400   35.8870 F   0  0  0  0  0  0  0  0  0  0  0  0
   35.7870   32.3690   36.7500 F   0  0  0  0  0  0  0  0  0  0  0  0
   33.8250   31.6210   37.5160 F   0  0  0  0  0  0  0  0  0  0  0  0
  1 12  1  0  0  0  0
  1  6  1  0  0  0  0
  2  1  2  0  0  0  0
  3  2  1  0  0  0  0
  3  4  2  0  0  0  0
  4  5  1  0  0  0  0
  5  6  2  0  0  0  0
  5 24  1  0  0  0  0
  7  2  1  0  0  0  0
  8  3  1  0  0  0  0
  9  4  1  0  0  0  0
 10 17  1  0  0  0  0
 11 20  1  0  0  0  0
 11 10  2  0  0  0  0
 12 11  1  0  0  0  0
 13 12  2  0  0  0  0
 13 14  1  0  0  0  0
 14 15  2  0  0  0  0
 15 10  1  0  0  0  0
 16 14  1  0  0  0  0
 16 19  1  0  0  0  0
 18 16  1  0  0  0  0
 20 22  1  0  0  0  0
 20 21  1  0  0  0  0
 23 20  1  0  0  0  0
 24 28  2  0  0  0  0
 25 24  1  0  0  0  0
 25 26  2  0  0  0  0
 26 30  1  0  0  0  0
 26 27  1  0  0  0  0
 27 31  1  0  0  0  0
 28 27  1  0  0  0  0
 29 25  1  0  0  0  0
 31 33  1  0  0  0  0
 31 34  1  0  0  0  0
 32 31  1  0  0  0  0
M  END
>  <minimizedAffinity>
-5.78288603

$$$$
