REMARK  Name = 
REMARK  7 active torsions:
REMARK  status: ('A' for Active; 'I' for Inactive)
REMARK    1  A    between atoms: C_1  and  C_7
REMARK    2  A    between atoms: C_6  and  C_15
REMARK    3  A    between atoms: C_7  and  O_8
REMARK    4  A    between atoms: C_7  and  C_13
REMARK    5  A    between atoms: C_16  and  C_17
REMARK    6  A    between atoms: C_17  and  S_18
REMARK    7  A    between atoms: S_18  and  C_32
REMARK                            x       y       z     vdW  Elec       q    Type
REMARK                         _______ _______ _______ _____ _____    ______ ____
ROOT
ATOM      1  C   UNL     1      37.080  30.949  49.033  0.00  0.00    +0.000 A 
ATOM      2  C   UNL     1      36.812  31.877  50.037  0.00  0.00    +0.000 A 
ATOM      3  C   UNL     1      37.424  33.123  50.063  0.00  0.00    +0.000 A 
ATOM      4  C   UNL     1      38.334  33.465  49.058  0.00  0.00    +0.000 A 
ATOM      5  C   UNL     1      38.586  32.542  48.078  0.00  0.00    +0.000 A 
ATOM      6  C   UNL     1      37.956  31.306  48.087  0.00  0.00    +0.000 A 
ATOM      7  H   UNL     1      36.099  31.607  50.820  0.00  0.00    +0.000 HD
ATOM      8  H   UNL     1      37.158  33.769  50.872  0.00  0.00    +0.000 HD
ATOM      9  H   UNL     1      38.771  34.451  49.141  0.00  0.00    +0.000 HD
ATOM     10  H   UNL     1      39.313  32.948  47.368  0.00  0.00    +0.000 HD
ENDROOT
BRANCH   1  11
ATOM     11  C   UNL     1      36.466  29.639  49.022  0.00  0.00    +0.000 C 
ATOM     12  H   UNL     1      37.011  29.062  48.179  0.00  0.00    +0.000 HD
BRANCH  11  17
ATOM     13  C   UNL     1      33.615  30.151  46.829  0.00  0.00    +0.000 A 
ATOM     14  C   UNL     1      32.955  28.942  46.841  0.00  0.00    +0.000 A 
ATOM     15  C   UNL     1      33.451  27.939  47.660  0.00  0.00    +0.000 A 
ATOM     16  N   UNL     1      34.572  28.183  48.423  0.00  0.00    +0.000 NA
ATOM     17  C   UNL     1      35.157  29.361  48.364  0.00  0.00    +0.000 A 
ATOM     18  N   UNL     1      34.686  30.354  47.571  0.00  0.00    +0.000 NA
ATOM     19  H   UNL     1      33.186  30.897  46.174  0.00  0.00    +0.000 HD
ATOM     20  H   UNL     1      32.077  28.656  46.282  0.00  0.00    +0.000 HD
ATOM     21  H   UNL     1      33.075  26.930  47.809  0.00  0.00    +0.000 HD
ENDBRANCH  11  17
BRANCH  11  22
ATOM     22  O   UNL     1      36.868  28.893  49.990  0.00  0.00    +0.000 OA
ATOM     23  H   UNL     1      36.571  29.029  50.917  0.00  0.00    +0.000 HD
ENDBRANCH  11  22
ENDBRANCH   1  11
BRANCH   6  24
ATOM     24  C   UNL     1      38.346  30.418  47.017  0.00  0.00    +0.000 C 
ATOM     25  C   UNL     1      38.811  30.837  45.834  0.00  0.00    +0.000 C 
BRANCH  25  26
ATOM     26  C   UNL     1      39.284  30.022  44.690  0.00  0.00    +0.000 C 
ATOM     27  H   UNL     1      38.724  29.055  44.627  0.00  0.00    +0.000 HD
ATOM     28  H   UNL     1      40.343  29.738  44.897  0.00  0.00    +0.000 HD
BRANCH  26  29
ATOM     29  S   UNL     1      39.191  30.985  43.178  0.00  0.00    +0.000 S 
BRANCH  29  30
ATOM     30  C   UNL     1      39.712  29.969  41.754  0.00  0.00    +0.000 C 
ATOM     31  F   UNL     1      39.776  30.809  40.643  0.00  0.00    +0.000 F 
ATOM     32  F   UNL     1      38.736  28.996  41.488  0.00  0.00    +0.000 F 
ATOM     33  F   UNL     1      40.924  29.377  41.967  0.00  0.00    +0.000 F 
ENDBRANCH  29  30
ENDBRANCH  26  29
ENDBRANCH  25  26
ENDBRANCH   6  24
TORSDOF 7
