
 OpenBabel03272510113D

 30 32  0  0  0  0  0  0  0  0999 V2000
   33.8370   28.7100   48.2820 C   0  0  0  0  0  0  0  0  0  0  0  0
   34.4020   28.2840   49.4310 C   0  0  0  0  0  0  0  0  0  0  0  0
   35.6440   28.6820   49.8900 C   0  0  0  0  0  0  0  0  0  0  0  0
   36.3810   29.5640   49.1610 C   0  0  0  0  0  0  0  0  0  0  0  0
   35.7930   30.0060   47.9660 C   0  0  0  0  0  0  0  0  0  0  0  0
   34.5800   29.5880   47.5650 N   0  0  0  0  0  0  0  0  0  0  0  0
   33.8970   27.5830   50.0820 H   0  0  0  0  0  0  0  0  0  0  0  0
   36.0990   28.3440   50.8100 H   0  0  0  0  0  0  0  0  0  0  0  0
   36.3180   30.7110   47.3310 H   0  0  0  0  0  0  0  0  0  0  0  0
   31.6340   27.5410   48.5760 C   0  0  0  0  0  0  0  0  0  0  0  0
   32.5470   28.2870   47.8170 C   0  0  0  0  0  0  0  0  0  0  0  0
   32.1220   28.6070   46.5470 C   0  0  0  0  0  0  0  0  0  0  0  0
   30.9070   28.2180   46.0880 N   0  0  0  0  0  0  0  0  0  0  0  0
   30.0760   27.4950   46.8850 C   0  0  0  0  0  0  0  0  0  0  0  0
   30.4300   27.1530   48.1250 N   0  0  0  0  0  0  0  0  0  0  0  0
   31.9210   27.2640   49.5810 H   0  0  0  0  0  0  0  0  0  0  0  0
   32.8010   29.1920   45.9080 H   0  0  0  0  0  0  0  0  0  0  0  0
   29.1570   27.2660   46.3760 H   0  0  0  0  0  0  0  0  0  0  0  0
   37.6400   30.0790   49.4560 O   0  0  0  0  0  0  0  0  0  0  0  0
   38.2380   31.0580   48.6750 C   0  0  0  0  0  0  0  0  0  0  0  0
   38.3120   32.3090   49.2910 C   0  0  0  0  0  0  0  0  0  0  0  0
   38.9310   33.1620   48.3820 C   0  0  0  0  0  0  0  0  0  0  0  0
   39.1980   32.4310   47.2940 N   0  0  0  0  0  0  0  0  0  0  0  0
   38.7960   31.1960   47.4560 N   0  0  0  0  0  0  0  0  0  0  0  0
   38.0130   32.7190   50.2480 H   0  0  0  0  0  0  0  0  0  0  0  0
   39.1710   34.2270   48.4890 H   0  0  0  0  0  0  0  0  0  0  0  0
   39.8490   32.9530   46.1020 C   0  0  0  0  0  0  0  0  0  0  0  0
   38.9400   33.0910   45.0580 F   0  0  0  0  0  0  0  0  0  0  0  0
   40.8350   32.1290   45.6460 F   0  0  0  0  0  0  0  0  0  0  0  0
   40.3430   34.2240   46.3490 F   0  0  0  0  0  0  0  0  0  0  0  0
  1  2  1  0  0  0  0
  2  3  2  0  0  0  0
  2  7  1  0  0  0  0
  3  8  1  0  0  0  0
  4 19  1  0  0  0  0
  4  3  1  0  0  0  0
  5  4  2  0  0  0  0
  6  5  1  0  0  0  0
  6  1  2  0  0  0  0
  9  5  1  0  0  0  0
 10 16  1  0  0  0  0
 11  1  1  0  0  0  0
 11 10  2  0  0  0  0
 12 11  1  0  0  0  0
 13 12  2  0  0  0  0
 13 14  1  0  0  0  0
 14 15  2  0  0  0  0
 15 10  1  0  0  0  0
 17 12  1  0  0  0  0
 18 14  1  0  0  0  0
 20 21  1  0  0  0  0
 20 19  1  0  0  0  0
 21 25  1  0  0  0  0
 22 26  1  0  0  0  0
 22 21  2  0  0  0  0
 23 24  1  0  0  0  0
 23 22  1  0  0  0  0
 24 20  2  0  0  0  0
 27 30  1  0  0  0  0
 27 23  1  0  0  0  0
 28 27  1  0  0  0  0
 29 27  1  0  0  0  0
M  END
>  <minimizedAffinity>
-6.05494595

>  <minimizedRMSD>
0.835283518

$$$$
