
 OpenBabel03272508163D

 26 27  0  0  0  0  0  0  0  0999 V2000
   34.9930   30.0050   49.3800 Cl  0  0  0  0  0  0  0  0  0  0  0  0
   35.8910   30.2210   47.9230 C   0  0  0  0  0  0  0  0  0  0  0  0
   35.1310   30.0770   46.8010 C   0  0  0  0  0  0  0  0  0  0  0  0
   35.7630   30.2330   45.5410 C   0  0  0  0  0  0  0  0  0  0  0  0
   37.0900   30.5190   45.4430 C   0  0  0  0  0  0  0  0  0  0  0  0
   37.8350   30.6600   46.5950 C   0  0  0  0  0  0  0  0  0  0  0  0
   39.5290   31.0210   46.5230 Cl  0  0  0  0  0  0  0  0  0  0  0  0
   37.2260   30.5090   47.8010 C   0  0  0  0  0  0  0  0  0  0  0  0
   35.2490   30.1390   44.6030 H   0  0  0  0  0  0  0  0  0  0  0  0
   37.5990   30.6450   44.4930 H   0  0  0  0  0  0  0  0  0  0  0  0
   33.2580   28.5080   47.1200 C   0  0  0  0  0  0  0  0  0  0  0  0
   33.6920   29.7710   46.6550 C   0  0  0  0  0  0  0  0  0  0  0  0
   32.7680   30.6390   46.0980 C   0  0  0  0  0  0  0  0  0  0  0  0
   31.4730   30.2180   46.0280 N   0  0  0  0  0  0  0  0  0  0  0  0
   31.0800   29.0090   46.4770 C   0  0  0  0  0  0  0  0  0  0  0  0
   31.9840   28.1380   47.0310 N   0  0  0  0  0  0  0  0  0  0  0  0
   33.9270   27.8010   47.5570 H   0  0  0  0  0  0  0  0  0  0  0  0
   33.1260   31.5860   45.7560 H   0  0  0  0  0  0  0  0  0  0  0  0
   30.0380   28.8030   46.3630 H   0  0  0  0  0  0  0  0  0  0  0  0
   37.9450   30.6440   49.0820 C   0  0  0  0  0  0  0  0  0  0  0  0
   38.0230   29.8580   50.0220 O   0  0  0  0  0  0  0  0  0  0  0  0
   38.7190   31.7510   49.4960 O   0  0  0  0  0  0  0  0  0  0  0  0
   38.2880   33.0660   49.3660 C   0  0  0  0  0  0  0  0  0  0  0  0
   37.0230   33.2050   49.9290 F   0  0  0  0  0  0  0  0  0  0  0  0
   39.1660   33.8480   50.0890 F   0  0  0  0  0  0  0  0  0  0  0  0
   38.2490   33.5160   48.0660 F   0  0  0  0  0  0  0  0  0  0  0  0
  2  1  1  0  0  0  0
  3  2  2  0  0  0  0
  4  3  1  0  0  0  0
  5  4  2  0  0  0  0
  5  6  1  0  0  0  0
  6  8  2  0  0  0  0
  7  6  1  0  0  0  0
  8  2  1  0  0  0  0
  8 20  1  0  0  0  0
  9  4  1  0  0  0  0
 10  5  1  0  0  0  0
 11 17  1  0  0  0  0
 12  3  1  0  0  0  0
 12 11  2  0  0  0  0
 13 12  1  0  0  0  0
 14 13  2  0  0  0  0
 14 15  1  0  0  0  0
 15 16  2  0  0  0  0
 16 11  1  0  0  0  0
 18 13  1  0  0  0  0
 19 15  1  0  0  0  0
 20 22  1  0  0  0  0
 20 21  2  0  0  0  0
 23 22  1  0  0  0  0
 23 24  1  0  0  0  0
 23 25  1  0  0  0  0
 26 23  1  0  0  0  0
M  END
>  <minimizedAffinity>
-5.80431747

>  <minimizedRMSD>
3.0501802

$$$$
