
 OpenBabel03272508173D

 26 27  0  0  0  0  0  0  0  0999 V2000
   38.3500   23.9440   33.0190 Cl  0  0  0  0  0  0  0  0  0  0  0  0
   38.0390   25.3970   33.8950 C   0  0  0  0  0  0  0  0  0  0  0  0
   38.5710   25.3880   35.1500 C   0  0  0  0  0  0  0  0  0  0  0  0
   38.3800   26.5320   35.9660 C   0  0  0  0  0  0  0  0  0  0  0  0
   37.6870   27.6150   35.5190 C   0  0  0  0  0  0  0  0  0  0  0  0
   37.1600   27.5970   34.2440 C   0  0  0  0  0  0  0  0  0  0  0  0
   36.2670   28.9500   33.6300 Cl  0  0  0  0  0  0  0  0  0  0  0  0
   37.3450   26.4990   33.4660 C   0  0  0  0  0  0  0  0  0  0  0  0
   38.7610   26.6190   36.9660 H   0  0  0  0  0  0  0  0  0  0  0  0
   37.5260   28.5030   36.1200 H   0  0  0  0  0  0  0  0  0  0  0  0
   40.6920   24.1660   35.4360 C   0  0  0  0  0  0  0  0  0  0  0  0
   39.3510   24.3450   35.8490 C   0  0  0  0  0  0  0  0  0  0  0  0
   38.8460   23.5500   36.8650 C   0  0  0  0  0  0  0  0  0  0  0  0
   39.6850   22.6260   37.4160 N   0  0  0  0  0  0  0  0  0  0  0  0
   40.9600   22.4710   37.0070 C   0  0  0  0  0  0  0  0  0  0  0  0
   41.4740   23.2510   36.0010 N   0  0  0  0  0  0  0  0  0  0  0  0
   41.1310   24.7490   34.6580 H   0  0  0  0  0  0  0  0  0  0  0  0
   37.8300   23.7090   37.1550 H   0  0  0  0  0  0  0  0  0  0  0  0
   41.5090   21.7130   37.5200 H   0  0  0  0  0  0  0  0  0  0  0  0
   36.8180   26.3950   32.0910 C   0  0  0  0  0  0  0  0  0  0  0  0
   37.3430   26.7110   31.0260 O   0  0  0  0  0  0  0  0  0  0  0  0
   35.5540   25.8900   31.7140 O   0  0  0  0  0  0  0  0  0  0  0  0
   35.3930   24.6890   31.0340 C   0  0  0  0  0  0  0  0  0  0  0  0
   34.9440   23.7070   31.9120 F   0  0  0  0  0  0  0  0  0  0  0  0
   34.4100   24.8950   30.0850 F   0  0  0  0  0  0  0  0  0  0  0  0
   36.5340   24.2410   30.4090 F   0  0  0  0  0  0  0  0  0  0  0  0
  1  2  1  0  0  0  0
  2  3  1  0  0  0  0
  3 12  1  0  0  0  0
  3  4  2  0  0  0  0
  4  9  1  0  0  0  0
  5  4  1  0  0  0  0
  5 10  1  0  0  0  0
  6  5  2  0  0  0  0
  7  6  1  0  0  0  0
  8  2  2  0  0  0  0
  8  6  1  0  0  0  0
 11 12  2  0  0  0  0
 11 16  1  0  0  0  0
 12 13  1  0  0  0  0
 13 18  1  0  0  0  0
 13 14  2  0  0  0  0
 15 14  1  0  0  0  0
 15 19  1  0  0  0  0
 16 15  2  0  0  0  0
 17 11  1  0  0  0  0
 20  8  1  0  0  0  0
 21 20  2  0  0  0  0
 22 20  1  0  0  0  0
 23 22  1  0  0  0  0
 23 24  1  0  0  0  0
 25 23  1  0  0  0  0
 26 23  1  0  0  0  0
M  END
>  <minimizedAffinity>
-5.2987895

$$$$

 OpenBabel03272508173D

 26 27  0  0  0  0  0  0  0  0999 V2000
   39.0450   23.7500   33.1610 Cl  0  0  0  0  0  0  0  0  0  0  0  0
   38.7580   24.8190   34.4840 C   0  0  0  0  0  0  0  0  0  0  0  0
   38.8560   26.1340   34.1390 C   0  0  0  0  0  0  0  0  0  0  0  0
   38.6400   27.1080   35.1460 C   0  0  0  0  0  0  0  0  0  0  0  0
   38.3410   26.7520   36.4260 C   0  0  0  0  0  0  0  0  0  0  0  0
   38.2470   25.4130   36.7460 C   0  0  0  0  0  0  0  0  0  0  0  0
   37.8710   24.9090   38.3620 Cl  0  0  0  0  0  0  0  0  0  0  0  0
   38.4550   24.4830   35.7780 C   0  0  0  0  0  0  0  0  0  0  0  0
   38.6950   28.1660   34.9720 H   0  0  0  0  0  0  0  0  0  0  0  0
   38.1690   27.4740   37.2150 H   0  0  0  0  0  0  0  0  0  0  0  0
   38.0660   27.1540   32.0400 C   0  0  0  0  0  0  0  0  0  0  0  0
   39.1660   26.7580   32.8350 C   0  0  0  0  0  0  0  0  0  0  0  0
   40.4500   26.9690   32.3630 C   0  0  0  0  0  0  0  0  0  0  0  0
   40.5820   27.5550   31.1380 N   0  0  0  0  0  0  0  0  0  0  0  0
   39.5190   27.9250   30.3950 C   0  0  0  0  0  0  0  0  0  0  0  0
   38.2400   27.7220   30.8500 N   0  0  0  0  0  0  0  0  0  0  0  0
   37.0560   27.0150   32.3550 H   0  0  0  0  0  0  0  0  0  0  0  0
   41.2610   26.6590   32.9860 H   0  0  0  0  0  0  0  0  0  0  0  0
   39.7590   28.3730   29.4560 H   0  0  0  0  0  0  0  0  0  0  0  0
   38.3730   23.0320   36.0330 C   0  0  0  0  0  0  0  0  0  0  0  0
   37.3840   22.3110   36.1420 O   0  0  0  0  0  0  0  0  0  0  0  0
   39.4610   22.1490   36.2090 O   0  0  0  0  0  0  0  0  0  0  0  0
   40.5160   22.4130   37.0740 C   0  0  0  0  0  0  0  0  0  0  0  0
   41.2520   21.2520   37.2880 F   0  0  0  0  0  0  0  0  0  0  0  0
   41.3340   23.3280   36.4400 F   0  0  0  0  0  0  0  0  0  0  0  0
   40.1280   22.9250   38.2910 F   0  0  0  0  0  0  0  0  0  0  0  0
  1  2  1  0  0  0  0
  2  8  1  0  0  0  0
  3  2  2  0  0  0  0
  3  4  1  0  0  0  0
  4  5  2  0  0  0  0
  5  6  1  0  0  0  0
  5 10  1  0  0  0  0
  6  7  1  0  0  0  0
  8 20  1  0  0  0  0
  8  6  2  0  0  0  0
  9  4  1  0  0  0  0
 11 17  1  0  0  0  0
 11 12  1  0  0  0  0
 12  3  1  0  0  0  0
 13 12  2  0  0  0  0
 13 18  1  0  0  0  0
 14 13  1  0  0  0  0
 15 16  1  0  0  0  0
 15 14  2  0  0  0  0
 16 11  2  0  0  0  0
 19 15  1  0  0  0  0
 20 21  2  0  0  0  0
 20 22  1  0  0  0  0
 22 23  1  0  0  0  0
 23 24  1  0  0  0  0
 23 26  1  0  0  0  0
 25 23  1  0  0  0  0
M  END
>  <minimizedAffinity>
-5.09561348

$$$$

 OpenBabel03272508173D

 26 27  0  0  0  0  0  0  0  0999 V2000
   36.4030   27.7990   34.9060 Cl  0  0  0  0  0  0  0  0  0  0  0  0
   36.2580   28.6390   33.4070 C   0  0  0  0  0  0  0  0  0  0  0  0
   35.6790   29.8670   33.5360 C   0  0  0  0  0  0  0  0  0  0  0  0
   35.5080   30.6520   32.3670 C   0  0  0  0  0  0  0  0  0  0  0  0
   35.9060   30.2030   31.1450 C   0  0  0  0  0  0  0  0  0  0  0  0
   36.4890   28.9570   31.0440 C   0  0  0  0  0  0  0  0  0  0  0  0
   37.0100   28.3390   29.5110 Cl  0  0  0  0  0  0  0  0  0  0  0  0
   36.6520   28.2080   32.1660 C   0  0  0  0  0  0  0  0  0  0  0  0
   35.0640   31.6290   32.3680 H   0  0  0  0  0  0  0  0  0  0  0  0
   35.7880   30.7810   30.2360 H   0  0  0  0  0  0  0  0  0  0  0  0
   33.7980   30.4070   35.0320 C   0  0  0  0  0  0  0  0  0  0  0  0
   35.1720   30.5610   34.7380 C   0  0  0  0  0  0  0  0  0  0  0  0
   35.9580   31.3390   35.5730 C   0  0  0  0  0  0  0  0  0  0  0  0
   35.3500   31.9200   36.6470 N   0  0  0  0  0  0  0  0  0  0  0  0
   34.0370   31.7610   36.9090 C   0  0  0  0  0  0  0  0  0  0  0  0
   33.2460   30.9930   36.0900 N   0  0  0  0  0  0  0  0  0  0  0  0
   33.1470   29.8200   34.4230 H   0  0  0  0  0  0  0  0  0  0  0  0
   36.9920   31.4360   35.3250 H   0  0  0  0  0  0  0  0  0  0  0  0
   33.6870   32.2690   37.7800 H   0  0  0  0  0  0  0  0  0  0  0  0
   37.2670   26.8670   32.1500 C   0  0  0  0  0  0  0  0  0  0  0  0
   38.4470   26.5480   32.0250 O   0  0  0  0  0  0  0  0  0  0  0  0
   36.5910   25.6320   32.2790 O   0  0  0  0  0  0  0  0  0  0  0  0
   35.9440   25.0110   31.2180 C   0  0  0  0  0  0  0  0  0  0  0  0
   36.8780   24.4050   30.3860 F   0  0  0  0  0  0  0  0  0  0  0  0
   35.1480   24.0200   31.7610 F   0  0  0  0  0  0  0  0  0  0  0  0
   35.1590   25.8560   30.4680 F   0  0  0  0  0  0  0  0  0  0  0  0
  2  3  1  0  0  0  0
  2  1  1  0  0  0  0
  3 12  1  0  0  0  0
  4  9  1  0  0  0  0
  4  3  2  0  0  0  0
  5  4  1  0  0  0  0
  6  5  2  0  0  0  0
  6  8  1  0  0  0  0
  7  6  1  0  0  0  0
  8  2  2  0  0  0  0
 10  5  1  0  0  0  0
 11 16  1  0  0  0  0
 12 11  2  0  0  0  0
 12 13  1  0  0  0  0
 13 14  2  0  0  0  0
 14 15  1  0  0  0  0
 15 19  1  0  0  0  0
 16 15  2  0  0  0  0
 17 11  1  0  0  0  0
 18 13  1  0  0  0  0
 20  8  1  0  0  0  0
 20 22  1  0  0  0  0
 21 20  2  0  0  0  0
 23 25  1  0  0  0  0
 23 22  1  0  0  0  0
 24 23  1  0  0  0  0
 26 23  1  0  0  0  0
M  END
>  <minimizedAffinity>
-5.07521582

$$$$

 OpenBabel03272508173D

 26 27  0  0  0  0  0  0  0  0999 V2000
   37.7410   22.8970   33.6040 Cl  0  0  0  0  0  0  0  0  0  0  0  0
   38.4210   24.4770   33.4800 C   0  0  0  0  0  0  0  0  0  0  0  0
   38.8980   24.9480   34.6670 C   0  0  0  0  0  0  0  0  0  0  0  0
   39.4820   26.2400   34.6890 C   0  0  0  0  0  0  0  0  0  0  0  0
   39.5700   26.9980   33.5610 C   0  0  0  0  0  0  0  0  0  0  0  0
   39.0810   26.4950   32.3730 C   0  0  0  0  0  0  0  0  0  0  0  0
   39.1670   27.4230   30.9110 Cl  0  0  0  0  0  0  0  0  0  0  0  0
   38.5220   25.2570   32.3570 C   0  0  0  0  0  0  0  0  0  0  0  0
   39.8840   26.6960   35.5730 H   0  0  0  0  0  0  0  0  0  0  0  0
   40.0130   27.9870   33.5480 H   0  0  0  0  0  0  0  0  0  0  0  0
   37.9170   24.7360   36.9180 C   0  0  0  0  0  0  0  0  0  0  0  0
   38.9140   24.3200   36.0060 C   0  0  0  0  0  0  0  0  0  0  0  0
   39.8360   23.3670   36.4020 C   0  0  0  0  0  0  0  0  0  0  0  0
   39.7280   22.8770   37.6710 N   0  0  0  0  0  0  0  0  0  0  0  0
   38.7700   23.2880   38.5260 C   0  0  0  0  0  0  0  0  0  0  0  0
   37.8490   24.2320   38.1460 N   0  0  0  0  0  0  0  0  0  0  0  0
   37.1830   25.4680   36.6650 H   0  0  0  0  0  0  0  0  0  0  0  0
   40.5770   23.0730   35.6910 H   0  0  0  0  0  0  0  0  0  0  0  0
   38.7960   22.8260   39.4880 H   0  0  0  0  0  0  0  0  0  0  0  0
   37.9750   24.6430   31.1320 C   0  0  0  0  0  0  0  0  0  0  0  0
   38.4250   23.7270   30.4470 O   0  0  0  0  0  0  0  0  0  0  0  0
   36.7750   25.0020   30.4770 O   0  0  0  0  0  0  0  0  0  0  0  0
   35.5620   25.1300   31.1420 C   0  0  0  0  0  0  0  0  0  0  0  0
   35.5820   26.2670   31.9430 F   0  0  0  0  0  0  0  0  0  0  0  0
   34.5930   25.3070   30.1730 F   0  0  0  0  0  0  0  0  0  0  0  0
   35.2290   24.0430   31.9170 F   0  0  0  0  0  0  0  0  0  0  0  0
  2  1  1  0  0  0  0
  2  3  1  0  0  0  0
  3  4  2  0  0  0  0
  3 12  1  0  0  0  0
  4  9  1  0  0  0  0
  5  4  1  0  0  0  0
  6  5  2  0  0  0  0
  7  6  1  0  0  0  0
  8  6  1  0  0  0  0
  8  2  2  0  0  0  0
 10  5  1  0  0  0  0
 11 16  1  0  0  0  0
 12 13  1  0  0  0  0
 12 11  2  0  0  0  0
 13 14  2  0  0  0  0
 14 15  1  0  0  0  0
 15 19  1  0  0  0  0
 16 15  2  0  0  0  0
 17 11  1  0  0  0  0
 18 13  1  0  0  0  0
 20  8  1  0  0  0  0
 21 20  2  0  0  0  0
 22 20  1  0  0  0  0
 22 23  1  0  0  0  0
 23 26  1  0  0  0  0
 23 24  1  0  0  0  0
 25 23  1  0  0  0  0
M  END
>  <minimizedAffinity>
-4.96394873

$$$$

 OpenBabel03272508173D

 26 27  0  0  0  0  0  0  0  0999 V2000
   38.5130   23.4230   33.1300 Cl  0  0  0  0  0  0  0  0  0  0  0  0
   37.2600   24.2730   32.3050 C   0  0  0  0  0  0  0  0  0  0  0  0
   36.2610   23.4570   31.8630 C   0  0  0  0  0  0  0  0  0  0  0  0
   35.1730   24.0460   31.1700 C   0  0  0  0  0  0  0  0  0  0  0  0
   35.1170   25.3870   30.9450 C   0  0  0  0  0  0  0  0  0  0  0  0
   36.1410   26.1900   31.4040 C   0  0  0  0  0  0  0  0  0  0  0  0
   36.1160   27.9030   31.1410 Cl  0  0  0  0  0  0  0  0  0  0  0  0
   37.1810   25.6220   32.0680 C   0  0  0  0  0  0  0  0  0  0  0  0
   34.3410   23.4870   30.7850 H   0  0  0  0  0  0  0  0  0  0  0  0
   34.2970   25.8640   30.4200 H   0  0  0  0  0  0  0  0  0  0  0  0
   36.5570   21.2090   30.8990 C   0  0  0  0  0  0  0  0  0  0  0  0
   36.1020   21.9930   31.9840 C   0  0  0  0  0  0  0  0  0  0  0  0
   35.5410   21.3630   33.0830 C   0  0  0  0  0  0  0  0  0  0  0  0
   35.4590   20.0010   33.0530 N   0  0  0  0  0  0  0  0  0  0  0  0
   35.8990   19.2730   32.0070 C   0  0  0  0  0  0  0  0  0  0  0  0
   36.4570   19.8840   30.9110 N   0  0  0  0  0  0  0  0  0  0  0  0
   36.9960   21.6430   30.0280 H   0  0  0  0  0  0  0  0  0  0  0  0
   35.2070   21.9810   33.8870 H   0  0  0  0  0  0  0  0  0  0  0  0
   35.7760   18.2170   32.1100 H   0  0  0  0  0  0  0  0  0  0  0  0
   38.3160   26.4040   32.5940 C   0  0  0  0  0  0  0  0  0  0  0  0
   39.2500   26.9310   31.9920 O   0  0  0  0  0  0  0  0  0  0  0  0
   38.5640   26.7160   33.9490 O   0  0  0  0  0  0  0  0  0  0  0  0
   37.6050   27.2800   34.7820 C   0  0  0  0  0  0  0  0  0  0  0  0
   36.7500   26.2900   35.2540 F   0  0  0  0  0  0  0  0  0  0  0  0
   38.2780   27.8150   35.8630 F   0  0  0  0  0  0  0  0  0  0  0  0
   36.8560   28.2690   34.1850 F   0  0  0  0  0  0  0  0  0  0  0  0
  2  1  1  0  0  0  0
  3 12  1  0  0  0  0
  3  2  2  0  0  0  0
  4  3  1  0  0  0  0
  5  4  2  0  0  0  0
  5  6  1  0  0  0  0
  6  8  2  0  0  0  0
  7  6  1  0  0  0  0
  8  2  1  0  0  0  0
  8 20  1  0  0  0  0
  9  4  1  0  0  0  0
 10  5  1  0  0  0  0
 11 16  2  0  0  0  0
 11 12  1  0  0  0  0
 12 13  2  0  0  0  0
 13 18  1  0  0  0  0
 14 13  1  0  0  0  0
 15 19  1  0  0  0  0
 15 14  2  0  0  0  0
 16 15  1  0  0  0  0
 17 11  1  0  0  0  0
 20 22  1  0  0  0  0
 21 20  2  0  0  0  0
 22 23  1  0  0  0  0
 23 24  1  0  0  0  0
 23 25  1  0  0  0  0
 26 23  1  0  0  0  0
M  END
>  <minimizedAffinity>
-4.96242619

$$$$

 OpenBabel03272508173D

 26 27  0  0  0  0  0  0  0  0999 V2000
   38.1970   23.7540   33.1380 Cl  0  0  0  0  0  0  0  0  0  0  0  0
   37.8820   25.2810   33.8780 C   0  0  0  0  0  0  0  0  0  0  0  0
   38.3770   25.3740   35.1440 C   0  0  0  0  0  0  0  0  0  0  0  0
   38.1790   26.5860   35.8530 C   0  0  0  0  0  0  0  0  0  0  0  0
   37.5140   27.6340   35.2950 C   0  0  0  0  0  0  0  0  0  0  0  0
   37.0240   27.5130   34.0110 C   0  0  0  0  0  0  0  0  0  0  0  0
   36.1680   28.8180   33.2570 Cl  0  0  0  0  0  0  0  0  0  0  0  0
   37.2160   26.3500   33.3350 C   0  0  0  0  0  0  0  0  0  0  0  0
   38.5310   26.7540   36.8530 H   0  0  0  0  0  0  0  0  0  0  0  0
   37.3490   28.5720   35.8130 H   0  0  0  0  0  0  0  0  0  0  0  0
   38.4810   23.8990   37.1160 C   0  0  0  0  0  0  0  0  0  0  0  0
   39.1220   24.3850   35.9530 C   0  0  0  0  0  0  0  0  0  0  0  0
   40.3880   23.9210   35.6350 C   0  0  0  0  0  0  0  0  0  0  0  0
   40.9520   23.0080   36.4780 N   0  0  0  0  0  0  0  0  0  0  0  0
   40.3240   22.5580   37.5820 C   0  0  0  0  0  0  0  0  0  0  0  0
   39.0700   23.0090   37.9090 N   0  0  0  0  0  0  0  0  0  0  0  0
   37.5070   24.2220   37.4070 H   0  0  0  0  0  0  0  0  0  0  0  0
   40.8460   24.3070   34.7510 H   0  0  0  0  0  0  0  0  0  0  0  0
   40.8760   21.8460   38.1550 H   0  0  0  0  0  0  0  0  0  0  0  0
   36.7280   26.1350   31.9600 C   0  0  0  0  0  0  0  0  0  0  0  0
   35.5910   25.8950   31.5610 O   0  0  0  0  0  0  0  0  0  0  0  0
   37.5050   26.1640   30.7800 O   0  0  0  0  0  0  0  0  0  0  0  0
   38.5280   27.0820   30.5720 C   0  0  0  0  0  0  0  0  0  0  0  0
   39.6280   26.7460   31.3530 F   0  0  0  0  0  0  0  0  0  0  0  0
   38.8970   26.9750   29.2440 F   0  0  0  0  0  0  0  0  0  0  0  0
   38.1740   28.3850   30.8350 F   0  0  0  0  0  0  0  0  0  0  0  0
  1  2  1  0  0  0  0
  2  3  1  0  0  0  0
  3  4  2  0  0  0  0
  3 12  1  0  0  0  0
  4  9  1  0  0  0  0
  5 10  1  0  0  0  0
  5  4  1  0  0  0  0
  6  5  2  0  0  0  0
  7  6  1  0  0  0  0
  8  2  2  0  0  0  0
  8  6  1  0  0  0  0
 11 17  1  0  0  0  0
 11 16  1  0  0  0  0
 12 11  2  0  0  0  0
 13 12  1  0  0  0  0
 13 14  2  0  0  0  0
 14 15  1  0  0  0  0
 15 16  2  0  0  0  0
 15 19  1  0  0  0  0
 18 13  1  0  0  0  0
 20  8  1  0  0  0  0
 21 20  2  0  0  0  0
 22 20  1  0  0  0  0
 23 22  1  0  0  0  0
 23 26  1  0  0  0  0
 23 24  1  0  0  0  0
 25 23  1  0  0  0  0
M  END
>  <minimizedAffinity>
-4.90692425

$$$$

 OpenBabel03272508173D

 26 27  0  0  0  0  0  0  0  0999 V2000
   39.0170   27.1780   35.0420 Cl  0  0  0  0  0  0  0  0  0  0  0  0
   38.3720   25.8490   34.1520 C   0  0  0  0  0  0  0  0  0  0  0  0
   37.4810   26.2300   33.1930 C   0  0  0  0  0  0  0  0  0  0  0  0
   36.8840   25.2210   32.3950 C   0  0  0  0  0  0  0  0  0  0  0  0
   37.1840   23.9050   32.5730 C   0  0  0  0  0  0  0  0  0  0  0  0
   38.0890   23.5480   33.5510 C   0  0  0  0  0  0  0  0  0  0  0  0
   38.5020   21.8850   33.8180 Cl  0  0  0  0  0  0  0  0  0  0  0  0
   38.6590   24.5180   34.3130 C   0  0  0  0  0  0  0  0  0  0  0  0
   36.1730   25.4220   31.6170 H   0  0  0  0  0  0  0  0  0  0  0  0
   36.7430   23.1130   31.9780 H   0  0  0  0  0  0  0  0  0  0  0  0
   37.4620   28.0980   31.5860 C   0  0  0  0  0  0  0  0  0  0  0  0
   37.0020   27.5770   32.8170 C   0  0  0  0  0  0  0  0  0  0  0  0
   36.1450   28.3390   33.5940 C   0  0  0  0  0  0  0  0  0  0  0  0
   35.7890   29.5670   33.1180 N   0  0  0  0  0  0  0  0  0  0  0  0
   36.2390   30.0450   31.9410 C   0  0  0  0  0  0  0  0  0  0  0  0
   37.0890   29.3010   31.1610 N   0  0  0  0  0  0  0  0  0  0  0  0
   38.1230   27.5540   30.9490 H   0  0  0  0  0  0  0  0  0  0  0  0
   35.8150   27.9180   34.5190 H   0  0  0  0  0  0  0  0  0  0  0  0
   35.8850   31.0190   31.6850 H   0  0  0  0  0  0  0  0  0  0  0  0
   39.6370   24.2250   35.3780 C   0  0  0  0  0  0  0  0  0  0  0  0
   40.8490   24.4310   35.4070 O   0  0  0  0  0  0  0  0  0  0  0  0
   39.3620   23.6260   36.6280 O   0  0  0  0  0  0  0  0  0  0  0  0
   38.2940   24.0090   37.4300 C   0  0  0  0  0  0  0  0  0  0  0  0
   37.1190   23.4380   36.9530 F   0  0  0  0  0  0  0  0  0  0  0  0
   38.5380   23.4980   38.6900 F   0  0  0  0  0  0  0  0  0  0  0  0
   38.1230   25.3710   37.5230 F   0  0  0  0  0  0  0  0  0  0  0  0
  2  8  1  0  0  0  0
  2  1  1  0  0  0  0
  3  2  2  0  0  0  0
  4  5  2  0  0  0  0
  4  3  1  0  0  0  0
  5  6  1  0  0  0  0
  6  7  1  0  0  0  0
  6  8  2  0  0  0  0
  8 20  1  0  0  0  0
  9  4  1  0  0  0  0
 10  5  1  0  0  0  0
 11 12  1  0  0  0  0
 12  3  1  0  0  0  0
 12 13  2  0  0  0  0
 13 18  1  0  0  0  0
 14 13  1  0  0  0  0
 15 14  2  0  0  0  0
 16 11  2  0  0  0  0
 16 15  1  0  0  0  0
 17 11  1  0  0  0  0
 19 15  1  0  0  0  0
 20 21  2  0  0  0  0
 20 22  1  0  0  0  0
 22 23  1  0  0  0  0
 23 26  1  0  0  0  0
 23 25  1  0  0  0  0
 24 23  1  0  0  0  0
M  END
>  <minimizedAffinity>
-4.87659311

$$$$

 OpenBabel03272508173D

 26 27  0  0  0  0  0  0  0  0999 V2000
   38.3550   27.0200   33.1640 Cl  0  0  0  0  0  0  0  0  0  0  0  0
   37.2340   25.9350   32.4290 C   0  0  0  0  0  0  0  0  0  0  0  0
   36.2980   26.5680   31.6660 C   0  0  0  0  0  0  0  0  0  0  0  0
   35.3220   25.7770   31.0100 C   0  0  0  0  0  0  0  0  0  0  0  0
   35.3090   24.4210   31.1310 C   0  0  0  0  0  0  0  0  0  0  0  0
   36.2680   23.8060   31.9080 C   0  0  0  0  0  0  0  0  0  0  0  0
   36.2920   22.0820   32.0960 Cl  0  0  0  0  0  0  0  0  0  0  0  0
   37.2020   24.5680   32.5350 C   0  0  0  0  0  0  0  0  0  0  0  0
   34.5460   26.1830   30.3890 H   0  0  0  0  0  0  0  0  0  0  0  0
   34.5750   23.7910   30.6400 H   0  0  0  0  0  0  0  0  0  0  0  0
   36.7910   28.5350   30.2650 C   0  0  0  0  0  0  0  0  0  0  0  0
   36.1110   28.0080   31.3870 C   0  0  0  0  0  0  0  0  0  0  0  0
   35.3200   28.8480   32.1530 C   0  0  0  0  0  0  0  0  0  0  0  0
   35.2430   30.1560   31.7750 N   0  0  0  0  0  0  0  0  0  0  0  0
   35.9000   30.6390   30.7010 C   0  0  0  0  0  0  0  0  0  0  0  0
   36.6880   29.8180   29.9330 N   0  0  0  0  0  0  0  0  0  0  0  0
   37.4130   27.9330   29.6420 H   0  0  0  0  0  0  0  0  0  0  0  0
   34.8180   28.4210   32.9940 H   0  0  0  0  0  0  0  0  0  0  0  0
   35.7550   31.6800   30.5150 H   0  0  0  0  0  0  0  0  0  0  0  0
   38.2630   23.9930   33.3840 C   0  0  0  0  0  0  0  0  0  0  0  0
   39.4170   23.6850   33.0940 O   0  0  0  0  0  0  0  0  0  0  0  0
   38.1580   23.6710   34.7560 O   0  0  0  0  0  0  0  0  0  0  0  0
   38.3820   24.5960   35.7680 C   0  0  0  0  0  0  0  0  0  0  0  0
   37.3100   25.4790   35.8460 F   0  0  0  0  0  0  0  0  0  0  0  0
   38.4380   23.8870   36.9530 F   0  0  0  0  0  0  0  0  0  0  0  0
   39.5450   25.3170   35.6210 F   0  0  0  0  0  0  0  0  0  0  0  0
  2  8  1  0  0  0  0
  2  1  1  0  0  0  0
  3  2  2  0  0  0  0
  4  5  2  0  0  0  0
  4  3  1  0  0  0  0
  5  6  1  0  0  0  0
  6  7  1  0  0  0  0
  6  8  2  0  0  0  0
  8 20  1  0  0  0  0
  9  4  1  0  0  0  0
 10  5  1  0  0  0  0
 11 12  1  0  0  0  0
 12  3  1  0  0  0  0
 12 13  2  0  0  0  0
 13 18  1  0  0  0  0
 14 13  1  0  0  0  0
 15 14  2  0  0  0  0
 16 11  2  0  0  0  0
 16 15  1  0  0  0  0
 17 11  1  0  0  0  0
 19 15  1  0  0  0  0
 20 22  1  0  0  0  0
 21 20  2  0  0  0  0
 22 23  1  0  0  0  0
 23 24  1  0  0  0  0
 23 25  1  0  0  0  0
 26 23  1  0  0  0  0
M  END
>  <minimizedAffinity>
-4.82339764

$$$$

 OpenBabel03272508173D

 26 27  0  0  0  0  0  0  0  0999 V2000
   36.6610   27.6180   34.6890 Cl  0  0  0  0  0  0  0  0  0  0  0  0
   36.4180   28.4270   33.1850 C   0  0  0  0  0  0  0  0  0  0  0  0
   37.1900   27.9290   32.1780 C   0  0  0  0  0  0  0  0  0  0  0  0
   37.0750   28.5160   30.8930 C   0  0  0  0  0  0  0  0  0  0  0  0
   36.2210   29.5500   30.6590 C   0  0  0  0  0  0  0  0  0  0  0  0
   35.4500   30.0340   31.6960 C   0  0  0  0  0  0  0  0  0  0  0  0
   34.3500   31.3500   31.4480 Cl  0  0  0  0  0  0  0  0  0  0  0  0
   35.5630   29.4680   32.9260 C   0  0  0  0  0  0  0  0  0  0  0  0
   37.6400   28.1940   30.0390 H   0  0  0  0  0  0  0  0  0  0  0  0
   36.1120   30.0170   29.6870 H   0  0  0  0  0  0  0  0  0  0  0  0
   39.5240   27.1820   32.4370 C   0  0  0  0  0  0  0  0  0  0  0  0
   38.1770   26.8290   32.1890 C   0  0  0  0  0  0  0  0  0  0  0  0
   37.8570   25.4990   31.9720 C   0  0  0  0  0  0  0  0  0  0  0  0
   38.8760   24.5930   32.0100 N   0  0  0  0  0  0  0  0  0  0  0  0
   40.1540   24.9510   32.2480 C   0  0  0  0  0  0  0  0  0  0  0  0
   40.4860   26.2650   32.4640 N   0  0  0  0  0  0  0  0  0  0  0  0
   39.8260   28.1900   32.6100 H   0  0  0  0  0  0  0  0  0  0  0  0
   36.8320   25.2630   31.7870 H   0  0  0  0  0  0  0  0  0  0  0  0
   40.8540   24.1450   32.2510 H   0  0  0  0  0  0  0  0  0  0  0  0
   34.7770   29.9220   34.0890 C   0  0  0  0  0  0  0  0  0  0  0  0
   33.8880   29.3410   34.7080 O   0  0  0  0  0  0  0  0  0  0  0  0
   34.8980   31.1660   34.7490 O   0  0  0  0  0  0  0  0  0  0  0  0
   35.8560   31.4130   35.7240 C   0  0  0  0  0  0  0  0  0  0  0  0
   36.5850   32.5500   35.3900 F   0  0  0  0  0  0  0  0  0  0  0  0
   35.1740   31.6720   36.8980 F   0  0  0  0  0  0  0  0  0  0  0  0
   36.7280   30.3690   35.9320 F   0  0  0  0  0  0  0  0  0  0  0  0
  2  1  1  0  0  0  0
  3 12  1  0  0  0  0
  3  2  2  0  0  0  0
  4  3  1  0  0  0  0
  5  4  2  0  0  0  0
  5  6  1  0  0  0  0
  6  8  2  0  0  0  0
  7  6  1  0  0  0  0
  8  2  1  0  0  0  0
  8 20  1  0  0  0  0
  9  4  1  0  0  0  0
 10  5  1  0  0  0  0
 11 16  1  0  0  0  0
 11 17  1  0  0  0  0
 12 11  2  0  0  0  0
 13 14  2  0  0  0  0
 13 12  1  0  0  0  0
 14 15  1  0  0  0  0
 15 19  1  0  0  0  0
 15 16  2  0  0  0  0
 18 13  1  0  0  0  0
 20 21  2  0  0  0  0
 20 22  1  0  0  0  0
 22 23  1  0  0  0  0
 23 26  1  0  0  0  0
 23 25  1  0  0  0  0
 24 23  1  0  0  0  0
M  END
>  <minimizedAffinity>
-4.74536514

$$$$
