
 OpenBabel03262521073D

 37 38  0  0  1  0  0  0  0  0999 V2000
   39.1310   24.4490   33.0060 C   0  0  2  0  0  0  0  0  0  0  0  0
   38.5090   24.4620   31.6700 C   0  0  0  0  0  0  0  0  0  0  0  0
   37.5980   23.2780   31.4340 C   0  0  0  0  0  0  0  0  0  0  0  0
   38.2670   21.9530   31.6650 C   0  0  0  0  0  0  0  0  0  0  0  0
   39.2460   21.9600   32.8080 C   0  0  0  0  0  0  0  0  0  0  0  0
   39.0090   23.1500   33.7350 C   0  0  2  0  0  0  0  0  0  0  0  0
   40.2420   24.6440   32.8940 H   0  0  0  0  0  0  0  0  0  0  0  0
   37.8980   25.3020   31.3550 H   0  0  0  0  0  0  0  0  0  0  0  0
   39.2990   24.3780   30.8490 H   0  0  0  0  0  0  0  0  0  0  0  0
   36.6110   23.3850   31.9300 H   0  0  0  0  0  0  0  0  0  0  0  0
   37.3720   23.3060   30.3350 H   0  0  0  0  0  0  0  0  0  0  0  0
   37.4390   21.2120   31.8690 H   0  0  0  0  0  0  0  0  0  0  0  0
   38.7920   21.5640   30.7670 H   0  0  0  0  0  0  0  0  0  0  0  0
   39.1630   21.0090   33.3160 H   0  0  0  0  0  0  0  0  0  0  0  0
   40.2910   22.0760   32.4510 H   0  0  0  0  0  0  0  0  0  0  0  0
   39.8760   23.1130   34.4560 H   0  0  0  0  0  0  0  0  0  0  0  0
   38.6450   25.5130   33.8980 C   0  0  0  0  0  0  0  0  0  0  0  0
   39.6260   26.0830   34.7390 C   0  0  0  0  0  0  0  0  0  0  0  0
   39.1990   27.1140   35.5710 C   0  0  0  0  0  0  0  0  0  0  0  0
   37.8930   27.5130   35.5390 N   0  0  0  0  0  0  0  0  0  0  0  0
   36.9860   26.9320   34.7160 C   0  0  0  0  0  0  0  0  0  0  0  0
   37.3850   25.9640   33.9310 N   0  0  0  0  0  0  0  0  0  0  0  0
   40.6670   25.9810   34.9780 H   0  0  0  0  0  0  0  0  0  0  0  0
   39.7050   27.7150   36.2890 H   0  0  0  0  0  0  0  0  0  0  0  0
   35.9570   27.2010   34.6500 H   0  0  0  0  0  0  0  0  0  0  0  0
   37.8640   22.8670   34.4530 N   0  0  0  0  0  0  0  0  0  0  0  0
   36.9420   23.1090   34.0980 H   0  0  0  0  0  0  0  0  0  0  0  0
   37.9900   22.5850   36.1090 S   0  0  0  0  0  0  0  0  0  0  0  0
   36.7700   21.7530   36.4860 O   0  0  0  0  0  0  0  0  0  0  0  0
   36.2270   21.9500   37.2740 H   0  0  0  0  0  0  0  0  0  0  0  0
   39.2170   21.8080   36.4820 O   0  0  0  0  0  0  0  0  0  0  0  0
   39.3870   20.8630   36.2700 H   0  0  0  0  0  0  0  0  0  0  0  0
   37.9100   23.9680   37.0390 O   0  0  0  0  0  0  0  0  0  0  0  0
   38.1330   23.7340   38.3830 C   0  0  0  0  0  0  0  0  0  0  0  0
   39.4550   23.4540   38.5970 F   0  0  0  0  0  0  0  0  0  0  0  0
   37.8570   24.9040   39.0550 F   0  0  0  0  0  0  0  0  0  0  0  0
   37.2930   22.7700   38.9210 F   0  0  0  0  0  0  0  0  0  0  0  0
  1  7  1  6  0  0  0
  1  6  1  0  0  0  0
  1 17  1  0  0  0  0
  2  1  1  0  0  0  0
  3  4  1  0  0  0  0
  3  2  1  0  0  0  0
  3 10  1  0  0  0  0
  4 12  1  0  0  0  0
  4  5  1  0  0  0  0
  5 14  1  0  0  0  0
  5  6  1  0  0  0  0
  6 26  1  0  0  0  0
  6 16  1  1  0  0  0
  8  2  1  0  0  0  0
  9  2  1  0  0  0  0
 11  3  1  0  0  0  0
 13  4  1  0  0  0  0
 15  5  1  0  0  0  0
 17 22  2  0  0  0  0
 17 18  1  0  0  0  0
 18 23  1  0  0  0  0
 18 19  2  0  0  0  0
 19 24  1  0  0  0  0
 20 19  1  0  0  0  0
 21 20  2  0  0  0  0
 22 21  1  0  0  0  0
 25 21  1  0  0  0  0
 26 28  1  0  0  0  0
 27 26  1  0  0  0  0
 28 31  1  0  0  0  0
 28 29  1  0  0  0  0
 28 33  1  0  0  0  0
 29 30  1  0  0  0  0
 32 31  1  0  0  0  0
 33 34  1  0  0  0  0
 34 35  1  0  0  0  0
 34 37  1  0  0  0  0
 34 36  1  0  0  0  0
M  END
>  <minimizedAffinity>
-5.3838973

$$$$

 OpenBabel03262521073D

 37 38  0  0  1  0  0  0  0  0999 V2000
   40.9840   25.5440   34.7110 C   0  0  2  0  0  0  0  0  0  0  0  0
   41.5970   25.4360   33.3740 C   0  0  0  0  0  0  0  0  0  0  0  0
   41.9090   24.0070   32.9860 C   0  0  0  0  0  0  0  0  0  0  0  0
   42.7620   23.2870   33.9910 C   0  0  0  0  0  0  0  0  0  0  0  0
   42.4520   23.6500   35.4180 C   0  0  0  0  0  0  0  0  0  0  0  0
   41.0790   24.3050   35.5400 C   0  0  2  0  0  0  0  0  0  0  0  0
   41.5210   26.3550   35.2930 H   0  0  0  0  0  0  0  0  0  0  0  0
   41.0800   25.8150   32.4990 H   0  0  0  0  0  0  0  0  0  0  0  0
   42.6090   25.9640   33.3440 H   0  0  0  0  0  0  0  0  0  0  0  0
   41.0130   23.4410   32.6570 H   0  0  0  0  0  0  0  0  0  0  0  0
   42.5480   24.0950   32.0670 H   0  0  0  0  0  0  0  0  0  0  0  0
   42.5830   22.1840   33.8250 H   0  0  0  0  0  0  0  0  0  0  0  0
   43.8510   23.4330   33.8280 H   0  0  0  0  0  0  0  0  0  0  0  0
   42.5430   22.7510   36.0130 H   0  0  0  0  0  0  0  0  0  0  0  0
   43.1670   24.4030   35.8140 H   0  0  0  0  0  0  0  0  0  0  0  0
   41.0300   24.6430   36.6150 H   0  0  0  0  0  0  0  0  0  0  0  0
   39.5730   25.9620   34.6850 C   0  0  0  0  0  0  0  0  0  0  0  0
   39.2450   27.0110   35.5710 C   0  0  0  0  0  0  0  0  0  0  0  0
   37.9230   27.4460   35.5440 C   0  0  0  0  0  0  0  0  0  0  0  0
   37.0330   26.8580   34.6920 N   0  0  0  0  0  0  0  0  0  0  0  0
   37.3960   25.8510   33.8610 C   0  0  0  0  0  0  0  0  0  0  0  0
   38.6380   25.4400   33.8820 N   0  0  0  0  0  0  0  0  0  0  0  0
   39.6990   27.6300   36.3220 H   0  0  0  0  0  0  0  0  0  0  0  0
   37.4030   28.2020   36.0860 H   0  0  0  0  0  0  0  0  0  0  0  0
   36.7450   25.3550   33.1770 H   0  0  0  0  0  0  0  0  0  0  0  0
   40.1480   23.2970   35.3830 N   0  0  0  0  0  0  0  0  0  0  0  0
   39.5450   23.2540   34.5650 H   0  0  0  0  0  0  0  0  0  0  0  0
   39.6490   22.4310   36.7390 S   0  0  0  0  0  0  0  0  0  0  0  0
   38.3040   21.8170   36.3710 O   0  0  0  0  0  0  0  0  0  0  0  0
   37.5360   21.8410   36.9760 H   0  0  0  0  0  0  0  0  0  0  0  0
   40.5850   21.3170   37.1030 O   0  0  0  0  0  0  0  0  0  0  0  0
   40.7310   20.4940   36.5840 H   0  0  0  0  0  0  0  0  0  0  0  0
   39.3730   23.3780   38.0840 O   0  0  0  0  0  0  0  0  0  0  0  0
   38.0840   23.8760   38.1430 C   0  0  0  0  0  0  0  0  0  0  0  0
   37.2410   22.9330   38.6650 F   0  0  0  0  0  0  0  0  0  0  0  0
   38.0940   24.9370   39.0220 F   0  0  0  0  0  0  0  0  0  0  0  0
   37.6320   24.3800   36.9320 F   0  0  0  0  0  0  0  0  0  0  0  0
  1  7  1  1  0  0  0
  1  6  1  0  0  0  0
  2  1  1  0  0  0  0
  3  2  1  0  0  0  0
  3  4  1  0  0  0  0
  4  5  1  0  0  0  0
  5  6  1  0  0  0  0
  5 15  1  0  0  0  0
  5 14  1  0  0  0  0
  6 16  1  1  0  0  0
  8  2  1  0  0  0  0
  9  2  1  0  0  0  0
 10  3  1  0  0  0  0
 11  3  1  0  0  0  0
 12  4  1  0  0  0  0
 13  4  1  0  0  0  0
 17  1  1  0  0  0  0
 17 18  1  0  0  0  0
 18 23  1  0  0  0  0
 19 18  2  0  0  0  0
 19 24  1  0  0  0  0
 20 19  1  0  0  0  0
 21 22  1  0  0  0  0
 21 20  2  0  0  0  0
 22 17  2  0  0  0  0
 25 21  1  0  0  0  0
 26  6  1  0  0  0  0
 26 28  1  0  0  0  0
 27 26  1  0  0  0  0
 28 31  1  0  0  0  0
 28 33  1  0  0  0  0
 29 28  1  0  0  0  0
 29 30  1  0  0  0  0
 32 31  1  0  0  0  0
 33 34  1  0  0  0  0
 34 35  1  0  0  0  0
 34 36  1  0  0  0  0
 37 34  1  0  0  0  0
M  END
>  <minimizedAffinity>
-5.26067877

$$$$

 OpenBabel03262521073D

 37 38  0  0  1  0  0  0  0  0999 V2000
   38.4580   26.0060   34.2350 C   0  0  2  0  0  0  0  0  0  0  0  0
   37.8850   27.0750   35.0730 C   0  0  0  0  0  0  0  0  0  0  0  0
   36.6370   27.6850   34.4730 C   0  0  0  0  0  0  0  0  0  0  0  0
   36.8330   28.1910   33.0720 C   0  0  0  0  0  0  0  0  0  0  0  0
   37.7510   27.3360   32.2420 C   0  0  0  0  0  0  0  0  0  0  0  0
   37.9100   25.9430   32.8470 C   0  0  2  0  0  0  0  0  0  0  0  0
   39.5720   26.1830   34.1280 H   0  0  0  0  0  0  0  0  0  0  0  0
   37.5850   26.8730   36.0960 H   0  0  0  0  0  0  0  0  0  0  0  0
   38.6100   27.9520   35.1690 H   0  0  0  0  0  0  0  0  0  0  0  0
   35.7360   27.0520   34.6090 H   0  0  0  0  0  0  0  0  0  0  0  0
   36.4420   28.6010   35.0930 H   0  0  0  0  0  0  0  0  0  0  0  0
   35.8060   28.2270   32.6030 H   0  0  0  0  0  0  0  0  0  0  0  0
   37.2070   29.2370   33.0320 H   0  0  0  0  0  0  0  0  0  0  0  0
   37.3570   27.3140   31.2350 H   0  0  0  0  0  0  0  0  0  0  0  0
   38.7790   27.7540   32.2050 H   0  0  0  0  0  0  0  0  0  0  0  0
   38.7110   25.4600   32.2160 H   0  0  0  0  0  0  0  0  0  0  0  0
   38.3400   24.6620   34.8260 C   0  0  0  0  0  0  0  0  0  0  0  0
   37.9250   24.6380   36.1760 C   0  0  0  0  0  0  0  0  0  0  0  0
   37.7760   23.3790   36.7500 C   0  0  0  0  0  0  0  0  0  0  0  0
   38.0310   22.2620   36.0070 N   0  0  0  0  0  0  0  0  0  0  0  0
   38.4310   22.3370   34.7150 C   0  0  0  0  0  0  0  0  0  0  0  0
   38.5710   23.5180   34.1710 N   0  0  0  0  0  0  0  0  0  0  0  0
   37.6730   25.3110   36.9740 H   0  0  0  0  0  0  0  0  0  0  0  0
   37.4810   23.0620   37.7230 H   0  0  0  0  0  0  0  0  0  0  0  0
   38.6450   21.5000   34.0890 H   0  0  0  0  0  0  0  0  0  0  0  0
   36.7300   25.2700   32.5990 N   0  0  0  0  0  0  0  0  0  0  0  0
   36.2200   24.8030   33.3440 H   0  0  0  0  0  0  0  0  0  0  0  0
   36.3840   24.7850   31.0230 S   0  0  0  0  0  0  0  0  0  0  0  0
   35.4790   25.8650   30.4420 O   0  0  0  0  0  0  0  0  0  0  0  0
   34.6710   25.6520   29.9350 H   0  0  0  0  0  0  0  0  0  0  0  0
   37.6050   24.6850   30.1580 O   0  0  0  0  0  0  0  0  0  0  0  0
   38.1530   25.4390   29.8450 H   0  0  0  0  0  0  0  0  0  0  0  0
   35.5230   23.3600   30.9280 O   0  0  0  0  0  0  0  0  0  0  0  0
   36.1760   22.2900   31.5100 C   0  0  0  0  0  0  0  0  0  0  0  0
   35.7590   22.1350   32.8040 F   0  0  0  0  0  0  0  0  0  0  0  0
   35.7950   21.1550   30.8270 F   0  0  0  0  0  0  0  0  0  0  0  0
   37.5570   22.3620   31.4020 F   0  0  0  0  0  0  0  0  0  0  0  0
  1  7  1  6  0  0  0
  1 17  1  0  0  0  0
  1  2  1  0  0  0  0
  2  9  1  0  0  0  0
  2  8  1  0  0  0  0
  3 10  1  0  0  0  0
  3  2  1  0  0  0  0
  3 11  1  0  0  0  0
  4  3  1  0  0  0  0
  5  6  1  0  0  0  0
  5  4  1  0  0  0  0
  6 16  1  6  0  0  0
  6  1  1  0  0  0  0
 12  4  1  0  0  0  0
 13  4  1  0  0  0  0
 14  5  1  0  0  0  0
 15  5  1  0  0  0  0
 17 18  1  0  0  0  0
 18 19  2  0  0  0  0
 18 23  1  0  0  0  0
 19 24  1  0  0  0  0
 20 19  1  0  0  0  0
 21 20  2  0  0  0  0
 22 21  1  0  0  0  0
 22 17  2  0  0  0  0
 25 21  1  0  0  0  0
 26  6  1  0  0  0  0
 26 27  1  0  0  0  0
 28 26  1  0  0  0  0
 29 28  1  0  0  0  0
 30 29  1  0  0  0  0
 31 28  1  0  0  0  0
 32 31  1  0  0  0  0
 33 28  1  0  0  0  0
 33 34  1  0  0  0  0
 34 35  1  0  0  0  0
 36 34  1  0  0  0  0
 37 34  1  0  0  0  0
M  END
>  <minimizedAffinity>
-5.21541691

$$$$

 OpenBabel03262521073D

 37 38  0  0  1  0  0  0  0  0999 V2000
   37.6860   25.6770   33.4870 C   0  0  2  0  0  0  0  0  0  0  0  0
   38.6460   26.7190   33.0780 C   0  0  0  0  0  0  0  0  0  0  0  0
   39.8160   26.8440   34.0290 C   0  0  0  0  0  0  0  0  0  0  0  0
   39.4060   27.0680   35.4570 C   0  0  0  0  0  0  0  0  0  0  0  0
   38.1640   26.3180   35.8540 C   0  0  0  0  0  0  0  0  0  0  0  0
   37.8680   25.1780   34.8830 C   0  0  2  0  0  0  0  0  0  0  0  0
   36.6380   26.1070   33.4390 H   0  0  0  0  0  0  0  0  0  0  0  0
   39.1290   26.6730   32.1080 H   0  0  0  0  0  0  0  0  0  0  0  0
   38.1590   27.7520   33.0930 H   0  0  0  0  0  0  0  0  0  0  0  0
   40.5750   26.0450   33.8910 H   0  0  0  0  0  0  0  0  0  0  0  0
   40.3350   27.7910   33.7200 H   0  0  0  0  0  0  0  0  0  0  0  0
   40.2790   26.7360   36.0920 H   0  0  0  0  0  0  0  0  0  0  0  0
   39.2540   28.1400   35.7070 H   0  0  0  0  0  0  0  0  0  0  0  0
   38.2980   25.9780   36.8730 H   0  0  0  0  0  0  0  0  0  0  0  0
   37.2630   26.9680   35.8190 H   0  0  0  0  0  0  0  0  0  0  0  0
   36.8600   24.7920   35.2110 H   0  0  0  0  0  0  0  0  0  0  0  0
   37.6610   24.5100   32.5910 C   0  0  0  0  0  0  0  0  0  0  0  0
   36.4000   24.2200   32.0230 C   0  0  0  0  0  0  0  0  0  0  0  0
   36.3550   23.1390   31.1470 C   0  0  0  0  0  0  0  0  0  0  0  0
   37.4930   22.4310   30.8870 N   0  0  0  0  0  0  0  0  0  0  0  0
   38.6800   22.7460   31.4600 C   0  0  0  0  0  0  0  0  0  0  0  0
   38.7270   23.7620   32.2820 N   0  0  0  0  0  0  0  0  0  0  0  0
   35.3860   24.5710   32.0430 H   0  0  0  0  0  0  0  0  0  0  0  0
   35.5640   22.7020   30.5840 H   0  0  0  0  0  0  0  0  0  0  0  0
   39.5980   22.2280   31.2940 H   0  0  0  0  0  0  0  0  0  0  0  0
   38.7940   24.1880   35.1470 N   0  0  0  0  0  0  0  0  0  0  0  0
   39.6900   24.1580   34.6670 H   0  0  0  0  0  0  0  0  0  0  0  0
   38.2730   22.7580   35.8700 S   0  0  0  0  0  0  0  0  0  0  0  0
   37.4030   22.0570   34.8340 O   0  0  0  0  0  0  0  0  0  0  0  0
   36.5390   21.6590   35.0600 H   0  0  0  0  0  0  0  0  0  0  0  0
   39.4010   21.8370   36.2300 O   0  0  0  0  0  0  0  0  0  0  0  0
   39.9740   21.3520   35.5950 H   0  0  0  0  0  0  0  0  0  0  0  0
   37.3040   22.9890   37.2070 O   0  0  0  0  0  0  0  0  0  0  0  0
   37.9970   23.4620   38.3070 C   0  0  0  0  0  0  0  0  0  0  0  0
   37.4720   24.6580   38.7130 F   0  0  0  0  0  0  0  0  0  0  0  0
   37.7970   22.5660   39.3340 F   0  0  0  0  0  0  0  0  0  0  0  0
   39.3680   23.5240   38.1080 F   0  0  0  0  0  0  0  0  0  0  0  0
  1  7  1  6  0  0  0
  1  6  1  0  0  0  0
  2  9  1  0  0  0  0
  2  1  1  0  0  0  0
  2  3  1  0  0  0  0
  3  4  1  0  0  0  0
  4 13  1  0  0  0  0
  4  5  1  0  0  0  0
  4 12  1  0  0  0  0
  5 14  1  0  0  0  0
  6 26  1  0  0  0  0
  6 16  1  1  0  0  0
  6  5  1  0  0  0  0
  8  2  1  0  0  0  0
 10  3  1  0  0  0  0
 11  3  1  0  0  0  0
 15  5  1  0  0  0  0
 17  1  1  0  0  0  0
 18 23  1  0  0  0  0
 18 17  2  0  0  0  0
 19 18  1  0  0  0  0
 20 19  2  0  0  0  0
 20 21  1  0  0  0  0
 21 22  2  0  0  0  0
 22 17  1  0  0  0  0
 24 19  1  0  0  0  0
 25 21  1  0  0  0  0
 26 28  1  0  0  0  0
 27 26  1  0  0  0  0
 28 31  1  0  0  0  0
 28 33  1  0  0  0  0
 29 30  1  0  0  0  0
 29 28  1  0  0  0  0
 32 31  1  0  0  0  0
 33 34  1  0  0  0  0
 34 35  1  0  0  0  0
 34 36  1  0  0  0  0
 37 34  1  0  0  0  0
M  END
>  <minimizedAffinity>
-5.17100334

$$$$

 OpenBabel03262521073D

 37 38  0  0  1  0  0  0  0  0999 V2000
   38.9610   24.7400   32.7820 C   0  0  2  0  0  0  0  0  0  0  0  0
   40.1950   24.5790   31.9900 C   0  0  0  0  0  0  0  0  0  0  0  0
   41.2420   23.7490   32.7000 C   0  0  0  0  0  0  0  0  0  0  0  0
   41.5850   24.2610   34.0700 C   0  0  0  0  0  0  0  0  0  0  0  0
   40.4060   24.8210   34.8180 C   0  0  0  0  0  0  0  0  0  0  0  0
   39.0870   24.3440   34.2160 C   0  0  2  0  0  0  0  0  0  0  0  0
   38.6670   25.8350   32.7810 H   0  0  0  0  0  0  0  0  0  0  0  0
   40.1620   24.1320   31.0030 H   0  0  0  0  0  0  0  0  0  0  0  0
   40.7040   25.5870   31.8170 H   0  0  0  0  0  0  0  0  0  0  0  0
   41.0340   22.6600   32.6560 H   0  0  0  0  0  0  0  0  0  0  0  0
   42.1760   23.8890   32.0910 H   0  0  0  0  0  0  0  0  0  0  0  0
   42.0210   23.3840   34.6340 H   0  0  0  0  0  0  0  0  0  0  0  0
   42.3860   25.0310   34.0630 H   0  0  0  0  0  0  0  0  0  0  0  0
   40.5180   24.5460   35.8590 H   0  0  0  0  0  0  0  0  0  0  0  0
   40.3690   25.9300   34.7530 H   0  0  0  0  0  0  0  0  0  0  0  0
   38.3020   24.9320   34.7740 H   0  0  0  0  0  0  0  0  0  0  0  0
   37.8000   24.0320   32.2190 C   0  0  0  0  0  0  0  0  0  0  0  0
   36.6590   24.8370   31.9990 C   0  0  0  0  0  0  0  0  0  0  0  0
   35.5560   24.1980   31.4390 C   0  0  0  0  0  0  0  0  0  0  0  0
   35.6240   22.8680   31.1400 N   0  0  0  0  0  0  0  0  0  0  0  0
   36.7410   22.1370   31.3730 C   0  0  0  0  0  0  0  0  0  0  0  0
   37.7810   22.7330   31.8970 N   0  0  0  0  0  0  0  0  0  0  0  0
   36.3250   25.8480   32.1340 H   0  0  0  0  0  0  0  0  0  0  0  0
   34.5860   24.5440   31.1670 H   0  0  0  0  0  0  0  0  0  0  0  0
   36.8500   21.0970   31.1600 H   0  0  0  0  0  0  0  0  0  0  0  0
   38.9460   23.0200   34.5820 N   0  0  0  0  0  0  0  0  0  0  0  0
   38.7840   22.2930   33.8900 H   0  0  0  0  0  0  0  0  0  0  0  0
   38.5390   22.6530   36.1750 S   0  0  0  0  0  0  0  0  0  0  0  0
   37.2880   21.7870   36.0990 O   0  0  0  0  0  0  0  0  0  0  0  0
   36.5130   21.9360   36.6780 H   0  0  0  0  0  0  0  0  0  0  0  0
   39.6020   21.8730   36.8890 O   0  0  0  0  0  0  0  0  0  0  0  0
   39.8590   20.9430   36.7010 H   0  0  0  0  0  0  0  0  0  0  0  0
   38.1250   23.9840   37.0910 O   0  0  0  0  0  0  0  0  0  0  0  0
   38.1560   23.7390   38.4520 C   0  0  0  0  0  0  0  0  0  0  0  0
   39.4450   23.5350   38.8620 F   0  0  0  0  0  0  0  0  0  0  0  0
   37.7080   24.8790   39.0840 F   0  0  0  0  0  0  0  0  0  0  0  0
   37.3040   22.7180   38.8470 F   0  0  0  0  0  0  0  0  0  0  0  0
  1  7  1  6  0  0  0
  1  6  1  0  0  0  0
  2  3  1  0  0  0  0
  2  1  1  0  0  0  0
  3  4  1  0  0  0  0
  4 12  1  0  0  0  0
  4  5  1  0  0  0  0
  5 14  1  0  0  0  0
  6 26  1  0  0  0  0
  6 16  1  1  0  0  0
  6  5  1  0  0  0  0
  8  2  1  0  0  0  0
  9  2  1  0  0  0  0
 10  3  1  0  0  0  0
 11  3  1  0  0  0  0
 13  4  1  0  0  0  0
 15  5  1  0  0  0  0
 17  1  1  0  0  0  0
 18 23  1  0  0  0  0
 18 17  1  0  0  0  0
 19 18  2  0  0  0  0
 20 21  2  0  0  0  0
 20 19  1  0  0  0  0
 21 22  1  0  0  0  0
 22 17  2  0  0  0  0
 24 19  1  0  0  0  0
 25 21  1  0  0  0  0
 26 28  1  0  0  0  0
 27 26  1  0  0  0  0
 28 31  1  0  0  0  0
 28 33  1  0  0  0  0
 29 28  1  0  0  0  0
 29 30  1  0  0  0  0
 32 31  1  0  0  0  0
 33 34  1  0  0  0  0
 34 37  1  0  0  0  0
 34 35  1  0  0  0  0
 34 36  1  0  0  0  0
M  END
>  <minimizedAffinity>
-5.16210699

$$$$

 OpenBabel03262521073D

 37 38  0  0  1  0  0  0  0  0999 V2000
   37.0970   23.4210   32.3750 C   0  0  2  0  0  0  0  0  0  0  0  0
   38.0140   23.7380   31.2650 C   0  0  0  0  0  0  0  0  0  0  0  0
   39.4370   23.9660   31.7270 C   0  0  0  0  0  0  0  0  0  0  0  0
   39.5590   25.0130   32.7960 C   0  0  0  0  0  0  0  0  0  0  0  0
   38.4190   25.0100   33.7790 C   0  0  0  0  0  0  0  0  0  0  0  0
   37.6510   23.6910   33.7350 C   0  0  2  0  0  0  0  0  0  0  0  0
   36.1700   24.0660   32.2780 H   0  0  0  0  0  0  0  0  0  0  0  0
   38.1380   23.0470   30.4380 H   0  0  0  0  0  0  0  0  0  0  0  0
   37.7210   24.7200   30.7600 H   0  0  0  0  0  0  0  0  0  0  0  0
   39.9780   23.0210   31.9460 H   0  0  0  0  0  0  0  0  0  0  0  0
   39.9610   24.3960   30.8320 H   0  0  0  0  0  0  0  0  0  0  0  0
   40.5320   24.8060   33.3320 H   0  0  0  0  0  0  0  0  0  0  0  0
   39.6620   26.0430   32.3930 H   0  0  0  0  0  0  0  0  0  0  0  0
   38.8280   25.2270   34.7560 H   0  0  0  0  0  0  0  0  0  0  0  0
   37.6670   25.7900   33.5350 H   0  0  0  0  0  0  0  0  0  0  0  0
   36.7620   23.8690   34.4060 H   0  0  0  0  0  0  0  0  0  0  0  0
   36.6020   22.0350   32.3580 C   0  0  0  0  0  0  0  0  0  0  0  0
   36.8390   21.3310   31.1560 C   0  0  0  0  0  0  0  0  0  0  0  0
   36.4080   20.0080   31.1240 C   0  0  0  0  0  0  0  0  0  0  0  0
   35.7950   19.4690   32.2190 N   0  0  0  0  0  0  0  0  0  0  0  0
   35.5870   20.1870   33.3490 C   0  0  0  0  0  0  0  0  0  0  0  0
   35.9920   21.4300   33.3840 N   0  0  0  0  0  0  0  0  0  0  0  0
   37.2640   21.4820   30.1820 H   0  0  0  0  0  0  0  0  0  0  0  0
   36.4530   19.2550   30.3720 H   0  0  0  0  0  0  0  0  0  0  0  0
   35.1140   19.8180   34.2310 H   0  0  0  0  0  0  0  0  0  0  0  0
   38.4520   22.7510   34.3540 N   0  0  0  0  0  0  0  0  0  0  0  0
   38.8960   22.0040   33.8270 H   0  0  0  0  0  0  0  0  0  0  0  0
   38.3020   22.5220   36.0170 S   0  0  0  0  0  0  0  0  0  0  0  0
   37.0570   21.6650   36.2110 O   0  0  0  0  0  0  0  0  0  0  0  0
   36.3840   21.8680   36.8890 H   0  0  0  0  0  0  0  0  0  0  0  0
   39.4680   21.7920   36.6160 O   0  0  0  0  0  0  0  0  0  0  0  0
   39.6940   20.8460   36.4670 H   0  0  0  0  0  0  0  0  0  0  0  0
   38.0340   23.9280   36.8730 O   0  0  0  0  0  0  0  0  0  0  0  0
   38.2420   23.7850   38.2320 C   0  0  0  0  0  0  0  0  0  0  0  0
   37.9640   24.9600   38.8750 F   0  0  0  0  0  0  0  0  0  0  0  0
   37.3350   22.8530   38.6900 F   0  0  0  0  0  0  0  0  0  0  0  0
   39.4990   23.2910   38.5490 F   0  0  0  0  0  0  0  0  0  0  0  0
  1  7  1  6  0  0  0
  1  6  1  0  0  0  0
  2  3  1  0  0  0  0
  2  1  1  0  0  0  0
  3 10  1  0  0  0  0
  3  4  1  0  0  0  0
  4 12  1  0  0  0  0
  4  5  1  0  0  0  0
  5 14  1  0  0  0  0
  6  5  1  0  0  0  0
  6 26  1  0  0  0  0
  6 16  1  1  0  0  0
  8  2  1  0  0  0  0
  9  2  1  0  0  0  0
 11  3  1  0  0  0  0
 13  4  1  0  0  0  0
 15  5  1  0  0  0  0
 17  1  1  0  0  0  0
 17 22  1  0  0  0  0
 18 17  2  0  0  0  0
 19 18  1  0  0  0  0
 19 20  2  0  0  0  0
 20 21  1  0  0  0  0
 21 22  2  0  0  0  0
 21 25  1  0  0  0  0
 23 18  1  0  0  0  0
 24 19  1  0  0  0  0
 26 28  1  0  0  0  0
 27 26  1  0  0  0  0
 28 29  1  0  0  0  0
 28 31  1  0  0  0  0
 28 33  1  0  0  0  0
 29 30  1  0  0  0  0
 32 31  1  0  0  0  0
 33 34  1  0  0  0  0
 34 37  1  0  0  0  0
 34 36  1  0  0  0  0
 34 35  1  0  0  0  0
M  END
>  <minimizedAffinity>
-5.15458679

$$$$

 OpenBabel03262521073D

 37 38  0  0  1  0  0  0  0  0999 V2000
   38.8600   26.4180   34.7730 C   0  0  2  0  0  0  0  0  0  0  0  0
   38.0040   27.4590   35.3710 C   0  0  0  0  0  0  0  0  0  0  0  0
   36.7250   27.6840   34.5960 C   0  0  0  0  0  0  0  0  0  0  0  0
   36.9510   27.9900   33.1430 C   0  0  0  0  0  0  0  0  0  0  0  0
   38.0990   27.2300   32.5360 C   0  0  0  0  0  0  0  0  0  0  0  0
   38.4750   26.0190   33.3860 C   0  0  2  0  0  0  0  0  0  0  0  0
   39.9210   26.8110   34.7060 H   0  0  0  0  0  0  0  0  0  0  0  0
   37.6520   27.3630   36.3930 H   0  0  0  0  0  0  0  0  0  0  0  0
   38.5250   28.4750   35.3560 H   0  0  0  0  0  0  0  0  0  0  0  0
   35.9600   26.9010   34.7850 H   0  0  0  0  0  0  0  0  0  0  0  0
   36.2890   28.6230   35.0310 H   0  0  0  0  0  0  0  0  0  0  0  0
   35.9890   27.7290   32.6110 H   0  0  0  0  0  0  0  0  0  0  0  0
   37.1100   29.0710   32.9420 H   0  0  0  0  0  0  0  0  0  0  0  0
   37.8190   26.9640   31.5260 H   0  0  0  0  0  0  0  0  0  0  0  0
   39.0210   27.8480   32.4900 H   0  0  0  0  0  0  0  0  0  0  0  0
   39.4150   25.6250   32.9020 H   0  0  0  0  0  0  0  0  0  0  0  0
   38.9570   25.1930   35.5830 C   0  0  0  0  0  0  0  0  0  0  0  0
   38.1030   25.1510   36.7080 C   0  0  0  0  0  0  0  0  0  0  0  0
   38.1520   23.9900   37.4740 C   0  0  0  0  0  0  0  0  0  0  0  0
   38.9970   22.9790   37.1170 N   0  0  0  0  0  0  0  0  0  0  0  0
   39.8010   23.0670   36.0290 C   0  0  0  0  0  0  0  0  0  0  0  0
   39.7560   24.1560   35.3050 N   0  0  0  0  0  0  0  0  0  0  0  0
   37.3790   25.7590   37.2170 H   0  0  0  0  0  0  0  0  0  0  0  0
   37.6340   23.6860   38.3530 H   0  0  0  0  0  0  0  0  0  0  0  0
   40.4790   22.3110   35.7040 H   0  0  0  0  0  0  0  0  0  0  0  0
   37.4840   25.0780   33.1880 N   0  0  0  0  0  0  0  0  0  0  0  0
   36.6800   25.0170   33.8060 H   0  0  0  0  0  0  0  0  0  0  0  0
   37.8270   23.7190   32.2520 S   0  0  0  0  0  0  0  0  0  0  0  0
   37.5710   24.1300   30.8080 O   0  0  0  0  0  0  0  0  0  0  0  0
   37.0740   23.5640   30.1840 H   0  0  0  0  0  0  0  0  0  0  0  0
   39.2550   23.2740   32.3630 O   0  0  0  0  0  0  0  0  0  0  0  0
   40.0380   23.7570   32.0160 H   0  0  0  0  0  0  0  0  0  0  0  0
   36.8210   22.4220   32.5490 O   0  0  0  0  0  0  0  0  0  0  0  0
   35.6200   22.4970   31.8670 C   0  0  0  0  0  0  0  0  0  0  0  0
   35.7440   21.9160   30.6350 F   0  0  0  0  0  0  0  0  0  0  0  0
   34.7000   21.7520   32.5730 F   0  0  0  0  0  0  0  0  0  0  0  0
   35.1060   23.7840   31.7980 F   0  0  0  0  0  0  0  0  0  0  0  0
  1  7  1  6  0  0  0
  1  2  1  0  0  0  0
  1 17  1  0  0  0  0
  2  8  1  0  0  0  0
  3 10  1  0  0  0  0
  3 11  1  0  0  0  0
  3  2  1  0  0  0  0
  4  3  1  0  0  0  0
  5  4  1  0  0  0  0
  5  6  1  0  0  0  0
  6 16  1  6  0  0  0
  6  1  1  0  0  0  0
  9  2  1  0  0  0  0
 12  4  1  0  0  0  0
 13  4  1  0  0  0  0
 14  5  1  0  0  0  0
 15  5  1  0  0  0  0
 17 18  1  0  0  0  0
 18 23  1  0  0  0  0
 18 19  2  0  0  0  0
 19 24  1  0  0  0  0
 20 19  1  0  0  0  0
 21 20  2  0  0  0  0
 22 17  2  0  0  0  0
 22 21  1  0  0  0  0
 25 21  1  0  0  0  0
 26  6  1  0  0  0  0
 26 27  1  0  0  0  0
 28 31  1  0  0  0  0
 28 33  1  0  0  0  0
 28 26  1  0  0  0  0
 29 28  1  0  0  0  0
 30 29  1  0  0  0  0
 32 31  1  0  0  0  0
 34 33  1  0  0  0  0
 34 36  1  0  0  0  0
 35 34  1  0  0  0  0
 37 34  1  0  0  0  0
M  END
>  <minimizedAffinity>
-5.09781456

$$$$

 OpenBabel03262521073D

 37 38  0  0  1  0  0  0  0  0999 V2000
   37.9810   23.5070   32.0460 C   0  0  2  0  0  0  0  0  0  0  0  0
   36.8220   23.0230   31.2740 C   0  0  0  0  0  0  0  0  0  0  0  0
   35.9840   22.0230   32.0390 C   0  0  0  0  0  0  0  0  0  0  0  0
   36.7720   20.8520   32.5540 C   0  0  0  0  0  0  0  0  0  0  0  0
   38.1580   21.2110   33.0150 C   0  0  0  0  0  0  0  0  0  0  0  0
   38.2880   22.7100   33.2720 C   0  0  2  0  0  0  0  0  0  0  0  0
   38.9050   23.4500   31.3920 H   0  0  0  0  0  0  0  0  0  0  0  0
   36.0800   23.7200   30.8980 H   0  0  0  0  0  0  0  0  0  0  0  0
   37.1600   22.4550   30.3430 H   0  0  0  0  0  0  0  0  0  0  0  0
   35.3230   22.4980   32.7940 H   0  0  0  0  0  0  0  0  0  0  0  0
   35.2840   21.5930   31.2730 H   0  0  0  0  0  0  0  0  0  0  0  0
   36.1760   20.4240   33.4140 H   0  0  0  0  0  0  0  0  0  0  0  0
   36.8570   20.0230   31.8190 H   0  0  0  0  0  0  0  0  0  0  0  0
   38.3780   20.6140   33.8890 H   0  0  0  0  0  0  0  0  0  0  0  0
   38.9190   20.9840   32.2380 H   0  0  0  0  0  0  0  0  0  0  0  0
   39.3880   22.8600   33.4750 H   0  0  0  0  0  0  0  0  0  0  0  0
   37.8810   24.9210   32.4430 C   0  0  0  0  0  0  0  0  0  0  0  0
   36.6970   25.5740   32.0330 C   0  0  0  0  0  0  0  0  0  0  0  0
   36.5620   26.9040   32.4220 C   0  0  0  0  0  0  0  0  0  0  0  0
   37.5490   27.4980   33.1550 N   0  0  0  0  0  0  0  0  0  0  0  0
   38.6700   26.8300   33.5220 C   0  0  0  0  0  0  0  0  0  0  0  0
   38.7990   25.5790   33.1600 N   0  0  0  0  0  0  0  0  0  0  0  0
   35.8000   25.3820   31.4760 H   0  0  0  0  0  0  0  0  0  0  0  0
   35.7960   27.6260   32.2630 H   0  0  0  0  0  0  0  0  0  0  0  0
   39.4710   27.2430   34.0920 H   0  0  0  0  0  0  0  0  0  0  0  0
   37.6130   22.9660   34.4490 N   0  0  0  0  0  0  0  0  0  0  0  0
   36.6550   23.3070   34.4480 H   0  0  0  0  0  0  0  0  0  0  0  0
   38.5000   23.2020   35.8620 S   0  0  0  0  0  0  0  0  0  0  0  0
   38.7350   21.8140   36.4450 O   0  0  0  0  0  0  0  0  0  0  0  0
   38.6080   21.6180   37.3940 H   0  0  0  0  0  0  0  0  0  0  0  0
   39.8370   23.8370   35.6180 O   0  0  0  0  0  0  0  0  0  0  0  0
   40.6000   23.4150   35.1630 H   0  0  0  0  0  0  0  0  0  0  0  0
   37.6870   24.0640   37.0350 O   0  0  0  0  0  0  0  0  0  0  0  0
   38.1630   23.8280   38.3120 C   0  0  0  0  0  0  0  0  0  0  0  0
   37.9880   24.9400   39.0900 F   0  0  0  0  0  0  0  0  0  0  0  0
   37.3900   22.8280   38.8600 F   0  0  0  0  0  0  0  0  0  0  0  0
   39.4700   23.3650   38.3350 F   0  0  0  0  0  0  0  0  0  0  0  0
  1  7  1  6  0  0  0
  1 17  1  0  0  0  0
  1  6  1  0  0  0  0
  2  3  1  0  0  0  0
  2  1  1  0  0  0  0
  3  4  1  0  0  0  0
  3 10  1  0  0  0  0
  4  5  1  0  0  0  0
  4 12  1  0  0  0  0
  5  6  1  0  0  0  0
  5 14  1  0  0  0  0
  6 16  1  1  0  0  0
  6 26  1  0  0  0  0
  8  2  1  0  0  0  0
  9  2  1  0  0  0  0
 11  3  1  0  0  0  0
 13  4  1  0  0  0  0
 15  5  1  0  0  0  0
 17 22  1  0  0  0  0
 18 19  1  0  0  0  0
 18 17  2  0  0  0  0
 19 20  2  0  0  0  0
 20 21  1  0  0  0  0
 21 25  1  0  0  0  0
 22 21  2  0  0  0  0
 23 18  1  0  0  0  0
 24 19  1  0  0  0  0
 26 28  1  0  0  0  0
 27 26  1  0  0  0  0
 28 29  1  0  0  0  0
 28 33  1  0  0  0  0
 29 30  1  0  0  0  0
 31 28  1  0  0  0  0
 32 31  1  0  0  0  0
 33 34  1  0  0  0  0
 34 37  1  0  0  0  0
 34 36  1  0  0  0  0
 34 35  1  0  0  0  0
M  END
>  <minimizedAffinity>
-5.06220579

$$$$

 OpenBabel03262521073D

 37 38  0  0  1  0  0  0  0  0999 V2000
   38.0010   25.0920   33.9020 C   0  0  2  0  0  0  0  0  0  0  0  0
   38.8680   26.1080   33.2800 C   0  0  0  0  0  0  0  0  0  0  0  0
   39.8030   26.7670   34.2710 C   0  0  0  0  0  0  0  0  0  0  0  0
   39.0970   27.3630   35.4550 C   0  0  0  0  0  0  0  0  0  0  0  0
   37.9170   26.5560   35.9250 C   0  0  0  0  0  0  0  0  0  0  0  0
   37.9760   25.1250   35.3950 C   0  0  2  0  0  0  0  0  0  0  0  0
   36.9330   25.2660   33.5640 H   0  0  0  0  0  0  0  0  0  0  0  0
   39.5320   25.8430   32.4640 H   0  0  0  0  0  0  0  0  0  0  0  0
   38.2500   26.9710   32.8590 H   0  0  0  0  0  0  0  0  0  0  0  0
   40.6770   26.1340   34.5290 H   0  0  0  0  0  0  0  0  0  0  0  0
   40.2360   27.6420   33.7150 H   0  0  0  0  0  0  0  0  0  0  0  0
   39.8680   27.4370   36.2780 H   0  0  0  0  0  0  0  0  0  0  0  0
   38.7530   28.4050   35.2830 H   0  0  0  0  0  0  0  0  0  0  0  0
   37.8970   26.6030   37.0060 H   0  0  0  0  0  0  0  0  0  0  0  0
   36.9600   26.9670   35.5400 H   0  0  0  0  0  0  0  0  0  0  0  0
   36.9870   24.6780   35.7020 H   0  0  0  0  0  0  0  0  0  0  0  0
   38.3120   23.7140   33.4880 C   0  0  0  0  0  0  0  0  0  0  0  0
   39.3880   23.5910   32.5810 C   0  0  0  0  0  0  0  0  0  0  0  0
   39.7230   22.2960   32.1970 C   0  0  0  0  0  0  0  0  0  0  0  0
   39.0180   21.2380   32.6960 N   0  0  0  0  0  0  0  0  0  0  0  0
   37.9890   21.4070   33.5620 C   0  0  0  0  0  0  0  0  0  0  0  0
   37.6730   22.6230   33.9270 N   0  0  0  0  0  0  0  0  0  0  0  0
   40.0850   24.2030   32.0400 H   0  0  0  0  0  0  0  0  0  0  0  0
   40.4710   21.9090   31.5450 H   0  0  0  0  0  0  0  0  0  0  0  0
   37.4050   20.6200   33.9820 H   0  0  0  0  0  0  0  0  0  0  0  0
   38.9610   24.4800   36.1170 N   0  0  0  0  0  0  0  0  0  0  0  0
   39.8890   24.3280   35.7300 H   0  0  0  0  0  0  0  0  0  0  0  0
   38.5130   23.5050   37.4160 S   0  0  0  0  0  0  0  0  0  0  0  0
   37.8860   24.4390   38.4430 O   0  0  0  0  0  0  0  0  0  0  0  0
   38.1070   24.3920   39.3950 H   0  0  0  0  0  0  0  0  0  0  0  0
   37.4950   22.4670   37.0480 O   0  0  0  0  0  0  0  0  0  0  0  0
   36.5580   22.6390   36.8050 H   0  0  0  0  0  0  0  0  0  0  0  0
   39.7970   22.7680   38.1840 O   0  0  0  0  0  0  0  0  0  0  0  0
   40.7390   22.2630   37.3060 C   0  0  0  0  0  0  0  0  0  0  0  0
   41.6780   23.2180   37.0250 F   0  0  0  0  0  0  0  0  0  0  0  0
   41.3920   21.2350   37.9520 F   0  0  0  0  0  0  0  0  0  0  0  0
   40.1840   21.7110   36.1610 F   0  0  0  0  0  0  0  0  0  0  0  0
  1  7  1  6  0  0  0
  1  6  1  0  0  0  0
  2  1  1  0  0  0  0
  2  3  1  0  0  0  0
  3 10  1  0  0  0  0
  3  4  1  0  0  0  0
  4  5  1  0  0  0  0
  4 12  1  0  0  0  0
  5 14  1  0  0  0  0
  6 16  1  1  0  0  0
  6  5  1  0  0  0  0
  6 26  1  0  0  0  0
  8  2  1  0  0  0  0
  9  2  1  0  0  0  0
 11  3  1  0  0  0  0
 13  4  1  0  0  0  0
 15  5  1  0  0  0  0
 17  1  1  0  0  0  0
 17 22  1  0  0  0  0
 18 17  2  0  0  0  0
 19 18  1  0  0  0  0
 19 20  2  0  0  0  0
 20 21  1  0  0  0  0
 21 22  2  0  0  0  0
 21 25  1  0  0  0  0
 23 18  1  0  0  0  0
 24 19  1  0  0  0  0
 26 28  1  0  0  0  0
 27 26  1  0  0  0  0
 28 33  1  0  0  0  0
 28 29  1  0  0  0  0
 29 30  1  0  0  0  0
 31 28  1  0  0  0  0
 32 31  1  0  0  0  0
 34 36  1  0  0  0  0
 34 33  1  0  0  0  0
 35 34  1  0  0  0  0
 37 34  1  0  0  0  0
M  END
>  <minimizedAffinity>
-5.03028584

$$$$
