
 OpenBabel03262521063D

 37 38  0  0  1  0  0  0  0  0999 V2000
   37.4310   31.3320   45.4020 C   0  0  2  0  0  0  0  0  0  0  0  0
   38.3400   30.8110   44.3640 C   0  0  0  0  0  0  0  0  0  0  0  0
   39.6560   30.3220   44.9280 C   0  0  0  0  0  0  0  0  0  0  0  0
   40.3720   31.3520   45.7540 C   0  0  0  0  0  0  0  0  0  0  0  0
   39.4530   32.2160   46.5750 C   0  0  0  0  0  0  0  0  0  0  0  0
   38.0760   31.5740   46.7270 C   0  0  2  0  0  0  0  0  0  0  0  0
   37.0240   32.3340   45.0610 H   0  0  0  0  0  0  0  0  0  0  0  0
   38.0330   29.9900   43.7250 H   0  0  0  0  0  0  0  0  0  0  0  0
   38.6360   31.6330   43.6290 H   0  0  0  0  0  0  0  0  0  0  0  0
   39.5780   29.3240   45.4070 H   0  0  0  0  0  0  0  0  0  0  0  0
   40.3080   30.1600   44.0290 H   0  0  0  0  0  0  0  0  0  0  0  0
   41.0740   30.7820   46.4310 H   0  0  0  0  0  0  0  0  0  0  0  0
   41.0260   32.0200   45.1530 H   0  0  0  0  0  0  0  0  0  0  0  0
   39.9380   32.4020   47.5240 H   0  0  0  0  0  0  0  0  0  0  0  0
   39.2630   33.1940   46.0830 H   0  0  0  0  0  0  0  0  0  0  0  0
   37.4580   32.3690   47.2360 H   0  0  0  0  0  0  0  0  0  0  0  0
   36.2430   30.4930   45.6260 C   0  0  0  0  0  0  0  0  0  0  0  0
   35.8810   29.6680   44.5380 C   0  0  0  0  0  0  0  0  0  0  0  0
   34.7780   28.8420   44.7340 C   0  0  0  0  0  0  0  0  0  0  0  0
   34.1180   28.8660   45.9290 N   0  0  0  0  0  0  0  0  0  0  0  0
   34.5030   29.6780   46.9440 C   0  0  0  0  0  0  0  0  0  0  0  0
   35.5400   30.4550   46.7640 N   0  0  0  0  0  0  0  0  0  0  0  0
   36.1840   29.4500   43.5310 H   0  0  0  0  0  0  0  0  0  0  0  0
   34.2910   28.1310   44.1080 H   0  0  0  0  0  0  0  0  0  0  0  0
   34.0260   29.7390   47.8950 H   0  0  0  0  0  0  0  0  0  0  0  0
   38.2260   30.5340   47.6220 N   0  0  0  0  0  0  0  0  0  0  0  0
   38.3760   29.5790   47.3060 H   0  0  0  0  0  0  0  0  0  0  0  0
   37.6690   30.7300   49.2000 S   0  0  0  0  0  0  0  0  0  0  0  0
   38.9080   30.9590   50.0570 O   0  0  0  0  0  0  0  0  0  0  0  0
   39.0440   30.5030   50.9110 H   0  0  0  0  0  0  0  0  0  0  0  0
   36.7660   31.9170   49.3620 O   0  0  0  0  0  0  0  0  0  0  0  0
   37.0380   32.8600   49.3000 H   0  0  0  0  0  0  0  0  0  0  0  0
   36.9170   29.3790   49.8260 O   0  0  0  0  0  0  0  0  0  0  0  0
   36.7860   29.4180   51.2020 C   0  0  0  0  0  0  0  0  0  0  0  0
   37.7500   28.6440   51.7870 F   0  0  0  0  0  0  0  0  0  0  0  0
   37.0170   30.7170   51.6000 F   0  0  0  0  0  0  0  0  0  0  0  0
   35.5090   29.0990   51.6420 F   0  0  0  0  0  0  0  0  0  0  0  0
  1  7  1  6  0  0  0
  1 17  1  0  0  0  0
  1  6  1  0  0  0  0
  2  3  1  0  0  0  0
  2  1  1  0  0  0  0
  3 10  1  0  0  0  0
  3  4  1  0  0  0  0
  4 12  1  0  0  0  0
  4  5  1  0  0  0  0
  5  6  1  0  0  0  0
  5 14  1  0  0  0  0
  6 16  1  1  0  0  0
  6 26  1  0  0  0  0
  8  2  1  0  0  0  0
  9  2  1  0  0  0  0
 11  3  1  0  0  0  0
 13  4  1  0  0  0  0
 15  5  1  0  0  0  0
 17 22  1  0  0  0  0
 18 19  1  0  0  0  0
 18 17  2  0  0  0  0
 19 20  2  0  0  0  0
 20 21  1  0  0  0  0
 21 25  1  0  0  0  0
 22 21  2  0  0  0  0
 23 18  1  0  0  0  0
 24 19  1  0  0  0  0
 26 28  1  0  0  0  0
 27 26  1  0  0  0  0
 28 31  1  0  0  0  0
 28 33  1  0  0  0  0
 28 29  1  0  0  0  0
 29 30  1  0  0  0  0
 32 31  1  0  0  0  0
 33 34  1  0  0  0  0
 34 36  1  0  0  0  0
 34 37  1  0  0  0  0
 34 35  1  0  0  0  0
M  END
>  <minimizedAffinity>
-5.70531321

>  <minimizedRMSD>
2.75485325

$$$$
