REMARK  Name = 
REMARK  4 active torsions:
REMARK  status: ('A' for Active; 'I' for Inactive)
REMARK    1  A    between atoms: C_3  and  C_10
REMARK    2  A    between atoms: C_8  and  C_15
REMARK    3  A    between atoms: C_15  and  O_17
REMARK    4  A    between atoms: O_17  and  C_23
REMARK                            x       y       z     vdW  Elec       q    Type
REMARK                         _______ _______ _______ _____ _____    ______ ____
ROOT
ATOM      1 CL   UNL     1      36.800  32.187  50.125  0.00  0.00    +0.000 Cl
ATOM      2  C   UNL     1      37.539  31.929  48.588  0.00  0.00    +0.000 A 
ATOM      3  C   UNL     1      36.960  30.919  47.879  0.00  0.00    +0.000 A 
ATOM      4  C   UNL     1      37.484  30.615  46.597  0.00  0.00    +0.000 A 
ATOM      5  C   UNL     1      38.536  31.306  46.078  0.00  0.00    +0.000 A 
ATOM      6  C   UNL     1      39.102  32.324  46.817  0.00  0.00    +0.000 A 
ATOM      7 CL   UNL     1      40.445  33.231  46.201  0.00  0.00    +0.000 Cl
ATOM      8  C   UNL     1      38.597  32.612  48.045  0.00  0.00    +0.000 A 
ATOM      9  H   UNL     1      37.096  29.839  45.965  0.00  0.00    +0.000 HD
ATOM     10  H   UNL     1      38.956  31.096  45.101  0.00  0.00    +0.000 HD
ENDROOT
BRANCH   3  12
ATOM     11  C   UNL     1      36.041  29.096  49.259  0.00  0.00    +0.000 A 
ATOM     12  C   UNL     1      35.825  30.038  48.227  0.00  0.00    +0.000 A 
ATOM     13  C   UNL     1      34.588  30.087  47.606  0.00  0.00    +0.000 A 
ATOM     14  N   UNL     1      33.635  29.209  48.033  0.00  0.00    +0.000 NA
ATOM     15  C   UNL     1      33.862  28.318  49.019  0.00  0.00    +0.000 A 
ATOM     16  N   UNL     1      35.083  28.258  49.643  0.00  0.00    +0.000 NA
ATOM     17  H   UNL     1      36.974  29.015  49.770  0.00  0.00    +0.000 HD
ATOM     18  H   UNL     1      34.455  30.809  46.830  0.00  0.00    +0.000 HD
ATOM     19  H   UNL     1      33.033  27.689  49.257  0.00  0.00    +0.000 HD
ENDBRANCH   3  12
BRANCH   8  20
ATOM     20  C   UNL     1      39.140  33.684  48.901  0.00  0.00    +0.000 C 
ATOM     21  O   UNL     1      39.276  34.882  48.664  0.00  0.00    +0.000 OA
BRANCH  20  22
ATOM     22  O   UNL     1      39.631  33.538  50.218  0.00  0.00    +0.000 OA
BRANCH  22  23
ATOM     23  C   UNL     1      40.127  34.602  50.961  0.00  0.00    +0.000 C 
ATOM     24  F   UNL     1      39.903  34.377  52.315  0.00  0.00    +0.000 F 
ATOM     25  F   UNL     1      41.492  34.632  50.753  0.00  0.00    +0.000 F 
ATOM     26  F   UNL     1      39.592  35.823  50.617  0.00  0.00    +0.000 F 
ENDBRANCH  22  23
ENDBRANCH  20  22
ENDBRANCH   8  20
TORSDOF 4
