
 OpenBabel03272508223D

 37 39  0  0  0  0  0  0  0  0999 V2000
   39.0770   25.0850   31.4640 C   0  0  0  0  0  0  0  0  0  0  0  0
   39.3950   26.1740   31.3740 H   0  0  0  0  0  0  0  0  0  0  0  0
   39.6200   24.6020   30.6270 H   0  0  0  0  0  0  0  0  0  0  0  0
   36.9020   26.1720   31.1030 C   0  0  0  0  0  0  0  0  0  0  0  0
   37.6660   25.0480   31.2520 C   0  0  0  0  0  0  0  0  0  0  0  0
   36.9320   23.9020   31.2380 C   0  0  0  0  0  0  0  0  0  0  0  0
   35.6100   23.8600   31.1000 N   0  0  0  0  0  0  0  0  0  0  0  0
   34.8750   24.9530   30.9580 C   0  0  0  0  0  0  0  0  0  0  0  0
   35.5140   26.1210   30.9590 N   0  0  0  0  0  0  0  0  0  0  0  0
   37.4020   22.9120   31.3460 H   0  0  0  0  0  0  0  0  0  0  0  0
   33.8170   25.0840   30.8390 H   0  0  0  0  0  0  0  0  0  0  0  0
   37.5570   27.5430   30.9380 C   0  0  0  0  0  0  0  0  0  0  0  0
   36.8490   28.7030   30.6640 C   0  0  0  0  0  0  0  0  0  0  0  0
   37.0190   28.4220   32.1520 C   0  0  0  0  0  0  0  0  0  0  0  0
   38.6180   27.5920   30.9350 H   0  0  0  0  0  0  0  0  0  0  0  0
   37.2800   29.6190   30.2640 H   0  0  0  0  0  0  0  0  0  0  0  0
   35.7600   28.6310   30.3610 H   0  0  0  0  0  0  0  0  0  0  0  0
   37.7540   29.0640   32.6470 H   0  0  0  0  0  0  0  0  0  0  0  0
   36.1900   28.0540   32.7320 H   0  0  0  0  0  0  0  0  0  0  0  0
   39.5870   24.6000   32.7660 C   0  0  0  0  0  0  0  0  0  0  0  0
   40.7160   24.6170   32.6920 H   0  0  0  0  0  0  0  0  0  0  0  0
   39.3590   23.5210   32.9190 H   0  0  0  0  0  0  0  0  0  0  0  0
   38.2410   23.2410   34.7710 F   0  0  0  0  0  0  0  0  0  0  0  0
   38.5390   24.5580   34.8770 C   0  0  0  0  0  0  0  0  0  0  0  0
   39.2200   25.3270   33.9350 C   0  0  0  0  0  0  0  0  0  0  0  0
   39.4130   26.6300   34.2410 C   0  0  0  0  0  0  0  0  0  0  0  0
   38.9950   27.2090   35.3880 C   0  0  0  0  0  0  0  0  0  0  0  0
   38.3090   26.4440   36.3390 C   0  0  0  0  0  0  0  0  0  0  0  0
   38.0880   25.1100   36.0580 C   0  0  0  0  0  0  0  0  0  0  0  0
   39.8340   27.3690   33.6280 H   0  0  0  0  0  0  0  0  0  0  0  0
   39.1160   28.2500   35.7110 H   0  0  0  0  0  0  0  0  0  0  0  0
   37.9490   26.8700   37.2880 H   0  0  0  0  0  0  0  0  0  0  0  0
   37.3810   24.3980   37.0330 O   0  0  0  0  0  0  0  0  0  0  0  0
   37.9350   23.8340   38.1620 C   0  0  0  0  0  0  0  0  0  0  0  0
   37.2640   22.7970   38.7310 F   0  0  0  0  0  0  0  0  0  0  0  0
   39.2760   23.4990   37.9350 F   0  0  0  0  0  0  0  0  0  0  0  0
   37.9950   24.8440   39.1290 F   0  0  0  0  0  0  0  0  0  0  0  0
  1 20  1  0  0  0  0
  2  1  1  0  0  0  0
  3  1  1  0  0  0  0
  4  5  1  0  0  0  0
  5  1  1  0  0  0  0
  6  5  2  0  0  0  0
  6 10  1  0  0  0  0
  7  6  1  0  0  0  0
  8  9  1  0  0  0  0
  8  7  2  0  0  0  0
  9  4  2  0  0  0  0
 11  8  1  0  0  0  0
 12  4  1  0  0  0  0
 12 14  1  0  0  0  0
 13 12  1  0  0  0  0
 13 14  1  0  0  0  0
 14 18  1  0  0  0  0
 14 19  1  0  0  0  0
 15 12  1  0  0  0  0
 16 13  1  0  0  0  0
 17 13  1  0  0  0  0
 20 22  1  0  0  0  0
 20 25  1  0  0  0  0
 21 20  1  0  0  0  0
 23 24  1  0  0  0  0
 24 29  1  0  0  0  0
 25 26  1  0  0  0  0
 25 24  2  0  0  0  0
 26 27  2  0  0  0  0
 27 31  1  0  0  0  0
 27 28  1  0  0  0  0
 28 32  1  0  0  0  0
 29 28  2  0  0  0  0
 29 33  1  0  0  0  0
 30 26  1  0  0  0  0
 33 34  1  0  0  0  0
 34 35  1  0  0  0  0
 34 37  1  0  0  0  0
 36 34  1  0  0  0  0
M  END
>  <minimizedAffinity>
-5.70576477

$$$$

 OpenBabel03272508223D

 37 39  0  0  0  0  0  0  0  0999 V2000
   38.8910   24.6070   31.5200 C   0  0  0  0  0  0  0  0  0  0  0  0
   38.3260   25.5940   31.5620 H   0  0  0  0  0  0  0  0  0  0  0  0
   39.5170   24.7250   30.6130 H   0  0  0  0  0  0  0  0  0  0  0  0
   36.5860   23.7560   31.6080 C   0  0  0  0  0  0  0  0  0  0  0  0
   37.9160   23.5800   31.3430 C   0  0  0  0  0  0  0  0  0  0  0  0
   38.2160   22.3100   30.9560 C   0  0  0  0  0  0  0  0  0  0  0  0
   37.3240   21.3300   30.8450 N   0  0  0  0  0  0  0  0  0  0  0  0
   36.0370   21.5070   31.1050 C   0  0  0  0  0  0  0  0  0  0  0  0
   35.6550   22.7230   31.4900 N   0  0  0  0  0  0  0  0  0  0  0  0
   39.2450   22.0090   30.7050 H   0  0  0  0  0  0  0  0  0  0  0  0
   35.2070   20.8290   31.0640 H   0  0  0  0  0  0  0  0  0  0  0  0
   36.0300   25.1480   31.9080 C   0  0  0  0  0  0  0  0  0  0  0  0
   36.0920   26.2070   31.0150 C   0  0  0  0  0  0  0  0  0  0  0  0
   34.8330   25.3600   30.8800 C   0  0  0  0  0  0  0  0  0  0  0  0
   35.6670   25.3410   32.8870 H   0  0  0  0  0  0  0  0  0  0  0  0
   35.9770   27.2560   31.2800 H   0  0  0  0  0  0  0  0  0  0  0  0
   36.7400   26.1170   30.0900 H   0  0  0  0  0  0  0  0  0  0  0  0
   33.9310   25.8340   31.2790 H   0  0  0  0  0  0  0  0  0  0  0  0
   34.7270   24.6740   30.0570 H   0  0  0  0  0  0  0  0  0  0  0  0
   39.7350   24.5490   32.7340 C   0  0  0  0  0  0  0  0  0  0  0  0
   40.7530   24.9400   32.4320 H   0  0  0  0  0  0  0  0  0  0  0  0
   39.9470   23.4990   33.0360 H   0  0  0  0  0  0  0  0  0  0  0  0
   38.4150   23.1810   34.7500 F   0  0  0  0  0  0  0  0  0  0  0  0
   38.6470   24.5130   34.8250 C   0  0  0  0  0  0  0  0  0  0  0  0
   39.3100   25.2880   33.8750 C   0  0  0  0  0  0  0  0  0  0  0  0
   39.4340   26.6070   34.1470 C   0  0  0  0  0  0  0  0  0  0  0  0
   38.9650   27.1970   35.2690 C   0  0  0  0  0  0  0  0  0  0  0  0
   38.2980   26.4250   36.2290 C   0  0  0  0  0  0  0  0  0  0  0  0
   38.1470   25.0750   35.9810 C   0  0  0  0  0  0  0  0  0  0  0  0
   39.8320   27.3490   33.5220 H   0  0  0  0  0  0  0  0  0  0  0  0
   39.0300   28.2510   35.5660 H   0  0  0  0  0  0  0  0  0  0  0  0
   37.8990   26.8590   37.1580 H   0  0  0  0  0  0  0  0  0  0  0  0
   37.4540   24.3560   36.9620 O   0  0  0  0  0  0  0  0  0  0  0  0
   37.9650   23.9960   38.1900 C   0  0  0  0  0  0  0  0  0  0  0  0
   38.0910   24.9790   39.1220 F   0  0  0  0  0  0  0  0  0  0  0  0
   37.2650   22.8990   38.7100 F   0  0  0  0  0  0  0  0  0  0  0  0
   39.2540   23.5000   37.9610 F   0  0  0  0  0  0  0  0  0  0  0  0
  1  2  1  0  0  0  0
  1 20  1  0  0  0  0
  3  1  1  0  0  0  0
  4 12  1  0  0  0  0
  5  1  1  0  0  0  0
  5  4  2  0  0  0  0
  6  5  1  0  0  0  0
  7  6  2  0  0  0  0
  7  8  1  0  0  0  0
  8  9  2  0  0  0  0
  9  4  1  0  0  0  0
 10  6  1  0  0  0  0
 11  8  1  0  0  0  0
 12 15  1  0  0  0  0
 13 16  1  0  0  0  0
 13 12  1  0  0  0  0
 14 13  1  0  0  0  0
 14 18  1  0  0  0  0
 14 12  1  0  0  0  0
 17 13  1  0  0  0  0
 19 14  1  0  0  0  0
 20 22  1  0  0  0  0
 20 25  1  0  0  0  0
 21 20  1  0  0  0  0
 23 24  1  0  0  0  0
 24 29  1  0  0  0  0
 25 26  1  0  0  0  0
 25 24  2  0  0  0  0
 26 27  2  0  0  0  0
 27 31  1  0  0  0  0
 27 28  1  0  0  0  0
 28 32  1  0  0  0  0
 29 28  2  0  0  0  0
 29 33  1  0  0  0  0
 30 26  1  0  0  0  0
 33 34  1  0  0  0  0
 34 36  1  0  0  0  0
 34 35  1  0  0  0  0
 37 34  1  0  0  0  0
M  END
>  <minimizedAffinity>
-5.58555269

$$$$

 OpenBabel03272508223D

 37 39  0  0  0  0  0  0  0  0999 V2000
   37.1690   26.8100   34.9180 C   0  0  0  0  0  0  0  0  0  0  0  0
   36.3380   26.0990   35.2310 H   0  0  0  0  0  0  0  0  0  0  0  0
   37.0470   27.6540   35.6270 H   0  0  0  0  0  0  0  0  0  0  0  0
   36.2140   28.3690   33.2740 C   0  0  0  0  0  0  0  0  0  0  0  0
   36.8840   27.2170   33.5800 C   0  0  0  0  0  0  0  0  0  0  0  0
   37.1910   26.4750   32.4810 C   0  0  0  0  0  0  0  0  0  0  0  0
   36.8780   26.8150   31.2340 N   0  0  0  0  0  0  0  0  0  0  0  0
   36.2270   27.9320   30.9450 C   0  0  0  0  0  0  0  0  0  0  0  0
   35.8870   28.7200   31.9630 N   0  0  0  0  0  0  0  0  0  0  0  0
   37.7320   25.5190   32.5610 H   0  0  0  0  0  0  0  0  0  0  0  0
   35.9050   28.3410   30.0070 H   0  0  0  0  0  0  0  0  0  0  0  0
   35.9170   29.4070   34.3560 C   0  0  0  0  0  0  0  0  0  0  0  0
   35.2770   30.6110   34.1070 C   0  0  0  0  0  0  0  0  0  0  0  0
   34.3300   29.4710   34.4630 C   0  0  0  0  0  0  0  0  0  0  0  0
   36.3110   29.2430   35.3280 H   0  0  0  0  0  0  0  0  0  0  0  0
   35.3010   31.4800   34.7630 H   0  0  0  0  0  0  0  0  0  0  0  0
   35.1200   30.9480   33.0360 H   0  0  0  0  0  0  0  0  0  0  0  0
   33.9160   29.5350   35.4740 H   0  0  0  0  0  0  0  0  0  0  0  0
   33.7380   29.0000   33.6970 H   0  0  0  0  0  0  0  0  0  0  0  0
   38.4470   26.1040   35.1620 C   0  0  0  0  0  0  0  0  0  0  0  0
   39.2210   26.9060   35.3580 H   0  0  0  0  0  0  0  0  0  0  0  0
   38.8240   25.6090   34.2400 H   0  0  0  0  0  0  0  0  0  0  0  0
   39.9500   23.8000   34.8340 F   0  0  0  0  0  0  0  0  0  0  0  0
   39.2700   24.0510   35.9770 C   0  0  0  0  0  0  0  0  0  0  0  0
   38.4980   25.1810   36.2450 C   0  0  0  0  0  0  0  0  0  0  0  0
   37.9000   25.2330   37.4570 C   0  0  0  0  0  0  0  0  0  0  0  0
   38.0130   24.2720   38.4000 C   0  0  0  0  0  0  0  0  0  0  0  0
   38.7850   23.1330   38.1390 C   0  0  0  0  0  0  0  0  0  0  0  0
   39.4070   23.0430   36.9090 C   0  0  0  0  0  0  0  0  0  0  0  0
   37.2290   25.9610   37.8010 H   0  0  0  0  0  0  0  0  0  0  0  0
   37.5670   24.2410   39.4020 H   0  0  0  0  0  0  0  0  0  0  0  0
   38.9080   22.3250   38.8740 H   0  0  0  0  0  0  0  0  0  0  0  0
   40.1480   21.8760   36.6930 O   0  0  0  0  0  0  0  0  0  0  0  0
   41.5070   21.7530   36.8820 C   0  0  0  0  0  0  0  0  0  0  0  0
   42.2030   21.0440   35.9530 F   0  0  0  0  0  0  0  0  0  0  0  0
   42.0900   23.0100   37.0910 F   0  0  0  0  0  0  0  0  0  0  0  0
   41.6860   21.0880   38.1010 F   0  0  0  0  0  0  0  0  0  0  0  0
  1 20  1  0  0  0  0
  1  2  1  0  0  0  0
  1  3  1  0  0  0  0
  4  5  1  0  0  0  0
  4 12  1  0  0  0  0
  5  1  1  0  0  0  0
  6 10  1  0  0  0  0
  6  5  2  0  0  0  0
  7  6  1  0  0  0  0
  8  7  2  0  0  0  0
  8  9  1  0  0  0  0
  9  4  2  0  0  0  0
 11  8  1  0  0  0  0
 12 14  1  0  0  0  0
 12 15  1  0  0  0  0
 13 12  1  0  0  0  0
 13 14  1  0  0  0  0
 13 16  1  0  0  0  0
 14 18  1  0  0  0  0
 17 13  1  0  0  0  0
 19 14  1  0  0  0  0
 20 21  1  0  0  0  0
 20 25  1  0  0  0  0
 22 20  1  0  0  0  0
 23 24  1  0  0  0  0
 24 25  2  0  0  0  0
 24 29  1  0  0  0  0
 25 26  1  0  0  0  0
 26 30  1  0  0  0  0
 26 27  2  0  0  0  0
 27 31  1  0  0  0  0
 28 27  1  0  0  0  0
 28 32  1  0  0  0  0
 29 28  2  0  0  0  0
 33 34  1  0  0  0  0
 33 29  1  0  0  0  0
 34 36  1  0  0  0  0
 34 37  1  0  0  0  0
 35 34  1  0  0  0  0
M  END
>  <minimizedAffinity>
-5.50098181

$$$$

 OpenBabel03272508223D

 37 39  0  0  0  0  0  0  0  0999 V2000
   39.2850   25.4140   31.6140 C   0  0  0  0  0  0  0  0  0  0  0  0
   39.5070   26.5220   31.4830 H   0  0  0  0  0  0  0  0  0  0  0  0
   39.8470   24.9530   30.7770 H   0  0  0  0  0  0  0  0  0  0  0  0
   37.2760   24.0290   31.3150 C   0  0  0  0  0  0  0  0  0  0  0  0
   37.8780   25.2500   31.4400 C   0  0  0  0  0  0  0  0  0  0  0  0
   37.0040   26.2870   31.3190 C   0  0  0  0  0  0  0  0  0  0  0  0
   35.7000   26.1460   31.0990 N   0  0  0  0  0  0  0  0  0  0  0  0
   35.1240   24.9600   30.9760 C   0  0  0  0  0  0  0  0  0  0  0  0
   35.9070   23.8890   31.0820 N   0  0  0  0  0  0  0  0  0  0  0  0
   37.3340   27.3340   31.3980 H   0  0  0  0  0  0  0  0  0  0  0  0
   34.1030   24.6840   30.7990 H   0  0  0  0  0  0  0  0  0  0  0  0
   38.0630   22.7430   31.5720 C   0  0  0  0  0  0  0  0  0  0  0  0
   37.6630   21.4970   31.1170 C   0  0  0  0  0  0  0  0  0  0  0  0
   38.5580   22.2520   30.1420 C   0  0  0  0  0  0  0  0  0  0  0  0
   38.9040   22.7940   32.2180 H   0  0  0  0  0  0  0  0  0  0  0  0
   38.0200   20.5450   31.5070 H   0  0  0  0  0  0  0  0  0  0  0  0
   36.6210   21.3670   30.6930 H   0  0  0  0  0  0  0  0  0  0  0  0
   39.5820   21.8710   30.0890 H   0  0  0  0  0  0  0  0  0  0  0  0
   38.1370   22.7070   29.2610 H   0  0  0  0  0  0  0  0  0  0  0  0
   39.8660   25.0150   32.9150 C   0  0  0  0  0  0  0  0  0  0  0  0
   40.9680   25.2650   32.8620 H   0  0  0  0  0  0  0  0  0  0  0  0
   39.8630   23.9100   33.0440 H   0  0  0  0  0  0  0  0  0  0  0  0
   38.6920   23.3770   34.8170 F   0  0  0  0  0  0  0  0  0  0  0  0
   38.7640   24.7190   34.9780 C   0  0  0  0  0  0  0  0  0  0  0  0
   39.3420   25.6260   34.0910 C   0  0  0  0  0  0  0  0  0  0  0  0
   39.3060   26.9300   34.4470 C   0  0  0  0  0  0  0  0  0  0  0  0
   38.7570   27.3880   35.5940 C   0  0  0  0  0  0  0  0  0  0  0  0
   38.1730   26.4840   36.4900 C   0  0  0  0  0  0  0  0  0  0  0  0
   38.1860   25.1440   36.1560 C   0  0  0  0  0  0  0  0  0  0  0  0
   39.6210   27.7510   33.8770 H   0  0  0  0  0  0  0  0  0  0  0  0
   38.6920   28.4210   35.9560 H   0  0  0  0  0  0  0  0  0  0  0  0
   37.7140   26.8080   37.4360 H   0  0  0  0  0  0  0  0  0  0  0  0
   37.5710   24.2880   37.0770 O   0  0  0  0  0  0  0  0  0  0  0  0
   38.1300   23.8640   38.2630 C   0  0  0  0  0  0  0  0  0  0  0  0
   39.3770   23.3250   38.2040 F   0  0  0  0  0  0  0  0  0  0  0  0
   38.0700   24.8810   39.2250 F   0  0  0  0  0  0  0  0  0  0  0  0
   37.2910   22.8650   38.7700 F   0  0  0  0  0  0  0  0  0  0  0  0
  1 20  1  0  0  0  0
  2  1  1  0  0  0  0
  3  1  1  0  0  0  0
  4  5  1  0  0  0  0
  4 12  1  0  0  0  0
  5  1  1  0  0  0  0
  6 10  1  0  0  0  0
  6  5  2  0  0  0  0
  7  6  1  0  0  0  0
  8  9  1  0  0  0  0
  8  7  2  0  0  0  0
  9  4  2  0  0  0  0
 11  8  1  0  0  0  0
 12 15  1  0  0  0  0
 13 16  1  0  0  0  0
 13 12  1  0  0  0  0
 14 13  1  0  0  0  0
 14 12  1  0  0  0  0
 17 13  1  0  0  0  0
 18 14  1  0  0  0  0
 19 14  1  0  0  0  0
 20 22  1  0  0  0  0
 20 25  1  0  0  0  0
 21 20  1  0  0  0  0
 23 24  1  0  0  0  0
 24 29  1  0  0  0  0
 25 26  1  0  0  0  0
 25 24  2  0  0  0  0
 26 27  2  0  0  0  0
 27 31  1  0  0  0  0
 27 28  1  0  0  0  0
 28 32  1  0  0  0  0
 29 28  2  0  0  0  0
 29 33  1  0  0  0  0
 30 26  1  0  0  0  0
 33 34  1  0  0  0  0
 34 37  1  0  0  0  0
 34 36  1  0  0  0  0
 35 34  1  0  0  0  0
M  END
>  <minimizedAffinity>
-5.47699404

$$$$

 OpenBabel03272508223D

 37 39  0  0  0  0  0  0  0  0999 V2000
   40.1530   23.7770   34.4310 C   0  0  0  0  0  0  0  0  0  0  0  0
   41.2420   23.5650   34.6810 H   0  0  0  0  0  0  0  0  0  0  0  0
   40.2030   24.7750   33.9510 H   0  0  0  0  0  0  0  0  0  0  0  0
   38.5930   24.8530   35.9970 C   0  0  0  0  0  0  0  0  0  0  0  0
   39.4480   23.8370   35.6710 C   0  0  0  0  0  0  0  0  0  0  0  0
   39.6020   22.9300   36.6750 C   0  0  0  0  0  0  0  0  0  0  0  0
   38.9950   23.0090   37.8550 N   0  0  0  0  0  0  0  0  0  0  0  0
   38.1690   23.9970   38.1660 C   0  0  0  0  0  0  0  0  0  0  0  0
   37.9610   24.9300   37.2390 N   0  0  0  0  0  0  0  0  0  0  0  0
   40.2580   22.0530   36.5660 H   0  0  0  0  0  0  0  0  0  0  0  0
   37.6130   24.1990   39.0600 H   0  0  0  0  0  0  0  0  0  0  0  0
   38.1720   25.8840   34.9500 C   0  0  0  0  0  0  0  0  0  0  0  0
   37.5130   27.0640   35.2570 C   0  0  0  0  0  0  0  0  0  0  0  0
   39.0320   27.1860   35.2630 C   0  0  0  0  0  0  0  0  0  0  0  0
   38.3020   25.6360   33.9250 H   0  0  0  0  0  0  0  0  0  0  0  0
   36.9540   27.6710   34.5470 H   0  0  0  0  0  0  0  0  0  0  0  0
   37.0920   27.2100   36.2980 H   0  0  0  0  0  0  0  0  0  0  0  0
   39.4410   27.7160   34.3970 H   0  0  0  0  0  0  0  0  0  0  0  0
   39.5680   27.2430   36.1960 H   0  0  0  0  0  0  0  0  0  0  0  0
   39.7330   22.7480   33.4530 C   0  0  0  0  0  0  0  0  0  0  0  0
   39.5510   21.8020   34.0460 H   0  0  0  0  0  0  0  0  0  0  0  0
   40.5670   22.4650   32.7730 H   0  0  0  0  0  0  0  0  0  0  0  0
   37.4660   21.2480   33.9900 F   0  0  0  0  0  0  0  0  0  0  0  0
   37.4830   22.1910   33.0200 C   0  0  0  0  0  0  0  0  0  0  0  0
   38.5630   23.0050   32.6810 C   0  0  0  0  0  0  0  0  0  0  0  0
   38.3670   23.8860   31.6750 C   0  0  0  0  0  0  0  0  0  0  0  0
   37.2030   24.0200   31.0010 C   0  0  0  0  0  0  0  0  0  0  0  0
   36.1130   23.2070   31.3340 C   0  0  0  0  0  0  0  0  0  0  0  0
   36.2800   22.2900   32.3530 C   0  0  0  0  0  0  0  0  0  0  0  0
   39.0800   24.5190   31.2380 H   0  0  0  0  0  0  0  0  0  0  0  0
   36.9630   24.7100   30.1820 H   0  0  0  0  0  0  0  0  0  0  0  0
   35.1460   23.2790   30.8150 H   0  0  0  0  0  0  0  0  0  0  0  0
   35.1660   21.4890   32.6310 O   0  0  0  0  0  0  0  0  0  0  0  0
   34.9760   20.2060   32.1680 C   0  0  0  0  0  0  0  0  0  0  0  0
   35.6310   19.8540   31.0290 F   0  0  0  0  0  0  0  0  0  0  0  0
   35.2120   19.2750   33.1890 F   0  0  0  0  0  0  0  0  0  0  0  0
   33.6100   20.0730   31.8950 F   0  0  0  0  0  0  0  0  0  0  0  0
  1  2  1  0  0  0  0
  1  5  1  0  0  0  0
  3  1  1  0  0  0  0
  4  9  1  0  0  0  0
  5  4  2  0  0  0  0
  5  6  1  0  0  0  0
  6  7  2  0  0  0  0
  7  8  1  0  0  0  0
  8 11  1  0  0  0  0
  9  8  2  0  0  0  0
 10  6  1  0  0  0  0
 12 13  1  0  0  0  0
 12 14  1  0  0  0  0
 12  4  1  0  0  0  0
 13 14  1  0  0  0  0
 13 17  1  0  0  0  0
 14 19  1  0  0  0  0
 15 12  1  0  0  0  0
 16 13  1  0  0  0  0
 18 14  1  0  0  0  0
 20 21  1  0  0  0  0
 20  1  1  0  0  0  0
 22 20  1  0  0  0  0
 24 23  1  0  0  0  0
 25 24  1  0  0  0  0
 25 20  1  0  0  0  0
 26 25  2  0  0  0  0
 27 28  2  0  0  0  0
 27 26  1  0  0  0  0
 28 29  1  0  0  0  0
 29 33  1  0  0  0  0
 29 24  2  0  0  0  0
 30 26  1  0  0  0  0
 31 27  1  0  0  0  0
 32 28  1  0  0  0  0
 34 33  1  0  0  0  0
 34 36  1  0  0  0  0
 35 34  1  0  0  0  0
 37 34  1  0  0  0  0
M  END
>  <minimizedAffinity>
-5.39513016

$$$$

 OpenBabel03272508223D

 37 39  0  0  0  0  0  0  0  0999 V2000
   37.9040   23.7050   31.7280 C   0  0  0  0  0  0  0  0  0  0  0  0
   36.9920   23.6650   32.4070 H   0  0  0  0  0  0  0  0  0  0  0  0
   37.6790   24.5670   31.0690 H   0  0  0  0  0  0  0  0  0  0  0  0
   36.9850   21.5010   31.1430 C   0  0  0  0  0  0  0  0  0  0  0  0
   37.9230   22.4840   30.9890 C   0  0  0  0  0  0  0  0  0  0  0  0
   38.9050   22.1470   30.1080 C   0  0  0  0  0  0  0  0  0  0  0  0
   38.9640   20.9880   29.4580 N   0  0  0  0  0  0  0  0  0  0  0  0
   38.0530   20.0390   29.6130 C   0  0  0  0  0  0  0  0  0  0  0  0
   37.0540   20.2860   30.4590 N   0  0  0  0  0  0  0  0  0  0  0  0
   39.7330   22.8340   29.8740 H   0  0  0  0  0  0  0  0  0  0  0  0
   37.9610   19.0660   29.1710 H   0  0  0  0  0  0  0  0  0  0  0  0
   35.7250   21.7500   31.9710 C   0  0  0  0  0  0  0  0  0  0  0  0
   34.7970   20.7650   32.2700 C   0  0  0  0  0  0  0  0  0  0  0  0
   35.9120   20.8960   33.3010 C   0  0  0  0  0  0  0  0  0  0  0  0
   35.4970   22.7500   32.2450 H   0  0  0  0  0  0  0  0  0  0  0  0
   33.7750   20.9470   32.5960 H   0  0  0  0  0  0  0  0  0  0  0  0
   34.8540   19.7660   31.7370 H   0  0  0  0  0  0  0  0  0  0  0  0
   35.6030   21.3790   34.2330 H   0  0  0  0  0  0  0  0  0  0  0  0
   36.7010   20.1640   33.3420 H   0  0  0  0  0  0  0  0  0  0  0  0
   39.0670   24.0000   32.5940 C   0  0  0  0  0  0  0  0  0  0  0  0
   39.8420   24.4900   31.9310 H   0  0  0  0  0  0  0  0  0  0  0  0
   39.5740   23.0680   32.9310 H   0  0  0  0  0  0  0  0  0  0  0  0
   37.9780   22.8870   34.8870 F   0  0  0  0  0  0  0  0  0  0  0  0
   38.2980   24.2010   34.8140 C   0  0  0  0  0  0  0  0  0  0  0  0
   38.8590   24.8520   33.7170 C   0  0  0  0  0  0  0  0  0  0  0  0
   39.1000   26.1760   33.8550 C   0  0  0  0  0  0  0  0  0  0  0  0
   38.8380   26.8810   34.9780 C   0  0  0  0  0  0  0  0  0  0  0  0
   38.2740   26.2340   36.0840 C   0  0  0  0  0  0  0  0  0  0  0  0
   38.0080   24.8830   35.9770 C   0  0  0  0  0  0  0  0  0  0  0  0
   39.4450   26.8370   33.1190 H   0  0  0  0  0  0  0  0  0  0  0  0
   39.0080   27.9470   35.1710 H   0  0  0  0  0  0  0  0  0  0  0  0
   38.0420   26.7650   37.0200 H   0  0  0  0  0  0  0  0  0  0  0  0
   37.4250   24.2920   37.1040 O   0  0  0  0  0  0  0  0  0  0  0  0
   38.1070   23.8970   38.2340 C   0  0  0  0  0  0  0  0  0  0  0  0
   39.3520   23.3770   38.0590 F   0  0  0  0  0  0  0  0  0  0  0  0
   38.1250   24.9280   39.1830 F   0  0  0  0  0  0  0  0  0  0  0  0
   37.3410   22.8930   38.8370 F   0  0  0  0  0  0  0  0  0  0  0  0
  1  2  1  0  0  0  0
  1 20  1  0  0  0  0
  3  1  1  0  0  0  0
  4 12  1  0  0  0  0
  5  4  1  0  0  0  0
  5  1  1  0  0  0  0
  6  5  2  0  0  0  0
  7  8  2  0  0  0  0
  7  6  1  0  0  0  0
  8  9  1  0  0  0  0
  9  4  2  0  0  0  0
 10  6  1  0  0  0  0
 11  8  1  0  0  0  0
 12 15  1  0  0  0  0
 12 13  1  0  0  0  0
 12 14  1  0  0  0  0
 13 16  1  0  0  0  0
 13 14  1  0  0  0  0
 14 19  1  0  0  0  0
 14 18  1  0  0  0  0
 17 13  1  0  0  0  0
 20 22  1  0  0  0  0
 20 25  1  0  0  0  0
 21 20  1  0  0  0  0
 24 23  1  0  0  0  0
 24 29  1  0  0  0  0
 25 26  1  0  0  0  0
 25 24  2  0  0  0  0
 26 27  2  0  0  0  0
 27 31  1  0  0  0  0
 27 28  1  0  0  0  0
 28 32  1  0  0  0  0
 29 28  2  0  0  0  0
 29 33  1  0  0  0  0
 30 26  1  0  0  0  0
 33 34  1  0  0  0  0
 34 37  1  0  0  0  0
 34 36  1  0  0  0  0
 35 34  1  0  0  0  0
M  END
>  <minimizedAffinity>
-5.37671423

$$$$

 OpenBabel03272508223D

 37 39  0  0  0  0  0  0  0  0999 V2000
   36.2220   28.9560   33.2130 C   0  0  0  0  0  0  0  0  0  0  0  0
   36.3490   29.5320   32.2400 H   0  0  0  0  0  0  0  0  0  0  0  0
   37.0410   29.3580   33.8430 H   0  0  0  0  0  0  0  0  0  0  0  0
   37.1110   26.7240   33.7370 C   0  0  0  0  0  0  0  0  0  0  0  0
   36.4370   27.5780   32.9080 C   0  0  0  0  0  0  0  0  0  0  0  0
   36.0530   26.9910   31.7410 C   0  0  0  0  0  0  0  0  0  0  0  0
   36.2990   25.7240   31.4220 N   0  0  0  0  0  0  0  0  0  0  0  0
   36.9540   24.9030   32.2290 C   0  0  0  0  0  0  0  0  0  0  0  0
   37.3680   25.3950   33.3940 N   0  0  0  0  0  0  0  0  0  0  0  0
   35.4990   27.5480   30.9690 H   0  0  0  0  0  0  0  0  0  0  0  0
   37.2290   23.8720   32.1180 H   0  0  0  0  0  0  0  0  0  0  0  0
   37.4890   27.1520   35.1540 C   0  0  0  0  0  0  0  0  0  0  0  0
   38.2050   26.3510   36.0310 C   0  0  0  0  0  0  0  0  0  0  0  0
   39.0780   27.2480   35.1610 C   0  0  0  0  0  0  0  0  0  0  0  0
   37.0980   28.0680   35.5210 H   0  0  0  0  0  0  0  0  0  0  0  0
   38.2470   26.4880   37.1100 H   0  0  0  0  0  0  0  0  0  0  0  0
   38.3700   25.2590   35.7790 H   0  0  0  0  0  0  0  0  0  0  0  0
   39.5090   28.1020   35.6930 H   0  0  0  0  0  0  0  0  0  0  0  0
   39.6280   26.8310   34.3340 H   0  0  0  0  0  0  0  0  0  0  0  0
   34.9030   29.3380   33.7640 C   0  0  0  0  0  0  0  0  0  0  0  0
   34.4370   28.3860   34.1620 H   0  0  0  0  0  0  0  0  0  0  0  0
   34.1980   29.6500   32.9620 H   0  0  0  0  0  0  0  0  0  0  0  0
   32.5080   29.7390   35.0980 F   0  0  0  0  0  0  0  0  0  0  0  0
   33.6250   30.4370   35.4120 C   0  0  0  0  0  0  0  0  0  0  0  0
   34.8760   30.3020   34.8130 C   0  0  0  0  0  0  0  0  0  0  0  0
   35.8620   31.1010   35.2800 C   0  0  0  0  0  0  0  0  0  0  0  0
   35.7020   31.9980   36.2780 C   0  0  0  0  0  0  0  0  0  0  0  0
   34.4480   32.1410   36.8850 C   0  0  0  0  0  0  0  0  0  0  0  0
   33.4160   31.3450   36.4290 C   0  0  0  0  0  0  0  0  0  0  0  0
   36.8360   31.1910   34.9040 H   0  0  0  0  0  0  0  0  0  0  0  0
   36.4460   32.6750   36.7150 H   0  0  0  0  0  0  0  0  0  0  0  0
   34.2680   32.8570   37.7010 H   0  0  0  0  0  0  0  0  0  0  0  0
   32.1800   31.5440   37.0560 O   0  0  0  0  0  0  0  0  0  0  0  0
   31.1690   32.3490   36.5790 C   0  0  0  0  0  0  0  0  0  0  0  0
   31.2390   32.7270   35.2740 F   0  0  0  0  0  0  0  0  0  0  0  0
   29.9170   31.7920   36.8730 F   0  0  0  0  0  0  0  0  0  0  0  0
   31.2030   33.5280   37.3340 F   0  0  0  0  0  0  0  0  0  0  0  0
  1 20  1  0  0  0  0
  1  3  1  0  0  0  0
  2  1  1  0  0  0  0
  4 12  1  0  0  0  0
  5  1  1  0  0  0  0
  5  4  2  0  0  0  0
  6  5  1  0  0  0  0
  7  6  2  0  0  0  0
  7  8  1  0  0  0  0
  8  9  2  0  0  0  0
  9  4  1  0  0  0  0
 10  6  1  0  0  0  0
 11  8  1  0  0  0  0
 12 14  1  0  0  0  0
 12 15  1  0  0  0  0
 12 13  1  0  0  0  0
 13 16  1  0  0  0  0
 14 18  1  0  0  0  0
 14 13  1  0  0  0  0
 17 13  1  0  0  0  0
 19 14  1  0  0  0  0
 20 21  1  0  0  0  0
 20 25  1  0  0  0  0
 22 20  1  0  0  0  0
 23 24  1  0  0  0  0
 24 29  1  0  0  0  0
 25 26  1  0  0  0  0
 25 24  2  0  0  0  0
 26 27  2  0  0  0  0
 27 31  1  0  0  0  0
 27 28  1  0  0  0  0
 28 32  1  0  0  0  0
 29 28  2  0  0  0  0
 29 33  1  0  0  0  0
 30 26  1  0  0  0  0
 34 36  1  0  0  0  0
 34 33  1  0  0  0  0
 34 37  1  0  0  0  0
 35 34  1  0  0  0  0
M  END
>  <minimizedAffinity>
-5.36250639

$$$$

 OpenBabel03272508223D

 37 39  0  0  0  0  0  0  0  0999 V2000
   38.9030   24.4640   34.8210 C   0  0  0  0  0  0  0  0  0  0  0  0
   39.2000   25.5380   35.0540 H   0  0  0  0  0  0  0  0  0  0  0  0
   37.8570   24.4170   35.1860 H   0  0  0  0  0  0  0  0  0  0  0  0
   39.4080   23.1300   36.8230 C   0  0  0  0  0  0  0  0  0  0  0  0
   39.7560   23.6220   35.5960 C   0  0  0  0  0  0  0  0  0  0  0  0
   41.0190   23.2750   35.2240 C   0  0  0  0  0  0  0  0  0  0  0  0
   41.8430   22.5400   35.9640 N   0  0  0  0  0  0  0  0  0  0  0  0
   41.5010   22.0680   37.1530 C   0  0  0  0  0  0  0  0  0  0  0  0
   40.2790   22.3590   37.5950 N   0  0  0  0  0  0  0  0  0  0  0  0
   41.4460   23.5940   34.2610 H   0  0  0  0  0  0  0  0  0  0  0  0
   42.0420   21.4710   37.8610 H   0  0  0  0  0  0  0  0  0  0  0  0
   37.9800   23.2810   37.3470 C   0  0  0  0  0  0  0  0  0  0  0  0
   37.6230   23.0760   38.6700 C   0  0  0  0  0  0  0  0  0  0  0  0
   38.0230   24.5120   38.3550 C   0  0  0  0  0  0  0  0  0  0  0  0
   37.2050   23.4540   36.6410 H   0  0  0  0  0  0  0  0  0  0  0  0
   36.6100   22.8930   39.0230 H   0  0  0  0  0  0  0  0  0  0  0  0
   38.3660   22.5950   39.3790 H   0  0  0  0  0  0  0  0  0  0  0  0
   37.1810   25.2090   38.3040 H   0  0  0  0  0  0  0  0  0  0  0  0
   38.9800   24.8900   38.6730 H   0  0  0  0  0  0  0  0  0  0  0  0
   38.9500   24.3200   33.3490 C   0  0  0  0  0  0  0  0  0  0  0  0
   39.7600   23.5620   33.1300 H   0  0  0  0  0  0  0  0  0  0  0  0
   39.3280   25.2450   32.8590 H   0  0  0  0  0  0  0  0  0  0  0  0
   38.4090   21.6030   33.2920 F   0  0  0  0  0  0  0  0  0  0  0  0
   37.5890   22.5060   32.7030 C   0  0  0  0  0  0  0  0  0  0  0  0
   37.7650   23.8890   32.6860 C   0  0  0  0  0  0  0  0  0  0  0  0
   36.8230   24.6120   32.0390 C   0  0  0  0  0  0  0  0  0  0  0  0
   35.7440   24.0760   31.4260 C   0  0  0  0  0  0  0  0  0  0  0  0
   35.5610   22.6880   31.4380 C   0  0  0  0  0  0  0  0  0  0  0  0
   36.5060   21.9170   32.0850 C   0  0  0  0  0  0  0  0  0  0  0  0
   36.8290   25.6450   31.8600 H   0  0  0  0  0  0  0  0  0  0  0  0
   34.9380   24.5900   30.8880 H   0  0  0  0  0  0  0  0  0  0  0  0
   34.6980   22.2050   30.9550 H   0  0  0  0  0  0  0  0  0  0  0  0
   36.2850   20.5350   32.0480 O   0  0  0  0  0  0  0  0  0  0  0  0
   35.4040   19.8510   32.8580 C   0  0  0  0  0  0  0  0  0  0  0  0
   35.7000   18.5540   33.1400 F   0  0  0  0  0  0  0  0  0  0  0  0
   35.1520   20.5740   34.0310 F   0  0  0  0  0  0  0  0  0  0  0  0
   34.1720   19.8400   32.1940 F   0  0  0  0  0  0  0  0  0  0  0  0
  1  2  1  0  0  0  0
  1  3  1  0  0  0  0
  1  5  1  0  0  0  0
  4 12  1  0  0  0  0
  4  9  1  0  0  0  0
  5  4  2  0  0  0  0
  6  5  1  0  0  0  0
  6  7  2  0  0  0  0
  7  8  1  0  0  0  0
  8  9  2  0  0  0  0
  8 11  1  0  0  0  0
 10  6  1  0  0  0  0
 12 14  1  0  0  0  0
 12 13  1  0  0  0  0
 13 16  1  0  0  0  0
 13 17  1  0  0  0  0
 14 13  1  0  0  0  0
 14 19  1  0  0  0  0
 15 12  1  0  0  0  0
 18 14  1  0  0  0  0
 20  1  1  0  0  0  0
 21 20  1  0  0  0  0
 22 20  1  0  0  0  0
 24 23  1  0  0  0  0
 25 24  1  0  0  0  0
 25 20  1  0  0  0  0
 26 25  2  0  0  0  0
 27 28  2  0  0  0  0
 27 26  1  0  0  0  0
 28 29  1  0  0  0  0
 29 24  2  0  0  0  0
 30 26  1  0  0  0  0
 31 27  1  0  0  0  0
 32 28  1  0  0  0  0
 33 29  1  0  0  0  0
 33 34  1  0  0  0  0
 34 35  1  0  0  0  0
 34 36  1  0  0  0  0
 37 34  1  0  0  0  0
M  END
>  <minimizedAffinity>
-5.34670544

$$$$

 OpenBabel03272508223D

 37 39  0  0  0  0  0  0  0  0999 V2000
   37.2850   26.9130   31.7750 C   0  0  0  0  0  0  0  0  0  0  0  0
   37.3990   26.6020   30.6860 H   0  0  0  0  0  0  0  0  0  0  0  0
   38.1380   27.6050   31.9200 H   0  0  0  0  0  0  0  0  0  0  0  0
   37.9580   25.7380   33.8270 C   0  0  0  0  0  0  0  0  0  0  0  0
   37.4400   25.7320   32.5610 C   0  0  0  0  0  0  0  0  0  0  0  0
   37.1510   24.4800   32.1120 C   0  0  0  0  0  0  0  0  0  0  0  0
   37.3460   23.3680   32.8150 N   0  0  0  0  0  0  0  0  0  0  0  0
   37.8500   23.3800   34.0400 C   0  0  0  0  0  0  0  0  0  0  0  0
   38.1620   24.5670   34.5580 N   0  0  0  0  0  0  0  0  0  0  0  0
   36.7250   24.3080   31.1110 H   0  0  0  0  0  0  0  0  0  0  0  0
   38.0660   22.5840   34.7250 H   0  0  0  0  0  0  0  0  0  0  0  0
   38.2020   27.0560   34.5620 C   0  0  0  0  0  0  0  0  0  0  0  0
   38.5950   27.1320   35.8890 C   0  0  0  0  0  0  0  0  0  0  0  0
   39.7570   27.0710   34.9040 C   0  0  0  0  0  0  0  0  0  0  0  0
   37.9620   27.9600   34.0590 H   0  0  0  0  0  0  0  0  0  0  0  0
   38.5030   28.0150   36.5180 H   0  0  0  0  0  0  0  0  0  0  0  0
   38.5620   26.2000   36.5330 H   0  0  0  0  0  0  0  0  0  0  0  0
   40.2730   28.0260   34.7640 H   0  0  0  0  0  0  0  0  0  0  0  0
   40.3230   26.1630   34.7890 H   0  0  0  0  0  0  0  0  0  0  0  0
   36.0000   27.6400   31.8770 C   0  0  0  0  0  0  0  0  0  0  0  0
   35.4750   27.2320   32.7920 H   0  0  0  0  0  0  0  0  0  0  0  0
   35.3090   27.3700   31.0470 H   0  0  0  0  0  0  0  0  0  0  0  0
   35.1170   28.7630   34.2510 F   0  0  0  0  0  0  0  0  0  0  0  0
   35.5730   29.5240   33.2280 C   0  0  0  0  0  0  0  0  0  0  0  0
   36.0480   29.0580   32.0030 C   0  0  0  0  0  0  0  0  0  0  0  0
   36.4560   29.9940   31.1160 C   0  0  0  0  0  0  0  0  0  0  0  0
   36.4330   31.3240   31.3520 C   0  0  0  0  0  0  0  0  0  0  0  0
   35.9570   31.8000   32.5800 C   0  0  0  0  0  0  0  0  0  0  0  0
   35.5250   30.8740   33.5080 C   0  0  0  0  0  0  0  0  0  0  0  0
   36.7700   29.8360   30.1280 H   0  0  0  0  0  0  0  0  0  0  0  0
   36.7490   32.1410   30.6920 H   0  0  0  0  0  0  0  0  0  0  0  0
   35.9190   32.8740   32.8190 H   0  0  0  0  0  0  0  0  0  0  0  0
   35.0400   31.4050   34.7080 O   0  0  0  0  0  0  0  0  0  0  0  0
   35.7700   31.5400   35.8690 C   0  0  0  0  0  0  0  0  0  0  0  0
   35.0730   31.6800   37.0290 F   0  0  0  0  0  0  0  0  0  0  0  0
   36.7170   30.5130   35.9750 F   0  0  0  0  0  0  0  0  0  0  0  0
   36.5400   32.7000   35.7290 F   0  0  0  0  0  0  0  0  0  0  0  0
  1 20  1  0  0  0  0
  1  3  1  0  0  0  0
  1  5  1  0  0  0  0
  2  1  1  0  0  0  0
  4  9  1  0  0  0  0
  4 12  1  0  0  0  0
  5  4  2  0  0  0  0
  6  5  1  0  0  0  0
  6  7  2  0  0  0  0
  7  8  1  0  0  0  0
  8  9  2  0  0  0  0
  8 11  1  0  0  0  0
 10  6  1  0  0  0  0
 12 14  1  0  0  0  0
 12 13  1  0  0  0  0
 13 16  1  0  0  0  0
 13 17  1  0  0  0  0
 14 13  1  0  0  0  0
 15 12  1  0  0  0  0
 18 14  1  0  0  0  0
 19 14  1  0  0  0  0
 20 25  1  0  0  0  0
 20 21  1  0  0  0  0
 22 20  1  0  0  0  0
 24 29  1  0  0  0  0
 24 23  1  0  0  0  0
 25 24  2  0  0  0  0
 26 27  2  0  0  0  0
 26 25  1  0  0  0  0
 27 28  1  0  0  0  0
 28 32  1  0  0  0  0
 28 29  2  0  0  0  0
 29 33  1  0  0  0  0
 30 26  1  0  0  0  0
 31 27  1  0  0  0  0
 33 34  1  0  0  0  0
 34 36  1  0  0  0  0
 34 35  1  0  0  0  0
 37 34  1  0  0  0  0
M  END
>  <minimizedAffinity>
-5.34662056

$$$$
