REMARK  Name = 
REMARK  6 active torsions:
REMARK  status: ('A' for Active; 'I' for Inactive)
REMARK    1  A    between atoms: C_1  and  C_3
REMARK    2  A    between atoms: C_1  and  C_11
REMARK    3  A    between atoms: C_2  and  C_8
REMARK    4  A    between atoms: C_11  and  C_14
REMARK    5  A    between atoms: C_18  and  O_19
REMARK    6  A    between atoms: O_19  and  C_34
REMARK                            x       y       z     vdW  Elec       q    Type
REMARK                         _______ _______ _______ _____ _____    ______ ____
ROOT
ATOM      1  C   UNL     1      37.101  29.839  47.093  0.00  0.00    +0.000 C 
ATOM      2  H   UNL     1      37.467  28.899  46.567  0.00  0.00    +0.000 HD
ATOM      3  H   UNL     1      37.178  29.564  48.164  0.00  0.00    +0.000 HD
ENDROOT
BRANCH   1   5
ATOM      4  C   UNL     1      34.700  30.007  47.594  0.00  0.00    +0.000 A 
ATOM      5  C   UNL     1      35.740  30.026  46.706  0.00  0.00    +0.000 A 
ATOM      6  C   UNL     1      35.333  30.178  45.416  0.00  0.00    +0.000 A 
ATOM      7  N   UNL     1      34.063  30.294  45.039  0.00  0.00    +0.000 NA
ATOM      8  C   UNL     1      33.060  30.273  45.904  0.00  0.00    +0.000 A 
ATOM      9  N   UNL     1      33.369  30.128  47.191  0.00  0.00    +0.000 NA
ATOM     10  H   UNL     1      36.052  30.214  44.583  0.00  0.00    +0.000 HD
ATOM     11  H   UNL     1      32.000  30.352  45.761  0.00  0.00    +0.000 HD
BRANCH   4  12
ATOM     12  C   UNL     1      34.962  29.999  49.100  0.00  0.00    +0.000 C 
ATOM     13  C   UNL     1      34.012  29.634  50.041  0.00  0.00    +0.000 C 
ATOM     14  C   UNL     1      34.864  28.473  49.542  0.00  0.00    +0.000 C 
ATOM     15  H   UNL     1      35.886  30.389  49.448  0.00  0.00    +0.000 HD
ATOM     16  H   UNL     1      34.054  29.881  51.100  0.00  0.00    +0.000 HD
ATOM     17  H   UNL     1      32.932  29.509  49.722  0.00  0.00    +0.000 HD
ATOM     18  H   UNL     1      35.614  28.129  50.261  0.00  0.00    +0.000 HD
ATOM     19  H   UNL     1      34.453  27.757  48.851  0.00  0.00    +0.000 HD
ENDBRANCH   4  12
ENDBRANCH   1   5
BRANCH   1  20
ATOM     20  C   UNL     1      38.062  30.914  46.760  0.00  0.00    +0.000 C 
ATOM     21  H   UNL     1      37.609  31.490  45.898  0.00  0.00    +0.000 HD
ATOM     22  H   UNL     1      39.001  30.504  46.325  0.00  0.00    +0.000 HD
BRANCH  20  25
ATOM     23  F   UNL     1      39.572  33.128  46.055  0.00  0.00    +0.000 F 
ATOM     24  C   UNL     1      39.159  32.922  47.328  0.00  0.00    +0.000 A 
ATOM     25  C   UNL     1      38.389  31.852  47.781  0.00  0.00    +0.000 A 
ATOM     26  C   UNL     1      38.086  31.838  49.099  0.00  0.00    +0.000 A 
ATOM     27  C   UNL     1      38.477  32.788  49.977  0.00  0.00    +0.000 A 
ATOM     28  C   UNL     1      39.251  33.866  49.530  0.00  0.00    +0.000 A 
ATOM     29  C   UNL     1      39.585  33.910  48.191  0.00  0.00    +0.000 A 
ATOM     30  H   UNL     1      37.586  31.082  49.626  0.00  0.00    +0.000 HD
ATOM     31  H   UNL     1      38.270  32.852  51.052  0.00  0.00    +0.000 HD
ATOM     32  H   UNL     1      39.593  34.664  50.206  0.00  0.00    +0.000 HD
BRANCH  29  33
ATOM     33  O   UNL     1      40.377  34.997  47.803  0.00  0.00    +0.000 OA
BRANCH  33  34
ATOM     34  C   UNL     1      40.816  35.998  48.642  0.00  0.00    +0.000 C 
ATOM     35  F   UNL     1      39.867  36.740  49.274  0.00  0.00    +0.000 F 
ATOM     36  F   UNL     1      41.751  35.497  49.558  0.00  0.00    +0.000 F 
ATOM     37  F   UNL     1      41.554  36.889  47.854  0.00  0.00    +0.000 F 
ENDBRANCH  33  34
ENDBRANCH  29  33
ENDBRANCH  20  25
ENDBRANCH   1  20
TORSDOF 6
