
 OpenBabel03272508213D

 37 39  0  0  0  0  0  0  0  0999 V2000
   34.0940   28.7080   47.4840 C   0  0  0  0  0  0  0  0  0  0  0  0
   34.4860   27.8690   46.8240 H   0  0  0  0  0  0  0  0  0  0  0  0
   34.0010   28.2170   48.4730 H   0  0  0  0  0  0  0  0  0  0  0  0
   31.6480   28.4820   47.3710 C   0  0  0  0  0  0  0  0  0  0  0  0
   32.8140   29.0750   46.9700 C   0  0  0  0  0  0  0  0  0  0  0  0
   32.6280   30.0000   45.9880 C   0  0  0  0  0  0  0  0  0  0  0  0
   31.4460   30.3060   45.4610 N   0  0  0  0  0  0  0  0  0  0  0  0
   30.3210   29.7270   45.8530 C   0  0  0  0  0  0  0  0  0  0  0  0
   30.4110   28.8080   46.8120 N   0  0  0  0  0  0  0  0  0  0  0  0
   33.4700   30.5650   45.5590 H   0  0  0  0  0  0  0  0  0  0  0  0
   29.3070   29.8610   45.5310 H   0  0  0  0  0  0  0  0  0  0  0  0
   31.6300   27.5300   48.5670 C   0  0  0  0  0  0  0  0  0  0  0  0
   30.5340   26.7570   48.9140 C   0  0  0  0  0  0  0  0  0  0  0  0
   31.4930   26.0700   47.9480 C   0  0  0  0  0  0  0  0  0  0  0  0
   32.4640   27.5380   49.2240 H   0  0  0  0  0  0  0  0  0  0  0  0
   30.3750   26.2990   49.8880 H   0  0  0  0  0  0  0  0  0  0  0  0
   29.5340   26.9540   48.4190 H   0  0  0  0  0  0  0  0  0  0  0  0
   32.1070   25.2900   48.4090 H   0  0  0  0  0  0  0  0  0  0  0  0
   31.2340   25.9690   46.9080 H   0  0  0  0  0  0  0  0  0  0  0  0
   35.1440   29.7510   47.5150 C   0  0  0  0  0  0  0  0  0  0  0  0
   34.6290   30.7280   47.2710 H   0  0  0  0  0  0  0  0  0  0  0  0
   35.8670   29.6290   46.6780 H   0  0  0  0  0  0  0  0  0  0  0  0
   37.3470   31.4310   47.4840 F   0  0  0  0  0  0  0  0  0  0  0  0
   36.9570   30.7870   48.6090 C   0  0  0  0  0  0  0  0  0  0  0  0
   35.8610   29.9340   48.7320 C   0  0  0  0  0  0  0  0  0  0  0  0
   35.6490   29.3910   49.9530 C   0  0  0  0  0  0  0  0  0  0  0  0
   36.4230   29.6320   51.0340 C   0  0  0  0  0  0  0  0  0  0  0  0
   37.5250   30.4870   50.9190 C   0  0  0  0  0  0  0  0  0  0  0  0
   37.7760   31.0550   49.6860 C   0  0  0  0  0  0  0  0  0  0  0  0
   34.9270   28.6760   50.2110 H   0  0  0  0  0  0  0  0  0  0  0  0
   36.3160   29.2380   52.0520 H   0  0  0  0  0  0  0  0  0  0  0  0
   38.1840   30.7140   51.7710 H   0  0  0  0  0  0  0  0  0  0  0  0
   38.9020   31.8840   49.6220 O   0  0  0  0  0  0  0  0  0  0  0  0
   38.8730   33.2490   49.4350 C   0  0  0  0  0  0  0  0  0  0  0  0
   39.6030   34.0100   50.2940 F   0  0  0  0  0  0  0  0  0  0  0  0
   39.1740   33.5690   48.1050 F   0  0  0  0  0  0  0  0  0  0  0  0
   37.5400   33.6480   49.5890 F   0  0  0  0  0  0  0  0  0  0  0  0
  1 20  1  0  0  0  0
  1  3  1  0  0  0  0
  2  1  1  0  0  0  0
  4 12  1  0  0  0  0
  5  4  1  0  0  0  0
  5  1  1  0  0  0  0
  6  5  2  0  0  0  0
  7  8  2  0  0  0  0
  7  6  1  0  0  0  0
  8  9  1  0  0  0  0
  9  4  2  0  0  0  0
 10  6  1  0  0  0  0
 11  8  1  0  0  0  0
 12 13  1  0  0  0  0
 12 15  1  0  0  0  0
 13 16  1  0  0  0  0
 14 18  1  0  0  0  0
 14 12  1  0  0  0  0
 14 13  1  0  0  0  0
 17 13  1  0  0  0  0
 19 14  1  0  0  0  0
 20 25  1  0  0  0  0
 21 20  1  0  0  0  0
 22 20  1  0  0  0  0
 23 24  1  0  0  0  0
 24 25  2  0  0  0  0
 24 29  1  0  0  0  0
 25 26  1  0  0  0  0
 26 30  1  0  0  0  0
 26 27  2  0  0  0  0
 27 31  1  0  0  0  0
 28 27  1  0  0  0  0
 28 32  1  0  0  0  0
 29 28  2  0  0  0  0
 33 29  1  0  0  0  0
 34 37  1  0  0  0  0
 34 33  1  0  0  0  0
 34 35  1  0  0  0  0
 36 34  1  0  0  0  0
M  END
>  <minimizedAffinity>
-6.3417902

>  <minimizedRMSD>
3.60515714

$$$$
