
 OpenBabel03272510243D

 27 29  0  0  0  0  0  0  0  0999 V2000
   35.3940   30.0010   47.1450 C   0  0  0  0  0  0  0  0  0  0  0  0
   36.6380   30.2330   47.6950 C   0  0  0  0  0  0  0  0  0  0  0  0
   37.7060   30.5740   46.8970 C   0  0  0  0  0  0  0  0  0  0  0  0
   37.4750   30.6730   45.5270 C   0  0  0  0  0  0  0  0  0  0  0  0
   38.3680   30.9940   44.5410 N   0  0  0  0  0  0  0  0  0  0  0  0
   37.6860   30.9620   43.3990 C   0  0  0  0  0  0  0  0  0  0  0  0
   36.4170   30.6410   43.5970 N   0  0  0  0  0  0  0  0  0  0  0  0
   36.2470   30.4510   44.9350 C   0  0  0  0  0  0  0  0  0  0  0  0
   35.1850   30.1070   45.7710 C   0  0  0  0  0  0  0  0  0  0  0  0
   34.5200   29.7290   47.7370 H   0  0  0  0  0  0  0  0  0  0  0  0
   38.6800   30.7550   47.3250 H   0  0  0  0  0  0  0  0  0  0  0  0
   39.3870   31.2160   44.7080 H   0  0  0  0  0  0  0  0  0  0  0  0
   34.2230   29.9300   45.3180 H   0  0  0  0  0  0  0  0  0  0  0  0
   37.8580   30.3610   51.2500 C   0  0  0  0  0  0  0  0  0  0  0  0
   37.8560   30.5490   49.8720 C   0  0  0  0  0  0  0  0  0  0  0  0
   36.7710   30.1020   49.1370 C   0  0  0  0  0  0  0  0  0  0  0  0
   35.7430   29.4890   49.8140 N   0  0  0  0  0  0  0  0  0  0  0  0
   35.7690   29.3170   51.1600 C   0  0  0  0  0  0  0  0  0  0  0  0
   36.8120   29.7490   51.8610 N   0  0  0  0  0  0  0  0  0  0  0  0
   38.6920   30.7010   51.8500 H   0  0  0  0  0  0  0  0  0  0  0  0
   38.6570   31.0260   49.3510 H   0  0  0  0  0  0  0  0  0  0  0  0
   34.8860   28.8180   51.5420 H   0  0  0  0  0  0  0  0  0  0  0  0
   38.2930   31.2430   42.1750 O   0  0  0  0  0  0  0  0  0  0  0  0
   39.2510   32.2400   41.9970 C   0  0  0  0  0  0  0  0  0  0  0  0
   38.8490   33.3780   42.6730 F   0  0  0  0  0  0  0  0  0  0  0  0
   39.3680   32.6030   40.6590 F   0  0  0  0  0  0  0  0  0  0  0  0
   40.4620   31.7680   42.4670 F   0  0  0  0  0  0  0  0  0  0  0  0
  1  2  1  0  0  0  0
  1 10  1  0  0  0  0
  2 16  1  0  0  0  0
  3 11  1  0  0  0  0
  3  2  2  0  0  0  0
  4  3  1  0  0  0  0
  5 12  1  0  0  0  0
  5  4  1  0  0  0  0
  6  7  2  0  0  0  0
  6  5  1  0  0  0  0
  7  8  1  0  0  0  0
  8  4  2  0  0  0  0
  8  9  1  0  0  0  0
  9  1  2  0  0  0  0
 13  9  1  0  0  0  0
 14 20  1  0  0  0  0
 14 19  1  0  0  0  0
 15 14  2  0  0  0  0
 16 17  2  0  0  0  0
 16 15  1  0  0  0  0
 17 18  1  0  0  0  0
 18 22  1  0  0  0  0
 18 19  2  0  0  0  0
 21 15  1  0  0  0  0
 23  6  1  0  0  0  0
 24 23  1  0  0  0  0
 24 27  1  0  0  0  0
 24 25  1  0  0  0  0
 26 24  1  0  0  0  0
M  END
>  <minimizedAffinity>
-4.8713479

>  <minimizedRMSD>
2.87823677

$$$$
