
 OpenBabel03272504213D

 34 35  0  0  1  0  0  0  0  0999 V2000
   35.9340   29.7990   46.9140 O   0  0  0  0  0  0  0  0  0  0  0  0
   35.9940   30.1750   48.3740 P   0  0  2  0  0  0  0  0  0  0  0  0
   36.7840   28.8970   49.2050 O   0  0  0  0  0  0  0  0  0  0  0  0
   37.1450   29.2980   50.0480 H   0  0  0  0  0  0  0  0  0  0  0  0
   34.4250   30.3580   49.0030 O   0  0  0  0  0  0  0  0  0  0  0  0
   34.1570   29.2370   49.7620 C   0  0  0  0  0  0  0  0  0  0  0  0
   33.5730   29.5930   50.6580 H   0  0  0  0  0  0  0  0  0  0  0  0
   35.0850   28.7870   50.1430 H   0  0  0  0  0  0  0  0  0  0  0  0
   33.2910   28.2540   49.0760 C   0  0  0  0  0  0  0  0  0  0  0  0
   33.9140   27.3480   48.2500 C   0  0  0  0  0  0  0  0  0  0  0  0
   33.1500   26.3930   47.5730 C   0  0  0  0  0  0  0  0  0  0  0  0
   31.8040   26.4210   47.7820 N   0  0  0  0  0  0  0  0  0  0  0  0
   31.2170   27.3180   48.5960 C   0  0  0  0  0  0  0  0  0  0  0  0
   31.9560   28.2410   49.2510 N   0  0  0  0  0  0  0  0  0  0  0  0
   34.9590   27.2500   48.0250 H   0  0  0  0  0  0  0  0  0  0  0  0
   33.5350   25.6470   46.9100 H   0  0  0  0  0  0  0  0  0  0  0  0
   30.1450   27.2520   48.6910 H   0  0  0  0  0  0  0  0  0  0  0  0
   36.8600   31.6020   48.5490 O   0  0  0  0  0  0  0  0  0  0  0  0
   38.9060   32.4400   47.8280 C   0  0  2  0  0  0  0  0  0  0  0  0
   38.2280   31.3840   48.6700 C   0  0  1  0  0  0  0  0  0  0  0  0
   38.6860   31.8830   50.0540 C   0  0  0  0  0  0  0  0  0  0  0  0
   38.3610   33.2270   49.9730 O   0  0  0  0  0  0  0  0  0  0  0  0
   38.6640   33.6770   48.7070 C   0  0  0  0  0  0  0  0  0  0  0  0
   39.9760   32.2610   47.6850 H   0  0  0  0  0  0  0  0  0  0  0  0
   38.5460   30.3600   48.4730 H   0  0  0  0  0  0  0  0  0  0  0  0
   38.1560   31.3930   50.8690 H   0  0  0  0  0  0  0  0  0  0  0  0
   39.7740   31.6910   50.1200 H   0  0  0  0  0  0  0  0  0  0  0  0
   39.6310   34.2220   48.7430 H   0  0  0  0  0  0  0  0  0  0  0  0
   37.8770   34.3110   48.2790 H   0  0  0  0  0  0  0  0  0  0  0  0
   38.2400   32.5100   46.6160 O   0  0  0  0  0  0  0  0  0  0  0  0
   39.0990   32.6660   45.5370 C   0  0  0  0  0  0  0  0  0  0  0  0
   38.3360   33.0020   44.4190 F   0  0  0  0  0  0  0  0  0  0  0  0
   40.0810   33.6040   45.7670 F   0  0  0  0  0  0  0  0  0  0  0  0
   39.6640   31.4330   45.2670 F   0  0  0  0  0  0  0  0  0  0  0  0
  2  1  2  6  0  0  0
  2 18  1  0  0  0  0
  2  5  1  0  0  0  0
  2  3  1  0  0  0  0
  3  4  1  0  0  0  0
  5  6  1  0  0  0  0
  6  8  1  0  0  0  0
  6  7  1  0  0  0  0
  9 14  1  0  0  0  0
  9  6  1  0  0  0  0
 10  9  2  0  0  0  0
 11 12  2  0  0  0  0
 11 10  1  0  0  0  0
 12 13  1  0  0  0  0
 13 17  1  0  0  0  0
 13 14  2  0  0  0  0
 15 10  1  0  0  0  0
 16 11  1  0  0  0  0
 18 20  1  0  0  0  0
 19 24  1  6  0  0  0
 19 20  1  0  0  0  0
 19 23  1  0  0  0  0
 20 25  1  6  0  0  0
 20 21  1  0  0  0  0
 21 27  1  0  0  0  0
 21 26  1  0  0  0  0
 22 21  1  0  0  0  0
 23 28  1  0  0  0  0
 23 22  1  0  0  0  0
 29 23  1  0  0  0  0
 30 19  1  0  0  0  0
 31 33  1  0  0  0  0
 31 30  1  0  0  0  0
 32 31  1  0  0  0  0
 34 31  1  0  0  0  0
M  END
>  <minimizedAffinity>
-4.46105433

>  <minimizedRMSD>
0.288560688

$$$$
