
 OpenBabel03272510243D

 27 29  0  0  0  0  0  0  0  0999 V2000
   36.1200   30.2330   46.1810 C   0  0  0  0  0  0  0  0  0  0  0  0
   37.1580   31.0330   46.6110 C   0  0  0  0  0  0  0  0  0  0  0  0
   37.8120   31.8680   45.7330 C   0  0  0  0  0  0  0  0  0  0  0  0
   37.3830   31.8650   44.4080 C   0  0  0  0  0  0  0  0  0  0  0  0
   37.8700   32.6000   43.3610 N   0  0  0  0  0  0  0  0  0  0  0  0
   37.1440   32.2580   42.3000 C   0  0  0  0  0  0  0  0  0  0  0  0
   36.2260   31.3540   42.6070 N   0  0  0  0  0  0  0  0  0  0  0  0
   36.3490   31.0810   43.9350 C   0  0  0  0  0  0  0  0  0  0  0  0
   35.7060   30.2470   44.8500 C   0  0  0  0  0  0  0  0  0  0  0  0
   35.5740   29.5570   46.8390 H   0  0  0  0  0  0  0  0  0  0  0  0
   38.6250   32.4940   46.0680 H   0  0  0  0  0  0  0  0  0  0  0  0
   38.6670   33.2880   43.4350 H   0  0  0  0  0  0  0  0  0  0  0  0
   34.8990   29.6310   44.4900 H   0  0  0  0  0  0  0  0  0  0  0  0
   38.6040   31.6920   50.0190 C   0  0  0  0  0  0  0  0  0  0  0  0
   38.3270   31.8810   48.6700 C   0  0  0  0  0  0  0  0  0  0  0  0
   37.5280   30.9590   48.0150 C   0  0  0  0  0  0  0  0  0  0  0  0
   37.0460   29.8940   48.7400 N   0  0  0  0  0  0  0  0  0  0  0  0
   37.3330   29.7320   50.0570 C   0  0  0  0  0  0  0  0  0  0  0  0
   38.0990   30.6200   50.6810 N   0  0  0  0  0  0  0  0  0  0  0  0
   39.2260   32.3970   50.5570 H   0  0  0  0  0  0  0  0  0  0  0  0
   38.7030   32.7100   48.1120 H   0  0  0  0  0  0  0  0  0  0  0  0
   36.8800   28.8450   50.4840 H   0  0  0  0  0  0  0  0  0  0  0  0
   37.3710   32.8210   41.0450 O   0  0  0  0  0  0  0  0  0  0  0  0
   38.5600   33.4530   40.6830 C   0  0  0  0  0  0  0  0  0  0  0  0
   38.2720   34.5110   39.8410 F   0  0  0  0  0  0  0  0  0  0  0  0
   39.3950   32.6000   39.9650 F   0  0  0  0  0  0  0  0  0  0  0  0
   39.1950   33.8770   41.8360 F   0  0  0  0  0  0  0  0  0  0  0  0
  1  2  1  0  0  0  0
  1 10  1  0  0  0  0
  2 16  1  0  0  0  0
  3 11  1  0  0  0  0
  3  2  2  0  0  0  0
  4  3  1  0  0  0  0
  5 12  1  0  0  0  0
  5  4  1  0  0  0  0
  6  7  2  0  0  0  0
  6  5  1  0  0  0  0
  7  8  1  0  0  0  0
  8  4  2  0  0  0  0
  8  9  1  0  0  0  0
  9  1  2  0  0  0  0
 13  9  1  0  0  0  0
 14 20  1  0  0  0  0
 14 19  1  0  0  0  0
 15 14  2  0  0  0  0
 16 15  1  0  0  0  0
 16 17  2  0  0  0  0
 17 18  1  0  0  0  0
 18 22  1  0  0  0  0
 18 19  2  0  0  0  0
 21 15  1  0  0  0  0
 23  6  1  0  0  0  0
 24 23  1  0  0  0  0
 24 27  1  0  0  0  0
 25 24  1  0  0  0  0
 26 24  1  0  0  0  0
M  END
>  <minimizedAffinity>
-4.49223089

>  <minimizedRMSD>
3.38697457

$$$$
