
     RDKit          3D

 21 22  0  0  0  0  0  0  0  0999 V2000
   37.5243   31.4011   49.3270 C   0  0  0  0  0  0  0  0  0  0  0  0
   38.1554   32.6425   49.4069 C   0  0  0  0  0  0  0  0  0  0  0  0
   38.9507   32.9873   48.3022 C   0  0  0  0  0  0  0  0  0  0  0  0
   39.0624   32.1191   47.2413 N   0  0  0  0  0  0  0  0  0  0  0  0
   38.4234   30.9214   47.2196 C   0  0  0  0  0  0  0  0  0  0  0  0
   37.6438   30.5596   48.2793 N   0  0  0  0  0  0  0  0  0  0  0  0
   36.6423   31.0360   50.4901 C   0  0  1  0  0  0  0  0  0  0  0  0
   36.1315   29.6944   50.6565 C   0  0  2  0  0  0  0  0  0  0  0  0
   37.3381   30.0971   51.4830 C   0  0  0  0  0  0  0  0  0  0  0  0
   36.4041   28.7295   49.6731 O   0  0  0  0  0  0  0  0  0  0  0  0
   38.0370   33.2917   50.2637 H   0  0  0  0  0  0  0  0  0  0  0  0
   39.4688   33.9340   48.2961 H   0  0  0  0  0  0  0  0  0  0  0  0
   38.5689   30.3037   46.3447 H   0  0  0  0  0  0  0  0  0  0  0  0
   36.1491   31.9192   50.9596 H   0  0  0  0  0  0  0  0  0  0  0  0
   35.1714   29.5288   51.1729 H   0  0  0  0  0  0  0  0  0  0  0  0
   38.3394   29.7208   51.2478 H   0  0  0  0  0  0  0  0  0  0  0  0
   37.1150   30.2696   52.5393 H   0  0  0  0  0  0  0  0  0  0  0  0
   35.3501   27.8053   49.6262 C   0  0  0  0  0  0  0  0  0  0  0  0
   35.6609   26.8734   48.6442 F   0  0  0  0  0  0  0  0  0  0  0  0
   35.2406   27.1908   50.8472 F   0  0  0  0  0  0  0  0  0  0  0  0
   34.1567   28.4357   49.2756 F   0  0  0  0  0  0  0  0  0  0  0  0
  1  2  2  0
  1  7  1  0
  3  2  1  0
  4  3  2  0
  5  4  1  0
  5  6  2  0
  6  1  1  0
  7  8  1  0
  7  9  1  0
  8  9  1  0
 10  8  1  0
  2 11  1  0
  3 12  1  0
  5 13  1  0
  7 14  1  1
  8 15  1  1
  9 16  1  0
  9 17  1  0
 18 19  1  0
 18 20  1  0
 18 21  1  0
 10 18  1  0
M  ISO  7  11  14  12  14  13  14  14  13  15  13  16  13  17  13
M  END
>  <DihAtoms>  (1) 
7,9,17,18

>  <DihDeg>  (1) 
60.00208929534208

$$$$
