
 OpenBabel03272510243D

 27 29  0  0  0  0  0  0  0  0999 V2000
   35.8870   30.1400   45.6440 C   0  0  0  0  0  0  0  0  0  0  0  0
   35.6880   30.0970   47.0090 C   0  0  0  0  0  0  0  0  0  0  0  0
   36.5010   30.8110   47.8600 C   0  0  0  0  0  0  0  0  0  0  0  0
   37.5220   31.5660   47.2860 C   0  0  0  0  0  0  0  0  0  0  0  0
   38.4490   32.3500   47.9180 N   0  0  0  0  0  0  0  0  0  0  0  0
   39.2090   32.8690   46.9570 C   0  0  0  0  0  0  0  0  0  0  0  0
   38.8240   32.4650   45.7570 N   0  0  0  0  0  0  0  0  0  0  0  0
   37.7560   31.6370   45.9270 C   0  0  0  0  0  0  0  0  0  0  0  0
   36.9140   30.9030   45.0920 C   0  0  0  0  0  0  0  0  0  0  0  0
   35.2690   29.5920   44.9330 H   0  0  0  0  0  0  0  0  0  0  0  0
   36.3470   30.7780   48.9270 H   0  0  0  0  0  0  0  0  0  0  0  0
   38.5050   32.4830   48.9640 H   0  0  0  0  0  0  0  0  0  0  0  0
   37.0900   30.9520   44.0300 H   0  0  0  0  0  0  0  0  0  0  0  0
   33.2750   28.1990   49.1800 C   0  0  0  0  0  0  0  0  0  0  0  0
   34.3590   29.0000   48.8400 C   0  0  0  0  0  0  0  0  0  0  0  0
   34.5950   29.2760   47.5040 C   0  0  0  0  0  0  0  0  0  0  0  0
   33.7360   28.7390   46.5740 N   0  0  0  0  0  0  0  0  0  0  0  0
   32.6850   27.9580   46.9320 C   0  0  0  0  0  0  0  0  0  0  0  0
   32.4630   27.6970   48.2150 N   0  0  0  0  0  0  0  0  0  0  0  0
   33.0660   27.9660   50.2160 H   0  0  0  0  0  0  0  0  0  0  0  0
   35.0220   29.4160   49.5670 H   0  0  0  0  0  0  0  0  0  0  0  0
   32.1050   27.6120   46.0840 H   0  0  0  0  0  0  0  0  0  0  0  0
   40.2680   33.7290   47.2460 O   0  0  0  0  0  0  0  0  0  0  0  0
   40.3030   34.5680   48.3590 C   0  0  0  0  0  0  0  0  0  0  0  0
   39.7700   33.8980   49.4470 F   0  0  0  0  0  0  0  0  0  0  0  0
   39.5110   35.6980   48.1740 F   0  0  0  0  0  0  0  0  0  0  0  0
   41.6150   34.9420   48.5820 F   0  0  0  0  0  0  0  0  0  0  0  0
  1  2  1  0  0  0  0
  2 16  1  0  0  0  0
  2  3  2  0  0  0  0
  3 11  1  0  0  0  0
  4  3  1  0  0  0  0
  4  5  1  0  0  0  0
  5 12  1  0  0  0  0
  6 23  1  0  0  0  0
  6  5  1  0  0  0  0
  7  8  1  0  0  0  0
  7  6  2  0  0  0  0
  8  4  2  0  0  0  0
  9  1  2  0  0  0  0
  9  8  1  0  0  0  0
 10  1  1  0  0  0  0
 13  9  1  0  0  0  0
 14 20  1  0  0  0  0
 15 14  1  0  0  0  0
 15 21  1  0  0  0  0
 16 15  2  0  0  0  0
 17 18  2  0  0  0  0
 17 16  1  0  0  0  0
 18 19  1  0  0  0  0
 19 14  2  0  0  0  0
 22 18  1  0  0  0  0
 23 24  1  0  0  0  0
 24 27  1  0  0  0  0
 24 25  1  0  0  0  0
 26 24  1  0  0  0  0
M  END
>  <minimizedAffinity>
-4.28059196

>  <minimizedRMSD>
3.37353134

$$$$
