
 OpenBabel03272506423D

 27 28  0  0  1  0  0  0  0  0999 V2000
   32.3480   28.3370   47.4720 C   0  0  2  0  0  0  0  0  0  0  0  0
   33.5670   28.3630   48.3680 C   0  0  1  0  0  0  0  0  0  0  0  0
   34.1150   27.1090   48.3790 O   0  0  0  0  0  0  0  0  0  0  0  0
   33.5230   26.3460   47.3780 C   0  0  0  0  0  0  0  0  0  0  0  0
   32.8410   27.3280   46.4410 C   0  0  1  0  0  0  0  0  0  0  0  0
   31.4450   28.0120   47.9920 H   0  0  0  0  0  0  0  0  0  0  0  0
   33.3100   28.7100   49.4000 H   0  0  0  0  0  0  0  0  0  0  0  0
   34.2440   25.7040   46.8490 H   0  0  0  0  0  0  0  0  0  0  0  0
   32.6980   25.7550   47.8550 H   0  0  0  0  0  0  0  0  0  0  0  0
   33.5490   27.8520   45.7730 H   0  0  0  0  0  0  0  0  0  0  0  0
   32.1230   29.5910   46.8910 O   0  0  0  0  0  0  0  0  0  0  0  0
   32.9920   29.9430   46.5690 H   0  0  0  0  0  0  0  0  0  0  0  0
   34.7740   29.4970   47.6000 S   0  0  0  0  0  0  0  0  0  0  0  0
   37.3400   29.3270   50.6240 C   0  0  0  0  0  0  0  0  0  0  0  0
   37.8340   30.6380   50.7540 C   0  0  0  0  0  0  0  0  0  0  0  0
   37.3410   31.6090   49.8570 C   0  0  0  0  0  0  0  0  0  0  0  0
   36.4310   31.2340   48.9320 N   0  0  0  0  0  0  0  0  0  0  0  0
   35.9820   29.9600   48.8410 C   0  0  0  0  0  0  0  0  0  0  0  0
   36.4290   29.0070   49.6790 N   0  0  0  0  0  0  0  0  0  0  0  0
   37.6640   28.5220   51.2710 H   0  0  0  0  0  0  0  0  0  0  0  0
   38.5560   30.8640   51.5130 H   0  0  0  0  0  0  0  0  0  0  0  0
   37.6880   32.6120   49.9210 H   0  0  0  0  0  0  0  0  0  0  0  0
   31.7960   26.7000   45.7780 O   0  0  0  0  0  0  0  0  0  0  0  0
   31.6810   27.1010   44.4590 C   0  0  0  0  0  0  0  0  0  0  0  0
   30.7030   28.0810   44.3970 F   0  0  0  0  0  0  0  0  0  0  0  0
   32.8670   27.7430   44.1290 F   0  0  0  0  0  0  0  0  0  0  0  0
   31.3870   26.1050   43.5770 F   0  0  0  0  0  0  0  0  0  0  0  0
  1  6  1  1  0  0  0
  1  2  1  0  0  0  0
  2  3  1  0  0  0  0
  2  7  1  1  0  0  0
  4  9  1  0  0  0  0
  4  3  1  0  0  0  0
  5 10  1  6  0  0  0
  5  4  1  0  0  0  0
  5  1  1  0  0  0  0
  8  4  1  0  0  0  0
 11  1  1  0  0  0  0
 12 11  1  0  0  0  0
 13  2  1  0  0  0  0
 13 18  1  0  0  0  0
 14 15  1  0  0  0  0
 14 20  1  0  0  0  0
 15 21  1  0  0  0  0
 16 22  1  0  0  0  0
 16 15  2  0  0  0  0
 17 16  1  0  0  0  0
 18 17  2  0  0  0  0
 18 19  1  0  0  0  0
 19 14  2  0  0  0  0
 23  5  1  0  0  0  0
 24 23  1  0  0  0  0
 25 24  1  0  0  0  0
 26 24  1  0  0  0  0
 27 24  1  0  0  0  0
M  END
>  <minimizedAffinity>
-3.7359395

>  <minimizedRMSD>
0.282184213

$$$$
