
 OpenBabel03272500043D

 24 25  0  0  0  0  0  0  0  0999 V2000
   36.1780   29.2670   49.3210 C   0  0  0  0  0  0  0  0  0  0  0  0
   36.0060   30.4060   48.5100 C   0  0  0  0  0  0  0  0  0  0  0  0
   34.8730   30.4720   47.7110 C   0  0  0  0  0  0  0  0  0  0  0  0
   33.9750   29.4530   47.7340 N   0  0  0  0  0  0  0  0  0  0  0  0
   34.1550   28.3760   48.5150 C   0  0  0  0  0  0  0  0  0  0  0  0
   35.2660   28.2750   49.3200 N   0  0  0  0  0  0  0  0  0  0  0  0
   37.0430   29.1770   49.9570 H   0  0  0  0  0  0  0  0  0  0  0  0
   34.7310   31.3400   47.0850 H   0  0  0  0  0  0  0  0  0  0  0  0
   37.0010   31.4150   48.5570 N   0  0  0  0  0  0  0  0  0  0  0  0
   37.2100   32.1780   49.6420 C   0  0  0  0  0  0  0  0  0  0  0  0
   38.2020   33.1550   49.6330 C   0  0  0  0  0  0  0  0  0  0  0  0
   38.9030   33.2450   48.4500 C   0  0  0  0  0  0  0  0  0  0  0  0
   39.8080   34.1360   48.4390 O   0  0  0  0  0  0  0  0  0  0  0  0
   38.7270   32.5120   47.3570 N   0  0  0  0  0  0  0  0  0  0  0  0
   37.7480   31.5820   47.4360 C   0  0  0  0  0  0  0  0  0  0  0  0
   37.5720   30.8720   46.3860 O   0  0  0  0  0  0  0  0  0  0  0  0
   36.5860   32.0030   50.5110 H   0  0  0  0  0  0  0  0  0  0  0  0
   38.3810   33.7710   50.4890 H   0  0  0  0  0  0  0  0  0  0  0  0
   39.3090   32.6470   46.4940 H   0  0  0  0  0  0  0  0  0  0  0  0
   33.2640   27.3100   48.5710 O   0  0  0  0  0  0  0  0  0  0  0  0
   33.0870   26.4220   47.4730 C   0  0  0  0  0  0  0  0  0  0  0  0
   32.2550   27.0040   46.5280 F   0  0  0  0  0  0  0  0  0  0  0  0
   34.2990   26.1310   46.9280 F   0  0  0  0  0  0  0  0  0  0  0  0
   32.4520   25.2760   47.9500 F   0  0  0  0  0  0  0  0  0  0  0  0
  1  7  1  0  0  0  0
  2  9  1  0  0  0  0
  2  1  2  0  0  0  0
  3  4  2  0  0  0  0
  3  2  1  0  0  0  0
  4  5  1  0  0  0  0
  5 20  1  0  0  0  0
  5  6  2  0  0  0  0
  6  1  1  0  0  0  0
  8  3  1  0  0  0  0
  9 10  1  0  0  0  0
 10 17  1  0  0  0  0
 11 10  2  0  0  0  0
 11 18  1  0  0  0  0
 12 11  1  0  0  0  0
 13 12  2  0  0  0  0
 14 15  1  0  0  0  0
 14 12  1  0  0  0  0
 15  9  1  0  0  0  0
 16 15  2  0  0  0  0
 19 14  1  0  0  0  0
 21 24  1  0  0  0  0
 21 20  1  0  0  0  0
 22 21  1  0  0  0  0
 23 21  1  0  0  0  0
M  END
>  <minimizedAffinity>
-5.05298233

>  <minimizedRMSD>
0.331178516

$$$$
