
 OpenBabel03272506203D

 39 41  0  0  1  0  0  0  0  0999 V2000
   38.4270   31.9340   43.7350 C   0  0  2  0  0  0  0  0  0  0  0  0
   38.7120   32.7840   44.9480 C   0  0  0  0  0  0  0  0  0  0  0  0
   40.1590   33.0590   45.1400 C   0  0  0  0  0  0  0  0  0  0  0  0
   41.0070   31.8360   45.1650 C   0  0  0  0  0  0  0  0  0  0  0  0
   40.6700   30.8550   44.1170 C   0  0  0  0  0  0  0  0  0  0  0  0
   39.6070   31.3140   43.1200 C   0  0  1  0  0  0  0  0  0  0  0  0
   37.6700   31.1320   43.9830 H   0  0  0  0  0  0  0  0  0  0  0  0
   38.3820   32.1780   45.8420 H   0  0  0  0  0  0  0  0  0  0  0  0
   38.1430   33.7130   45.0100 H   0  0  0  0  0  0  0  0  0  0  0  0
   40.4670   33.7270   44.2800 H   0  0  0  0  0  0  0  0  0  0  0  0
   40.2660   33.6220   46.0870 H   0  0  0  0  0  0  0  0  0  0  0  0
   42.0810   32.1780   45.1090 H   0  0  0  0  0  0  0  0  0  0  0  0
   40.9140   31.3780   46.1910 H   0  0  0  0  0  0  0  0  0  0  0  0
   40.3490   29.8650   44.5440 H   0  0  0  0  0  0  0  0  0  0  0  0
   41.5770   30.6460   43.4930 H   0  0  0  0  0  0  0  0  0  0  0  0
   40.0940   32.0060   42.4150 H   0  0  0  0  0  0  0  0  0  0  0  0
   37.7410   32.7710   42.6860 C   0  0  0  0  0  0  0  0  0  0  0  0
   36.3590   32.8910   42.8230 C   0  0  0  0  0  0  0  0  0  0  0  0
   35.6750   33.6480   41.8660 C   0  0  0  0  0  0  0  0  0  0  0  0
   36.4060   34.2310   40.8440 N   0  0  0  0  0  0  0  0  0  0  0  0
   37.7590   34.0830   40.7530 C   0  0  0  0  0  0  0  0  0  0  0  0
   38.3960   33.3680   41.6620 N   0  0  0  0  0  0  0  0  0  0  0  0
   34.2770   33.8360   41.9250 N   0  0  0  0  0  0  0  0  0  0  0  0
   33.6710   34.4220   43.0040 C   0  0  0  0  0  0  0  0  0  0  0  0
   32.3060   34.5920   43.0340 C   0  0  0  0  0  0  0  0  0  0  0  0
   31.5740   34.1620   41.9600 C   0  0  0  0  0  0  0  0  0  0  0  0
   30.3210   34.3200   41.9900 O   0  0  0  0  0  0  0  0  0  0  0  0
   32.1710   33.5850   40.8970 N   0  0  0  0  0  0  0  0  0  0  0  0
   33.5110   33.4410   40.9150 C   0  0  0  0  0  0  0  0  0  0  0  0
   33.9710   32.8870   39.8690 O   0  0  0  0  0  0  0  0  0  0  0  0
   35.7220   32.4670   43.5830 H   0  0  0  0  0  0  0  0  0  0  0  0
   38.2680   34.5700   39.9230 H   0  0  0  0  0  0  0  0  0  0  0  0
   34.3340   34.7340   43.8170 H   0  0  0  0  0  0  0  0  0  0  0  0
   31.8930   35.0630   43.9190 H   0  0  0  0  0  0  0  0  0  0  0  0
   31.5550   33.2810   40.1140 H   0  0  0  0  0  0  0  0  0  0  0  0
   39.2320   30.0590   42.3380 C   0  0  0  0  0  0  0  0  0  0  0  0
   39.2620   30.3620   40.9850 F   0  0  0  0  0  0  0  0  0  0  0  0
   40.2240   29.0850   42.5010 F   0  0  0  0  0  0  0  0  0  0  0  0
   38.0030   29.5630   42.6410 F   0  0  0  0  0  0  0  0  0  0  0  0
  1  7  1  1  0  0  0
  1  2  1  0  0  0  0
  2  9  1  0  0  0  0
  2  3  1  0  0  0  0
  2  8  1  0  0  0  0
  3  4  1  0  0  0  0
  3 11  1  0  0  0  0
  4 13  1  0  0  0  0
  5 14  1  0  0  0  0
  5  4  1  0  0  0  0
  6 16  1  6  0  0  0
  6  1  1  0  0  0  0
  6  5  1  0  0  0  0
 10  3  1  0  0  0  0
 12  4  1  0  0  0  0
 15  5  1  0  0  0  0
 17 18  1  0  0  0  0
 17  1  1  0  0  0  0
 18 31  1  0  0  0  0
 19 23  1  0  0  0  0
 19 18  2  0  0  0  0
 20 19  1  0  0  0  0
 21 20  2  0  0  0  0
 21 22  1  0  0  0  0
 22 17  2  0  0  0  0
 23 24  1  0  0  0  0
 24 25  2  0  0  0  0
 24 33  1  0  0  0  0
 25 34  1  0  0  0  0
 26 27  2  0  0  0  0
 26 25  1  0  0  0  0
 28 29  1  0  0  0  0
 28 26  1  0  0  0  0
 29 23  1  0  0  0  0
 30 29  2  0  0  0  0
 32 21  1  0  0  0  0
 35 28  1  0  0  0  0
 36 38  1  0  0  0  0
 36 39  1  0  0  0  0
 36  6  1  0  0  0  0
 37 36  1  0  0  0  0
M  END
>  <minimizedAffinity>
-4.95355701

>  <minimizedRMSD>
7.75694275

$$$$
