
 OpenBabel03272506203D

 39 41  0  0  1  0  0  0  0  0999 V2000
   37.6900   30.3330   43.2700 C   0  0  2  0  0  0  0  0  0  0  0  0
   38.9220   29.4660   43.3480 C   0  0  0  0  0  0  0  0  0  0  0  0
   40.1860   30.2450   43.3040 C   0  0  0  0  0  0  0  0  0  0  0  0
   40.2850   31.1680   42.1400 C   0  0  0  0  0  0  0  0  0  0  0  0
   39.0500   31.9270   41.8740 C   0  0  0  0  0  0  0  0  0  0  0  0
   37.9360   31.7320   42.9030 C   0  0  1  0  0  0  0  0  0  0  0  0
   36.9370   29.8860   42.5550 H   0  0  0  0  0  0  0  0  0  0  0  0
   38.9130   28.8220   42.4210 H   0  0  0  0  0  0  0  0  0  0  0  0
   38.9450   28.7620   44.1810 H   0  0  0  0  0  0  0  0  0  0  0  0
   40.2240   30.8330   44.2700 H   0  0  0  0  0  0  0  0  0  0  0  0
   41.0220   29.5200   43.2920 H   0  0  0  0  0  0  0  0  0  0  0  0
   41.1740   31.8380   42.3260 H   0  0  0  0  0  0  0  0  0  0  0  0
   40.5820   30.5540   41.2420 H   0  0  0  0  0  0  0  0  0  0  0  0
   38.6270   31.7140   40.8530 H   0  0  0  0  0  0  0  0  0  0  0  0
   39.2720   33.0250   41.8960 H   0  0  0  0  0  0  0  0  0  0  0  0
   38.1990   32.3320   43.7880 H   0  0  0  0  0  0  0  0  0  0  0  0
   36.9830   30.3190   44.6010 C   0  0  0  0  0  0  0  0  0  0  0  0
   35.7120   29.7440   44.6000 C   0  0  0  0  0  0  0  0  0  0  0  0
   35.0100   29.7180   45.8090 C   0  0  0  0  0  0  0  0  0  0  0  0
   35.6130   30.2630   46.9310 N   0  0  0  0  0  0  0  0  0  0  0  0
   36.8590   30.8160   46.8800 C   0  0  0  0  0  0  0  0  0  0  0  0
   37.5150   30.8340   45.7340 N   0  0  0  0  0  0  0  0  0  0  0  0
   33.7220   29.1490   45.9100 N   0  0  0  0  0  0  0  0  0  0  0  0
   33.4850   27.8370   45.6020 C   0  0  0  0  0  0  0  0  0  0  0  0
   32.2190   27.3080   45.7100 C   0  0  0  0  0  0  0  0  0  0  0  0
   31.2080   28.1290   46.1350 C   0  0  0  0  0  0  0  0  0  0  0  0
   30.0460   27.6400   46.2340 O   0  0  0  0  0  0  0  0  0  0  0  0
   31.4410   29.4210   46.4390 N   0  0  0  0  0  0  0  0  0  0  0  0
   32.6980   29.8910   46.3160 C   0  0  0  0  0  0  0  0  0  0  0  0
   32.8090   31.1180   46.6270 O   0  0  0  0  0  0  0  0  0  0  0  0
   35.1770   29.3060   43.7730 H   0  0  0  0  0  0  0  0  0  0  0  0
   37.2710   31.2250   47.8010 H   0  0  0  0  0  0  0  0  0  0  0  0
   34.3530   27.2570   45.2710 H   0  0  0  0  0  0  0  0  0  0  0  0
   32.1030   26.2630   45.4500 H   0  0  0  0  0  0  0  0  0  0  0  0
   30.6270   29.9890   46.7560 H   0  0  0  0  0  0  0  0  0  0  0  0
   36.7020   32.3680   42.2740 C   0  0  0  0  0  0  0  0  0  0  0  0
   35.9960   33.0300   43.2670 F   0  0  0  0  0  0  0  0  0  0  0  0
   37.0890   33.3790   41.3850 F   0  0  0  0  0  0  0  0  0  0  0  0
   35.8660   31.4810   41.6710 F   0  0  0  0  0  0  0  0  0  0  0  0
  1  7  1  6  0  0  0
  1  2  1  0  0  0  0
  1 17  1  0  0  0  0
  2  9  1  0  0  0  0
  3  2  1  0  0  0  0
  3 10  1  0  0  0  0
  4 12  1  0  0  0  0
  4  3  1  0  0  0  0
  5 15  1  0  0  0  0
  5  4  1  0  0  0  0
  5  6  1  0  0  0  0
  6  1  1  0  0  0  0
  6 16  1  1  0  0  0
  8  2  1  0  0  0  0
 11  3  1  0  0  0  0
 13  4  1  0  0  0  0
 14  5  1  0  0  0  0
 17 22  1  0  0  0  0
 18 17  2  0  0  0  0
 18 19  1  0  0  0  0
 19 23  1  0  0  0  0
 19 20  2  0  0  0  0
 21 20  1  0  0  0  0
 21 32  1  0  0  0  0
 22 21  2  0  0  0  0
 23 29  1  0  0  0  0
 24 25  2  0  0  0  0
 24 23  1  0  0  0  0
 25 26  1  0  0  0  0
 26 27  2  0  0  0  0
 26 28  1  0  0  0  0
 28 35  1  0  0  0  0
 29 28  1  0  0  0  0
 29 30  2  0  0  0  0
 31 18  1  0  0  0  0
 33 24  1  0  0  0  0
 34 25  1  0  0  0  0
 36  6  1  0  0  0  0
 36 37  1  0  0  0  0
 38 36  1  0  0  0  0
 39 36  1  0  0  0  0
M  END
>  <minimizedAffinity>
-4.21127844

>  <minimizedRMSD>
6.58557367

$$$$
