
 OpenBabel03272506203D

 39 41  0  0  1  0  0  0  0  0999 V2000
   38.1070   31.9850   43.8100 C   0  0  2  0  0  0  0  0  0  0  0  0
   39.2610   32.3090   42.8950 C   0  0  0  0  0  0  0  0  0  0  0  0
   40.3200   31.2670   42.9000 C   0  0  0  0  0  0  0  0  0  0  0  0
   40.8270   30.9300   44.2590 C   0  0  0  0  0  0  0  0  0  0  0  0
   39.7650   30.7760   45.2700 C   0  0  0  0  0  0  0  0  0  0  0  0
   38.3380   30.8630   44.7280 C   0  0  1  0  0  0  0  0  0  0  0  0
   37.8040   32.8980   44.4040 H   0  0  0  0  0  0  0  0  0  0  0  0
   39.7360   33.2470   43.3080 H   0  0  0  0  0  0  0  0  0  0  0  0
   38.9870   32.5590   41.8690 H   0  0  0  0  0  0  0  0  0  0  0  0
   39.8610   30.3530   42.4190 H   0  0  0  0  0  0  0  0  0  0  0  0
   41.1470   31.6320   42.2610 H   0  0  0  0  0  0  0  0  0  0  0  0
   41.4620   30.0020   44.1530 H   0  0  0  0  0  0  0  0  0  0  0  0
   41.5570   31.7340   44.5610 H   0  0  0  0  0  0  0  0  0  0  0  0
   39.8670   31.5120   46.1150 H   0  0  0  0  0  0  0  0  0  0  0  0
   39.8340   29.7590   45.7350 H   0  0  0  0  0  0  0  0  0  0  0  0
   38.1130   29.9010   44.2410 H   0  0  0  0  0  0  0  0  0  0  0  0
   36.8870   31.6650   42.9840 C   0  0  0  0  0  0  0  0  0  0  0  0
   36.0020   32.7240   42.7880 C   0  0  0  0  0  0  0  0  0  0  0  0
   34.8470   32.4750   42.0380 C   0  0  0  0  0  0  0  0  0  0  0  0
   34.6530   31.1980   41.5370 N   0  0  0  0  0  0  0  0  0  0  0  0
   35.5500   30.1940   41.7580 C   0  0  0  0  0  0  0  0  0  0  0  0
   36.6370   30.4400   42.4660 N   0  0  0  0  0  0  0  0  0  0  0  0
   33.8960   33.4840   41.7770 N   0  0  0  0  0  0  0  0  0  0  0  0
   34.2270   34.6360   41.1160 C   0  0  0  0  0  0  0  0  0  0  0  0
   33.2790   35.6040   40.8750 C   0  0  0  0  0  0  0  0  0  0  0  0
   32.0000   35.3820   41.3130 C   0  0  0  0  0  0  0  0  0  0  0  0
   31.1310   36.2720   41.0890 O   0  0  0  0  0  0  0  0  0  0  0  0
   31.6740   34.2480   41.9630 N   0  0  0  0  0  0  0  0  0  0  0  0
   32.6380   33.3310   42.1750 C   0  0  0  0  0  0  0  0  0  0  0  0
   32.2260   32.3020   42.7950 O   0  0  0  0  0  0  0  0  0  0  0  0
   36.0800   33.7380   43.1460 H   0  0  0  0  0  0  0  0  0  0  0  0
   35.3310   29.2160   41.3340 H   0  0  0  0  0  0  0  0  0  0  0  0
   35.2730   34.7280   40.8040 H   0  0  0  0  0  0  0  0  0  0  0  0
   33.6100   36.4900   40.3460 H   0  0  0  0  0  0  0  0  0  0  0  0
   30.6830   34.1430   42.2690 H   0  0  0  0  0  0  0  0  0  0  0  0
   37.4520   30.9640   45.9650 C   0  0  0  0  0  0  0  0  0  0  0  0
   37.4060   32.2910   46.3630 F   0  0  0  0  0  0  0  0  0  0  0  0
   36.1280   30.6530   45.6270 F   0  0  0  0  0  0  0  0  0  0  0  0
   37.8780   30.2130   47.0140 F   0  0  0  0  0  0  0  0  0  0  0  0
  1  7  1  1  0  0  0
  1  6  1  0  0  0  0
  2  3  1  0  0  0  0
  2  8  1  0  0  0  0
  2  1  1  0  0  0  0
  3  4  1  0  0  0  0
  4 13  1  0  0  0  0
  4  5  1  0  0  0  0
  5 15  1  0  0  0  0
  5 14  1  0  0  0  0
  6 16  1  6  0  0  0
  6  5  1  0  0  0  0
  6 36  1  0  0  0  0
  9  2  1  0  0  0  0
 10  3  1  0  0  0  0
 11  3  1  0  0  0  0
 12  4  1  0  0  0  0
 17  1  1  0  0  0  0
 18 17  1  0  0  0  0
 18 31  1  0  0  0  0
 19 18  2  0  0  0  0
 20 21  2  0  0  0  0
 20 19  1  0  0  0  0
 21 22  1  0  0  0  0
 22 17  2  0  0  0  0
 23 19  1  0  0  0  0
 23 29  1  0  0  0  0
 24 23  1  0  0  0  0
 25 24  2  0  0  0  0
 25 26  1  0  0  0  0
 26 28  1  0  0  0  0
 27 26  2  0  0  0  0
 28 29  1  0  0  0  0
 28 35  1  0  0  0  0
 29 30  2  0  0  0  0
 32 21  1  0  0  0  0
 33 24  1  0  0  0  0
 34 25  1  0  0  0  0
 36 37  1  0  0  0  0
 36 39  1  0  0  0  0
 38 36  1  0  0  0  0
M  END
>  <minimizedAffinity>
-4.39652491

>  <minimizedRMSD>
6.28053236

$$$$
