
 OpenBabel03272506213D

 39 41  0  0  1  0  0  0  0  0999 V2000
   39.8310   24.0510   35.7310 C   0  0  2  0  0  0  0  0  0  0  0  0
   41.2140   23.7640   35.2010 C   0  0  0  0  0  0  0  0  0  0  0  0
   41.7280   22.4300   35.6060 C   0  0  0  0  0  0  0  0  0  0  0  0
   41.6850   22.1870   37.0740 C   0  0  0  0  0  0  0  0  0  0  0  0
   40.4270   22.6140   37.7120 C   0  0  0  0  0  0  0  0  0  0  0  0
   39.3480   23.1090   36.7480 C   0  0  1  0  0  0  0  0  0  0  0  0
   39.7740   25.1040   36.1390 H   0  0  0  0  0  0  0  0  0  0  0  0
   41.8980   24.5260   35.6770 H   0  0  0  0  0  0  0  0  0  0  0  0
   41.3400   23.9040   34.1270 H   0  0  0  0  0  0  0  0  0  0  0  0
   41.0850   21.6710   35.0680 H   0  0  0  0  0  0  0  0  0  0  0  0
   42.7670   22.3490   35.2330 H   0  0  0  0  0  0  0  0  0  0  0  0
   41.9020   21.0910   37.2330 H   0  0  0  0  0  0  0  0  0  0  0  0
   42.5690   22.7150   37.5330 H   0  0  0  0  0  0  0  0  0  0  0  0
   40.5900   23.4060   38.4950 H   0  0  0  0  0  0  0  0  0  0  0  0
   39.9610   21.7450   38.2420 H   0  0  0  0  0  0  0  0  0  0  0  0
   38.8930   22.2220   36.2810 H   0  0  0  0  0  0  0  0  0  0  0  0
   38.8470   24.0470   34.5900 C   0  0  0  0  0  0  0  0  0  0  0  0
   38.2960   22.8040   34.2770 C   0  0  0  0  0  0  0  0  0  0  0  0
   37.3860   22.7460   33.2160 C   0  0  0  0  0  0  0  0  0  0  0  0
   37.0870   23.9190   32.5420 N   0  0  0  0  0  0  0  0  0  0  0  0
   37.6540   25.1100   32.8860 C   0  0  0  0  0  0  0  0  0  0  0  0
   38.5110   25.1560   33.8900 N   0  0  0  0  0  0  0  0  0  0  0  0
   36.7680   21.5370   32.8310 N   0  0  0  0  0  0  0  0  0  0  0  0
   35.9960   20.8120   33.6970 C   0  0  0  0  0  0  0  0  0  0  0  0
   35.4050   19.6360   33.2940 C   0  0  0  0  0  0  0  0  0  0  0  0
   35.6100   19.2150   32.0070 C   0  0  0  0  0  0  0  0  0  0  0  0
   35.0660   18.1350   31.6390 O   0  0  0  0  0  0  0  0  0  0  0  0
   36.3710   19.9290   31.1530 N   0  0  0  0  0  0  0  0  0  0  0  0
   36.9270   21.0740   31.5960 C   0  0  0  0  0  0  0  0  0  0  0  0
   37.6230   21.6680   30.7150 O   0  0  0  0  0  0  0  0  0  0  0  0
   38.4800   21.8530   34.7490 H   0  0  0  0  0  0  0  0  0  0  0  0
   37.3720   25.9920   32.3110 H   0  0  0  0  0  0  0  0  0  0  0  0
   35.8870   21.2240   34.7050 H   0  0  0  0  0  0  0  0  0  0  0  0
   34.8060   19.1130   34.0310 H   0  0  0  0  0  0  0  0  0  0  0  0
   36.4850   19.5520   30.1890 H   0  0  0  0  0  0  0  0  0  0  0  0
   38.2870   23.7480   37.6380 C   0  0  0  0  0  0  0  0  0  0  0  0
   37.0650   23.1590   37.3530 F   0  0  0  0  0  0  0  0  0  0  0  0
   38.5310   23.4200   38.9770 F   0  0  0  0  0  0  0  0  0  0  0  0
   38.1660   25.0930   37.4780 F   0  0  0  0  0  0  0  0  0  0  0  0
  1  7  1  1  0  0  0
  1  6  1  0  0  0  0
  2  3  1  0  0  0  0
  2  8  1  0  0  0  0
  2  1  1  0  0  0  0
  3  4  1  0  0  0  0
  4 12  1  0  0  0  0
  4 13  1  0  0  0  0
  4  5  1  0  0  0  0
  5 15  1  0  0  0  0
  5 14  1  0  0  0  0
  6 16  1  6  0  0  0
  6 36  1  0  0  0  0
  6  5  1  0  0  0  0
  9  2  1  0  0  0  0
 10  3  1  0  0  0  0
 11  3  1  0  0  0  0
 17  1  1  0  0  0  0
 18 17  1  0  0  0  0
 18 31  1  0  0  0  0
 19 18  2  0  0  0  0
 20 21  2  0  0  0  0
 20 19  1  0  0  0  0
 21 22  1  0  0  0  0
 22 17  2  0  0  0  0
 23 19  1  0  0  0  0
 23 24  1  0  0  0  0
 24 33  1  0  0  0  0
 25 24  2  0  0  0  0
 25 34  1  0  0  0  0
 26 25  1  0  0  0  0
 27 26  2  0  0  0  0
 28 29  1  0  0  0  0
 28 26  1  0  0  0  0
 29 23  1  0  0  0  0
 30 29  2  0  0  0  0
 32 21  1  0  0  0  0
 35 28  1  0  0  0  0
 36 38  1  0  0  0  0
 37 36  1  0  0  0  0
 39 36  1  0  0  0  0
M  END
>  <minimizedAffinity>
-6.20035076

$$$$

 OpenBabel03272506213D

 39 41  0  0  1  0  0  0  0  0999 V2000
   39.6660   23.9220   35.5040 C   0  0  2  0  0  0  0  0  0  0  0  0
   40.9830   23.2330   35.2490 C   0  0  0  0  0  0  0  0  0  0  0  0
   41.1570   21.9920   36.0480 C   0  0  0  0  0  0  0  0  0  0  0  0
   40.9570   22.1840   37.5100 C   0  0  0  0  0  0  0  0  0  0  0  0
   39.7840   23.0110   37.8490 C   0  0  0  0  0  0  0  0  0  0  0  0
   38.9140   23.4170   36.6590 C   0  0  1  0  0  0  0  0  0  0  0  0
   39.8170   25.0360   35.6140 H   0  0  0  0  0  0  0  0  0  0  0  0
   41.7850   23.9490   35.5960 H   0  0  0  0  0  0  0  0  0  0  0  0
   41.2130   23.0380   34.2000 H   0  0  0  0  0  0  0  0  0  0  0  0
   40.4000   21.2540   35.6460 H   0  0  0  0  0  0  0  0  0  0  0  0
   42.1750   21.6080   35.8460 H   0  0  0  0  0  0  0  0  0  0  0  0
   40.9110   21.1560   37.9750 H   0  0  0  0  0  0  0  0  0  0  0  0
   41.9020   22.6360   37.9270 H   0  0  0  0  0  0  0  0  0  0  0  0
   40.0650   23.9420   38.4140 H   0  0  0  0  0  0  0  0  0  0  0  0
   39.0990   22.4330   38.5210 H   0  0  0  0  0  0  0  0  0  0  0  0
   38.3060   22.5410   36.3820 H   0  0  0  0  0  0  0  0  0  0  0  0
   38.7890   23.7910   34.2850 C   0  0  0  0  0  0  0  0  0  0  0  0
   38.7290   24.9170   33.4650 C   0  0  0  0  0  0  0  0  0  0  0  0
   37.9180   24.8500   32.3280 C   0  0  0  0  0  0  0  0  0  0  0  0
   37.2250   23.6750   32.0830 N   0  0  0  0  0  0  0  0  0  0  0  0
   37.3160   22.6000   32.9170 C   0  0  0  0  0  0  0  0  0  0  0  0
   38.0860   22.6720   33.9880 N   0  0  0  0  0  0  0  0  0  0  0  0
   37.7990   25.9350   31.4320 N   0  0  0  0  0  0  0  0  0  0  0  0
   38.8840   26.4550   30.7800 C   0  0  0  0  0  0  0  0  0  0  0  0
   38.7400   27.5130   29.9110 C   0  0  0  0  0  0  0  0  0  0  0  0
   37.4850   28.0270   29.7190 C   0  0  0  0  0  0  0  0  0  0  0  0
   37.3550   28.9980   28.9200 O   0  0  0  0  0  0  0  0  0  0  0  0
   36.4160   27.5140   30.3600 N   0  0  0  0  0  0  0  0  0  0  0  0
   36.6100   26.4780   31.2010 C   0  0  0  0  0  0  0  0  0  0  0  0
   35.5410   26.0710   31.7520 O   0  0  0  0  0  0  0  0  0  0  0  0
   39.2310   25.8630   33.5890 H   0  0  0  0  0  0  0  0  0  0  0  0
   36.7430   21.7100   32.6630 H   0  0  0  0  0  0  0  0  0  0  0  0
   39.8480   25.9820   30.9960 H   0  0  0  0  0  0  0  0  0  0  0  0
   39.6400   27.8750   29.4300 H   0  0  0  0  0  0  0  0  0  0  0  0
   35.4910   27.9520   30.1670 H   0  0  0  0  0  0  0  0  0  0  0  0
   37.9620   24.4740   37.2080 C   0  0  0  0  0  0  0  0  0  0  0  0
   36.6740   24.1510   36.8120 F   0  0  0  0  0  0  0  0  0  0  0  0
   37.9290   24.4020   38.6060 F   0  0  0  0  0  0  0  0  0  0  0  0
   38.2380   25.7390   36.7900 F   0  0  0  0  0  0  0  0  0  0  0  0
  1  7  1  1  0  0  0
  1  6  1  0  0  0  0
  2  1  1  0  0  0  0
  2  8  1  0  0  0  0
  2  3  1  0  0  0  0
  3  4  1  0  0  0  0
  4  5  1  0  0  0  0
  4 13  1  0  0  0  0
  4 12  1  0  0  0  0
  5 14  1  0  0  0  0
  5 15  1  0  0  0  0
  6 16  1  6  0  0  0
  6 36  1  0  0  0  0
  6  5  1  0  0  0  0
  9  2  1  0  0  0  0
 10  3  1  0  0  0  0
 11  3  1  0  0  0  0
 17  1  1  0  0  0  0
 18 31  1  0  0  0  0
 18 17  2  0  0  0  0
 19 18  1  0  0  0  0
 20 19  2  0  0  0  0
 20 21  1  0  0  0  0
 21 22  2  0  0  0  0
 22 17  1  0  0  0  0
 23 19  1  0  0  0  0
 24 33  1  0  0  0  0
 24 23  1  0  0  0  0
 25 24  2  0  0  0  0
 26 25  1  0  0  0  0
 26 28  1  0  0  0  0
 27 26  2  0  0  0  0
 28 29  1  0  0  0  0
 29 23  1  0  0  0  0
 29 30  2  0  0  0  0
 32 21  1  0  0  0  0
 34 25  1  0  0  0  0
 35 28  1  0  0  0  0
 36 38  1  0  0  0  0
 37 36  1  0  0  0  0
 39 36  1  0  0  0  0
M  END
>  <minimizedAffinity>
-6.1169219

$$$$

 OpenBabel03272506213D

 39 41  0  0  1  0  0  0  0  0999 V2000
   37.5580   26.8090   33.6290 C   0  0  2  0  0  0  0  0  0  0  0  0
   37.5480   26.4750   35.1000 C   0  0  0  0  0  0  0  0  0  0  0  0
   38.7210   27.0220   35.8300 C   0  0  0  0  0  0  0  0  0  0  0  0
   40.0310   26.6480   35.2310 C   0  0  0  0  0  0  0  0  0  0  0  0
   40.0720   26.7680   33.7620 C   0  0  0  0  0  0  0  0  0  0  0  0
   38.8180   27.3690   33.1270 C   0  0  1  0  0  0  0  0  0  0  0  0
   37.2810   25.9010   33.0150 H   0  0  0  0  0  0  0  0  0  0  0  0
   37.6280   25.3500   35.1680 H   0  0  0  0  0  0  0  0  0  0  0  0
   36.6270   26.7250   35.6290 H   0  0  0  0  0  0  0  0  0  0  0  0
   38.5970   28.1460   35.8220 H   0  0  0  0  0  0  0  0  0  0  0  0
   38.6580   26.6620   36.8750 H   0  0  0  0  0  0  0  0  0  0  0  0
   40.8180   27.2790   35.7390 H   0  0  0  0  0  0  0  0  0  0  0  0
   40.2670   25.5950   35.5560 H   0  0  0  0  0  0  0  0  0  0  0  0
   40.2860   25.7850   33.2580 H   0  0  0  0  0  0  0  0  0  0  0  0
   40.9030   27.4580   33.4650 H   0  0  0  0  0  0  0  0  0  0  0  0
   38.8580   28.4580   33.2890 H   0  0  0  0  0  0  0  0  0  0  0  0
   36.4590   27.7980   33.3330 C   0  0  0  0  0  0  0  0  0  0  0  0
   36.1900   28.7170   34.3470 C   0  0  0  0  0  0  0  0  0  0  0  0
   35.1700   29.6480   34.1260 C   0  0  0  0  0  0  0  0  0  0  0  0
   34.4900   29.6030   32.9190 N   0  0  0  0  0  0  0  0  0  0  0  0
   34.7910   28.6830   31.9590 C   0  0  0  0  0  0  0  0  0  0  0  0
   35.7560   27.8090   32.1760 N   0  0  0  0  0  0  0  0  0  0  0  0
   34.8310   30.6240   35.0870 N   0  0  0  0  0  0  0  0  0  0  0  0
   35.7410   31.5420   35.5380 C   0  0  0  0  0  0  0  0  0  0  0  0
   35.3820   32.4830   36.4770 C   0  0  0  0  0  0  0  0  0  0  0  0
   34.0950   32.4750   36.9430 C   0  0  0  0  0  0  0  0  0  0  0  0
   33.7680   33.3400   37.8050 O   0  0  0  0  0  0  0  0  0  0  0  0
   33.1980   31.5710   36.4990 N   0  0  0  0  0  0  0  0  0  0  0  0
   33.5980   30.6710   35.5800 C   0  0  0  0  0  0  0  0  0  0  0  0
   32.6790   29.8670   35.2300 O   0  0  0  0  0  0  0  0  0  0  0  0
   36.6690   28.8130   35.3080 H   0  0  0  0  0  0  0  0  0  0  0  0
   34.2140   28.7070   31.0350 H   0  0  0  0  0  0  0  0  0  0  0  0
   36.7460   31.4720   35.1100 H   0  0  0  0  0  0  0  0  0  0  0  0
   36.1520   33.1780   36.7890 H   0  0  0  0  0  0  0  0  0  0  0  0
   32.2360   31.6220   36.8960 H   0  0  0  0  0  0  0  0  0  0  0  0
   38.9780   27.1260   31.6310 C   0  0  0  0  0  0  0  0  0  0  0  0
   40.3040   26.8090   31.3790 F   0  0  0  0  0  0  0  0  0  0  0  0
   38.2660   25.9810   31.2570 F   0  0  0  0  0  0  0  0  0  0  0  0
   38.6350   28.1910   30.8560 F   0  0  0  0  0  0  0  0  0  0  0  0
  1  7  1  6  0  0  0
  1  2  1  0  0  0  0
  2  8  1  0  0  0  0
  2  9  1  0  0  0  0
  2  3  1  0  0  0  0
  3 11  1  0  0  0  0
  4 13  1  0  0  0  0
  4 12  1  0  0  0  0
  4  3  1  0  0  0  0
  5  4  1  0  0  0  0
  6 16  1  1  0  0  0
  6  1  1  0  0  0  0
  6  5  1  0  0  0  0
 10  3  1  0  0  0  0
 14  5  1  0  0  0  0
 15  5  1  0  0  0  0
 17  1  1  0  0  0  0
 17 18  1  0  0  0  0
 18 31  1  0  0  0  0
 19 18  2  0  0  0  0
 19 23  1  0  0  0  0
 20 19  1  0  0  0  0
 21 22  1  0  0  0  0
 21 20  2  0  0  0  0
 22 17  2  0  0  0  0
 23 24  1  0  0  0  0
 23 29  1  0  0  0  0
 24 25  2  0  0  0  0
 25 34  1  0  0  0  0
 25 26  1  0  0  0  0
 26 27  2  0  0  0  0
 28 35  1  0  0  0  0
 28 26  1  0  0  0  0
 29 28  1  0  0  0  0
 30 29  2  0  0  0  0
 32 21  1  0  0  0  0
 33 24  1  0  0  0  0
 36  6  1  0  0  0  0
 37 36  1  0  0  0  0
 38 36  1  0  0  0  0
 39 36  1  0  0  0  0
M  END
>  <minimizedAffinity>
-6.03056908

$$$$

 OpenBabel03272506213D

 39 41  0  0  1  0  0  0  0  0999 V2000
   38.7720   22.8600   35.7240 C   0  0  2  0  0  0  0  0  0  0  0  0
   38.5000   21.9480   34.5540 C   0  0  0  0  0  0  0  0  0  0  0  0
   37.0520   21.6930   34.3370 C   0  0  0  0  0  0  0  0  0  0  0  0
   36.3400   21.1950   35.5460 C   0  0  0  0  0  0  0  0  0  0  0  0
   36.6910   21.9170   36.7840 C   0  0  0  0  0  0  0  0  0  0  0  0
   37.6170   23.1180   36.5920 C   0  0  1  0  0  0  0  0  0  0  0  0
   39.6260   22.4590   36.3470 H   0  0  0  0  0  0  0  0  0  0  0  0
   38.9620   20.9510   34.8160 H   0  0  0  0  0  0  0  0  0  0  0  0
   38.9730   22.2400   33.6150 H   0  0  0  0  0  0  0  0  0  0  0  0
   36.6080   22.6780   34.0030 H   0  0  0  0  0  0  0  0  0  0  0  0
   36.9650   20.9610   33.5110 H   0  0  0  0  0  0  0  0  0  0  0  0
   35.2360   21.2370   35.3190 H   0  0  0  0  0  0  0  0  0  0  0  0
   36.5640   20.0950   35.6450 H   0  0  0  0  0  0  0  0  0  0  0  0
   37.1470   21.2410   37.5600 H   0  0  0  0  0  0  0  0  0  0  0  0
   35.7630   22.3410   37.2470 H   0  0  0  0  0  0  0  0  0  0  0  0
   37.0040   23.9450   36.1990 H   0  0  0  0  0  0  0  0  0  0  0  0
   39.2790   24.1860   35.2180 C   0  0  0  0  0  0  0  0  0  0  0  0
   38.3060   25.0430   34.7030 C   0  0  0  0  0  0  0  0  0  0  0  0
   38.7290   26.2810   34.2090 C   0  0  0  0  0  0  0  0  0  0  0  0
   40.0800   26.5830   34.2590 N   0  0  0  0  0  0  0  0  0  0  0  0
   40.9930   25.7090   34.7730 C   0  0  0  0  0  0  0  0  0  0  0  0
   40.5850   24.5430   35.2380 N   0  0  0  0  0  0  0  0  0  0  0  0
   37.8190   27.2200   33.6760 N   0  0  0  0  0  0  0  0  0  0  0  0
   36.7870   27.7280   34.4190 C   0  0  0  0  0  0  0  0  0  0  0  0
   35.9150   28.6430   33.8740 C   0  0  0  0  0  0  0  0  0  0  0  0
   36.1090   29.0290   32.5740 C   0  0  0  0  0  0  0  0  0  0  0  0
   35.3060   29.8700   32.0770 O   0  0  0  0  0  0  0  0  0  0  0  0
   37.1250   28.5300   31.8430 N   0  0  0  0  0  0  0  0  0  0  0  0
   37.9520   27.6370   32.4220 C   0  0  0  0  0  0  0  0  0  0  0  0
   38.8740   27.2300   31.6490 O   0  0  0  0  0  0  0  0  0  0  0  0
   37.2440   24.8800   34.6260 H   0  0  0  0  0  0  0  0  0  0  0  0
   42.0380   26.0130   34.7800 H   0  0  0  0  0  0  0  0  0  0  0  0
   36.7090   27.3620   35.4470 H   0  0  0  0  0  0  0  0  0  0  0  0
   35.1210   29.0030   34.5170 H   0  0  0  0  0  0  0  0  0  0  0  0
   37.2150   28.8670   30.8620 H   0  0  0  0  0  0  0  0  0  0  0  0
   38.0540   23.5080   38.0000 C   0  0  0  0  0  0  0  0  0  0  0  0
   37.2730   22.8110   38.9090 F   0  0  0  0  0  0  0  0  0  0  0  0
   39.3570   23.0540   38.2350 F   0  0  0  0  0  0  0  0  0  0  0  0
   37.9440   24.8370   38.2670 F   0  0  0  0  0  0  0  0  0  0  0  0
  1  7  1  1  0  0  0
  1  6  1  0  0  0  0
  2  8  1  0  0  0  0
  2  1  1  0  0  0  0
  3  2  1  0  0  0  0
  3  4  1  0  0  0  0
  4 13  1  0  0  0  0
  4  5  1  0  0  0  0
  5 15  1  0  0  0  0
  5 14  1  0  0  0  0
  6 16  1  6  0  0  0
  6  5  1  0  0  0  0
  6 36  1  0  0  0  0
  9  2  1  0  0  0  0
 10  3  1  0  0  0  0
 11  3  1  0  0  0  0
 12  4  1  0  0  0  0
 17 22  1  0  0  0  0
 17  1  1  0  0  0  0
 18 17  2  0  0  0  0
 19 20  2  0  0  0  0
 19 18  1  0  0  0  0
 20 21  1  0  0  0  0
 21 32  1  0  0  0  0
 21 22  2  0  0  0  0
 23 19  1  0  0  0  0
 23 24  1  0  0  0  0
 24 33  1  0  0  0  0
 25 24  2  0  0  0  0
 25 34  1  0  0  0  0
 26 25  1  0  0  0  0
 27 26  2  0  0  0  0
 28 29  1  0  0  0  0
 28 26  1  0  0  0  0
 29 23  1  0  0  0  0
 30 29  2  0  0  0  0
 31 18  1  0  0  0  0
 35 28  1  0  0  0  0
 36 38  1  0  0  0  0
 36 39  1  0  0  0  0
 36 37  1  0  0  0  0
M  END
>  <minimizedAffinity>
-5.96607399

$$$$

 OpenBabel03272506213D

 39 41  0  0  1  0  0  0  0  0999 V2000
   38.6850   27.1270   32.9140 C   0  0  2  0  0  0  0  0  0  0  0  0
   39.8540   26.8650   33.8300 C   0  0  0  0  0  0  0  0  0  0  0  0
   39.4430   26.4080   35.1830 C   0  0  0  0  0  0  0  0  0  0  0  0
   38.4640   27.3090   35.8510 C   0  0  0  0  0  0  0  0  0  0  0  0
   37.3770   27.7690   34.9680 C   0  0  0  0  0  0  0  0  0  0  0  0
   37.3730   27.1480   33.5710 C   0  0  1  0  0  0  0  0  0  0  0  0
   38.8360   28.0940   32.3480 H   0  0  0  0  0  0  0  0  0  0  0  0
   40.3710   27.8580   33.9730 H   0  0  0  0  0  0  0  0  0  0  0  0
   40.6220   26.2020   33.4290 H   0  0  0  0  0  0  0  0  0  0  0  0
   38.9920   25.3810   35.0420 H   0  0  0  0  0  0  0  0  0  0  0  0
   40.3610   26.3160   35.7940 H   0  0  0  0  0  0  0  0  0  0  0  0
   38.0810   26.7620   36.7610 H   0  0  0  0  0  0  0  0  0  0  0  0
   39.0380   28.1830   36.2730 H   0  0  0  0  0  0  0  0  0  0  0  0
   37.3610   28.8880   34.8560 H   0  0  0  0  0  0  0  0  0  0  0  0
   36.3880   27.4860   35.4110 H   0  0  0  0  0  0  0  0  0  0  0  0
   36.9620   26.1310   33.6650 H   0  0  0  0  0  0  0  0  0  0  0  0
   38.6480   26.0740   31.8350 C   0  0  0  0  0  0  0  0  0  0  0  0
   37.9390   24.9160   32.1530 C   0  0  0  0  0  0  0  0  0  0  0  0
   37.8860   23.9030   31.1890 C   0  0  0  0  0  0  0  0  0  0  0  0
   38.5370   24.1090   29.9830 N   0  0  0  0  0  0  0  0  0  0  0  0
   39.2180   25.2610   29.7210 C   0  0  0  0  0  0  0  0  0  0  0  0
   39.2620   26.2120   30.6370 N   0  0  0  0  0  0  0  0  0  0  0  0
   37.1860   22.6980   31.4130 N   0  0  0  0  0  0  0  0  0  0  0  0
   35.8440   22.6820   31.6850 C   0  0  0  0  0  0  0  0  0  0  0  0
   35.1870   21.4920   31.8980 C   0  0  0  0  0  0  0  0  0  0  0  0
   35.9090   20.3300   31.8310 C   0  0  0  0  0  0  0  0  0  0  0  0
   35.3030   19.2390   32.0270 O   0  0  0  0  0  0  0  0  0  0  0  0
   37.2310   20.3460   31.5630 N   0  0  0  0  0  0  0  0  0  0  0  0
   37.8280   21.5370   31.3610 C   0  0  0  0  0  0  0  0  0  0  0  0
   39.0710   21.4410   31.1160 O   0  0  0  0  0  0  0  0  0  0  0  0
   37.4140   24.6810   33.0640 H   0  0  0  0  0  0  0  0  0  0  0  0
   39.7060   25.3530   28.7520 H   0  0  0  0  0  0  0  0  0  0  0  0
   35.3490   23.6570   31.7190 H   0  0  0  0  0  0  0  0  0  0  0  0
   34.1250   21.5520   32.1080 H   0  0  0  0  0  0  0  0  0  0  0  0
   37.7190   19.4270   31.5260 H   0  0  0  0  0  0  0  0  0  0  0  0
   36.3660   27.9730   32.7760 C   0  0  0  0  0  0  0  0  0  0  0  0
   35.5750   28.6780   33.6710 F   0  0  0  0  0  0  0  0  0  0  0  0
   37.0340   28.9610   32.0440 F   0  0  0  0  0  0  0  0  0  0  0  0
   35.5540   27.2330   31.9740 F   0  0  0  0  0  0  0  0  0  0  0  0
  1  7  1  6  0  0  0
  1  6  1  0  0  0  0
  1  2  1  0  0  0  0
  2  8  1  0  0  0  0
  2  3  1  0  0  0  0
  3 11  1  0  0  0  0
  3  4  1  0  0  0  0
  4 13  1  0  0  0  0
  4 12  1  0  0  0  0
  5 15  1  0  0  0  0
  5  4  1  0  0  0  0
  6 16  1  1  0  0  0
  6  5  1  0  0  0  0
  9  2  1  0  0  0  0
 10  3  1  0  0  0  0
 14  5  1  0  0  0  0
 17 18  1  0  0  0  0
 17  1  1  0  0  0  0
 18 31  1  0  0  0  0
 19 23  1  0  0  0  0
 19 18  2  0  0  0  0
 20 19  1  0  0  0  0
 21 20  2  0  0  0  0
 21 22  1  0  0  0  0
 22 17  2  0  0  0  0
 23 24  1  0  0  0  0
 24 33  1  0  0  0  0
 24 25  2  0  0  0  0
 25 34  1  0  0  0  0
 26 25  1  0  0  0  0
 26 27  2  0  0  0  0
 28 26  1  0  0  0  0
 29 23  1  0  0  0  0
 29 28  1  0  0  0  0
 30 29  2  0  0  0  0
 32 21  1  0  0  0  0
 35 28  1  0  0  0  0
 36  6  1  0  0  0  0
 36 37  1  0  0  0  0
 38 36  1  0  0  0  0
 39 36  1  0  0  0  0
M  END
>  <minimizedAffinity>
-5.9396863

$$$$

 OpenBabel03272506213D

 39 41  0  0  1  0  0  0  0  0999 V2000
   37.6480   25.5230   32.3430 C   0  0  2  0  0  0  0  0  0  0  0  0
   36.8820   24.2540   32.0650 C   0  0  0  0  0  0  0  0  0  0  0  0
   37.6620   23.2620   31.2800 C   0  0  0  0  0  0  0  0  0  0  0  0
   38.2260   23.8030   30.0140 C   0  0  0  0  0  0  0  0  0  0  0  0
   38.8370   25.1380   30.1560 C   0  0  0  0  0  0  0  0  0  0  0  0
   38.8970   25.6720   31.5880 C   0  0  1  0  0  0  0  0  0  0  0  0
   36.9930   26.4270   32.1660 H   0  0  0  0  0  0  0  0  0  0  0  0
   36.0040   24.5510   31.4180 H   0  0  0  0  0  0  0  0  0  0  0  0
   36.4390   23.7750   32.9390 H   0  0  0  0  0  0  0  0  0  0  0  0
   38.4960   22.9130   31.9600 H   0  0  0  0  0  0  0  0  0  0  0  0
   36.9910   22.4070   31.0680 H   0  0  0  0  0  0  0  0  0  0  0  0
   38.9520   23.0340   29.6210 H   0  0  0  0  0  0  0  0  0  0  0  0
   37.3970   23.8200   29.2500 H   0  0  0  0  0  0  0  0  0  0  0  0
   38.3330   25.9110   29.5130 H   0  0  0  0  0  0  0  0  0  0  0  0
   39.9040   25.1000   29.8190 H   0  0  0  0  0  0  0  0  0  0  0  0
   39.7290   25.1590   32.0950 H   0  0  0  0  0  0  0  0  0  0  0  0
   37.9810   25.5940   33.8120 C   0  0  0  0  0  0  0  0  0  0  0  0
   38.7960   24.5700   34.2920 C   0  0  0  0  0  0  0  0  0  0  0  0
   39.1240   24.5850   35.6520 C   0  0  0  0  0  0  0  0  0  0  0  0
   38.6220   25.6110   36.4370 N   0  0  0  0  0  0  0  0  0  0  0  0
   37.8270   26.5900   35.9190 C   0  0  0  0  0  0  0  0  0  0  0  0
   37.5240   26.5680   34.6330 N   0  0  0  0  0  0  0  0  0  0  0  0
   39.9500   23.5980   36.2300 N   0  0  0  0  0  0  0  0  0  0  0  0
   41.2300   23.3820   35.7970 C   0  0  0  0  0  0  0  0  0  0  0  0
   42.0140   22.4120   36.3790 C   0  0  0  0  0  0  0  0  0  0  0  0
   41.4790   21.6730   37.4000 C   0  0  0  0  0  0  0  0  0  0  0  0
   42.2020   20.7840   37.9340 O   0  0  0  0  0  0  0  0  0  0  0  0
   40.2180   21.8860   37.8280 N   0  0  0  0  0  0  0  0  0  0  0  0
   39.4910   22.8470   37.2250 C   0  0  0  0  0  0  0  0  0  0  0  0
   38.3200   22.9650   37.7020 O   0  0  0  0  0  0  0  0  0  0  0  0
   39.2200   23.7410   33.7490 H   0  0  0  0  0  0  0  0  0  0  0  0
   37.4680   27.3640   36.5960 H   0  0  0  0  0  0  0  0  0  0  0  0
   41.5740   24.0190   34.9750 H   0  0  0  0  0  0  0  0  0  0  0  0
   43.0180   22.2950   35.9870 H   0  0  0  0  0  0  0  0  0  0  0  0
   39.8750   21.2880   38.6090 H   0  0  0  0  0  0  0  0  0  0  0  0
   39.2890   27.1390   31.4450 C   0  0  0  0  0  0  0  0  0  0  0  0
   39.7680   27.3400   30.1590 F   0  0  0  0  0  0  0  0  0  0  0  0
   38.1480   27.9450   31.5250 F   0  0  0  0  0  0  0  0  0  0  0  0
   40.2400   27.5470   32.3280 F   0  0  0  0  0  0  0  0  0  0  0  0
  1  7  1  6  0  0  0
  1 17  1  0  0  0  0
  2  1  1  0  0  0  0
  2  9  1  0  0  0  0
  3 10  1  0  0  0  0
  3  2  1  0  0  0  0
  4  5  1  0  0  0  0
  4  3  1  0  0  0  0
  5  6  1  0  0  0  0
  6 16  1  1  0  0  0
  6  1  1  0  0  0  0
  8  2  1  0  0  0  0
 11  3  1  0  0  0  0
 12  4  1  0  0  0  0
 13  4  1  0  0  0  0
 14  5  1  0  0  0  0
 15  5  1  0  0  0  0
 17 18  2  0  0  0  0
 17 22  1  0  0  0  0
 18 19  1  0  0  0  0
 19 23  1  0  0  0  0
 19 20  2  0  0  0  0
 21 20  1  0  0  0  0
 21 32  1  0  0  0  0
 22 21  2  0  0  0  0
 23 29  1  0  0  0  0
 24 23  1  0  0  0  0
 24 25  2  0  0  0  0
 25 26  1  0  0  0  0
 26 28  1  0  0  0  0
 26 27  2  0  0  0  0
 28 35  1  0  0  0  0
 29 30  2  0  0  0  0
 29 28  1  0  0  0  0
 31 18  1  0  0  0  0
 33 24  1  0  0  0  0
 34 25  1  0  0  0  0
 36 38  1  0  0  0  0
 36  6  1  0  0  0  0
 36 39  1  0  0  0  0
 37 36  1  0  0  0  0
M  END
>  <minimizedAffinity>
-5.83097649

$$$$

 OpenBabel03272506213D

 39 41  0  0  1  0  0  0  0  0999 V2000
   38.5920   25.3670   33.9200 C   0  0  2  0  0  0  0  0  0  0  0  0
   38.8540   23.9030   33.6720 C   0  0  0  0  0  0  0  0  0  0  0  0
   38.1310   23.0130   34.6170 C   0  0  0  0  0  0  0  0  0  0  0  0
   38.3680   23.3370   36.0510 C   0  0  0  0  0  0  0  0  0  0  0  0
   38.3140   24.7800   36.3520 C   0  0  0  0  0  0  0  0  0  0  0  0
   37.9040   25.6710   35.1800 C   0  0  1  0  0  0  0  0  0  0  0  0
   39.5560   25.9560   33.8680 H   0  0  0  0  0  0  0  0  0  0  0  0
   39.9560   23.7430   33.8650 H   0  0  0  0  0  0  0  0  0  0  0  0
   38.6960   23.5670   32.6460 H   0  0  0  0  0  0  0  0  0  0  0  0
   37.0330   23.1220   34.3700 H   0  0  0  0  0  0  0  0  0  0  0  0
   38.4470   21.9740   34.4010 H   0  0  0  0  0  0  0  0  0  0  0  0
   37.6210   22.7410   36.6510 H   0  0  0  0  0  0  0  0  0  0  0  0
   39.3670   22.9030   36.3390 H   0  0  0  0  0  0  0  0  0  0  0  0
   39.2850   25.1680   36.7670 H   0  0  0  0  0  0  0  0  0  0  0  0
   37.5410   24.9700   37.1410 H   0  0  0  0  0  0  0  0  0  0  0  0
   36.8120   25.5820   35.0650 H   0  0  0  0  0  0  0  0  0  0  0  0
   37.7620   25.9250   32.7910 C   0  0  0  0  0  0  0  0  0  0  0  0
   38.2950   27.0440   32.1520 C   0  0  0  0  0  0  0  0  0  0  0  0
   37.5570   27.6070   31.1050 C   0  0  0  0  0  0  0  0  0  0  0  0
   36.3460   27.0230   30.7680 N   0  0  0  0  0  0  0  0  0  0  0  0
   35.8670   25.9290   31.4260 C   0  0  0  0  0  0  0  0  0  0  0  0
   36.5720   25.4040   32.4120 N   0  0  0  0  0  0  0  0  0  0  0  0
   38.0160   28.7340   30.3910 N   0  0  0  0  0  0  0  0  0  0  0  0
   39.2050   28.7240   29.7120 C   0  0  0  0  0  0  0  0  0  0  0  0
   39.6290   29.8380   29.0230 C   0  0  0  0  0  0  0  0  0  0  0  0
   38.8310   30.9510   29.0360 C   0  0  0  0  0  0  0  0  0  0  0  0
   39.2220   31.9710   28.4020 O   0  0  0  0  0  0  0  0  0  0  0  0
   37.6600   30.9600   29.7040 N   0  0  0  0  0  0  0  0  0  0  0  0
   37.2890   29.8450   30.3630 C   0  0  0  0  0  0  0  0  0  0  0  0
   36.1730   29.9600   30.9580 O   0  0  0  0  0  0  0  0  0  0  0  0
   39.2220   27.5550   32.3570 H   0  0  0  0  0  0  0  0  0  0  0  0
   34.9080   25.5240   31.1070 H   0  0  0  0  0  0  0  0  0  0  0  0
   39.7770   27.7920   29.7580 H   0  0  0  0  0  0  0  0  0  0  0  0
   40.5790   29.7600   28.5080 H   0  0  0  0  0  0  0  0  0  0  0  0
   37.1020   31.8400   29.6720 H   0  0  0  0  0  0  0  0  0  0  0  0
   38.1960   27.0940   35.6450 C   0  0  0  0  0  0  0  0  0  0  0  0
   38.2820   27.0920   37.0290 F   0  0  0  0  0  0  0  0  0  0  0  0
   39.4700   27.4820   35.2140 F   0  0  0  0  0  0  0  0  0  0  0  0
   37.2550   28.0030   35.2730 F   0  0  0  0  0  0  0  0  0  0  0  0
  1  7  1  1  0  0  0
  1  6  1  0  0  0  0
  2  8  1  0  0  0  0
  2  1  1  0  0  0  0
  2  3  1  0  0  0  0
  3  4  1  0  0  0  0
  4 13  1  0  0  0  0
  4  5  1  0  0  0  0
  4 12  1  0  0  0  0
  5 14  1  0  0  0  0
  5 15  1  0  0  0  0
  6 16  1  6  0  0  0
  6 36  1  0  0  0  0
  6  5  1  0  0  0  0
  9  2  1  0  0  0  0
 10  3  1  0  0  0  0
 11  3  1  0  0  0  0
 17  1  1  0  0  0  0
 18 31  1  0  0  0  0
 18 17  2  0  0  0  0
 19 18  1  0  0  0  0
 20 19  2  0  0  0  0
 20 21  1  0  0  0  0
 21 22  2  0  0  0  0
 22 17  1  0  0  0  0
 23 19  1  0  0  0  0
 24 33  1  0  0  0  0
 24 23  1  0  0  0  0
 25 26  1  0  0  0  0
 25 24  2  0  0  0  0
 26 28  1  0  0  0  0
 27 26  2  0  0  0  0
 28 29  1  0  0  0  0
 29 23  1  0  0  0  0
 29 30  2  0  0  0  0
 32 21  1  0  0  0  0
 34 25  1  0  0  0  0
 35 28  1  0  0  0  0
 36 37  1  0  0  0  0
 38 36  1  0  0  0  0
 39 36  1  0  0  0  0
M  END
>  <minimizedAffinity>
-5.7898941

$$$$

 OpenBabel03272506213D

 39 41  0  0  1  0  0  0  0  0999 V2000
   38.6840   26.2040   32.0300 C   0  0  2  0  0  0  0  0  0  0  0  0
   40.1100   26.2410   31.5380 C   0  0  0  0  0  0  0  0  0  0  0  0
   40.5210   27.5800   31.0430 C   0  0  0  0  0  0  0  0  0  0  0  0
   39.6110   28.1460   30.0100 C   0  0  0  0  0  0  0  0  0  0  0  0
   38.1800   27.9860   30.3230 C   0  0  0  0  0  0  0  0  0  0  0  0
   37.8820   27.3870   31.6980 C   0  0  1  0  0  0  0  0  0  0  0  0
   38.1590   25.2770   31.6510 H   0  0  0  0  0  0  0  0  0  0  0  0
   40.1540   25.5460   30.6490 H   0  0  0  0  0  0  0  0  0  0  0  0
   40.8540   25.8550   32.2360 H   0  0  0  0  0  0  0  0  0  0  0  0
   40.5450   28.2540   31.9500 H   0  0  0  0  0  0  0  0  0  0  0  0
   41.5480   27.4830   30.6400 H   0  0  0  0  0  0  0  0  0  0  0  0
   39.9050   29.2260   29.8680 H   0  0  0  0  0  0  0  0  0  0  0  0
   39.8650   27.6570   29.0260 H   0  0  0  0  0  0  0  0  0  0  0  0
   37.6360   27.3770   29.5490 H   0  0  0  0  0  0  0  0  0  0  0  0
   37.6830   28.9900   30.3340 H   0  0  0  0  0  0  0  0  0  0  0  0
   38.0290   28.1850   32.4430 H   0  0  0  0  0  0  0  0  0  0  0  0
   38.6760   26.0420   33.5290 C   0  0  0  0  0  0  0  0  0  0  0  0
   39.4200   24.9700   34.0200 C   0  0  0  0  0  0  0  0  0  0  0  0
   39.4340   24.7690   35.4040 C   0  0  0  0  0  0  0  0  0  0  0  0
   38.7100   25.6420   36.2010 N   0  0  0  0  0  0  0  0  0  0  0  0
   37.9960   26.6760   35.6720 C   0  0  0  0  0  0  0  0  0  0  0  0
   37.9910   26.8580   34.3630 N   0  0  0  0  0  0  0  0  0  0  0  0
   40.1650   23.7180   35.9980 N   0  0  0  0  0  0  0  0  0  0  0  0
   41.5200   23.6030   35.8420 C   0  0  0  0  0  0  0  0  0  0  0  0
   42.2080   22.5670   36.4330 C   0  0  0  0  0  0  0  0  0  0  0  0
   41.5020   21.6600   37.1770 C   0  0  0  0  0  0  0  0  0  0  0  0
   42.1370   20.7110   37.7180 O   0  0  0  0  0  0  0  0  0  0  0  0
   40.1670   21.7740   37.3300 N   0  0  0  0  0  0  0  0  0  0  0  0
   39.5390   22.8050   36.7320 C   0  0  0  0  0  0  0  0  0  0  0  0
   38.2870   22.8200   36.9390 O   0  0  0  0  0  0  0  0  0  0  0  0
   40.0020   24.2500   33.4680 H   0  0  0  0  0  0  0  0  0  0  0  0
   37.4510   27.3210   36.3590 H   0  0  0  0  0  0  0  0  0  0  0  0
   42.0010   24.3730   35.2310 H   0  0  0  0  0  0  0  0  0  0  0  0
   43.2790   22.5370   36.2690 H   0  0  0  0  0  0  0  0  0  0  0  0
   39.6930   21.0490   37.9090 H   0  0  0  0  0  0  0  0  0  0  0  0
   36.3920   27.0600   31.6720 C   0  0  0  0  0  0  0  0  0  0  0  0
   35.9180   27.2840   30.3880 F   0  0  0  0  0  0  0  0  0  0  0  0
   36.2040   25.6890   31.8820 F   0  0  0  0  0  0  0  0  0  0  0  0
   35.6480   27.7960   32.5410 F   0  0  0  0  0  0  0  0  0  0  0  0
  1  7  1  6  0  0  0
  1 17  1  0  0  0  0
  2  1  1  0  0  0  0
  2  9  1  0  0  0  0
  3  2  1  0  0  0  0
  3 10  1  0  0  0  0
  4  5  1  0  0  0  0
  4  3  1  0  0  0  0
  5 15  1  0  0  0  0
  5  6  1  0  0  0  0
  6  1  1  0  0  0  0
  6 16  1  1  0  0  0
  8  2  1  0  0  0  0
 11  3  1  0  0  0  0
 12  4  1  0  0  0  0
 13  4  1  0  0  0  0
 14  5  1  0  0  0  0
 17 18  2  0  0  0  0
 17 22  1  0  0  0  0
 18 19  1  0  0  0  0
 19 23  1  0  0  0  0
 19 20  2  0  0  0  0
 21 20  1  0  0  0  0
 21 32  1  0  0  0  0
 22 21  2  0  0  0  0
 23 29  1  0  0  0  0
 24 23  1  0  0  0  0
 24 25  2  0  0  0  0
 25 26  1  0  0  0  0
 26 28  1  0  0  0  0
 26 27  2  0  0  0  0
 28 35  1  0  0  0  0
 29 30  2  0  0  0  0
 29 28  1  0  0  0  0
 31 18  1  0  0  0  0
 33 24  1  0  0  0  0
 34 25  1  0  0  0  0
 36  6  1  0  0  0  0
 36 38  1  0  0  0  0
 36 39  1  0  0  0  0
 37 36  1  0  0  0  0
M  END
>  <minimizedAffinity>
-5.78376961

$$$$

 OpenBabel03272506213D

 39 41  0  0  1  0  0  0  0  0999 V2000
   34.3660   30.1000   34.7660 C   0  0  2  0  0  0  0  0  0  0  0  0
   32.9890   29.4990   34.9050 C   0  0  0  0  0  0  0  0  0  0  0  0
   31.9240   30.5180   35.0890 C   0  0  0  0  0  0  0  0  0  0  0  0
   32.1820   31.4640   36.2090 C   0  0  0  0  0  0  0  0  0  0  0  0
   33.5690   31.9630   36.2610 C   0  0  0  0  0  0  0  0  0  0  0  0
   34.4570   31.5270   35.0950 C   0  0  1  0  0  0  0  0  0  0  0  0
   35.1130   29.5240   35.3880 H   0  0  0  0  0  0  0  0  0  0  0  0
   33.0080   28.8840   35.8530 H   0  0  0  0  0  0  0  0  0  0  0  0
   32.7050   28.7970   34.1200 H   0  0  0  0  0  0  0  0  0  0  0  0
   31.8600   31.0820   34.1110 H   0  0  0  0  0  0  0  0  0  0  0  0
   30.9730   29.9760   35.2550 H   0  0  0  0  0  0  0  0  0  0  0  0
   31.4250   32.2970   36.1190 H   0  0  0  0  0  0  0  0  0  0  0  0
   31.9070   30.9410   37.1690 H   0  0  0  0  0  0  0  0  0  0  0  0
   34.0870   31.6890   37.2210 H   0  0  0  0  0  0  0  0  0  0  0  0
   33.5670   33.0820   36.2160 H   0  0  0  0  0  0  0  0  0  0  0  0
   34.1890   32.1500   34.2270 H   0  0  0  0  0  0  0  0  0  0  0  0
   34.8510   29.9170   33.3500 C   0  0  0  0  0  0  0  0  0  0  0  0
   35.3730   28.6590   33.0530 C   0  0  0  0  0  0  0  0  0  0  0  0
   35.8480   28.4440   31.7550 C   0  0  0  0  0  0  0  0  0  0  0  0
   35.7730   29.4870   30.8460 N   0  0  0  0  0  0  0  0  0  0  0  0
   35.2540   30.7010   31.1870 C   0  0  0  0  0  0  0  0  0  0  0  0
   34.8060   30.8950   32.4150 N   0  0  0  0  0  0  0  0  0  0  0  0
   36.3860   27.2010   31.3550 N   0  0  0  0  0  0  0  0  0  0  0  0
   35.6550   26.0460   31.4130 C   0  0  0  0  0  0  0  0  0  0  0  0
   36.2040   24.8470   31.0160 C   0  0  0  0  0  0  0  0  0  0  0  0
   37.4970   24.8450   30.5630 C   0  0  0  0  0  0  0  0  0  0  0  0
   37.9980   23.7440   30.1990 O   0  0  0  0  0  0  0  0  0  0  0  0
   38.2160   25.9840   30.5050 N   0  0  0  0  0  0  0  0  0  0  0  0
   37.6330   27.1310   30.9060 C   0  0  0  0  0  0  0  0  0  0  0  0
   38.3960   28.1420   30.8110 O   0  0  0  0  0  0  0  0  0  0  0  0
   35.4680   27.8030   33.7020 H   0  0  0  0  0  0  0  0  0  0  0  0
   35.2270   31.4750   30.4220 H   0  0  0  0  0  0  0  0  0  0  0  0
   34.6310   26.1420   31.7890 H   0  0  0  0  0  0  0  0  0  0  0  0
   35.5700   23.9720   31.0880 H   0  0  0  0  0  0  0  0  0  0  0  0
   39.1930   25.9110   30.1510 H   0  0  0  0  0  0  0  0  0  0  0  0
   35.8720   31.9130   35.5120 C   0  0  0  0  0  0  0  0  0  0  0  0
   35.7900   32.7490   36.6150 F   0  0  0  0  0  0  0  0  0  0  0  0
   36.5550   30.7830   35.9760 F   0  0  0  0  0  0  0  0  0  0  0  0
   36.5810   32.5490   34.5410 F   0  0  0  0  0  0  0  0  0  0  0  0
  1  2  1  0  0  0  0
  1  6  1  0  0  0  0
  1  7  1  1  0  0  0
  2  3  1  0  0  0  0
  2  8  1  0  0  0  0
  3 11  1  0  0  0  0
  3  4  1  0  0  0  0
  4  5  1  0  0  0  0
  4 13  1  0  0  0  0
  5 14  1  0  0  0  0
  6 16  1  6  0  0  0
  6 36  1  0  0  0  0
  6  5  1  0  0  0  0
  9  2  1  0  0  0  0
 10  3  1  0  0  0  0
 12  4  1  0  0  0  0
 15  5  1  0  0  0  0
 17  1  1  0  0  0  0
 18 17  1  0  0  0  0
 18 31  1  0  0  0  0
 19 18  2  0  0  0  0
 20 21  2  0  0  0  0
 20 19  1  0  0  0  0
 21 22  1  0  0  0  0
 22 17  2  0  0  0  0
 23 24  1  0  0  0  0
 23 19  1  0  0  0  0
 24 33  1  0  0  0  0
 25 34  1  0  0  0  0
 25 24  2  0  0  0  0
 26 25  1  0  0  0  0
 27 26  2  0  0  0  0
 28 26  1  0  0  0  0
 28 29  1  0  0  0  0
 29 23  1  0  0  0  0
 30 29  2  0  0  0  0
 32 21  1  0  0  0  0
 35 28  1  0  0  0  0
 36 38  1  0  0  0  0
 36 37  1  0  0  0  0
 39 36  1  0  0  0  0
M  END
>  <minimizedAffinity>
-5.77058315

$$$$
