
 OpenBabel03272506203D

 39 41  0  0  1  0  0  0  0  0999 V2000
   37.1950   31.9850   42.6650 C   0  0  2  0  0  0  0  0  0  0  0  0
   38.2540   33.0420   42.8600 C   0  0  0  0  0  0  0  0  0  0  0  0
   39.6330   32.4910   42.8730 C   0  0  0  0  0  0  0  0  0  0  0  0
   39.8310   31.3860   43.8510 C   0  0  0  0  0  0  0  0  0  0  0  0
   38.7400   30.3950   43.8600 C   0  0  0  0  0  0  0  0  0  0  0  0
   37.6690   30.6020   42.7880 C   0  0  1  0  0  0  0  0  0  0  0  0
   36.3350   32.1510   43.3800 H   0  0  0  0  0  0  0  0  0  0  0  0
   38.0760   33.4800   43.8860 H   0  0  0  0  0  0  0  0  0  0  0  0
   38.1960   33.8910   42.1770 H   0  0  0  0  0  0  0  0  0  0  0  0
   39.8310   32.1210   41.8230 H   0  0  0  0  0  0  0  0  0  0  0  0
   40.3220   33.3280   43.0940 H   0  0  0  0  0  0  0  0  0  0  0  0
   40.8350   30.9230   43.6260 H   0  0  0  0  0  0  0  0  0  0  0  0
   39.9610   31.8510   44.8700 H   0  0  0  0  0  0  0  0  0  0  0  0
   38.2290   30.3280   44.8600 H   0  0  0  0  0  0  0  0  0  0  0  0
   39.1570   29.3750   43.6550 H   0  0  0  0  0  0  0  0  0  0  0  0
   38.0850   30.2410   41.8340 H   0  0  0  0  0  0  0  0  0  0  0  0
   36.5740   32.1450   41.3010 C   0  0  0  0  0  0  0  0  0  0  0  0
   35.4630   32.9850   41.2430 C   0  0  0  0  0  0  0  0  0  0  0  0
   34.8420   33.1560   40.0010 C   0  0  0  0  0  0  0  0  0  0  0  0
   35.3650   32.4830   38.9080 N   0  0  0  0  0  0  0  0  0  0  0  0
   36.4540   31.6700   39.0170 C   0  0  0  0  0  0  0  0  0  0  0  0
   37.0340   31.5160   40.1940 N   0  0  0  0  0  0  0  0  0  0  0  0
   33.7180   33.9940   39.8390 N   0  0  0  0  0  0  0  0  0  0  0  0
   33.7620   35.3280   40.1400 C   0  0  0  0  0  0  0  0  0  0  0  0
   32.6500   36.1220   39.9720 C   0  0  0  0  0  0  0  0  0  0  0  0
   31.5040   35.5410   39.4960 C   0  0  0  0  0  0  0  0  0  0  0  0
   30.4850   36.2720   39.3420 O   0  0  0  0  0  0  0  0  0  0  0  0
   31.4610   34.2270   39.1990 N   0  0  0  0  0  0  0  0  0  0  0  0
   32.5770   33.4920   39.3810 C   0  0  0  0  0  0  0  0  0  0  0  0
   32.4290   32.2690   39.0710 O   0  0  0  0  0  0  0  0  0  0  0  0
   34.9980   33.5360   42.0440 H   0  0  0  0  0  0  0  0  0  0  0  0
   36.8090   31.1730   38.1160 H   0  0  0  0  0  0  0  0  0  0  0  0
   34.7180   35.7050   40.5150 H   0  0  0  0  0  0  0  0  0  0  0  0
   32.7540   37.1690   40.2300 H   0  0  0  0  0  0  0  0  0  0  0  0
   30.5580   33.8500   38.8410 H   0  0  0  0  0  0  0  0  0  0  0  0
   36.5360   29.6570   43.1750 C   0  0  0  0  0  0  0  0  0  0  0  0
   36.3540   28.7470   42.1450 F   0  0  0  0  0  0  0  0  0  0  0  0
   36.9230   28.8760   44.2690 F   0  0  0  0  0  0  0  0  0  0  0  0
   35.3520   30.2810   43.4130 F   0  0  0  0  0  0  0  0  0  0  0  0
  1  6  1  0  0  0  0
  1  2  1  0  0  0  0
  1  7  1  1  0  0  0
  2  3  1  0  0  0  0
  2  8  1  0  0  0  0
  3 11  1  0  0  0  0
  3  4  1  0  0  0  0
  4  5  1  0  0  0  0
  4 13  1  0  0  0  0
  5 14  1  0  0  0  0
  6 16  1  6  0  0  0
  6 36  1  0  0  0  0
  6  5  1  0  0  0  0
  9  2  1  0  0  0  0
 10  3  1  0  0  0  0
 12  4  1  0  0  0  0
 15  5  1  0  0  0  0
 17  1  1  0  0  0  0
 18 17  1  0  0  0  0
 18 31  1  0  0  0  0
 19 18  2  0  0  0  0
 20 21  2  0  0  0  0
 20 19  1  0  0  0  0
 21 22  1  0  0  0  0
 22 17  2  0  0  0  0
 23 19  1  0  0  0  0
 23 24  1  0  0  0  0
 24 33  1  0  0  0  0
 25 24  2  0  0  0  0
 25 34  1  0  0  0  0
 26 25  1  0  0  0  0
 27 26  2  0  0  0  0
 28 29  1  0  0  0  0
 28 26  1  0  0  0  0
 29 23  1  0  0  0  0
 30 29  2  0  0  0  0
 32 21  1  0  0  0  0
 35 28  1  0  0  0  0
 36 39  1  0  0  0  0
 36 38  1  0  0  0  0
 37 36  1  0  0  0  0
M  END
>  <minimizedAffinity>
-2.51172996

>  <minimizedRMSD>
7.9741087

$$$$
