
 OpenBabel03272506203D

 39 41  0  0  1  0  0  0  0  0999 V2000
   36.9550   31.1790   43.9970 C   0  0  2  0  0  0  0  0  0  0  0  0
   36.3780   32.3900   43.3070 C   0  0  0  0  0  0  0  0  0  0  0  0
   37.1840   32.8360   42.1410 C   0  0  0  0  0  0  0  0  0  0  0  0
   38.6210   33.0650   42.4550 C   0  0  0  0  0  0  0  0  0  0  0  0
   39.2250   32.0120   43.2920 C   0  0  0  0  0  0  0  0  0  0  0  0
   38.3160   30.8180   43.5830 C   0  0  1  0  0  0  0  0  0  0  0  0
   36.9290   31.3140   45.1190 H   0  0  0  0  0  0  0  0  0  0  0  0
   36.4160   33.2300   44.0600 H   0  0  0  0  0  0  0  0  0  0  0  0
   35.3270   32.3100   43.0260 H   0  0  0  0  0  0  0  0  0  0  0  0
   37.0820   32.0230   41.3620 H   0  0  0  0  0  0  0  0  0  0  0  0
   36.7220   33.7640   41.7550 H   0  0  0  0  0  0  0  0  0  0  0  0
   39.1570   33.1960   41.4700 H   0  0  0  0  0  0  0  0  0  0  0  0
   38.7050   34.0730   42.9530 H   0  0  0  0  0  0  0  0  0  0  0  0
   39.6080   32.4110   44.2720 H   0  0  0  0  0  0  0  0  0  0  0  0
   40.1120   31.5760   42.7650 H   0  0  0  0  0  0  0  0  0  0  0  0
   38.3000   30.1890   42.6790 H   0  0  0  0  0  0  0  0  0  0  0  0
   36.0630   29.9890   43.7510 C   0  0  0  0  0  0  0  0  0  0  0  0
   35.2590   29.6100   44.8250 C   0  0  0  0  0  0  0  0  0  0  0  0
   34.4220   28.5030   44.6510 C   0  0  0  0  0  0  0  0  0  0  0  0
   34.4410   27.8520   43.4280 N   0  0  0  0  0  0  0  0  0  0  0  0
   35.2470   28.2620   42.4070 C   0  0  0  0  0  0  0  0  0  0  0  0
   36.0330   29.3090   42.5810 N   0  0  0  0  0  0  0  0  0  0  0  0
   33.5650   28.0490   45.6760 N   0  0  0  0  0  0  0  0  0  0  0  0
   32.5970   28.8510   46.2170 C   0  0  0  0  0  0  0  0  0  0  0  0
   31.7750   28.3810   47.2160 C   0  0  0  0  0  0  0  0  0  0  0  0
   31.9500   27.0940   47.6490 C   0  0  0  0  0  0  0  0  0  0  0  0
   31.1930   26.6650   48.5660 O   0  0  0  0  0  0  0  0  0  0  0  0
   32.9020   26.3030   47.1150 N   0  0  0  0  0  0  0  0  0  0  0  0
   33.6830   26.8100   46.1400 C   0  0  0  0  0  0  0  0  0  0  0  0
   34.5450   25.9850   45.7060 O   0  0  0  0  0  0  0  0  0  0  0  0
   35.1910   30.0600   45.8020 H   0  0  0  0  0  0  0  0  0  0  0  0
   35.2100   27.7010   41.4740 H   0  0  0  0  0  0  0  0  0  0  0  0
   32.5300   29.8650   45.8100 H   0  0  0  0  0  0  0  0  0  0  0  0
   31.0310   29.0700   47.6000 H   0  0  0  0  0  0  0  0  0  0  0  0
   32.9810   25.3350   47.4910 H   0  0  0  0  0  0  0  0  0  0  0  0
   39.0380   30.0290   44.6710 C   0  0  0  0  0  0  0  0  0  0  0  0
   40.3060   30.5650   44.8310 F   0  0  0  0  0  0  0  0  0  0  0  0
   38.4090   30.2370   45.9040 F   0  0  0  0  0  0  0  0  0  0  0  0
   39.1620   28.7010   44.4040 F   0  0  0  0  0  0  0  0  0  0  0  0
  1  7  1  1  0  0  0
  2  1  1  0  0  0  0
  2  8  1  0  0  0  0
  3  4  1  0  0  0  0
  3  2  1  0  0  0  0
  4 13  1  0  0  0  0
  4  5  1  0  0  0  0
  5  6  1  0  0  0  0
  5 14  1  0  0  0  0
  6 16  1  6  0  0  0
  6  1  1  0  0  0  0
  6 36  1  0  0  0  0
  9  2  1  0  0  0  0
 10  3  1  0  0  0  0
 11  3  1  0  0  0  0
 12  4  1  0  0  0  0
 15  5  1  0  0  0  0
 17  1  1  0  0  0  0
 17 18  1  0  0  0  0
 18 31  1  0  0  0  0
 19 18  2  0  0  0  0
 19 23  1  0  0  0  0
 20 19  1  0  0  0  0
 21 22  1  0  0  0  0
 21 20  2  0  0  0  0
 22 17  2  0  0  0  0
 23 29  1  0  0  0  0
 23 24  1  0  0  0  0
 24 25  2  0  0  0  0
 25 34  1  0  0  0  0
 25 26  1  0  0  0  0
 26 27  2  0  0  0  0
 28 35  1  0  0  0  0
 28 26  1  0  0  0  0
 29 28  1  0  0  0  0
 30 29  2  0  0  0  0
 32 21  1  0  0  0  0
 33 24  1  0  0  0  0
 36 37  1  0  0  0  0
 36 38  1  0  0  0  0
 39 36  1  0  0  0  0
M  END
>  <minimizedAffinity>
-3.84878516

>  <minimizedRMSD>
6.40879679

$$$$
