
 OpenBabel03262522183D

 20 20  0  0  0  0  0  0  0  0999 V2000
   38.6860   31.3300   49.2270 O   0  0  0  0  0  0  0  0  0  0  0  0
   37.3190   30.4410   50.9950 C   0  0  0  0  0  0  0  0  0  0  0  0
   37.6530   30.5360   49.6220 C   0  0  0  0  0  0  0  0  0  0  0  0
   36.8750   29.7840   48.7400 C   0  0  0  0  0  0  0  0  0  0  0  0
   35.8590   29.0160   49.2290 N   0  0  0  0  0  0  0  0  0  0  0  0
   35.5880   28.9650   50.5420 C   0  0  0  0  0  0  0  0  0  0  0  0
   36.3140   29.6760   51.4420 N   0  0  0  0  0  0  0  0  0  0  0  0
   37.8730   30.9930   51.7510 H   0  0  0  0  0  0  0  0  0  0  0  0
   37.1270   29.8540   47.6800 H   0  0  0  0  0  0  0  0  0  0  0  0
   34.7460   28.2980   50.7110 H   0  0  0  0  0  0  0  0  0  0  0  0
   37.4270   32.2720   47.1630 O   0  0  0  0  0  0  0  0  0  0  0  0
   38.8110   32.2430   47.8230 P   0  0  1  0  0  0  0  0  0  0  0  0
   39.1920   33.8330   48.2860 O   0  0  0  0  0  0  0  0  0  0  0  0
   38.3480   34.2930   48.5480 H   0  0  0  0  0  0  0  0  0  0  0  0
   39.8810   31.6280   46.6930 O   0  0  0  0  0  0  0  0  0  0  0  0
   40.1930   32.2590   45.4960 C   0  0  0  0  0  0  0  0  0  0  0  0
   40.8920   31.7260   44.6030 O   0  0  0  0  0  0  0  0  0  0  0  0
   39.6960   33.5770   45.2650 N   0  0  0  0  0  0  0  0  0  0  0  0
   39.4740   34.2630   46.0140 H   0  0  0  0  0  0  0  0  0  0  0  0
   39.4780   34.0670   44.3960 H   0  0  0  0  0  0  0  0  0  0  0  0
  1  3  1  0  0  0  0
  2  7  1  0  0  0  0
  2  8  1  0  0  0  0
  3  2  2  0  0  0  0
  4  5  2  0  0  0  0
  4  3  1  0  0  0  0
  5  6  1  0  0  0  0
  6 10  1  0  0  0  0
  6  7  2  0  0  0  0
  9  4  1  0  0  0  0
 12 11  2  6  0  0  0
 12 13  1  0  0  0  0
 12  1  1  0  0  0  0
 13 14  1  0  0  0  0
 15 12  1  0  0  0  0
 16 15  1  0  0  0  0
 17 16  2  0  0  0  0
 18 16  1  0  0  0  0
 18 19  1  0  0  0  0
 20 18  1  0  0  0  0
M  END
>  <minimizedAffinity>
-4.20774698

>  <minimizedRMSD>
1.95160651

$$$$
