
 OpenBabel03262521443D

 42 44  0  0  1  0  0  0  0  0999 V2000
   37.0900   24.9470   33.0360 O   0  0  0  0  0  0  0  0  0  0  0  0
   38.4480   25.3900   35.0220 C   0  0  2  0  0  0  0  0  0  0  0  0
   38.1250   24.5330   33.8140 C   0  0  2  0  0  0  0  0  0  0  0  0
   39.3930   24.3230   33.0570 C   0  0  0  0  0  0  0  0  0  0  0  0
   40.4720   24.2450   33.8920 O   0  0  0  0  0  0  0  0  0  0  0  0
   40.1300   23.5570   35.0390 C   0  0  0  0  0  0  0  0  0  0  0  0
   39.3270   24.4790   35.9180 C   0  0  2  0  0  0  0  0  0  0  0  0
   39.0910   26.2510   34.7580 H   0  0  0  0  0  0  0  0  0  0  0  0
   37.9550   23.5880   34.3540 H   0  0  0  0  0  0  0  0  0  0  0  0
   39.5440   25.2620   32.4460 H   0  0  0  0  0  0  0  0  0  0  0  0
   39.3260   23.4820   32.3320 H   0  0  0  0  0  0  0  0  0  0  0  0
   41.0790   23.3790   35.5940 H   0  0  0  0  0  0  0  0  0  0  0  0
   39.6810   22.5750   34.8670 H   0  0  0  0  0  0  0  0  0  0  0  0
   39.9770   25.1310   36.5330 H   0  0  0  0  0  0  0  0  0  0  0  0
   37.4100   25.7670   35.8070 O   0  0  0  0  0  0  0  0  0  0  0  0
   37.5400   26.7020   36.1010 H   0  0  0  0  0  0  0  0  0  0  0  0
   38.4860   23.6370   36.6840 O   0  0  0  0  0  0  0  0  0  0  0  0
   38.4640   23.6640   38.0740 C   0  0  0  0  0  0  0  0  0  0  0  0
   37.7730   24.5400   38.6730 O   0  0  0  0  0  0  0  0  0  0  0  0
   39.2730   22.6340   38.6280 N   0  0  0  0  0  0  0  0  0  0  0  0
   40.2840   22.7510   38.8540 H   0  0  0  0  0  0  0  0  0  0  0  0
   39.0650   21.6660   38.8960 H   0  0  0  0  0  0  0  0  0  0  0  0
   37.4030   24.9430   31.7370 C   0  0  1  0  0  0  0  0  0  0  0  0
   36.4900   24.1200   30.8650 C   0  0  2  0  0  0  0  0  0  0  0  0
   35.1930   24.8930   31.1420 C   0  0  0  0  0  0  0  0  0  0  0  0
   35.5200   26.2270   31.1160 O   0  0  0  0  0  0  0  0  0  0  0  0
   36.8520   26.3120   31.2170 C   0  0  0  0  0  0  0  0  0  0  0  0
   38.4670   25.1260   31.4610 H   0  0  0  0  0  0  0  0  0  0  0  0
   36.8140   24.2630   29.8360 H   0  0  0  0  0  0  0  0  0  0  0  0
   34.8310   24.5940   32.1480 H   0  0  0  0  0  0  0  0  0  0  0  0
   34.4170   24.6070   30.4140 H   0  0  0  0  0  0  0  0  0  0  0  0
   37.1190   26.1030   30.1020 H   0  0  0  0  0  0  0  0  0  0  0  0
   37.4150   27.1710   31.2990 H   0  0  0  0  0  0  0  0  0  0  0  0
   36.3970   22.7260   31.3220 C   0  0  0  0  0  0  0  0  0  0  0  0
   35.2050   22.3150   31.9200 C   0  0  0  0  0  0  0  0  0  0  0  0
   35.1480   20.9710   32.3700 C   0  0  0  0  0  0  0  0  0  0  0  0
   36.2510   20.1670   32.1940 N   0  0  0  0  0  0  0  0  0  0  0  0
   37.3860   20.6130   31.6070 C   0  0  0  0  0  0  0  0  0  0  0  0
   37.4460   21.8890   31.1770 N   0  0  0  0  0  0  0  0  0  0  0  0
   34.3360   22.9150   32.0680 H   0  0  0  0  0  0  0  0  0  0  0  0
   34.3040   20.5190   32.8430 H   0  0  0  0  0  0  0  0  0  0  0  0
   38.2390   19.9610   31.4810 H   0  0  0  0  0  0  0  0  0  0  0  0
  1  3  1  0  0  0  0
  2  8  1  6  0  0  0
  2 15  1  0  0  0  0
  2  7  1  0  0  0  0
  3  9  1  1  0  0  0
  3  2  1  0  0  0  0
  4  3  1  0  0  0  0
  4  5  1  0  0  0  0
  5  6  1  0  0  0  0
  6 12  1  0  0  0  0
  6  7  1  0  0  0  0
  7 14  1  1  0  0  0
  7 17  1  0  0  0  0
 10  4  1  0  0  0  0
 11  4  1  0  0  0  0
 13  6  1  0  0  0  0
 15 16  1  0  0  0  0
 17 18  1  0  0  0  0
 18 20  1  0  0  0  0
 18 19  2  0  0  0  0
 20 21  1  0  0  0  0
 20 22  1  0  0  0  0
 23 28  1  6  0  0  0
 23  1  1  0  0  0  0
 24 29  1  6  0  0  0
 24 25  1  0  0  0  0
 24 34  1  0  0  0  0
 24 23  1  0  0  0  0
 25 30  1  0  0  0  0
 26 25  1  0  0  0  0
 26 27  1  0  0  0  0
 27 33  1  0  0  0  0
 27 23  1  0  0  0  0
 31 25  1  0  0  0  0
 32 27  1  0  0  0  0
 34 35  1  0  0  0  0
 35 40  1  0  0  0  0
 35 36  2  0  0  0  0
 36 41  1  0  0  0  0
 37 36  1  0  0  0  0
 38 37  2  0  0  0  0
 39 34  2  0  0  0  0
 39 38  1  0  0  0  0
 42 38  1  0  0  0  0
M  END
>  <minimizedAffinity>
-5.26137924

$$$$

 OpenBabel03262521443D

 42 44  0  0  1  0  0  0  0  0999 V2000
   37.9010   25.1810   35.4220 O   0  0  0  0  0  0  0  0  0  0  0  0
   38.5640   22.8590   35.8130 C   0  0  2  0  0  0  0  0  0  0  0  0
   38.5290   24.3080   36.2550 C   0  0  2  0  0  0  0  0  0  0  0  0
   38.0100   24.3410   37.6530 C   0  0  0  0  0  0  0  0  0  0  0  0
   38.4070   23.2440   38.3650 O   0  0  0  0  0  0  0  0  0  0  0  0
   39.7020   22.9060   38.0250 C   0  0  0  0  0  0  0  0  0  0  0  0
   39.6720   22.2150   36.6870 C   0  0  2  0  0  0  0  0  0  0  0  0
   37.6330   22.3230   36.0760 H   0  0  0  0  0  0  0  0  0  0  0  0
   39.6170   24.4530   36.3500 H   0  0  0  0  0  0  0  0  0  0  0  0
   36.8850   24.2610   37.5650 H   0  0  0  0  0  0  0  0  0  0  0  0
   38.2180   25.3060   38.1650 H   0  0  0  0  0  0  0  0  0  0  0  0
   40.0230   22.1250   38.7490 H   0  0  0  0  0  0  0  0  0  0  0  0
   40.4240   23.7230   38.1070 H   0  0  0  0  0  0  0  0  0  0  0  0
   39.4440   21.1360   36.7870 H   0  0  0  0  0  0  0  0  0  0  0  0
   38.9330   22.6130   34.5330 O   0  0  0  0  0  0  0  0  0  0  0  0
   38.3770   21.8850   34.1610 H   0  0  0  0  0  0  0  0  0  0  0  0
   40.9320   22.4730   36.0980 O   0  0  0  0  0  0  0  0  0  0  0  0
   42.1250   22.0300   36.6560 C   0  0  0  0  0  0  0  0  0  0  0  0
   43.1130   22.8190   36.7320 O   0  0  0  0  0  0  0  0  0  0  0  0
   42.0330   20.6760   37.0790 N   0  0  0  0  0  0  0  0  0  0  0  0
   42.2630   19.8620   36.4700 H   0  0  0  0  0  0  0  0  0  0  0  0
   41.7530   20.2520   37.9710 H   0  0  0  0  0  0  0  0  0  0  0  0
   38.7600   26.0110   34.8230 C   0  0  1  0  0  0  0  0  0  0  0  0
   38.2440   26.6600   33.5640 C   0  0  2  0  0  0  0  0  0  0  0  0
   37.0610   27.4100   34.1930 C   0  0  0  0  0  0  0  0  0  0  0  0
   37.5190   27.9450   35.3720 O   0  0  0  0  0  0  0  0  0  0  0  0
   38.6650   27.3210   35.6730 C   0  0  0  0  0  0  0  0  0  0  0  0
   39.8480   25.8380   34.9870 H   0  0  0  0  0  0  0  0  0  0  0  0
   39.0090   27.3570   33.2250 H   0  0  0  0  0  0  0  0  0  0  0  0
   36.2550   26.6700   34.3810 H   0  0  0  0  0  0  0  0  0  0  0  0
   36.6650   28.1570   33.4850 H   0  0  0  0  0  0  0  0  0  0  0  0
   39.3760   27.9340   34.9810 H   0  0  0  0  0  0  0  0  0  0  0  0
   39.2280   27.4360   36.5280 H   0  0  0  0  0  0  0  0  0  0  0  0
   37.7940   25.6690   32.5760 C   0  0  0  0  0  0  0  0  0  0  0  0
   36.4850   25.7720   32.1020 C   0  0  0  0  0  0  0  0  0  0  0  0
   36.0690   24.7920   31.1640 C   0  0  0  0  0  0  0  0  0  0  0  0
   36.9630   23.8180   30.7840 N   0  0  0  0  0  0  0  0  0  0  0  0
   38.2240   23.7620   31.2730 C   0  0  0  0  0  0  0  0  0  0  0  0
   38.6250   24.6900   32.1650 N   0  0  0  0  0  0  0  0  0  0  0  0
   35.7720   26.5160   32.3780 H   0  0  0  0  0  0  0  0  0  0  0  0
   35.1000   24.7450   30.7170 H   0  0  0  0  0  0  0  0  0  0  0  0
   38.9080   22.9850   30.9580 H   0  0  0  0  0  0  0  0  0  0  0  0
  1  3  1  0  0  0  0
  2  8  1  1  0  0  0
  2  3  1  0  0  0  0
  2  7  1  0  0  0  0
  3  9  1  1  0  0  0
  3  4  1  0  0  0  0
  4 11  1  0  0  0  0
  4  5  1  0  0  0  0
  6 13  1  0  0  0  0
  6  5  1  0  0  0  0
  6 12  1  0  0  0  0
  7 14  1  1  0  0  0
  7  6  1  0  0  0  0
 10  4  1  0  0  0  0
 15  2  1  0  0  0  0
 16 15  1  0  0  0  0
 17 18  1  0  0  0  0
 17  7  1  0  0  0  0
 18 19  2  0  0  0  0
 18 20  1  0  0  0  0
 20 22  1  0  0  0  0
 21 20  1  0  0  0  0
 23 28  1  6  0  0  0
 23  1  1  0  0  0  0
 23 27  1  0  0  0  0
 24 29  1  6  0  0  0
 24 25  1  0  0  0  0
 24 23  1  0  0  0  0
 25 30  1  0  0  0  0
 25 26  1  0  0  0  0
 26 27  1  0  0  0  0
 27 33  1  0  0  0  0
 31 25  1  0  0  0  0
 32 27  1  0  0  0  0
 34 24  1  0  0  0  0
 35 40  1  0  0  0  0
 35 34  2  0  0  0  0
 36 35  1  0  0  0  0
 37 36  2  0  0  0  0
 37 38  1  0  0  0  0
 38 39  2  0  0  0  0
 39 34  1  0  0  0  0
 41 36  1  0  0  0  0
 42 38  1  0  0  0  0
M  END
>  <minimizedAffinity>
-5.13175678

$$$$

 OpenBabel03262521443D

 42 44  0  0  1  0  0  0  0  0999 V2000
   37.8010   22.0360   33.5390 O   0  0  0  0  0  0  0  0  0  0  0  0
   38.9200   23.8730   34.7040 C   0  0  2  0  0  0  0  0  0  0  0  0
   37.8020   22.8530   34.6260 C   0  0  2  0  0  0  0  0  0  0  0  0
   37.7700   22.1180   35.9240 C   0  0  0  0  0  0  0  0  0  0  0  0
   38.1130   22.9280   36.9710 O   0  0  0  0  0  0  0  0  0  0  0  0
   37.5870   24.1900   36.7800 C   0  0  0  0  0  0  0  0  0  0  0  0
   38.4320   24.9020   35.7570 C   0  0  2  0  0  0  0  0  0  0  0  0
   39.8470   23.4410   35.1240 H   0  0  0  0  0  0  0  0  0  0  0  0
   36.9600   23.5620   34.6780 H   0  0  0  0  0  0  0  0  0  0  0  0
   38.5880   21.3400   35.8560 H   0  0  0  0  0  0  0  0  0  0  0  0
   36.8190   21.5630   36.0790 H   0  0  0  0  0  0  0  0  0  0  0  0
   37.7500   24.7460   37.7300 H   0  0  0  0  0  0  0  0  0  0  0  0
   36.5100   24.2130   36.5870 H   0  0  0  0  0  0  0  0  0  0  0  0
   39.3240   25.3710   36.2150 H   0  0  0  0  0  0  0  0  0  0  0  0
   39.1720   24.5990   33.5870 O   0  0  0  0  0  0  0  0  0  0  0  0
   40.1480   24.7130   33.4790 H   0  0  0  0  0  0  0  0  0  0  0  0
   37.5680   25.8300   35.1280 O   0  0  0  0  0  0  0  0  0  0  0  0
   37.6730   27.2020   35.3210 C   0  0  0  0  0  0  0  0  0  0  0  0
   36.8310   27.9780   34.7800 O   0  0  0  0  0  0  0  0  0  0  0  0
   38.7830   27.5290   36.1490 N   0  0  0  0  0  0  0  0  0  0  0  0
   39.7390   27.7210   35.7850 H   0  0  0  0  0  0  0  0  0  0  0  0
   38.8730   27.6350   37.1660 H   0  0  0  0  0  0  0  0  0  0  0  0
   36.5880   21.9260   32.9920 C   0  0  1  0  0  0  0  0  0  0  0  0
   36.5160   22.2700   31.5260 C   0  0  2  0  0  0  0  0  0  0  0  0
   37.4780   21.1860   31.0170 C   0  0  0  0  0  0  0  0  0  0  0  0
   37.1670   20.0360   31.7000 O   0  0  0  0  0  0  0  0  0  0  0  0
   36.4240   20.3880   32.7560 C   0  0  0  0  0  0  0  0  0  0  0  0
   35.7050   22.0410   33.6630 H   0  0  0  0  0  0  0  0  0  0  0  0
   35.4980   22.0690   31.1980 H   0  0  0  0  0  0  0  0  0  0  0  0
   38.5110   21.5170   31.2500 H   0  0  0  0  0  0  0  0  0  0  0  0
   37.3990   21.0930   29.9220 H   0  0  0  0  0  0  0  0  0  0  0  0
   35.3960   20.4850   32.2130 H   0  0  0  0  0  0  0  0  0  0  0  0
   36.0850   19.7730   33.5100 H   0  0  0  0  0  0  0  0  0  0  0  0
   37.0270   23.6200   31.2500 C   0  0  0  0  0  0  0  0  0  0  0  0
   38.1360   23.7360   30.4090 C   0  0  0  0  0  0  0  0  0  0  0  0
   38.6200   25.0490   30.1740 C   0  0  0  0  0  0  0  0  0  0  0  0
   37.9820   26.1080   30.7760 N   0  0  0  0  0  0  0  0  0  0  0  0
   36.9080   25.9430   31.5830 C   0  0  0  0  0  0  0  0  0  0  0  0
   36.4430   24.6980   31.8110 N   0  0  0  0  0  0  0  0  0  0  0  0
   38.6490   22.9340   29.9300 H   0  0  0  0  0  0  0  0  0  0  0  0
   39.4570   25.2900   29.5560 H   0  0  0  0  0  0  0  0  0  0  0  0
   36.4240   26.7920   32.0450 H   0  0  0  0  0  0  0  0  0  0  0  0
  1  3  1  0  0  0  0
  2  8  1  1  0  0  0
  2  7  1  0  0  0  0
  3  9  1  6  0  0  0
  3  2  1  0  0  0  0
  3  4  1  0  0  0  0
  4 11  1  0  0  0  0
  4  5  1  0  0  0  0
  6  5  1  0  0  0  0
  6 12  1  0  0  0  0
  7 14  1  1  0  0  0
  7  6  1  0  0  0  0
 10  4  1  0  0  0  0
 13  6  1  0  0  0  0
 15  2  1  0  0  0  0
 16 15  1  0  0  0  0
 17 18  1  0  0  0  0
 17  7  1  0  0  0  0
 18 20  1  0  0  0  0
 19 18  2  0  0  0  0
 20 22  1  0  0  0  0
 21 20  1  0  0  0  0
 23  1  1  0  0  0  0
 23 28  1  1  0  0  0
 24 29  1  6  0  0  0
 24 23  1  0  0  0  0
 25 30  1  0  0  0  0
 25 24  1  0  0  0  0
 25 26  1  0  0  0  0
 26 27  1  0  0  0  0
 27 23  1  0  0  0  0
 27 33  1  0  0  0  0
 31 25  1  0  0  0  0
 32 27  1  0  0  0  0
 34 24  1  0  0  0  0
 34 39  1  0  0  0  0
 35 34  2  0  0  0  0
 36 35  1  0  0  0  0
 36 37  2  0  0  0  0
 37 38  1  0  0  0  0
 38 39  2  0  0  0  0
 38 42  1  0  0  0  0
 40 35  1  0  0  0  0
 41 36  1  0  0  0  0
M  END
>  <minimizedAffinity>
-4.84259224

$$$$

 OpenBabel03262521443D

 42 44  0  0  1  0  0  0  0  0999 V2000
   38.9010   24.7760   36.0480 O   0  0  0  0  0  0  0  0  0  0  0  0
   38.7890   25.7310   33.7980 C   0  0  2  0  0  0  0  0  0  0  0  0
   38.2400   25.6150   35.2060 C   0  0  2  0  0  0  0  0  0  0  0  0
   38.0830   26.9970   35.7450 C   0  0  0  0  0  0  0  0  0  0  0  0
   37.7340   27.8840   34.7660 O   0  0  0  0  0  0  0  0  0  0  0  0
   36.8510   27.2890   33.8860 C   0  0  0  0  0  0  0  0  0  0  0  0
   37.6340   26.3710   32.9840 C   0  0  2  0  0  0  0  0  0  0  0  0
   39.6250   26.4530   33.7370 H   0  0  0  0  0  0  0  0  0  0  0  0
   37.2210   25.2970   34.9350 H   0  0  0  0  0  0  0  0  0  0  0  0
   39.1140   27.3100   36.0900 H   0  0  0  0  0  0  0  0  0  0  0  0
   37.4260   27.0370   36.6410 H   0  0  0  0  0  0  0  0  0  0  0  0
   36.4760   28.0990   33.2220 H   0  0  0  0  0  0  0  0  0  0  0  0
   35.9720   26.8380   34.3550 H   0  0  0  0  0  0  0  0  0  0  0  0
   38.0790   26.9150   32.1290 H   0  0  0  0  0  0  0  0  0  0  0  0
   39.0820   24.5760   33.1530 O   0  0  0  0  0  0  0  0  0  0  0  0
   39.9170   24.6880   32.6360 H   0  0  0  0  0  0  0  0  0  0  0  0
   36.7260   25.3560   32.5960 O   0  0  0  0  0  0  0  0  0  0  0  0
   36.2950   25.1980   31.2840 C   0  0  0  0  0  0  0  0  0  0  0  0
   35.0720   25.3690   31.0020 O   0  0  0  0  0  0  0  0  0  0  0  0
   37.3690   24.8490   30.4200 N   0  0  0  0  0  0  0  0  0  0  0  0
   37.6550   23.8680   30.2190 H   0  0  0  0  0  0  0  0  0  0  0  0
   38.0200   25.4200   29.8690 H   0  0  0  0  0  0  0  0  0  0  0  0
   38.4280   23.5280   35.9890 C   0  0  1  0  0  0  0  0  0  0  0  0
   39.3370   22.4750   36.5690 C   0  0  2  0  0  0  0  0  0  0  0  0
   39.3730   23.0100   38.0080 C   0  0  0  0  0  0  0  0  0  0  0  0
   38.0870   23.3770   38.3210 O   0  0  0  0  0  0  0  0  0  0  0  0
   37.4070   23.4610   37.1710 C   0  0  0  0  0  0  0  0  0  0  0  0
   37.6970   23.2880   35.1820 H   0  0  0  0  0  0  0  0  0  0  0  0
   38.8030   21.5270   36.5220 H   0  0  0  0  0  0  0  0  0  0  0  0
   40.0510   23.8890   38.0240 H   0  0  0  0  0  0  0  0  0  0  0  0
   39.8000   22.2520   38.6850 H   0  0  0  0  0  0  0  0  0  0  0  0
   37.1750   22.3270   37.0310 H   0  0  0  0  0  0  0  0  0  0  0  0
   36.4350   23.7810   37.0470 H   0  0  0  0  0  0  0  0  0  0  0  0
   40.6710   22.4930   35.9510 C   0  0  0  0  0  0  0  0  0  0  0  0
   41.7760   22.6160   36.7940 C   0  0  0  0  0  0  0  0  0  0  0  0
   43.0500   22.6500   36.1710 C   0  0  0  0  0  0  0  0  0  0  0  0
   43.1190   22.5620   34.8000 N   0  0  0  0  0  0  0  0  0  0  0  0
   42.0160   22.4430   34.0250 C   0  0  0  0  0  0  0  0  0  0  0  0
   40.8020   22.4100   34.6110 N   0  0  0  0  0  0  0  0  0  0  0  0
   41.7520   22.6860   37.8580 H   0  0  0  0  0  0  0  0  0  0  0  0
   43.9810   22.7410   36.6870 H   0  0  0  0  0  0  0  0  0  0  0  0
   42.0970   22.3770   32.9490 H   0  0  0  0  0  0  0  0  0  0  0  0
  2  8  1  6  0  0  0
  2  3  1  0  0  0  0
  3  9  1  6  0  0  0
  3  4  1  0  0  0  0
  3  1  1  0  0  0  0
  4 10  1  0  0  0  0
  4 11  1  0  0  0  0
  5  4  1  0  0  0  0
  6 13  1  0  0  0  0
  6  5  1  0  0  0  0
  7 14  1  6  0  0  0
  7  2  1  0  0  0  0
  7  6  1  0  0  0  0
 12  6  1  0  0  0  0
 15  2  1  0  0  0  0
 16 15  1  0  0  0  0
 17  7  1  0  0  0  0
 18 17  1  0  0  0  0
 19 18  2  0  0  0  0
 20 18  1  0  0  0  0
 21 20  1  0  0  0  0
 22 20  1  0  0  0  0
 23 28  1  6  0  0  0
 23  1  1  0  0  0  0
 23 24  1  0  0  0  0
 23 27  1  0  0  0  0
 24 29  1  6  0  0  0
 24 25  1  0  0  0  0
 25 30  1  0  0  0  0
 25 26  1  0  0  0  0
 25 31  1  0  0  0  0
 27 26  1  0  0  0  0
 32 27  1  0  0  0  0
 33 27  1  0  0  0  0
 34 24  1  0  0  0  0
 34 35  1  0  0  0  0
 35 40  1  0  0  0  0
 36 41  1  0  0  0  0
 36 35  2  0  0  0  0
 37 36  1  0  0  0  0
 38 39  1  0  0  0  0
 38 37  2  0  0  0  0
 39 34  2  0  0  0  0
 42 38  1  0  0  0  0
M  END
>  <minimizedAffinity>
-4.83864355

$$$$

 OpenBabel03262521443D

 42 44  0  0  1  0  0  0  0  0999 V2000
   37.6720   27.7890   32.9020 O   0  0  0  0  0  0  0  0  0  0  0  0
   38.7300   27.1930   35.0250 C   0  0  2  0  0  0  0  0  0  0  0  0
   38.3010   26.8210   33.6200 C   0  0  2  0  0  0  0  0  0  0  0  0
   39.4860   26.2390   32.9250 C   0  0  0  0  0  0  0  0  0  0  0  0
   40.2820   25.5360   33.7860 O   0  0  0  0  0  0  0  0  0  0  0  0
   39.4990   24.8500   34.6940 C   0  0  0  0  0  0  0  0  0  0  0  0
   38.9980   25.8320   35.7200 C   0  0  2  0  0  0  0  0  0  0  0  0
   39.7000   27.7240   35.0360 H   0  0  0  0  0  0  0  0  0  0  0  0
   37.6740   25.9560   33.8880 H   0  0  0  0  0  0  0  0  0  0  0  0
   40.1060   27.1220   32.5850 H   0  0  0  0  0  0  0  0  0  0  0  0
   39.2120   25.6750   32.0070 H   0  0  0  0  0  0  0  0  0  0  0  0
   40.1850   24.1720   35.2500 H   0  0  0  0  0  0  0  0  0  0  0  0
   38.7290   24.2150   34.2470 H   0  0  0  0  0  0  0  0  0  0  0  0
   39.7400   26.0000   36.5250 H   0  0  0  0  0  0  0  0  0  0  0  0
   37.8140   27.8160   35.8050 O   0  0  0  0  0  0  0  0  0  0  0  0
   38.2570   28.5220   36.3370 H   0  0  0  0  0  0  0  0  0  0  0  0
   37.7710   25.3020   36.1860 O   0  0  0  0  0  0  0  0  0  0  0  0
   37.7050   24.2660   37.1100 C   0  0  0  0  0  0  0  0  0  0  0  0
   37.3320   23.1150   36.7350 O   0  0  0  0  0  0  0  0  0  0  0  0
   38.0910   24.6990   38.4080 N   0  0  0  0  0  0  0  0  0  0  0  0
   37.4270   25.0850   39.1110 H   0  0  0  0  0  0  0  0  0  0  0  0
   39.0020   24.7230   38.8810 H   0  0  0  0  0  0  0  0  0  0  0  0
   36.3730   27.5270   32.7330 C   0  0  1  0  0  0  0  0  0  0  0  0
   35.5410   28.7000   32.2800 C   0  0  2  0  0  0  0  0  0  0  0  0
   36.2560   28.9510   30.9440 C   0  0  0  0  0  0  0  0  0  0  0  0
   36.4770   27.7180   30.3810 O   0  0  0  0  0  0  0  0  0  0  0  0
   36.3160   26.8050   31.3470 C   0  0  0  0  0  0  0  0  0  0  0  0
   35.9320   26.6920   33.3250 H   0  0  0  0  0  0  0  0  0  0  0  0
   34.5300   28.3310   32.1140 H   0  0  0  0  0  0  0  0  0  0  0  0
   37.2160   29.4610   31.1670 H   0  0  0  0  0  0  0  0  0  0  0  0
   35.6580   29.6310   30.3150 H   0  0  0  0  0  0  0  0  0  0  0  0
   35.1520   26.7390   31.3230 H   0  0  0  0  0  0  0  0  0  0  0  0
   36.4780   25.7900   31.2750 H   0  0  0  0  0  0  0  0  0  0  0  0
   35.6660   29.8500   33.1860 C   0  0  0  0  0  0  0  0  0  0  0  0
   35.7890   31.1180   32.6140 C   0  0  0  0  0  0  0  0  0  0  0  0
   35.9280   32.2090   33.5100 C   0  0  0  0  0  0  0  0  0  0  0  0
   35.9330   31.9580   34.8630 N   0  0  0  0  0  0  0  0  0  0  0  0
   35.8100   30.7090   35.3690 C   0  0  0  0  0  0  0  0  0  0  0  0
   35.6780   29.6670   34.5220 N   0  0  0  0  0  0  0  0  0  0  0  0
   35.7880   31.3410   31.5720 H   0  0  0  0  0  0  0  0  0  0  0  0
   36.0310   33.2310   33.2180 H   0  0  0  0  0  0  0  0  0  0  0  0
   35.8180   30.5380   36.4360 H   0  0  0  0  0  0  0  0  0  0  0  0
  1  3  1  0  0  0  0
  2  8  1  6  0  0  0
  2  7  1  0  0  0  0
  2 15  1  0  0  0  0
  3  9  1  1  0  0  0
  3  2  1  0  0  0  0
  4  3  1  0  0  0  0
  4  5  1  0  0  0  0
  5  6  1  0  0  0  0
  6 12  1  0  0  0  0
  6  7  1  0  0  0  0
  7 17  1  0  0  0  0
  7 14  1  1  0  0  0
 10  4  1  0  0  0  0
 11  4  1  0  0  0  0
 13  6  1  0  0  0  0
 15 16  1  0  0  0  0
 17 18  1  0  0  0  0
 18 20  1  0  0  0  0
 19 18  2  0  0  0  0
 20 22  1  0  0  0  0
 20 21  1  0  0  0  0
 23  1  1  0  0  0  0
 23 28  1  1  0  0  0
 24 29  1  6  0  0  0
 24 23  1  0  0  0  0
 24 34  1  0  0  0  0
 25 30  1  0  0  0  0
 25 24  1  0  0  0  0
 26 25  1  0  0  0  0
 26 27  1  0  0  0  0
 27 23  1  0  0  0  0
 31 25  1  0  0  0  0
 32 27  1  0  0  0  0
 33 27  1  0  0  0  0
 34 39  1  0  0  0  0
 35 34  2  0  0  0  0
 35 36  1  0  0  0  0
 36 37  2  0  0  0  0
 37 38  1  0  0  0  0
 38 42  1  0  0  0  0
 39 38  2  0  0  0  0
 40 35  1  0  0  0  0
 41 36  1  0  0  0  0
M  END
>  <minimizedAffinity>
-4.78115892

$$$$

 OpenBabel03262521443D

 42 44  0  0  1  0  0  0  0  0999 V2000
   39.1860   24.5470   35.9520 O   0  0  0  0  0  0  0  0  0  0  0  0
   38.9340   26.0270   34.0200 C   0  0  2  0  0  0  0  0  0  0  0  0
   38.4590   25.5410   35.3760 C   0  0  2  0  0  0  0  0  0  0  0  0
   38.2880   26.7380   36.2500 C   0  0  0  0  0  0  0  0  0  0  0  0
   37.8640   27.8260   35.5390 O   0  0  0  0  0  0  0  0  0  0  0  0
   36.9570   27.4320   34.5750 C   0  0  0  0  0  0  0  0  0  0  0  0
   37.7210   26.8000   33.4410 C   0  0  2  0  0  0  0  0  0  0  0  0
   39.7430   26.7740   34.1090 H   0  0  0  0  0  0  0  0  0  0  0  0
   37.4370   25.2590   35.0750 H   0  0  0  0  0  0  0  0  0  0  0  0
   39.3250   26.9970   36.6200 H   0  0  0  0  0  0  0  0  0  0  0  0
   37.6750   26.5260   37.1530 H   0  0  0  0  0  0  0  0  0  0  0  0
   36.5250   28.3660   34.1500 H   0  0  0  0  0  0  0  0  0  0  0  0
   36.1160   26.8430   34.9510 H   0  0  0  0  0  0  0  0  0  0  0  0
   38.1060   27.5580   32.7320 H   0  0  0  0  0  0  0  0  0  0  0  0
   39.2280   25.0820   33.0950 O   0  0  0  0  0  0  0  0  0  0  0  0
   40.0330   25.3530   32.5890 H   0  0  0  0  0  0  0  0  0  0  0  0
   36.8260   25.8780   32.8480 O   0  0  0  0  0  0  0  0  0  0  0  0
   36.4030   25.9860   31.5280 C   0  0  0  0  0  0  0  0  0  0  0  0
   35.2470   26.4410   31.2760 O   0  0  0  0  0  0  0  0  0  0  0  0
   37.4030   25.5410   30.6210 N   0  0  0  0  0  0  0  0  0  0  0  0
   37.4870   24.5570   30.2900 H   0  0  0  0  0  0  0  0  0  0  0  0
   38.1700   26.0330   30.1490 H   0  0  0  0  0  0  0  0  0  0  0  0
   38.4110   23.5700   36.4330 C   0  0  1  0  0  0  0  0  0  0  0  0
   38.7450   22.1880   35.9320 C   0  0  2  0  0  0  0  0  0  0  0  0
   40.1760   22.1130   36.4850 C   0  0  0  0  0  0  0  0  0  0  0  0
   40.1330   22.6380   37.7530 O   0  0  0  0  0  0  0  0  0  0  0  0
   38.9830   23.3130   37.8660 C   0  0  0  0  0  0  0  0  0  0  0  0
   37.3800   23.8400   36.7590 H   0  0  0  0  0  0  0  0  0  0  0  0
   38.0920   21.4910   36.4540 H   0  0  0  0  0  0  0  0  0  0  0  0
   40.8240   22.7270   35.8250 H   0  0  0  0  0  0  0  0  0  0  0  0
   40.5470   21.0760   36.4400 H   0  0  0  0  0  0  0  0  0  0  0  0
   38.2790   22.4100   38.0870 H   0  0  0  0  0  0  0  0  0  0  0  0
   38.6740   23.8840   38.6670 H   0  0  0  0  0  0  0  0  0  0  0  0
   38.7270   22.1120   34.4640 C   0  0  0  0  0  0  0  0  0  0  0  0
   39.9160   21.7750   33.8160 C   0  0  0  0  0  0  0  0  0  0  0  0
   39.8760   21.7280   32.3980 C   0  0  0  0  0  0  0  0  0  0  0  0
   38.6900   22.0120   31.7590 N   0  0  0  0  0  0  0  0  0  0  0  0
   37.5620   22.3330   32.4350 C   0  0  0  0  0  0  0  0  0  0  0  0
   37.5940   22.3800   33.7820 N   0  0  0  0  0  0  0  0  0  0  0  0
   40.8470   21.5510   34.2840 H   0  0  0  0  0  0  0  0  0  0  0  0
   40.7050   21.4860   31.7700 H   0  0  0  0  0  0  0  0  0  0  0  0
   36.6440   22.5520   31.9090 H   0  0  0  0  0  0  0  0  0  0  0  0
  1 23  1  0  0  0  0
  2  8  1  1  0  0  0
  2  3  1  0  0  0  0
  3  9  1  6  0  0  0
  3  1  1  0  0  0  0
  3  4  1  0  0  0  0
  4 10  1  0  0  0  0
  4 11  1  0  0  0  0
  5  4  1  0  0  0  0
  6 13  1  0  0  0  0
  6  5  1  0  0  0  0
  7 14  1  6  0  0  0
  7  2  1  0  0  0  0
  7  6  1  0  0  0  0
 12  6  1  0  0  0  0
 15  2  1  0  0  0  0
 16 15  1  0  0  0  0
 17  7  1  0  0  0  0
 18 17  1  0  0  0  0
 19 18  2  0  0  0  0
 20 18  1  0  0  0  0
 21 20  1  0  0  0  0
 22 20  1  0  0  0  0
 23 28  1  6  0  0  0
 23 27  1  0  0  0  0
 24 23  1  0  0  0  0
 24 29  1  1  0  0  0
 24 25  1  0  0  0  0
 25 26  1  0  0  0  0
 26 27  1  0  0  0  0
 27 32  1  0  0  0  0
 27 33  1  0  0  0  0
 30 25  1  0  0  0  0
 31 25  1  0  0  0  0
 34 24  1  0  0  0  0
 35 40  1  0  0  0  0
 35 34  1  0  0  0  0
 36 35  2  0  0  0  0
 37 36  1  0  0  0  0
 37 38  2  0  0  0  0
 38 39  1  0  0  0  0
 39 34  2  0  0  0  0
 41 36  1  0  0  0  0
 42 38  1  0  0  0  0
M  END
>  <minimizedAffinity>
-4.76947069

$$$$

 OpenBabel03262521443D

 42 44  0  0  1  0  0  0  0  0999 V2000
   38.3980   24.7610   32.6180 O   0  0  0  0  0  0  0  0  0  0  0  0
   39.4580   23.3430   34.3070 C   0  0  2  0  0  0  0  0  0  0  0  0
   38.2170   23.8060   33.5700 C   0  0  2  0  0  0  0  0  0  0  0  0
   37.5100   22.5920   33.0690 C   0  0  0  0  0  0  0  0  0  0  0  0
   37.6460   21.5380   33.9280 O   0  0  0  0  0  0  0  0  0  0  0  0
   37.5900   21.9860   35.2330 C   0  0  0  0  0  0  0  0  0  0  0  0
   38.9120   22.6240   35.5680 C   0  0  2  0  0  0  0  0  0  0  0  0
   40.0100   22.5680   33.7430 H   0  0  0  0  0  0  0  0  0  0  0  0
   37.6410   24.1290   34.4510 H   0  0  0  0  0  0  0  0  0  0  0  0
   38.0530   22.2900   32.1230 H   0  0  0  0  0  0  0  0  0  0  0  0
   36.4570   22.7980   32.7750 H   0  0  0  0  0  0  0  0  0  0  0  0
   37.5340   21.0780   35.8750 H   0  0  0  0  0  0  0  0  0  0  0  0
   36.7100   22.5910   35.4720 H   0  0  0  0  0  0  0  0  0  0  0  0
   39.6620   21.8740   35.8850 H   0  0  0  0  0  0  0  0  0  0  0  0
   40.2910   24.3030   34.7770 O   0  0  0  0  0  0  0  0  0  0  0  0
   41.2290   24.0210   34.6470 H   0  0  0  0  0  0  0  0  0  0  0  0
   38.6270   23.5910   36.5620 O   0  0  0  0  0  0  0  0  0  0  0  0
   38.8290   23.3550   37.9170 C   0  0  0  0  0  0  0  0  0  0  0  0
   38.1160   23.9590   38.7720 O   0  0  0  0  0  0  0  0  0  0  0  0
   39.8700   22.4110   38.1320 N   0  0  0  0  0  0  0  0  0  0  0  0
   40.8720   22.6710   38.2460 H   0  0  0  0  0  0  0  0  0  0  0  0
   39.8640   21.3880   38.2150 H   0  0  0  0  0  0  0  0  0  0  0  0
   37.9130   25.9470   32.9960 C   0  0  1  0  0  0  0  0  0  0  0  0
   38.5150   27.1350   32.2900 C   0  0  2  0  0  0  0  0  0  0  0  0
   38.0820   26.7640   30.8640 C   0  0  0  0  0  0  0  0  0  0  0  0
   36.7870   26.3170   30.9530 O   0  0  0  0  0  0  0  0  0  0  0  0
   36.5460   26.0480   32.2430 C   0  0  0  0  0  0  0  0  0  0  0  0
   37.4920   26.0300   34.0250 H   0  0  0  0  0  0  0  0  0  0  0  0
   37.9840   28.0190   32.6390 H   0  0  0  0  0  0  0  0  0  0  0  0
   38.7560   25.9570   30.5080 H   0  0  0  0  0  0  0  0  0  0  0  0
   38.2140   27.6260   30.1910 H   0  0  0  0  0  0  0  0  0  0  0  0
   36.3210   27.1350   32.6010 H   0  0  0  0  0  0  0  0  0  0  0  0
   35.6930   25.6290   32.6400 H   0  0  0  0  0  0  0  0  0  0  0  0
   39.9790   27.1720   32.4200 C   0  0  0  0  0  0  0  0  0  0  0  0
   40.7360   27.1810   31.2460 C   0  0  0  0  0  0  0  0  0  0  0  0
   42.1460   27.1960   31.3990 C   0  0  0  0  0  0  0  0  0  0  0  0
   42.6740   27.2020   32.6700 N   0  0  0  0  0  0  0  0  0  0  0  0
   41.8970   27.1940   33.7780 C   0  0  0  0  0  0  0  0  0  0  0  0
   40.5560   27.1780   33.6390 N   0  0  0  0  0  0  0  0  0  0  0  0
   40.3530   27.1770   30.2510 H   0  0  0  0  0  0  0  0  0  0  0  0
   42.8480   27.2050   30.5950 H   0  0  0  0  0  0  0  0  0  0  0  0
   42.3370   27.1980   34.7650 H   0  0  0  0  0  0  0  0  0  0  0  0
  1 23  1  0  0  0  0
  1  3  1  0  0  0  0
  2  8  1  6  0  0  0
  2 15  1  0  0  0  0
  2  7  1  0  0  0  0
  3  2  1  0  0  0  0
  3  9  1  1  0  0  0
  4  3  1  0  0  0  0
  4  5  1  0  0  0  0
  5  6  1  0  0  0  0
  6 13  1  0  0  0  0
  6  7  1  0  0  0  0
  6 12  1  0  0  0  0
  7 14  1  1  0  0  0
  7 17  1  0  0  0  0
 10  4  1  0  0  0  0
 11  4  1  0  0  0  0
 16 15  1  0  0  0  0
 17 18  1  0  0  0  0
 18 20  1  0  0  0  0
 18 19  2  0  0  0  0
 20 22  1  0  0  0  0
 20 21  1  0  0  0  0
 23 28  1  1  0  0  0
 24 34  1  0  0  0  0
 24 29  1  1  0  0  0
 24 23  1  0  0  0  0
 25 26  1  0  0  0  0
 25 24  1  0  0  0  0
 26 27  1  0  0  0  0
 27 32  1  0  0  0  0
 27 33  1  0  0  0  0
 27 23  1  0  0  0  0
 30 25  1  0  0  0  0
 31 25  1  0  0  0  0
 34 39  1  0  0  0  0
 35 36  1  0  0  0  0
 35 34  2  0  0  0  0
 36 37  2  0  0  0  0
 37 38  1  0  0  0  0
 38 42  1  0  0  0  0
 39 38  2  0  0  0  0
 40 35  1  0  0  0  0
 41 36  1  0  0  0  0
M  END
>  <minimizedAffinity>
-4.747859

$$$$

 OpenBabel03262521443D

 42 44  0  0  1  0  0  0  0  0999 V2000
   38.8290   23.6240   32.9600 O   0  0  0  0  0  0  0  0  0  0  0  0
   39.7290   24.2380   35.1510 C   0  0  2  0  0  0  0  0  0  0  0  0
   39.2930   23.1790   34.1590 C   0  0  2  0  0  0  0  0  0  0  0  0
   40.4050   22.1910   34.0370 C   0  0  0  0  0  0  0  0  0  0  0  0
   41.0660   22.0270   35.2210 O   0  0  0  0  0  0  0  0  0  0  0  0
   40.1680   22.0600   36.2700 C   0  0  0  0  0  0  0  0  0  0  0  0
   39.7810   23.4950   36.5120 C   0  0  2  0  0  0  0  0  0  0  0  0
   40.7630   24.5810   34.9640 H   0  0  0  0  0  0  0  0  0  0  0  0
   38.5430   22.6870   34.7970 H   0  0  0  0  0  0  0  0  0  0  0  0
   41.1530   22.6570   33.3280 H   0  0  0  0  0  0  0  0  0  0  0  0
   40.0800   21.2350   33.5690 H   0  0  0  0  0  0  0  0  0  0  0  0
   40.7340   21.7540   37.1780 H   0  0  0  0  0  0  0  0  0  0  0  0
   39.3290   21.3640   36.1760 H   0  0  0  0  0  0  0  0  0  0  0  0
   40.5140   24.0160   37.1570 H   0  0  0  0  0  0  0  0  0  0  0  0
   38.8870   25.2820   35.3480 O   0  0  0  0  0  0  0  0  0  0  0  0
   39.4100   26.1170   35.4360 H   0  0  0  0  0  0  0  0  0  0  0  0
   38.4780   23.4490   37.0620 O   0  0  0  0  0  0  0  0  0  0  0  0
   38.2170   23.7410   38.3960 C   0  0  0  0  0  0  0  0  0  0  0  0
   38.0040   24.9400   38.7450 O   0  0  0  0  0  0  0  0  0  0  0  0
   38.2330   22.5680   39.1990 N   0  0  0  0  0  0  0  0  0  0  0  0
   39.0870   22.1990   39.6680 H   0  0  0  0  0  0  0  0  0  0  0  0
   37.4940   21.9060   39.4630 H   0  0  0  0  0  0  0  0  0  0  0  0
   37.5320   23.3550   32.7920 C   0  0  1  0  0  0  0  0  0  0  0  0
   36.8410   24.1870   31.7410 C   0  0  2  0  0  0  0  0  0  0  0  0
   37.6840   23.7360   30.5390 C   0  0  0  0  0  0  0  0  0  0  0  0
   37.8480   22.3790   30.6640 O   0  0  0  0  0  0  0  0  0  0  0  0
   37.5320   22.0540   31.9240 C   0  0  0  0  0  0  0  0  0  0  0  0
   36.9750   22.9260   33.6560 H   0  0  0  0  0  0  0  0  0  0  0  0
   35.8200   23.8170   31.6590 H   0  0  0  0  0  0  0  0  0  0  0  0
   38.6610   24.2600   30.5980 H   0  0  0  0  0  0  0  0  0  0  0  0
   37.2000   24.0450   29.5990 H   0  0  0  0  0  0  0  0  0  0  0  0
   36.3720   22.0220   31.8020 H   0  0  0  0  0  0  0  0  0  0  0  0
   37.6150   21.1260   32.3650 H   0  0  0  0  0  0  0  0  0  0  0  0
   36.9850   25.6280   31.9940 C   0  0  0  0  0  0  0  0  0  0  0  0
   37.3420   26.4440   30.9190 C   0  0  0  0  0  0  0  0  0  0  0  0
   37.4930   27.8270   31.1940 C   0  0  0  0  0  0  0  0  0  0  0  0
   37.2820   28.2740   32.4790 N   0  0  0  0  0  0  0  0  0  0  0  0
   36.9360   27.4420   33.4880 C   0  0  0  0  0  0  0  0  0  0  0  0
   36.7910   26.1250   33.2330 N   0  0  0  0  0  0  0  0  0  0  0  0
   37.5100   26.1260   29.9160 H   0  0  0  0  0  0  0  0  0  0  0  0
   37.7610   28.5690   30.4740 H   0  0  0  0  0  0  0  0  0  0  0  0
   36.7770   27.8180   34.4890 H   0  0  0  0  0  0  0  0  0  0  0  0
  1  3  1  0  0  0  0
  2  8  1  6  0  0  0
  2 15  1  0  0  0  0
  2  7  1  0  0  0  0
  3  9  1  1  0  0  0
  3  2  1  0  0  0  0
  4  3  1  0  0  0  0
  4  5  1  0  0  0  0
  5  6  1  0  0  0  0
  6  7  1  0  0  0  0
  6 12  1  0  0  0  0
  7 17  1  0  0  0  0
  7 14  1  1  0  0  0
 10  4  1  0  0  0  0
 11  4  1  0  0  0  0
 13  6  1  0  0  0  0
 15 16  1  0  0  0  0
 17 18  1  0  0  0  0
 18 19  2  0  0  0  0
 18 20  1  0  0  0  0
 20 22  1  0  0  0  0
 20 21  1  0  0  0  0
 23  1  1  0  0  0  0
 23 28  1  1  0  0  0
 24 29  1  6  0  0  0
 24 34  1  0  0  0  0
 24 23  1  0  0  0  0
 25 30  1  0  0  0  0
 25 26  1  0  0  0  0
 25 24  1  0  0  0  0
 26 27  1  0  0  0  0
 27 33  1  0  0  0  0
 27 23  1  0  0  0  0
 31 25  1  0  0  0  0
 32 27  1  0  0  0  0
 34 39  1  0  0  0  0
 35 36  1  0  0  0  0
 35 34  2  0  0  0  0
 36 37  2  0  0  0  0
 37 38  1  0  0  0  0
 38 42  1  0  0  0  0
 39 38  2  0  0  0  0
 40 35  1  0  0  0  0
 41 36  1  0  0  0  0
M  END
>  <minimizedAffinity>
-4.70667076

$$$$

 OpenBabel03262521443D

 42 44  0  0  1  0  0  0  0  0999 V2000
   33.4320   31.9320   35.4280 O   0  0  0  0  0  0  0  0  0  0  0  0
   31.6220   30.4700   34.6740 C   0  0  2  0  0  0  0  0  0  0  0  0
   32.2330   31.3670   35.7310 C   0  0  2  0  0  0  0  0  0  0  0  0
   31.1940   32.3580   36.1380 C   0  0  0  0  0  0  0  0  0  0  0  0
   29.9400   31.8160   36.1030 O   0  0  0  0  0  0  0  0  0  0  0  0
   29.9800   30.5080   36.5430 C   0  0  0  0  0  0  0  0  0  0  0  0
   30.5420   29.6570   35.4350 C   0  0  2  0  0  0  0  0  0  0  0  0
   31.0700   31.0470   33.9090 H   0  0  0  0  0  0  0  0  0  0  0  0
   32.2580   30.6280   36.5470 H   0  0  0  0  0  0  0  0  0  0  0  0
   31.2060   33.1590   35.3410 H   0  0  0  0  0  0  0  0  0  0  0  0
   31.4370   32.8640   37.0980 H   0  0  0  0  0  0  0  0  0  0  0  0
   28.9220   30.1810   36.6530 H   0  0  0  0  0  0  0  0  0  0  0  0
   30.4530   30.3680   37.5190 H   0  0  0  0  0  0  0  0  0  0  0  0
   29.7620   29.3610   34.7070 H   0  0  0  0  0  0  0  0  0  0  0  0
   32.4320   29.5430   34.1080 O   0  0  0  0  0  0  0  0  0  0  0  0
   32.2370   29.4780   33.1410 H   0  0  0  0  0  0  0  0  0  0  0  0
   31.1600   28.5570   36.0770 O   0  0  0  0  0  0  0  0  0  0  0  0
   30.7720   27.2420   35.8500 C   0  0  0  0  0  0  0  0  0  0  0  0
   30.2040   26.9350   34.7590 O   0  0  0  0  0  0  0  0  0  0  0  0
   31.0980   26.4040   36.9510 N   0  0  0  0  0  0  0  0  0  0  0  0
   30.4590   26.2290   37.7550 H   0  0  0  0  0  0  0  0  0  0  0  0
   31.9350   25.8520   37.1700 H   0  0  0  0  0  0  0  0  0  0  0  0
   34.4210   31.4540   36.1880 C   0  0  1  0  0  0  0  0  0  0  0  0
   35.7450   31.2980   35.4850 C   0  0  2  0  0  0  0  0  0  0  0  0
   35.9590   32.7750   35.1240 C   0  0  0  0  0  0  0  0  0  0  0  0
   35.5940   33.5040   36.2290 O   0  0  0  0  0  0  0  0  0  0  0  0
   34.8810   32.6940   37.0230 C   0  0  0  0  0  0  0  0  0  0  0  0
   34.1430   30.8170   37.0590 H   0  0  0  0  0  0  0  0  0  0  0  0
   36.4690   30.9730   36.2310 H   0  0  0  0  0  0  0  0  0  0  0  0
   35.3010   33.0090   34.2610 H   0  0  0  0  0  0  0  0  0  0  0  0
   37.0000   32.9400   34.8010 H   0  0  0  0  0  0  0  0  0  0  0  0
   35.7690   32.1380   37.5350 H   0  0  0  0  0  0  0  0  0  0  0  0
   34.3990   32.9490   37.8970 H   0  0  0  0  0  0  0  0  0  0  0  0
   35.6380   30.4570   34.2840 C   0  0  0  0  0  0  0  0  0  0  0  0
   36.0100   29.1160   34.3950 C   0  0  0  0  0  0  0  0  0  0  0  0
   35.9160   28.3310   33.2160 C   0  0  0  0  0  0  0  0  0  0  0  0
   35.4730   28.9260   32.0580 N   0  0  0  0  0  0  0  0  0  0  0  0
   35.1240   30.2330   32.0020 C   0  0  0  0  0  0  0  0  0  0  0  0
   35.2110   30.9840   33.1190 N   0  0  0  0  0  0  0  0  0  0  0  0
   36.3550   28.6280   35.2780 H   0  0  0  0  0  0  0  0  0  0  0  0
   36.1640   27.2940   33.1500 H   0  0  0  0  0  0  0  0  0  0  0  0
   34.7790   30.6770   31.0790 H   0  0  0  0  0  0  0  0  0  0  0  0
  1  3  1  0  0  0  0
  1 23  1  0  0  0  0
  2  8  1  6  0  0  0
  2  7  1  0  0  0  0
  2  3  1  0  0  0  0
  3  4  1  0  0  0  0
  3  9  1  1  0  0  0
  4 11  1  0  0  0  0
  5  4  1  0  0  0  0
  5  6  1  0  0  0  0
  6 12  1  0  0  0  0
  6 13  1  0  0  0  0
  7 14  1  6  0  0  0
  7 17  1  0  0  0  0
  7  6  1  0  0  0  0
 10  4  1  0  0  0  0
 15  2  1  0  0  0  0
 16 15  1  0  0  0  0
 18 17  1  0  0  0  0
 18 20  1  0  0  0  0
 19 18  2  0  0  0  0
 20 22  1  0  0  0  0
 20 21  1  0  0  0  0
 23 27  1  0  0  0  0
 23 28  1  1  0  0  0
 24 23  1  0  0  0  0
 24 29  1  1  0  0  0
 25 24  1  0  0  0  0
 25 26  1  0  0  0  0
 26 27  1  0  0  0  0
 27 32  1  0  0  0  0
 27 33  1  0  0  0  0
 30 25  1  0  0  0  0
 31 25  1  0  0  0  0
 34 35  1  0  0  0  0
 34 24  1  0  0  0  0
 35 40  1  0  0  0  0
 36 35  2  0  0  0  0
 37 36  1  0  0  0  0
 38 37  2  0  0  0  0
 38 39  1  0  0  0  0
 39 34  2  0  0  0  0
 41 36  1  0  0  0  0
 42 38  1  0  0  0  0
M  END
>  <minimizedAffinity>
-4.68434668

$$$$
