
 OpenBabel03272505433D

 20 20  0  0  0  0  0  0  0  0999 V2000
   34.9570   28.1120   49.7580 O   0  0  0  0  0  0  0  0  0  0  0  0
   37.3320   30.3420   51.4010 C   0  0  0  0  0  0  0  0  0  0  0  0
   38.0510   30.8010   50.2730 C   0  0  0  0  0  0  0  0  0  0  0  0
   37.6720   30.3130   49.0100 C   0  0  0  0  0  0  0  0  0  0  0  0
   36.6430   29.4350   48.9570 N   0  0  0  0  0  0  0  0  0  0  0  0
   35.9740   29.0130   50.0430 C   0  0  0  0  0  0  0  0  0  0  0  0
   36.3220   29.4700   51.2740 N   0  0  0  0  0  0  0  0  0  0  0  0
   37.5630   30.6700   52.4080 H   0  0  0  0  0  0  0  0  0  0  0  0
   38.8580   31.5030   50.4150 H   0  0  0  0  0  0  0  0  0  0  0  0
   38.2090   30.6520   48.1330 H   0  0  0  0  0  0  0  0  0  0  0  0
   32.4550   28.0410   49.0150 O   0  0  0  0  0  0  0  0  0  0  0  0
   33.8540   28.2750   48.4920 P   0  0  2  0  0  0  0  0  0  0  0  0
   34.1100   27.1290   47.2680 O   0  0  0  0  0  0  0  0  0  0  0  0
   34.3270   27.5290   46.3930 H   0  0  0  0  0  0  0  0  0  0  0  0
   33.8730   29.8060   47.7830 O   0  0  0  0  0  0  0  0  0  0  0  0
   33.2680   30.0120   46.5510 C   0  0  0  0  0  0  0  0  0  0  0  0
   33.2290   29.1730   45.6130 O   0  0  0  0  0  0  0  0  0  0  0  0
   32.6520   31.2820   46.3640 N   0  0  0  0  0  0  0  0  0  0  0  0
   32.8050   32.1000   46.9670 H   0  0  0  0  0  0  0  0  0  0  0  0
   31.9940   31.5260   45.6150 H   0  0  0  0  0  0  0  0  0  0  0  0
  1  6  1  0  0  0  0
  2  8  1  0  0  0  0
  3  9  1  0  0  0  0
  3  2  2  0  0  0  0
  4  3  1  0  0  0  0
  5  4  2  0  0  0  0
  5  6  1  0  0  0  0
  6  7  2  0  0  0  0
  7  2  1  0  0  0  0
 10  4  1  0  0  0  0
 12 11  2  1  0  0  0
 12  1  1  0  0  0  0
 13 12  1  0  0  0  0
 14 13  1  0  0  0  0
 15 12  1  0  0  0  0
 16 15  1  0  0  0  0
 17 16  2  0  0  0  0
 18 16  1  0  0  0  0
 18 19  1  0  0  0  0
 20 18  1  0  0  0  0
M  END
>  <minimizedAffinity>
-4.25066328

>  <minimizedRMSD>
0.458010823

$$$$
