
 OpenBabel03272510233D

 28 30  0  0  0  0  0  0  0  0999 V2000
   36.7180   30.4770   46.9920 C   0  0  0  0  0  0  0  0  0  0  0  0
   37.3730   30.9560   48.1070 C   0  0  0  0  0  0  0  0  0  0  0  0
   38.3620   31.9030   47.9670 C   0  0  0  0  0  0  0  0  0  0  0  0
   38.6580   32.3380   46.6790 C   0  0  0  0  0  0  0  0  0  0  0  0
   39.6000   33.2700   46.3010 N   0  0  0  0  0  0  0  0  0  0  0  0
   39.5170   33.3530   44.9770 C   0  0  0  0  0  0  0  0  0  0  0  0
   38.5820   32.5350   44.4930 N   0  0  0  0  0  0  0  0  0  0  0  0
   38.0280   31.8850   45.5450 C   0  0  0  0  0  0  0  0  0  0  0  0
   37.0350   30.9320   45.7120 C   0  0  0  0  0  0  0  0  0  0  0  0
   35.9430   29.7450   47.0150 H   0  0  0  0  0  0  0  0  0  0  0  0
   38.8760   32.2800   48.8260 H   0  0  0  0  0  0  0  0  0  0  0  0
   40.2340   33.7830   46.9810 H   0  0  0  0  0  0  0  0  0  0  0  0
   36.5420   30.5770   44.8240 H   0  0  0  0  0  0  0  0  0  0  0  0
   37.2660   29.9940   51.7380 C   0  0  0  0  0  0  0  0  0  0  0  0
   37.7540   30.5430   50.5550 C   0  0  0  0  0  0  0  0  0  0  0  0
   36.9830   30.4300   49.4020 C   0  0  0  0  0  0  0  0  0  0  0  0
   35.7790   29.7830   49.4850 N   0  0  0  0  0  0  0  0  0  0  0  0
   35.3310   29.2580   50.6550 C   0  0  0  0  0  0  0  0  0  0  0  0
   36.0630   29.3640   51.7540 N   0  0  0  0  0  0  0  0  0  0  0  0
   37.8660   30.0850   52.6230 H   0  0  0  0  0  0  0  0  0  0  0  0
   38.7000   31.0520   50.4900 H   0  0  0  0  0  0  0  0  0  0  0  0
   34.3780   28.7610   50.6590 H   0  0  0  0  0  0  0  0  0  0  0  0
   40.3560   34.2270   44.2900 O   0  0  0  0  0  0  0  0  0  0  0  0
   40.0810   34.8270   43.0940 C   0  0  0  0  0  0  0  0  0  0  0  0
   39.4600   34.6380   42.0010 O   0  0  0  0  0  0  0  0  0  0  0  0
   40.7060   36.1240   43.0440 N   0  0  0  0  0  0  0  0  0  0  0  0
   41.3230   36.9190   42.8450 H   0  0  0  0  0  0  0  0  0  0  0  0
   40.1950   36.8240   43.6290 H   0  0  0  0  0  0  0  0  0  0  0  0
  1 10  1  0  0  0  0
  1  2  1  0  0  0  0
  2 16  1  0  0  0  0
  3  2  2  0  0  0  0
  3 11  1  0  0  0  0
  4  3  1  0  0  0  0
  5  4  1  0  0  0  0
  5 12  1  0  0  0  0
  6  5  1  0  0  0  0
  7  6  2  0  0  0  0
  7  8  1  0  0  0  0
  8  9  1  0  0  0  0
  8  4  2  0  0  0  0
  9  1  2  0  0  0  0
 13  9  1  0  0  0  0
 14 19  1  0  0  0  0
 14 20  1  0  0  0  0
 15 14  2  0  0  0  0
 16 17  2  0  0  0  0
 16 15  1  0  0  0  0
 17 18  1  0  0  0  0
 18 22  1  0  0  0  0
 18 19  2  0  0  0  0
 21 15  1  0  0  0  0
 23  6  1  0  0  0  0
 24 23  1  0  0  0  0
 25 24  2  0  0  0  0
 26 24  1  0  0  0  0
 26 28  1  0  0  0  0
 27 26  1  0  0  0  0
M  END
>  <minimizedAffinity>
-4.4086566

>  <minimizedRMSD>
0.694604218

$$$$
