
 OpenBabel03262521013D

 33 34  0  0  1  0  0  0  0  0999 V2000
   39.0120   30.6210   45.9900 N   0  0  0  0  0  0  0  0  0  0  0  0
   38.0640   31.0020   44.9880 C   0  0  1  0  0  0  0  0  0  0  0  0
   37.9950   32.5000   44.8890 C   0  0  0  0  0  0  0  0  0  0  0  0
   39.3330   32.9760   44.5460 N   0  0  0  0  0  0  0  0  0  0  0  0
   40.1300   32.7290   45.7630 C   0  0  0  0  0  0  0  0  0  0  0  0
   40.2990   31.2140   45.8400 C   0  0  2  0  0  0  0  0  0  0  0  0
   39.0010   29.6420   46.2810 H   0  0  0  0  0  0  0  0  0  0  0  0
   37.0790   30.5920   45.2320 H   0  0  0  0  0  0  0  0  0  0  0  0
   37.6440   32.9840   45.8140 H   0  0  0  0  0  0  0  0  0  0  0  0
   37.3050   32.7310   44.0360 H   0  0  0  0  0  0  0  0  0  0  0  0
   39.7030   32.4310   43.7490 H   0  0  0  0  0  0  0  0  0  0  0  0
   39.5310   33.0860   46.6190 H   0  0  0  0  0  0  0  0  0  0  0  0
   41.1080   33.2100   45.7140 H   0  0  0  0  0  0  0  0  0  0  0  0
   40.8740   31.0090   46.7700 H   0  0  0  0  0  0  0  0  0  0  0  0
   41.0180   30.7710   44.6640 N   0  0  0  0  0  0  0  0  0  0  0  0
   40.9240   29.7160   44.6120 H   0  0  0  0  0  0  0  0  0  0  0  0
   42.0470   30.9290   44.8740 H   0  0  0  0  0  0  0  0  0  0  0  0
   38.5500   30.4030   43.3200 S   0  0  0  0  0  0  0  0  0  0  0  0
   35.9640   27.4160   42.4390 C   0  0  0  0  0  0  0  0  0  0  0  0
   36.4560   28.6850   42.6720 C   0  0  0  0  0  0  0  0  0  0  0  0
   37.7750   28.8380   42.9930 C   0  0  0  0  0  0  0  0  0  0  0  0
   38.5740   27.7080   43.0750 N   0  0  0  0  0  0  0  0  0  0  0  0
   38.0340   26.5110   42.8380 C   0  0  0  0  0  0  0  0  0  0  0  0
   36.7500   26.3340   42.5210 N   0  0  0  0  0  0  0  0  0  0  0  0
   34.9190   27.2620   42.1800 H   0  0  0  0  0  0  0  0  0  0  0  0
   35.8270   29.5560   42.6060 H   0  0  0  0  0  0  0  0  0  0  0  0
   38.8930   25.3270   42.9280 C   0  0  0  0  0  0  0  0  0  0  0  0
   39.1950   24.7670   44.0110 O   0  0  0  0  0  0  0  0  0  0  0  0
   39.8350   25.0150   39.5720 H   0  0  0  0  0  0  0  0  0  0  0  0
   39.4270   25.4530   40.4870 C   0  0  0  0  0  0  0  0  0  0  0  0
   38.9440   26.6120   40.4180 O   0  0  0  0  0  0  0  0  0  0  0  0
   39.4260   24.7660   41.7210 N   0  0  0  0  0  0  0  0  0  0  0  0
   39.8300   23.7940   41.7830 H   0  0  0  0  0  0  0  0  0  0  0  0
  1  7  1  0  0  0  0
  2  8  1  1  0  0  0
  2  1  1  0  0  0  0
  3  2  1  0  0  0  0
  3  9  1  0  0  0  0
  4  3  1  0  0  0  0
  4  5  1  0  0  0  0
  5  6  1  0  0  0  0
  5 12  1  0  0  0  0
  6  1  1  0  0  0  0
  6 14  1  1  0  0  0
 10  3  1  0  0  0  0
 11  4  1  0  0  0  0
 13  5  1  0  0  0  0
 15 17  1  0  0  0  0
 15  6  1  0  0  0  0
 16 15  1  0  0  0  0
 18  2  1  0  0  0  0
 19 24  2  0  0  0  0
 19 20  1  0  0  0  0
 20 21  2  0  0  0  0
 21 22  1  0  0  0  0
 21 18  1  0  0  0  0
 23 27  1  0  0  0  0
 23 22  2  0  0  0  0
 24 23  1  0  0  0  0
 25 19  1  0  0  0  0
 26 20  1  0  0  0  0
 27 28  2  0  0  0  0
 29 30  1  0  0  0  0
 30 32  1  0  0  0  0
 31 30  2  0  0  0  0
 32 33  1  0  0  0  0
 32 27  1  0  0  0  0
M  END
>  <minimizedAffinity>
-3.8980093

>  <minimizedRMSD>
7.29405499

$$$$
