
 OpenBabel03272510233D

 28 30  0  0  0  0  0  0  0  0999 V2000
   36.1500   30.2540   46.8770 C   0  0  0  0  0  0  0  0  0  0  0  0
   37.0240   30.6430   47.8710 C   0  0  0  0  0  0  0  0  0  0  0  0
   38.1220   31.4100   47.5570 C   0  0  0  0  0  0  0  0  0  0  0  0
   38.3010   31.7620   46.2230 C   0  0  0  0  0  0  0  0  0  0  0  0
   39.3180   32.5160   45.6800 N   0  0  0  0  0  0  0  0  0  0  0  0
   39.0650   32.5840   44.3770 C   0  0  0  0  0  0  0  0  0  0  0  0
   37.9530   31.9210   44.0600 N   0  0  0  0  0  0  0  0  0  0  0  0
   37.4540   31.3950   45.2050 C   0  0  0  0  0  0  0  0  0  0  0  0
   36.3540   30.6220   45.5470 C   0  0  0  0  0  0  0  0  0  0  0  0
   35.2790   29.6610   47.0370 H   0  0  0  0  0  0  0  0  0  0  0  0
   38.8050   31.7160   48.3220 H   0  0  0  0  0  0  0  0  0  0  0  0
   40.1160   32.9320   46.2460 H   0  0  0  0  0  0  0  0  0  0  0  0
   35.6910   30.3350   44.7500 H   0  0  0  0  0  0  0  0  0  0  0  0
   37.2260   29.9200   51.5530 C   0  0  0  0  0  0  0  0  0  0  0  0
   37.6190   30.3720   50.2960 C   0  0  0  0  0  0  0  0  0  0  0  0
   36.7390   30.2170   49.2290 C   0  0  0  0  0  0  0  0  0  0  0  0
   35.5260   29.6270   49.4660 N   0  0  0  0  0  0  0  0  0  0  0  0
   35.1720   29.1960   50.7040 C   0  0  0  0  0  0  0  0  0  0  0  0
   36.0080   29.3420   51.7220 N   0  0  0  0  0  0  0  0  0  0  0  0
   37.9090   30.0420   52.3710 H   0  0  0  0  0  0  0  0  0  0  0  0
   38.5720   30.8360   50.1100 H   0  0  0  0  0  0  0  0  0  0  0  0
   34.2070   28.7400   50.8290 H   0  0  0  0  0  0  0  0  0  0  0  0
   39.9290   33.2920   43.5450 O   0  0  0  0  0  0  0  0  0  0  0  0
   40.1230   34.6430   43.5570 C   0  0  0  0  0  0  0  0  0  0  0  0
   40.3790   35.6220   42.7880 O   0  0  0  0  0  0  0  0  0  0  0  0
   40.0000   35.1420   44.9040 N   0  0  0  0  0  0  0  0  0  0  0  0
   40.1790   35.5100   45.8440 H   0  0  0  0  0  0  0  0  0  0  0  0
   39.0010   35.1800   45.2130 H   0  0  0  0  0  0  0  0  0  0  0  0
  1 10  1  0  0  0  0
  1  2  1  0  0  0  0
  2 16  1  0  0  0  0
  3  2  2  0  0  0  0
  3 11  1  0  0  0  0
  4  3  1  0  0  0  0
  5  4  1  0  0  0  0
  5 12  1  0  0  0  0
  6  5  1  0  0  0  0
  7  6  2  0  0  0  0
  7  8  1  0  0  0  0
  8  9  1  0  0  0  0
  8  4  2  0  0  0  0
  9  1  2  0  0  0  0
 13  9  1  0  0  0  0
 14 19  1  0  0  0  0
 14 20  1  0  0  0  0
 15 14  2  0  0  0  0
 16 17  2  0  0  0  0
 16 15  1  0  0  0  0
 17 18  1  0  0  0  0
 18 22  1  0  0  0  0
 18 19  2  0  0  0  0
 21 15  1  0  0  0  0
 23 24  1  0  0  0  0
 23  6  1  0  0  0  0
 24 26  1  0  0  0  0
 25 24  2  0  0  0  0
 26 28  1  0  0  0  0
 26 27  1  0  0  0  0
M  END
>  <minimizedAffinity>
-3.49275899

>  <minimizedRMSD>
0.851930022

$$$$
