
 OpenBabel03262521013D

 33 34  0  0  1  0  0  0  0  0999 V2000
   40.5480   31.6030   44.2930 N   0  0  0  0  0  0  0  0  0  0  0  0
   39.3990   32.4210   44.0500 C   0  0  1  0  0  0  0  0  0  0  0  0
   39.3340   32.7960   42.5960 C   0  0  0  0  0  0  0  0  0  0  0  0
   39.2600   31.5540   41.8300 N   0  0  0  0  0  0  0  0  0  0  0  0
   40.5960   30.9470   41.9890 C   0  0  0  0  0  0  0  0  0  0  0  0
   40.6570   30.4690   43.4370 C   0  0  2  0  0  0  0  0  0  0  0  0
   40.8020   31.4520   45.2710 H   0  0  0  0  0  0  0  0  0  0  0  0
   39.4430   33.3210   44.6720 H   0  0  0  0  0  0  0  0  0  0  0  0
   40.1920   33.3990   42.2600 H   0  0  0  0  0  0  0  0  0  0  0  0
   38.3760   33.3590   42.4550 H   0  0  0  0  0  0  0  0  0  0  0  0
   38.5300   30.9400   42.2290 H   0  0  0  0  0  0  0  0  0  0  0  0
   41.3360   31.7490   41.8240 H   0  0  0  0  0  0  0  0  0  0  0  0
   40.7430   30.1040   41.3120 H   0  0  0  0  0  0  0  0  0  0  0  0
   41.6710   30.0360   43.5820 H   0  0  0  0  0  0  0  0  0  0  0  0
   39.6220   29.4770   43.6380 N   0  0  0  0  0  0  0  0  0  0  0  0
   39.5220   29.3300   44.6840 H   0  0  0  0  0  0  0  0  0  0  0  0
   40.0240   28.5600   43.2840 H   0  0  0  0  0  0  0  0  0  0  0  0
   37.8330   31.5330   44.4180 S   0  0  0  0  0  0  0  0  0  0  0  0
   38.0390   32.0250   48.4300 C   0  0  0  0  0  0  0  0  0  0  0  0
   38.3370   32.1440   47.0870 C   0  0  0  0  0  0  0  0  0  0  0  0
   37.5710   31.4770   46.1740 C   0  0  0  0  0  0  0  0  0  0  0  0
   36.5180   30.7000   46.6320 N   0  0  0  0  0  0  0  0  0  0  0  0
   36.2840   30.6290   47.9440 C   0  0  0  0  0  0  0  0  0  0  0  0
   37.0160   31.2710   48.8550 N   0  0  0  0  0  0  0  0  0  0  0  0
   38.6290   32.5450   49.1810 H   0  0  0  0  0  0  0  0  0  0  0  0
   39.1570   32.7500   46.7420 H   0  0  0  0  0  0  0  0  0  0  0  0
   35.1670   29.8030   48.4100 C   0  0  0  0  0  0  0  0  0  0  0  0
   34.9380   28.6410   47.9920 O   0  0  0  0  0  0  0  0  0  0  0  0
   33.6170   30.3520   51.4990 H   0  0  0  0  0  0  0  0  0  0  0  0
   34.3000   29.9380   50.7530 C   0  0  0  0  0  0  0  0  0  0  0  0
   35.1290   29.0730   51.1330 O   0  0  0  0  0  0  0  0  0  0  0  0
   34.2770   30.3400   49.3990 N   0  0  0  0  0  0  0  0  0  0  0  0
   33.5840   31.0640   49.0760 H   0  0  0  0  0  0  0  0  0  0  0  0
  1  7  1  0  0  0  0
  2  1  1  0  0  0  0
  2 18  1  0  0  0  0
  2  8  1  1  0  0  0
  3  2  1  0  0  0  0
  4  5  1  0  0  0  0
  4 11  1  0  0  0  0
  4  3  1  0  0  0  0
  5  6  1  0  0  0  0
  6 14  1  1  0  0  0
  6 15  1  0  0  0  0
  6  1  1  0  0  0  0
  9  3  1  0  0  0  0
 10  3  1  0  0  0  0
 12  5  1  0  0  0  0
 13  5  1  0  0  0  0
 15 16  1  0  0  0  0
 17 15  1  0  0  0  0
 18 21  1  0  0  0  0
 19 24  1  0  0  0  0
 19 25  1  0  0  0  0
 20 19  2  0  0  0  0
 21 22  2  0  0  0  0
 21 20  1  0  0  0  0
 22 23  1  0  0  0  0
 23 27  1  0  0  0  0
 23 24  2  0  0  0  0
 26 20  1  0  0  0  0
 27 32  1  0  0  0  0
 28 27  2  0  0  0  0
 30 31  2  0  0  0  0
 30 29  1  0  0  0  0
 32 30  1  0  0  0  0
 33 32  1  0  0  0  0
M  END
>  <minimizedAffinity>
-4.893435

>  <minimizedRMSD>
2.33440495

$$$$
