
 OpenBabel03272510243D

 28 30  0  0  0  0  0  0  0  0999 V2000
   36.8490   30.5120   46.9520 C   0  0  0  0  0  0  0  0  0  0  0  0
   37.4920   31.0080   48.0690 C   0  0  0  0  0  0  0  0  0  0  0  0
   38.4620   31.9730   47.9290 C   0  0  0  0  0  0  0  0  0  0  0  0
   38.7540   32.4110   46.6410 C   0  0  0  0  0  0  0  0  0  0  0  0
   39.6790   33.3590   46.2620 N   0  0  0  0  0  0  0  0  0  0  0  0
   39.5980   33.4370   44.9380 C   0  0  0  0  0  0  0  0  0  0  0  0
   38.6820   32.5990   44.4530 N   0  0  0  0  0  0  0  0  0  0  0  0
   38.1370   31.9420   45.5060 C   0  0  0  0  0  0  0  0  0  0  0  0
   37.1620   30.9690   45.6720 C   0  0  0  0  0  0  0  0  0  0  0  0
   36.0890   29.7650   46.9760 H   0  0  0  0  0  0  0  0  0  0  0  0
   38.9650   32.3630   48.7880 H   0  0  0  0  0  0  0  0  0  0  0  0
   40.3000   33.8870   46.9440 H   0  0  0  0  0  0  0  0  0  0  0  0
   36.6800   30.6020   44.7840 H   0  0  0  0  0  0  0  0  0  0  0  0
   37.3830   30.0690   51.7050 C   0  0  0  0  0  0  0  0  0  0  0  0
   37.8640   30.6250   50.5220 C   0  0  0  0  0  0  0  0  0  0  0  0
   37.1070   30.4780   49.3630 C   0  0  0  0  0  0  0  0  0  0  0  0
   35.9240   29.7920   49.4410 N   0  0  0  0  0  0  0  0  0  0  0  0
   35.4830   29.2610   50.6100 C   0  0  0  0  0  0  0  0  0  0  0  0
   36.2010   29.3990   51.7150 N   0  0  0  0  0  0  0  0  0  0  0  0
   37.9710   30.1850   52.5950 H   0  0  0  0  0  0  0  0  0  0  0  0
   38.7920   31.1640   50.4620 H   0  0  0  0  0  0  0  0  0  0  0  0
   34.5470   28.7320   50.6090 H   0  0  0  0  0  0  0  0  0  0  0  0
   40.4230   34.3250   44.2510 O   0  0  0  0  0  0  0  0  0  0  0  0
   40.1300   34.9350   43.0650 C   0  0  0  0  0  0  0  0  0  0  0  0
   39.4860   34.7580   41.9830 O   0  0  0  0  0  0  0  0  0  0  0  0
   40.7680   36.2260   43.0090 N   0  0  0  0  0  0  0  0  0  0  0  0
   41.3870   37.0160   42.8030 H   0  0  0  0  0  0  0  0  0  0  0  0
   40.2740   36.9280   43.6080 H   0  0  0  0  0  0  0  0  0  0  0  0
  1 10  1  0  0  0  0
  1  2  1  0  0  0  0
  2 16  1  0  0  0  0
  3  2  2  0  0  0  0
  3 11  1  0  0  0  0
  4  3  1  0  0  0  0
  5  4  1  0  0  0  0
  5 12  1  0  0  0  0
  6  5  1  0  0  0  0
  7  6  2  0  0  0  0
  7  8  1  0  0  0  0
  8  9  1  0  0  0  0
  8  4  2  0  0  0  0
  9  1  2  0  0  0  0
 13  9  1  0  0  0  0
 14 19  1  0  0  0  0
 14 20  1  0  0  0  0
 15 14  2  0  0  0  0
 16 17  2  0  0  0  0
 16 15  1  0  0  0  0
 17 18  1  0  0  0  0
 18 19  2  0  0  0  0
 21 15  1  0  0  0  0
 22 18  1  0  0  0  0
 23  6  1  0  0  0  0
 24 23  1  0  0  0  0
 25 24  2  0  0  0  0
 26 24  1  0  0  0  0
 26 28  1  0  0  0  0
 27 26  1  0  0  0  0
M  END
>  <minimizedAffinity>
-4.40631771

>  <minimizedRMSD>
0.670013249

$$$$
