
 OpenBabel03262520343D

 25 25  0  0  0  0  0  0  0  0999 V2000
   38.2820   25.6100   36.3810 C   0  0  0  0  0  0  0  0  0  0  0  0
   39.3280   25.3230   36.2350 H   0  0  0  0  0  0  0  0  0  0  0  0
   38.3040   26.4150   37.1690 H   0  0  0  0  0  0  0  0  0  0  0  0
   38.4680   26.9300   34.2830 C   0  0  0  0  0  3  0  0  0  0  0  0
   37.7720   26.2050   35.1180 C   0  0  0  0  0  3  0  0  0  0  0  0
   37.7610   27.9760   30.8530 C   0  0  0  0  0  0  0  0  0  0  0  0
   36.4060   28.3600   30.9180 C   0  0  0  0  0  0  0  0  0  0  0  0
   35.7740   28.2430   32.1670 C   0  0  0  0  0  0  0  0  0  0  0  0
   36.5060   27.7690   33.2240 N   0  0  0  0  0  0  0  0  0  0  0  0
   37.7830   27.4210   33.1000 C   0  0  0  0  0  0  0  0  0  0  0  0
   38.4070   27.5260   31.9140 N   0  0  0  0  0  0  0  0  0  0  0  0
   38.2330   28.0730   29.8790 H   0  0  0  0  0  0  0  0  0  0  0  0
   35.8870   28.7280   30.0400 H   0  0  0  0  0  0  0  0  0  0  0  0
   34.7520   28.5160   32.2810 H   0  0  0  0  0  0  0  0  0  0  0  0
   37.4570   24.5900   36.8370 O   0  0  0  0  0  0  0  0  0  0  0  0
   37.6850   22.1400   36.1500 O   0  0  0  0  0  0  0  0  0  0  0  0
   38.3860   23.1830   37.0140 P   0  0  2  0  0  0  0  0  0  0  0  0
   38.3800   22.7380   38.6370 O   0  0  0  0  0  0  0  0  0  0  0  0
   39.3110   22.7830   38.9980 H   0  0  0  0  0  0  0  0  0  0  0  0
   39.9810   23.4370   36.4720 O   0  0  0  0  0  0  0  0  0  0  0  0
   40.9960   22.6650   37.0250 C   0  0  0  0  0  0  0  0  0  0  0  0
   42.0960   23.2040   36.7120 O   0  0  0  0  0  0  0  0  0  0  0  0
   40.8670   21.4920   37.7970 N   0  0  0  0  0  0  0  0  0  0  0  0
   40.6670   20.4740   37.7610 H   0  0  0  0  0  0  0  0  0  0  0  0
   41.0540   21.8440   38.7680 H   0  0  0  0  0  0  0  0  0  0  0  0
  1 15  1  0  0  0  0
  1  3  1  0  0  0  0
  2  1  1  0  0  0  0
  4  5  2  0  0  0  0
  5  1  1  0  0  0  0
  6  7  2  0  0  0  0
  6 11  1  0  0  0  0
  7  8  1  0  0  0  0
  8 14  1  0  0  0  0
  8  9  2  0  0  0  0
 10  9  1  0  0  0  0
 10  4  1  0  0  0  0
 11 10  2  0  0  0  0
 12  6  1  0  0  0  0
 13  7  1  0  0  0  0
 15 17  1  0  0  0  0
 17 16  2  6  0  0  0
 17 18  1  0  0  0  0
 18 19  1  0  0  0  0
 20 17  1  0  0  0  0
 20 21  1  0  0  0  0
 21 23  1  0  0  0  0
 22 21  2  0  0  0  0
 23 25  1  0  0  0  0
 24 23  1  0  0  0  0
M  END
>  <minimizedAffinity>
-4.42176628

$$$$

 OpenBabel03262520343D

 25 25  0  0  0  0  0  0  0  0999 V2000
   38.8050   25.2460   35.6980 C   0  0  0  0  0  0  0  0  0  0  0  0
   39.6540   24.7620   35.2060 H   0  0  0  0  0  0  0  0  0  0  0  0
   39.2450   25.7820   36.5860 H   0  0  0  0  0  0  0  0  0  0  0  0
   37.1180   26.9130   34.9540 C   0  0  0  0  0  3  0  0  0  0  0  0
   38.2360   26.2610   34.7730 C   0  0  0  0  0  3  0  0  0  0  0  0
   36.8760   28.6940   31.7710 C   0  0  0  0  0  0  0  0  0  0  0  0
   35.9460   29.7150   32.0550 C   0  0  0  0  0  0  0  0  0  0  0  0
   35.4270   29.7520   33.3600 C   0  0  0  0  0  0  0  0  0  0  0  0
   35.8530   28.8070   34.2560 N   0  0  0  0  0  0  0  0  0  0  0  0
   36.7340   27.8670   33.9280 C   0  0  0  0  0  0  0  0  0  0  0  0
   37.2430   27.8140   32.6860 N   0  0  0  0  0  0  0  0  0  0  0  0
   37.2660   28.6800   30.7570 H   0  0  0  0  0  0  0  0  0  0  0  0
   35.6530   30.4310   31.2960 H   0  0  0  0  0  0  0  0  0  0  0  0
   34.7210   30.4980   33.6370 H   0  0  0  0  0  0  0  0  0  0  0  0
   37.8300   24.3750   36.1650 O   0  0  0  0  0  0  0  0  0  0  0  0
   38.0940   22.8140   34.1600 O   0  0  0  0  0  0  0  0  0  0  0  0
   38.2320   22.8010   35.6780 P   0  0  2  0  0  0  0  0  0  0  0  0
   37.1450   21.7280   36.3840 O   0  0  0  0  0  0  0  0  0  0  0  0
   37.6360   21.1130   37.0000 H   0  0  0  0  0  0  0  0  0  0  0  0
   39.8290   22.4160   36.1320 O   0  0  0  0  0  0  0  0  0  0  0  0
   40.1240   22.3190   37.4860 C   0  0  0  0  0  0  0  0  0  0  0  0
   41.2420   21.7370   37.5910 O   0  0  0  0  0  0  0  0  0  0  0  0
   39.3490   22.7720   38.5750 N   0  0  0  0  0  0  0  0  0  0  0  0
   38.5140   22.5740   39.1590 H   0  0  0  0  0  0  0  0  0  0  0  0
   39.8590   23.6440   38.8620 H   0  0  0  0  0  0  0  0  0  0  0  0
  1 15  1  0  0  0  0
  1  3  1  0  0  0  0
  2  1  1  0  0  0  0
  5  4  2  0  0  0  0
  5  1  1  0  0  0  0
  6  7  2  0  0  0  0
  6 11  1  0  0  0  0
  7  8  1  0  0  0  0
  8 14  1  0  0  0  0
  8  9  2  0  0  0  0
 10  9  1  0  0  0  0
 10  4  1  0  0  0  0
 11 10  2  0  0  0  0
 12  6  1  0  0  0  0
 13  7  1  0  0  0  0
 17 16  2  6  0  0  0
 17 20  1  0  0  0  0
 17 15  1  0  0  0  0
 17 18  1  0  0  0  0
 18 19  1  0  0  0  0
 20 21  1  0  0  0  0
 21 22  2  0  0  0  0
 21 23  1  0  0  0  0
 23 25  1  0  0  0  0
 23 24  1  0  0  0  0
M  END
>  <minimizedAffinity>
-4.3546834

$$$$

 OpenBabel03262520343D

 25 25  0  0  0  0  0  0  0  0999 V2000
   38.9840   24.5260   34.1050 C   0  0  0  0  0  0  0  0  0  0  0  0
   39.8150   24.3250   33.4220 H   0  0  0  0  0  0  0  0  0  0  0  0
   39.4660   24.7690   35.0930 H   0  0  0  0  0  0  0  0  0  0  0  0
   37.5730   26.5540   34.3780 C   0  0  0  0  0  3  0  0  0  0  0  0
   38.2590   25.7330   33.6280 C   0  0  0  0  0  3  0  0  0  0  0  0
   35.5320   29.5200   33.7490 C   0  0  0  0  0  0  0  0  0  0  0  0
   35.7760   29.7820   32.3850 C   0  0  0  0  0  0  0  0  0  0  0  0
   36.6510   28.9090   31.7200 C   0  0  0  0  0  0  0  0  0  0  0  0
   37.2040   27.8760   32.4300 N   0  0  0  0  0  0  0  0  0  0  0  0
   36.9350   27.6790   33.7180 C   0  0  0  0  0  0  0  0  0  0  0  0
   36.0990   28.5030   34.3730 N   0  0  0  0  0  0  0  0  0  0  0  0
   34.8520   30.2060   34.2470 H   0  0  0  0  0  0  0  0  0  0  0  0
   35.3040   30.6200   31.8840 H   0  0  0  0  0  0  0  0  0  0  0  0
   36.8770   29.0540   30.6900 H   0  0  0  0  0  0  0  0  0  0  0  0
   38.1220   23.4550   34.3020 O   0  0  0  0  0  0  0  0  0  0  0  0
   39.6930   22.1670   35.8500 O   0  0  0  0  0  0  0  0  0  0  0  0
   38.3400   22.8690   35.8770 P   0  0  2  0  0  0  0  0  0  0  0  0
   37.0970   21.7880   36.2230 O   0  0  0  0  0  0  0  0  0  0  0  0
   36.5490   22.1420   36.9800 H   0  0  0  0  0  0  0  0  0  0  0  0
   38.3490   24.1470   37.0040 O   0  0  0  0  0  0  0  0  0  0  0  0
   38.3260   23.8320   38.3570 C   0  0  0  0  0  0  0  0  0  0  0  0
   37.9730   24.8730   38.9830 O   0  0  0  0  0  0  0  0  0  0  0  0
   38.6330   22.5960   38.9630 N   0  0  0  0  0  0  0  0  0  0  0  0
   39.4040   21.9610   39.2450 H   0  0  0  0  0  0  0  0  0  0  0  0
   37.6810   22.2210   39.1960 H   0  0  0  0  0  0  0  0  0  0  0  0
  1 15  1  0  0  0  0
  1  3  1  0  0  0  0
  2  1  1  0  0  0  0
  5  1  1  0  0  0  0
  5  4  2  0  0  0  0
  6 12  1  0  0  0  0
  6 11  1  0  0  0  0
  7  6  2  0  0  0  0
  8  7  1  0  0  0  0
  8  9  2  0  0  0  0
  9 10  1  0  0  0  0
 10 11  2  0  0  0  0
 10  4  1  0  0  0  0
 13  7  1  0  0  0  0
 14  8  1  0  0  0  0
 15 17  1  0  0  0  0
 17 16  2  1  0  0  0
 17 18  1  0  0  0  0
 17 20  1  0  0  0  0
 18 19  1  0  0  0  0
 20 21  1  0  0  0  0
 21 23  1  0  0  0  0
 21 22  2  0  0  0  0
 23 25  1  0  0  0  0
 23 24  1  0  0  0  0
M  END
>  <minimizedAffinity>
-4.30967045

$$$$

 OpenBabel03262520343D

 25 25  0  0  0  0  0  0  0  0999 V2000
   36.4050   28.7460   34.0780 C   0  0  0  0  0  0  0  0  0  0  0  0
   37.2200   29.4300   34.3360 H   0  0  0  0  0  0  0  0  0  0  0  0
   36.3750   28.7350   32.9520 H   0  0  0  0  0  0  0  0  0  0  0  0
   37.8160   27.0740   35.2570 C   0  0  0  0  0  3  0  0  0  0  0  0
   36.7620   27.3830   34.5510 C   0  0  0  0  0  3  0  0  0  0  0  0
   38.2390   23.4500   35.0480 C   0  0  0  0  0  0  0  0  0  0  0  0
   38.3080   23.0660   36.4030 C   0  0  0  0  0  0  0  0  0  0  0  0
   38.2030   24.0910   37.3570 C   0  0  0  0  0  0  0  0  0  0  0  0
   38.0450   25.3780   36.9150 N   0  0  0  0  0  0  0  0  0  0  0  0
   37.9870   25.6780   35.6200 C   0  0  0  0  0  0  0  0  0  0  0  0
   38.0840   24.7120   34.6910 N   0  0  0  0  0  0  0  0  0  0  0  0
   38.3210   22.6430   34.3250 H   0  0  0  0  0  0  0  0  0  0  0  0
   38.4350   22.0260   36.6840 H   0  0  0  0  0  0  0  0  0  0  0  0
   38.2490   23.8660   38.3960 H   0  0  0  0  0  0  0  0  0  0  0  0
   35.1530   29.1360   34.5350 O   0  0  0  0  0  0  0  0  0  0  0  0
   35.4920   31.5210   33.6870 O   0  0  0  0  0  0  0  0  0  0  0  0
   35.2250   30.7680   34.9850 P   0  0  2  0  0  0  0  0  0  0  0  0
   36.4900   30.9670   36.0790 O   0  0  0  0  0  0  0  0  0  0  0  0
   36.1250   31.2700   36.9580 H   0  0  0  0  0  0  0  0  0  0  0  0
   33.7530   31.2720   35.6800 O   0  0  0  0  0  0  0  0  0  0  0  0
   33.7550   31.6720   37.0100 C   0  0  0  0  0  0  0  0  0  0  0  0
   32.7380   31.1610   37.5620 O   0  0  0  0  0  0  0  0  0  0  0  0
   34.6950   32.4940   37.6650 N   0  0  0  0  0  0  0  0  0  0  0  0
   35.0180   33.4720   37.7930 H   0  0  0  0  0  0  0  0  0  0  0  0
   35.2540   31.7970   38.2160 H   0  0  0  0  0  0  0  0  0  0  0  0
  1  2  1  0  0  0  0
  1 15  1  0  0  0  0
  1  5  1  0  0  0  0
  3  1  1  0  0  0  0
  4 10  1  0  0  0  0
  5  4  2  0  0  0  0
  6  7  1  0  0  0  0
  7 13  1  0  0  0  0
  7  8  2  0  0  0  0
  8 14  1  0  0  0  0
  9  8  1  0  0  0  0
 10  9  2  0  0  0  0
 11  6  2  0  0  0  0
 11 10  1  0  0  0  0
 12  6  1  0  0  0  0
 15 17  1  0  0  0  0
 17 16  2  6  0  0  0
 17 20  1  0  0  0  0
 17 18  1  0  0  0  0
 18 19  1  0  0  0  0
 20 21  1  0  0  0  0
 21 22  2  0  0  0  0
 21 23  1  0  0  0  0
 23 24  1  0  0  0  0
 23 25  1  0  0  0  0
M  END
>  <minimizedAffinity>
-4.22266769

$$$$

 OpenBabel03262520343D

 25 25  0  0  0  0  0  0  0  0999 V2000
   37.5570   27.0590   33.7920 C   0  0  0  0  0  0  0  0  0  0  0  0
   36.5090   26.7750   33.6550 H   0  0  0  0  0  0  0  0  0  0  0  0
   37.5260   28.0460   34.3350 H   0  0  0  0  0  0  0  0  0  0  0  0
   37.6470   25.4670   35.6990 C   0  0  0  0  0  3  0  0  0  0  0  0
   38.2080   26.0590   34.6780 C   0  0  0  0  0  3  0  0  0  0  0  0
   38.9300   23.3270   38.3700 C   0  0  0  0  0  0  0  0  0  0  0  0
   40.0430   22.7070   37.7650 C   0  0  0  0  0  0  0  0  0  0  0  0
   40.3150   23.0570   36.4330 C   0  0  0  0  0  0  0  0  0  0  0  0
   39.4930   23.9640   35.8180 N   0  0  0  0  0  0  0  0  0  0  0  0
   38.4560   24.5160   36.4410 C   0  0  0  0  0  0  0  0  0  0  0  0
   38.1780   24.1950   37.7170 N   0  0  0  0  0  0  0  0  0  0  0  0
   38.7340   23.0430   39.4010 H   0  0  0  0  0  0  0  0  0  0  0  0
   40.6520   21.9960   38.3120 H   0  0  0  0  0  0  0  0  0  0  0  0
   41.1400   22.6230   35.9200 H   0  0  0  0  0  0  0  0  0  0  0  0
   38.2700   27.2410   32.6150 O   0  0  0  0  0  0  0  0  0  0  0  0
   38.6490   25.2790   31.0240 O   0  0  0  0  0  0  0  0  0  0  0  0
   37.5680   26.2840   31.4050 P   0  0  2  0  0  0  0  0  0  0  0  0
   37.1680   27.2740   30.1040 O   0  0  0  0  0  0  0  0  0  0  0  0
   36.1770   27.2640   29.9710 H   0  0  0  0  0  0  0  0  0  0  0  0
   36.1840   25.4830   31.9920 O   0  0  0  0  0  0  0  0  0  0  0  0
   35.3490   24.8530   31.0770 C   0  0  0  0  0  0  0  0  0  0  0  0
   35.4340   23.6080   31.2800 O   0  0  0  0  0  0  0  0  0  0  0  0
   34.5400   25.4530   30.0890 N   0  0  0  0  0  0  0  0  0  0  0  0
   34.5430   25.9090   29.1570 H   0  0  0  0  0  0  0  0  0  0  0  0
   33.5830   25.3830   30.5140 H   0  0  0  0  0  0  0  0  0  0  0  0
  1  3  1  0  0  0  0
  1  5  1  0  0  0  0
  2  1  1  0  0  0  0
  4 10  1  0  0  0  0
  5  4  2  0  0  0  0
  6 12  1  0  0  0  0
  7 13  1  0  0  0  0
  7  6  1  0  0  0  0
  8  7  2  0  0  0  0
  9  8  1  0  0  0  0
  9 10  2  0  0  0  0
 10 11  1  0  0  0  0
 11  6  2  0  0  0  0
 14  8  1  0  0  0  0
 15  1  1  0  0  0  0
 17 16  2  6  0  0  0
 17 20  1  0  0  0  0
 17 15  1  0  0  0  0
 18 17  1  0  0  0  0
 19 18  1  0  0  0  0
 21 22  2  0  0  0  0
 21 20  1  0  0  0  0
 23 25  1  0  0  0  0
 23 21  1  0  0  0  0
 24 23  1  0  0  0  0
M  END
>  <minimizedAffinity>
-4.16623449

$$$$

 OpenBabel03262520343D

 25 25  0  0  0  0  0  0  0  0999 V2000
   37.1720   25.2230   31.5010 C   0  0  0  0  0  0  0  0  0  0  0  0
   38.2350   25.4250   31.6660 H   0  0  0  0  0  0  0  0  0  0  0  0
   36.9990   25.4290   30.4070 H   0  0  0  0  0  0  0  0  0  0  0  0
   35.8620   23.1140   31.3680 C   0  0  0  0  0  3  0  0  0  0  0  0
   36.9190   23.7800   31.7510 C   0  0  0  0  0  3  0  0  0  0  0  0
   35.8920   19.4670   31.1270 C   0  0  0  0  0  0  0  0  0  0  0  0
   35.6780   19.0650   32.4610 C   0  0  0  0  0  0  0  0  0  0  0  0
   35.5270   20.0870   33.4130 C   0  0  0  0  0  0  0  0  0  0  0  0
   35.5990   21.3870   32.9880 N   0  0  0  0  0  0  0  0  0  0  0  0
   35.8040   21.7050   31.7130 C   0  0  0  0  0  0  0  0  0  0  0  0
   35.9500   20.7430   30.7860 N   0  0  0  0  0  0  0  0  0  0  0  0
   36.0070   18.6640   30.4040 H   0  0  0  0  0  0  0  0  0  0  0  0
   35.6330   18.0150   32.7270 H   0  0  0  0  0  0  0  0  0  0  0  0
   35.3640   19.8480   34.4370 H   0  0  0  0  0  0  0  0  0  0  0  0
   36.3070   26.0280   32.2300 O   0  0  0  0  0  0  0  0  0  0  0  0
   36.6660   28.3380   33.2610 O   0  0  0  0  0  0  0  0  0  0  0  0
   37.2140   26.9180   33.3520 P   0  0  2  0  0  0  0  0  0  0  0  0
   38.8340   26.8580   32.9000 O   0  0  0  0  0  0  0  0  0  0  0  0
   39.3620   26.3950   33.6110 H   0  0  0  0  0  0  0  0  0  0  0  0
   37.0120   26.2960   34.9250 O   0  0  0  0  0  0  0  0  0  0  0  0
   38.0540   26.4450   35.8320 C   0  0  0  0  0  0  0  0  0  0  0  0
   38.2350   25.3240   36.3900 O   0  0  0  0  0  0  0  0  0  0  0  0
   38.7990   27.6090   36.1100 N   0  0  0  0  0  0  0  0  0  0  0  0
   38.7850   28.5260   36.5970 H   0  0  0  0  0  0  0  0  0  0  0  0
   39.7000   27.4220   35.6060 H   0  0  0  0  0  0  0  0  0  0  0  0
  1  2  1  0  0  0  0
  1  5  1  0  0  0  0
  1 15  1  0  0  0  0
  3  1  1  0  0  0  0
  4 10  1  0  0  0  0
  4  5  2  0  0  0  0
  6  7  1  0  0  0  0
  7 13  1  0  0  0  0
  7  8  2  0  0  0  0
  8 14  1  0  0  0  0
  9  8  1  0  0  0  0
 10  9  2  0  0  0  0
 11  6  2  0  0  0  0
 11 10  1  0  0  0  0
 12  6  1  0  0  0  0
 15 17  1  0  0  0  0
 17 16  2  6  0  0  0
 17 20  1  0  0  0  0
 18 17  1  0  0  0  0
 18 19  1  0  0  0  0
 20 21  1  0  0  0  0
 21 23  1  0  0  0  0
 21 22  2  0  0  0  0
 23 24  1  0  0  0  0
 25 23  1  0  0  0  0
M  END
>  <minimizedAffinity>
-4.12317896

$$$$

 OpenBabel03262520343D

 25 25  0  0  0  0  0  0  0  0999 V2000
   39.1280   26.2190   32.7840 C   0  0  0  0  0  0  0  0  0  0  0  0
   40.1760   26.1630   32.4730 H   0  0  0  0  0  0  0  0  0  0  0  0
   38.5690   25.5660   32.0560 H   0  0  0  0  0  0  0  0  0  0  0  0
   39.5730   24.5160   34.5390 C   0  0  0  0  0  3  0  0  0  0  0  0
   39.0030   25.6220   34.1400 C   0  0  0  0  0  3  0  0  0  0  0  0
   39.8270   22.7950   37.7530 C   0  0  0  0  0  0  0  0  0  0  0  0
   38.7800   23.3730   38.5000 C   0  0  0  0  0  0  0  0  0  0  0  0
   38.0100   24.3540   37.8550 C   0  0  0  0  0  0  0  0  0  0  0  0
   38.3230   24.6800   36.5610 N   0  0  0  0  0  0  0  0  0  0  0  0
   39.3250   24.0980   35.9080 C   0  0  0  0  0  0  0  0  0  0  0  0
   40.0740   23.1560   36.5070 N   0  0  0  0  0  0  0  0  0  0  0  0
   40.4120   22.0380   38.2690 H   0  0  0  0  0  0  0  0  0  0  0  0
   38.5880   23.0670   39.5230 H   0  0  0  0  0  0  0  0  0  0  0  0
   37.2070   24.8290   38.3650 H   0  0  0  0  0  0  0  0  0  0  0  0
   38.5730   27.4910   32.7320 O   0  0  0  0  0  0  0  0  0  0  0  0
   36.3400   28.7310   32.7530 O   0  0  0  0  0  0  0  0  0  0  0  0
   36.9320   27.3820   33.1430 P   0  0  2  0  0  0  0  0  0  0  0  0
   36.8110   27.1160   34.8010 O   0  0  0  0  0  0  0  0  0  0  0  0
   36.3840   26.2280   34.9660 H   0  0  0  0  0  0  0  0  0  0  0  0
   36.1740   26.1220   32.2820 O   0  0  0  0  0  0  0  0  0  0  0  0
   35.8420   26.3410   30.9510 C   0  0  0  0  0  0  0  0  0  0  0  0
   34.9460   25.5040   30.6400 O   0  0  0  0  0  0  0  0  0  0  0  0
   36.3790   27.3050   30.0730 N   0  0  0  0  0  0  0  0  0  0  0  0
   37.1990   27.5500   29.4850 H   0  0  0  0  0  0  0  0  0  0  0  0
   35.6160   28.0250   30.0390 H   0  0  0  0  0  0  0  0  0  0  0  0
  1  5  1  0  0  0  0
  2  1  1  0  0  0  0
  3  1  1  0  0  0  0
  4 10  1  0  0  0  0
  5  4  2  0  0  0  0
  6 12  1  0  0  0  0
  6  7  1  0  0  0  0
  7 13  1  0  0  0  0
  8 14  1  0  0  0  0
  8  7  2  0  0  0  0
  9  8  1  0  0  0  0
 10 11  1  0  0  0  0
 10  9  2  0  0  0  0
 11  6  2  0  0  0  0
 15  1  1  0  0  0  0
 15 17  1  0  0  0  0
 17 16  2  6  0  0  0
 17 18  1  0  0  0  0
 18 19  1  0  0  0  0
 20 17  1  0  0  0  0
 21 20  1  0  0  0  0
 22 21  2  0  0  0  0
 23 21  1  0  0  0  0
 24 23  1  0  0  0  0
 25 23  1  0  0  0  0
M  END
>  <minimizedAffinity>
-4.11702013

$$$$

 OpenBabel03262520343D

 25 25  0  0  0  0  0  0  0  0999 V2000
   38.1260   25.0590   33.3750 C   0  0  0  0  0  0  0  0  0  0  0  0
   39.2020   24.9550   33.5480 H   0  0  0  0  0  0  0  0  0  0  0  0
   38.0360   25.7550   32.4930 H   0  0  0  0  0  0  0  0  0  0  0  0
   36.7170   23.5200   32.0240 C   0  0  0  0  0  3  0  0  0  0  0  0
   37.5770   23.7350   32.9830 C   0  0  0  0  0  3  0  0  0  0  0  0
   34.8900   20.3600   32.2120 C   0  0  0  0  0  0  0  0  0  0  0  0
   35.5930   19.5400   31.3060 C   0  0  0  0  0  0  0  0  0  0  0  0
   36.6930   20.1180   30.6520 C   0  0  0  0  0  0  0  0  0  0  0  0
   37.0050   21.4220   30.9320 N   0  0  0  0  0  0  0  0  0  0  0  0
   36.3020   22.1470   31.7980 C   0  0  0  0  0  0  0  0  0  0  0  0
   35.2470   21.6130   32.4360 N   0  0  0  0  0  0  0  0  0  0  0  0
   34.0420   19.8960   32.7090 H   0  0  0  0  0  0  0  0  0  0  0  0
   35.2900   18.5130   31.1320 H   0  0  0  0  0  0  0  0  0  0  0  0
   37.2630   19.5510   29.9550 H   0  0  0  0  0  0  0  0  0  0  0  0
   37.4180   25.6150   34.4320 O   0  0  0  0  0  0  0  0  0  0  0  0
   38.4340   26.9390   36.3670 O   0  0  0  0  0  0  0  0  0  0  0  0
   38.3690   25.5130   35.8320 P   0  0  2  0  0  0  0  0  0  0  0  0
   39.8970   24.9510   35.4020 O   0  0  0  0  0  0  0  0  0  0  0  0
   40.0640   24.0700   35.8420 H   0  0  0  0  0  0  0  0  0  0  0  0
   37.6540   24.4740   36.9770 O   0  0  0  0  0  0  0  0  0  0  0  0
   38.3160   23.2970   37.3030 C   0  0  0  0  0  0  0  0  0  0  0  0
   38.3930   22.6000   36.2510 O   0  0  0  0  0  0  0  0  0  0  0  0
   38.8240   22.9110   38.5610 N   0  0  0  0  0  0  0  0  0  0  0  0
   38.5700   22.5500   39.5010 H   0  0  0  0  0  0  0  0  0  0  0  0
   39.8540   23.0710   38.4430 H   0  0  0  0  0  0  0  0  0  0  0  0
  1  2  1  0  0  0  0
  1 15  1  0  0  0  0
  3  1  1  0  0  0  0
  4  5  2  0  0  0  0
  5  1  1  0  0  0  0
  6 11  1  0  0  0  0
  6 12  1  0  0  0  0
  7  6  2  0  0  0  0
  8  9  2  0  0  0  0
  8  7  1  0  0  0  0
  9 10  1  0  0  0  0
 10  4  1  0  0  0  0
 10 11  2  0  0  0  0
 13  7  1  0  0  0  0
 14  8  1  0  0  0  0
 15 17  1  0  0  0  0
 17 16  2  1  0  0  0
 17 20  1  0  0  0  0
 18 17  1  0  0  0  0
 18 19  1  0  0  0  0
 20 21  1  0  0  0  0
 21 23  1  0  0  0  0
 22 21  2  0  0  0  0
 23 24  1  0  0  0  0
 25 23  1  0  0  0  0
M  END
>  <minimizedAffinity>
-4.113276

$$$$

 OpenBabel03262520343D

 25 25  0  0  0  0  0  0  0  0999 V2000
   38.2200   25.8070   36.6530 C   0  0  0  0  0  0  0  0  0  0  0  0
   38.9720   26.4640   37.1010 H   0  0  0  0  0  0  0  0  0  0  0  0
   37.4000   25.7310   37.4210 H   0  0  0  0  0  0  0  0  0  0  0  0
   37.7400   26.0160   34.2220 C   0  0  0  0  0  3  0  0  0  0  0  0
   37.6680   26.4740   35.4440 C   0  0  0  0  0  3  0  0  0  0  0  0
   36.4900   27.1320   30.9740 C   0  0  0  0  0  0  0  0  0  0  0  0
   35.9780   28.4140   31.2620 C   0  0  0  0  0  0  0  0  0  0  0  0
   36.0850   28.8540   32.5910 C   0  0  0  0  0  0  0  0  0  0  0  0
   36.6710   28.0210   33.5070 N   0  0  0  0  0  0  0  0  0  0  0  0
   37.1370   26.8200   33.1750 C   0  0  0  0  0  0  0  0  0  0  0  0
   37.0450   26.3800   31.9080 N   0  0  0  0  0  0  0  0  0  0  0  0
   36.3990   26.8080   29.9410 H   0  0  0  0  0  0  0  0  0  0  0  0
   35.5250   29.0210   30.4860 H   0  0  0  0  0  0  0  0  0  0  0  0
   35.7160   29.8120   32.8720 H   0  0  0  0  0  0  0  0  0  0  0  0
   38.6640   24.5220   36.3710 O   0  0  0  0  0  0  0  0  0  0  0  0
   37.7240   24.4270   38.7450 O   0  0  0  0  0  0  0  0  0  0  0  0
   38.1720   23.4940   37.6250 P   0  0  2  0  0  0  0  0  0  0  0  0
   39.4890   22.5580   38.0990 O   0  0  0  0  0  0  0  0  0  0  0  0
   39.2940   21.5940   37.9210 H   0  0  0  0  0  0  0  0  0  0  0  0
   36.8840   22.4980   37.1230 O   0  0  0  0  0  0  0  0  0  0  0  0
   37.0010   21.8320   35.9090 C   0  0  0  0  0  0  0  0  0  0  0  0
   36.0190   21.0410   35.8130 O   0  0  0  0  0  0  0  0  0  0  0  0
   38.0110   21.9790   34.9360 N   0  0  0  0  0  0  0  0  0  0  0  0
   38.9940   21.7450   34.6950 H   0  0  0  0  0  0  0  0  0  0  0  0
   37.5290   22.5510   34.2000 H   0  0  0  0  0  0  0  0  0  0  0  0
  1  2  1  0  0  0  0
  1  3  1  0  0  0  0
  4  5  2  0  0  0  0
  5  1  1  0  0  0  0
  6  7  2  0  0  0  0
  6 11  1  0  0  0  0
  7  8  1  0  0  0  0
  8 14  1  0  0  0  0
  8  9  2  0  0  0  0
 10  9  1  0  0  0  0
 10  4  1  0  0  0  0
 11 10  2  0  0  0  0
 12  6  1  0  0  0  0
 13  7  1  0  0  0  0
 15  1  1  0  0  0  0
 15 17  1  0  0  0  0
 17 18  1  0  0  0  0
 17 16  2  1  0  0  0
 19 18  1  0  0  0  0
 20 17  1  0  0  0  0
 21 20  1  0  0  0  0
 22 21  2  0  0  0  0
 23 21  1  0  0  0  0
 24 23  1  0  0  0  0
 25 23  1  0  0  0  0
M  END
>  <minimizedAffinity>
-4.05441856

$$$$
