
 OpenBabel03272508223D

 38 40  0  0  0  0  0  0  0  0999 V2000
   36.8170   27.3160   34.7470 C   0  0  0  0  0  0  0  0  0  0  0  0
   35.8920   27.4890   35.3360 H   0  0  0  0  0  0  0  0  0  0  0  0
   36.7410   26.2180   34.4760 H   0  0  0  0  0  0  0  0  0  0  0  0
   36.0560   29.1990   33.3670 C   0  0  0  0  0  0  0  0  0  0  0  0
   36.7770   28.0460   33.5210 C   0  0  0  0  0  0  0  0  0  0  0  0
   37.3880   27.6410   32.3790 C   0  0  0  0  0  0  0  0  0  0  0  0
   37.3010   28.2880   31.2180 N   0  0  0  0  0  0  0  0  0  0  0  0
   36.6010   29.4000   31.0710 C   0  0  0  0  0  0  0  0  0  0  0  0
   35.9690   29.8690   32.1440 N   0  0  0  0  0  0  0  0  0  0  0  0
   38.0060   26.7290   32.3480 H   0  0  0  0  0  0  0  0  0  0  0  0
   36.5690   29.8750   30.1060 H   0  0  0  0  0  0  0  0  0  0  0  0
   35.4360   29.9040   34.5720 C   0  0  0  0  0  0  0  0  0  0  0  0
   34.5210   30.9380   34.4570 C   0  0  0  0  0  0  0  0  0  0  0  0
   33.8870   29.5580   34.5280 C   0  0  0  0  0  0  0  0  0  0  0  0
   35.8180   29.6820   35.5340 H   0  0  0  0  0  0  0  0  0  0  0  0
   34.2880   31.6690   35.2400 H   0  0  0  0  0  0  0  0  0  0  0  0
   34.3880   31.4280   33.4440 H   0  0  0  0  0  0  0  0  0  0  0  0
   33.5030   29.2050   35.4910 H   0  0  0  0  0  0  0  0  0  0  0  0
   33.4730   29.1400   33.6270 H   0  0  0  0  0  0  0  0  0  0  0  0
   38.0360   27.4570   35.5780 C   0  0  0  0  0  0  0  0  0  0  0  0
   38.4610   28.4880   35.5380 H   0  0  0  0  0  0  0  0  0  0  0  0
   37.7000   27.3610   36.6520 H   0  0  0  0  0  0  0  0  0  0  0  0
   37.6160   24.8320   36.3670 F   0  0  0  0  0  0  0  0  0  0  0  0
   38.7880   25.2210   35.7940 C   0  0  0  0  0  0  0  0  0  0  0  0
   39.0860   26.5190   35.3610 C   0  0  0  0  0  0  0  0  0  0  0  0
   40.3150   26.7050   34.8270 C   0  0  0  0  0  0  0  0  0  0  0  0
   41.2360   25.7220   34.6940 C   0  0  0  0  0  0  0  0  0  0  0  0
   40.9380   24.4180   35.1270 C   0  0  0  0  0  0  0  0  0  0  0  0
   39.6910   24.1970   35.6830 C   0  0  0  0  0  0  0  0  0  0  0  0
   40.7410   27.6130   34.5210 H   0  0  0  0  0  0  0  0  0  0  0  0
   42.2500   25.7910   34.2670 H   0  0  0  0  0  0  0  0  0  0  0  0
   41.6620   23.5900   35.0360 H   0  0  0  0  0  0  0  0  0  0  0  0
   39.4550   22.8820   36.1140 O   0  0  0  0  0  0  0  0  0  0  0  0
   39.7740   22.6710   37.4620 C   0  0  0  0  0  0  0  0  0  0  0  0
   40.8850   22.0550   37.5940 O   0  0  0  0  0  0  0  0  0  0  0  0
   39.1420   22.9870   38.6770 N   0  0  0  0  0  0  0  0  0  0  0  0
   39.0520   22.2390   39.4000 H   0  0  0  0  0  0  0  0  0  0  0  0
   38.9080   24.0060   38.5030 H   0  0  0  0  0  0  0  0  0  0  0  0
  1  2  1  0  0  0  0
  1 20  1  0  0  0  0
  3  1  1  0  0  0  0
  4  5  1  0  0  0  0
  4 12  1  0  0  0  0
  5  1  1  0  0  0  0
  6  5  2  0  0  0  0
  7  6  1  0  0  0  0
  8  7  2  0  0  0  0
  8  9  1  0  0  0  0
  9  4  2  0  0  0  0
 10  6  1  0  0  0  0
 11  8  1  0  0  0  0
 12 15  1  0  0  0  0
 13 14  1  0  0  0  0
 13 12  1  0  0  0  0
 13 16  1  0  0  0  0
 14 12  1  0  0  0  0
 14 18  1  0  0  0  0
 17 13  1  0  0  0  0
 19 14  1  0  0  0  0
 20 22  1  0  0  0  0
 21 20  1  0  0  0  0
 24 23  1  0  0  0  0
 25 20  1  0  0  0  0
 25 24  2  0  0  0  0
 26 25  1  0  0  0  0
 27 26  2  0  0  0  0
 27 28  1  0  0  0  0
 28 29  2  0  0  0  0
 29 24  1  0  0  0  0
 29 33  1  0  0  0  0
 30 26  1  0  0  0  0
 31 27  1  0  0  0  0
 32 28  1  0  0  0  0
 33 34  1  0  0  0  0
 34 35  2  0  0  0  0
 34 36  1  0  0  0  0
 36 37  1  0  0  0  0
 38 36  1  0  0  0  0
M  END
>  <minimizedAffinity>
-5.68091536

$$$$

 OpenBabel03272508223D

 38 40  0  0  0  0  0  0  0  0999 V2000
   35.9380   29.3940   33.6340 C   0  0  0  0  0  0  0  0  0  0  0  0
   36.4060   29.4570   34.6380 H   0  0  0  0  0  0  0  0  0  0  0  0
   36.5690   30.1050   33.0160 H   0  0  0  0  0  0  0  0  0  0  0  0
   36.8670   27.1210   33.6850 C   0  0  0  0  0  0  0  0  0  0  0  0
   36.1200   28.0920   33.0760 C   0  0  0  0  0  0  0  0  0  0  0  0
   35.6310   27.7120   31.8690 C   0  0  0  0  0  0  0  0  0  0  0  0
   35.8500   26.5190   31.3180 N   0  0  0  0  0  0  0  0  0  0  0  0
   36.5750   25.5830   31.9070 C   0  0  0  0  0  0  0  0  0  0  0  0
   37.0930   25.8730   33.0980 N   0  0  0  0  0  0  0  0  0  0  0  0
   35.0080   28.3880   31.2600 H   0  0  0  0  0  0  0  0  0  0  0  0
   36.7170   24.6400   31.4100 H   0  0  0  0  0  0  0  0  0  0  0  0
   37.3610   27.2950   35.1200 C   0  0  0  0  0  0  0  0  0  0  0  0
   38.0330   26.3030   35.8160 C   0  0  0  0  0  0  0  0  0  0  0  0
   38.9450   27.2410   35.0430 C   0  0  0  0  0  0  0  0  0  0  0  0
   37.0650   28.1630   35.6500 H   0  0  0  0  0  0  0  0  0  0  0  0
   38.1300   26.2490   36.9060 H   0  0  0  0  0  0  0  0  0  0  0  0
   38.0270   25.2520   35.3940 H   0  0  0  0  0  0  0  0  0  0  0  0
   39.4260   28.0670   35.5780 H   0  0  0  0  0  0  0  0  0  0  0  0
   39.4100   26.8730   34.1440 H   0  0  0  0  0  0  0  0  0  0  0  0
   34.5630   29.9460   33.6290 C   0  0  0  0  0  0  0  0  0  0  0  0
   34.4310   30.7540   32.8710 H   0  0  0  0  0  0  0  0  0  0  0  0
   33.8930   29.1210   33.2430 H   0  0  0  0  0  0  0  0  0  0  0  0
   32.2260   28.7680   34.5480 F   0  0  0  0  0  0  0  0  0  0  0  0
   32.8520   29.7480   35.2550 C   0  0  0  0  0  0  0  0  0  0  0  0
   34.0350   30.3940   34.8730 C   0  0  0  0  0  0  0  0  0  0  0  0
   34.4920   31.3520   35.7110 C   0  0  0  0  0  0  0  0  0  0  0  0
   33.8770   31.6990   36.8680 C   0  0  0  0  0  0  0  0  0  0  0  0
   32.6910   31.0510   37.2530 C   0  0  0  0  0  0  0  0  0  0  0  0
   32.1950   30.0700   36.4140 C   0  0  0  0  0  0  0  0  0  0  0  0
   35.3100   31.9890   35.5580 H   0  0  0  0  0  0  0  0  0  0  0  0
   34.1870   32.4600   37.6020 H   0  0  0  0  0  0  0  0  0  0  0  0
   32.1610   31.3050   38.1870 H   0  0  0  0  0  0  0  0  0  0  0  0
   31.0000   29.4690   36.8400 O   0  0  0  0  0  0  0  0  0  0  0  0
   31.1980   28.3550   37.6650 C   0  0  0  0  0  0  0  0  0  0  0  0
   31.1250   27.2610   37.0090 O   0  0  0  0  0  0  0  0  0  0  0  0
   31.4580   28.1880   39.0370 N   0  0  0  0  0  0  0  0  0  0  0  0
   30.8920   27.4910   39.5680 H   0  0  0  0  0  0  0  0  0  0  0  0
   32.2400   28.8920   39.1630 H   0  0  0  0  0  0  0  0  0  0  0  0
  1  2  1  0  0  0  0
  3  1  1  0  0  0  0
  4 12  1  0  0  0  0
  5  1  1  0  0  0  0
  5  4  2  0  0  0  0
  6  5  1  0  0  0  0
  7  6  2  0  0  0  0
  7  8  1  0  0  0  0
  8  9  2  0  0  0  0
  9  4  1  0  0  0  0
 10  6  1  0  0  0  0
 11  8  1  0  0  0  0
 12 15  1  0  0  0  0
 12 13  1  0  0  0  0
 13 16  1  0  0  0  0
 14 12  1  0  0  0  0
 14 18  1  0  0  0  0
 14 13  1  0  0  0  0
 17 13  1  0  0  0  0
 19 14  1  0  0  0  0
 20  1  1  0  0  0  0
 20 25  1  0  0  0  0
 21 20  1  0  0  0  0
 22 20  1  0  0  0  0
 23 24  1  0  0  0  0
 24 29  1  0  0  0  0
 25 24  2  0  0  0  0
 25 26  1  0  0  0  0
 26 27  2  0  0  0  0
 27 28  1  0  0  0  0
 27 31  1  0  0  0  0
 28 32  1  0  0  0  0
 29 33  1  0  0  0  0
 29 28  2  0  0  0  0
 30 26  1  0  0  0  0
 33 34  1  0  0  0  0
 34 36  1  0  0  0  0
 35 34  2  0  0  0  0
 36 38  1  0  0  0  0
 36 37  1  0  0  0  0
M  END
>  <minimizedAffinity>
-5.56280804

$$$$

 OpenBabel03272508223D

 38 40  0  0  0  0  0  0  0  0999 V2000
   36.7920   27.1320   34.7880 C   0  0  0  0  0  0  0  0  0  0  0  0
   35.9140   27.4040   35.4100 H   0  0  0  0  0  0  0  0  0  0  0  0
   36.7160   26.0020   34.7240 H   0  0  0  0  0  0  0  0  0  0  0  0
   36.8220   26.8500   32.3490 C   0  0  0  0  0  0  0  0  0  0  0  0
   36.6410   27.6300   33.4580 C   0  0  0  0  0  0  0  0  0  0  0  0
   36.3700   28.9250   33.1620 C   0  0  0  0  0  0  0  0  0  0  0  0
   36.2890   29.4050   31.9220 N   0  0  0  0  0  0  0  0  0  0  0  0
   36.4680   28.6500   30.8510 C   0  0  0  0  0  0  0  0  0  0  0  0
   36.7380   27.3620   31.0520 N   0  0  0  0  0  0  0  0  0  0  0  0
   36.1970   29.6740   33.9530 H   0  0  0  0  0  0  0  0  0  0  0  0
   36.3900   29.0970   29.8760 H   0  0  0  0  0  0  0  0  0  0  0  0
   36.9690   25.3340   32.4700 C   0  0  0  0  0  0  0  0  0  0  0  0
   37.1710   24.5010   31.3800 C   0  0  0  0  0  0  0  0  0  0  0  0
   38.4550   25.0040   32.0200 C   0  0  0  0  0  0  0  0  0  0  0  0
   36.7800   24.8850   33.4100 H   0  0  0  0  0  0  0  0  0  0  0  0
   36.9750   23.4240   31.3610 H   0  0  0  0  0  0  0  0  0  0  0  0
   37.0050   24.9250   30.3430 H   0  0  0  0  0  0  0  0  0  0  0  0
   38.9790   24.3530   32.7280 H   0  0  0  0  0  0  0  0  0  0  0  0
   39.0210   25.7590   31.5020 H   0  0  0  0  0  0  0  0  0  0  0  0
   38.0710   27.4240   35.4770 C   0  0  0  0  0  0  0  0  0  0  0  0
   38.4450   28.4530   35.2630 H   0  0  0  0  0  0  0  0  0  0  0  0
   37.8330   27.4640   36.5810 H   0  0  0  0  0  0  0  0  0  0  0  0
   37.6670   24.7970   36.2690 F   0  0  0  0  0  0  0  0  0  0  0  0
   38.8480   25.2000   35.7240 C   0  0  0  0  0  0  0  0  0  0  0  0
   39.1390   26.5000   35.2910 C   0  0  0  0  0  0  0  0  0  0  0  0
   40.3780   26.7010   34.7880 C   0  0  0  0  0  0  0  0  0  0  0  0
   41.3160   25.7300   34.6830 C   0  0  0  0  0  0  0  0  0  0  0  0
   41.0260   24.4240   35.1160 C   0  0  0  0  0  0  0  0  0  0  0  0
   39.7680   24.1880   35.6410 C   0  0  0  0  0  0  0  0  0  0  0  0
   40.7990   27.6130   34.4880 H   0  0  0  0  0  0  0  0  0  0  0  0
   42.3400   25.8110   34.2820 H   0  0  0  0  0  0  0  0  0  0  0  0
   41.7630   23.6060   35.0470 H   0  0  0  0  0  0  0  0  0  0  0  0
   39.5390   22.8720   36.0720 O   0  0  0  0  0  0  0  0  0  0  0  0
   39.8320   22.6700   37.4280 C   0  0  0  0  0  0  0  0  0  0  0  0
   40.9470   22.0660   37.5850 O   0  0  0  0  0  0  0  0  0  0  0  0
   39.1730   22.9860   38.6280 N   0  0  0  0  0  0  0  0  0  0  0  0
   39.0750   22.2410   39.3520 H   0  0  0  0  0  0  0  0  0  0  0  0
   38.9330   24.0020   38.4440 H   0  0  0  0  0  0  0  0  0  0  0  0
  1  2  1  0  0  0  0
  1 20  1  0  0  0  0
  3  1  1  0  0  0  0
  4 12  1  0  0  0  0
  4  5  1  0  0  0  0
  5  1  1  0  0  0  0
  6  5  2  0  0  0  0
  6 10  1  0  0  0  0
  7  6  1  0  0  0  0
  8  9  1  0  0  0  0
  8  7  2  0  0  0  0
  9  4  2  0  0  0  0
 11  8  1  0  0  0  0
 12 15  1  0  0  0  0
 13 14  1  0  0  0  0
 13 12  1  0  0  0  0
 14 12  1  0  0  0  0
 14 18  1  0  0  0  0
 16 13  1  0  0  0  0
 17 13  1  0  0  0  0
 19 14  1  0  0  0  0
 20 22  1  0  0  0  0
 21 20  1  0  0  0  0
 24 23  1  0  0  0  0
 25 20  1  0  0  0  0
 25 24  2  0  0  0  0
 26 25  1  0  0  0  0
 27 26  2  0  0  0  0
 27 28  1  0  0  0  0
 28 29  2  0  0  0  0
 29 24  1  0  0  0  0
 29 33  1  0  0  0  0
 30 26  1  0  0  0  0
 31 27  1  0  0  0  0
 32 28  1  0  0  0  0
 33 34  1  0  0  0  0
 34 35  2  0  0  0  0
 34 36  1  0  0  0  0
 36 37  1  0  0  0  0
 38 36  1  0  0  0  0
M  END
>  <minimizedAffinity>
-5.40107155

$$$$

 OpenBabel03272508223D

 38 40  0  0  0  0  0  0  0  0999 V2000
   39.2170   26.6920   31.6380 C   0  0  0  0  0  0  0  0  0  0  0  0
   39.8110   26.7690   30.7040 H   0  0  0  0  0  0  0  0  0  0  0  0
   39.0580   27.7760   31.9260 H   0  0  0  0  0  0  0  0  0  0  0  0
   36.7690   26.8570   31.5350 C   0  0  0  0  0  0  0  0  0  0  0  0
   37.9250   26.1450   31.3690 C   0  0  0  0  0  0  0  0  0  0  0  0
   37.7110   24.8600   30.9900 C   0  0  0  0  0  0  0  0  0  0  0  0
   36.5050   24.3300   30.7980 N   0  0  0  0  0  0  0  0  0  0  0  0
   35.3880   25.0200   30.9630 C   0  0  0  0  0  0  0  0  0  0  0  0
   35.5070   26.2920   31.3340 N   0  0  0  0  0  0  0  0  0  0  0  0
   38.5480   24.1630   30.8150 H   0  0  0  0  0  0  0  0  0  0  0  0
   34.4430   24.5350   30.7930 H   0  0  0  0  0  0  0  0  0  0  0  0
   36.8050   28.3620   31.7950 C   0  0  0  0  0  0  0  0  0  0  0  0
   35.6630   29.1290   31.9710 C   0  0  0  0  0  0  0  0  0  0  0  0
   36.2320   28.5630   33.2620 C   0  0  0  0  0  0  0  0  0  0  0  0
   37.7330   28.8640   31.7090 H   0  0  0  0  0  0  0  0  0  0  0  0
   35.6050   30.2160   31.8490 H   0  0  0  0  0  0  0  0  0  0  0  0
   34.6630   28.6730   31.6980 H   0  0  0  0  0  0  0  0  0  0  0  0
   36.8680   29.2050   33.8820 H   0  0  0  0  0  0  0  0  0  0  0  0
   35.7130   27.7470   33.7340 H   0  0  0  0  0  0  0  0  0  0  0  0
   39.9950   26.0770   32.7390 C   0  0  0  0  0  0  0  0  0  0  0  0
   40.3200   25.0360   32.5020 H   0  0  0  0  0  0  0  0  0  0  0  0
   40.9710   26.6440   32.7910 H   0  0  0  0  0  0  0  0  0  0  0  0
   39.2420   23.6490   33.8470 F   0  0  0  0  0  0  0  0  0  0  0  0
   39.0570   24.8200   34.5150 C   0  0  0  0  0  0  0  0  0  0  0  0
   39.4100   26.0890   34.0370 C   0  0  0  0  0  0  0  0  0  0  0  0
   39.1310   27.1340   34.8500 C   0  0  0  0  0  0  0  0  0  0  0  0
   38.5480   27.0090   36.0670 C   0  0  0  0  0  0  0  0  0  0  0  0
   38.1940   25.7360   36.5470 C   0  0  0  0  0  0  0  0  0  0  0  0
   38.4620   24.6480   35.7370 C   0  0  0  0  0  0  0  0  0  0  0  0
   39.2510   28.1530   34.6350 H   0  0  0  0  0  0  0  0  0  0  0  0
   38.2950   27.8040   36.7860 H   0  0  0  0  0  0  0  0  0  0  0  0
   37.7180   25.5930   37.5320 H   0  0  0  0  0  0  0  0  0  0  0  0
   38.0720   23.4040   36.2590 O   0  0  0  0  0  0  0  0  0  0  0  0
   38.9680   22.8910   37.2060 C   0  0  0  0  0  0  0  0  0  0  0  0
   39.9280   22.2550   36.6510 O   0  0  0  0  0  0  0  0  0  0  0  0
   39.0360   22.9280   38.6090 N   0  0  0  0  0  0  0  0  0  0  0  0
   39.2150   22.0360   39.1210 H   0  0  0  0  0  0  0  0  0  0  0  0
   38.8680   23.9610   38.7750 H   0  0  0  0  0  0  0  0  0  0  0  0
  1  3  1  0  0  0  0
  1 20  1  0  0  0  0
  2  1  1  0  0  0  0
  4 12  1  0  0  0  0
  5  4  1  0  0  0  0
  5  1  1  0  0  0  0
  6  5  2  0  0  0  0
  7  8  2  0  0  0  0
  7  6  1  0  0  0  0
  8  9  1  0  0  0  0
  9  4  2  0  0  0  0
 10  6  1  0  0  0  0
 11  8  1  0  0  0  0
 12 13  1  0  0  0  0
 12 14  1  0  0  0  0
 13 14  1  0  0  0  0
 14 19  1  0  0  0  0
 14 18  1  0  0  0  0
 15 12  1  0  0  0  0
 16 13  1  0  0  0  0
 17 13  1  0  0  0  0
 20 22  1  0  0  0  0
 20 25  1  0  0  0  0
 21 20  1  0  0  0  0
 23 24  1  0  0  0  0
 24 29  1  0  0  0  0
 25 24  2  0  0  0  0
 25 26  1  0  0  0  0
 26 27  2  0  0  0  0
 27 28  1  0  0  0  0
 27 31  1  0  0  0  0
 28 32  1  0  0  0  0
 29 33  1  0  0  0  0
 29 28  2  0  0  0  0
 30 26  1  0  0  0  0
 33 34  1  0  0  0  0
 34 36  1  0  0  0  0
 35 34  2  0  0  0  0
 36 38  1  0  0  0  0
 36 37  1  0  0  0  0
M  END
>  <minimizedAffinity>
-5.30496502

$$$$

 OpenBabel03272508223D

 38 40  0  0  0  0  0  0  0  0999 V2000
   36.1260   29.1700   33.2080 C   0  0  0  0  0  0  0  0  0  0  0  0
   36.3970   29.7190   32.2830 H   0  0  0  0  0  0  0  0  0  0  0  0
   36.8750   29.5630   33.9630 H   0  0  0  0  0  0  0  0  0  0  0  0
   34.6400   30.2680   34.8250 C   0  0  0  0  0  0  0  0  0  0  0  0
   34.8330   29.5650   33.6680 C   0  0  0  0  0  0  0  0  0  0  0  0
   33.6750   29.2310   33.0460 C   0  0  0  0  0  0  0  0  0  0  0  0
   32.4650   29.5450   33.5050 N   0  0  0  0  0  0  0  0  0  0  0  0
   32.2810   30.2220   34.6270 C   0  0  0  0  0  0  0  0  0  0  0  0
   33.3670   30.5920   35.3010 N   0  0  0  0  0  0  0  0  0  0  0  0
   33.6700   28.6640   32.1000 H   0  0  0  0  0  0  0  0  0  0  0  0
   31.2770   30.4450   34.9450 H   0  0  0  0  0  0  0  0  0  0  0  0
   35.8200   30.8790   35.5790 C   0  0  0  0  0  0  0  0  0  0  0  0
   36.1890   32.2100   35.4610 C   0  0  0  0  0  0  0  0  0  0  0  0
   35.1950   31.9410   36.5780 C   0  0  0  0  0  0  0  0  0  0  0  0
   36.4640   30.2300   36.1140 H   0  0  0  0  0  0  0  0  0  0  0  0
   37.1730   32.6200   35.7140 H   0  0  0  0  0  0  0  0  0  0  0  0
   35.7420   32.8180   34.6160 H   0  0  0  0  0  0  0  0  0  0  0  0
   35.5700   31.8350   37.6020 H   0  0  0  0  0  0  0  0  0  0  0  0
   34.1730   32.2490   36.4370 H   0  0  0  0  0  0  0  0  0  0  0  0
   36.3840   27.7150   33.0850 C   0  0  0  0  0  0  0  0  0  0  0  0
   35.4440   27.1220   32.9920 H   0  0  0  0  0  0  0  0  0  0  0  0
   36.8800   27.5670   32.0800 H   0  0  0  0  0  0  0  0  0  0  0  0
   37.3230   25.1500   32.6080 F   0  0  0  0  0  0  0  0  0  0  0  0
   37.6340   25.8170   33.7530 C   0  0  0  0  0  0  0  0  0  0  0  0
   37.2110   27.1130   34.0760 C   0  0  0  0  0  0  0  0  0  0  0  0
   37.6180   27.5950   35.2720 C   0  0  0  0  0  0  0  0  0  0  0  0
   38.3960   26.9040   36.1400 C   0  0  0  0  0  0  0  0  0  0  0  0
   38.8220   25.6040   35.8170 C   0  0  0  0  0  0  0  0  0  0  0  0
   38.4170   25.0800   34.6030 C   0  0  0  0  0  0  0  0  0  0  0  0
   37.3420   28.5050   35.7150 H   0  0  0  0  0  0  0  0  0  0  0  0
   38.7720   27.2270   37.1240 H   0  0  0  0  0  0  0  0  0  0  0  0
   39.4550   25.0090   36.4960 H   0  0  0  0  0  0  0  0  0  0  0  0
   38.8570   23.7730   34.3400 O   0  0  0  0  0  0  0  0  0  0  0  0
   38.0460   22.7850   34.9140 C   0  0  0  0  0  0  0  0  0  0  0  0
   37.2660   22.2540   34.0520 O   0  0  0  0  0  0  0  0  0  0  0  0
   37.9110   22.2640   36.2120 N   0  0  0  0  0  0  0  0  0  0  0  0
   36.9510   22.1670   36.6110 H   0  0  0  0  0  0  0  0  0  0  0  0
   38.9300   22.0960   36.4500 H   0  0  0  0  0  0  0  0  0  0  0  0
  1  5  1  0  0  0  0
  1  3  1  0  0  0  0
  2  1  1  0  0  0  0
  4  9  1  0  0  0  0
  4 12  1  0  0  0  0
  5  4  2  0  0  0  0
  6  7  2  0  0  0  0
  6  5  1  0  0  0  0
  7  8  1  0  0  0  0
  8 11  1  0  0  0  0
  8  9  2  0  0  0  0
 10  6  1  0  0  0  0
 12 15  1  0  0  0  0
 12 14  1  0  0  0  0
 13 12  1  0  0  0  0
 13 16  1  0  0  0  0
 13 14  1  0  0  0  0
 14 18  1  0  0  0  0
 17 13  1  0  0  0  0
 19 14  1  0  0  0  0
 20  1  1  0  0  0  0
 20 25  1  0  0  0  0
 21 20  1  0  0  0  0
 22 20  1  0  0  0  0
 23 24  1  0  0  0  0
 24 25  2  0  0  0  0
 24 29  1  0  0  0  0
 25 26  1  0  0  0  0
 26 30  1  0  0  0  0
 26 27  2  0  0  0  0
 27 31  1  0  0  0  0
 28 27  1  0  0  0  0
 28 32  1  0  0  0  0
 29 28  2  0  0  0  0
 33 29  1  0  0  0  0
 33 34  1  0  0  0  0
 34 36  1  0  0  0  0
 35 34  2  0  0  0  0
 36 38  1  0  0  0  0
 36 37  1  0  0  0  0
M  END
>  <minimizedAffinity>
-5.26669407

$$$$

 OpenBabel03272508223D

 38 40  0  0  0  0  0  0  0  0999 V2000
   37.3020   27.3670   35.0870 C   0  0  0  0  0  0  0  0  0  0  0  0
   37.2470   28.4170   35.4400 H   0  0  0  0  0  0  0  0  0  0  0  0
   36.4930   26.8540   35.6930 H   0  0  0  0  0  0  0  0  0  0  0  0
   36.1410   28.2260   33.1010 C   0  0  0  0  0  0  0  0  0  0  0  0
   36.9080   27.2760   33.7170 C   0  0  0  0  0  0  0  0  0  0  0  0
   37.1960   26.2200   32.9150 C   0  0  0  0  0  0  0  0  0  0  0  0
   36.7780   26.1040   31.6560 N   0  0  0  0  0  0  0  0  0  0  0  0
   36.0340   27.0230   31.0640 C   0  0  0  0  0  0  0  0  0  0  0  0
   35.7060   28.0950   31.7790 N   0  0  0  0  0  0  0  0  0  0  0  0
   37.8080   25.3750   33.2730 H   0  0  0  0  0  0  0  0  0  0  0  0
   35.7270   26.8700   30.0440 H   0  0  0  0  0  0  0  0  0  0  0  0
   35.8540   29.5650   33.7790 C   0  0  0  0  0  0  0  0  0  0  0  0
   34.9150   30.4680   33.3080 C   0  0  0  0  0  0  0  0  0  0  0  0
   34.3620   29.4700   34.3120 C   0  0  0  0  0  0  0  0  0  0  0  0
   36.4890   29.8730   34.5680 H   0  0  0  0  0  0  0  0  0  0  0  0
   34.8850   31.5360   33.5510 H   0  0  0  0  0  0  0  0  0  0  0  0
   34.4980   30.3150   32.2660 H   0  0  0  0  0  0  0  0  0  0  0  0
   34.2640   29.7770   35.3590 H   0  0  0  0  0  0  0  0  0  0  0  0
   33.7290   28.6780   33.9490 H   0  0  0  0  0  0  0  0  0  0  0  0
   38.5800   26.7200   35.4670 C   0  0  0  0  0  0  0  0  0  0  0  0
   39.1890   26.4260   34.5800 H   0  0  0  0  0  0  0  0  0  0  0  0
   39.2080   27.5240   35.9530 H   0  0  0  0  0  0  0  0  0  0  0  0
   39.7280   24.3270   34.6650 F   0  0  0  0  0  0  0  0  0  0  0  0
   39.1110   24.4480   35.8720 C   0  0  0  0  0  0  0  0  0  0  0  0
   38.5110   25.6150   36.3620 C   0  0  0  0  0  0  0  0  0  0  0  0
   37.9390   25.5260   37.5840 C   0  0  0  0  0  0  0  0  0  0  0  0
   37.9260   24.3970   38.3320 C   0  0  0  0  0  0  0  0  0  0  0  0
   38.5290   23.2250   37.8430 C   0  0  0  0  0  0  0  0  0  0  0  0
   39.1180   23.2820   36.5930 C   0  0  0  0  0  0  0  0  0  0  0  0
   37.3810   26.2650   38.0770 H   0  0  0  0  0  0  0  0  0  0  0  0
   37.4890   24.2470   39.3320 H   0  0  0  0  0  0  0  0  0  0  0  0
   38.5400   22.2860   38.4210 H   0  0  0  0  0  0  0  0  0  0  0  0
   39.6900   22.0790   36.1470 O   0  0  0  0  0  0  0  0  0  0  0  0
   40.9160   21.7850   36.7570 C   0  0  0  0  0  0  0  0  0  0  0  0
   41.8950   22.3140   36.1300 O   0  0  0  0  0  0  0  0  0  0  0  0
   41.2910   21.0450   37.8930 N   0  0  0  0  0  0  0  0  0  0  0  0
   42.0700   20.3570   37.8020 H   0  0  0  0  0  0  0  0  0  0  0  0
   40.6040   21.4340   38.6000 H   0  0  0  0  0  0  0  0  0  0  0  0
  1  2  1  0  0  0  0
  1 20  1  0  0  0  0
  1  3  1  0  0  0  0
  4  5  1  0  0  0  0
  4 12  1  0  0  0  0
  5  1  1  0  0  0  0
  6 10  1  0  0  0  0
  6  5  2  0  0  0  0
  7  6  1  0  0  0  0
  8  7  2  0  0  0  0
  8  9  1  0  0  0  0
  9  4  2  0  0  0  0
 11  8  1  0  0  0  0
 12 14  1  0  0  0  0
 12 15  1  0  0  0  0
 13 16  1  0  0  0  0
 13 12  1  0  0  0  0
 13 14  1  0  0  0  0
 14 18  1  0  0  0  0
 17 13  1  0  0  0  0
 19 14  1  0  0  0  0
 20 22  1  0  0  0  0
 20 25  1  0  0  0  0
 21 20  1  0  0  0  0
 23 24  1  0  0  0  0
 24 25  2  0  0  0  0
 24 29  1  0  0  0  0
 25 26  1  0  0  0  0
 26 30  1  0  0  0  0
 26 27  2  0  0  0  0
 27 31  1  0  0  0  0
 28 27  1  0  0  0  0
 28 32  1  0  0  0  0
 29 28  2  0  0  0  0
 33 29  1  0  0  0  0
 33 34  1  0  0  0  0
 34 36  1  0  0  0  0
 35 34  2  0  0  0  0
 36 38  1  0  0  0  0
 37 36  1  0  0  0  0
M  END
>  <minimizedAffinity>
-5.25334549

$$$$

 OpenBabel03272508223D

 38 40  0  0  0  0  0  0  0  0999 V2000
   38.4360   27.2870   33.4670 C   0  0  0  0  0  0  0  0  0  0  0  0
   39.3760   27.4350   32.8960 H   0  0  0  0  0  0  0  0  0  0  0  0
   38.0970   28.3480   33.6750 H   0  0  0  0  0  0  0  0  0  0  0  0
   36.6100   27.4200   31.8300 C   0  0  0  0  0  0  0  0  0  0  0  0
   37.4350   26.6900   32.6420 C   0  0  0  0  0  0  0  0  0  0  0  0
   37.1600   25.3610   32.6280 C   0  0  0  0  0  0  0  0  0  0  0  0
   36.1860   24.8100   31.9060 N   0  0  0  0  0  0  0  0  0  0  0  0
   35.3870   25.5180   31.1250 C   0  0  0  0  0  0  0  0  0  0  0  0
   35.5900   26.8320   31.0780 N   0  0  0  0  0  0  0  0  0  0  0  0
   37.7420   24.6450   33.2310 H   0  0  0  0  0  0  0  0  0  0  0  0
   34.6180   25.0130   30.5670 H   0  0  0  0  0  0  0  0  0  0  0  0
   36.8680   28.9040   31.5800 C   0  0  0  0  0  0  0  0  0  0  0  0
   35.9360   29.7490   30.9980 C   0  0  0  0  0  0  0  0  0  0  0  0
   35.8500   29.6850   32.5140 C   0  0  0  0  0  0  0  0  0  0  0  0
   37.8470   29.2770   31.7390 H   0  0  0  0  0  0  0  0  0  0  0  0
   36.1620   30.7080   30.5190 H   0  0  0  0  0  0  0  0  0  0  0  0
   35.0360   29.2860   30.4900 H   0  0  0  0  0  0  0  0  0  0  0  0
   36.3320   30.4750   33.1010 H   0  0  0  0  0  0  0  0  0  0  0  0
   35.0310   29.1450   32.9570 H   0  0  0  0  0  0  0  0  0  0  0  0
   38.6840   26.6620   34.7870 C   0  0  0  0  0  0  0  0  0  0  0  0
   38.6370   27.3990   35.6230 H   0  0  0  0  0  0  0  0  0  0  0  0
   37.8000   25.9890   34.9900 H   0  0  0  0  0  0  0  0  0  0  0  0
   38.4100   24.0000   35.5140 F   0  0  0  0  0  0  0  0  0  0  0  0
   39.6350   24.5540   35.3030 C   0  0  0  0  0  0  0  0  0  0  0  0
   39.8690   25.8840   34.9290 C   0  0  0  0  0  0  0  0  0  0  0  0
   41.1640   26.2460   34.7800 C   0  0  0  0  0  0  0  0  0  0  0  0
   42.2090   25.4030   34.9650 C   0  0  0  0  0  0  0  0  0  0  0  0
   41.9760   24.0680   35.3400 C   0  0  0  0  0  0  0  0  0  0  0  0
   40.6620   23.6700   35.5060 C   0  0  0  0  0  0  0  0  0  0  0  0
   41.5340   27.2060   34.5810 H   0  0  0  0  0  0  0  0  0  0  0  0
   43.2840   25.6190   34.8590 H   0  0  0  0  0  0  0  0  0  0  0  0
   42.8000   23.3520   35.5000 H   0  0  0  0  0  0  0  0  0  0  0  0
   40.4900   22.3320   35.8960 O   0  0  0  0  0  0  0  0  0  0  0  0
   40.5200   22.1480   37.2840 C   0  0  0  0  0  0  0  0  0  0  0  0
   41.5020   21.4120   37.6420 O   0  0  0  0  0  0  0  0  0  0  0  0
   39.7160   22.5930   38.3480 N   0  0  0  0  0  0  0  0  0  0  0  0
   39.3990   21.8950   39.0570 H   0  0  0  0  0  0  0  0  0  0  0  0
   39.6480   23.6230   38.1090 H   0  0  0  0  0  0  0  0  0  0  0  0
  1  3  1  0  0  0  0
  1 20  1  0  0  0  0
  2  1  1  0  0  0  0
  4  5  1  0  0  0  0
  5  1  1  0  0  0  0
  6  5  2  0  0  0  0
  6 10  1  0  0  0  0
  7  6  1  0  0  0  0
  8  7  2  0  0  0  0
  9  8  1  0  0  0  0
  9  4  2  0  0  0  0
 11  8  1  0  0  0  0
 12 15  1  0  0  0  0
 12  4  1  0  0  0  0
 12 14  1  0  0  0  0
 13 12  1  0  0  0  0
 13 14  1  0  0  0  0
 14 19  1  0  0  0  0
 14 18  1  0  0  0  0
 16 13  1  0  0  0  0
 17 13  1  0  0  0  0
 20 25  1  0  0  0  0
 20 22  1  0  0  0  0
 20 21  1  0  0  0  0
 24 29  1  0  0  0  0
 24 23  1  0  0  0  0
 25 24  2  0  0  0  0
 26 25  1  0  0  0  0
 26 27  2  0  0  0  0
 27 28  1  0  0  0  0
 28 32  1  0  0  0  0
 28 29  2  0  0  0  0
 29 33  1  0  0  0  0
 30 26  1  0  0  0  0
 31 27  1  0  0  0  0
 33 34  1  0  0  0  0
 34 35  2  0  0  0  0
 34 36  1  0  0  0  0
 36 37  1  0  0  0  0
 38 36  1  0  0  0  0
M  END
>  <minimizedAffinity>
-5.22160339

$$$$

 OpenBabel03272508223D

 38 40  0  0  0  0  0  0  0  0999 V2000
   38.1560   27.3780   35.5680 C   0  0  0  0  0  0  0  0  0  0  0  0
   38.0100   27.5200   36.6590 H   0  0  0  0  0  0  0  0  0  0  0  0
   38.6010   28.3690   35.2420 H   0  0  0  0  0  0  0  0  0  0  0  0
   39.0520   25.1040   35.8020 C   0  0  0  0  0  0  0  0  0  0  0  0
   39.1470   26.3800   35.3180 C   0  0  0  0  0  0  0  0  0  0  0  0
   40.2990   26.6110   34.6400 C   0  0  0  0  0  0  0  0  0  0  0  0
   41.2520   25.6990   34.4590 N   0  0  0  0  0  0  0  0  0  0  0  0
   41.1610   24.4670   34.9300 C   0  0  0  0  0  0  0  0  0  0  0  0
   40.0590   24.1540   35.6080 N   0  0  0  0  0  0  0  0  0  0  0  0
   40.5160   27.5940   34.1900 H   0  0  0  0  0  0  0  0  0  0  0  0
   41.9660   23.7760   34.7510 H   0  0  0  0  0  0  0  0  0  0  0  0
   37.7610   24.6010   36.4440 C   0  0  0  0  0  0  0  0  0  0  0  0
   37.6500   23.3630   37.0560 C   0  0  0  0  0  0  0  0  0  0  0  0
   38.0670   24.4810   37.9970 C   0  0  0  0  0  0  0  0  0  0  0  0
   36.8770   25.1680   36.3040 H   0  0  0  0  0  0  0  0  0  0  0  0
   36.7110   22.8320   37.2470 H   0  0  0  0  0  0  0  0  0  0  0  0
   38.4750   22.6050   36.8870 H   0  0  0  0  0  0  0  0  0  0  0  0
   37.3010   24.9570   38.6190 H   0  0  0  0  0  0  0  0  0  0  0  0
   39.0900   24.5140   38.3300 H   0  0  0  0  0  0  0  0  0  0  0  0
   36.8670   27.2450   34.8500 C   0  0  0  0  0  0  0  0  0  0  0  0
   36.6010   26.1810   34.6460 H   0  0  0  0  0  0  0  0  0  0  0  0
   36.0650   27.5740   35.5750 H   0  0  0  0  0  0  0  0  0  0  0  0
   35.0050   29.3000   34.8410 F   0  0  0  0  0  0  0  0  0  0  0  0
   35.7430   29.0080   33.7350 C   0  0  0  0  0  0  0  0  0  0  0  0
   36.7080   27.9950   33.6500 C   0  0  0  0  0  0  0  0  0  0  0  0
   37.3260   27.8560   32.4550 C   0  0  0  0  0  0  0  0  0  0  0  0
   37.0660   28.6330   31.3760 C   0  0  0  0  0  0  0  0  0  0  0  0
   36.0990   29.6500   31.4600 C   0  0  0  0  0  0  0  0  0  0  0  0
   35.4440   29.8130   32.6670 C   0  0  0  0  0  0  0  0  0  0  0  0
   38.0130   27.1130   32.1800 H   0  0  0  0  0  0  0  0  0  0  0  0
   37.5270   28.5870   30.3760 H   0  0  0  0  0  0  0  0  0  0  0  0
   35.8580   30.3030   30.6040 H   0  0  0  0  0  0  0  0  0  0  0  0
   34.4790   30.8310   32.6900 O   0  0  0  0  0  0  0  0  0  0  0  0
   33.2300   30.4270   32.2000 C   0  0  0  0  0  0  0  0  0  0  0  0
   32.8550   31.1440   31.2110 O   0  0  0  0  0  0  0  0  0  0  0  0
   32.3200   29.4170   32.5580 N   0  0  0  0  0  0  0  0  0  0  0  0
   31.3130   29.6710   32.6640 H   0  0  0  0  0  0  0  0  0  0  0  0
   32.9790   28.5910   32.6290 H   0  0  0  0  0  0  0  0  0  0  0  0
  1  2  1  0  0  0  0
  3  1  1  0  0  0  0
  4 12  1  0  0  0  0
  5  1  1  0  0  0  0
  5  4  2  0  0  0  0
  6  5  1  0  0  0  0
  7  6  2  0  0  0  0
  7  8  1  0  0  0  0
  8  9  2  0  0  0  0
  9  4  1  0  0  0  0
 10  6  1  0  0  0  0
 11  8  1  0  0  0  0
 12 13  1  0  0  0  0
 12 14  1  0  0  0  0
 13 16  1  0  0  0  0
 13 14  1  0  0  0  0
 14 19  1  0  0  0  0
 14 18  1  0  0  0  0
 15 12  1  0  0  0  0
 17 13  1  0  0  0  0
 20  1  1  0  0  0  0
 20 22  1  0  0  0  0
 21 20  1  0  0  0  0
 24 23  1  0  0  0  0
 25 24  1  0  0  0  0
 25 20  1  0  0  0  0
 26 25  2  0  0  0  0
 27 28  2  0  0  0  0
 27 26  1  0  0  0  0
 28 29  1  0  0  0  0
 29 33  1  0  0  0  0
 29 24  2  0  0  0  0
 30 26  1  0  0  0  0
 31 27  1  0  0  0  0
 32 28  1  0  0  0  0
 34 36  1  0  0  0  0
 34 33  1  0  0  0  0
 35 34  2  0  0  0  0
 36 38  1  0  0  0  0
 36 37  1  0  0  0  0
M  END
>  <minimizedAffinity>
-5.20841694

$$$$

 OpenBabel03272508223D

 38 40  0  0  0  0  0  0  0  0999 V2000
   35.6490   28.9500   34.2850 C   0  0  0  0  0  0  0  0  0  0  0  0
   34.8260   28.9190   35.0290 H   0  0  0  0  0  0  0  0  0  0  0  0
   35.3020   28.2140   33.4960 H   0  0  0  0  0  0  0  0  0  0  0  0
   35.5820   31.4030   34.3480 C   0  0  0  0  0  0  0  0  0  0  0  0
   35.7100   30.2300   33.6560 C   0  0  0  0  0  0  0  0  0  0  0  0
   35.8330   30.4100   32.3170 C   0  0  0  0  0  0  0  0  0  0  0  0
   35.8290   31.6010   31.7210 N   0  0  0  0  0  0  0  0  0  0  0  0
   35.7010   32.7340   32.3920 C   0  0  0  0  0  0  0  0  0  0  0  0
   35.5760   32.6490   33.7140 N   0  0  0  0  0  0  0  0  0  0  0  0
   35.9470   29.5560   31.6280 H   0  0  0  0  0  0  0  0  0  0  0  0
   35.7040   33.6650   31.8520 H   0  0  0  0  0  0  0  0  0  0  0  0
   35.6010   31.4210   35.8750 C   0  0  0  0  0  0  0  0  0  0  0  0
   35.1870   32.5090   36.6270 C   0  0  0  0  0  0  0  0  0  0  0  0
   34.0820   31.5100   36.3270 C   0  0  0  0  0  0  0  0  0  0  0  0
   36.0700   30.6170   36.3800 H   0  0  0  0  0  0  0  0  0  0  0  0
   35.4610   32.6990   37.6710 H   0  0  0  0  0  0  0  0  0  0  0  0
   35.0350   33.5000   36.0990 H   0  0  0  0  0  0  0  0  0  0  0  0
   33.8220   30.7690   37.0910 H   0  0  0  0  0  0  0  0  0  0  0  0
   33.3370   31.7760   35.5970 H   0  0  0  0  0  0  0  0  0  0  0  0
   36.9130   28.4060   34.8350 C   0  0  0  0  0  0  0  0  0  0  0  0
   37.7890   29.0600   34.6140 H   0  0  0  0  0  0  0  0  0  0  0  0
   36.8230   28.4710   35.9590 H   0  0  0  0  0  0  0  0  0  0  0  0
   38.1580   26.8540   36.7670 F   0  0  0  0  0  0  0  0  0  0  0  0
   37.8760   26.3570   35.5310 C   0  0  0  0  0  0  0  0  0  0  0  0
   37.2470   27.0630   34.4980 C   0  0  0  0  0  0  0  0  0  0  0  0
   37.0680   26.3930   33.3370 C   0  0  0  0  0  0  0  0  0  0  0  0
   37.4530   25.1090   33.1390 C   0  0  0  0  0  0  0  0  0  0  0  0
   38.0840   24.3990   34.1750 C   0  0  0  0  0  0  0  0  0  0  0  0
   38.2870   25.0590   35.3730 C   0  0  0  0  0  0  0  0  0  0  0  0
   36.6880   26.7760   32.4370 H   0  0  0  0  0  0  0  0  0  0  0  0
   37.3380   24.4960   32.2310 H   0  0  0  0  0  0  0  0  0  0  0  0
   38.4120   23.3530   34.0530 H   0  0  0  0  0  0  0  0  0  0  0  0
   38.9360   24.3070   36.3660 O   0  0  0  0  0  0  0  0  0  0  0  0
   38.0570   23.5710   37.1710 C   0  0  0  0  0  0  0  0  0  0  0  0
   37.8650   24.1360   38.3010 O   0  0  0  0  0  0  0  0  0  0  0  0
   37.3540   22.3650   37.0030 N   0  0  0  0  0  0  0  0  0  0  0  0
   37.3950   21.6560   37.7680 H   0  0  0  0  0  0  0  0  0  0  0  0
   36.9340   22.5290   36.0440 H   0  0  0  0  0  0  0  0  0  0  0  0
  1 20  1  0  0  0  0
  1  2  1  0  0  0  0
  3  1  1  0  0  0  0
  4 12  1  0  0  0  0
  5  1  1  0  0  0  0
  5  4  2  0  0  0  0
  6  5  1  0  0  0  0
  7  6  2  0  0  0  0
  7  8  1  0  0  0  0
  8  9  2  0  0  0  0
  9  4  1  0  0  0  0
 10  6  1  0  0  0  0
 11  8  1  0  0  0  0
 12 14  1  0  0  0  0
 12 15  1  0  0  0  0
 12 13  1  0  0  0  0
 13 16  1  0  0  0  0
 14 13  1  0  0  0  0
 14 18  1  0  0  0  0
 17 13  1  0  0  0  0
 19 14  1  0  0  0  0
 20 22  1  0  0  0  0
 21 20  1  0  0  0  0
 24 23  1  0  0  0  0
 25 20  1  0  0  0  0
 25 24  2  0  0  0  0
 26 25  1  0  0  0  0
 27 26  2  0  0  0  0
 27 28  1  0  0  0  0
 28 29  2  0  0  0  0
 29 24  1  0  0  0  0
 29 33  1  0  0  0  0
 30 26  1  0  0  0  0
 31 27  1  0  0  0  0
 32 28  1  0  0  0  0
 33 34  1  0  0  0  0
 34 35  2  0  0  0  0
 36 34  1  0  0  0  0
 36 37  1  0  0  0  0
 38 36  1  0  0  0  0
M  END
>  <minimizedAffinity>
-5.19115067

$$$$
