
 OpenBabel03272510243D

 28 30  0  0  0  0  0  0  0  0999 V2000
   35.4710   29.9140   46.9510 C   0  0  0  0  0  0  0  0  0  0  0  0
   36.5980   30.3400   47.6240 C   0  0  0  0  0  0  0  0  0  0  0  0
   37.6240   30.9400   46.9310 C   0  0  0  0  0  0  0  0  0  0  0  0
   37.4710   31.0910   45.5570 C   0  0  0  0  0  0  0  0  0  0  0  0
   38.3580   31.6570   44.6670 N   0  0  0  0  0  0  0  0  0  0  0  0
   37.7780   31.5750   43.4740 C   0  0  0  0  0  0  0  0  0  0  0  0
   36.5810   30.9950   43.5510 N   0  0  0  0  0  0  0  0  0  0  0  0
   36.3660   30.6800   44.8510 C   0  0  0  0  0  0  0  0  0  0  0  0
   35.3440   30.0780   45.5720 C   0  0  0  0  0  0  0  0  0  0  0  0
   34.6360   29.4410   47.4130 H   0  0  0  0  0  0  0  0  0  0  0  0
   38.5010   31.2740   47.4450 H   0  0  0  0  0  0  0  0  0  0  0  0
   39.3010   32.0610   44.9450 H   0  0  0  0  0  0  0  0  0  0  0  0
   34.4790   29.7560   45.0200 H   0  0  0  0  0  0  0  0  0  0  0  0
   37.6370   30.2770   51.2340 C   0  0  0  0  0  0  0  0  0  0  0  0
   37.7080   30.5370   49.8680 C   0  0  0  0  0  0  0  0  0  0  0  0
   36.6500   30.1310   49.0590 C   0  0  0  0  0  0  0  0  0  0  0  0
   35.5900   29.4930   49.6450 N   0  0  0  0  0  0  0  0  0  0  0  0
   35.5510   29.2540   50.9810 C   0  0  0  0  0  0  0  0  0  0  0  0
   36.5560   29.6400   51.7540 N   0  0  0  0  0  0  0  0  0  0  0  0
   38.4550   30.5920   51.8520 H   0  0  0  0  0  0  0  0  0  0  0  0
   38.5410   31.0380   49.4080 H   0  0  0  0  0  0  0  0  0  0  0  0
   34.6920   28.7490   51.3840 H   0  0  0  0  0  0  0  0  0  0  0  0
   38.4390   32.0730   42.3540 O   0  0  0  0  0  0  0  0  0  0  0  0
   38.1670   33.2520   41.7220 C   0  0  0  0  0  0  0  0  0  0  0  0
   38.7100   34.1460   40.9980 O   0  0  0  0  0  0  0  0  0  0  0  0
   36.7920   33.6210   41.9460 N   0  0  0  0  0  0  0  0  0  0  0  0
   35.9260   34.0600   42.2750 H   0  0  0  0  0  0  0  0  0  0  0  0
   36.1380   33.0440   41.3690 H   0  0  0  0  0  0  0  0  0  0  0  0
  1 10  1  0  0  0  0
  1  2  1  0  0  0  0
  2 16  1  0  0  0  0
  3 11  1  0  0  0  0
  3  2  2  0  0  0  0
  4  3  1  0  0  0  0
  5 12  1  0  0  0  0
  5  4  1  0  0  0  0
  6  7  2  0  0  0  0
  6  5  1  0  0  0  0
  7  8  1  0  0  0  0
  8  4  2  0  0  0  0
  8  9  1  0  0  0  0
  9  1  2  0  0  0  0
 13  9  1  0  0  0  0
 14 19  1  0  0  0  0
 14 20  1  0  0  0  0
 15 14  2  0  0  0  0
 16 17  2  0  0  0  0
 16 15  1  0  0  0  0
 17 18  1  0  0  0  0
 18 22  1  0  0  0  0
 18 19  2  0  0  0  0
 21 15  1  0  0  0  0
 23  6  1  0  0  0  0
 24 26  1  0  0  0  0
 24 23  1  0  0  0  0
 25 24  2  0  0  0  0
 26 27  1  0  0  0  0
 28 26  1  0  0  0  0
M  END
>  <minimizedAffinity>
-4.72824812

>  <minimizedRMSD>
2.3960278

$$$$
