
 OpenBabel03272504183D

 22 22  0  0  0  0  0  0  0  0999 V2000
   38.1550   25.4360   35.3730 C   0  0  0  0  0  0  0  0  0  0  0  0
   38.5830   26.7300   35.1140 C   0  0  0  0  0  0  0  0  0  0  0  0
   38.8320   27.0960   33.7990 C   0  0  0  0  0  0  0  0  0  0  0  0
   38.6560   26.1910   32.7960 N   0  0  0  0  0  0  0  0  0  0  0  0
   38.2330   24.9210   33.0940 C   0  0  0  0  0  0  0  0  0  0  0  0
   37.9840   24.5500   34.3820 N   0  0  0  0  0  0  0  0  0  0  0  0
   39.1570   28.1030   33.6630 H   0  0  0  0  0  0  0  0  0  0  0  0
   38.1160   24.2590   32.2490 H   0  0  0  0  0  0  0  0  0  0  0  0
   38.7180   27.5470   36.2500 N   0  0  0  0  0  0  0  0  0  0  0  0
   39.7280   27.6270   36.4910 H   0  0  0  0  0  0  0  0  0  0  0  0
   38.0290   28.0490   36.8500 H   0  0  0  0  0  0  0  0  0  0  0  0
   37.8610   24.8950   36.6100 O   0  0  0  0  0  0  0  0  0  0  0  0
   38.6640   23.3500   38.6550 O   0  0  0  0  0  0  0  0  0  0  0  0
   38.5920   23.4230   37.1600 P   0  0  1  0  0  0  0  0  0  0  0  0
   37.6700   22.1630   36.5260 O   0  0  0  0  0  0  0  0  0  0  0  0
   38.2340   21.5970   35.9320 H   0  0  0  0  0  0  0  0  0  0  0  0
   40.1810   23.3790   36.5870 O   0  0  0  0  0  0  0  0  0  0  0  0
   41.1790   22.5490   37.0590 C   0  0  0  0  0  0  0  0  0  0  0  0
   42.3580   22.8550   36.7430 O   0  0  0  0  0  0  0  0  0  0  0  0
   40.9790   21.3900   37.8650 N   0  0  0  0  0  0  0  0  0  0  0  0
   40.5670   20.9890   38.7190 H   0  0  0  0  0  0  0  0  0  0  0  0
   41.4340   20.5250   37.4500 H   0  0  0  0  0  0  0  0  0  0  0  0
  1 12  1  0  0  0  0
  2  1  1  0  0  0  0
  2  9  1  0  0  0  0
  3  2  2  0  0  0  0
  4  5  2  0  0  0  0
  4  3  1  0  0  0  0
  5  6  1  0  0  0  0
  6  1  2  0  0  0  0
  7  3  1  0  0  0  0
  8  5  1  0  0  0  0
  9 10  1  0  0  0  0
  9 11  1  0  0  0  0
 12 14  1  0  0  0  0
 14 13  2  1  0  0  0
 15 14  1  0  0  0  0
 16 15  1  0  0  0  0
 17 18  1  0  0  0  0
 17 14  1  0  0  0  0
 18 20  1  0  0  0  0
 19 18  2  0  0  0  0
 20 21  1  0  0  0  0
 22 20  1  0  0  0  0
M  END
>  <minimizedAffinity>
-4.49432802

$$$$

 OpenBabel03272504183D

 22 22  0  0  0  0  0  0  0  0999 V2000
   38.3470   26.2930   34.3630 C   0  0  0  0  0  0  0  0  0  0  0  0
   37.8980   27.3610   35.1250 C   0  0  0  0  0  0  0  0  0  0  0  0
   36.8700   28.1470   34.6240 C   0  0  0  0  0  0  0  0  0  0  0  0
   36.3250   27.8610   33.4090 N   0  0  0  0  0  0  0  0  0  0  0  0
   36.7980   26.7950   32.6870 C   0  0  0  0  0  0  0  0  0  0  0  0
   37.8080   26.0160   33.1680 N   0  0  0  0  0  0  0  0  0  0  0  0
   36.5670   28.9520   35.2540 H   0  0  0  0  0  0  0  0  0  0  0  0
   36.3190   26.6290   31.7340 H   0  0  0  0  0  0  0  0  0  0  0  0
   38.5570   27.5300   36.3550 N   0  0  0  0  0  0  0  0  0  0  0  0
   39.2340   28.3170   36.2710 H   0  0  0  0  0  0  0  0  0  0  0  0
   38.4900   27.0370   37.2700 H   0  0  0  0  0  0  0  0  0  0  0  0
   39.3550   25.4070   34.6960 O   0  0  0  0  0  0  0  0  0  0  0  0
   38.3340   22.9240   34.7490 O   0  0  0  0  0  0  0  0  0  0  0  0
   39.0350   23.9530   35.5820 P   0  0  1  0  0  0  0  0  0  0  0  0
   40.5250   23.3870   36.1310 O   0  0  0  0  0  0  0  0  0  0  0  0
   40.5320   23.3600   37.1270 H   0  0  0  0  0  0  0  0  0  0  0  0
   38.0050   24.3330   36.8660 O   0  0  0  0  0  0  0  0  0  0  0  0
   38.2320   24.0260   38.1930 C   0  0  0  0  0  0  0  0  0  0  0  0
   37.9360   24.9170   39.0320 O   0  0  0  0  0  0  0  0  0  0  0  0
   38.7670   22.7980   38.6780 N   0  0  0  0  0  0  0  0  0  0  0  0
   38.6990   21.7700   38.6970 H   0  0  0  0  0  0  0  0  0  0  0  0
   39.6130   22.9430   39.3030 H   0  0  0  0  0  0  0  0  0  0  0  0
  1 12  1  0  0  0  0
  1  2  1  0  0  0  0
  2  9  1  0  0  0  0
  3  2  2  0  0  0  0
  3  7  1  0  0  0  0
  4  3  1  0  0  0  0
  5  6  1  0  0  0  0
  5  4  2  0  0  0  0
  6  1  2  0  0  0  0
  8  5  1  0  0  0  0
  9 11  1  0  0  0  0
 10  9  1  0  0  0  0
 12 14  1  0  0  0  0
 14 13  2  6  0  0  0
 14 15  1  0  0  0  0
 14 17  1  0  0  0  0
 15 16  1  0  0  0  0
 17 18  1  0  0  0  0
 18 20  1  0  0  0  0
 18 19  2  0  0  0  0
 20 21  1  0  0  0  0
 20 22  1  0  0  0  0
M  END
>  <minimizedAffinity>
-4.38261271

$$$$

 OpenBabel03272504183D

 22 22  0  0  0  0  0  0  0  0999 V2000
   38.3640   24.5550   36.0390 C   0  0  0  0  0  0  0  0  0  0  0  0
   39.4160   23.6550   35.9390 C   0  0  0  0  0  0  0  0  0  0  0  0
   39.8000   22.9560   37.0730 C   0  0  0  0  0  0  0  0  0  0  0  0
   39.1490   23.1600   38.2520 N   0  0  0  0  0  0  0  0  0  0  0  0
   38.1150   24.0590   38.3090 C   0  0  0  0  0  0  0  0  0  0  0  0
   37.7270   24.7520   37.2010 N   0  0  0  0  0  0  0  0  0  0  0  0
   40.6130   22.2780   36.9340 H   0  0  0  0  0  0  0  0  0  0  0  0
   37.6460   24.1690   39.2750 H   0  0  0  0  0  0  0  0  0  0  0  0
   39.9870   23.5540   34.6590 N   0  0  0  0  0  0  0  0  0  0  0  0
   40.8870   24.0790   34.6470 H   0  0  0  0  0  0  0  0  0  0  0  0
   39.6870   23.0770   33.7820 H   0  0  0  0  0  0  0  0  0  0  0  0
   37.8470   25.3360   35.0230 O   0  0  0  0  0  0  0  0  0  0  0  0
   37.1310   27.8370   34.3530 O   0  0  0  0  0  0  0  0  0  0  0  0
   38.2750   27.0060   34.8480 P   0  0  1  0  0  0  0  0  0  0  0  0
   38.8030   27.5270   36.3620 O   0  0  0  0  0  0  0  0  0  0  0  0
   39.7510   27.8290   36.3050 H   0  0  0  0  0  0  0  0  0  0  0  0
   39.5020   27.1180   33.6910 O   0  0  0  0  0  0  0  0  0  0  0  0
   40.8570   27.0850   33.9560 C   0  0  0  0  0  0  0  0  0  0  0  0
   41.2200   26.3730   34.9270 O   0  0  0  0  0  0  0  0  0  0  0  0
   41.8590   27.7850   33.2230 N   0  0  0  0  0  0  0  0  0  0  0  0
   42.2830   27.9830   32.3060 H   0  0  0  0  0  0  0  0  0  0  0  0
   42.4730   28.3850   33.8490 H   0  0  0  0  0  0  0  0  0  0  0  0
  1  6  1  0  0  0  0
  2  1  2  0  0  0  0
  2  3  1  0  0  0  0
  3  4  2  0  0  0  0
  4  5  1  0  0  0  0
  5  8  1  0  0  0  0
  6  5  2  0  0  0  0
  7  3  1  0  0  0  0
  9  2  1  0  0  0  0
 10  9  1  0  0  0  0
 11  9  1  0  0  0  0
 12  1  1  0  0  0  0
 14 13  2  6  0  0  0
 14 12  1  0  0  0  0
 14 15  1  0  0  0  0
 16 15  1  0  0  0  0
 17 18  1  0  0  0  0
 17 14  1  0  0  0  0
 18 19  2  0  0  0  0
 20 22  1  0  0  0  0
 20 18  1  0  0  0  0
 21 20  1  0  0  0  0
M  END
>  <minimizedAffinity>
-4.17624331

$$$$

 OpenBabel03272504183D

 22 22  0  0  0  0  0  0  0  0999 V2000
   37.6110   24.0210   33.0010 C   0  0  0  0  0  0  0  0  0  0  0  0
   37.0350   25.2010   32.5530 C   0  0  0  0  0  0  0  0  0  0  0  0
   36.0030   25.1250   31.6290 C   0  0  0  0  0  0  0  0  0  0  0  0
   35.5770   23.9120   31.1820 N   0  0  0  0  0  0  0  0  0  0  0  0
   36.1740   22.7690   31.6490 C   0  0  0  0  0  0  0  0  0  0  0  0
   37.1890   22.8290   32.5570 N   0  0  0  0  0  0  0  0  0  0  0  0
   35.5990   26.0650   31.3230 H   0  0  0  0  0  0  0  0  0  0  0  0
   35.7850   21.8440   31.2510 H   0  0  0  0  0  0  0  0  0  0  0  0
   37.5810   26.3730   33.1050 N   0  0  0  0  0  0  0  0  0  0  0  0
   38.2110   26.8160   32.4030 H   0  0  0  0  0  0  0  0  0  0  0  0
   37.4710   26.8400   34.0290 H   0  0  0  0  0  0  0  0  0  0  0  0
   38.6430   23.9010   33.9130 O   0  0  0  0  0  0  0  0  0  0  0  0
   37.6890   24.4140   36.3700 O   0  0  0  0  0  0  0  0  0  0  0  0
   38.3660   23.3680   35.5380 P   0  0  1  0  0  0  0  0  0  0  0  0
   37.4340   21.9680   35.4320 O   0  0  0  0  0  0  0  0  0  0  0  0
   37.9290   21.2000   35.8310 H   0  0  0  0  0  0  0  0  0  0  0  0
   39.8660   23.0630   36.2560 O   0  0  0  0  0  0  0  0  0  0  0  0
   40.0570   22.5510   37.5240 C   0  0  0  0  0  0  0  0  0  0  0  0
   41.0610   21.8090   37.6830 O   0  0  0  0  0  0  0  0  0  0  0  0
   39.2180   22.7960   38.6490 N   0  0  0  0  0  0  0  0  0  0  0  0
   38.7620   23.4920   39.2560 H   0  0  0  0  0  0  0  0  0  0  0  0
   38.8830   21.8980   39.1090 H   0  0  0  0  0  0  0  0  0  0  0  0
  1 12  1  0  0  0  0
  2  1  2  0  0  0  0
  2  9  1  0  0  0  0
  3  2  1  0  0  0  0
  4  3  2  0  0  0  0
  4  5  1  0  0  0  0
  5  6  2  0  0  0  0
  6  1  1  0  0  0  0
  7  3  1  0  0  0  0
  8  5  1  0  0  0  0
  9 11  1  0  0  0  0
 10  9  1  0  0  0  0
 12 14  1  0  0  0  0
 14 17  1  0  0  0  0
 14 13  2  1  0  0  0
 15 14  1  0  0  0  0
 15 16  1  0  0  0  0
 17 18  1  0  0  0  0
 18 19  2  0  0  0  0
 18 20  1  0  0  0  0
 20 22  1  0  0  0  0
 20 21  1  0  0  0  0
M  END
>  <minimizedAffinity>
-4.06685638

$$$$

 OpenBabel03272504183D

 22 22  0  0  0  0  0  0  0  0999 V2000
   37.3160   21.5540   33.0270 C   0  0  0  0  0  0  0  0  0  0  0  0
   37.0170   22.3080   31.9010 C   0  0  0  0  0  0  0  0  0  0  0  0
   35.7910   22.1160   31.2810 C   0  0  0  0  0  0  0  0  0  0  0  0
   34.9120   21.2030   31.7800 N   0  0  0  0  0  0  0  0  0  0  0  0
   35.2460   20.4770   32.8940 C   0  0  0  0  0  0  0  0  0  0  0  0
   36.4480   20.6570   33.5130 N   0  0  0  0  0  0  0  0  0  0  0  0
   35.6170   22.7240   30.4220 H   0  0  0  0  0  0  0  0  0  0  0  0
   34.5010   19.7730   33.2320 H   0  0  0  0  0  0  0  0  0  0  0  0
   38.0220   23.2070   31.5070 N   0  0  0  0  0  0  0  0  0  0  0  0
   38.5280   22.8120   30.6870 H   0  0  0  0  0  0  0  0  0  0  0  0
   38.3270   24.1350   31.8690 H   0  0  0  0  0  0  0  0  0  0  0  0
   38.4800   21.6070   33.7710 O   0  0  0  0  0  0  0  0  0  0  0  0
   38.3470   23.8540   35.2360 O   0  0  0  0  0  0  0  0  0  0  0  0
   38.5340   22.3700   35.3260 P   0  0  1  0  0  0  0  0  0  0  0  0
   37.3240   21.6530   36.2540 O   0  0  0  0  0  0  0  0  0  0  0  0
   37.7260   21.2080   37.0500 H   0  0  0  0  0  0  0  0  0  0  0  0
   40.0650   22.1060   35.9900 O   0  0  0  0  0  0  0  0  0  0  0  0
   40.3620   22.0950   37.3380 C   0  0  0  0  0  0  0  0  0  0  0  0
   41.4610   21.5770   37.6650 O   0  0  0  0  0  0  0  0  0  0  0  0
   39.5320   22.6180   38.3710 N   0  0  0  0  0  0  0  0  0  0  0  0
   39.0050   23.4240   38.7360 H   0  0  0  0  0  0  0  0  0  0  0  0
   39.3360   21.9050   39.1340 H   0  0  0  0  0  0  0  0  0  0  0  0
  1  6  1  0  0  0  0
  1 12  1  0  0  0  0
  2  1  2  0  0  0  0
  3  4  2  0  0  0  0
  3  2  1  0  0  0  0
  4  5  1  0  0  0  0
  5  8  1  0  0  0  0
  5  6  2  0  0  0  0
  7  3  1  0  0  0  0
  9 11  1  0  0  0  0
  9  2  1  0  0  0  0
 10  9  1  0  0  0  0
 12 14  1  0  0  0  0
 14 13  2  6  0  0  0
 14 17  1  0  0  0  0
 14 15  1  0  0  0  0
 15 16  1  0  0  0  0
 17 18  1  0  0  0  0
 18 19  2  0  0  0  0
 18 20  1  0  0  0  0
 20 21  1  0  0  0  0
 20 22  1  0  0  0  0
M  END
>  <minimizedAffinity>
-3.97417259

$$$$

 OpenBabel03272504183D

 22 22  0  0  0  0  0  0  0  0999 V2000
   37.4500   25.3710   33.5100 C   0  0  0  0  0  0  0  0  0  0  0  0
   37.2750   25.7230   32.1790 C   0  0  0  0  0  0  0  0  0  0  0  0
   36.9020   27.0260   31.8810 C   0  0  0  0  0  0  0  0  0  0  0  0
   36.7150   27.9270   32.8850 N   0  0  0  0  0  0  0  0  0  0  0  0
   36.8980   27.5390   34.1880 C   0  0  0  0  0  0  0  0  0  0  0  0
   37.2650   26.2620   34.4940 N   0  0  0  0  0  0  0  0  0  0  0  0
   36.7830   27.2370   30.8420 H   0  0  0  0  0  0  0  0  0  0  0  0
   36.7330   28.3060   34.9300 H   0  0  0  0  0  0  0  0  0  0  0  0
   37.5030   24.6860   31.2580 N   0  0  0  0  0  0  0  0  0  0  0  0
   36.5850   24.3200   30.9260 H   0  0  0  0  0  0  0  0  0  0  0  0
   38.3700   24.2510   30.8780 H   0  0  0  0  0  0  0  0  0  0  0  0
   37.8160   24.1300   33.9940 O   0  0  0  0  0  0  0  0  0  0  0  0
   39.5230   22.6320   35.4290 O   0  0  0  0  0  0  0  0  0  0  0  0
   38.8250   23.9580   35.3920 P   0  0  1  0  0  0  0  0  0  0  0  0
   39.9290   25.2310   35.3470 O   0  0  0  0  0  0  0  0  0  0  0  0
   39.8190   25.8040   36.1550 H   0  0  0  0  0  0  0  0  0  0  0  0
   37.8430   24.0360   36.7650 O   0  0  0  0  0  0  0  0  0  0  0  0
   38.2710   23.8630   38.0660 C   0  0  0  0  0  0  0  0  0  0  0  0
   37.9740   24.7770   38.8790 O   0  0  0  0  0  0  0  0  0  0  0  0
   39.0100   22.7460   38.5520 N   0  0  0  0  0  0  0  0  0  0  0  0
   39.0730   21.7230   38.6460 H   0  0  0  0  0  0  0  0  0  0  0  0
   39.9030   23.0360   39.0480 H   0  0  0  0  0  0  0  0  0  0  0  0
  1 12  1  0  0  0  0
  1  6  1  0  0  0  0
  2  1  2  0  0  0  0
  3  2  1  0  0  0  0
  3  4  2  0  0  0  0
  4  5  1  0  0  0  0
  5  6  2  0  0  0  0
  5  8  1  0  0  0  0
  7  3  1  0  0  0  0
  9  2  1  0  0  0  0
 10  9  1  0  0  0  0
 11  9  1  0  0  0  0
 12 14  1  0  0  0  0
 14 13  2  6  0  0  0
 14 17  1  0  0  0  0
 15 14  1  0  0  0  0
 15 16  1  0  0  0  0
 17 18  1  0  0  0  0
 18 20  1  0  0  0  0
 18 19  2  0  0  0  0
 20 21  1  0  0  0  0
 20 22  1  0  0  0  0
M  END
>  <minimizedAffinity>
-3.93066597

$$$$

 OpenBabel03272504183D

 22 22  0  0  0  0  0  0  0  0999 V2000
   38.2790   25.5750   34.8310 C   0  0  0  0  0  0  0  0  0  0  0  0
   37.8280   25.2970   33.5490 C   0  0  0  0  0  0  0  0  0  0  0  0
   37.0160   26.2260   32.9150 C   0  0  0  0  0  0  0  0  0  0  0  0
   36.6770   27.3810   33.5530 N   0  0  0  0  0  0  0  0  0  0  0  0
   37.1430   27.6180   34.8210 C   0  0  0  0  0  0  0  0  0  0  0  0
   37.9420   26.7130   35.4540 N   0  0  0  0  0  0  0  0  0  0  0  0
   36.7020   25.9570   31.9320 H   0  0  0  0  0  0  0  0  0  0  0  0
   36.8340   28.5530   35.2630 H   0  0  0  0  0  0  0  0  0  0  0  0
   38.2610   24.0670   33.0240 N   0  0  0  0  0  0  0  0  0  0  0  0
   37.4780   23.3810   33.0780 H   0  0  0  0  0  0  0  0  0  0  0  0
   39.1660   23.7460   32.6190 H   0  0  0  0  0  0  0  0  0  0  0  0
   39.0890   24.7740   35.6130 O   0  0  0  0  0  0  0  0  0  0  0  0
   37.2230   23.9120   37.3420 O   0  0  0  0  0  0  0  0  0  0  0  0
   38.4420   23.4890   36.5800 P   0  0  1  0  0  0  0  0  0  0  0  0
   38.0980   22.2210   35.5240 O   0  0  0  0  0  0  0  0  0  0  0  0
   38.6360   21.4200   35.7710 H   0  0  0  0  0  0  0  0  0  0  0  0
   39.6090   23.0480   37.7200 O   0  0  0  0  0  0  0  0  0  0  0  0
   40.8020   22.4140   37.4390 C   0  0  0  0  0  0  0  0  0  0  0  0
   41.6380   23.0690   36.7620 O   0  0  0  0  0  0  0  0  0  0  0  0
   41.1560   21.0970   37.8520 N   0  0  0  0  0  0  0  0  0  0  0  0
   41.2580   20.4300   38.6300 H   0  0  0  0  0  0  0  0  0  0  0  0
   41.4590   20.4850   37.0380 H   0  0  0  0  0  0  0  0  0  0  0  0
  1  6  1  0  0  0  0
  1 12  1  0  0  0  0
  2  1  2  0  0  0  0
  3  2  1  0  0  0  0
  3  4  2  0  0  0  0
  4  5  1  0  0  0  0
  5  8  1  0  0  0  0
  5  6  2  0  0  0  0
  7  3  1  0  0  0  0
  9 10  1  0  0  0  0
  9  2  1  0  0  0  0
 11  9  1  0  0  0  0
 12 14  1  0  0  0  0
 14 13  2  1  0  0  0
 14 17  1  0  0  0  0
 15 16  1  0  0  0  0
 15 14  1  0  0  0  0
 18 17  1  0  0  0  0
 18 20  1  0  0  0  0
 19 18  2  0  0  0  0
 20 21  1  0  0  0  0
 22 20  1  0  0  0  0
M  END
>  <minimizedAffinity>
-3.92934966

$$$$

 OpenBabel03272504183D

 22 22  0  0  0  0  0  0  0  0999 V2000
   37.1720   25.4220   33.1690 C   0  0  0  0  0  0  0  0  0  0  0  0
   36.5070   25.0830   32.0000 C   0  0  0  0  0  0  0  0  0  0  0  0
   35.8780   26.0880   31.2790 C   0  0  0  0  0  0  0  0  0  0  0  0
   35.9210   27.3740   31.7250 N   0  0  0  0  0  0  0  0  0  0  0  0
   36.5890   27.6680   32.8860 C   0  0  0  0  0  0  0  0  0  0  0  0
   37.2120   26.6900   33.6030 N   0  0  0  0  0  0  0  0  0  0  0  0
   35.3840   25.7660   30.3900 H   0  0  0  0  0  0  0  0  0  0  0  0
   36.5820   28.7080   33.1770 H   0  0  0  0  0  0  0  0  0  0  0  0
   36.5490   23.7170   31.6700 N   0  0  0  0  0  0  0  0  0  0  0  0
   35.6340   23.2820   31.9120 H   0  0  0  0  0  0  0  0  0  0  0  0
   37.2860   23.1090   31.2560 H   0  0  0  0  0  0  0  0  0  0  0  0
   37.8500   24.5630   34.0120 O   0  0  0  0  0  0  0  0  0  0  0  0
   40.1250   25.8550   34.6220 O   0  0  0  0  0  0  0  0  0  0  0  0
   38.9470   25.1470   35.2200 P   0  0  1  0  0  0  0  0  0  0  0  0
   38.0580   26.1710   36.2210 O   0  0  0  0  0  0  0  0  0  0  0  0
   38.0590   25.8180   37.1520 H   0  0  0  0  0  0  0  0  0  0  0  0
   39.5510   23.8180   36.0710 O   0  0  0  0  0  0  0  0  0  0  0  0
   38.9950   23.2800   37.2140 C   0  0  0  0  0  0  0  0  0  0  0  0
   37.7650   23.4820   37.3870 O   0  0  0  0  0  0  0  0  0  0  0  0
   39.6960   22.5240   38.1980 N   0  0  0  0  0  0  0  0  0  0  0  0
   40.3060   21.7200   38.4020 H   0  0  0  0  0  0  0  0  0  0  0  0
   39.5700   22.9170   39.1770 H   0  0  0  0  0  0  0  0  0  0  0  0
  1  6  1  0  0  0  0
  1 12  1  0  0  0  0
  2  1  2  0  0  0  0
  3  4  2  0  0  0  0
  3  2  1  0  0  0  0
  4  5  1  0  0  0  0
  5  8  1  0  0  0  0
  5  6  2  0  0  0  0
  7  3  1  0  0  0  0
  9 10  1  0  0  0  0
  9  2  1  0  0  0  0
 11  9  1  0  0  0  0
 12 14  1  0  0  0  0
 14 13  2  6  0  0  0
 14 17  1  0  0  0  0
 14 15  1  0  0  0  0
 15 16  1  0  0  0  0
 17 18  1  0  0  0  0
 18 19  2  0  0  0  0
 18 20  1  0  0  0  0
 20 21  1  0  0  0  0
 20 22  1  0  0  0  0
M  END
>  <minimizedAffinity>
-3.87842131

$$$$

 OpenBabel03272504183D

 22 22  0  0  0  0  0  0  0  0999 V2000
   38.4040   25.6560   35.0010 C   0  0  0  0  0  0  0  0  0  0  0  0
   38.0220   26.9600   35.2830 C   0  0  0  0  0  0  0  0  0  0  0  0
   37.1830   27.6120   34.3910 C   0  0  0  0  0  0  0  0  0  0  0  0
   36.7530   26.9710   33.2690 N   0  0  0  0  0  0  0  0  0  0  0  0
   37.1530   25.6820   33.0270 C   0  0  0  0  0  0  0  0  0  0  0  0
   37.9770   25.0300   33.8950 N   0  0  0  0  0  0  0  0  0  0  0  0
   36.9240   28.6110   34.6610 H   0  0  0  0  0  0  0  0  0  0  0  0
   36.7720   25.2380   32.1190 H   0  0  0  0  0  0  0  0  0  0  0  0
   38.5470   27.4850   36.4760 N   0  0  0  0  0  0  0  0  0  0  0  0
   39.3340   28.1280   36.2450 H   0  0  0  0  0  0  0  0  0  0  0  0
   38.3020   27.3510   37.4790 H   0  0  0  0  0  0  0  0  0  0  0  0
   39.2290   24.8540   35.7670 O   0  0  0  0  0  0  0  0  0  0  0  0
   39.6450   22.9180   37.5820 O   0  0  0  0  0  0  0  0  0  0  0  0
   38.6050   23.8450   37.0300 P   0  0  1  0  0  0  0  0  0  0  0  0
   38.0090   24.8780   38.2200 O   0  0  0  0  0  0  0  0  0  0  0  0
   37.0320   24.7260   38.3430 H   0  0  0  0  0  0  0  0  0  0  0  0
   37.3810   22.8790   36.3770 O   0  0  0  0  0  0  0  0  0  0  0  0
   37.5300   22.0060   35.3180 C   0  0  0  0  0  0  0  0  0  0  0  0
   36.5670   21.2280   35.0940 O   0  0  0  0  0  0  0  0  0  0  0  0
   38.6730   21.9210   34.4710 N   0  0  0  0  0  0  0  0  0  0  0  0
   39.3310   22.4130   33.8500 H   0  0  0  0  0  0  0  0  0  0  0  0
   39.0640   20.9350   34.4160 H   0  0  0  0  0  0  0  0  0  0  0  0
  1  2  1  0  0  0  0
  1 12  1  0  0  0  0
  2  9  1  0  0  0  0
  3  7  1  0  0  0  0
  3  2  2  0  0  0  0
  4  3  1  0  0  0  0
  5  4  2  0  0  0  0
  5  6  1  0  0  0  0
  6  1  2  0  0  0  0
  8  5  1  0  0  0  0
  9 11  1  0  0  0  0
 10  9  1  0  0  0  0
 12 14  1  0  0  0  0
 14 13  2  1  0  0  0
 14 15  1  0  0  0  0
 15 16  1  0  0  0  0
 17 14  1  0  0  0  0
 18 17  1  0  0  0  0
 19 18  2  0  0  0  0
 20 18  1  0  0  0  0
 21 20  1  0  0  0  0
 22 20  1  0  0  0  0
M  END
>  <minimizedAffinity>
-3.84766626

$$$$
