
 OpenBabel03272504383D

 38 39  0  0  0  0  0  0  0  0999 V2000
   37.6400   30.4390   48.5180 Cl  0  0  0  0  0  0  0  0  0  0  0  0
   36.4710   30.2900   47.2040 C   0  0  0  0  0  0  0  0  0  0  0  0
   36.8250   30.6900   45.9470 C   0  0  0  0  0  0  0  0  0  0  0  0
   35.9280   30.5790   44.9210 C   0  0  0  0  0  0  0  0  0  0  0  0
   34.6750   30.0590   45.1830 C   0  0  0  0  0  0  0  0  0  0  0  0
   34.3630   29.6650   46.4840 C   0  0  0  0  0  0  0  0  0  0  0  0
   35.2410   29.7680   47.5190 C   0  0  0  0  0  0  0  0  0  0  0  0
   36.2490   30.9110   43.9270 H   0  0  0  0  0  0  0  0  0  0  0  0
   34.0450   30.0170   44.2990 H   0  0  0  0  0  0  0  0  0  0  0  0
   33.3940   29.3080   46.4750 H   0  0  0  0  0  0  0  0  0  0  0  0
   39.8240   32.8530   45.9830 C   0  0  0  0  0  0  0  0  0  0  0  0
   40.6890   32.1180   45.1000 C   0  0  0  0  0  0  0  0  0  0  0  0
   40.2050   30.9260   44.5390 C   0  0  0  0  0  0  0  0  0  0  0  0
   38.9470   30.5170   44.8490 N   0  0  0  0  0  0  0  0  0  0  0  0
   38.1540   31.2360   45.6900 C   0  0  0  0  0  0  0  0  0  0  0  0
   38.5980   32.3770   46.2360 N   0  0  0  0  0  0  0  0  0  0  0  0
   40.1670   33.7640   46.4240 H   0  0  0  0  0  0  0  0  0  0  0  0
   41.6570   32.5610   44.9440 H   0  0  0  0  0  0  0  0  0  0  0  0
   41.0670   30.2350   43.6890 N   0  0  0  0  0  0  0  0  0  0  0  0
   41.0710   29.1900   43.7570 H   0  0  0  0  0  0  0  0  0  0  0  0
   41.7090   30.6230   42.9960 H   0  0  0  0  0  0  0  0  0  0  0  0
   34.8990   29.3680   48.8670 C   0  0  0  0  0  0  0  0  0  0  0  0
   35.8280   29.3450   49.4800 H   0  0  0  0  0  0  0  0  0  0  0  0
   34.3150   30.2300   49.3100 H   0  0  0  0  0  0  0  0  0  0  0  0
   34.1480   28.1470   49.0840 C   0  0  0  0  0  0  0  0  0  0  0  0
   34.5740   27.5180   49.9180 H   0  0  0  0  0  0  0  0  0  0  0  0
   34.1840   27.4480   48.2050 H   0  0  0  0  0  0  0  0  0  0  0  0
   32.8430   28.3890   49.4280 O   0  0  0  0  0  0  0  0  0  0  0  0
   32.5160   26.5270   47.5980 O   0  0  0  0  0  0  0  0  0  0  0  0
   31.7940   27.5850   48.3950 P   0  0  2  0  0  0  0  0  0  0  0  0
   31.1150   28.7870   47.3760 O   0  0  0  0  0  0  0  0  0  0  0  0
   30.8920   28.4020   46.4910 H   0  0  0  0  0  0  0  0  0  0  0  0
   30.5240   26.8640   49.2030 O   0  0  0  0  0  0  0  0  0  0  0  0
   29.6970   27.5410   50.0900 C   0  0  0  0  0  0  0  0  0  0  0  0
   28.9660   26.8150   50.7930 O   0  0  0  0  0  0  0  0  0  0  0  0
   29.6480   28.9390   50.2250 N   0  0  0  0  0  0  0  0  0  0  0  0
   30.0120   29.8070   50.6650 H   0  0  0  0  0  0  0  0  0  0  0  0
   28.8690   29.1590   49.5480 H   0  0  0  0  0  0  0  0  0  0  0  0
  2  7  1  0  0  0  0
  2  1  1  0  0  0  0
  3  2  2  0  0  0  0
  4  5  2  0  0  0  0
  4  3  1  0  0  0  0
  5  6  1  0  0  0  0
  6  7  2  0  0  0  0
  7 22  1  0  0  0  0
  8  4  1  0  0  0  0
  9  5  1  0  0  0  0
 10  6  1  0  0  0  0
 11 16  1  0  0  0  0
 11 17  1  0  0  0  0
 12 11  2  0  0  0  0
 13 14  2  0  0  0  0
 13 12  1  0  0  0  0
 14 15  1  0  0  0  0
 15  3  1  0  0  0  0
 15 16  2  0  0  0  0
 18 12  1  0  0  0  0
 19 20  1  0  0  0  0
 19 13  1  0  0  0  0
 21 19  1  0  0  0  0
 22 25  1  0  0  0  0
 22 24  1  0  0  0  0
 22 23  1  0  0  0  0
 25 28  1  0  0  0  0
 25 26  1  0  0  0  0
 27 25  1  0  0  0  0
 30 29  2  6  0  0  0
 30 33  1  0  0  0  0
 30 28  1  0  0  0  0
 31 30  1  0  0  0  0
 32 31  1  0  0  0  0
 33 34  1  0  0  0  0
 34 36  1  0  0  0  0
 34 35  2  0  0  0  0
 36 37  1  0  0  0  0
 38 36  1  0  0  0  0
M  END
>  <minimizedAffinity>
-6.00638056

>  <minimizedRMSD>
0.468624741

$$$$
