
 OpenBabel03262521013D

 33 34  0  0  1  0  0  0  0  0999 V2000
   39.6200   32.9080   44.8740 N   0  0  0  0  0  0  0  0  0  0  0  0
   38.2430   32.5220   44.8240 C   0  0  1  0  0  0  0  0  0  0  0  0
   37.8440   32.2270   43.4050 C   0  0  0  0  0  0  0  0  0  0  0  0
   38.7030   31.1470   42.9270 N   0  0  0  0  0  0  0  0  0  0  0  0
   40.0360   31.7690   42.8070 C   0  0  0  0  0  0  0  0  0  0  0  0
   40.5120   31.9950   44.2400 C   0  0  2  0  0  0  0  0  0  0  0  0
   39.9480   33.3180   45.7500 H   0  0  0  0  0  0  0  0  0  0  0  0
   37.6170   33.3200   45.2360 H   0  0  0  0  0  0  0  0  0  0  0  0
   37.9210   33.1000   42.7380 H   0  0  0  0  0  0  0  0  0  0  0  0
   36.7880   31.8520   43.4430 H   0  0  0  0  0  0  0  0  0  0  0  0
   38.7190   30.3800   43.6200 H   0  0  0  0  0  0  0  0  0  0  0  0
   39.8950   32.7380   42.2980 H   0  0  0  0  0  0  0  0  0  0  0  0
   40.7410   31.1240   42.2780 H   0  0  0  0  0  0  0  0  0  0  0  0
   41.5040   32.4910   44.1660 H   0  0  0  0  0  0  0  0  0  0  0  0
   40.6080   30.7100   44.9000 N   0  0  0  0  0  0  0  0  0  0  0  0
   40.7080   30.8940   45.9390 H   0  0  0  0  0  0  0  0  0  0  0  0
   41.5490   30.3070   44.6160 H   0  0  0  0  0  0  0  0  0  0  0  0
   37.9260   30.9810   45.7740 S   0  0  0  0  0  0  0  0  0  0  0  0
   37.8300   32.6330   49.4670 C   0  0  0  0  0  0  0  0  0  0  0  0
   38.1670   32.4200   48.1450 C   0  0  0  0  0  0  0  0  0  0  0  0
   37.5930   31.3790   47.4720 C   0  0  0  0  0  0  0  0  0  0  0  0
   36.6890   30.5720   48.1450 N   0  0  0  0  0  0  0  0  0  0  0  0
   36.4080   30.8330   49.4230 C   0  0  0  0  0  0  0  0  0  0  0  0
   36.9540   31.8430   50.1020 N   0  0  0  0  0  0  0  0  0  0  0  0
   38.2700   33.4540   50.0290 H   0  0  0  0  0  0  0  0  0  0  0  0
   38.8700   33.0530   47.6310 H   0  0  0  0  0  0  0  0  0  0  0  0
   35.4510   29.9690   50.1190 C   0  0  0  0  0  0  0  0  0  0  0  0
   35.7230   29.3290   51.1650 O   0  0  0  0  0  0  0  0  0  0  0  0
   32.5680   28.5110   48.7730 H   0  0  0  0  0  0  0  0  0  0  0  0
   33.5800   28.6000   49.1770 C   0  0  0  0  0  0  0  0  0  0  0  0
   34.2690   27.5530   49.2700 O   0  0  0  0  0  0  0  0  0  0  0  0
   34.1250   29.8380   49.5870 N   0  0  0  0  0  0  0  0  0  0  0  0
   33.5510   30.7180   49.5110 H   0  0  0  0  0  0  0  0  0  0  0  0
  1  7  1  0  0  0  0
  2  1  1  0  0  0  0
  2  8  1  1  0  0  0
  2 18  1  0  0  0  0
  3 10  1  0  0  0  0
  3  2  1  0  0  0  0
  4  3  1  0  0  0  0
  4 11  1  0  0  0  0
  5  4  1  0  0  0  0
  5  6  1  0  0  0  0
  6 14  1  6  0  0  0
  6  1  1  0  0  0  0
  6 15  1  0  0  0  0
  9  3  1  0  0  0  0
 12  5  1  0  0  0  0
 13  5  1  0  0  0  0
 15 16  1  0  0  0  0
 17 15  1  0  0  0  0
 18 21  1  0  0  0  0
 19 25  1  0  0  0  0
 19 24  1  0  0  0  0
 20 19  2  0  0  0  0
 21 20  1  0  0  0  0
 21 22  2  0  0  0  0
 22 23  1  0  0  0  0
 23 24  2  0  0  0  0
 23 27  1  0  0  0  0
 26 20  1  0  0  0  0
 27 28  2  0  0  0  0
 29 30  1  0  0  0  0
 30 31  2  0  0  0  0
 30 32  1  0  0  0  0
 32 27  1  0  0  0  0
 33 32  1  0  0  0  0
M  END
>  <minimizedAffinity>
-5.73069668

>  <minimizedRMSD>
1.67210829

$$$$
