
 OpenBabel03262521013D

 33 34  0  0  1  0  0  0  0  0999 V2000
   39.6460   33.0880   45.8280 N   0  0  0  0  0  0  0  0  0  0  0  0
   38.3610   32.4630   45.7440 C   0  0  1  0  0  0  0  0  0  0  0  0
   37.8650   32.4970   44.3260 C   0  0  0  0  0  0  0  0  0  0  0  0
   38.8430   31.7870   43.5050 N   0  0  0  0  0  0  0  0  0  0  0  0
   40.0230   32.6730   43.4980 C   0  0  0  0  0  0  0  0  0  0  0  0
   40.6080   32.5850   44.9050 C   0  0  2  0  0  0  0  0  0  0  0  0
   39.9920   33.2980   46.7660 H   0  0  0  0  0  0  0  0  0  0  0  0
   37.6550   32.9730   46.4060 H   0  0  0  0  0  0  0  0  0  0  0  0
   37.7120   33.5170   43.9410 H   0  0  0  0  0  0  0  0  0  0  0  0
   36.9030   31.9210   44.3120 H   0  0  0  0  0  0  0  0  0  0  0  0
   39.0710   30.8780   43.9420 H   0  0  0  0  0  0  0  0  0  0  0  0
   39.6570   33.6960   43.3040 H   0  0  0  0  0  0  0  0  0  0  0  0
   40.7670   32.3550   42.7650 H   0  0  0  0  0  0  0  0  0  0  0  0
   41.4830   33.2720   44.9250 H   0  0  0  0  0  0  0  0  0  0  0  0
   41.0040   31.2150   45.1540 N   0  0  0  0  0  0  0  0  0  0  0  0
   41.1850   31.1210   46.1950 H   0  0  0  0  0  0  0  0  0  0  0  0
   41.9630   31.1040   44.7130 H   0  0  0  0  0  0  0  0  0  0  0  0
   38.4300   30.6880   46.2180 S   0  0  0  0  0  0  0  0  0  0  0  0
   38.0400   30.9110   50.2410 C   0  0  0  0  0  0  0  0  0  0  0  0
   38.5170   31.1380   48.9650 C   0  0  0  0  0  0  0  0  0  0  0  0
   37.9280   30.4980   47.9120 C   0  0  0  0  0  0  0  0  0  0  0  0
   36.8690   29.6400   48.1640 N   0  0  0  0  0  0  0  0  0  0  0  0
   36.4570   29.4670   49.4210 C   0  0  0  0  0  0  0  0  0  0  0  0
   37.0140   30.0800   50.4670 N   0  0  0  0  0  0  0  0  0  0  0  0
   38.4870   31.4060   51.0990 H   0  0  0  0  0  0  0  0  0  0  0  0
   39.3400   31.8060   48.7790 H   0  0  0  0  0  0  0  0  0  0  0  0
   35.3360   28.5560   49.6700 C   0  0  0  0  0  0  0  0  0  0  0  0
   35.1210   27.5170   48.9980 O   0  0  0  0  0  0  0  0  0  0  0  0
   32.9720   30.2650   51.6040 H   0  0  0  0  0  0  0  0  0  0  0  0
   33.6630   30.0470   50.7860 C   0  0  0  0  0  0  0  0  0  0  0  0
   33.7720   30.8970   49.8660 O   0  0  0  0  0  0  0  0  0  0  0  0
   34.4250   28.8570   50.7360 N   0  0  0  0  0  0  0  0  0  0  0  0
   34.3370   28.1420   51.5050 H   0  0  0  0  0  0  0  0  0  0  0  0
  1  7  1  0  0  0  0
  2  1  1  0  0  0  0
  2 18  1  0  0  0  0
  2  8  1  1  0  0  0
  3  2  1  0  0  0  0
  4 11  1  0  0  0  0
  4  3  1  0  0  0  0
  5  4  1  0  0  0  0
  5  6  1  0  0  0  0
  6 14  1  1  0  0  0
  6 15  1  0  0  0  0
  6  1  1  0  0  0  0
  9  3  1  0  0  0  0
 10  3  1  0  0  0  0
 12  5  1  0  0  0  0
 13  5  1  0  0  0  0
 15 16  1  0  0  0  0
 17 15  1  0  0  0  0
 18 21  1  0  0  0  0
 19 24  1  0  0  0  0
 19 25  1  0  0  0  0
 20 19  2  0  0  0  0
 21 22  2  0  0  0  0
 21 20  1  0  0  0  0
 22 23  1  0  0  0  0
 23 27  1  0  0  0  0
 23 24  2  0  0  0  0
 26 20  1  0  0  0  0
 27 32  1  0  0  0  0
 28 27  2  0  0  0  0
 30 29  1  0  0  0  0
 31 30  2  0  0  0  0
 32 30  1  0  0  0  0
 32 33  1  0  0  0  0
M  END
>  <minimizedAffinity>
-3.94322371

>  <minimizedRMSD>
0.621912599

$$$$
