
 OpenBabel03272510243D

 28 30  0  0  0  0  0  0  0  0999 V2000
   35.2330   29.8480   47.0710 C   0  0  0  0  0  0  0  0  0  0  0  0
   36.4310   30.3150   47.5700 C   0  0  0  0  0  0  0  0  0  0  0  0
   37.3530   30.8830   46.7210 C   0  0  0  0  0  0  0  0  0  0  0  0
   37.0240   30.9590   45.3710 C   0  0  0  0  0  0  0  0  0  0  0  0
   37.7830   31.4800   44.3470 N   0  0  0  0  0  0  0  0  0  0  0  0
   37.0560   31.3320   43.2440 C   0  0  0  0  0  0  0  0  0  0  0  0
   35.8850   30.7500   43.5040 N   0  0  0  0  0  0  0  0  0  0  0  0
   35.8420   30.5050   44.8360 C   0  0  0  0  0  0  0  0  0  0  0  0
   34.9290   29.9370   45.7130 C   0  0  0  0  0  0  0  0  0  0  0  0
   34.4690   29.3970   47.6610 H   0  0  0  0  0  0  0  0  0  0  0  0
   38.2850   31.2480   47.0990 H   0  0  0  0  0  0  0  0  0  0  0  0
   38.7490   31.9030   44.4800 H   0  0  0  0  0  0  0  0  0  0  0  0
   34.0040   29.5820   45.2940 H   0  0  0  0  0  0  0  0  0  0  0  0
   37.8930   30.5110   51.0260 C   0  0  0  0  0  0  0  0  0  0  0  0
   37.7810   30.7050   49.6520 C   0  0  0  0  0  0  0  0  0  0  0  0
   36.6690   30.1840   48.9960 C   0  0  0  0  0  0  0  0  0  0  0  0
   35.7380   29.5030   49.7330 N   0  0  0  0  0  0  0  0  0  0  0  0
   35.8760   29.3300   51.0730 C   0  0  0  0  0  0  0  0  0  0  0  0
   36.9330   29.8250   51.7010 N   0  0  0  0  0  0  0  0  0  0  0  0
   38.7520   30.9150   51.5260 H   0  0  0  0  0  0  0  0  0  0  0  0
   38.5130   31.2400   49.0730 H   0  0  0  0  0  0  0  0  0  0  0  0
   35.1120   28.7870   51.5990 H   0  0  0  0  0  0  0  0  0  0  0  0
   37.5620   31.7720   42.0230 O   0  0  0  0  0  0  0  0  0  0  0  0
   37.8430   33.0660   41.6930 C   0  0  0  0  0  0  0  0  0  0  0  0
   38.8190   33.8630   41.5190 O   0  0  0  0  0  0  0  0  0  0  0  0
   36.6180   33.7870   41.4580 N   0  0  0  0  0  0  0  0  0  0  0  0
   35.8040   34.4040   41.5330 H   0  0  0  0  0  0  0  0  0  0  0  0
   36.1920   33.5380   40.5360 H   0  0  0  0  0  0  0  0  0  0  0  0
  1  2  1  0  0  0  0
  1 10  1  0  0  0  0
  2 16  1  0  0  0  0
  3 11  1  0  0  0  0
  3  2  2  0  0  0  0
  4  3  1  0  0  0  0
  5 12  1  0  0  0  0
  5  4  1  0  0  0  0
  6  7  2  0  0  0  0
  6  5  1  0  0  0  0
  7  8  1  0  0  0  0
  8  4  2  0  0  0  0
  8  9  1  0  0  0  0
  9  1  2  0  0  0  0
 13  9  1  0  0  0  0
 14 20  1  0  0  0  0
 14 19  1  0  0  0  0
 15 14  2  0  0  0  0
 16 15  1  0  0  0  0
 16 17  2  0  0  0  0
 17 18  1  0  0  0  0
 18 22  1  0  0  0  0
 18 19  2  0  0  0  0
 21 15  1  0  0  0  0
 23  6  1  0  0  0  0
 24 23  1  0  0  0  0
 25 24  2  0  0  0  0
 26 27  1  0  0  0  0
 26 24  1  0  0  0  0
 28 26  1  0  0  0  0
M  END
>  <minimizedAffinity>
-4.66684961

>  <minimizedRMSD>
2.76721978

$$$$
