
 OpenBabel03272504163D

 22 22  0  0  0  0  0  0  0  0999 V2000
   35.9660   30.7640   49.4680 C   0  0  0  0  0  0  0  0  0  0  0  0
   36.1770   29.9210   50.5490 C   0  0  0  0  0  0  0  0  0  0  0  0
   37.4150   29.9430   51.1750 C   0  0  0  0  0  0  0  0  0  0  0  0
   38.3900   30.7800   50.7250 N   0  0  0  0  0  0  0  0  0  0  0  0
   38.1410   31.5980   49.6530 C   0  0  0  0  0  0  0  0  0  0  0  0
   36.9290   31.5860   49.0290 N   0  0  0  0  0  0  0  0  0  0  0  0
   37.5180   29.2730   51.9990 H   0  0  0  0  0  0  0  0  0  0  0  0
   38.9600   32.2340   49.3520 H   0  0  0  0  0  0  0  0  0  0  0  0
   35.0780   29.1160   50.8950 N   0  0  0  0  0  0  0  0  0  0  0  0
   35.2430   28.1490   50.5460 H   0  0  0  0  0  0  0  0  0  0  0  0
   34.1900   29.3080   51.4050 H   0  0  0  0  0  0  0  0  0  0  0  0
   34.8060   30.8790   48.7250 O   0  0  0  0  0  0  0  0  0  0  0  0
   35.6410   30.0820   46.3000 O   0  0  0  0  0  0  0  0  0  0  0  0
   34.5370   29.9280   47.3010 P   0  0  1  0  0  0  0  0  0  0  0  0
   34.3900   28.3290   47.8130 O   0  0  0  0  0  0  0  0  0  0  0  0
   33.4900   27.9770   47.5720 H   0  0  0  0  0  0  0  0  0  0  0  0
   33.1200   30.4760   46.5610 O   0  0  0  0  0  0  0  0  0  0  0  0
   32.1010   29.6720   46.0900 C   0  0  0  0  0  0  0  0  0  0  0  0
   32.2130   29.2640   44.9040 O   0  0  0  0  0  0  0  0  0  0  0  0
   30.9520   29.2730   46.8310 N   0  0  0  0  0  0  0  0  0  0  0  0
   30.5810   28.8360   47.6870 H   0  0  0  0  0  0  0  0  0  0  0  0
   30.0450   29.5010   46.3280 H   0  0  0  0  0  0  0  0  0  0  0  0
  1  2  1  0  0  0  0
  2  9  1  0  0  0  0
  2  3  2  0  0  0  0
  3  7  1  0  0  0  0
  4  3  1  0  0  0  0
  5  4  2  0  0  0  0
  6  1  2  0  0  0  0
  6  5  1  0  0  0  0
  8  5  1  0  0  0  0
  9 11  1  0  0  0  0
 10  9  1  0  0  0  0
 12  1  1  0  0  0  0
 14 13  2  6  0  0  0
 14 15  1  0  0  0  0
 14 12  1  0  0  0  0
 16 15  1  0  0  0  0
 17 14  1  0  0  0  0
 18 17  1  0  0  0  0
 18 20  1  0  0  0  0
 19 18  2  0  0  0  0
 20 21  1  0  0  0  0
 22 20  1  0  0  0  0
M  END
>  <minimizedAffinity>
-3.81208754

>  <minimizedRMSD>
0.890099406

$$$$
