
 OpenBabel03262521013D

 33 34  0  0  1  0  0  0  0  0999 V2000
   39.4400   33.1240   45.1910 N   0  0  0  0  0  0  0  0  0  0  0  0
   38.1630   32.4810   45.1630 C   0  0  1  0  0  0  0  0  0  0  0  0
   37.6820   32.3550   43.7450 C   0  0  0  0  0  0  0  0  0  0  0  0
   38.6750   31.5690   43.0170 N   0  0  0  0  0  0  0  0  0  0  0  0
   39.8470   32.4610   42.9240 C   0  0  0  0  0  0  0  0  0  0  0  0
   40.4170   32.5330   44.3380 C   0  0  2  0  0  0  0  0  0  0  0  0
   39.7740   33.4390   46.1030 H   0  0  0  0  0  0  0  0  0  0  0  0
   37.4440   33.0530   45.7580 H   0  0  0  0  0  0  0  0  0  0  0  0
   37.5240   33.3240   43.2490 H   0  0  0  0  0  0  0  0  0  0  0  0
   36.7260   31.7710   43.7850 H   0  0  0  0  0  0  0  0  0  0  0  0
   38.9060   30.7150   43.5520 H   0  0  0  0  0  0  0  0  0  0  0  0
   39.4740   33.4530   42.6160 H   0  0  0  0  0  0  0  0  0  0  0  0
   40.6020   32.0720   42.2380 H   0  0  0  0  0  0  0  0  0  0  0  0
   41.2860   33.2270   44.2910 H   0  0  0  0  0  0  0  0  0  0  0  0
   40.8220   31.2030   44.7400 N   0  0  0  0  0  0  0  0  0  0  0  0
   40.9930   31.2250   45.7860 H   0  0  0  0  0  0  0  0  0  0  0  0
   41.7880   31.0530   44.3230 H   0  0  0  0  0  0  0  0  0  0  0  0
   38.2420   30.7690   45.8290 S   0  0  0  0  0  0  0  0  0  0  0  0
   38.2190   31.5750   49.7960 C   0  0  0  0  0  0  0  0  0  0  0  0
   38.5350   31.6520   48.4530 C   0  0  0  0  0  0  0  0  0  0  0  0
   37.9370   30.7900   47.5790 C   0  0  0  0  0  0  0  0  0  0  0  0
   37.0310   29.8640   48.0740 N   0  0  0  0  0  0  0  0  0  0  0  0
   36.7710   29.8430   49.3820 C   0  0  0  0  0  0  0  0  0  0  0  0
   37.3400   30.6740   50.2570 N   0  0  0  0  0  0  0  0  0  0  0  0
   38.6770   32.2480   50.5160 H   0  0  0  0  0  0  0  0  0  0  0  0
   39.2390   32.3750   48.0790 H   0  0  0  0  0  0  0  0  0  0  0  0
   35.8110   28.8580   49.8880 C   0  0  0  0  0  0  0  0  0  0  0  0
   35.4950   27.8120   49.2670 O   0  0  0  0  0  0  0  0  0  0  0  0
   33.5120   29.9630   52.2830 H   0  0  0  0  0  0  0  0  0  0  0  0
   33.9770   29.7940   51.3080 C   0  0  0  0  0  0  0  0  0  0  0  0
   33.3940   30.2540   50.2930 O   0  0  0  0  0  0  0  0  0  0  0  0
   35.1910   29.0880   51.1600 N   0  0  0  0  0  0  0  0  0  0  0  0
   35.6830   28.7000   52.0080 H   0  0  0  0  0  0  0  0  0  0  0  0
  1  7  1  0  0  0  0
  2  1  1  0  0  0  0
  2  8  1  1  0  0  0
  2 18  1  0  0  0  0
  3 10  1  0  0  0  0
  3  2  1  0  0  0  0
  4 11  1  0  0  0  0
  4  3  1  0  0  0  0
  5  4  1  0  0  0  0
  5  6  1  0  0  0  0
  6 14  1  6  0  0  0
  6 15  1  0  0  0  0
  6  1  1  0  0  0  0
  9  3  1  0  0  0  0
 12  5  1  0  0  0  0
 13  5  1  0  0  0  0
 15 16  1  0  0  0  0
 17 15  1  0  0  0  0
 18 21  1  0  0  0  0
 19 24  1  0  0  0  0
 19 25  1  0  0  0  0
 20 19  2  0  0  0  0
 21 22  2  0  0  0  0
 21 20  1  0  0  0  0
 22 23  1  0  0  0  0
 23 27  1  0  0  0  0
 23 24  2  0  0  0  0
 26 20  1  0  0  0  0
 27 32  1  0  0  0  0
 28 27  2  0  0  0  0
 30 29  1  0  0  0  0
 31 30  2  0  0  0  0
 32 30  1  0  0  0  0
 32 33  1  0  0  0  0
M  END
>  <minimizedAffinity>
-3.9849968

>  <minimizedRMSD>
0.975510776

$$$$
