
 OpenBabel03272508513D

 25 26  0  0  1  0  0  0  0  0999 V2000
   38.1580   30.7050   46.5280 C   0  0  2  0  0  0  0  0  0  0  0  0
   36.7430   30.5860   46.8620 C   0  0  0  0  0  0  0  0  0  0  0  0
   37.7320   31.3600   47.7540 C   0  0  1  0  0  0  0  0  0  0  0  0
   38.8340   29.7900   46.6560 H   0  0  0  0  0  0  0  0  0  0  0  0
   35.9980   31.2100   46.3340 H   0  0  0  0  0  0  0  0  0  0  0  0
   36.3420   29.6910   47.3260 H   0  0  0  0  0  0  0  0  0  0  0  0
   37.4710   32.4030   47.8570 H   0  0  0  0  0  0  0  0  0  0  0  0
   40.4010   32.6590   44.3140 C   0  0  0  0  0  0  0  0  0  0  0  0
   39.5090   33.0500   43.2830 C   0  0  0  0  0  0  0  0  0  0  0  0
   38.1610   32.6320   43.3720 C   0  0  0  0  0  0  0  0  0  0  0  0
   37.7890   31.8740   44.4460 N   0  0  0  0  0  0  0  0  0  0  0  0
   38.6680   31.5290   45.3950 C   0  0  0  0  0  0  0  0  0  0  0  0
   39.9690   31.9010   45.3610 N   0  0  0  0  0  0  0  0  0  0  0  0
   41.4360   33.0040   44.2150 H   0  0  0  0  0  0  0  0  0  0  0  0
   39.7650   33.6390   42.4390 H   0  0  0  0  0  0  0  0  0  0  0  0
   37.3980   32.8700   42.6500 H   0  0  0  0  0  0  0  0  0  0  0  0
   37.5910   31.3420   50.2180 C   0  0  0  0  0  0  0  0  0  0  0  0
   36.8850   32.3570   50.1880 O   0  0  0  0  0  0  0  0  0  0  0  0
   38.0530   30.6680   49.0110 N   0  0  0  0  0  0  0  0  0  0  0  0
   38.5860   29.7610   48.8470 H   0  0  0  0  0  0  0  0  0  0  0  0
   36.6810   28.4410   51.6620 H   0  0  0  0  0  0  0  0  0  0  0  0
   37.2690   29.3240   51.3570 C   0  0  0  0  0  0  0  0  0  0  0  0
   36.0830   29.2820   50.8720 O   0  0  0  0  0  0  0  0  0  0  0  0
   38.2460   30.4090   51.0900 N   0  0  0  0  0  0  0  0  0  0  0  0
   38.6830   29.7860   51.6720 H   0  0  0  0  0  0  0  0  0  0  0  0
  1  4  1  1  0  0  0
  1  2  1  0  0  0  0
  1  3  1  0  0  0  0
  2  6  1  0  0  0  0
  2  3  1  0  0  0  0
  3  7  1  1  0  0  0
  3 19  1  0  0  0  0
  5  2  1  0  0  0  0
  8 13  1  0  0  0  0
  9 10  1  0  0  0  0
  9  8  2  0  0  0  0
 10 11  2  0  0  0  0
 11 12  1  0  0  0  0
 12  1  1  0  0  0  0
 13 12  2  0  0  0  0
 14  8  1  0  0  0  0
 15  9  1  0  0  0  0
 16 10  1  0  0  0  0
 17 24  1  0  0  0  0
 18 17  2  0  0  0  0
 19 17  1  0  0  0  0
 20 19  1  0  0  0  0
 22 21  1  0  0  0  0
 23 22  2  0  0  0  0
 24 22  1  0  0  0  0
 24 25  1  0  0  0  0
M  END
>  <minimizedAffinity>
-4.85737181

>  <minimizedRMSD>
0.880829394

$$$$
