
 OpenBabel03272508513D

 25 26  0  0  1  0  0  0  0  0999 V2000
   37.2790   30.9120   46.0340 C   0  0  2  0  0  0  0  0  0  0  0  0
   38.2680   30.4750   45.0550 C   0  0  0  0  0  0  0  0  0  0  0  0
   37.3650   31.7010   44.8160 C   0  0  1  0  0  0  0  0  0  0  0  0
   36.3240   30.2950   46.1670 H   0  0  0  0  0  0  0  0  0  0  0  0
   39.3380   30.7030   45.2130 H   0  0  0  0  0  0  0  0  0  0  0  0
   38.0720   29.6480   44.3800 H   0  0  0  0  0  0  0  0  0  0  0  0
   37.9280   32.6140   44.6910 H   0  0  0  0  0  0  0  0  0  0  0  0
   37.3390   31.7570   49.6440 C   0  0  0  0  0  0  0  0  0  0  0  0
   38.3530   32.7490   49.6840 C   0  0  0  0  0  0  0  0  0  0  0  0
   38.9920   33.1010   48.4730 C   0  0  0  0  0  0  0  0  0  0  0  0
   38.5980   32.4680   47.3280 N   0  0  0  0  0  0  0  0  0  0  0  0
   37.6360   31.5370   47.3390 C   0  0  0  0  0  0  0  0  0  0  0  0
   36.9920   31.1620   48.4690 N   0  0  0  0  0  0  0  0  0  0  0  0
   36.8640   31.5120   50.6000 H   0  0  0  0  0  0  0  0  0  0  0  0
   38.6790   33.2600   50.5550 H   0  0  0  0  0  0  0  0  0  0  0  0
   39.7710   33.8390   48.3850 H   0  0  0  0  0  0  0  0  0  0  0  0
   36.3990   32.3210   42.6310 C   0  0  0  0  0  0  0  0  0  0  0  0
   37.3410   33.0980   42.4330 O   0  0  0  0  0  0  0  0  0  0  0  0
   36.3170   31.4690   43.8110 N   0  0  0  0  0  0  0  0  0  0  0  0
   35.6410   30.7000   44.1040 H   0  0  0  0  0  0  0  0  0  0  0  0
   33.2880   33.5840   42.3960 H   0  0  0  0  0  0  0  0  0  0  0  0
   34.1560   32.9080   42.3160 C   0  0  0  0  0  0  0  0  0  0  0  0
   34.4080   34.0280   42.8830 O   0  0  0  0  0  0  0  0  0  0  0  0
   35.1600   31.8370   42.0930 N   0  0  0  0  0  0  0  0  0  0  0  0
   34.3330   31.5140   41.7340 H   0  0  0  0  0  0  0  0  0  0  0  0
  1  4  1  1  0  0  0
  1 12  1  0  0  0  0
  2  5  1  0  0  0  0
  2  1  1  0  0  0  0
  3  7  1  1  0  0  0
  3  2  1  0  0  0  0
  3  1  1  0  0  0  0
  6  2  1  0  0  0  0
  8  9  1  0  0  0  0
  8 14  1  0  0  0  0
  9 15  1  0  0  0  0
 10  9  2  0  0  0  0
 11 12  2  0  0  0  0
 11 10  1  0  0  0  0
 12 13  1  0  0  0  0
 13  8  2  0  0  0  0
 16 10  1  0  0  0  0
 17 19  1  0  0  0  0
 18 17  2  0  0  0  0
 19 20  1  0  0  0  0
 19  3  1  0  0  0  0
 22 21  1  0  0  0  0
 22 23  2  0  0  0  0
 24 22  1  0  0  0  0
 24 17  1  0  0  0  0
 25 24  1  0  0  0  0
M  END
>  <minimizedAffinity>
-3.94278145

>  <minimizedRMSD>
6.73939514

$$$$
