
 OpenBabel03262523303D

 29 31  0  0  0  0  0  0  0  0999 V2000
   37.3630   29.3830   50.6470 C   0  0  0  0  0  0  0  0  0  0  0  0
   37.9200   30.1490   49.6370 C   0  0  0  0  0  0  0  0  0  0  0  0
   37.2670   30.2110   48.4000 C   0  0  0  0  0  0  0  0  0  0  0  0
   36.0970   29.5100   48.2330 N   0  0  0  0  0  0  0  0  0  0  0  0
   35.5880   28.7730   49.2500 C   0  0  0  0  0  0  0  0  0  0  0  0
   36.2140   28.7120   50.4390 N   0  0  0  0  0  0  0  0  0  0  0  0
   37.8680   29.3410   51.5880 H   0  0  0  0  0  0  0  0  0  0  0  0
   38.8390   30.6990   49.7660 H   0  0  0  0  0  0  0  0  0  0  0  0
   37.1300   30.7530   46.0420 C   0  0  0  0  0  0  0  0  0  0  0  0
   37.7580   30.9800   47.2720 C   0  0  0  0  0  0  0  0  0  0  0  0
   38.7900   31.8980   47.3690 C   0  0  0  0  0  0  0  0  0  0  0  0
   39.1760   32.5740   46.2310 C   0  0  0  0  0  0  0  0  0  0  0  0
   40.1390   33.5030   46.0720 N   0  0  0  0  0  0  0  0  0  0  0  0
   40.1310   33.8640   44.7730 C   0  0  0  0  0  0  0  0  0  0  0  0
   39.1900   33.1900   44.1100 N   0  0  0  0  0  0  0  0  0  0  0  0
   38.5720   32.3740   44.9930 C   0  0  0  0  0  0  0  0  0  0  0  0
   37.5370   31.4480   44.9100 C   0  0  0  0  0  0  0  0  0  0  0  0
   36.3170   30.0510   45.8940 H   0  0  0  0  0  0  0  0  0  0  0  0
   39.2690   32.0700   48.3110 H   0  0  0  0  0  0  0  0  0  0  0  0
   40.8080   33.9230   46.7520 H   0  0  0  0  0  0  0  0  0  0  0  0
   40.7520   34.5850   44.2440 H   0  0  0  0  0  0  0  0  0  0  0  0
   37.0540   31.2810   43.9400 H   0  0  0  0  0  0  0  0  0  0  0  0
   34.3440   28.0580   49.0010 C   0  0  0  0  0  0  0  0  0  0  0  0
   34.3270   26.9890   48.3500 O   0  0  0  0  0  0  0  0  0  0  0  0
   32.5050   30.4380   50.7390 H   0  0  0  0  0  0  0  0  0  0  0  0
   33.2600   29.8520   50.2640 C   0  0  0  0  0  0  0  0  0  0  0  0
   34.3850   30.4300   50.4480 O   0  0  0  0  0  0  0  0  0  0  0  0
   33.1550   28.6340   49.5340 N   0  0  0  0  0  0  0  0  0  0  0  0
   32.1810   28.2650   49.4570 H   0  0  0  0  0  0  0  0  0  0  0  0
  1  7  1  0  0  0  0
  2  8  1  0  0  0  0
  2  1  2  0  0  0  0
  3  2  1  0  0  0  0
  4  3  2  0  0  0  0
  4  5  1  0  0  0  0
  5  6  2  0  0  0  0
  6  1  1  0  0  0  0
  9 10  1  0  0  0  0
 10 11  2  0  0  0  0
 10  3  1  0  0  0  0
 11 19  1  0  0  0  0
 12 11  1  0  0  0  0
 13 12  1  0  0  0  0
 13 20  1  0  0  0  0
 14 13  1  0  0  0  0
 15 14  2  0  0  0  0
 15 16  1  0  0  0  0
 16 12  2  0  0  0  0
 17 16  1  0  0  0  0
 17  9  2  0  0  0  0
 18  9  1  0  0  0  0
 21 14  1  0  0  0  0
 22 17  1  0  0  0  0
 23  5  1  0  0  0  0
 23 28  1  0  0  0  0
 24 23  2  0  0  0  0
 26 27  2  0  0  0  0
 26 25  1  0  0  0  0
 28 26  1  0  0  0  0
 29 28  1  0  0  0  0
M  END
>  <minimizedAffinity>
-5.4478488

>  <minimizedRMSD>
0.884634972

$$$$
