REMARK  Name = 
REMARK  2 active torsions:
REMARK  status: ('A' for Active; 'I' for Inactive)
REMARK    1  A    between atoms: N_1  and  C_6
REMARK    2  A    between atoms: C_2  and  C_12
REMARK                            x       y       z     vdW  Elec       q    Type
REMARK                         _______ _______ _______ _____ _____    ______ ____
ROOT
ATOM      1  N   UNL     1      36.533  29.801  49.194  0.00  0.00    +0.000 N 
ATOM      2  C   UNL     1      37.233  30.992  48.755  0.00  0.00    +0.000 C 
ATOM      3  C   UNL     1      38.020  31.346  50.014  0.00  0.00    +0.000 C 
ATOM      4  C   UNL     1      37.498  30.432  51.116  0.00  0.00    +0.000 C 
ATOM      5  C   UNL     1      37.249  29.175  50.287  0.00  0.00    +0.000 C 
ATOM      6  H   UNL     1      36.538  31.819  48.575  0.00  0.00    +0.000 HD
ATOM      7  H   UNL     1      39.077  31.038  49.838  0.00  0.00    +0.000 HD
ATOM      8  H   UNL     1      37.939  32.408  50.273  0.00  0.00    +0.000 HD
ATOM      9  H   UNL     1      38.229  30.273  51.905  0.00  0.00    +0.000 HD
ATOM     10  H   UNL     1      36.497  30.784  51.468  0.00  0.00    +0.000 HD
ATOM     11  H   UNL     1      36.618  28.520  50.886  0.00  0.00    +0.000 HD
ATOM     12  H   UNL     1      38.216  28.766  49.969  0.00  0.00    +0.000 HD
ENDROOT
BRANCH   1  13
ATOM     13  C   UNL     1      35.315  29.331  48.626  0.00  0.00    +0.000 A 
ATOM     14  C   UNL     1      34.720  30.093  47.608  0.00  0.00    +0.000 A 
ATOM     15  C   UNL     1      33.518  29.643  47.045  0.00  0.00    +0.000 A 
ATOM     16  N   UNL     1      32.996  28.473  47.530  0.00  0.00    +0.000 NA
ATOM     17  C   UNL     1      33.594  27.772  48.503  0.00  0.00    +0.000 A 
ATOM     18  N   UNL     1      34.759  28.193  49.062  0.00  0.00    +0.000 NA
ATOM     19  H   UNL     1      35.129  31.016  47.224  0.00  0.00    +0.000 HD
ATOM     20  H   UNL     1      33.051  30.223  46.260  0.00  0.00    +0.000 HD
ATOM     21  H   UNL     1      33.094  26.864  48.809  0.00  0.00    +0.000 HD
ENDBRANCH   1  13
BRANCH   2  22
ATOM     22  C   UNL     1      38.119  30.770  47.613  0.00  0.00    +0.000 C 
ATOM     23  O   UNL     1      39.051  31.508  47.405  0.00  0.00    +0.000 OA
ATOM     24  H   UNL     1      37.550  29.044  44.636  0.00  0.00    +0.000 HD
ATOM     25  C   UNL     1      37.573  29.897  45.302  0.00  0.00    +0.000 C 
ATOM     26  O   UNL     1      37.205  31.076  44.976  0.00  0.00    +0.000 OA
ATOM     27  N   UNL     1      38.036  29.740  46.637  0.00  0.00    +0.000 N 
ATOM     28  H   UNL     1      38.339  28.803  46.927  0.00  0.00    +0.000 HD
ENDBRANCH   2  22
TORSDOF 2
