
 OpenBabel03272508513D

 25 26  0  0  1  0  0  0  0  0999 V2000
   38.2180   30.7770   46.0470 C   0  0  2  0  0  0  0  0  0  0  0  0
   36.8080   30.7030   46.4160 C   0  0  0  0  0  0  0  0  0  0  0  0
   37.8910   31.1730   47.4070 C   0  0  1  0  0  0  0  0  0  0  0  0
   38.8120   29.8040   45.9350 H   0  0  0  0  0  0  0  0  0  0  0  0
   36.1090   31.4890   46.0780 H   0  0  0  0  0  0  0  0  0  0  0  0
   36.3420   29.7630   46.6900 H   0  0  0  0  0  0  0  0  0  0  0  0
   37.7300   32.1840   47.7510 H   0  0  0  0  0  0  0  0  0  0  0  0
   40.0680   33.6780   44.6640 C   0  0  0  0  0  0  0  0  0  0  0  0
   39.7150   33.6090   43.2920 C   0  0  0  0  0  0  0  0  0  0  0  0
   38.8530   32.5690   42.8750 C   0  0  0  0  0  0  0  0  0  0  0  0
   38.4060   31.6850   43.8160 N   0  0  0  0  0  0  0  0  0  0  0  0
   38.7670   31.7900   45.1010 C   0  0  0  0  0  0  0  0  0  0  0  0
   39.5880   32.7660   45.5550 N   0  0  0  0  0  0  0  0  0  0  0  0
   40.7330   34.4990   44.9510 H   0  0  0  0  0  0  0  0  0  0  0  0
   40.0420   34.2800   42.5380 H   0  0  0  0  0  0  0  0  0  0  0  0
   38.5190   32.4200   41.8620 H   0  0  0  0  0  0  0  0  0  0  0  0
   37.5670   30.4740   49.7520 C   0  0  0  0  0  0  0  0  0  0  0  0
   36.7650   31.4010   49.9200 O   0  0  0  0  0  0  0  0  0  0  0  0
   38.1850   30.1920   48.4620 N   0  0  0  0  0  0  0  0  0  0  0  0
   38.8200   29.4080   48.1190 H   0  0  0  0  0  0  0  0  0  0  0  0
   37.5920   29.2810   52.9000 H   0  0  0  0  0  0  0  0  0  0  0  0
   37.8050   29.4140   51.8250 C   0  0  0  0  0  0  0  0  0  0  0  0
   36.9730   30.2610   52.3110 O   0  0  0  0  0  0  0  0  0  0  0  0
   38.2460   29.3930   50.4080 N   0  0  0  0  0  0  0  0  0  0  0  0
   38.6990   28.6720   50.8450 H   0  0  0  0  0  0  0  0  0  0  0  0
  1  4  1  6  0  0  0
  1  2  1  0  0  0  0
  1  3  1  0  0  0  0
  2  6  1  0  0  0  0
  2  3  1  0  0  0  0
  3  7  1  1  0  0  0
  3 19  1  0  0  0  0
  5  2  1  0  0  0  0
  8 14  1  0  0  0  0
  8 13  1  0  0  0  0
  9  8  2  0  0  0  0
 10  9  1  0  0  0  0
 10 11  2  0  0  0  0
 11 12  1  0  0  0  0
 12 13  2  0  0  0  0
 12  1  1  0  0  0  0
 15  9  1  0  0  0  0
 16 10  1  0  0  0  0
 17 18  2  0  0  0  0
 17 24  1  0  0  0  0
 19 17  1  0  0  0  0
 20 19  1  0  0  0  0
 22 23  2  0  0  0  0
 22 21  1  0  0  0  0
 24 25  1  0  0  0  0
 24 22  1  0  0  0  0
M  END
>  <minimizedAffinity>
-4.0828886

>  <minimizedRMSD>
1.10781395

$$$$
