
     RDKit          3D

 29 31  0  0  0  0  0  0  0  0999 V2000
   37.1617   30.7921   46.5792 C   0  0  0  0  0  0  0  0  0  0  0  0
   37.7870   31.2146   47.7579 C   0  0  0  0  0  0  0  0  0  0  0  0
   38.8068   32.1496   47.7103 C   0  0  0  0  0  0  0  0  0  0  0  0
   39.1847   32.6474   46.4802 C   0  0  0  0  0  0  0  0  0  0  0  0
   40.1359   33.5521   46.1768 N   0  0  0  0  0  0  0  0  0  0  0  0
   40.1226   33.7072   44.8384 C   0  0  0  0  0  0  0  0  0  0  0  0
   39.1907   32.9268   44.2892 N   0  0  0  0  0  0  0  0  0  0  0  0
   38.5836   32.2487   45.2886 C   0  0  0  0  0  0  0  0  0  0  0  0
   37.5608   31.3089   45.3524 C   0  0  0  0  0  0  0  0  0  0  0  0
   37.3997   30.1739   51.3444 C   0  0  0  0  0  0  0  0  0  0  0  0
   37.9462   30.7830   50.2265 C   0  0  0  0  0  0  0  0  0  0  0  0
   37.3065   30.6236   48.9922 C   0  0  0  0  0  0  0  0  0  0  0  0
   36.1599   29.8689   48.9334 N   0  0  0  0  0  0  0  0  0  0  0  0
   35.6615   29.2915   50.0531 C   0  0  0  0  0  0  0  0  0  0  0  0
   36.2742   29.4433   51.2399 N   0  0  0  0  0  0  0  0  0  0  0  0
   34.4424   28.5059   49.9146 C   0  0  0  0  0  0  0  0  0  0  0  0
   34.3007   27.6805   48.9848 O   0  0  0  0  0  0  0  0  0  0  0  0
   36.3586   30.0649   46.5429 H   0  0  0  0  0  0  0  0  0  0  0  0
   39.2841   32.4719   48.6132 H   0  0  0  0  0  0  0  0  0  0  0  0
   40.7992   34.0809   46.7816 H   0  0  0  0  0  0  0  0  0  0  0  0
   40.7354   34.3450   44.2023 H   0  0  0  0  0  0  0  0  0  0  0  0
   37.0800   30.9872   44.4209 H   0  0  0  0  0  0  0  0  0  0  0  0
   37.8951   30.3012   52.2828 H   0  0  0  0  0  0  0  0  0  0  0  0
   38.8471   31.3760   50.2720 H   0  0  0  0  0  0  0  0  0  0  0  0
   33.1652   29.6844   52.9233 H   0  0  0  0  0  0  0  0  0  0  0  0
   33.7669   29.4205   52.0820 C   0  0  0  0  0  0  0  0  0  0  0  0
   34.9521   29.8465   52.2953 O   0  0  0  0  0  0  0  0  0  0  0  0
   33.4237   28.7247   50.8884 N   0  0  0  0  0  0  0  0  0  0  0  0
   32.4233   28.4303   50.8373 H   0  0  0  0  0  0  0  0  0  0  0  0
  1  2  2  0
  2 12  1  0
  3  2  1  0
  4  3  2  0
  5  4  1  0
  6  5  1  0
  7  6  2  0
  7  8  1  0
  8  9  2  0
  8  4  1  0
  9  1  1  0
 11 10  2  0
 12 11  1  0
 13 12  2  0
 13 14  1  0
 14 15  2  0
 15 10  1  0
 16 14  1  0
 17 16  2  0
  1 18  1  0
  3 19  1  0
  5 20  1  0
  6 21  1  0
  9 22  1  0
 10 23  1  0
 11 24  1  0
 25 26  1  0
 26 27  2  0
 26 28  1  0
 28 29  1  0
 16 28  1  0
M  ISO  8  18  14  19  14  20   9  21  14  22  14  23  14  24  14  25   1
M  END
>  <DihAtoms>  (1) 
13,15,27,25

>  <DihDeg>  (1) 
179.99633460115936

$$$$
