
     RDKit          3D

 28 29  0  0  0  0  0  0  0  0999 V2000
   36.5333   29.8007   49.1942 N   0  0  0  0  0  0  0  0  0  0  0  0
   37.2328   30.9923   48.7549 C   0  0  1  0  0  0  0  0  0  0  0  0
   38.0204   31.3461   50.0138 C   0  0  0  0  0  0  0  0  0  0  0  0
   37.4982   30.4316   51.1157 C   0  0  0  0  0  0  0  0  0  0  0  0
   37.2490   29.1750   50.2868 C   0  0  0  0  0  0  0  0  0  0  0  0
   35.3148   29.3308   48.6256 C   0  0  0  0  0  0  0  0  0  0  0  0
   34.7199   30.0928   47.6085 C   0  0  0  0  0  0  0  0  0  0  0  0
   33.5184   29.6427   47.0449 C   0  0  0  0  0  0  0  0  0  0  0  0
   32.9965   28.4726   47.5302 N   0  0  0  0  0  0  0  0  0  0  0  0
   33.5938   27.7719   48.5030 C   0  0  0  0  0  0  0  0  0  0  0  0
   34.7590   28.1926   49.0616 N   0  0  0  0  0  0  0  0  0  0  0  0
   38.1193   30.7696   47.6126 C   0  0  0  0  0  0  0  0  0  0  0  0
   39.0515   31.5083   47.4053 O   0  0  0  0  0  0  0  0  0  0  0  0
   36.5380   31.8193   48.5752 H   0  0  0  0  0  0  0  0  0  0  0  0
   39.0768   31.0377   49.8377 H   0  0  0  0  0  0  0  0  0  0  0  0
   37.9386   32.4077   50.2728 H   0  0  0  0  0  0  0  0  0  0  0  0
   38.2288   30.2725   51.9049 H   0  0  0  0  0  0  0  0  0  0  0  0
   36.4971   30.7837   51.4679 H   0  0  0  0  0  0  0  0  0  0  0  0
   36.6180   28.5205   50.8855 H   0  0  0  0  0  0  0  0  0  0  0  0
   38.2157   28.7664   49.9690 H   0  0  0  0  0  0  0  0  0  0  0  0
   35.1290   31.0158   47.2235 H   0  0  0  0  0  0  0  0  0  0  0  0
   33.0509   30.2230   46.2596 H   0  0  0  0  0  0  0  0  0  0  0  0
   33.0942   26.8640   48.8086 H   0  0  0  0  0  0  0  0  0  0  0  0
   38.8958   28.5756   45.0158 H   0  0  0  0  0  0  0  0  0  0  0  0
   39.0628   29.3791   45.7221 C   0  0  0  0  0  0  0  0  0  0  0  0
   40.1441   30.0536   45.8048 O   0  0  0  0  0  0  0  0  0  0  0  0
   38.0362   29.7400   46.6367 N   0  0  0  0  0  0  0  0  0  0  0  0
   37.1554   29.2148   46.5935 H   0  0  0  0  0  0  0  0  0  0  0  0
  1  5  1  0
  2  1  1  0
  2  3  1  0
  3  4  1  0
  5  4  1  0
  6 11  1  0
  6  1  1  0
  7  6  2  0
  8  9  2  0
  8  7  1  0
  9 10  1  0
 10 11  2  0
 12  2  1  0
 13 12  2  0
  2 14  1  6
  3 15  1  0
  3 16  1  0
  4 17  1  0
  4 18  1  0
  5 19  1  0
  5 20  1  0
  7 21  1  0
  8 22  1  0
 10 23  1  0
 24 25  1  0
 25 26  2  0
 25 27  1  0
 27 28  1  0
 12 27  1  0
M  ISO  8  14  13  15  13  16  13  17  13  18  13  19  13  20  13  21  14
M  ISO  3  22  14  23  14  24   1
M  END
>  <DihAtoms>  (1) 
1,11,26,24

>  <DihDeg>  (1) 
179.60788537176597

$$$$
