
 OpenBabel03272508513D

 25 26  0  0  1  0  0  0  0  0999 V2000
   38.1880   30.7130   46.5460 C   0  0  2  0  0  0  0  0  0  0  0  0
   36.7760   30.5960   46.8950 C   0  0  0  0  0  0  0  0  0  0  0  0
   37.7760   31.3690   47.7770 C   0  0  1  0  0  0  0  0  0  0  0  0
   38.8640   29.7970   46.6670 H   0  0  0  0  0  0  0  0  0  0  0  0
   36.0270   31.2210   46.3760 H   0  0  0  0  0  0  0  0  0  0  0  0
   36.3790   29.7010   47.3630 H   0  0  0  0  0  0  0  0  0  0  0  0
   37.5180   32.4120   47.8820 H   0  0  0  0  0  0  0  0  0  0  0  0
   40.4080   32.6720   44.3140 C   0  0  0  0  0  0  0  0  0  0  0  0
   39.5070   33.0550   43.2860 C   0  0  0  0  0  0  0  0  0  0  0  0
   38.1620   32.6300   43.3840 C   0  0  0  0  0  0  0  0  0  0  0  0
   37.8010   31.8740   44.4630 N   0  0  0  0  0  0  0  0  0  0  0  0
   38.6870   31.5360   45.4080 C   0  0  0  0  0  0  0  0  0  0  0  0
   39.9860   31.9150   45.3650 N   0  0  0  0  0  0  0  0  0  0  0  0
   41.4400   33.0220   44.2070 H   0  0  0  0  0  0  0  0  0  0  0  0
   39.7550   33.6430   42.4390 H   0  0  0  0  0  0  0  0  0  0  0  0
   37.3940   32.8620   42.6660 H   0  0  0  0  0  0  0  0  0  0  0  0
   37.5420   31.2750   50.2320 C   0  0  0  0  0  0  0  0  0  0  0  0
   36.7480   32.2230   50.1950 O   0  0  0  0  0  0  0  0  0  0  0  0
   38.1090   30.6760   49.0300 N   0  0  0  0  0  0  0  0  0  0  0  0
   38.7290   29.8250   48.8680 H   0  0  0  0  0  0  0  0  0  0  0  0
   36.6470   28.6010   52.0700 H   0  0  0  0  0  0  0  0  0  0  0  0
   37.2450   29.4030   51.6050 C   0  0  0  0  0  0  0  0  0  0  0  0
   36.0050   29.4050   51.2760 O   0  0  0  0  0  0  0  0  0  0  0  0
   38.2450   30.3820   51.1090 N   0  0  0  0  0  0  0  0  0  0  0  0
   38.7140   29.7870   51.6940 H   0  0  0  0  0  0  0  0  0  0  0  0
  1  4  1  1  0  0  0
  1  2  1  0  0  0  0
  1  3  1  0  0  0  0
  2  6  1  0  0  0  0
  2  3  1  0  0  0  0
  3  7  1  1  0  0  0
  3 19  1  0  0  0  0
  5  2  1  0  0  0  0
  8 13  1  0  0  0  0
  9 10  1  0  0  0  0
  9  8  2  0  0  0  0
 10 11  2  0  0  0  0
 11 12  1  0  0  0  0
 12  1  1  0  0  0  0
 13 12  2  0  0  0  0
 14  8  1  0  0  0  0
 15  9  1  0  0  0  0
 16 10  1  0  0  0  0
 17 24  1  0  0  0  0
 18 17  2  0  0  0  0
 19 17  1  0  0  0  0
 20 19  1  0  0  0  0
 22 21  1  0  0  0  0
 23 22  2  0  0  0  0
 24 22  1  0  0  0  0
 24 25  1  0  0  0  0
M  END
>  <minimizedAffinity>
-4.99695539

>  <minimizedRMSD>
0.830188751

$$$$
