REMARK  Name = 
REMARK  2 active torsions:
REMARK  status: ('A' for Active; 'I' for Inactive)
REMARK    1  A    between atoms: C_1  and  C_8
REMARK    2  A    between atoms: C_3  and  N_12
REMARK                            x       y       z     vdW  Elec       q    Type
REMARK                         _______ _______ _______ _____ _____    ______ ____
ROOT
ATOM      1  C   UNL     1      38.360  30.596  47.093  0.00  0.00    +0.000 C 
ATOM      2  C   UNL     1      36.967  30.569  47.527  0.00  0.00    +0.000 C 
ATOM      3  C   UNL     1      38.092  31.132  48.418  0.00  0.00    +0.000 C 
ATOM      4  H   UNL     1      38.946  29.613  47.058  0.00  0.00    +0.000 HD
ATOM      5  H   UNL     1      36.255  31.320  47.139  0.00  0.00    +0.000 HD
ATOM      6  H   UNL     1      36.511  29.665  47.916  0.00  0.00    +0.000 HD
ATOM      7  H   UNL     1      37.947  32.174  48.662  0.00  0.00    +0.000 HD
ENDROOT
BRANCH   1  12
ATOM      8  C   UNL     1      40.607  32.695  45.021  0.00  0.00    +0.000 A 
ATOM      9  C   UNL     1      39.710  33.177  44.033  0.00  0.00    +0.000 A 
ATOM     10  C   UNL     1      38.358  32.769  44.101  0.00  0.00    +0.000 A 
ATOM     11  N   UNL     1      37.987  31.932  45.115  0.00  0.00    +0.000 NA
ATOM     12  C   UNL     1      38.870  31.502  46.025  0.00  0.00    +0.000 A 
ATOM     13  N   UNL     1      40.175  31.861  46.008  0.00  0.00    +0.000 NA
ATOM     14  H   UNL     1      41.645  33.035  44.939  0.00  0.00    +0.000 HD
ATOM     15  H   UNL     1      39.966  33.829  43.236  0.00  0.00    +0.000 HD
ATOM     16  H   UNL     1      37.592  33.072  43.408  0.00  0.00    +0.000 HD
ENDBRANCH   1  12
BRANCH   3  19
ATOM     17  C   UNL     1      37.675  30.530  50.775  0.00  0.00    +0.000 C 
ATOM     18  O   UNL     1      36.745  31.344  50.821  0.00  0.00    +0.000 OA
ATOM     19  N   UNL     1      38.428  30.263  49.555  0.00  0.00    +0.000 N 
ATOM     20  H   UNL     1      39.188  29.557  49.313  0.00  0.00    +0.000 HD
ATOM     21  H   UNL     1      37.605  29.534  53.990  0.00  0.00    +0.000 HD
ATOM     22  C   UNL     1      37.885  29.634  52.927  0.00  0.00    +0.000 C 
ATOM     23  O   UNL     1      36.910  30.383  53.293  0.00  0.00    +0.000 OA
ATOM     24  N   UNL     1      38.438  29.593  51.550  0.00  0.00    +0.000 N 
ATOM     25  H   UNL     1      38.947  28.968  52.067  0.00  0.00    +0.000 HD
ENDBRANCH   3  19
TORSDOF 2
