
 OpenBabel03272508513D

 25 26  0  0  1  0  0  0  0  0999 V2000
   37.7290   30.5670   46.4450 C   0  0  2  0  0  0  0  0  0  0  0  0
   36.3040   30.4250   46.1640 C   0  0  0  0  0  0  0  0  0  0  0  0
   36.8280   30.8600   47.5480 C   0  0  1  0  0  0  0  0  0  0  0  0
   38.3660   29.6230   46.5540 H   0  0  0  0  0  0  0  0  0  0  0  0
   35.7740   31.2100   45.5950 H   0  0  0  0  0  0  0  0  0  0  0  0
   35.8190   29.4550   46.1650 H   0  0  0  0  0  0  0  0  0  0  0  0
   36.4770   31.8400   47.8360 H   0  0  0  0  0  0  0  0  0  0  0  0
   40.1440   33.3640   46.1380 C   0  0  0  0  0  0  0  0  0  0  0  0
   40.0730   33.6460   44.7490 C   0  0  0  0  0  0  0  0  0  0  0  0
   39.2010   32.8690   43.9530 C   0  0  0  0  0  0  0  0  0  0  0  0
   38.4720   31.8880   44.5630 N   0  0  0  0  0  0  0  0  0  0  0  0
   38.5730   31.6580   45.8780 C   0  0  0  0  0  0  0  0  0  0  0  0
   39.3910   32.3710   46.6870 N   0  0  0  0  0  0  0  0  0  0  0  0
   40.8270   33.9880   46.7240 H   0  0  0  0  0  0  0  0  0  0  0  0
   40.6230   34.4010   44.2460 H   0  0  0  0  0  0  0  0  0  0  0  0
   39.0660   32.9950   42.8920 H   0  0  0  0  0  0  0  0  0  0  0  0
   35.6890   30.0910   49.5980 C   0  0  0  0  0  0  0  0  0  0  0  0
   34.9260   31.0620   49.5420 O   0  0  0  0  0  0  0  0  0  0  0  0
   36.6950   29.8190   48.5770 N   0  0  0  0  0  0  0  0  0  0  0  0
   37.3680   29.0090   48.4210 H   0  0  0  0  0  0  0  0  0  0  0  0
   37.8820   29.5340   52.0900 H   0  0  0  0  0  0  0  0  0  0  0  0
   37.1020   29.3850   51.3250 C   0  0  0  0  0  0  0  0  0  0  0  0
   37.5590   30.5800   51.3900 O   0  0  0  0  0  0  0  0  0  0  0  0
   36.0490   28.9400   50.3770 N   0  0  0  0  0  0  0  0  0  0  0  0
   36.2900   28.1720   50.8970 H   0  0  0  0  0  0  0  0  0  0  0  0
  1  4  1  1  0  0  0
  1  3  1  0  0  0  0
  2  6  1  0  0  0  0
  2  1  1  0  0  0  0
  2  3  1  0  0  0  0
  3  7  1  1  0  0  0
  3 19  1  0  0  0  0
  5  2  1  0  0  0  0
  8 13  1  0  0  0  0
  8 14  1  0  0  0  0
  9  8  2  0  0  0  0
 10 11  2  0  0  0  0
 10  9  1  0  0  0  0
 11 12  1  0  0  0  0
 12  1  1  0  0  0  0
 12 13  2  0  0  0  0
 15  9  1  0  0  0  0
 16 10  1  0  0  0  0
 17 24  1  0  0  0  0
 18 17  2  0  0  0  0
 19 17  1  0  0  0  0
 20 19  1  0  0  0  0
 22 23  2  0  0  0  0
 22 21  1  0  0  0  0
 24 25  1  0  0  0  0
 24 22  1  0  0  0  0
M  END
>  <minimizedAffinity>
-4.49874687

>  <minimizedRMSD>
1.77658522

$$$$
