
     RDKit          3D

 25 26  0  0  0  0  0  0  0  0999 V2000
   38.3601   30.5963   47.0927 C   0  0  2  0  0  0  0  0  0  0  0  0
   36.9672   30.5693   47.5271 C   0  0  0  0  0  0  0  0  0  0  0  0
   38.0919   31.1324   48.4184 C   0  0  1  0  0  0  0  0  0  0  0  0
   40.6070   32.6949   45.0213 C   0  0  0  0  0  0  0  0  0  0  0  0
   39.7097   33.1768   44.0334 C   0  0  0  0  0  0  0  0  0  0  0  0
   38.3579   32.7689   44.1008 C   0  0  0  0  0  0  0  0  0  0  0  0
   37.9873   31.9321   45.1148 N   0  0  0  0  0  0  0  0  0  0  0  0
   38.8697   31.5020   46.0252 C   0  0  0  0  0  0  0  0  0  0  0  0
   40.1748   31.8610   46.0080 N   0  0  0  0  0  0  0  0  0  0  0  0
   37.6751   30.5296   50.7752 C   0  0  0  0  0  0  0  0  0  0  0  0
   36.7451   31.3443   50.8205 O   0  0  0  0  0  0  0  0  0  0  0  0
   38.4284   30.2626   49.5546 N   0  0  0  0  0  0  0  0  0  0  0  0
   38.9464   29.6135   47.0579 H   0  0  0  0  0  0  0  0  0  0  0  0
   36.2555   31.3203   47.1392 H   0  0  0  0  0  0  0  0  0  0  0  0
   36.5107   29.6651   47.9159 H   0  0  0  0  0  0  0  0  0  0  0  0
   37.9474   32.1738   48.6617 H   0  0  0  0  0  0  0  0  0  0  0  0
   41.6452   33.0349   44.9388 H   0  0  0  0  0  0  0  0  0  0  0  0
   39.9656   33.8288   43.2365 H   0  0  0  0  0  0  0  0  0  0  0  0
   37.5915   33.0715   43.4083 H   0  0  0  0  0  0  0  0  0  0  0  0
   39.1877   29.5569   49.3130 H   0  0  0  0  0  0  0  0  0  0  0  0
   38.5624   30.3351   54.0162 H   0  0  0  0  0  0  0  0  0  0  0  0
   38.4493   30.1070   52.9426 C   0  0  0  0  0  0  0  0  0  0  0  0
   37.8693   31.1861   53.3203 O   0  0  0  0  0  0  0  0  0  0  0  0
   38.4375   29.5930   51.5498 N   0  0  0  0  0  0  0  0  0  0  0  0
   38.9467   28.9675   52.0671 H   0  0  0  0  0  0  0  0  0  0  0  0
  1  2  1  0
  1  3  1  0
  2  3  1  0
  3 12  1  0
  4  9  2  0
  5  6  2  0
  5  4  1  0
  6  7  1  0
  7  8  2  0
  8  1  1  0
  9  8  1  0
 10 11  2  0
 12 10  1  0
  1 13  1  1
  2 14  1  0
  2 15  1  0
  3 16  1  1
  4 17  1  0
  5 18  1  0
  6 19  1  0
 12 20  1  0
 21 22  1  0
 22 23  2  0
 22 24  1  0
 24 25  1  0
 10 24  1  0
M  ISO  8  13  13  14  13  15  13  16  13  17  14  18  14  19  14  21   1
M  END
>  <DihAtoms>  (1) 
10,9,23,21

>  <DihDeg>  (1) 
-0.11164331383606509

$$$$
