
 OpenBabel03272503253D

 28 29  0  0  1  0  0  0  0  0999 V2000
   36.5190   29.8520   49.3480 N   0  0  0  0  0  0  0  0  0  0  0  0
   37.1240   31.1610   49.2030 C   0  0  1  0  0  0  0  0  0  0  0  0
   37.8210   31.3090   50.5530 C   0  0  0  0  0  0  0  0  0  0  0  0
   37.3390   30.1470   51.4130 C   0  0  0  0  0  0  0  0  0  0  0  0
   37.2430   29.0730   50.3320 C   0  0  0  0  0  0  0  0  0  0  0  0
   36.3640   31.9480   49.1530 H   0  0  0  0  0  0  0  0  0  0  0  0
   38.9080   31.1320   50.3830 H   0  0  0  0  0  0  0  0  0  0  0  0
   37.6310   32.2840   51.0170 H   0  0  0  0  0  0  0  0  0  0  0  0
   38.0480   29.8880   52.1960 H   0  0  0  0  0  0  0  0  0  0  0  0
   36.2960   30.3350   51.7680 H   0  0  0  0  0  0  0  0  0  0  0  0
   36.6510   28.2590   50.7470 H   0  0  0  0  0  0  0  0  0  0  0  0
   38.2570   28.8200   49.9970 H   0  0  0  0  0  0  0  0  0  0  0  0
   35.3760   29.4120   48.6230 C   0  0  0  0  0  0  0  0  0  0  0  0
   34.7730   30.3080   47.7270 C   0  0  0  0  0  0  0  0  0  0  0  0
   33.6430   29.8880   47.0120 C   0  0  0  0  0  0  0  0  0  0  0  0
   33.1950   28.6130   47.2370 N   0  0  0  0  0  0  0  0  0  0  0  0
   33.7980   27.7850   48.1010 C   0  0  0  0  0  0  0  0  0  0  0  0
   34.8940   28.1750   48.8040 N   0  0  0  0  0  0  0  0  0  0  0  0
   35.1230   31.3140   47.5480 H   0  0  0  0  0  0  0  0  0  0  0  0
   33.1700   30.5710   46.3190 H   0  0  0  0  0  0  0  0  0  0  0  0
   33.3600   26.8020   48.2000 H   0  0  0  0  0  0  0  0  0  0  0  0
   38.0750   31.2540   48.0960 C   0  0  0  0  0  0  0  0  0  0  0  0
   38.9780   32.0540   48.1260 O   0  0  0  0  0  0  0  0  0  0  0  0
   38.2750   30.3300   44.7380 H   0  0  0  0  0  0  0  0  0  0  0  0
   38.2800   31.0030   45.5870 C   0  0  0  0  0  0  0  0  0  0  0  0
   38.4480   32.2670   45.5040 O   0  0  0  0  0  0  0  0  0  0  0  0
   38.0910   30.4880   46.8980 N   0  0  0  0  0  0  0  0  0  0  0  0
   37.9530   29.4750   46.9960 H   0  0  0  0  0  0  0  0  0  0  0  0
  1  5  1  0  0  0  0
  2  6  1  6  0  0  0
  2  1  1  0  0  0  0
  2  3  1  0  0  0  0
  3  8  1  0  0  0  0
  3  4  1  0  0  0  0
  4 10  1  0  0  0  0
  4  9  1  0  0  0  0
  5 11  1  0  0  0  0
  5  4  1  0  0  0  0
  7  3  1  0  0  0  0
 12  5  1  0  0  0  0
 13 18  1  0  0  0  0
 13  1  1  0  0  0  0
 14 13  2  0  0  0  0
 15 16  2  0  0  0  0
 15 14  1  0  0  0  0
 16 17  1  0  0  0  0
 17 21  1  0  0  0  0
 17 18  2  0  0  0  0
 19 14  1  0  0  0  0
 20 15  1  0  0  0  0
 22 23  2  0  0  0  0
 22  2  1  0  0  0  0
 24 25  1  0  0  0  0
 25 27  1  0  0  0  0
 26 25  2  0  0  0  0
 27 28  1  0  0  0  0
 27 22  1  0  0  0  0
M  END
>  <minimizedAffinity>
-4.9517045

>  <minimizedRMSD>
0.633164763

$$$$
