
 OpenBabel03272508513D

 25 26  0  0  1  0  0  0  0  0999 V2000
   38.0500   30.5920   46.8590 C   0  0  2  0  0  0  0  0  0  0  0  0
   36.6000   30.4400   46.9160 C   0  0  0  0  0  0  0  0  0  0  0  0
   37.3830   31.2280   47.9840 C   0  0  1  0  0  0  0  0  0  0  0  0
   38.7100   29.6910   47.1100 H   0  0  0  0  0  0  0  0  0  0  0  0
   35.9560   31.0520   46.2580 H   0  0  0  0  0  0  0  0  0  0  0  0
   36.1390   29.5320   47.2910 H   0  0  0  0  0  0  0  0  0  0  0  0
   37.0830   32.2640   48.0390 H   0  0  0  0  0  0  0  0  0  0  0  0
   40.6950   32.3890   44.9820 C   0  0  0  0  0  0  0  0  0  0  0  0
   39.9380   33.0120   43.9560 C   0  0  0  0  0  0  0  0  0  0  0  0
   38.5410   32.7980   43.9320 C   0  0  0  0  0  0  0  0  0  0  0  0
   37.9930   32.0040   44.8990 N   0  0  0  0  0  0  0  0  0  0  0  0
   38.7480   31.4360   45.8480 C   0  0  0  0  0  0  0  0  0  0  0  0
   40.0890   31.6070   45.9190 N   0  0  0  0  0  0  0  0  0  0  0  0
   41.7730   32.5800   44.9710 H   0  0  0  0  0  0  0  0  0  0  0  0
   40.3330   33.6350   43.1930 H   0  0  0  0  0  0  0  0  0  0  0  0
   37.8700   33.2200   43.2030 H   0  0  0  0  0  0  0  0  0  0  0  0
   37.2390   31.3730   50.4440 C   0  0  0  0  0  0  0  0  0  0  0  0
   36.8790   32.5530   50.3550 O   0  0  0  0  0  0  0  0  0  0  0  0
   37.4730   30.5320   49.2760 N   0  0  0  0  0  0  0  0  0  0  0  0
   37.7030   29.4980   49.1620 H   0  0  0  0  0  0  0  0  0  0  0  0
   36.9920   28.0170   50.3820 H   0  0  0  0  0  0  0  0  0  0  0  0
   37.2030   29.0480   50.7110 C   0  0  0  0  0  0  0  0  0  0  0  0
   36.6880   28.9600   49.5400 O   0  0  0  0  0  0  0  0  0  0  0  0
   37.5750   30.3270   51.3680 N   0  0  0  0  0  0  0  0  0  0  0  0
   37.7980   29.6290   51.9840 H   0  0  0  0  0  0  0  0  0  0  0  0
  1  2  1  0  0  0  0
  1  4  1  1  0  0  0
  1  3  1  0  0  0  0
  2  6  1  0  0  0  0
  2  3  1  0  0  0  0
  3  7  1  1  0  0  0
  3 19  1  0  0  0  0
  5  2  1  0  0  0  0
  8 13  1  0  0  0  0
  9  8  2  0  0  0  0
 10  9  1  0  0  0  0
 10 11  2  0  0  0  0
 11 12  1  0  0  0  0
 12 13  2  0  0  0  0
 12  1  1  0  0  0  0
 14  8  1  0  0  0  0
 15  9  1  0  0  0  0
 16 10  1  0  0  0  0
 17 24  1  0  0  0  0
 18 17  2  0  0  0  0
 19 17  1  0  0  0  0
 20 19  1  0  0  0  0
 21 22  1  0  0  0  0
 22 24  1  0  0  0  0
 23 22  2  0  0  0  0
 24 25  1  0  0  0  0
M  END
>  <minimizedAffinity>
-4.6937151

>  <minimizedRMSD>
0.960966766

$$$$
