
 OpenBabel03272508523D

 25 26  0  0  1  0  0  0  0  0999 V2000
   37.6950   27.4870   35.2880 C   0  0  2  0  0  0  0  0  0  0  0  0
   39.1000   27.1320   35.1190 C   0  0  0  0  0  0  0  0  0  0  0  0
   38.0160   26.0740   35.4010 C   0  0  1  0  0  0  0  0  0  0  0  0
   37.3700   28.0080   36.2550 H   0  0  0  0  0  0  0  0  0  0  0  0
   39.5410   27.0950   34.1060 H   0  0  0  0  0  0  0  0  0  0  0  0
   39.8170   27.2500   35.9250 H   0  0  0  0  0  0  0  0  0  0  0  0
   37.9350   25.3410   34.6120 H   0  0  0  0  0  0  0  0  0  0  0  0
   36.1400   27.8540   31.9420 C   0  0  0  0  0  0  0  0  0  0  0  0
   35.1980   28.8870   32.1810 C   0  0  0  0  0  0  0  0  0  0  0  0
   35.1180   29.4310   33.4840 C   0  0  0  0  0  0  0  0  0  0  0  0
   35.9530   28.9330   34.4430 N   0  0  0  0  0  0  0  0  0  0  0  0
   36.8270   27.9550   34.1710 C   0  0  0  0  0  0  0  0  0  0  0  0
   36.9450   27.3990   32.9420 N   0  0  0  0  0  0  0  0  0  0  0  0
   36.1760   27.4600   30.9210 H   0  0  0  0  0  0  0  0  0  0  0  0
   34.5380   29.2980   31.4580 H   0  0  0  0  0  0  0  0  0  0  0  0
   34.4440   30.2170   33.7790 H   0  0  0  0  0  0  0  0  0  0  0  0
   37.9370   24.0740   36.8460 C   0  0  0  0  0  0  0  0  0  0  0  0
   37.8900   23.3490   35.8450 O   0  0  0  0  0  0  0  0  0  0  0  0
   38.0750   25.5230   36.7630 N   0  0  0  0  0  0  0  0  0  0  0  0
   38.2090   26.2810   37.4990 H   0  0  0  0  0  0  0  0  0  0  0  0
   39.8490   22.6760   39.2380 H   0  0  0  0  0  0  0  0  0  0  0  0
   39.0560   23.2490   38.7290 C   0  0  0  0  0  0  0  0  0  0  0  0
   39.8830   22.6730   37.9390 O   0  0  0  0  0  0  0  0  0  0  0  0
   37.9060   24.0760   38.2810 N   0  0  0  0  0  0  0  0  0  0  0  0
   37.8850   24.0770   39.2380 H   0  0  0  0  0  0  0  0  0  0  0  0
  1  3  1  0  0  0  0
  1  4  1  1  0  0  0
  2  1  1  0  0  0  0
  2  3  1  0  0  0  0
  2  6  1  0  0  0  0
  3  7  1  6  0  0  0
  3 19  1  0  0  0  0
  5  2  1  0  0  0  0
  8  9  2  0  0  0  0
  8 13  1  0  0  0  0
  9 10  1  0  0  0  0
 10 16  1  0  0  0  0
 10 11  2  0  0  0  0
 12 11  1  0  0  0  0
 12  1  1  0  0  0  0
 13 12  2  0  0  0  0
 14  8  1  0  0  0  0
 15  9  1  0  0  0  0
 17 24  1  0  0  0  0
 18 17  2  0  0  0  0
 19 17  1  0  0  0  0
 19 20  1  0  0  0  0
 22 21  1  0  0  0  0
 23 22  2  0  0  0  0
 24 22  1  0  0  0  0
 24 25  1  0  0  0  0
M  END
>  <minimizedAffinity>
-4.52989531

$$$$

 OpenBabel03272508523D

 25 26  0  0  1  0  0  0  0  0999 V2000
   37.5440   26.4950   35.3070 C   0  0  2  0  0  0  0  0  0  0  0  0
   38.7280   27.0860   35.9230 C   0  0  0  0  0  0  0  0  0  0  0  0
   38.7540   25.6890   35.2720 C   0  0  1  0  0  0  0  0  0  0  0  0
   36.7040   26.1110   35.9840 H   0  0  0  0  0  0  0  0  0  0  0  0
   39.2970   27.8650   35.3850 H   0  0  0  0  0  0  0  0  0  0  0  0
   38.8760   27.0720   36.9970 H   0  0  0  0  0  0  0  0  0  0  0  0
   39.4500   25.6260   34.4490 H   0  0  0  0  0  0  0  0  0  0  0  0
   35.9110   28.6510   32.7720 C   0  0  0  0  0  0  0  0  0  0  0  0
   35.8760   27.7870   31.6470 C   0  0  0  0  0  0  0  0  0  0  0  0
   36.4140   26.4870   31.7860 C   0  0  0  0  0  0  0  0  0  0  0  0
   36.9400   26.1320   32.9960 N   0  0  0  0  0  0  0  0  0  0  0  0
   36.9520   26.9840   34.0300 C   0  0  0  0  0  0  0  0  0  0  0  0
   36.4500   28.2380   33.9530 N   0  0  0  0  0  0  0  0  0  0  0  0
   35.4820   29.6490   32.6280 H   0  0  0  0  0  0  0  0  0  0  0  0
   35.4730   28.0310   30.6970 H   0  0  0  0  0  0  0  0  0  0  0  0
   36.4400   25.7490   31.0030 H   0  0  0  0  0  0  0  0  0  0  0  0
   39.5200   23.3950   35.7680 C   0  0  0  0  0  0  0  0  0  0  0  0
   40.0880   23.3450   34.6700 O   0  0  0  0  0  0  0  0  0  0  0  0
   38.8370   24.5910   36.2470 N   0  0  0  0  0  0  0  0  0  0  0  0
   38.3730   24.8380   37.1740 H   0  0  0  0  0  0  0  0  0  0  0  0
   41.3610   21.8610   38.1320 H   0  0  0  0  0  0  0  0  0  0  0  0
   40.5040   22.2420   37.5510 C   0  0  0  0  0  0  0  0  0  0  0  0
   41.6500   22.5430   37.0640 O   0  0  0  0  0  0  0  0  0  0  0  0
   39.2060   22.6420   36.9490 N   0  0  0  0  0  0  0  0  0  0  0  0
   38.9980   22.1400   37.7370 H   0  0  0  0  0  0  0  0  0  0  0  0
  1  2  1  0  0  0  0
  1  4  1  1  0  0  0
  2  6  1  0  0  0  0
  3  7  1  6  0  0  0
  3  1  1  0  0  0  0
  3  2  1  0  0  0  0
  3 19  1  0  0  0  0
  5  2  1  0  0  0  0
  8 13  1  0  0  0  0
  9 10  1  0  0  0  0
  9  8  2  0  0  0  0
 10 11  2  0  0  0  0
 11 12  1  0  0  0  0
 12  1  1  0  0  0  0
 13 12  2  0  0  0  0
 14  8  1  0  0  0  0
 15  9  1  0  0  0  0
 16 10  1  0  0  0  0
 17 19  1  0  0  0  0
 17 24  1  0  0  0  0
 18 17  2  0  0  0  0
 19 20  1  0  0  0  0
 22 21  1  0  0  0  0
 23 22  2  0  0  0  0
 24 22  1  0  0  0  0
 24 25  1  0  0  0  0
M  END
>  <minimizedAffinity>
-4.32178354

$$$$

 OpenBabel03272508523D

 25 26  0  0  1  0  0  0  0  0999 V2000
   38.9020   25.8070   35.0180 C   0  0  2  0  0  0  0  0  0  0  0  0
   38.3810   27.0470   35.5830 C   0  0  0  0  0  0  0  0  0  0  0  0
   37.4750   26.0330   34.8570 C   0  0  1  0  0  0  0  0  0  0  0  0
   39.5300   25.8570   34.0620 H   0  0  0  0  0  0  0  0  0  0  0  0
   38.2150   27.1290   36.6720 H   0  0  0  0  0  0  0  0  0  0  0  0
   38.4830   27.9940   35.0640 H   0  0  0  0  0  0  0  0  0  0  0  0
   36.6960   25.6410   35.4930 H   0  0  0  0  0  0  0  0  0  0  0  0
   40.9570   23.0190   36.3430 C   0  0  0  0  0  0  0  0  0  0  0  0
   40.1500   22.5600   37.4160 C   0  0  0  0  0  0  0  0  0  0  0  0
   38.9230   23.2190   37.6590 C   0  0  0  0  0  0  0  0  0  0  0  0
   38.5790   24.2630   36.8480 N   0  0  0  0  0  0  0  0  0  0  0  0
   39.3740   24.6620   35.8470 C   0  0  0  0  0  0  0  0  0  0  0  0
   40.5580   24.0670   35.5690 N   0  0  0  0  0  0  0  0  0  0  0  0
   41.8980   22.4820   36.1820 H   0  0  0  0  0  0  0  0  0  0  0  0
   40.3870   21.7520   38.0610 H   0  0  0  0  0  0  0  0  0  0  0  0
   38.2320   22.9570   38.4420 H   0  0  0  0  0  0  0  0  0  0  0  0
   37.0210   25.4590   32.4990 C   0  0  0  0  0  0  0  0  0  0  0  0
   37.2540   24.2690   32.7420 O   0  0  0  0  0  0  0  0  0  0  0  0
   37.0310   26.4900   33.5320 N   0  0  0  0  0  0  0  0  0  0  0  0
   36.7810   27.5250   33.5240 H   0  0  0  0  0  0  0  0  0  0  0  0
   34.4590   25.7510   30.3340 H   0  0  0  0  0  0  0  0  0  0  0  0
   35.4000   25.9370   30.8790 C   0  0  0  0  0  0  0  0  0  0  0  0
   34.7520   24.9070   31.2780 O   0  0  0  0  0  0  0  0  0  0  0  0
   36.6920   26.3900   31.4570 N   0  0  0  0  0  0  0  0  0  0  0  0
   36.4720   27.0110   30.7620 H   0  0  0  0  0  0  0  0  0  0  0  0
  1  4  1  6  0  0  0
  1  2  1  0  0  0  0
  1 12  1  0  0  0  0
  2  5  1  0  0  0  0
  3  1  1  0  0  0  0
  3  7  1  1  0  0  0
  3  2  1  0  0  0  0
  6  2  1  0  0  0  0
  8  9  1  0  0  0  0
  9 10  2  0  0  0  0
  9 15  1  0  0  0  0
 10 16  1  0  0  0  0
 11 10  1  0  0  0  0
 12 11  2  0  0  0  0
 13 12  1  0  0  0  0
 13  8  2  0  0  0  0
 14  8  1  0  0  0  0
 17 18  2  0  0  0  0
 17 19  1  0  0  0  0
 19  3  1  0  0  0  0
 20 19  1  0  0  0  0
 21 22  1  0  0  0  0
 22 23  2  0  0  0  0
 22 24  1  0  0  0  0
 24 17  1  0  0  0  0
 25 24  1  0  0  0  0
M  END
>  <minimizedAffinity>
-4.19170523

$$$$

 OpenBabel03272508523D

 25 26  0  0  1  0  0  0  0  0999 V2000
   38.9400   25.4000   34.7060 C   0  0  2  0  0  0  0  0  0  0  0  0
   39.5450   26.7220   34.5750 C   0  0  0  0  0  0  0  0  0  0  0  0
   38.0210   26.5060   34.4900 C   0  0  1  0  0  0  0  0  0  0  0  0
   39.0450   24.6570   33.8410 H   0  0  0  0  0  0  0  0  0  0  0  0
   39.8940   27.2590   35.4760 H   0  0  0  0  0  0  0  0  0  0  0  0
   39.9940   27.0510   33.6440 H   0  0  0  0  0  0  0  0  0  0  0  0
   37.4820   27.0400   35.2580 H   0  0  0  0  0  0  0  0  0  0  0  0
   37.9910   24.2950   38.1160 C   0  0  0  0  0  0  0  0  0  0  0  0
   38.8760   23.2040   38.3150 C   0  0  0  0  0  0  0  0  0  0  0  0
   39.7740   22.8730   37.2740 C   0  0  0  0  0  0  0  0  0  0  0  0
   39.7430   23.6230   36.1320 N   0  0  0  0  0  0  0  0  0  0  0  0
   38.8890   24.6440   35.9900 C   0  0  0  0  0  0  0  0  0  0  0  0
   38.0080   25.0040   36.9530 N   0  0  0  0  0  0  0  0  0  0  0  0
   37.3130   24.5250   38.9450 H   0  0  0  0  0  0  0  0  0  0  0  0
   38.9270   22.6060   39.1890 H   0  0  0  0  0  0  0  0  0  0  0  0
   40.4880   22.0690   37.3150 H   0  0  0  0  0  0  0  0  0  0  0  0
   36.4720   27.6920   32.9780 C   0  0  0  0  0  0  0  0  0  0  0  0
   36.1690   28.4670   33.8930 O   0  0  0  0  0  0  0  0  0  0  0  0
   37.4850   26.6530   33.1290 N   0  0  0  0  0  0  0  0  0  0  0  0
   37.9230   25.9640   32.4450 H   0  0  0  0  0  0  0  0  0  0  0  0
   36.6530   29.3300   30.0420 H   0  0  0  0  0  0  0  0  0  0  0  0
   36.4870   28.5430   30.7970 C   0  0  0  0  0  0  0  0  0  0  0  0
   36.9090   29.6540   31.2750 O   0  0  0  0  0  0  0  0  0  0  0  0
   36.1930   27.3380   31.6150 N   0  0  0  0  0  0  0  0  0  0  0  0
   36.0070   27.1020   30.7060 H   0  0  0  0  0  0  0  0  0  0  0  0
  1  4  1  6  0  0  0
  1 12  1  0  0  0  0
  2  1  1  0  0  0  0
  2  5  1  0  0  0  0
  3  2  1  0  0  0  0
  3  1  1  0  0  0  0
  3  7  1  1  0  0  0
  6  2  1  0  0  0  0
  8  9  1  0  0  0  0
  8 14  1  0  0  0  0
  9 15  1  0  0  0  0
 10 16  1  0  0  0  0
 10  9  2  0  0  0  0
 11 10  1  0  0  0  0
 12 11  2  0  0  0  0
 12 13  1  0  0  0  0
 13  8  2  0  0  0  0
 17 19  1  0  0  0  0
 17 18  2  0  0  0  0
 19  3  1  0  0  0  0
 20 19  1  0  0  0  0
 21 22  1  0  0  0  0
 22 23  2  0  0  0  0
 22 24  1  0  0  0  0
 24 17  1  0  0  0  0
 25 24  1  0  0  0  0
M  END
>  <minimizedAffinity>
-4.14277792

$$$$

 OpenBabel03272508523D

 25 26  0  0  1  0  0  0  0  0999 V2000
   37.8610   27.0190   34.3790 C   0  0  2  0  0  0  0  0  0  0  0  0
   38.7890   27.3430   35.4580 C   0  0  0  0  0  0  0  0  0  0  0  0
   38.5910   25.9000   34.9530 C   0  0  1  0  0  0  0  0  0  0  0  0
   36.7360   27.0480   34.5920 H   0  0  0  0  0  0  0  0  0  0  0  0
   39.7710   27.7920   35.2230 H   0  0  0  0  0  0  0  0  0  0  0  0
   38.4450   27.5030   36.4740 H   0  0  0  0  0  0  0  0  0  0  0  0
   39.4990   25.4680   34.5610 H   0  0  0  0  0  0  0  0  0  0  0  0
   39.4450   27.4320   31.0520 C   0  0  0  0  0  0  0  0  0  0  0  0
   38.4350   28.1330   30.3450 C   0  0  0  0  0  0  0  0  0  0  0  0
   37.2360   28.4460   31.0250 C   0  0  0  0  0  0  0  0  0  0  0  0
   37.1130   28.0560   32.3290 N   0  0  0  0  0  0  0  0  0  0  0  0
   38.0940   27.3940   32.9560 C   0  0  0  0  0  0  0  0  0  0  0  0
   39.2620   27.0690   32.3530 N   0  0  0  0  0  0  0  0  0  0  0  0
   40.3610   27.2100   30.4940 H   0  0  0  0  0  0  0  0  0  0  0  0
   38.5000   28.4520   29.3350 H   0  0  0  0  0  0  0  0  0  0  0  0
   36.4050   28.9740   30.5900 H   0  0  0  0  0  0  0  0  0  0  0  0
   38.5750   23.8760   36.3660 C   0  0  0  0  0  0  0  0  0  0  0  0
   39.7640   23.6730   36.0920 O   0  0  0  0  0  0  0  0  0  0  0  0
   37.8480   25.0480   35.8930 N   0  0  0  0  0  0  0  0  0  0  0  0
   36.8690   25.4210   36.0890 H   0  0  0  0  0  0  0  0  0  0  0  0
   37.9500   23.1140   39.5850 H   0  0  0  0  0  0  0  0  0  0  0  0
   37.8330   23.2540   38.4970 C   0  0  0  0  0  0  0  0  0  0  0  0
   38.9810   23.5910   38.9540 O   0  0  0  0  0  0  0  0  0  0  0  0
   37.4380   23.3510   37.0680 N   0  0  0  0  0  0  0  0  0  0  0  0
   36.6800   23.0010   37.5360 H   0  0  0  0  0  0  0  0  0  0  0  0
  1  4  1  1  0  0  0
  1  3  1  0  0  0  0
  1  2  1  0  0  0  0
  2  6  1  0  0  0  0
  3  7  1  6  0  0  0
  3  2  1  0  0  0  0
  3 19  1  0  0  0  0
  5  2  1  0  0  0  0
  8 13  1  0  0  0  0
  9 10  1  0  0  0  0
  9  8  2  0  0  0  0
 10 11  2  0  0  0  0
 11 12  1  0  0  0  0
 12  1  1  0  0  0  0
 13 12  2  0  0  0  0
 14  8  1  0  0  0  0
 15  9  1  0  0  0  0
 16 10  1  0  0  0  0
 17 24  1  0  0  0  0
 18 17  2  0  0  0  0
 19 20  1  0  0  0  0
 19 17  1  0  0  0  0
 22 23  2  0  0  0  0
 22 21  1  0  0  0  0
 24 25  1  0  0  0  0
 24 22  1  0  0  0  0
M  END
>  <minimizedAffinity>
-4.1401577

$$$$

 OpenBabel03272508523D

 25 26  0  0  1  0  0  0  0  0999 V2000
   38.9230   25.6640   34.7360 C   0  0  2  0  0  0  0  0  0  0  0  0
   39.5650   26.9740   34.6980 C   0  0  0  0  0  0  0  0  0  0  0  0
   38.0320   26.8100   34.6540 C   0  0  1  0  0  0  0  0  0  0  0  0
   38.9730   24.9990   33.8050 H   0  0  0  0  0  0  0  0  0  0  0  0
   39.9630   27.4190   35.6280 H   0  0  0  0  0  0  0  0  0  0  0  0
   39.9890   27.3720   33.7830 H   0  0  0  0  0  0  0  0  0  0  0  0
   37.5390   27.2890   35.4870 H   0  0  0  0  0  0  0  0  0  0  0  0
   39.6610   22.9520   37.1540 C   0  0  0  0  0  0  0  0  0  0  0  0
   38.7620   23.2620   38.2080 C   0  0  0  0  0  0  0  0  0  0  0  0
   37.9270   24.3940   38.0630 C   0  0  0  0  0  0  0  0  0  0  0  0
   38.0300   25.1290   36.9160 N   0  0  0  0  0  0  0  0  0  0  0  0
   38.8950   24.7980   35.9480 C   0  0  0  0  0  0  0  0  0  0  0  0
   39.7160   23.7260   36.0340 N   0  0  0  0  0  0  0  0  0  0  0  0
   40.2890   22.0660   37.3000 H   0  0  0  0  0  0  0  0  0  0  0  0
   38.6570   22.7110   39.1080 H   0  0  0  0  0  0  0  0  0  0  0  0
   37.2100   24.7230   38.7950 H   0  0  0  0  0  0  0  0  0  0  0  0
   36.2850   27.9690   33.3520 C   0  0  0  0  0  0  0  0  0  0  0  0
   35.8820   28.5240   34.3810 O   0  0  0  0  0  0  0  0  0  0  0  0
   37.4510   27.0940   33.3340 N   0  0  0  0  0  0  0  0  0  0  0  0
   37.9790   26.6060   32.5470 H   0  0  0  0  0  0  0  0  0  0  0  0
   36.1440   30.0770   30.7310 H   0  0  0  0  0  0  0  0  0  0  0  0
   36.1210   29.1600   31.3440 C   0  0  0  0  0  0  0  0  0  0  0  0
   36.3710   30.2300   32.0020 O   0  0  0  0  0  0  0  0  0  0  0  0
   36.0370   27.8050   31.9470 N   0  0  0  0  0  0  0  0  0  0  0  0
   35.8720   27.6960   31.0100 H   0  0  0  0  0  0  0  0  0  0  0  0
  1  4  1  6  0  0  0
  1 12  1  0  0  0  0
  2  1  1  0  0  0  0
  2  5  1  0  0  0  0
  3  2  1  0  0  0  0
  3  1  1  0  0  0  0
  3  7  1  1  0  0  0
  6  2  1  0  0  0  0
  8 14  1  0  0  0  0
  8  9  1  0  0  0  0
  9 15  1  0  0  0  0
 10  9  2  0  0  0  0
 10 16  1  0  0  0  0
 11 10  1  0  0  0  0
 12 13  1  0  0  0  0
 12 11  2  0  0  0  0
 13  8  2  0  0  0  0
 17 18  2  0  0  0  0
 19 17  1  0  0  0  0
 19  3  1  0  0  0  0
 20 19  1  0  0  0  0
 21 22  1  0  0  0  0
 22 24  1  0  0  0  0
 22 23  2  0  0  0  0
 24 17  1  0  0  0  0
 25 24  1  0  0  0  0
M  END
>  <minimizedAffinity>
-4.12534428

$$$$

 OpenBabel03272508523D

 25 26  0  0  1  0  0  0  0  0999 V2000
   35.1930   29.1470   34.2530 C   0  0  2  0  0  0  0  0  0  0  0  0
   34.2190   29.9660   33.5380 C   0  0  0  0  0  0  0  0  0  0  0  0
   35.3160   30.5860   34.4250 C   0  0  1  0  0  0  0  0  0  0  0  0
   34.8490   28.5590   35.1730 H   0  0  0  0  0  0  0  0  0  0  0  0
   34.3370   30.1400   32.4530 H   0  0  0  0  0  0  0  0  0  0  0  0
   33.2130   30.1130   33.9180 H   0  0  0  0  0  0  0  0  0  0  0  0
   35.9800   31.2350   33.8730 H   0  0  0  0  0  0  0  0  0  0  0  0
   37.9580   26.7650   33.6020 C   0  0  0  0  0  0  0  0  0  0  0  0
   38.2830   27.0710   32.2550 C   0  0  0  0  0  0  0  0  0  0  0  0
   37.5440   28.0860   31.6040 C   0  0  0  0  0  0  0  0  0  0  0  0
   36.5570   28.7170   32.3060 N   0  0  0  0  0  0  0  0  0  0  0  0
   36.2860   28.3930   33.5760 C   0  0  0  0  0  0  0  0  0  0  0  0
   36.9610   27.4310   34.2480 N   0  0  0  0  0  0  0  0  0  0  0  0
   38.5530   25.9770   34.0750 H   0  0  0  0  0  0  0  0  0  0  0  0
   39.0440   26.6020   31.6840 H   0  0  0  0  0  0  0  0  0  0  0  0
   37.7030   28.4010   30.5870 H   0  0  0  0  0  0  0  0  0  0  0  0
   35.6010   32.2250   36.2480 C   0  0  0  0  0  0  0  0  0  0  0  0
   36.5650   32.7220   35.6540 O   0  0  0  0  0  0  0  0  0  0  0  0
   34.8050   31.1400   35.6870 N   0  0  0  0  0  0  0  0  0  0  0  0
   33.9140   30.6530   36.0100 H   0  0  0  0  0  0  0  0  0  0  0  0
   33.7550   34.6200   37.7300 H   0  0  0  0  0  0  0  0  0  0  0  0
   34.2550   33.6590   37.5180 C   0  0  0  0  0  0  0  0  0  0  0  0
   34.4600   34.5680   36.6380 O   0  0  0  0  0  0  0  0  0  0  0  0
   34.8210   32.2870   37.4510 N   0  0  0  0  0  0  0  0  0  0  0  0
   34.3010   32.3280   38.2540 H   0  0  0  0  0  0  0  0  0  0  0  0
  1  3  1  0  0  0  0
  1  4  1  1  0  0  0
  2  6  1  0  0  0  0
  2  1  1  0  0  0  0
  2  3  1  0  0  0  0
  3  7  1  6  0  0  0
  3 19  1  0  0  0  0
  5  2  1  0  0  0  0
  8 14  1  0  0  0  0
  8 13  1  0  0  0  0
  9  8  2  0  0  0  0
 10  9  1  0  0  0  0
 10 11  2  0  0  0  0
 11 12  1  0  0  0  0
 12 13  2  0  0  0  0
 12  1  1  0  0  0  0
 15  9  1  0  0  0  0
 16 10  1  0  0  0  0
 17 24  1  0  0  0  0
 18 17  2  0  0  0  0
 19 20  1  0  0  0  0
 19 17  1  0  0  0  0
 22 21  1  0  0  0  0
 23 22  2  0  0  0  0
 24 22  1  0  0  0  0
 24 25  1  0  0  0  0
M  END
>  <minimizedAffinity>
-4.12466383

$$$$

 OpenBabel03272508523D

 25 26  0  0  1  0  0  0  0  0999 V2000
   36.2720   23.7670   31.7630 C   0  0  2  0  0  0  0  0  0  0  0  0
   37.2110   24.5380   30.9550 C   0  0  0  0  0  0  0  0  0  0  0  0
   37.4410   24.2820   32.4580 C   0  0  1  0  0  0  0  0  0  0  0  0
   35.2690   24.2420   32.0470 H   0  0  0  0  0  0  0  0  0  0  0  0
   37.9110   24.0160   30.2780 H   0  0  0  0  0  0  0  0  0  0  0  0
   37.0280   25.5790   30.7110 H   0  0  0  0  0  0  0  0  0  0  0  0
   38.3530   23.7370   32.6520 H   0  0  0  0  0  0  0  0  0  0  0  0
   36.7400   20.2300   30.7540 C   0  0  0  0  0  0  0  0  0  0  0  0
   35.6660   19.5990   31.4330 C   0  0  0  0  0  0  0  0  0  0  0  0
   34.8090   20.4010   32.2210 C   0  0  0  0  0  0  0  0  0  0  0  0
   35.0610   21.7420   32.2870 N   0  0  0  0  0  0  0  0  0  0  0  0
   36.0890   22.2940   31.6280 C   0  0  0  0  0  0  0  0  0  0  0  0
   36.9390   21.5740   30.8600 N   0  0  0  0  0  0  0  0  0  0  0  0
   37.3800   19.5780   30.1500 H   0  0  0  0  0  0  0  0  0  0  0  0
   35.4420   18.5620   31.4000 H   0  0  0  0  0  0  0  0  0  0  0  0
   33.9650   20.0320   32.7770 H   0  0  0  0  0  0  0  0  0  0  0  0
   37.7240   25.3580   34.6610 C   0  0  0  0  0  0  0  0  0  0  0  0
   38.3690   24.3800   35.0580 O   0  0  0  0  0  0  0  0  0  0  0  0
   37.2330   25.4740   33.2930 N   0  0  0  0  0  0  0  0  0  0  0  0
   36.7420   26.2570   32.7630 H   0  0  0  0  0  0  0  0  0  0  0  0
   39.0340   28.2160   35.8660 H   0  0  0  0  0  0  0  0  0  0  0  0
   38.3160   27.4610   35.5010 C   0  0  0  0  0  0  0  0  0  0  0  0
   39.5370   27.0710   35.5100 O   0  0  0  0  0  0  0  0  0  0  0  0
   37.1730   26.6240   35.0540 N   0  0  0  0  0  0  0  0  0  0  0  0
   36.8060   27.4690   35.3160 H   0  0  0  0  0  0  0  0  0  0  0  0
  1  4  1  1  0  0  0
  1  3  1  0  0  0  0
  2  1  1  0  0  0  0
  2  3  1  0  0  0  0
  3  7  1  1  0  0  0
  3 19  1  0  0  0  0
  5  2  1  0  0  0  0
  6  2  1  0  0  0  0
  8 13  2  0  0  0  0
  8  9  1  0  0  0  0
  9 10  2  0  0  0  0
 10 11  1  0  0  0  0
 10 16  1  0  0  0  0
 12  1  1  0  0  0  0
 12 11  2  0  0  0  0
 13 12  1  0  0  0  0
 14  8  1  0  0  0  0
 15  9  1  0  0  0  0
 17 24  1  0  0  0  0
 17 18  2  0  0  0  0
 19 17  1  0  0  0  0
 20 19  1  0  0  0  0
 22 23  2  0  0  0  0
 22 21  1  0  0  0  0
 24 25  1  0  0  0  0
 24 22  1  0  0  0  0
M  END
>  <minimizedAffinity>
-4.03293514

$$$$

 OpenBabel03272508523D

 25 26  0  0  1  0  0  0  0  0999 V2000
   35.5590   29.0490   33.9430 C   0  0  2  0  0  0  0  0  0  0  0  0
   36.5050   28.0390   34.4050 C   0  0  0  0  0  0  0  0  0  0  0  0
   36.3780   28.4230   32.9180 C   0  0  1  0  0  0  0  0  0  0  0  0
   34.4440   28.7920   33.9220 H   0  0  0  0  0  0  0  0  0  0  0  0
   37.4480   28.3490   34.8920 H   0  0  0  0  0  0  0  0  0  0  0  0
   36.1900   27.0240   34.6240 H   0  0  0  0  0  0  0  0  0  0  0  0
   37.2970   28.8200   32.5110 H   0  0  0  0  0  0  0  0  0  0  0  0
   35.8070   32.7200   33.4840 C   0  0  0  0  0  0  0  0  0  0  0  0
   36.0220   33.1570   34.8160 C   0  0  0  0  0  0  0  0  0  0  0  0
   36.0740   32.1820   35.8390 C   0  0  0  0  0  0  0  0  0  0  0  0
   35.9160   30.8710   35.4900 N   0  0  0  0  0  0  0  0  0  0  0  0
   35.7140   30.5060   34.2170 C   0  0  0  0  0  0  0  0  0  0  0  0
   35.6550   31.3970   33.1990 N   0  0  0  0  0  0  0  0  0  0  0  0
   35.7760   33.5030   32.7180 H   0  0  0  0  0  0  0  0  0  0  0  0
   36.1510   34.1650   35.1200 H   0  0  0  0  0  0  0  0  0  0  0  0
   36.2330   32.3970   36.8820 H   0  0  0  0  0  0  0  0  0  0  0  0
   36.6360   26.5530   31.3280 C   0  0  0  0  0  0  0  0  0  0  0  0
   37.8660   26.6270   31.4370 O   0  0  0  0  0  0  0  0  0  0  0  0
   35.7260   27.3900   32.1010 N   0  0  0  0  0  0  0  0  0  0  0  0
   34.6650   27.4100   32.1950 H   0  0  0  0  0  0  0  0  0  0  0  0
   35.6520   23.3410   31.1090 H   0  0  0  0  0  0  0  0  0  0  0  0
   35.7050   24.4350   30.9750 C   0  0  0  0  0  0  0  0  0  0  0  0
   36.6190   23.9490   31.7290 O   0  0  0  0  0  0  0  0  0  0  0  0
   35.5690   25.8770   30.6460 N   0  0  0  0  0  0  0  0  0  0  0  0
   34.8570   25.4260   30.1910 H   0  0  0  0  0  0  0  0  0  0  0  0
  1  4  1  6  0  0  0
  1 12  1  0  0  0  0
  1  2  1  0  0  0  0
  2  6  1  0  0  0  0
  2  5  1  0  0  0  0
  3  7  1  6  0  0  0
  3  1  1  0  0  0  0
  3  2  1  0  0  0  0
  8  9  1  0  0  0  0
  9 15  1  0  0  0  0
  9 10  2  0  0  0  0
 10 16  1  0  0  0  0
 11 10  1  0  0  0  0
 12 11  2  0  0  0  0
 13  8  2  0  0  0  0
 13 12  1  0  0  0  0
 14  8  1  0  0  0  0
 17 18  2  0  0  0  0
 17 19  1  0  0  0  0
 19 20  1  0  0  0  0
 19  3  1  0  0  0  0
 22 21  1  0  0  0  0
 22 23  2  0  0  0  0
 24 22  1  0  0  0  0
 24 17  1  0  0  0  0
 25 24  1  0  0  0  0
M  END
>  <minimizedAffinity>
-3.93297553

$$$$
