
 OpenBabel03262523303D

 29 31  0  0  0  0  0  0  0  0999 V2000
   37.3190   29.3420   50.6390 C   0  0  0  0  0  0  0  0  0  0  0  0
   37.8820   30.1160   49.6380 C   0  0  0  0  0  0  0  0  0  0  0  0
   37.2360   30.1880   48.3980 C   0  0  0  0  0  0  0  0  0  0  0  0
   36.0670   29.4890   48.2200 N   0  0  0  0  0  0  0  0  0  0  0  0
   35.5520   28.7450   49.2290 C   0  0  0  0  0  0  0  0  0  0  0  0
   36.1710   28.6740   50.4200 N   0  0  0  0  0  0  0  0  0  0  0  0
   37.8190   29.2930   51.5820 H   0  0  0  0  0  0  0  0  0  0  0  0
   38.8010   30.6650   49.7770 H   0  0  0  0  0  0  0  0  0  0  0  0
   37.1070   30.7530   46.0450 C   0  0  0  0  0  0  0  0  0  0  0  0
   37.7330   30.9660   47.2790 C   0  0  0  0  0  0  0  0  0  0  0  0
   38.7680   31.8780   47.3880 C   0  0  0  0  0  0  0  0  0  0  0  0
   39.1610   32.5640   46.2570 C   0  0  0  0  0  0  0  0  0  0  0  0
   40.1280   33.4900   46.1090 N   0  0  0  0  0  0  0  0  0  0  0  0
   40.1240   33.8630   44.8140 C   0  0  0  0  0  0  0  0  0  0  0  0
   39.1830   33.2000   44.1420 N   0  0  0  0  0  0  0  0  0  0  0  0
   38.5590   32.3770   45.0160 C   0  0  0  0  0  0  0  0  0  0  0  0
   37.5210   31.4570   44.9210 C   0  0  0  0  0  0  0  0  0  0  0  0
   36.2920   30.0550   45.8880 H   0  0  0  0  0  0  0  0  0  0  0  0
   39.2460   32.0390   48.3330 H   0  0  0  0  0  0  0  0  0  0  0  0
   40.7960   33.9010   46.7950 H   0  0  0  0  0  0  0  0  0  0  0  0
   40.7500   34.5860   44.2930 H   0  0  0  0  0  0  0  0  0  0  0  0
   37.0400   31.3010   43.9480 H   0  0  0  0  0  0  0  0  0  0  0  0
   34.3090   28.0320   48.9680 C   0  0  0  0  0  0  0  0  0  0  0  0
   34.3030   26.9270   48.3790 O   0  0  0  0  0  0  0  0  0  0  0  0
   32.4400   30.3150   50.8000 H   0  0  0  0  0  0  0  0  0  0  0  0
   33.2040   29.7250   50.3470 C   0  0  0  0  0  0  0  0  0  0  0  0
   34.3320   30.1340   50.7840 O   0  0  0  0  0  0  0  0  0  0  0  0
   33.1070   28.6530   49.4150 N   0  0  0  0  0  0  0  0  0  0  0  0
   32.1280   28.4140   49.1380 H   0  0  0  0  0  0  0  0  0  0  0  0
  1  7  1  0  0  0  0
  2  8  1  0  0  0  0
  2  1  2  0  0  0  0
  3  2  1  0  0  0  0
  4  3  2  0  0  0  0
  4  5  1  0  0  0  0
  5  6  2  0  0  0  0
  6  1  1  0  0  0  0
  9 10  1  0  0  0  0
 10 11  2  0  0  0  0
 10  3  1  0  0  0  0
 11 19  1  0  0  0  0
 12 11  1  0  0  0  0
 13 12  1  0  0  0  0
 13 20  1  0  0  0  0
 14 13  1  0  0  0  0
 15 14  2  0  0  0  0
 15 16  1  0  0  0  0
 16 12  2  0  0  0  0
 17 16  1  0  0  0  0
 17  9  2  0  0  0  0
 18  9  1  0  0  0  0
 21 14  1  0  0  0  0
 22 17  1  0  0  0  0
 23  5  1  0  0  0  0
 23 28  1  0  0  0  0
 24 23  2  0  0  0  0
 26 27  2  0  0  0  0
 26 25  1  0  0  0  0
 28 26  1  0  0  0  0
 29 28  1  0  0  0  0
M  END
>  <minimizedAffinity>
-5.45553493

>  <minimizedRMSD>
0.928431511

$$$$
