
 OpenBabel03272506213D

 40 42  0  0  1  0  0  0  0  0999 V2000
   39.5280   23.9690   35.5180 C   0  0  2  0  0  0  0  0  0  0  0  0
   40.9810   24.2480   35.1530 C   0  0  0  0  0  0  0  0  0  0  0  0
   41.9050   23.1310   35.4740 C   0  0  0  0  0  0  0  0  0  0  0  0
   41.7910   22.6430   36.8950 C   0  0  0  0  0  0  0  0  0  0  0  0
   40.3940   22.6030   37.4090 C   0  0  0  0  0  0  0  0  0  0  0  0
   39.3710   22.7200   36.2880 C   0  0  1  0  0  0  0  0  0  0  0  0
   39.1300   24.8460   36.0650 H   0  0  0  0  0  0  0  0  0  0  0  0
   41.0820   24.4540   34.0660 H   0  0  0  0  0  0  0  0  0  0  0  0
   41.3070   25.1750   35.6600 H   0  0  0  0  0  0  0  0  0  0  0  0
   41.6680   22.2630   34.8050 H   0  0  0  0  0  0  0  0  0  0  0  0
   42.9360   23.4980   35.3300 H   0  0  0  0  0  0  0  0  0  0  0  0
   42.4660   23.1720   37.5910 H   0  0  0  0  0  0  0  0  0  0  0  0
   42.1790   21.5830   36.8940 H   0  0  0  0  0  0  0  0  0  0  0  0
   40.1390   21.6900   37.9790 H   0  0  0  0  0  0  0  0  0  0  0  0
   40.2500   23.4410   38.1340 H   0  0  0  0  0  0  0  0  0  0  0  0
   39.5910   21.8380   35.6220 H   0  0  0  0  0  0  0  0  0  0  0  0
   38.7380   23.8360   34.2520 C   0  0  0  0  0  0  0  0  0  0  0  0
   38.6610   24.9790   33.4540 C   0  0  0  0  0  0  0  0  0  0  0  0
   37.9150   24.8680   32.2670 C   0  0  0  0  0  0  0  0  0  0  0  0
   37.3070   23.6690   31.9490 N   0  0  0  0  0  0  0  0  0  0  0  0
   37.4160   22.5820   32.7680 C   0  0  0  0  0  0  0  0  0  0  0  0
   38.1190   22.6730   33.8950 N   0  0  0  0  0  0  0  0  0  0  0  0
   37.7820   25.9670   31.3850 N   0  0  0  0  0  0  0  0  0  0  0  0
   38.8730   26.5530   30.8010 C   0  0  0  0  0  0  0  0  0  0  0  0
   38.6970   27.6290   29.9410 C   0  0  0  0  0  0  0  0  0  0  0  0
   37.4340   28.0780   29.6970 C   0  0  0  0  0  0  0  0  0  0  0  0
   37.3190   29.0520   28.9130 O   0  0  0  0  0  0  0  0  0  0  0  0
   36.3750   27.4910   30.2780 N   0  0  0  0  0  0  0  0  0  0  0  0
   36.5790   26.4560   31.1020 C   0  0  0  0  0  0  0  0  0  0  0  0
   35.5070   25.9820   31.5920 O   0  0  0  0  0  0  0  0  0  0  0  0
   39.1000   25.9320   33.6350 H   0  0  0  0  0  0  0  0  0  0  0  0
   36.9290   21.6560   32.4960 H   0  0  0  0  0  0  0  0  0  0  0  0
   39.8430   26.1250   31.0560 H   0  0  0  0  0  0  0  0  0  0  0  0
   39.6270   28.0120   29.5380 H   0  0  0  0  0  0  0  0  0  0  0  0
   35.4320   27.8850   30.0470 H   0  0  0  0  0  0  0  0  0  0  0  0
   36.5740   23.3770   38.3360 H   0  0  0  0  0  0  0  0  0  0  0  0
   37.5260   23.3730   37.8370 C   0  0  0  0  0  0  0  0  0  0  0  0
   37.9090   24.3640   38.5430 O   0  0  0  0  0  0  0  0  0  0  0  0
   38.0520   22.5300   36.7960 N   0  0  0  0  0  0  0  0  0  0  0  0
   37.3600   21.8110   36.4990 H   0  0  0  0  0  0  0  0  0  0  0  0
  1  7  1  1  0  0  0
  1  6  1  0  0  0  0
  2  3  1  0  0  0  0
  2  1  1  0  0  0  0
  2  9  1  0  0  0  0
  3  4  1  0  0  0  0
  4  5  1  0  0  0  0
  4 12  1  0  0  0  0
  5 14  1  0  0  0  0
  5 15  1  0  0  0  0
  6 16  1  6  0  0  0
  6 39  1  0  0  0  0
  6  5  1  0  0  0  0
  8  2  1  0  0  0  0
 10  3  1  0  0  0  0
 11  3  1  0  0  0  0
 13  4  1  0  0  0  0
 17  1  1  0  0  0  0
 18 31  1  0  0  0  0
 18 17  2  0  0  0  0
 19 18  1  0  0  0  0
 20 19  2  0  0  0  0
 20 21  1  0  0  0  0
 21 22  2  0  0  0  0
 22 17  1  0  0  0  0
 23 19  1  0  0  0  0
 24 33  1  0  0  0  0
 24 23  1  0  0  0  0
 25 24  2  0  0  0  0
 26 25  1  0  0  0  0
 26 28  1  0  0  0  0
 27 26  2  0  0  0  0
 28 29  1  0  0  0  0
 29 23  1  0  0  0  0
 29 30  2  0  0  0  0
 32 21  1  0  0  0  0
 34 25  1  0  0  0  0
 35 28  1  0  0  0  0
 37 36  1  0  0  0  0
 37 38  2  0  0  0  0
 39 37  1  0  0  0  0
 40 39  1  0  0  0  0
M  END
>  <minimizedAffinity>
-5.94239712

$$$$

 OpenBabel03272506213D

 40 42  0  0  1  0  0  0  0  0999 V2000
   36.9470   27.9480   32.3070 C   0  0  2  0  0  0  0  0  0  0  0  0
   36.4510   28.5260   33.6280 C   0  0  0  0  0  0  0  0  0  0  0  0
   35.1000   29.1360   33.5450 C   0  0  0  0  0  0  0  0  0  0  0  0
   34.9590   30.1400   32.4300 C   0  0  0  0  0  0  0  0  0  0  0  0
   35.6600   29.7510   31.1750 C   0  0  0  0  0  0  0  0  0  0  0  0
   36.0600   28.2820   31.1770 C   0  0  1  0  0  0  0  0  0  0  0  0
   37.9840   28.2990   32.1390 H   0  0  0  0  0  0  0  0  0  0  0  0
   36.4070   27.7390   34.4110 H   0  0  0  0  0  0  0  0  0  0  0  0
   37.1860   29.2660   33.9930 H   0  0  0  0  0  0  0  0  0  0  0  0
   34.3480   28.3250   33.3580 H   0  0  0  0  0  0  0  0  0  0  0  0
   34.9140   29.6650   34.4950 H   0  0  0  0  0  0  0  0  0  0  0  0
   35.2150   31.1690   32.7380 H   0  0  0  0  0  0  0  0  0  0  0  0
   33.8550   30.1940   32.1950 H   0  0  0  0  0  0  0  0  0  0  0  0
   35.0780   29.9220   30.2500 H   0  0  0  0  0  0  0  0  0  0  0  0
   36.5730   30.3850   31.0580 H   0  0  0  0  0  0  0  0  0  0  0  0
   35.0830   27.7320   31.2910 H   0  0  0  0  0  0  0  0  0  0  0  0
   36.9960   26.4550   32.4320 C   0  0  0  0  0  0  0  0  0  0  0  0
   37.7150   25.9540   33.5200 C   0  0  0  0  0  0  0  0  0  0  0  0
   37.7760   24.5550   33.6420 C   0  0  0  0  0  0  0  0  0  0  0  0
   37.1400   23.7570   32.7100 N   0  0  0  0  0  0  0  0  0  0  0  0
   36.4510   24.3030   31.6650 C   0  0  0  0  0  0  0  0  0  0  0  0
   36.3860   25.6260   31.5370 N   0  0  0  0  0  0  0  0  0  0  0  0
   38.4730   23.9460   34.7130 N   0  0  0  0  0  0  0  0  0  0  0  0
   38.1260   24.1780   36.0160 C   0  0  0  0  0  0  0  0  0  0  0  0
   38.8360   23.5600   37.0370 C   0  0  0  0  0  0  0  0  0  0  0  0
   39.8690   22.7320   36.7130 C   0  0  0  0  0  0  0  0  0  0  0  0
   40.4850   22.1930   37.6650 O   0  0  0  0  0  0  0  0  0  0  0  0
   40.1950   22.5150   35.4290 N   0  0  0  0  0  0  0  0  0  0  0  0
   39.4900   23.1260   34.4690 C   0  0  0  0  0  0  0  0  0  0  0  0
   39.8880   22.8470   33.2960 O   0  0  0  0  0  0  0  0  0  0  0  0
   38.2290   26.5050   34.2710 H   0  0  0  0  0  0  0  0  0  0  0  0
   35.9630   23.6550   30.9490 H   0  0  0  0  0  0  0  0  0  0  0  0
   37.2860   24.8560   36.1780 H   0  0  0  0  0  0  0  0  0  0  0  0
   38.4760   23.8150   38.0260 H   0  0  0  0  0  0  0  0  0  0  0  0
   40.9980   21.8660   35.2490 H   0  0  0  0  0  0  0  0  0  0  0  0
   38.2440   28.4690   28.4120 H   0  0  0  0  0  0  0  0  0  0  0  0
   37.7170   28.6060   29.3390 C   0  0  0  0  0  0  0  0  0  0  0  0
   38.4900   29.5730   29.6450 O   0  0  0  0  0  0  0  0  0  0  0  0
   36.5930   27.9100   29.9080 N   0  0  0  0  0  0  0  0  0  0  0  0
   36.2590   27.1460   29.2830 H   0  0  0  0  0  0  0  0  0  0  0  0
  1  7  1  6  0  0  0
  1 17  1  0  0  0  0
  1  2  1  0  0  0  0
  2  9  1  0  0  0  0
  2  8  1  0  0  0  0
  3  2  1  0  0  0  0
  3 11  1  0  0  0  0
  4 12  1  0  0  0  0
  4  3  1  0  0  0  0
  5  6  1  0  0  0  0
  5  4  1  0  0  0  0
  6 16  1  1  0  0  0
  6  1  1  0  0  0  0
 10  3  1  0  0  0  0
 13  4  1  0  0  0  0
 14  5  1  0  0  0  0
 15  5  1  0  0  0  0
 17 18  1  0  0  0  0
 18 19  2  0  0  0  0
 18 31  1  0  0  0  0
 19 23  1  0  0  0  0
 20 19  1  0  0  0  0
 21 20  2  0  0  0  0
 22 21  1  0  0  0  0
 22 17  2  0  0  0  0
 23 24  1  0  0  0  0
 24 33  1  0  0  0  0
 24 25  2  0  0  0  0
 25 34  1  0  0  0  0
 26 25  1  0  0  0  0
 26 27  2  0  0  0  0
 28 26  1  0  0  0  0
 29 23  1  0  0  0  0
 29 28  1  0  0  0  0
 30 29  2  0  0  0  0
 32 21  1  0  0  0  0
 35 28  1  0  0  0  0
 36 37  1  0  0  0  0
 37 38  2  0  0  0  0
 37 39  1  0  0  0  0
 39  6  1  0  0  0  0
 40 39  1  0  0  0  0
M  END
>  <minimizedAffinity>
-5.7299161

$$$$

 OpenBabel03272506213D

 40 42  0  0  1  0  0  0  0  0999 V2000
   37.5930   26.6020   34.4450 C   0  0  2  0  0  0  0  0  0  0  0  0
   38.7490   27.0930   35.3090 C   0  0  0  0  0  0  0  0  0  0  0  0
   40.0890   26.7720   34.7560 C   0  0  0  0  0  0  0  0  0  0  0  0
   40.2620   25.3180   34.3990 C   0  0  0  0  0  0  0  0  0  0  0  0
   39.0540   24.7000   33.7850 C   0  0  0  0  0  0  0  0  0  0  0  0
   38.0450   25.7460   33.3320 C   0  0  1  0  0  0  0  0  0  0  0  0
   36.8630   26.0840   35.0970 H   0  0  0  0  0  0  0  0  0  0  0  0
   38.7040   28.1950   35.4400 H   0  0  0  0  0  0  0  0  0  0  0  0
   38.6410   26.6700   36.3250 H   0  0  0  0  0  0  0  0  0  0  0  0
   40.2440   27.3650   33.8170 H   0  0  0  0  0  0  0  0  0  0  0  0
   40.8370   27.0150   35.5300 H   0  0  0  0  0  0  0  0  0  0  0  0
   40.6520   24.7090   35.2330 H   0  0  0  0  0  0  0  0  0  0  0  0
   41.0860   25.2820   33.6270 H   0  0  0  0  0  0  0  0  0  0  0  0
   39.2600   24.0550   32.9090 H   0  0  0  0  0  0  0  0  0  0  0  0
   38.5750   24.0200   34.5320 H   0  0  0  0  0  0  0  0  0  0  0  0
   38.6140   26.3700   32.5850 H   0  0  0  0  0  0  0  0  0  0  0  0
   36.9000   27.7960   33.8600 C   0  0  0  0  0  0  0  0  0  0  0  0
   36.2860   28.6560   34.7720 C   0  0  0  0  0  0  0  0  0  0  0  0
   35.6250   29.7750   34.2340 C   0  0  0  0  0  0  0  0  0  0  0  0
   35.6110   29.9700   32.8660 N   0  0  0  0  0  0  0  0  0  0  0  0
   36.2290   29.0940   32.0210 C   0  0  0  0  0  0  0  0  0  0  0  0
   36.8580   28.0310   32.5160 N   0  0  0  0  0  0  0  0  0  0  0  0
   34.9770   30.7120   35.0730 N   0  0  0  0  0  0  0  0  0  0  0  0
   35.6640   31.4120   36.0290 C   0  0  0  0  0  0  0  0  0  0  0  0
   34.9900   32.3220   36.8310 C   0  0  0  0  0  0  0  0  0  0  0  0
   33.6510   32.4990   36.6460 C   0  0  0  0  0  0  0  0  0  0  0  0
   33.0790   33.3320   37.3920 O   0  0  0  0  0  0  0  0  0  0  0  0
   32.9940   31.8050   35.7030 N   0  0  0  0  0  0  0  0  0  0  0  0
   33.6730   30.9350   34.9470 C   0  0  0  0  0  0  0  0  0  0  0  0
   32.9490   30.3380   34.0910 O   0  0  0  0  0  0  0  0  0  0  0  0
   36.2550   28.5690   35.8320 H   0  0  0  0  0  0  0  0  0  0  0  0
   36.2020   29.2700   30.9540 H   0  0  0  0  0  0  0  0  0  0  0  0
   36.7320   31.2030   36.1030 H   0  0  0  0  0  0  0  0  0  0  0  0
   35.6310   32.8170   37.5510 H   0  0  0  0  0  0  0  0  0  0  0  0
   31.9660   31.9900   35.6120 H   0  0  0  0  0  0  0  0  0  0  0  0
   36.4700   24.1820   30.5890 H   0  0  0  0  0  0  0  0  0  0  0  0
   37.1500   24.6610   31.2700 C   0  0  0  0  0  0  0  0  0  0  0  0
   38.0750   24.6140   30.3930 O   0  0  0  0  0  0  0  0  0  0  0  0
   36.9750   25.1300   32.6200 N   0  0  0  0  0  0  0  0  0  0  0  0
   36.0070   24.9560   32.9630 H   0  0  0  0  0  0  0  0  0  0  0  0
  1  7  1  1  0  0  0
  1  2  1  0  0  0  0
  2  8  1  0  0  0  0
  2  9  1  0  0  0  0
  3  2  1  0  0  0  0
  3 11  1  0  0  0  0
  4  3  1  0  0  0  0
  4 12  1  0  0  0  0
  5  4  1  0  0  0  0
  5 15  1  0  0  0  0
  6 16  1  6  0  0  0
  6  5  1  0  0  0  0
  6  1  1  0  0  0  0
 10  3  1  0  0  0  0
 13  4  1  0  0  0  0
 14  5  1  0  0  0  0
 17  1  1  0  0  0  0
 17 18  1  0  0  0  0
 18 31  1  0  0  0  0
 19 18  2  0  0  0  0
 19 23  1  0  0  0  0
 20 19  1  0  0  0  0
 21 22  1  0  0  0  0
 21 20  2  0  0  0  0
 22 17  2  0  0  0  0
 23 24  1  0  0  0  0
 24 33  1  0  0  0  0
 24 25  2  0  0  0  0
 25 34  1  0  0  0  0
 26 25  1  0  0  0  0
 26 27  2  0  0  0  0
 28 26  1  0  0  0  0
 29 23  1  0  0  0  0
 29 28  1  0  0  0  0
 30 29  2  0  0  0  0
 32 21  1  0  0  0  0
 35 28  1  0  0  0  0
 36 37  1  0  0  0  0
 37 39  1  0  0  0  0
 38 37  2  0  0  0  0
 39 40  1  0  0  0  0
 39  6  1  0  0  0  0
M  END
>  <minimizedAffinity>
-5.72370243

$$$$

 OpenBabel03272506213D

 40 42  0  0  1  0  0  0  0  0999 V2000
   39.6120   23.9580   35.8280 C   0  0  2  0  0  0  0  0  0  0  0  0
   41.0580   24.0720   35.3600 C   0  0  0  0  0  0  0  0  0  0  0  0
   41.8510   22.8320   35.5610 C   0  0  0  0  0  0  0  0  0  0  0  0
   41.7790   22.2900   36.9650 C   0  0  0  0  0  0  0  0  0  0  0  0
   40.4290   22.3980   37.5850 C   0  0  0  0  0  0  0  0  0  0  0  0
   39.3510   22.7010   36.5540 C   0  0  1  0  0  0  0  0  0  0  0  0
   39.3710   24.8490   36.4400 H   0  0  0  0  0  0  0  0  0  0  0  0
   41.1060   24.3190   34.2780 H   0  0  0  0  0  0  0  0  0  0  0  0
   41.5370   24.9220   35.8790 H   0  0  0  0  0  0  0  0  0  0  0  0
   41.4560   22.0360   34.8770 H   0  0  0  0  0  0  0  0  0  0  0  0
   42.9070   23.0740   35.3510 H   0  0  0  0  0  0  0  0  0  0  0  0
   42.5650   22.6930   37.6270 H   0  0  0  0  0  0  0  0  0  0  0  0
   42.0260   21.1900   36.8880 H   0  0  0  0  0  0  0  0  0  0  0  0
   40.1010   21.4960   38.1350 H   0  0  0  0  0  0  0  0  0  0  0  0
   40.4480   23.2090   38.3540 H   0  0  0  0  0  0  0  0  0  0  0  0
   39.4070   21.8340   35.8360 H   0  0  0  0  0  0  0  0  0  0  0  0
   38.7210   23.9910   34.6220 C   0  0  0  0  0  0  0  0  0  0  0  0
   38.4970   22.7650   33.9920 C   0  0  0  0  0  0  0  0  0  0  0  0
   37.6690   22.7860   32.8560 C   0  0  0  0  0  0  0  0  0  0  0  0
   37.1290   23.9810   32.4220 N   0  0  0  0  0  0  0  0  0  0  0  0
   37.3840   25.1510   33.0780 C   0  0  0  0  0  0  0  0  0  0  0  0
   38.1650   25.1470   34.1560 N   0  0  0  0  0  0  0  0  0  0  0  0
   37.3730   21.5960   32.1480 N   0  0  0  0  0  0  0  0  0  0  0  0
   36.7420   20.5420   32.7530 C   0  0  0  0  0  0  0  0  0  0  0  0
   36.4690   19.3940   32.0230 C   0  0  0  0  0  0  0  0  0  0  0  0
   36.8400   19.3430   30.7120 C   0  0  0  0  0  0  0  0  0  0  0  0
   36.5750   18.2860   30.0870 O   0  0  0  0  0  0  0  0  0  0  0  0
   37.4580   20.3860   30.1350 N   0  0  0  0  0  0  0  0  0  0  0  0
   37.7060   21.4780   30.8670 C   0  0  0  0  0  0  0  0  0  0  0  0
   38.2930   22.3980   30.2180 O   0  0  0  0  0  0  0  0  0  0  0  0
   38.8790   21.8110   34.2670 H   0  0  0  0  0  0  0  0  0  0  0  0
   36.9480   26.0730   32.7170 H   0  0  0  0  0  0  0  0  0  0  0  0
   36.4830   20.6750   33.8050 H   0  0  0  0  0  0  0  0  0  0  0  0
   35.9680   18.6260   32.6000 H   0  0  0  0  0  0  0  0  0  0  0  0
   37.7150   20.2810   29.1240 H   0  0  0  0  0  0  0  0  0  0  0  0
   36.7700   23.6950   38.7450 H   0  0  0  0  0  0  0  0  0  0  0  0
   37.6810   23.5830   38.1860 C   0  0  0  0  0  0  0  0  0  0  0  0
   38.1960   24.5660   38.8140 O   0  0  0  0  0  0  0  0  0  0  0  0
   38.0590   22.6520   37.1560 N   0  0  0  0  0  0  0  0  0  0  0  0
   37.2890   21.9850   36.9410 H   0  0  0  0  0  0  0  0  0  0  0  0
  1  7  1  1  0  0  0
  1  6  1  0  0  0  0
  2  3  1  0  0  0  0
  2  1  1  0  0  0  0
  2  9  1  0  0  0  0
  3  4  1  0  0  0  0
  4  5  1  0  0  0  0
  4 12  1  0  0  0  0
  5 14  1  0  0  0  0
  5 15  1  0  0  0  0
  6 16  1  6  0  0  0
  6 39  1  0  0  0  0
  6  5  1  0  0  0  0
  8  2  1  0  0  0  0
 10  3  1  0  0  0  0
 11  3  1  0  0  0  0
 13  4  1  0  0  0  0
 17  1  1  0  0  0  0
 18 31  1  0  0  0  0
 18 17  2  0  0  0  0
 19 18  1  0  0  0  0
 20 19  2  0  0  0  0
 20 21  1  0  0  0  0
 21 22  2  0  0  0  0
 22 17  1  0  0  0  0
 23 24  1  0  0  0  0
 23 19  1  0  0  0  0
 24 33  1  0  0  0  0
 25 34  1  0  0  0  0
 25 24  2  0  0  0  0
 26 25  1  0  0  0  0
 27 26  2  0  0  0  0
 28 26  1  0  0  0  0
 28 29  1  0  0  0  0
 29 23  1  0  0  0  0
 30 29  2  0  0  0  0
 32 21  1  0  0  0  0
 35 28  1  0  0  0  0
 37 36  1  0  0  0  0
 37 38  2  0  0  0  0
 39 37  1  0  0  0  0
 40 39  1  0  0  0  0
M  END
>  <minimizedAffinity>
-5.68380165

$$$$

 OpenBabel03272506213D

 40 42  0  0  1  0  0  0  0  0999 V2000
   38.7900   22.1450   35.8070 C   0  0  2  0  0  0  0  0  0  0  0  0
   37.4630   22.6410   36.3700 C   0  0  0  0  0  0  0  0  0  0  0  0
   37.5980   23.8010   37.2870 C   0  0  0  0  0  0  0  0  0  0  0  0
   38.6040   23.5860   38.3880 C   0  0  0  0  0  0  0  0  0  0  0  0
   39.8270   22.8560   37.9540 C   0  0  0  0  0  0  0  0  0  0  0  0
   39.9500   22.8020   36.4380 C   0  0  1  0  0  0  0  0  0  0  0  0
   38.8270   21.0440   35.9170 H   0  0  0  0  0  0  0  0  0  0  0  0
   36.7780   22.9490   35.5520 H   0  0  0  0  0  0  0  0  0  0  0  0
   36.9550   21.8030   36.8820 H   0  0  0  0  0  0  0  0  0  0  0  0
   37.9380   24.6920   36.6960 H   0  0  0  0  0  0  0  0  0  0  0  0
   36.6160   23.9670   37.7620 H   0  0  0  0  0  0  0  0  0  0  0  0
   38.1640   23.1400   39.2970 H   0  0  0  0  0  0  0  0  0  0  0  0
   38.9280   24.6160   38.7210 H   0  0  0  0  0  0  0  0  0  0  0  0
   40.7760   23.2770   38.3370 H   0  0  0  0  0  0  0  0  0  0  0  0
   39.7930   21.8160   38.3620 H   0  0  0  0  0  0  0  0  0  0  0  0
   39.9840   23.8850   36.1260 H   0  0  0  0  0  0  0  0  0  0  0  0
   38.8250   22.4490   34.3400 C   0  0  0  0  0  0  0  0  0  0  0  0
   38.2690   23.6700   33.9530 C   0  0  0  0  0  0  0  0  0  0  0  0
   38.2890   23.9620   32.5780 C   0  0  0  0  0  0  0  0  0  0  0  0
   38.8410   23.0560   31.6930 N   0  0  0  0  0  0  0  0  0  0  0  0
   39.3710   21.8750   32.1280 C   0  0  0  0  0  0  0  0  0  0  0  0
   39.3590   21.5860   33.4280 N   0  0  0  0  0  0  0  0  0  0  0  0
   37.7570   25.1760   32.0820 N   0  0  0  0  0  0  0  0  0  0  0  0
   38.2500   26.3890   32.4830 C   0  0  0  0  0  0  0  0  0  0  0  0
   37.7000   27.5570   31.9720 C   0  0  0  0  0  0  0  0  0  0  0  0
   36.6750   27.4660   31.0780 C   0  0  0  0  0  0  0  0  0  0  0  0
   36.2060   28.5460   30.6400 O   0  0  0  0  0  0  0  0  0  0  0  0
   36.2040   26.2680   30.6960 N   0  0  0  0  0  0  0  0  0  0  0  0
   36.7570   25.1620   31.2080 C   0  0  0  0  0  0  0  0  0  0  0  0
   36.2320   24.0890   30.7760 O   0  0  0  0  0  0  0  0  0  0  0  0
   37.8270   24.4110   34.5750 H   0  0  0  0  0  0  0  0  0  0  0  0
   39.7970   21.1830   31.4140 H   0  0  0  0  0  0  0  0  0  0  0  0
   39.0710   26.3620   33.2010 H   0  0  0  0  0  0  0  0  0  0  0  0
   38.1670   28.4550   32.3560 H   0  0  0  0  0  0  0  0  0  0  0  0
   35.4160   26.2690   30.0060 H   0  0  0  0  0  0  0  0  0  0  0  0
   43.2930   22.8020   35.3070 H   0  0  0  0  0  0  0  0  0  0  0  0
   42.2970   23.0520   35.6250 C   0  0  0  0  0  0  0  0  0  0  0  0
   42.5420   24.2910   35.4440 O   0  0  0  0  0  0  0  0  0  0  0  0
   41.2010   22.2280   36.0610 N   0  0  0  0  0  0  0  0  0  0  0  0
   41.4550   21.2180   36.0550 H   0  0  0  0  0  0  0  0  0  0  0  0
  1  7  1  1  0  0  0
  1  2  1  0  0  0  0
  1  6  1  0  0  0  0
  2  9  1  0  0  0  0
  2  3  1  0  0  0  0
  3 11  1  0  0  0  0
  3  4  1  0  0  0  0
  4 13  1  0  0  0  0
  4 12  1  0  0  0  0
  5 14  1  0  0  0  0
  5 15  1  0  0  0  0
  5  4  1  0  0  0  0
  6 16  1  6  0  0  0
  6  5  1  0  0  0  0
  8  2  1  0  0  0  0
 10  3  1  0  0  0  0
 17  1  1  0  0  0  0
 18 17  1  0  0  0  0
 18 31  1  0  0  0  0
 19 18  2  0  0  0  0
 20 21  2  0  0  0  0
 20 19  1  0  0  0  0
 21 22  1  0  0  0  0
 22 17  2  0  0  0  0
 23 24  1  0  0  0  0
 23 19  1  0  0  0  0
 24 33  1  0  0  0  0
 25 34  1  0  0  0  0
 25 24  2  0  0  0  0
 26 25  1  0  0  0  0
 27 26  2  0  0  0  0
 28 26  1  0  0  0  0
 28 29  1  0  0  0  0
 29 23  1  0  0  0  0
 30 29  2  0  0  0  0
 32 21  1  0  0  0  0
 35 28  1  0  0  0  0
 36 37  1  0  0  0  0
 37 39  1  0  0  0  0
 38 37  2  0  0  0  0
 39  6  1  0  0  0  0
 40 39  1  0  0  0  0
M  END
>  <minimizedAffinity>
-5.62163544

$$$$

 OpenBabel03272506213D

 40 42  0  0  1  0  0  0  0  0999 V2000
   38.8220   23.1540   35.7580 C   0  0  2  0  0  0  0  0  0  0  0  0
   37.6560   23.6260   36.6180 C   0  0  0  0  0  0  0  0  0  0  0  0
   38.0700   24.2210   37.9150 C   0  0  0  0  0  0  0  0  0  0  0  0
   39.0060   23.3460   38.7080 C   0  0  0  0  0  0  0  0  0  0  0  0
   40.0170   22.6350   37.8770 C   0  0  0  0  0  0  0  0  0  0  0  0
   40.1110   23.2150   36.4720 C   0  0  1  0  0  0  0  0  0  0  0  0
   38.5970   22.1330   35.3940 H   0  0  0  0  0  0  0  0  0  0  0  0
   37.0560   24.3940   36.0840 H   0  0  0  0  0  0  0  0  0  0  0  0
   36.9680   22.7770   36.7870 H   0  0  0  0  0  0  0  0  0  0  0  0
   38.6070   25.1850   37.7150 H   0  0  0  0  0  0  0  0  0  0  0  0
   37.1600   24.3690   38.5200 H   0  0  0  0  0  0  0  0  0  0  0  0
   38.4810   22.6550   39.3900 H   0  0  0  0  0  0  0  0  0  0  0  0
   39.5690   24.0380   39.4020 H   0  0  0  0  0  0  0  0  0  0  0  0
   41.0420   22.6410   38.2940 H   0  0  0  0  0  0  0  0  0  0  0  0
   39.7410   21.5540   37.8160 H   0  0  0  0  0  0  0  0  0  0  0  0
   40.3980   24.2920   36.6390 H   0  0  0  0  0  0  0  0  0  0  0  0
   38.9150   24.0460   34.5570 C   0  0  0  0  0  0  0  0  0  0  0  0
   37.9180   25.0150   34.4330 C   0  0  0  0  0  0  0  0  0  0  0  0
   37.9910   25.8520   33.3050 C   0  0  0  0  0  0  0  0  0  0  0  0
   39.0150   25.6850   32.3930 N   0  0  0  0  0  0  0  0  0  0  0  0
   39.9640   24.7190   32.5650 C   0  0  0  0  0  0  0  0  0  0  0  0
   39.9070   23.9190   33.6280 N   0  0  0  0  0  0  0  0  0  0  0  0
   37.0320   26.8710   33.0910 N   0  0  0  0  0  0  0  0  0  0  0  0
   36.8490   27.8830   33.9950 C   0  0  0  0  0  0  0  0  0  0  0  0
   35.8990   28.8630   33.7450 C   0  0  0  0  0  0  0  0  0  0  0  0
   35.1660   28.7940   32.5980 C   0  0  0  0  0  0  0  0  0  0  0  0
   34.3170   29.7000   32.4110 O   0  0  0  0  0  0  0  0  0  0  0  0
   35.3590   27.7950   31.7230 N   0  0  0  0  0  0  0  0  0  0  0  0
   36.2830   26.8650   31.9930 C   0  0  0  0  0  0  0  0  0  0  0  0
   36.3780   25.9710   31.0960 O   0  0  0  0  0  0  0  0  0  0  0  0
   37.1020   25.1990   35.0920 H   0  0  0  0  0  0  0  0  0  0  0  0
   40.7550   24.6090   31.8350 H   0  0  0  0  0  0  0  0  0  0  0  0
   37.4820   27.8550   34.8830 H   0  0  0  0  0  0  0  0  0  0  0  0
   35.8400   29.6130   34.5250 H   0  0  0  0  0  0  0  0  0  0  0  0
   34.7630   27.8010   30.8610 H   0  0  0  0  0  0  0  0  0  0  0  0
   43.4770   22.6290   35.5890 H   0  0  0  0  0  0  0  0  0  0  0  0
   42.5530   22.9710   36.0220 C   0  0  0  0  0  0  0  0  0  0  0  0
   43.1970   23.7580   36.7920 O   0  0  0  0  0  0  0  0  0  0  0  0
   41.1860   22.6110   35.7560 N   0  0  0  0  0  0  0  0  0  0  0  0
   41.1180   21.8900   35.0080 H   0  0  0  0  0  0  0  0  0  0  0  0
  1  7  1  6  0  0  0
  1  6  1  0  0  0  0
  1  2  1  0  0  0  0
  2  9  1  0  0  0  0
  2  3  1  0  0  0  0
  3 11  1  0  0  0  0
  3  4  1  0  0  0  0
  4 12  1  0  0  0  0
  4 13  1  0  0  0  0
  5 14  1  0  0  0  0
  5  4  1  0  0  0  0
  6 16  1  1  0  0  0
  6  5  1  0  0  0  0
  8  2  1  0  0  0  0
 10  3  1  0  0  0  0
 15  5  1  0  0  0  0
 17  1  1  0  0  0  0
 18 17  1  0  0  0  0
 18 31  1  0  0  0  0
 19 18  2  0  0  0  0
 20 21  2  0  0  0  0
 20 19  1  0  0  0  0
 21 22  1  0  0  0  0
 22 17  2  0  0  0  0
 23 19  1  0  0  0  0
 23 24  1  0  0  0  0
 24 33  1  0  0  0  0
 25 24  2  0  0  0  0
 25 34  1  0  0  0  0
 26 25  1  0  0  0  0
 27 26  2  0  0  0  0
 28 29  1  0  0  0  0
 28 26  1  0  0  0  0
 29 23  1  0  0  0  0
 30 29  2  0  0  0  0
 32 21  1  0  0  0  0
 35 28  1  0  0  0  0
 36 37  1  0  0  0  0
 37 38  2  0  0  0  0
 39 37  1  0  0  0  0
 39  6  1  0  0  0  0
 40 39  1  0  0  0  0
M  END
>  <minimizedAffinity>
-5.6108923

$$$$

 OpenBabel03272506213D

 40 42  0  0  1  0  0  0  0  0999 V2000
   38.0790   27.3030   31.3230 C   0  0  2  0  0  0  0  0  0  0  0  0
   38.1400   27.2290   32.8440 C   0  0  0  0  0  0  0  0  0  0  0  0
   36.8330   27.4640   33.5090 C   0  0  0  0  0  0  0  0  0  0  0  0
   36.1450   28.7260   33.0570 C   0  0  0  0  0  0  0  0  0  0  0  0
   36.2790   28.9980   31.5990 C   0  0  0  0  0  0  0  0  0  0  0  0
   36.7710   27.7770   30.8340 C   0  0  1  0  0  0  0  0  0  0  0  0
   38.9110   27.9420   30.9700 H   0  0  0  0  0  0  0  0  0  0  0  0
   38.5020   26.2330   33.1770 H   0  0  0  0  0  0  0  0  0  0  0  0
   38.8920   27.9540   33.2080 H   0  0  0  0  0  0  0  0  0  0  0  0
   36.1480   26.6080   33.2700 H   0  0  0  0  0  0  0  0  0  0  0  0
   37.0210   27.5560   34.5920 H   0  0  0  0  0  0  0  0  0  0  0  0
   36.4150   29.6080   33.6630 H   0  0  0  0  0  0  0  0  0  0  0  0
   35.0450   28.5760   33.2710 H   0  0  0  0  0  0  0  0  0  0  0  0
   35.3470   29.3310   31.1050 H   0  0  0  0  0  0  0  0  0  0  0  0
   36.9960   29.8430   31.4530 H   0  0  0  0  0  0  0  0  0  0  0  0
   35.9870   26.9930   31.0370 H   0  0  0  0  0  0  0  0  0  0  0  0
   38.3090   25.9280   30.7730 C   0  0  0  0  0  0  0  0  0  0  0  0
   37.6090   24.8930   31.3970 C   0  0  0  0  0  0  0  0  0  0  0  0
   37.8230   23.5970   30.8940 C   0  0  0  0  0  0  0  0  0  0  0  0
   38.6910   23.4070   29.8360 N   0  0  0  0  0  0  0  0  0  0  0  0
   39.3500   24.4580   29.2650 C   0  0  0  0  0  0  0  0  0  0  0  0
   39.1570   25.6900   29.7310 N   0  0  0  0  0  0  0  0  0  0  0  0
   37.1560   22.4800   31.4500 N   0  0  0  0  0  0  0  0  0  0  0  0
   35.7900   22.3940   31.4600 C   0  0  0  0  0  0  0  0  0  0  0  0
   35.1760   21.2790   32.0160 C   0  0  0  0  0  0  0  0  0  0  0  0
   35.9540   20.2920   32.5420 C   0  0  0  0  0  0  0  0  0  0  0  0
   35.3590   19.3010   33.0350 O   0  0  0  0  0  0  0  0  0  0  0  0
   37.2930   20.3930   32.5230 N   0  0  0  0  0  0  0  0  0  0  0  0
   37.8530   21.4800   31.9800 C   0  0  0  0  0  0  0  0  0  0  0  0
   39.1230   21.4660   32.0190 O   0  0  0  0  0  0  0  0  0  0  0  0
   36.9290   24.9640   32.2120 H   0  0  0  0  0  0  0  0  0  0  0  0
   40.0250   24.2810   28.4380 H   0  0  0  0  0  0  0  0  0  0  0  0
   35.2520   23.2320   31.0170 H   0  0  0  0  0  0  0  0  0  0  0  0
   34.0940   21.3170   31.9700 H   0  0  0  0  0  0  0  0  0  0  0  0
   37.8320   19.5980   32.9440 H   0  0  0  0  0  0  0  0  0  0  0  0
   37.7400   29.3190   27.8120 H   0  0  0  0  0  0  0  0  0  0  0  0
   37.6210   29.0010   28.8320 C   0  0  0  0  0  0  0  0  0  0  0  0
   38.5290   29.8180   29.2010 O   0  0  0  0  0  0  0  0  0  0  0  0
   36.7470   28.0280   29.4300 N   0  0  0  0  0  0  0  0  0  0  0  0
   36.1380   27.5700   28.7190 H   0  0  0  0  0  0  0  0  0  0  0  0
  1  7  1  6  0  0  0
  1  2  1  0  0  0  0
  2  8  1  0  0  0  0
  2  9  1  0  0  0  0
  2  3  1  0  0  0  0
  3 11  1  0  0  0  0
  4 13  1  0  0  0  0
  4  3  1  0  0  0  0
  4 12  1  0  0  0  0
  5  4  1  0  0  0  0
  6 16  1  1  0  0  0
  6  1  1  0  0  0  0
  6  5  1  0  0  0  0
 10  3  1  0  0  0  0
 14  5  1  0  0  0  0
 15  5  1  0  0  0  0
 17  1  1  0  0  0  0
 17 18  1  0  0  0  0
 18 31  1  0  0  0  0
 19 18  2  0  0  0  0
 19 23  1  0  0  0  0
 20 19  1  0  0  0  0
 21 22  1  0  0  0  0
 21 20  2  0  0  0  0
 22 17  2  0  0  0  0
 23 24  1  0  0  0  0
 23 29  1  0  0  0  0
 24 25  2  0  0  0  0
 25 26  1  0  0  0  0
 26 27  2  0  0  0  0
 28 26  1  0  0  0  0
 28 35  1  0  0  0  0
 29 30  2  0  0  0  0
 29 28  1  0  0  0  0
 32 21  1  0  0  0  0
 33 24  1  0  0  0  0
 34 25  1  0  0  0  0
 36 37  1  0  0  0  0
 37 38  2  0  0  0  0
 37 39  1  0  0  0  0
 39  6  1  0  0  0  0
 40 39  1  0  0  0  0
M  END
>  <minimizedAffinity>
-5.56146908

$$$$

 OpenBabel03272506213D

 40 42  0  0  1  0  0  0  0  0999 V2000
   34.6760   30.8460   34.0820 C   0  0  2  0  0  0  0  0  0  0  0  0
   35.8040   31.6870   34.6670 C   0  0  0  0  0  0  0  0  0  0  0  0
   35.8830   31.6350   36.1500 C   0  0  0  0  0  0  0  0  0  0  0  0
   34.5740   31.9360   36.8340 C   0  0  0  0  0  0  0  0  0  0  0  0
   33.3870   31.3560   36.1470 C   0  0  0  0  0  0  0  0  0  0  0  0
   33.7790   30.3030   35.1200 C   0  0  1  0  0  0  0  0  0  0  0  0
   34.1280   31.4610   33.3410 H   0  0  0  0  0  0  0  0  0  0  0  0
   36.7890   31.3540   34.2760 H   0  0  0  0  0  0  0  0  0  0  0  0
   35.6870   32.7310   34.3250 H   0  0  0  0  0  0  0  0  0  0  0  0
   36.1890   30.6010   36.4590 H   0  0  0  0  0  0  0  0  0  0  0  0
   36.6100   32.3990   36.4720 H   0  0  0  0  0  0  0  0  0  0  0  0
   34.4360   33.0090   37.0520 H   0  0  0  0  0  0  0  0  0  0  0  0
   34.6390   31.4570   37.8550 H   0  0  0  0  0  0  0  0  0  0  0  0
   32.6490   30.8830   36.8230 H   0  0  0  0  0  0  0  0  0  0  0  0
   32.8230   32.1780   35.6420 H   0  0  0  0  0  0  0  0  0  0  0  0
   34.3290   29.5250   35.7210 H   0  0  0  0  0  0  0  0  0  0  0  0
   35.2810   29.6910   33.3420 C   0  0  0  0  0  0  0  0  0  0  0  0
   36.1340   28.8690   34.0810 C   0  0  0  0  0  0  0  0  0  0  0  0
   36.7140   27.7870   33.3950 C   0  0  0  0  0  0  0  0  0  0  0  0
   36.4250   27.5880   32.0590 N   0  0  0  0  0  0  0  0  0  0  0  0
   35.5820   28.4260   31.3850 C   0  0  0  0  0  0  0  0  0  0  0  0
   35.0260   29.4540   32.0220 N   0  0  0  0  0  0  0  0  0  0  0  0
   37.5870   26.8890   34.0540 N   0  0  0  0  0  0  0  0  0  0  0  0
   37.1780   26.1570   35.1360 C   0  0  0  0  0  0  0  0  0  0  0  0
   38.0670   25.2870   35.7530 C   0  0  0  0  0  0  0  0  0  0  0  0
   39.3350   25.1840   35.2640 C   0  0  0  0  0  0  0  0  0  0  0  0
   40.1070   24.3870   35.8510 O   0  0  0  0  0  0  0  0  0  0  0  0
   39.7190   25.9110   34.2030 N   0  0  0  0  0  0  0  0  0  0  0  0
   38.8380   26.7390   33.6300 C   0  0  0  0  0  0  0  0  0  0  0  0
   39.3120   27.3730   32.6370 O   0  0  0  0  0  0  0  0  0  0  0  0
   36.4030   28.9620   35.1060 H   0  0  0  0  0  0  0  0  0  0  0  0
   35.3730   28.2480   30.3390 H   0  0  0  0  0  0  0  0  0  0  0  0
   36.1450   26.3060   35.4550 H   0  0  0  0  0  0  0  0  0  0  0  0
   37.6360   24.7600   36.5960 H   0  0  0  0  0  0  0  0  0  0  0  0
   40.7080   25.7830   33.8770 H   0  0  0  0  0  0  0  0  0  0  0  0
   30.9740   28.1630   35.1480 H   0  0  0  0  0  0  0  0  0  0  0  0
   31.8590   28.7300   35.3760 C   0  0  0  0  0  0  0  0  0  0  0  0
   31.8950   28.2190   36.5440 O   0  0  0  0  0  0  0  0  0  0  0  0
   32.6180   29.6680   34.5910 N   0  0  0  0  0  0  0  0  0  0  0  0
   32.2070   29.7940   33.6420 H   0  0  0  0  0  0  0  0  0  0  0  0
  1  7  1  6  0  0  0
  1  2  1  0  0  0  0
  1  6  1  0  0  0  0
  2  3  1  0  0  0  0
  3 10  1  0  0  0  0
  3 11  1  0  0  0  0
  3  4  1  0  0  0  0
  4 12  1  0  0  0  0
  4 13  1  0  0  0  0
  5 14  1  0  0  0  0
  5  4  1  0  0  0  0
  6 16  1  1  0  0  0
  6  5  1  0  0  0  0
  8  2  1  0  0  0  0
  9  2  1  0  0  0  0
 15  5  1  0  0  0  0
 17 18  1  0  0  0  0
 17  1  1  0  0  0  0
 18 31  1  0  0  0  0
 19 23  1  0  0  0  0
 19 18  2  0  0  0  0
 20 19  1  0  0  0  0
 21 22  1  0  0  0  0
 21 20  2  0  0  0  0
 22 17  2  0  0  0  0
 23 24  1  0  0  0  0
 24 33  1  0  0  0  0
 24 25  2  0  0  0  0
 25 34  1  0  0  0  0
 26 25  1  0  0  0  0
 26 27  2  0  0  0  0
 28 26  1  0  0  0  0
 29 23  1  0  0  0  0
 29 28  1  0  0  0  0
 30 29  2  0  0  0  0
 32 21  1  0  0  0  0
 35 28  1  0  0  0  0
 36 37  1  0  0  0  0
 37 38  2  0  0  0  0
 39  6  1  0  0  0  0
 39 37  1  0  0  0  0
 40 39  1  0  0  0  0
M  END
>  <minimizedAffinity>
-5.54556704

$$$$

 OpenBabel03272506213D

 40 42  0  0  1  0  0  0  0  0999 V2000
   38.2060   26.7010   33.0760 C   0  0  2  0  0  0  0  0  0  0  0  0
   38.2620   26.5200   34.5890 C   0  0  0  0  0  0  0  0  0  0  0  0
   39.5270   26.9970   35.2030 C   0  0  0  0  0  0  0  0  0  0  0  0
   40.7640   26.4400   34.5460 C   0  0  0  0  0  0  0  0  0  0  0  0
   40.6670   26.3400   33.0640 C   0  0  0  0  0  0  0  0  0  0  0  0
   39.4960   27.1410   32.5130 C   0  0  1  0  0  0  0  0  0  0  0  0
   37.8570   25.7540   32.6230 H   0  0  0  0  0  0  0  0  0  0  0  0
   37.4320   27.0680   35.0830 H   0  0  0  0  0  0  0  0  0  0  0  0
   38.0970   25.4540   34.8280 H   0  0  0  0  0  0  0  0  0  0  0  0
   39.5760   28.1140   35.1080 H   0  0  0  0  0  0  0  0  0  0  0  0
   39.5320   26.6680   36.2560 H   0  0  0  0  0  0  0  0  0  0  0  0
   41.1050   25.4920   34.9980 H   0  0  0  0  0  0  0  0  0  0  0  0
   41.5960   27.1670   34.7800 H   0  0  0  0  0  0  0  0  0  0  0  0
   41.5690   26.6770   32.5190 H   0  0  0  0  0  0  0  0  0  0  0  0
   40.5490   25.2650   32.7800 H   0  0  0  0  0  0  0  0  0  0  0  0
   39.7090   28.1980   32.8420 H   0  0  0  0  0  0  0  0  0  0  0  0
   37.1810   27.7500   32.7630 C   0  0  0  0  0  0  0  0  0  0  0  0
   36.6510   28.4360   33.8580 C   0  0  0  0  0  0  0  0  0  0  0  0
   35.6830   29.4160   33.5750 C   0  0  0  0  0  0  0  0  0  0  0  0
   35.3080   29.6520   32.2670 N   0  0  0  0  0  0  0  0  0  0  0  0
   35.8600   28.9500   31.2350 C   0  0  0  0  0  0  0  0  0  0  0  0
   36.7780   28.0190   31.4870 N   0  0  0  0  0  0  0  0  0  0  0  0
   35.0890   30.1730   34.6130 N   0  0  0  0  0  0  0  0  0  0  0  0
   35.8390   30.9620   35.4430 C   0  0  0  0  0  0  0  0  0  0  0  0
   35.2150   31.6890   36.4490 C   0  0  0  0  0  0  0  0  0  0  0  0
   33.8620   31.5980   36.5860 C   0  0  0  0  0  0  0  0  0  0  0  0
   33.3380   32.2720   37.5070 O   0  0  0  0  0  0  0  0  0  0  0  0
   33.1420   30.8190   35.7620 N   0  0  0  0  0  0  0  0  0  0  0  0
   33.7740   30.1320   34.8040 C   0  0  0  0  0  0  0  0  0  0  0  0
   32.9930   29.4310   34.0880 O   0  0  0  0  0  0  0  0  0  0  0  0
   36.8900   28.3060   34.8860 H   0  0  0  0  0  0  0  0  0  0  0  0
   35.5480   29.1540   30.2200 H   0  0  0  0  0  0  0  0  0  0  0  0
   36.9130   30.9720   35.2570 H   0  0  0  0  0  0  0  0  0  0  0  0
   35.9040   32.2770   37.0430 H   0  0  0  0  0  0  0  0  0  0  0  0
   32.1070   30.7950   35.9220 H   0  0  0  0  0  0  0  0  0  0  0  0
   40.7230   27.9560   29.3060 H   0  0  0  0  0  0  0  0  0  0  0  0
   40.5470   27.8440   30.3610 C   0  0  0  0  0  0  0  0  0  0  0  0
   41.5740   28.5570   30.6160 O   0  0  0  0  0  0  0  0  0  0  0  0
   39.5210   27.1430   31.0870 N   0  0  0  0  0  0  0  0  0  0  0  0
   38.8510   26.6720   30.4440 H   0  0  0  0  0  0  0  0  0  0  0  0
  1  7  1  6  0  0  0
  1  2  1  0  0  0  0
  2  9  1  0  0  0  0
  2  8  1  0  0  0  0
  2  3  1  0  0  0  0
  3 11  1  0  0  0  0
  4 13  1  0  0  0  0
  4 12  1  0  0  0  0
  4  3  1  0  0  0  0
  5  4  1  0  0  0  0
  6 16  1  1  0  0  0
  6  5  1  0  0  0  0
  6  1  1  0  0  0  0
 10  3  1  0  0  0  0
 14  5  1  0  0  0  0
 15  5  1  0  0  0  0
 17  1  1  0  0  0  0
 17 18  1  0  0  0  0
 18 31  1  0  0  0  0
 19 18  2  0  0  0  0
 19 23  1  0  0  0  0
 20 19  1  0  0  0  0
 21 22  1  0  0  0  0
 21 20  2  0  0  0  0
 22 17  2  0  0  0  0
 23 29  1  0  0  0  0
 23 24  1  0  0  0  0
 24 25  2  0  0  0  0
 25 26  1  0  0  0  0
 25 34  1  0  0  0  0
 26 27  2  0  0  0  0
 28 35  1  0  0  0  0
 28 26  1  0  0  0  0
 29 28  1  0  0  0  0
 30 29  2  0  0  0  0
 32 21  1  0  0  0  0
 33 24  1  0  0  0  0
 36 37  1  0  0  0  0
 37 38  2  0  0  0  0
 37 39  1  0  0  0  0
 39  6  1  0  0  0  0
 40 39  1  0  0  0  0
M  END
>  <minimizedAffinity>
-5.51519108

$$$$
