
 OpenBabel03262520593D

 31 32  0  0  1  0  0  0  0  0999 V2000
   39.5480   32.9000   46.1340 N   0  0  0  0  0  0  0  0  0  0  0  0
   38.2300   32.4480   45.7790 C   0  0  1  0  0  0  0  0  0  0  0  0
   38.0560   32.4570   44.2950 C   0  0  0  0  0  0  0  0  0  0  0  0
   39.0640   31.5520   43.7350 N   0  0  0  0  0  0  0  0  0  0  0  0
   40.3470   32.2530   43.9340 C   0  0  0  0  0  0  0  0  0  0  0  0
   40.5920   32.2150   45.4340 C   0  0  2  0  0  0  0  0  0  0  0  0
   39.5900   33.9130   46.0110 H   0  0  0  0  0  0  0  0  0  0  0  0
   37.5130   33.1090   46.2890 H   0  0  0  0  0  0  0  0  0  0  0  0
   37.0420   32.1090   44.0270 H   0  0  0  0  0  0  0  0  0  0  0  0
   38.2030   33.4880   43.9150 H   0  0  0  0  0  0  0  0  0  0  0  0
   38.8940   31.3770   42.7230 H   0  0  0  0  0  0  0  0  0  0  0  0
   40.3180   33.2740   43.5560 H   0  0  0  0  0  0  0  0  0  0  0  0
   41.1030   31.6340   43.4160 H   0  0  0  0  0  0  0  0  0  0  0  0
   41.5460   32.7800   45.6120 H   0  0  0  0  0  0  0  0  0  0  0  0
   40.7520   30.8520   45.8540 N   0  0  0  0  0  0  0  0  0  0  0  0
   40.6080   30.6930   46.8710 H   0  0  0  0  0  0  0  0  0  0  0  0
   40.2160   30.1820   45.2630 H   0  0  0  0  0  0  0  0  0  0  0  0
   37.9450   30.7140   46.3190 S   0  0  0  0  0  0  0  0  0  0  0  0
   37.7700   30.8640   50.3730 C   0  0  0  0  0  0  0  0  0  0  0  0
   38.2930   30.9080   49.0830 C   0  0  0  0  0  0  0  0  0  0  0  0
   37.4400   30.6930   48.0330 C   0  0  0  0  0  0  0  0  0  0  0  0
   36.1050   30.4430   48.2930 N   0  0  0  0  0  0  0  0  0  0  0  0
   35.6530   30.4100   49.5310 C   0  0  0  0  0  0  0  0  0  0  0  0
   36.4770   30.6200   50.5880 N   0  0  0  0  0  0  0  0  0  0  0  0
   38.4670   31.0390   51.1810 H   0  0  0  0  0  0  0  0  0  0  0  0
   39.3310   31.1020   48.8570 H   0  0  0  0  0  0  0  0  0  0  0  0
   32.7410   28.5760   49.8080 H   0  0  0  0  0  0  0  0  0  0  0  0
   33.7780   28.8270   49.6340 C   0  0  0  0  0  0  0  0  0  0  0  0
   34.5270   27.8530   49.2930 O   0  0  0  0  0  0  0  0  0  0  0  0
   34.2780   30.1500   49.7760 N   0  0  0  0  0  0  0  0  0  0  0  0
   33.6220   30.9360   50.0620 H   0  0  0  0  0  0  0  0  0  0  0  0
  2  1  1  0  0  0  0
  2  8  1  1  0  0  0
  2 18  1  0  0  0  0
  3  2  1  0  0  0  0
  4  5  1  0  0  0  0
  4  3  1  0  0  0  0
  5  6  1  0  0  0  0
  6 14  1  1  0  0  0
  6 15  1  0  0  0  0
  6  1  1  0  0  0  0
  7  1  1  0  0  0  0
  9  3  1  0  0  0  0
 10  3  1  0  0  0  0
 11  4  1  0  0  0  0
 12  5  1  0  0  0  0
 13  5  1  0  0  0  0
 15 16  1  0  0  0  0
 17 15  1  0  0  0  0
 18 21  1  0  0  0  0
 19 24  1  0  0  0  0
 19 25  1  0  0  0  0
 20 19  2  0  0  0  0
 21 22  2  0  0  0  0
 21 20  1  0  0  0  0
 22 23  1  0  0  0  0
 23 30  1  0  0  0  0
 23 24  2  0  0  0  0
 26 20  1  0  0  0  0
 28 30  1  0  0  0  0
 28 27  1  0  0  0  0
 29 28  2  0  0  0  0
 30 31  1  0  0  0  0
M  END
>  <minimizedAffinity>
-5.80085039

>  <minimizedRMSD>
1.0343349

$$$$
