
 OpenBabel03272506573D

 24 25  0  0  0  0  0  0  0  0999 V2000
   38.4880   32.0000   46.7590 C   0  0  0  0  0  0  0  0  0  0  0  0
   39.7300   32.5840   46.6470 C   0  0  0  0  0  0  0  0  0  0  0  0
   40.2380   33.2070   45.5250 C   0  0  0  0  0  0  0  0  0  0  0  0
   39.4110   33.2310   44.4370 N   0  0  0  0  0  0  0  0  0  0  0  0
   38.1850   32.6620   44.5240 C   0  0  0  0  0  0  0  0  0  0  0  0
   37.7330   32.0660   45.6450 N   0  0  0  0  0  0  0  0  0  0  0  0
   40.3950   32.5720   47.5030 H   0  0  0  0  0  0  0  0  0  0  0  0
   41.2330   33.6430   45.5240 H   0  0  0  0  0  0  0  0  0  0  0  0
   37.2160   32.7400   41.1920 H   0  0  0  0  0  0  0  0  0  0  0  0
   37.8770   32.7100   42.0670 C   0  0  0  0  0  0  0  0  0  0  0  0
   39.1310   32.6800   41.9760 O   0  0  0  0  0  0  0  0  0  0  0  0
   37.3440   32.7010   43.3770 N   0  0  0  0  0  0  0  0  0  0  0  0
   36.3050   32.7250   43.4730 H   0  0  0  0  0  0  0  0  0  0  0  0
   36.6530   29.8100   48.9890 C   0  0  0  0  0  0  0  0  0  0  0  0
   37.1410   30.1010   50.2690 C   0  0  0  0  0  0  0  0  0  0  0  0
   38.1450   31.0980   50.3370 C   0  0  0  0  0  0  0  0  0  0  0  0
   38.5540   31.6870   49.1950 N   0  0  0  0  0  0  0  0  0  0  0  0
   38.0510   31.3680   47.9970 C   0  0  0  0  0  0  0  0  0  0  0  0
   37.0830   30.4170   47.8650 N   0  0  0  0  0  0  0  0  0  0  0  0
   35.8870   29.0590   48.8730 H   0  0  0  0  0  0  0  0  0  0  0  0
   38.5410   31.3440   51.3160 H   0  0  0  0  0  0  0  0  0  0  0  0
   36.6460   29.4240   51.4170 N   0  0  0  0  0  0  0  0  0  0  0  0
   37.2840   29.3210   52.2430 H   0  0  0  0  0  0  0  0  0  0  0  0
   35.6660   29.0790   51.3390 H   0  0  0  0  0  0  0  0  0  0  0  0
  1 18  1  0  0  0  0
  2  1  1  0  0  0  0
  2  7  1  0  0  0  0
  3  2  2  0  0  0  0
  4  5  2  0  0  0  0
  4  3  1  0  0  0  0
  5  6  1  0  0  0  0
  6  1  2  0  0  0  0
  8  3  1  0  0  0  0
  9 10  1  0  0  0  0
 10 12  1  0  0  0  0
 11 10  2  0  0  0  0
 12 13  1  0  0  0  0
 12  5  1  0  0  0  0
 14 15  1  0  0  0  0
 15 16  2  0  0  0  0
 15 22  1  0  0  0  0
 16 21  1  0  0  0  0
 17 16  1  0  0  0  0
 18 17  2  0  0  0  0
 19 18  1  0  0  0  0
 19 14  2  0  0  0  0
 20 14  1  0  0  0  0
 22 23  1  0  0  0  0
 24 22  1  0  0  0  0
M  END
>  <minimizedAffinity>
-5.2616868

>  <minimizedRMSD>
1.18924487

$$$$
