
 OpenBabel03272509153D

 43 45  0  0  1  0  0  0  0  0999 V2000
   34.9080   29.9460   46.6620 C   0  0  0  0  0  0  0  0  0  0  0  0
   36.1860   30.5440   46.7500 C   0  0  0  0  0  0  0  0  0  0  0  0
   36.8730   30.7930   45.5540 C   0  0  0  0  0  0  0  0  0  0  0  0
   36.2780   30.4480   44.3870 N   0  0  0  0  0  0  0  0  0  0  0  0
   35.0700   29.8830   44.3310 C   0  0  0  0  0  0  0  0  0  0  0  0
   34.3860   29.6320   45.4560 N   0  0  0  0  0  0  0  0  0  0  0  0
   34.2970   29.7200   47.5040 H   0  0  0  0  0  0  0  0  0  0  0  0
   34.6560   29.6350   43.3540 H   0  0  0  0  0  0  0  0  0  0  0  0
   36.6570   30.8250   48.0880 N   0  0  0  0  0  0  0  0  0  0  0  0
   37.0880   31.9250   48.8850 C   0  0  0  0  0  0  0  0  0  0  0  0
   38.3870   31.4430   49.4620 C   0  0  0  0  0  0  0  0  0  0  0  0
   38.1450   29.9420   49.6590 C   0  0  0  0  0  0  0  0  0  0  0  0
   36.7980   29.7140   49.0780 C   0  0  1  0  0  0  0  0  0  0  0  0
   36.3810   31.9400   49.7730 H   0  0  0  0  0  0  0  0  0  0  0  0
   37.0300   32.9310   48.5190 H   0  0  0  0  0  0  0  0  0  0  0  0
   38.5460   31.9350   50.4400 H   0  0  0  0  0  0  0  0  0  0  0  0
   39.2640   31.6040   48.8110 H   0  0  0  0  0  0  0  0  0  0  0  0
   38.9570   29.3850   49.1550 H   0  0  0  0  0  0  0  0  0  0  0  0
   38.1380   29.7450   50.7660 H   0  0  0  0  0  0  0  0  0  0  0  0
   36.6510   28.7510   48.5940 H   0  0  0  0  0  0  0  0  0  0  0  0
   34.7500   28.9870   50.2900 C   0  0  0  0  0  0  0  0  0  0  0  0
   34.4850   28.0070   49.5280 O   0  0  0  0  0  0  0  0  0  0  0  0
   35.8060   29.9430   50.1220 N   0  0  0  0  0  0  0  0  0  0  0  0
   33.9880   28.8900   51.0520 H   0  0  0  0  0  0  0  0  0  0  0  0
   35.5910   30.6340   50.8650 H   0  0  0  0  0  0  0  0  0  0  0  0
   38.1760   31.3970   45.5340 C   0  0  0  0  0  0  0  0  0  0  0  0
   38.4580   32.3500   46.4670 C   0  0  0  0  0  0  0  0  0  0  0  0
   39.6810   32.9870   46.5510 C   0  0  0  0  0  0  0  0  0  0  0  0
   40.6510   32.6210   45.6230 C   0  0  0  0  0  0  0  0  0  0  0  0
   40.4340   31.6750   44.6600 C   0  0  0  0  0  0  0  0  0  0  0  0
   39.1740   31.0740   44.6410 C   0  0  0  0  0  0  0  0  0  0  0  0
   37.8140   32.7780   47.2120 H   0  0  0  0  0  0  0  0  0  0  0  0
   39.9950   33.7450   47.2500 H   0  0  0  0  0  0  0  0  0  0  0  0
   41.6540   33.0660   45.6020 H   0  0  0  0  0  0  0  0  0  0  0  0
   41.2110   31.3990   43.9370 H   0  0  0  0  0  0  0  0  0  0  0  0
   38.9000   30.0520   43.6100 C   0  0  0  0  0  0  0  0  0  0  0  0
   39.4520   30.3430   42.6910 H   0  0  0  0  0  0  0  0  0  0  0  0
   37.8530   29.9740   43.3060 H   0  0  0  0  0  0  0  0  0  0  0  0
   39.4250   26.5620   43.3700 H   0  0  0  0  0  0  0  0  0  0  0  0
   39.1860   27.5930   43.1620 C   0  0  0  0  0  0  0  0  0  0  0  0
   38.8160   27.6550   41.9620 O   0  0  0  0  0  0  0  0  0  0  0  0
   39.2650   28.7000   44.0600 N   0  0  0  0  0  0  0  0  0  0  0  0
   39.6020   28.4070   45.0150 H   0  0  0  0  0  0  0  0  0  0  0  0
  1  2  1  0  0  0  0
  1  7  1  0  0  0  0
  2  9  1  0  0  0  0
  3  2  2  0  0  0  0
  4  3  1  0  0  0  0
  5  4  2  0  0  0  0
  5  6  1  0  0  0  0
  6  1  2  0  0  0  0
  8  5  1  0  0  0  0
  9 10  1  0  0  0  0
  9 13  1  0  0  0  0
 10 11  1  0  0  0  0
 10 14  1  0  0  0  0
 11 12  1  0  0  0  0
 11 16  1  0  0  0  0
 12 19  1  0  0  0  0
 13 20  1  6  0  0  0
 13 12  1  0  0  0  0
 13 23  1  0  0  0  0
 15 10  1  0  0  0  0
 17 11  1  0  0  0  0
 18 12  1  0  0  0  0
 21 24  1  0  0  0  0
 22 21  2  0  0  0  0
 23 21  1  0  0  0  0
 23 25  1  0  0  0  0
 26  3  1  0  0  0  0
 26 27  1  0  0  0  0
 27 28  2  0  0  0  0
 27 32  1  0  0  0  0
 28 33  1  0  0  0  0
 29 28  1  0  0  0  0
 30 29  2  0  0  0  0
 31 30  1  0  0  0  0
 31 26  2  0  0  0  0
 34 29  1  0  0  0  0
 35 30  1  0  0  0  0
 36 42  1  0  0  0  0
 36 31  1  0  0  0  0
 37 36  1  0  0  0  0
 38 36  1  0  0  0  0
 40 39  1  0  0  0  0
 40 42  1  0  0  0  0
 41 40  2  0  0  0  0
 42 43  1  0  0  0  0
M  END
>  <minimizedAffinity>
-5.59955406

>  <minimizedRMSD>
0.840424657

$$$$
