REMARK  Name = 
REMARK  5 active torsions:
REMARK  status: ('A' for Active; 'I' for Inactive)
REMARK    1  A    between atoms: C_2  and  N_7
REMARK    2  A    between atoms: C_3  and  C_15
REMARK    3  A    between atoms: C_11  and  N_14
REMARK    4  A    between atoms: C_20  and  C_21
REMARK    5  A    between atoms: C_21  and  N_42
REMARK                            x       y       z     vdW  Elec       q    Type
REMARK                         _______ _______ _______ _____ _____    ______ ____
ROOT
ATOM      1  C   UNL     1      34.815  30.097  46.869  0.00  0.00    +0.000 A 
ATOM      2  C   UNL     1      36.140  30.586  46.939  0.00  0.00    +0.000 A 
ATOM      3  C   UNL     1      36.838  30.752  45.736  0.00  0.00    +0.000 A 
ATOM      4  N   UNL     1      36.209  30.436  44.578  0.00  0.00    +0.000 NA
ATOM      5  C   UNL     1      34.957  29.975  44.539  0.00  0.00    +0.000 A 
ATOM      6  N   UNL     1      34.261  29.805  45.672  0.00  0.00    +0.000 NA
ATOM      7  H   UNL     1      34.192  29.941  47.718  0.00  0.00    +0.000 HD
ATOM      8  H   UNL     1      34.517  29.744  43.569  0.00  0.00    +0.000 HD
ENDROOT
BRANCH   2   9
ATOM      9  N   UNL     1      36.641  30.852  48.269  0.00  0.00    +0.000 N 
ATOM     10  C   UNL     1      37.064  31.946  49.078  0.00  0.00    +0.000 C 
ATOM     11  C   UNL     1      38.392  31.490  49.607  0.00  0.00    +0.000 C 
ATOM     12  C   UNL     1      38.199  29.979  49.778  0.00  0.00    +0.000 C 
ATOM     13  C   UNL     1      36.843  29.724  49.230  0.00  0.00    +0.000 C 
ATOM     14  H   UNL     1      36.383  31.922  49.986  0.00  0.00    +0.000 HD
ATOM     15  H   UNL     1      36.967  32.958  48.736  0.00  0.00    +0.000 HD
ATOM     16  H   UNL     1      38.566  31.966  50.591  0.00  0.00    +0.000 HD
ATOM     17  H   UNL     1      39.245  31.690  48.935  0.00  0.00    +0.000 HD
ATOM     18  H   UNL     1      39.011  29.457  49.239  0.00  0.00    +0.000 HD
ATOM     19  H   UNL     1      38.230  29.758  50.880  0.00  0.00    +0.000 HD
ATOM     20  H   UNL     1      36.709  28.768  48.729  0.00  0.00    +0.000 HD
BRANCH  13  23
ATOM     21  C   UNL     1      34.798  28.963  50.427  0.00  0.00    +0.000 C 
ATOM     22  O   UNL     1      34.495  28.046  49.603  0.00  0.00    +0.000 OA
ATOM     23  N   UNL     1      35.875  29.902  50.307  0.00  0.00    +0.000 N 
ATOM     24  H   UNL     1      34.048  28.830  51.195  0.00  0.00    +0.000 HD
ATOM     25  H   UNL     1      35.691  30.544  51.101  0.00  0.00    +0.000 HD
ENDBRANCH  13  23
ENDBRANCH   2   9
BRANCH   3  26
ATOM     26  C   UNL     1      38.188  31.241  45.698  0.00  0.00    +0.000 A 
ATOM     27  C   UNL     1      38.445  32.462  46.247  0.00  0.00    +0.000 A 
ATOM     28  C   UNL     1      39.706  33.026  46.279  0.00  0.00    +0.000 A 
ATOM     29  C   UNL     1      40.743  32.291  45.713  0.00  0.00    +0.000 A 
ATOM     30  C   UNL     1      40.554  31.062  45.144  0.00  0.00    +0.000 A 
ATOM     31  C   UNL     1      39.252  30.558  45.152  0.00  0.00    +0.000 A 
ATOM     32  H   UNL     1      37.759  33.170  46.673  0.00  0.00    +0.000 HD
ATOM     33  H   UNL     1      40.005  33.976  46.690  0.00  0.00    +0.000 HD
ATOM     34  H   UNL     1      41.781  32.647  45.686  0.00  0.00    +0.000 HD
ATOM     35  H   UNL     1      41.384  30.497  44.702  0.00  0.00    +0.000 HD
BRANCH  31  36
ATOM     36  C   UNL     1      39.008  29.236  44.540  0.00  0.00    +0.000 C 
ATOM     37  H   UNL     1      39.858  29.018  43.857  0.00  0.00    +0.000 HD
ATOM     38  H   UNL     1      38.113  29.176  43.916  0.00  0.00    +0.000 HD
BRANCH  36  42
ATOM     39  H   UNL     1      38.113  27.806  47.650  0.00  0.00    +0.000 HD
ATOM     40  C   UNL     1      38.286  28.488  46.831  0.00  0.00    +0.000 C 
ATOM     41  O   UNL     1      37.909  29.626  47.207  0.00  0.00    +0.000 OA
ATOM     42  N   UNL     1      38.837  28.181  45.550  0.00  0.00    +0.000 N 
ATOM     43  H   UNL     1      39.079  27.158  45.462  0.00  0.00    +0.000 HD
ENDBRANCH  36  42
ENDBRANCH  31  36
ENDBRANCH   3  26
TORSDOF 5
