
     RDKit          3D

 24 25  0  0  0  0  0  0  0  0999 V2000
   35.7496   30.0539   48.0551 C   0  0  0  0  0  0  0  0  0  0  0  0
   36.2223   29.8099   49.3513 C   0  0  0  0  0  0  0  0  0  0  0  0
   37.5720   30.1622   49.5948 C   0  0  0  0  0  0  0  0  0  0  0  0
   38.2963   30.6956   48.5903 N   0  0  0  0  0  0  0  0  0  0  0  0
   37.7920   30.9067   47.3693 C   0  0  0  0  0  0  0  0  0  0  0  0
   36.4998   30.5891   47.0713 N   0  0  0  0  0  0  0  0  0  0  0  0
   38.5683   31.4825   46.2793 C   0  0  0  0  0  0  0  0  0  0  0  0
   39.9024   31.1862   46.1082 C   0  0  0  0  0  0  0  0  0  0  0  0
   40.7238   31.6759   45.1131 C   0  0  0  0  0  0  0  0  0  0  0  0
   40.1328   32.5326   44.2285 N   0  0  0  0  0  0  0  0  0  0  0  0
   38.8223   32.8391   44.3761 C   0  0  0  0  0  0  0  0  0  0  0  0
   38.0601   32.3340   45.3667 N   0  0  0  0  0  0  0  0  0  0  0  0
   35.3803   29.2424   50.3458 N   0  0  0  0  0  0  0  0  0  0  0  0
   34.7292   29.8068   47.8076 H   0  0  0  0  0  0  0  0  0  0  0  0
   37.9644   29.9842   50.5899 H   0  0  0  0  0  0  0  0  0  0  0  0
   40.3820   30.5078   46.8036 H   0  0  0  0  0  0  0  0  0  0  0  0
   41.7694   31.3876   45.0531 H   0  0  0  0  0  0  0  0  0  0  0  0
   35.8276   28.6810   51.1102 H   0  0  0  0  0  0  0  0  0  0  0  0
   34.3628   29.4370   50.2287 H   0  0  0  0  0  0  0  0  0  0  0  0
   38.2240   34.5127   41.3955 H   0  0  0  0  0  0  0  0  0  0  0  0
   38.6891   33.8181   42.1053 C   0  0  0  0  0  0  0  0  0  0  0  0
   39.6430   33.0600   41.7939 O   0  0  0  0  0  0  0  0  0  0  0  0
   38.2315   33.7344   43.4403 N   0  0  0  0  0  0  0  0  0  0  0  0
   37.4404   34.3564   43.7166 H   0  0  0  0  0  0  0  0  0  0  0  0
  1  2  2  0
  2  3  1  0
  2 13  1  0
  4  3  2  0
  5  4  1  0
  6  5  2  0
  6  1  1  0
  7  5  1  0
  8  7  2  0
  9  8  1  0
 10 11  1  0
 10  9  2  0
 11 12  2  0
 12  7  1  0
  1 14  1  0
  3 15  1  0
  8 16  1  0
  9 17  1  0
 13 18  1  0
 13 19  1  0
 20 21  1  0
 21 22  2  0
 21 23  1  0
 23 24  1  0
 11 23  1  0
M  ISO  5  14  14  15  14  16  14  17  14  20   1
M  END
>  <DihAtoms>  (1) 
9,10,22,20

>  <DihDeg>  (1) 
0.0020226037388541736

$$$$
