
 OpenBabel03262521003D

 31 32  0  0  1  0  0  0  0  0999 V2000
   38.8610   27.1400   33.0390 N   0  0  0  0  0  0  0  0  0  0  0  0
   38.7740   26.6890   34.4010 C   0  0  1  0  0  0  0  0  0  0  0  0
   37.8610   27.5730   35.1880 C   0  0  0  0  0  0  0  0  0  0  0  0
   36.5410   27.5060   34.5530 N   0  0  0  0  0  0  0  0  0  0  0  0
   36.7030   28.2280   33.2770 C   0  0  0  0  0  0  0  0  0  0  0  0
   37.5830   27.3330   32.4220 C   0  0  2  0  0  0  0  0  0  0  0  0
   39.4430   27.9780   33.0080 H   0  0  0  0  0  0  0  0  0  0  0  0
   39.7980   26.6800   34.8050 H   0  0  0  0  0  0  0  0  0  0  0  0
   37.7980   27.2220   36.2330 H   0  0  0  0  0  0  0  0  0  0  0  0
   38.2500   28.6110   35.1710 H   0  0  0  0  0  0  0  0  0  0  0  0
   35.8140   27.9600   35.1430 H   0  0  0  0  0  0  0  0  0  0  0  0
   37.1470   29.2130   33.4180 H   0  0  0  0  0  0  0  0  0  0  0  0
   35.6880   28.2840   32.8400 H   0  0  0  0  0  0  0  0  0  0  0  0
   37.7530   27.8830   31.4580 H   0  0  0  0  0  0  0  0  0  0  0  0
   36.8940   26.1020   32.1590 N   0  0  0  0  0  0  0  0  0  0  0  0
   37.5070   25.3150   31.8640 H   0  0  0  0  0  0  0  0  0  0  0  0
   36.2380   25.8350   32.9240 H   0  0  0  0  0  0  0  0  0  0  0  0
   38.0660   24.9950   34.5070 S   0  0  0  0  0  0  0  0  0  0  0  0
   38.3300   24.0650   38.4500 C   0  0  0  0  0  0  0  0  0  0  0  0
   37.9380   24.7150   37.2820 C   0  0  0  0  0  0  0  0  0  0  0  0
   38.4600   24.2760   36.0940 C   0  0  0  0  0  0  0  0  0  0  0  0
   39.3460   23.2140   36.1010 N   0  0  0  0  0  0  0  0  0  0  0  0
   39.6880   22.6280   37.2320 C   0  0  0  0  0  0  0  0  0  0  0  0
   39.1860   23.0430   38.4210 N   0  0  0  0  0  0  0  0  0  0  0  0
   37.9000   24.4330   39.3720 H   0  0  0  0  0  0  0  0  0  0  0  0
   37.2480   25.5440   37.2530 H   0  0  0  0  0  0  0  0  0  0  0  0
   42.7210   20.9950   36.9880 H   0  0  0  0  0  0  0  0  0  0  0  0
   41.9860   21.7870   37.0090 C   0  0  0  0  0  0  0  0  0  0  0  0
   42.4440   22.9640   36.8350 O   0  0  0  0  0  0  0  0  0  0  0  0
   40.6010   21.5390   37.2170 N   0  0  0  0  0  0  0  0  0  0  0  0
   40.2570   20.5440   37.3580 H   0  0  0  0  0  0  0  0  0  0  0  0
  1  2  1  0  0  0  0
  2 18  1  0  0  0  0
  2  8  1  1  0  0  0
  2  3  1  0  0  0  0
  3  9  1  0  0  0  0
  4 11  1  0  0  0  0
  4  3  1  0  0  0  0
  5 12  1  0  0  0  0
  5  4  1  0  0  0  0
  6 14  1  6  0  0  0
  6  1  1  0  0  0  0
  6  5  1  0  0  0  0
  7  1  1  0  0  0  0
 10  3  1  0  0  0  0
 13  5  1  0  0  0  0
 15  6  1  0  0  0  0
 15 17  1  0  0  0  0
 16 15  1  0  0  0  0
 18 21  1  0  0  0  0
 19 25  1  0  0  0  0
 20 19  2  0  0  0  0
 21 22  2  0  0  0  0
 21 20  1  0  0  0  0
 22 23  1  0  0  0  0
 23 24  2  0  0  0  0
 24 19  1  0  0  0  0
 26 20  1  0  0  0  0
 27 28  1  0  0  0  0
 28 30  1  0  0  0  0
 29 28  2  0  0  0  0
 30 23  1  0  0  0  0
 30 31  1  0  0  0  0
M  END
>  <minimizedAffinity>
-4.78194952

$$$$

 OpenBabel03262521003D

 31 32  0  0  1  0  0  0  0  0999 V2000
   38.3460   24.3940   36.5930 N   0  0  0  0  0  0  0  0  0  0  0  0
   39.4020   23.6560   35.9550 C   0  0  1  0  0  0  0  0  0  0  0  0
   40.4330   23.2450   36.9550 C   0  0  0  0  0  0  0  0  0  0  0  0
   39.7610   22.4010   37.9480 N   0  0  0  0  0  0  0  0  0  0  0  0
   38.8990   23.3280   38.7050 C   0  0  0  0  0  0  0  0  0  0  0  0
   37.7980   23.7280   37.7360 C   0  0  2  0  0  0  0  0  0  0  0  0
   38.6880   25.3310   36.8110 H   0  0  0  0  0  0  0  0  0  0  0  0
   39.8170   24.3010   35.1660 H   0  0  0  0  0  0  0  0  0  0  0  0
   41.2420   22.6790   36.4600 H   0  0  0  0  0  0  0  0  0  0  0  0
   40.8580   24.1490   37.4360 H   0  0  0  0  0  0  0  0  0  0  0  0
   40.4480   21.9400   38.5790 H   0  0  0  0  0  0  0  0  0  0  0  0
   39.4490   24.1950   39.0670 H   0  0  0  0  0  0  0  0  0  0  0  0
   38.4720   22.7260   39.5290 H   0  0  0  0  0  0  0  0  0  0  0  0
   37.1510   24.4670   38.2800 H   0  0  0  0  0  0  0  0  0  0  0  0
   37.0240   22.5680   37.3940 N   0  0  0  0  0  0  0  0  0  0  0  0
   36.4660   22.6610   36.5210 H   0  0  0  0  0  0  0  0  0  0  0  0
   37.5810   21.6880   37.4230 H   0  0  0  0  0  0  0  0  0  0  0  0
   38.7750   22.1020   35.1960 S   0  0  0  0  0  0  0  0  0  0  0  0
   37.1480   23.8850   31.9310 C   0  0  0  0  0  0  0  0  0  0  0  0
   37.7650   23.7390   33.1710 C   0  0  0  0  0  0  0  0  0  0  0  0
   37.9950   22.4690   33.6310 C   0  0  0  0  0  0  0  0  0  0  0  0
   37.6100   21.3930   32.8530 N   0  0  0  0  0  0  0  0  0  0  0  0
   37.0280   21.5790   31.6840 C   0  0  0  0  0  0  0  0  0  0  0  0
   36.7890   22.8260   31.2070 N   0  0  0  0  0  0  0  0  0  0  0  0
   36.9810   24.9000   31.5950 H   0  0  0  0  0  0  0  0  0  0  0  0
   38.0760   24.5640   33.7950 H   0  0  0  0  0  0  0  0  0  0  0  0
   35.1510   18.8490   30.7130 H   0  0  0  0  0  0  0  0  0  0  0  0
   35.4890   19.7080   31.2730 C   0  0  0  0  0  0  0  0  0  0  0  0
   34.7870   20.0070   32.2950 O   0  0  0  0  0  0  0  0  0  0  0  0
   36.6380   20.4590   30.9010 N   0  0  0  0  0  0  0  0  0  0  0  0
   37.1980   20.1800   30.0430 H   0  0  0  0  0  0  0  0  0  0  0  0
  1  7  1  0  0  0  0
  1  6  1  0  0  0  0
  2  8  1  6  0  0  0
  2  1  1  0  0  0  0
  2  3  1  0  0  0  0
  3 10  1  0  0  0  0
  3  4  1  0  0  0  0
  4 11  1  0  0  0  0
  4  5  1  0  0  0  0
  5 12  1  0  0  0  0
  5 13  1  0  0  0  0
  6 14  1  1  0  0  0
  6  5  1  0  0  0  0
  9  3  1  0  0  0  0
 15 17  1  0  0  0  0
 15  6  1  0  0  0  0
 16 15  1  0  0  0  0
 18  2  1  0  0  0  0
 19 20  1  0  0  0  0
 20 21  2  0  0  0  0
 20 26  1  0  0  0  0
 21 18  1  0  0  0  0
 22 21  1  0  0  0  0
 23 22  2  0  0  0  0
 24 23  1  0  0  0  0
 24 19  2  0  0  0  0
 25 19  1  0  0  0  0
 27 28  1  0  0  0  0
 28 29  2  0  0  0  0
 30 28  1  0  0  0  0
 30 23  1  0  0  0  0
 31 30  1  0  0  0  0
M  END
>  <minimizedAffinity>
-4.65439415

$$$$

 OpenBabel03262521003D

 31 32  0  0  1  0  0  0  0  0999 V2000
   38.2860   24.3470   36.1760 N   0  0  0  0  0  0  0  0  0  0  0  0
   39.2910   23.6710   35.4010 C   0  0  1  0  0  0  0  0  0  0  0  0
   40.4010   23.1980   36.2830 C   0  0  0  0  0  0  0  0  0  0  0  0
   39.8150   22.2740   37.2580 N   0  0  0  0  0  0  0  0  0  0  0  0
   39.0110   23.1320   38.1490 C   0  0  0  0  0  0  0  0  0  0  0  0
   37.8340   23.5910   37.3040 C   0  0  2  0  0  0  0  0  0  0  0  0
   38.6390   25.2690   36.4360 H   0  0  0  0  0  0  0  0  0  0  0  0
   39.6390   24.3790   34.6340 H   0  0  0  0  0  0  0  0  0  0  0  0
   41.1700   22.6800   35.6830 H   0  0  0  0  0  0  0  0  0  0  0  0
   40.8590   24.0680   36.7950 H   0  0  0  0  0  0  0  0  0  0  0  0
   40.5530   21.7750   37.7960 H   0  0  0  0  0  0  0  0  0  0  0  0
   39.5850   23.9750   38.5320 H   0  0  0  0  0  0  0  0  0  0  0  0
   38.6550   22.4650   38.9570 H   0  0  0  0  0  0  0  0  0  0  0  0
   37.2290   24.2790   37.9530 H   0  0  0  0  0  0  0  0  0  0  0  0
   37.0410   22.4520   36.9380 N   0  0  0  0  0  0  0  0  0  0  0  0
   36.4150   22.6040   36.1220 H   0  0  0  0  0  0  0  0  0  0  0  0
   37.6040   21.5780   36.8560 H   0  0  0  0  0  0  0  0  0  0  0  0
   38.6130   22.1720   34.5790 S   0  0  0  0  0  0  0  0  0  0  0  0
   35.8440   22.2880   31.6120 C   0  0  0  0  0  0  0  0  0  0  0  0
   36.6840   21.7780   32.5990 C   0  0  0  0  0  0  0  0  0  0  0  0
   37.4800   22.6560   33.2850 C   0  0  0  0  0  0  0  0  0  0  0  0
   37.4170   24.0030   32.9750 N   0  0  0  0  0  0  0  0  0  0  0  0
   36.6060   24.4410   32.0320 C   0  0  0  0  0  0  0  0  0  0  0  0
   35.8080   23.5910   31.3380 N   0  0  0  0  0  0  0  0  0  0  0  0
   35.2270   21.5700   31.0890 H   0  0  0  0  0  0  0  0  0  0  0  0
   36.7480   20.7320   32.8590 H   0  0  0  0  0  0  0  0  0  0  0  0
   37.6330   27.4710   30.7340 H   0  0  0  0  0  0  0  0  0  0  0  0
   37.6210   26.4220   30.9910 C   0  0  0  0  0  0  0  0  0  0  0  0
   38.6240   25.7460   30.5880 O   0  0  0  0  0  0  0  0  0  0  0  0
   36.5590   25.8280   31.7280 N   0  0  0  0  0  0  0  0  0  0  0  0
   35.7390   26.4230   32.0470 H   0  0  0  0  0  0  0  0  0  0  0  0
  1  7  1  0  0  0  0
  1  6  1  0  0  0  0
  2  8  1  6  0  0  0
  2  1  1  0  0  0  0
  2  3  1  0  0  0  0
  3 10  1  0  0  0  0
  3  4  1  0  0  0  0
  4 11  1  0  0  0  0
  4  5  1  0  0  0  0
  5 12  1  0  0  0  0
  5 13  1  0  0  0  0
  6 14  1  1  0  0  0
  6  5  1  0  0  0  0
  9  3  1  0  0  0  0
 15  6  1  0  0  0  0
 16 15  1  0  0  0  0
 17 15  1  0  0  0  0
 18  2  1  0  0  0  0
 19 20  1  0  0  0  0
 20 26  1  0  0  0  0
 20 21  2  0  0  0  0
 21 18  1  0  0  0  0
 22 21  1  0  0  0  0
 23 22  2  0  0  0  0
 24 19  2  0  0  0  0
 24 23  1  0  0  0  0
 25 19  1  0  0  0  0
 27 28  1  0  0  0  0
 28 30  1  0  0  0  0
 29 28  2  0  0  0  0
 30 23  1  0  0  0  0
 30 31  1  0  0  0  0
M  END
>  <minimizedAffinity>
-4.64133072

$$$$

 OpenBabel03262521003D

 31 32  0  0  1  0  0  0  0  0999 V2000
   38.1220   24.1430   36.7010 N   0  0  0  0  0  0  0  0  0  0  0  0
   38.3160   23.2080   35.6270 C   0  0  1  0  0  0  0  0  0  0  0  0
   39.6780   22.5960   35.7050 C   0  0  0  0  0  0  0  0  0  0  0  0
   39.7680   21.9050   36.9940 N   0  0  0  0  0  0  0  0  0  0  0  0
   39.8190   22.9870   37.9960 C   0  0  0  0  0  0  0  0  0  0  0  0
   38.4290   23.6010   37.9900 C   0  0  2  0  0  0  0  0  0  0  0  0
   38.6500   24.9920   36.4950 H   0  0  0  0  0  0  0  0  0  0  0  0
   38.1580   23.7570   34.6860 H   0  0  0  0  0  0  0  0  0  0  0  0
   39.8220   21.8790   34.8780 H   0  0  0  0  0  0  0  0  0  0  0  0
   40.4430   23.3960   35.6370 H   0  0  0  0  0  0  0  0  0  0  0  0
   40.6230   21.3140   37.0480 H   0  0  0  0  0  0  0  0  0  0  0  0
   40.5860   23.7240   37.7630 H   0  0  0  0  0  0  0  0  0  0  0  0
   40.0010   22.4820   38.9640 H   0  0  0  0  0  0  0  0  0  0  0  0
   38.4570   24.4550   38.7180 H   0  0  0  0  0  0  0  0  0  0  0  0
   37.4760   22.6220   38.4310 N   0  0  0  0  0  0  0  0  0  0  0  0
   36.4910   22.8260   38.1670 H   0  0  0  0  0  0  0  0  0  0  0  0
   37.7610   21.6480   38.1960 H   0  0  0  0  0  0  0  0  0  0  0  0
   37.1210   21.8140   35.7230 S   0  0  0  0  0  0  0  0  0  0  0  0
   35.2430   20.2290   32.4900 C   0  0  0  0  0  0  0  0  0  0  0  0
   35.5660   20.4860   33.8200 C   0  0  0  0  0  0  0  0  0  0  0  0
   36.5790   21.3720   34.0780 C   0  0  0  0  0  0  0  0  0  0  0  0
   37.2330   21.9720   33.0180 N   0  0  0  0  0  0  0  0  0  0  0  0
   36.8920   21.6990   31.7730 C   0  0  0  0  0  0  0  0  0  0  0  0
   35.8940   20.8250   31.4910 N   0  0  0  0  0  0  0  0  0  0  0  0
   34.4390   19.5260   32.3180 H   0  0  0  0  0  0  0  0  0  0  0  0
   35.0690   20.0300   34.6630 H   0  0  0  0  0  0  0  0  0  0  0  0
   39.4550   22.3400   29.5500 H   0  0  0  0  0  0  0  0  0  0  0  0
   38.8910   21.8970   30.3580 C   0  0  0  0  0  0  0  0  0  0  0  0
   39.4800   20.9590   30.9890 O   0  0  0  0  0  0  0  0  0  0  0  0
   37.5780   22.3260   30.6980 N   0  0  0  0  0  0  0  0  0  0  0  0
   37.1190   23.1110   30.1490 H   0  0  0  0  0  0  0  0  0  0  0  0
  1  6  1  0  0  0  0
  2  8  1  6  0  0  0
  2  3  1  0  0  0  0
  2 18  1  0  0  0  0
  2  1  1  0  0  0  0
  3  4  1  0  0  0  0
  4 11  1  0  0  0  0
  4  5  1  0  0  0  0
  5 13  1  0  0  0  0
  6  5  1  0  0  0  0
  6 15  1  0  0  0  0
  6 14  1  1  0  0  0
  7  1  1  0  0  0  0
  9  3  1  0  0  0  0
 10  3  1  0  0  0  0
 12  5  1  0  0  0  0
 16 15  1  0  0  0  0
 17 15  1  0  0  0  0
 19 20  1  0  0  0  0
 20 21  2  0  0  0  0
 20 26  1  0  0  0  0
 21 18  1  0  0  0  0
 22 21  1  0  0  0  0
 23 22  2  0  0  0  0
 24 23  1  0  0  0  0
 24 19  2  0  0  0  0
 25 19  1  0  0  0  0
 27 28  1  0  0  0  0
 28 30  1  0  0  0  0
 28 29  2  0  0  0  0
 30 23  1  0  0  0  0
 31 30  1  0  0  0  0
M  END
>  <minimizedAffinity>
-4.52367592

$$$$

 OpenBabel03262521003D

 31 32  0  0  1  0  0  0  0  0999 V2000
   38.3390   24.3520   36.6140 N   0  0  0  0  0  0  0  0  0  0  0  0
   39.2180   23.4960   35.8650 C   0  0  1  0  0  0  0  0  0  0  0  0
   40.3560   23.0380   36.7180 C   0  0  0  0  0  0  0  0  0  0  0  0
   39.7800   22.3010   37.8470 N   0  0  0  0  0  0  0  0  0  0  0  0
   39.1250   23.3320   38.6730 C   0  0  0  0  0  0  0  0  0  0  0  0
   37.9230   23.7870   37.8630 C   0  0  2  0  0  0  0  0  0  0  0  0
   38.7850   25.2630   36.7250 H   0  0  0  0  0  0  0  0  0  0  0  0
   39.5560   24.0680   34.9880 H   0  0  0  0  0  0  0  0  0  0  0  0
   41.0280   22.3810   36.1380 H   0  0  0  0  0  0  0  0  0  0  0  0
   40.9230   23.9200   37.0770 H   0  0  0  0  0  0  0  0  0  0  0  0
   40.5180   21.8070   38.3920 H   0  0  0  0  0  0  0  0  0  0  0  0
   39.7950   24.1610   38.8990 H   0  0  0  0  0  0  0  0  0  0  0  0
   38.7850   22.8060   39.5850 H   0  0  0  0  0  0  0  0  0  0  0  0
   37.4310   24.6030   38.4570 H   0  0  0  0  0  0  0  0  0  0  0  0
   37.0130   22.6880   37.7080 N   0  0  0  0  0  0  0  0  0  0  0  0
   36.3350   22.7930   36.9260 H   0  0  0  0  0  0  0  0  0  0  0  0
   37.4940   21.7630   37.7010 H   0  0  0  0  0  0  0  0  0  0  0  0
   38.3550   21.9740   35.2990 S   0  0  0  0  0  0  0  0  0  0  0  0
   37.7050   21.4260   31.3290 C   0  0  0  0  0  0  0  0  0  0  0  0
   38.1030   21.1660   32.6380 C   0  0  0  0  0  0  0  0  0  0  0  0
   37.9050   22.1420   33.5780 C   0  0  0  0  0  0  0  0  0  0  0  0
   37.3220   23.3360   33.1940 N   0  0  0  0  0  0  0  0  0  0  0  0
   36.9610   23.5390   31.9420 C   0  0  0  0  0  0  0  0  0  0  0  0
   37.1470   22.5890   30.9920 N   0  0  0  0  0  0  0  0  0  0  0  0
   37.8740   20.6360   30.6090 H   0  0  0  0  0  0  0  0  0  0  0  0
   38.5580   20.2420   32.9600 H   0  0  0  0  0  0  0  0  0  0  0  0
   36.7730   26.8980   31.1680 H   0  0  0  0  0  0  0  0  0  0  0  0
   37.1760   25.9360   31.4480 C   0  0  0  0  0  0  0  0  0  0  0  0
   38.4330   25.9100   31.6650 O   0  0  0  0  0  0  0  0  0  0  0  0
   36.3660   24.7740   31.5690 N   0  0  0  0  0  0  0  0  0  0  0  0
   35.3220   24.8350   31.3800 H   0  0  0  0  0  0  0  0  0  0  0  0
  1  7  1  0  0  0  0
  1  6  1  0  0  0  0
  2  8  1  6  0  0  0
  2  1  1  0  0  0  0
  2  3  1  0  0  0  0
  3 10  1  0  0  0  0
  3  4  1  0  0  0  0
  4 11  1  0  0  0  0
  4  5  1  0  0  0  0
  5 12  1  0  0  0  0
  5 13  1  0  0  0  0
  6 14  1  1  0  0  0
  6  5  1  0  0  0  0
  9  3  1  0  0  0  0
 15  6  1  0  0  0  0
 16 15  1  0  0  0  0
 17 15  1  0  0  0  0
 18  2  1  0  0  0  0
 19 20  1  0  0  0  0
 20 26  1  0  0  0  0
 20 21  2  0  0  0  0
 21 18  1  0  0  0  0
 22 21  1  0  0  0  0
 23 22  2  0  0  0  0
 24 19  2  0  0  0  0
 24 23  1  0  0  0  0
 25 19  1  0  0  0  0
 27 28  1  0  0  0  0
 28 30  1  0  0  0  0
 28 29  2  0  0  0  0
 30 23  1  0  0  0  0
 31 30  1  0  0  0  0
M  END
>  <minimizedAffinity>
-4.37509727

$$$$

 OpenBabel03262521003D

 31 32  0  0  1  0  0  0  0  0999 V2000
   37.7470   25.9700   32.1930 N   0  0  0  0  0  0  0  0  0  0  0  0
   36.3120   26.0090   32.1230 C   0  0  1  0  0  0  0  0  0  0  0  0
   35.8530   27.2800   31.4840 C   0  0  0  0  0  0  0  0  0  0  0  0
   36.4210   27.3140   30.1340 N   0  0  0  0  0  0  0  0  0  0  0  0
   37.8640   27.5360   30.3400 C   0  0  0  0  0  0  0  0  0  0  0  0
   38.3840   26.2390   30.9390 C   0  0  2  0  0  0  0  0  0  0  0  0
   38.0560   26.6000   32.9340 H   0  0  0  0  0  0  0  0  0  0  0  0
   35.9350   25.8980   33.1510 H   0  0  0  0  0  0  0  0  0  0  0  0
   34.7500   27.3050   31.4340 H   0  0  0  0  0  0  0  0  0  0  0  0
   36.2130   28.1410   32.0810 H   0  0  0  0  0  0  0  0  0  0  0  0
   36.0070   28.0850   29.5690 H   0  0  0  0  0  0  0  0  0  0  0  0
   38.0580   28.3860   30.9920 H   0  0  0  0  0  0  0  0  0  0  0  0
   38.2880   27.6770   29.3280 H   0  0  0  0  0  0  0  0  0  0  0  0
   39.4770   26.4010   31.1420 H   0  0  0  0  0  0  0  0  0  0  0  0
   38.2220   25.1780   29.9860 N   0  0  0  0  0  0  0  0  0  0  0  0
   38.2460   24.2220   30.3930 H   0  0  0  0  0  0  0  0  0  0  0  0
   37.4080   25.3260   29.3530 H   0  0  0  0  0  0  0  0  0  0  0  0
   35.6500   24.6430   31.0850 S   0  0  0  0  0  0  0  0  0  0  0  0
   35.8650   20.7620   32.2570 C   0  0  0  0  0  0  0  0  0  0  0  0
   35.3830   21.9230   31.6570 C   0  0  0  0  0  0  0  0  0  0  0  0
   36.1210   23.0700   31.7890 C   0  0  0  0  0  0  0  0  0  0  0  0
   37.3030   23.0290   32.5050 N   0  0  0  0  0  0  0  0  0  0  0  0
   37.7210   21.9070   33.0560 C   0  0  0  0  0  0  0  0  0  0  0  0
   37.0090   20.7580   32.9400 N   0  0  0  0  0  0  0  0  0  0  0  0
   35.2610   19.8720   32.1350 H   0  0  0  0  0  0  0  0  0  0  0  0
   34.4640   21.9770   31.0940 H   0  0  0  0  0  0  0  0  0  0  0  0
   39.8830   22.4710   35.6880 H   0  0  0  0  0  0  0  0  0  0  0  0
   38.9830   22.4600   35.0900 C   0  0  0  0  0  0  0  0  0  0  0  0
   37.9590   22.9940   35.6300 O   0  0  0  0  0  0  0  0  0  0  0  0
   38.9380   21.8880   33.7890 N   0  0  0  0  0  0  0  0  0  0  0  0
   39.8120   21.4510   33.3720 H   0  0  0  0  0  0  0  0  0  0  0  0
  1  7  1  0  0  0  0
  2  1  1  0  0  0  0
  2  8  1  1  0  0  0
  3 10  1  0  0  0  0
  3  2  1  0  0  0  0
  4  5  1  0  0  0  0
  4  3  1  0  0  0  0
  5  6  1  0  0  0  0
  5 12  1  0  0  0  0
  6 14  1  1  0  0  0
  6  1  1  0  0  0  0
  9  3  1  0  0  0  0
 11  4  1  0  0  0  0
 13  5  1  0  0  0  0
 15 16  1  0  0  0  0
 15  6  1  0  0  0  0
 17 15  1  0  0  0  0
 18 21  1  0  0  0  0
 18  2  1  0  0  0  0
 19 24  1  0  0  0  0
 20 21  1  0  0  0  0
 20 19  2  0  0  0  0
 21 22  2  0  0  0  0
 22 23  1  0  0  0  0
 23 30  1  0  0  0  0
 24 23  2  0  0  0  0
 25 19  1  0  0  0  0
 26 20  1  0  0  0  0
 28 29  2  0  0  0  0
 28 27  1  0  0  0  0
 30 28  1  0  0  0  0
 31 30  1  0  0  0  0
M  END
>  <minimizedAffinity>
-4.37111378

$$$$

 OpenBabel03262521003D

 31 32  0  0  1  0  0  0  0  0999 V2000
   38.0910   28.2010   31.0830 N   0  0  0  0  0  0  0  0  0  0  0  0
   37.0120   27.8670   31.9730 C   0  0  1  0  0  0  0  0  0  0  0  0
   36.2020   29.0820   32.2930 C   0  0  0  0  0  0  0  0  0  0  0  0
   35.6670   29.5900   31.0270 N   0  0  0  0  0  0  0  0  0  0  0  0
   36.8390   30.1370   30.3170 C   0  0  0  0  0  0  0  0  0  0  0  0
   37.6650   28.9240   29.9220 C   0  0  2  0  0  0  0  0  0  0  0  0
   38.8110   28.6950   31.6120 H   0  0  0  0  0  0  0  0  0  0  0  0
   37.4620   27.4160   32.8700 H   0  0  0  0  0  0  0  0  0  0  0  0
   35.3760   28.8200   32.9770 H   0  0  0  0  0  0  0  0  0  0  0  0
   36.8520   29.8400   32.7740 H   0  0  0  0  0  0  0  0  0  0  0  0
   34.9550   30.3330   31.1880 H   0  0  0  0  0  0  0  0  0  0  0  0
   37.4080   30.8260   30.9390 H   0  0  0  0  0  0  0  0  0  0  0  0
   36.4330   30.6250   29.4110 H   0  0  0  0  0  0  0  0  0  0  0  0
   38.5850   29.3200   29.4150 H   0  0  0  0  0  0  0  0  0  0  0  0
   36.9150   28.1190   29.0000 N   0  0  0  0  0  0  0  0  0  0  0  0
   37.2430   27.1360   28.9170 H   0  0  0  0  0  0  0  0  0  0  0  0
   35.8860   28.1880   29.1500 H   0  0  0  0  0  0  0  0  0  0  0  0
   35.8530   26.6630   31.2060 S   0  0  0  0  0  0  0  0  0  0  0  0
   35.9730   22.6620   31.8880 C   0  0  0  0  0  0  0  0  0  0  0  0
   35.5350   23.8960   31.4140 C   0  0  0  0  0  0  0  0  0  0  0  0
   36.2720   25.0070   31.7310 C   0  0  0  0  0  0  0  0  0  0  0  0
   37.4120   24.8600   32.5000 N   0  0  0  0  0  0  0  0  0  0  0  0
   37.7890   23.6710   32.9270 C   0  0  0  0  0  0  0  0  0  0  0  0
   37.0770   22.5560   32.6280 N   0  0  0  0  0  0  0  0  0  0  0  0
   35.3710   21.8040   31.6210 H   0  0  0  0  0  0  0  0  0  0  0  0
   34.6500   24.0350   30.8120 H   0  0  0  0  0  0  0  0  0  0  0  0
   39.8020   23.8690   35.7250 H   0  0  0  0  0  0  0  0  0  0  0  0
   38.9380   23.9450   35.0810 C   0  0  0  0  0  0  0  0  0  0  0  0
   37.8880   24.4220   35.6270 O   0  0  0  0  0  0  0  0  0  0  0  0
   38.9630   23.5430   33.7180 N   0  0  0  0  0  0  0  0  0  0  0  0
   39.8560   23.1500   33.2980 H   0  0  0  0  0  0  0  0  0  0  0  0
  1  7  1  0  0  0  0
  1  2  1  0  0  0  0
  2  3  1  0  0  0  0
  2  8  1  1  0  0  0
  3 10  1  0  0  0  0
  3  9  1  0  0  0  0
  4 11  1  0  0  0  0
  4  3  1  0  0  0  0
  5 12  1  0  0  0  0
  5  4  1  0  0  0  0
  6 14  1  6  0  0  0
  6  5  1  0  0  0  0
  6  1  1  0  0  0  0
 13  5  1  0  0  0  0
 15 17  1  0  0  0  0
 15  6  1  0  0  0  0
 16 15  1  0  0  0  0
 18 21  1  0  0  0  0
 18  2  1  0  0  0  0
 19 24  1  0  0  0  0
 20 21  1  0  0  0  0
 20 19  2  0  0  0  0
 21 22  2  0  0  0  0
 22 23  1  0  0  0  0
 23 30  1  0  0  0  0
 24 23  2  0  0  0  0
 25 19  1  0  0  0  0
 26 20  1  0  0  0  0
 28 29  2  0  0  0  0
 28 27  1  0  0  0  0
 30 28  1  0  0  0  0
 31 30  1  0  0  0  0
M  END
>  <minimizedAffinity>
-4.34597015

$$$$

 OpenBabel03262521003D

 31 32  0  0  1  0  0  0  0  0999 V2000
   38.4400   22.6200   35.8730 N   0  0  0  0  0  0  0  0  0  0  0  0
   37.7590   23.4600   36.8200 C   0  0  1  0  0  0  0  0  0  0  0  0
   38.1440   23.0940   38.2170 C   0  0  0  0  0  0  0  0  0  0  0  0
   39.5920   23.2830   38.3300 N   0  0  0  0  0  0  0  0  0  0  0  0
   40.1760   22.1990   37.5170 C   0  0  0  0  0  0  0  0  0  0  0  0
   39.8560   22.5650   36.0770 C   0  0  2  0  0  0  0  0  0  0  0  0
   38.0050   21.6970   35.8820 H   0  0  0  0  0  0  0  0  0  0  0  0
   36.6800   23.3440   36.6390 H   0  0  0  0  0  0  0  0  0  0  0  0
   37.6180   23.7410   38.9400 H   0  0  0  0  0  0  0  0  0  0  0  0
   37.8730   22.0350   38.4060 H   0  0  0  0  0  0  0  0  0  0  0  0
   39.9070   23.2110   39.3190 H   0  0  0  0  0  0  0  0  0  0  0  0
   39.7720   21.2240   37.7840 H   0  0  0  0  0  0  0  0  0  0  0  0
   41.2680   22.2610   37.6850 H   0  0  0  0  0  0  0  0  0  0  0  0
   40.2570   21.7300   35.4420 H   0  0  0  0  0  0  0  0  0  0  0  0
   40.5220   23.7910   35.7400 N   0  0  0  0  0  0  0  0  0  0  0  0
   40.1290   24.2850   34.9140 H   0  0  0  0  0  0  0  0  0  0  0  0
   40.6490   24.4200   36.5610 H   0  0  0  0  0  0  0  0  0  0  0  0
   38.2200   25.2280   36.6070 S   0  0  0  0  0  0  0  0  0  0  0  0
   36.7940   27.2870   33.4120 C   0  0  0  0  0  0  0  0  0  0  0  0
   37.1140   26.9750   34.7310 C   0  0  0  0  0  0  0  0  0  0  0  0
   37.7410   25.7820   34.9780 C   0  0  0  0  0  0  0  0  0  0  0  0
   38.0300   24.9440   33.9170 N   0  0  0  0  0  0  0  0  0  0  0  0
   37.7080   25.2800   32.6830 C   0  0  0  0  0  0  0  0  0  0  0  0
   37.0870   26.4550   32.4120 N   0  0  0  0  0  0  0  0  0  0  0  0
   36.3010   28.2360   33.2480 H   0  0  0  0  0  0  0  0  0  0  0  0
   36.8990   27.6150   35.5730 H   0  0  0  0  0  0  0  0  0  0  0  0
   37.4210   22.5310   30.6150 H   0  0  0  0  0  0  0  0  0  0  0  0
   37.2310   23.2300   31.4160 C   0  0  0  0  0  0  0  0  0  0  0  0
   36.2550   22.9350   32.1810 O   0  0  0  0  0  0  0  0  0  0  0  0
   38.0130   24.4020   31.6080 N   0  0  0  0  0  0  0  0  0  0  0  0
   38.8190   24.6150   30.9490 H   0  0  0  0  0  0  0  0  0  0  0  0
  1  7  1  0  0  0  0
  1  6  1  0  0  0  0
  1  2  1  0  0  0  0
  2  8  1  6  0  0  0
  2  3  1  0  0  0  0
  3  4  1  0  0  0  0
  3 10  1  0  0  0  0
  3  9  1  0  0  0  0
  4 11  1  0  0  0  0
  5 13  1  0  0  0  0
  5 12  1  0  0  0  0
  5  4  1  0  0  0  0
  6 14  1  6  0  0  0
  6  5  1  0  0  0  0
 15  6  1  0  0  0  0
 15 17  1  0  0  0  0
 16 15  1  0  0  0  0
 18  2  1  0  0  0  0
 19 20  1  0  0  0  0
 20 21  2  0  0  0  0
 20 26  1  0  0  0  0
 21 18  1  0  0  0  0
 22 21  1  0  0  0  0
 23 22  2  0  0  0  0
 24 23  1  0  0  0  0
 24 19  2  0  0  0  0
 25 19  1  0  0  0  0
 27 28  1  0  0  0  0
 28 30  1  0  0  0  0
 28 29  2  0  0  0  0
 30 23  1  0  0  0  0
 31 30  1  0  0  0  0
M  END
>  <minimizedAffinity>
-4.32561541

$$$$

 OpenBabel03262521003D

 31 32  0  0  1  0  0  0  0  0999 V2000
   35.7550   21.4700   31.0340 N   0  0  0  0  0  0  0  0  0  0  0  0
   36.0270   21.9170   32.3740 C   0  0  1  0  0  0  0  0  0  0  0  0
   35.3320   21.0450   33.3680 C   0  0  0  0  0  0  0  0  0  0  0  0
   35.8430   19.6840   33.1810 N   0  0  0  0  0  0  0  0  0  0  0  0
   35.2800   19.2470   31.8900 C   0  0  0  0  0  0  0  0  0  0  0  0
   36.0050   20.0730   30.8400 C   0  0  2  0  0  0  0  0  0  0  0  0
   34.8010   21.7360   30.7880 H   0  0  0  0  0  0  0  0  0  0  0  0
   35.7000   22.9660   32.4360 H   0  0  0  0  0  0  0  0  0  0  0  0
   35.5440   21.3930   34.3950 H   0  0  0  0  0  0  0  0  0  0  0  0
   34.2390   21.0800   33.1860 H   0  0  0  0  0  0  0  0  0  0  0  0
   35.5320   19.0550   33.9500 H   0  0  0  0  0  0  0  0  0  0  0  0
   34.2020   19.3930   31.8430 H   0  0  0  0  0  0  0  0  0  0  0  0
   35.5650   18.1820   31.7900 H   0  0  0  0  0  0  0  0  0  0  0  0
   35.5620   19.7850   29.8500 H   0  0  0  0  0  0  0  0  0  0  0  0
   37.4020   19.7440   30.8580 N   0  0  0  0  0  0  0  0  0  0  0  0
   38.0210   20.4550   30.4210 H   0  0  0  0  0  0  0  0  0  0  0  0
   37.7340   19.4470   31.8010 H   0  0  0  0  0  0  0  0  0  0  0  0
   37.8200   21.8170   32.7660 S   0  0  0  0  0  0  0  0  0  0  0  0
   38.3500   24.9500   35.2940 C   0  0  0  0  0  0  0  0  0  0  0  0
   38.0200   24.2390   34.1430 C   0  0  0  0  0  0  0  0  0  0  0  0
   38.1930   22.8800   34.1530 C   0  0  0  0  0  0  0  0  0  0  0  0
   38.6840   22.2740   35.2960 N   0  0  0  0  0  0  0  0  0  0  0  0
   38.9830   22.9880   36.3630 C   0  0  0  0  0  0  0  0  0  0  0  0
   38.8210   24.3350   36.3780 N   0  0  0  0  0  0  0  0  0  0  0  0
   38.2010   26.0210   35.2560 H   0  0  0  0  0  0  0  0  0  0  0  0
   37.6350   24.6900   33.2410 H   0  0  0  0  0  0  0  0  0  0  0  0
   41.2640   21.3900   38.4030 H   0  0  0  0  0  0  0  0  0  0  0  0
   40.8320   21.8840   37.5450 C   0  0  0  0  0  0  0  0  0  0  0  0
   41.6110   22.0280   36.5460 O   0  0  0  0  0  0  0  0  0  0  0  0
   39.4880   22.3460   37.5260 N   0  0  0  0  0  0  0  0  0  0  0  0
   38.8680   22.2080   38.3780 H   0  0  0  0  0  0  0  0  0  0  0  0
  1  2  1  0  0  0  0
  2  8  1  1  0  0  0
  2 18  1  0  0  0  0
  2  3  1  0  0  0  0
  3  9  1  0  0  0  0
  4  3  1  0  0  0  0
  4 11  1  0  0  0  0
  5  4  1  0  0  0  0
  6 14  1  6  0  0  0
  6 15  1  0  0  0  0
  6  1  1  0  0  0  0
  6  5  1  0  0  0  0
  7  1  1  0  0  0  0
 10  3  1  0  0  0  0
 12  5  1  0  0  0  0
 13  5  1  0  0  0  0
 15 17  1  0  0  0  0
 16 15  1  0  0  0  0
 18 21  1  0  0  0  0
 19 24  1  0  0  0  0
 20 21  1  0  0  0  0
 20 19  2  0  0  0  0
 21 22  2  0  0  0  0
 22 23  1  0  0  0  0
 23 24  2  0  0  0  0
 23 30  1  0  0  0  0
 25 19  1  0  0  0  0
 26 20  1  0  0  0  0
 28 27  1  0  0  0  0
 29 28  2  0  0  0  0
 30 28  1  0  0  0  0
 30 31  1  0  0  0  0
M  END
>  <minimizedAffinity>
-4.28105354

$$$$
