
 OpenBabel03272508433D

 23 24  0  0  0  0  0  0  0  0999 V2000
   36.5540   30.5100   50.0050 C   0  0  0  0  0  0  0  0  0  0  0  0
   37.7380   30.2940   50.6650 C   0  0  0  0  0  0  0  0  0  0  0  0
   38.5670   31.3040   50.1860 C   0  0  0  0  0  0  0  0  0  0  0  0
   37.8630   32.0580   49.2840 C   0  0  0  0  0  0  0  0  0  0  0  0
   36.6710   31.5540   49.2040 O   0  0  0  0  0  0  0  0  0  0  0  0
   37.9590   29.5170   51.3870 H   0  0  0  0  0  0  0  0  0  0  0  0
   39.5900   31.4190   50.5110 H   0  0  0  0  0  0  0  0  0  0  0  0
   39.5400   35.0150   48.4450 H   0  0  0  0  0  0  0  0  0  0  0  0
   39.2150   34.1570   49.0220 C   0  0  0  0  0  0  0  0  0  0  0  0
   39.7030   34.0590   50.1700 O   0  0  0  0  0  0  0  0  0  0  0  0
   38.3020   33.1890   48.5460 N   0  0  0  0  0  0  0  0  0  0  0  0
   37.9700   33.3820   47.5810 H   0  0  0  0  0  0  0  0  0  0  0  0
   35.3440   29.6930   50.1720 C   0  0  0  0  0  0  0  0  0  0  0  0
   35.0980   29.2480   51.3180 O   0  0  0  0  0  0  0  0  0  0  0  0
   32.8730   28.0460   48.0670 C   0  0  0  0  0  0  0  0  0  0  0  0
   32.8430   28.8700   46.9280 C   0  0  0  0  0  0  0  0  0  0  0  0
   33.6580   29.9840   46.8730 C   0  0  0  0  0  0  0  0  0  0  0  0
   34.4550   30.2190   47.9410 N   0  0  0  0  0  0  0  0  0  0  0  0
   34.4810   29.4250   49.0320 C   0  0  0  0  0  0  0  0  0  0  0  0
   33.6880   28.3410   49.0870 N   0  0  0  0  0  0  0  0  0  0  0  0
   32.2520   27.1580   48.1620 H   0  0  0  0  0  0  0  0  0  0  0  0
   32.1560   28.5580   46.1520 H   0  0  0  0  0  0  0  0  0  0  0  0
   33.6220   30.5980   46.0010 H   0  0  0  0  0  0  0  0  0  0  0  0
  1 13  1  0  0  0  0
  1  2  2  0  0  0  0
  2  6  1  0  0  0  0
  3  7  1  0  0  0  0
  3  2  1  0  0  0  0
  4  3  2  0  0  0  0
  5  4  1  0  0  0  0
  5  1  1  0  0  0  0
  8  9  1  0  0  0  0
  9 10  2  0  0  0  0
 11  9  1  0  0  0  0
 11  4  1  0  0  0  0
 12 11  1  0  0  0  0
 13 14  2  0  0  0  0
 15 21  1  0  0  0  0
 15 20  1  0  0  0  0
 16 15  2  0  0  0  0
 17 16  1  0  0  0  0
 17 18  2  0  0  0  0
 18 19  1  0  0  0  0
 19 20  2  0  0  0  0
 19 13  1  0  0  0  0
 22 16  1  0  0  0  0
 23 17  1  0  0  0  0
M  END
>  <minimizedAffinity>
-5.19399643

>  <minimizedRMSD>
1.77519286

$$$$
