
 OpenBabel03272501253D

 35 37  0  0  1  0  0  0  0  0999 V2000
   35.2270   30.0180   47.4580 C   0  0  0  0  0  0  0  0  0  0  0  0
   35.8150   30.1850   46.2130 C   0  0  0  0  0  0  0  0  0  0  0  0
   36.9770   30.9450   46.3970 C   0  0  0  0  0  0  0  0  0  0  0  0
   37.0480   31.2030   47.7210 N   0  0  0  0  0  0  0  0  0  0  0  0
   36.0090   30.6470   48.3190 N   0  0  0  0  0  0  0  0  0  0  0  0
   35.5490   29.8560   45.2090 H   0  0  0  0  0  0  0  0  0  0  0  0
   37.6820   31.2640   45.6310 H   0  0  0  0  0  0  0  0  0  0  0  0
   33.6870   28.5860   48.8170 C   0  0  0  0  0  0  0  0  0  0  0  0
   33.9930   29.2730   47.6440 C   0  0  0  0  0  0  0  0  0  0  0  0
   33.0560   29.2290   46.6100 C   0  0  0  0  0  0  0  0  0  0  0  0
   31.9210   28.5300   46.8110 N   0  0  0  0  0  0  0  0  0  0  0  0
   31.6520   27.8740   47.9610 C   0  0  0  0  0  0  0  0  0  0  0  0
   32.5530   27.9030   48.9840 N   0  0  0  0  0  0  0  0  0  0  0  0
   34.4150   28.6170   49.6270 H   0  0  0  0  0  0  0  0  0  0  0  0
   33.2460   29.7510   45.6640 H   0  0  0  0  0  0  0  0  0  0  0  0
   28.7440   26.6850   49.4010 H   0  0  0  0  0  0  0  0  0  0  0  0
   29.6800   27.2510   49.2930 C   0  0  0  0  0  0  0  0  0  0  0  0
   30.1200   28.0160   50.2060 O   0  0  0  0  0  0  0  0  0  0  0  0
   30.4460   27.1550   48.1220 N   0  0  0  0  0  0  0  0  0  0  0  0
   30.0940   26.5360   47.3780 H   0  0  0  0  0  0  0  0  0  0  0  0
   38.8560   32.7800   47.5700 N   0  0  0  0  0  0  0  0  0  0  0  0
   39.4780   33.7210   48.4790 C   0  0  0  0  0  0  0  0  0  0  0  0
   38.6890   33.7170   49.7740 C   0  0  0  0  0  0  0  0  0  0  0  0
   37.4310   32.9590   49.3490 C   0  0  0  0  0  0  0  0  0  0  0  0
   38.0390   31.9390   48.4250 C   0  0  1  0  0  0  0  0  0  0  0  0
   38.2290   33.2600   46.8810 H   0  0  0  0  0  0  0  0  0  0  0  0
   39.4900   34.7590   48.0340 H   0  0  0  0  0  0  0  0  0  0  0  0
   40.5130   33.3760   48.6710 H   0  0  0  0  0  0  0  0  0  0  0  0
   39.2090   33.1760   50.5810 H   0  0  0  0  0  0  0  0  0  0  0  0
   38.4340   34.7440   50.1240 H   0  0  0  0  0  0  0  0  0  0  0  0
   36.7080   33.6130   48.8470 H   0  0  0  0  0  0  0  0  0  0  0  0
   37.0460   32.4360   50.2450 H   0  0  0  0  0  0  0  0  0  0  0  0
   38.8310   31.0160   49.1920 N   0  0  0  0  0  0  0  0  0  0  0  0
   38.2540   30.5590   49.9060 H   0  0  0  0  0  0  0  0  0  0  0  0
   39.3280   30.3520   48.5510 H   0  0  0  0  0  0  0  0  0  0  0  0
  1  9  1  0  0  0  0
  1  5  2  0  0  0  0
  2  3  2  0  0  0  0
  2  1  1  0  0  0  0
  3  4  1  0  0  0  0
  4  5  1  0  0  0  0
  4 25  1  0  0  0  0
  6  2  1  0  0  0  0
  7  3  1  0  0  0  0
  8 13  1  0  0  0  0
  8 14  1  0  0  0  0
  9  8  2  0  0  0  0
 10 11  2  0  0  0  0
 10  9  1  0  0  0  0
 11 12  1  0  0  0  0
 12 19  1  0  0  0  0
 12 13  2  0  0  0  0
 15 10  1  0  0  0  0
 17 16  1  0  0  0  0
 17 18  2  0  0  0  0
 19 17  1  0  0  0  0
 20 19  1  0  0  0  0
 21 25  1  0  0  0  0
 21 22  1  0  0  0  0
 22 28  1  0  0  0  0
 22 23  1  0  0  0  0
 23 30  1  0  0  0  0
 23 29  1  0  0  0  0
 24 23  1  0  0  0  0
 24 32  1  0  0  0  0
 25 33  1  1  0  0  0
 25 24  1  0  0  0  0
 26 21  1  0  0  0  0
 27 22  1  0  0  0  0
 31 24  1  0  0  0  0
 33 34  1  0  0  0  0
 35 33  1  0  0  0  0
M  END
>  <minimizedAffinity>
-5.62930679

>  <minimizedRMSD>
0.0390054695

$$$$
