
 OpenBabel03272504133D

 17 17  0  0  0  0  0  0  0  0999 V2000
   38.1680   23.9870   36.9700 C   0  0  0  0  0  0  0  0  0  0  0  0
   37.9830   25.3070   36.5180 C   0  0  0  0  0  0  0  0  0  0  0  0
   37.9020   25.5150   35.1440 C   0  0  0  0  0  0  0  0  0  0  0  0
   38.0060   24.4420   34.3190 N   0  0  0  0  0  0  0  0  0  0  0  0
   38.1840   23.1880   34.7870 C   0  0  0  0  0  0  0  0  0  0  0  0
   38.2640   22.9790   36.1080 N   0  0  0  0  0  0  0  0  0  0  0  0
   37.9010   26.1530   37.1670 H   0  0  0  0  0  0  0  0  0  0  0  0
   38.2600   22.3720   34.0680 H   0  0  0  0  0  0  0  0  0  0  0  0
   37.1540   27.9070   32.7380 H   0  0  0  0  0  0  0  0  0  0  0  0
   37.3240   26.9700   33.2510 C   0  0  0  0  0  0  0  0  0  0  0  0
   37.1570   25.9090   32.5860 O   0  0  0  0  0  0  0  0  0  0  0  0
   37.7160   26.8110   34.5990 N   0  0  0  0  0  0  0  0  0  0  0  0
   37.8610   27.6520   35.1700 H   0  0  0  0  0  0  0  0  0  0  0  0
   38.2560   23.7590   38.4500 C   0  0  0  0  0  0  0  0  0  0  0  0
   38.0840   24.9710   39.1120 F   0  0  0  0  0  0  0  0  0  0  0  0
   37.3290   22.8230   38.7850 F   0  0  0  0  0  0  0  0  0  0  0  0
   39.5420   23.3390   38.7290 F   0  0  0  0  0  0  0  0  0  0  0  0
  1 14  1  0  0  0  0
  2  1  1  0  0  0  0
  2  7  1  0  0  0  0
  3  2  2  0  0  0  0
  4  5  2  0  0  0  0
  4  3  1  0  0  0  0
  5  6  1  0  0  0  0
  6  1  2  0  0  0  0
  8  5  1  0  0  0  0
  9 10  1  0  0  0  0
 10 12  1  0  0  0  0
 11 10  2  0  0  0  0
 12  3  1  0  0  0  0
 12 13  1  0  0  0  0
 14 17  1  0  0  0  0
 14 16  1  0  0  0  0
 14 15  1  0  0  0  0
M  END
>  <minimizedAffinity>
-4.46699476

$$$$

 OpenBabel03272504133D

 17 17  0  0  0  0  0  0  0  0999 V2000
   39.1280   23.6000   36.8520 C   0  0  0  0  0  0  0  0  0  0  0  0
   39.8470   22.7340   37.6960 C   0  0  0  0  0  0  0  0  0  0  0  0
   40.7940   21.8990   37.1110 C   0  0  0  0  0  0  0  0  0  0  0  0
   40.9730   21.9630   35.7670 N   0  0  0  0  0  0  0  0  0  0  0  0
   40.2650   22.8060   34.9860 C   0  0  0  0  0  0  0  0  0  0  0  0
   39.3500   23.6130   35.5410 N   0  0  0  0  0  0  0  0  0  0  0  0
   39.7070   22.6830   38.7560 H   0  0  0  0  0  0  0  0  0  0  0  0
   40.4590   22.8050   33.9130 H   0  0  0  0  0  0  0  0  0  0  0  0
   43.3780   19.6930   37.8400 H   0  0  0  0  0  0  0  0  0  0  0  0
   42.7220   20.3930   37.3390 C   0  0  0  0  0  0  0  0  0  0  0  0
   43.0110   20.7070   36.1510 O   0  0  0  0  0  0  0  0  0  0  0  0
   41.5660   20.9940   37.8850 N   0  0  0  0  0  0  0  0  0  0  0  0
   41.3000   20.7610   38.8490 H   0  0  0  0  0  0  0  0  0  0  0  0
   38.1060   24.5010   37.4790 C   0  0  0  0  0  0  0  0  0  0  0  0
   38.2610   24.4800   38.8620 F   0  0  0  0  0  0  0  0  0  0  0  0
   38.2510   25.7400   36.9370 F   0  0  0  0  0  0  0  0  0  0  0  0
   36.8610   23.9630   37.2160 F   0  0  0  0  0  0  0  0  0  0  0  0
  1 14  1  0  0  0  0
  1  2  1  0  0  0  0
  2  7  1  0  0  0  0
  3  2  2  0  0  0  0
  3 12  1  0  0  0  0
  4  3  1  0  0  0  0
  5  6  1  0  0  0  0
  5  4  2  0  0  0  0
  6  1  2  0  0  0  0
  8  5  1  0  0  0  0
 10  9  1  0  0  0  0
 10 12  1  0  0  0  0
 11 10  2  0  0  0  0
 12 13  1  0  0  0  0
 14 15  1  0  0  0  0
 16 14  1  0  0  0  0
 17 14  1  0  0  0  0
M  END
>  <minimizedAffinity>
-4.35513973

$$$$

 OpenBabel03272504133D

 17 17  0  0  0  0  0  0  0  0999 V2000
   38.1160   24.0580   36.8470 C   0  0  0  0  0  0  0  0  0  0  0  0
   38.0400   25.4040   36.4430 C   0  0  0  0  0  0  0  0  0  0  0  0
   37.8960   25.6650   35.0840 C   0  0  0  0  0  0  0  0  0  0  0  0
   37.8360   24.6150   34.2250 N   0  0  0  0  0  0  0  0  0  0  0  0
   37.9130   23.3350   34.6470 C   0  0  0  0  0  0  0  0  0  0  0  0
   38.0530   23.0750   35.9540 N   0  0  0  0  0  0  0  0  0  0  0  0
   38.0870   26.2330   37.1190 H   0  0  0  0  0  0  0  0  0  0  0  0
   37.8590   22.5400   33.9030 H   0  0  0  0  0  0  0  0  0  0  0  0
   37.2500   28.1990   32.7960 H   0  0  0  0  0  0  0  0  0  0  0  0
   37.3530   27.2330   33.2720 C   0  0  0  0  0  0  0  0  0  0  0  0
   37.0370   26.2170   32.5910 O   0  0  0  0  0  0  0  0  0  0  0  0
   37.8100   26.9910   34.5870 N   0  0  0  0  0  0  0  0  0  0  0  0
   38.0770   27.7930   35.1690 H   0  0  0  0  0  0  0  0  0  0  0  0
   38.2720   23.7740   38.3110 C   0  0  0  0  0  0  0  0  0  0  0  0
   37.2350   22.9460   38.7320 F   0  0  0  0  0  0  0  0  0  0  0  0
   39.5060   23.2360   38.5040 F   0  0  0  0  0  0  0  0  0  0  0  0
   38.1170   24.9690   38.9860 F   0  0  0  0  0  0  0  0  0  0  0  0
  1 14  1  0  0  0  0
  2  1  1  0  0  0  0
  2  7  1  0  0  0  0
  3  2  2  0  0  0  0
  4  5  2  0  0  0  0
  4  3  1  0  0  0  0
  5  6  1  0  0  0  0
  6  1  2  0  0  0  0
  8  5  1  0  0  0  0
  9 10  1  0  0  0  0
 10 12  1  0  0  0  0
 11 10  2  0  0  0  0
 12  3  1  0  0  0  0
 12 13  1  0  0  0  0
 14 16  1  0  0  0  0
 14 15  1  0  0  0  0
 14 17  1  0  0  0  0
M  END
>  <minimizedAffinity>
-4.29775715

$$$$

 OpenBabel03272504133D

 17 17  0  0  0  0  0  0  0  0999 V2000
   38.1490   23.9320   36.9870 C   0  0  0  0  0  0  0  0  0  0  0  0
   38.1530   22.7580   36.2110 C   0  0  0  0  0  0  0  0  0  0  0  0
   38.1170   22.8980   34.8270 C   0  0  0  0  0  0  0  0  0  0  0  0
   38.0810   24.1490   34.3020 N   0  0  0  0  0  0  0  0  0  0  0  0
   38.0790   25.2550   35.0760 C   0  0  0  0  0  0  0  0  0  0  0  0
   38.1120   25.1300   36.4100 N   0  0  0  0  0  0  0  0  0  0  0  0
   38.1810   21.7710   36.6230 H   0  0  0  0  0  0  0  0  0  0  0  0
   38.0480   26.2300   34.5890 H   0  0  0  0  0  0  0  0  0  0  0  0
   38.4260   21.1320   31.8500 H   0  0  0  0  0  0  0  0  0  0  0  0
   38.3990   21.9210   32.5890 C   0  0  0  0  0  0  0  0  0  0  0  0
   38.6400   23.0950   32.1920 O   0  0  0  0  0  0  0  0  0  0  0  0
   38.1180   21.7700   33.9660 N   0  0  0  0  0  0  0  0  0  0  0  0
   37.9170   20.8300   34.3250 H   0  0  0  0  0  0  0  0  0  0  0  0
   38.1870   23.7860   38.4790 C   0  0  0  0  0  0  0  0  0  0  0  0
   37.9440   25.0230   39.0690 F   0  0  0  0  0  0  0  0  0  0  0  0
   37.2810   22.8330   38.8290 F   0  0  0  0  0  0  0  0  0  0  0  0
   39.4750   23.4310   38.8300 F   0  0  0  0  0  0  0  0  0  0  0  0
  1 14  1  0  0  0  0
  2  7  1  0  0  0  0
  2  1  2  0  0  0  0
  3  2  1  0  0  0  0
  4  3  2  0  0  0  0
  4  5  1  0  0  0  0
  5  6  2  0  0  0  0
  6  1  1  0  0  0  0
  8  5  1  0  0  0  0
  9 10  1  0  0  0  0
 10 12  1  0  0  0  0
 11 10  2  0  0  0  0
 12 13  1  0  0  0  0
 12  3  1  0  0  0  0
 14 16  1  0  0  0  0
 14 17  1  0  0  0  0
 14 15  1  0  0  0  0
M  END
>  <minimizedAffinity>
-4.23438978

$$$$

 OpenBabel03272504133D

 17 17  0  0  0  0  0  0  0  0999 V2000
   38.1690   23.9810   36.9930 C   0  0  0  0  0  0  0  0  0  0  0  0
   38.1420   22.8000   36.2270 C   0  0  0  0  0  0  0  0  0  0  0  0
   38.0950   22.9300   34.8420 C   0  0  0  0  0  0  0  0  0  0  0  0
   38.0780   24.1780   34.3080 N   0  0  0  0  0  0  0  0  0  0  0  0
   38.1040   25.2890   35.0740 C   0  0  0  0  0  0  0  0  0  0  0  0
   38.1480   25.1740   36.4080 N   0  0  0  0  0  0  0  0  0  0  0  0
   38.1550   21.8160   36.6460 H   0  0  0  0  0  0  0  0  0  0  0  0
   38.0880   26.2610   34.5790 H   0  0  0  0  0  0  0  0  0  0  0  0
   38.3400   21.1360   31.8760 H   0  0  0  0  0  0  0  0  0  0  0  0
   38.3360   21.9310   32.6100 C   0  0  0  0  0  0  0  0  0  0  0  0
   38.5960   23.0980   32.2010 O   0  0  0  0  0  0  0  0  0  0  0  0
   38.0660   21.7960   33.9910 N   0  0  0  0  0  0  0  0  0  0  0  0
   37.8500   20.8630   34.3580 H   0  0  0  0  0  0  0  0  0  0  0  0
   38.2180   23.8450   38.4870 C   0  0  0  0  0  0  0  0  0  0  0  0
   39.4800   23.3960   38.8650 F   0  0  0  0  0  0  0  0  0  0  0  0
   37.8860   25.0470   39.0270 F   0  0  0  0  0  0  0  0  0  0  0  0
   37.3260   22.8520   38.8430 F   0  0  0  0  0  0  0  0  0  0  0  0
  1 14  1  0  0  0  0
  2  7  1  0  0  0  0
  2  1  2  0  0  0  0
  3  2  1  0  0  0  0
  4  3  2  0  0  0  0
  4  5  1  0  0  0  0
  5  6  2  0  0  0  0
  6  1  1  0  0  0  0
  8  5  1  0  0  0  0
  9 10  1  0  0  0  0
 10 12  1  0  0  0  0
 11 10  2  0  0  0  0
 12 13  1  0  0  0  0
 12  3  1  0  0  0  0
 14 17  1  0  0  0  0
 14 15  1  0  0  0  0
 14 16  1  0  0  0  0
M  END
>  <minimizedAffinity>
-4.23304653

$$$$

 OpenBabel03272504133D

 17 17  0  0  0  0  0  0  0  0999 V2000
   38.0610   26.1160   34.6030 C   0  0  0  0  0  0  0  0  0  0  0  0
   37.1870   26.6750   33.6520 C   0  0  0  0  0  0  0  0  0  0  0  0
   36.7270   25.8480   32.6320 C   0  0  0  0  0  0  0  0  0  0  0  0
   37.1430   24.5560   32.6080 N   0  0  0  0  0  0  0  0  0  0  0  0
   37.9830   24.0520   33.5370 C   0  0  0  0  0  0  0  0  0  0  0  0
   38.4310   24.8420   34.5220 N   0  0  0  0  0  0  0  0  0  0  0  0
   36.8590   27.6930   33.6700 H   0  0  0  0  0  0  0  0  0  0  0  0
   38.2760   23.0050   33.4570 H   0  0  0  0  0  0  0  0  0  0  0  0
   34.4510   25.6750   30.0130 H   0  0  0  0  0  0  0  0  0  0  0  0
   35.1450   25.4190   30.8020 C   0  0  0  0  0  0  0  0  0  0  0  0
   35.3570   24.1910   31.0090 O   0  0  0  0  0  0  0  0  0  0  0  0
   35.8430   26.3260   31.6310 N   0  0  0  0  0  0  0  0  0  0  0  0
   35.6960   27.3320   31.4900 H   0  0  0  0  0  0  0  0  0  0  0  0
   38.5600   27.0050   35.7040 C   0  0  0  0  0  0  0  0  0  0  0  0
   38.2610   26.4240   36.9340 F   0  0  0  0  0  0  0  0  0  0  0  0
   39.8900   27.2060   35.5090 F   0  0  0  0  0  0  0  0  0  0  0  0
   37.8420   28.1840   35.6430 F   0  0  0  0  0  0  0  0  0  0  0  0
  1 14  1  0  0  0  0
  2  7  1  0  0  0  0
  2  1  2  0  0  0  0
  3  2  1  0  0  0  0
  4  3  2  0  0  0  0
  4  5  1  0  0  0  0
  5  6  2  0  0  0  0
  6  1  1  0  0  0  0
  8  5  1  0  0  0  0
  9 10  1  0  0  0  0
 10 11  2  0  0  0  0
 10 12  1  0  0  0  0
 12  3  1  0  0  0  0
 13 12  1  0  0  0  0
 14 15  1  0  0  0  0
 16 14  1  0  0  0  0
 17 14  1  0  0  0  0
M  END
>  <minimizedAffinity>
-4.1979847

$$$$

 OpenBabel03272504133D

 17 17  0  0  0  0  0  0  0  0999 V2000
   36.0630   20.3720   32.9680 C   0  0  0  0  0  0  0  0  0  0  0  0
   35.8240   20.6100   34.3350 C   0  0  0  0  0  0  0  0  0  0  0  0
   36.7310   21.4130   35.0190 C   0  0  0  0  0  0  0  0  0  0  0  0
   37.7900   21.9210   34.3390 N   0  0  0  0  0  0  0  0  0  0  0  0
   37.9890   21.6710   33.0270 C   0  0  0  0  0  0  0  0  0  0  0  0
   37.1220   20.8980   32.3600 N   0  0  0  0  0  0  0  0  0  0  0  0
   34.9890   20.2110   34.8720 H   0  0  0  0  0  0  0  0  0  0  0  0
   38.8620   22.1100   32.5420 H   0  0  0  0  0  0  0  0  0  0  0  0
   37.2530   23.0650   38.0310 H   0  0  0  0  0  0  0  0  0  0  0  0
   37.3000   22.7590   36.9950 C   0  0  0  0  0  0  0  0  0  0  0  0
   38.0840   23.3980   36.2380 O   0  0  0  0  0  0  0  0  0  0  0  0
   36.5690   21.7070   36.3970 N   0  0  0  0  0  0  0  0  0  0  0  0
   35.9230   21.1660   36.9830 H   0  0  0  0  0  0  0  0  0  0  0  0
   35.0880   19.5060   32.2270 C   0  0  0  0  0  0  0  0  0  0  0  0
   35.5710   19.2640   30.9440 F   0  0  0  0  0  0  0  0  0  0  0  0
   34.8960   18.3740   32.9560 F   0  0  0  0  0  0  0  0  0  0  0  0
   33.9210   20.2290   32.0760 F   0  0  0  0  0  0  0  0  0  0  0  0
  1  2  1  0  0  0  0
  2  7  1  0  0  0  0
  2  3  2  0  0  0  0
  3 12  1  0  0  0  0
  4  3  1  0  0  0  0
  5  4  2  0  0  0  0
  6  1  2  0  0  0  0
  6  5  1  0  0  0  0
  8  5  1  0  0  0  0
 10  9  1  0  0  0  0
 11 10  2  0  0  0  0
 12 13  1  0  0  0  0
 12 10  1  0  0  0  0
 14 16  1  0  0  0  0
 14  1  1  0  0  0  0
 15 14  1  0  0  0  0
 17 14  1  0  0  0  0
M  END
>  <minimizedAffinity>
-3.98192191

$$$$

 OpenBabel03272504133D

 17 17  0  0  0  0  0  0  0  0999 V2000
   36.1830   25.6690   31.9270 C   0  0  0  0  0  0  0  0  0  0  0  0
   37.0500   25.2820   32.9660 C   0  0  0  0  0  0  0  0  0  0  0  0
   37.5420   26.2800   33.8030 C   0  0  0  0  0  0  0  0  0  0  0  0
   37.1640   27.5640   33.5730 N   0  0  0  0  0  0  0  0  0  0  0  0
   36.3310   27.8990   32.5660 C   0  0  0  0  0  0  0  0  0  0  0  0
   35.8520   26.9450   31.7550 N   0  0  0  0  0  0  0  0  0  0  0  0
   37.3480   24.2710   33.1490 H   0  0  0  0  0  0  0  0  0  0  0  0
   36.0680   28.9500   32.4380 H   0  0  0  0  0  0  0  0  0  0  0  0
   39.3030   26.8120   36.7510 H   0  0  0  0  0  0  0  0  0  0  0  0
   38.6560   26.9360   35.8920 C   0  0  0  0  0  0  0  0  0  0  0  0
   38.0490   28.0380   35.7800 O   0  0  0  0  0  0  0  0  0  0  0  0
   38.4200   25.9830   34.8760 N   0  0  0  0  0  0  0  0  0  0  0  0
   38.8970   25.0760   34.9350 H   0  0  0  0  0  0  0  0  0  0  0  0
   35.6510   24.5970   31.0230 C   0  0  0  0  0  0  0  0  0  0  0  0
   35.1490   23.5530   31.7950 F   0  0  0  0  0  0  0  0  0  0  0  0
   34.7220   25.1610   30.2060 F   0  0  0  0  0  0  0  0  0  0  0  0
   36.7200   24.0820   30.3160 F   0  0  0  0  0  0  0  0  0  0  0  0
  1  2  1  0  0  0  0
  2  7  1  0  0  0  0
  2  3  2  0  0  0  0
  3 12  1  0  0  0  0
  4  3  1  0  0  0  0
  5  4  2  0  0  0  0
  6  1  2  0  0  0  0
  6  5  1  0  0  0  0
  8  5  1  0  0  0  0
 10  9  1  0  0  0  0
 11 10  2  0  0  0  0
 12 13  1  0  0  0  0
 12 10  1  0  0  0  0
 14 15  1  0  0  0  0
 14  1  1  0  0  0  0
 16 14  1  0  0  0  0
 17 14  1  0  0  0  0
M  END
>  <minimizedAffinity>
-3.84499168

$$$$

 OpenBabel03272504133D

 17 17  0  0  0  0  0  0  0  0999 V2000
   38.1130   25.8840   34.4700 C   0  0  0  0  0  0  0  0  0  0  0  0
   37.7420   25.7020   35.8150 C   0  0  0  0  0  0  0  0  0  0  0  0
   38.2680   24.6040   36.4880 C   0  0  0  0  0  0  0  0  0  0  0  0
   39.1040   23.7710   35.8170 N   0  0  0  0  0  0  0  0  0  0  0  0
   39.4380   23.9750   34.5250 C   0  0  0  0  0  0  0  0  0  0  0  0
   38.9350   25.0300   33.8690 N   0  0  0  0  0  0  0  0  0  0  0  0
   37.0840   26.3580   36.3460 H   0  0  0  0  0  0  0  0  0  0  0  0
   40.1140   23.2670   34.0460 H   0  0  0  0  0  0  0  0  0  0  0  0
   38.5660   23.1570   39.6340 H   0  0  0  0  0  0  0  0  0  0  0  0
   38.7210   23.4270   38.5980 C   0  0  0  0  0  0  0  0  0  0  0  0
   39.6830   22.8750   37.9930 O   0  0  0  0  0  0  0  0  0  0  0  0
   37.9500   24.3430   37.8460 N   0  0  0  0  0  0  0  0  0  0  0  0
   37.1600   24.8100   38.3040 H   0  0  0  0  0  0  0  0  0  0  0  0
   37.5470   27.0670   33.7410 C   0  0  0  0  0  0  0  0  0  0  0  0
   36.5110   26.6440   32.9130 F   0  0  0  0  0  0  0  0  0  0  0  0
   37.1590   27.9830   34.6680 F   0  0  0  0  0  0  0  0  0  0  0  0
   38.5370   27.5560   32.9110 F   0  0  0  0  0  0  0  0  0  0  0  0
  1  2  1  0  0  0  0
  2  7  1  0  0  0  0
  2  3  2  0  0  0  0
  3 12  1  0  0  0  0
  4  3  1  0  0  0  0
  5  4  2  0  0  0  0
  6  1  2  0  0  0  0
  6  5  1  0  0  0  0
  8  5  1  0  0  0  0
 10  9  1  0  0  0  0
 11 10  2  0  0  0  0
 12 13  1  0  0  0  0
 12 10  1  0  0  0  0
 14  1  1  0  0  0  0
 14 16  1  0  0  0  0
 15 14  1  0  0  0  0
 17 14  1  0  0  0  0
M  END
>  <minimizedAffinity>
-3.84181213

$$$$
