
 OpenBabel03272505533D

 40 42  0  0  1  0  0  0  0  0999 V2000
   35.6340   23.3610   31.5350 C   0  0  0  0  0  0  0  0  0  0  0  0
   35.5260   24.7240   31.2360 C   0  0  0  0  0  0  0  0  0  0  0  0
   36.4820   25.5630   31.7990 C   0  0  0  0  0  0  0  0  0  0  0  0
   37.4370   25.0010   32.5860 N   0  0  0  0  0  0  0  0  0  0  0  0
   37.5010   23.6860   32.8440 C   0  0  0  0  0  0  0  0  0  0  0  0
   36.6010   22.8590   32.3200 N   0  0  0  0  0  0  0  0  0  0  0  0
   38.5290   23.1950   33.6720 N   0  0  0  0  0  0  0  0  0  0  0  0
   39.0460   21.8380   33.5260 C   0  0  0  0  0  0  0  0  0  0  0  0
   40.5230   21.8790   33.3520 C   0  0  0  0  0  0  0  0  0  0  0  0
   41.1680   23.0400   33.6980 N   0  0  0  0  0  0  0  0  0  0  0  0
   40.5790   23.9900   34.6110 C   0  0  0  0  0  0  0  0  0  0  0  0
   39.1330   24.0080   34.7180 C   0  0  2  0  0  0  0  0  0  0  0  0
   34.8600   22.7710   31.0660 H   0  0  0  0  0  0  0  0  0  0  0  0
   34.7890   25.1910   30.6240 H   0  0  0  0  0  0  0  0  0  0  0  0
   36.5560   26.6480   31.6790 H   0  0  0  0  0  0  0  0  0  0  0  0
   38.7250   21.2120   34.4000 H   0  0  0  0  0  0  0  0  0  0  0  0
   38.5370   21.3770   32.6500 H   0  0  0  0  0  0  0  0  0  0  0  0
   40.9390   21.0030   33.9120 H   0  0  0  0  0  0  0  0  0  0  0  0
   40.7400   21.6330   32.2710 H   0  0  0  0  0  0  0  0  0  0  0  0
   41.9680   23.3670   33.1580 H   0  0  0  0  0  0  0  0  0  0  0  0
   40.8610   24.9780   34.0990 H   0  0  0  0  0  0  0  0  0  0  0  0
   41.2380   24.0030   35.4610 H   0  0  0  0  0  0  0  0  0  0  0  0
   38.6970   25.0460   34.5900 H   0  0  0  0  0  0  0  0  0  0  0  0
   38.6180   23.5440   35.9810 N   0  0  2  0  0  0  0  0  0  0  0  0
   37.7690   24.5270   36.6180 C   0  0  0  0  0  0  0  0  0  0  0  0
   37.9650   24.3880   38.1130 C   0  0  0  0  0  0  0  0  0  0  0  0
   38.8390   23.1970   38.2410 C   0  0  0  0  0  0  0  0  0  0  0  0
   39.6230   23.1830   36.9170 C   0  0  1  0  0  0  0  0  0  0  0  0
   36.7160   24.2880   36.3070 H   0  0  0  0  0  0  0  0  0  0  0  0
   38.0130   25.5480   36.2680 H   0  0  0  0  0  0  0  0  0  0  0  0
   38.3920   25.3090   38.5690 H   0  0  0  0  0  0  0  0  0  0  0  0
   36.9580   24.1520   38.5460 H   0  0  0  0  0  0  0  0  0  0  0  0
   38.3010   22.2430   38.3890 H   0  0  0  0  0  0  0  0  0  0  0  0
   39.5000   23.3090   39.1180 H   0  0  0  0  0  0  0  0  0  0  0  0
   40.3960   23.9020   37.1550 H   0  0  0  0  0  0  0  0  0  0  0  0
   42.3960   21.0220   36.9920 H   0  0  0  0  0  0  0  0  0  0  0  0
   41.4250   21.4760   36.9350 C   0  0  0  0  0  0  0  0  0  0  0  0
   42.4150   22.2850   37.1200 O   0  0  0  0  0  0  0  0  0  0  0  0
   40.0630   21.8150   36.8250 N   0  0  0  0  0  0  0  0  0  0  0  0
   39.7570   20.8330   36.6940 H   0  0  0  0  0  0  0  0  0  0  0  0
  1  6  1  0  0  0  0
  2  1  2  0  0  0  0
  2  3  1  0  0  0  0
  3  4  2  0  0  0  0
  4  5  1  0  0  0  0
  5  7  1  0  0  0  0
  6  5  2  0  0  0  0
  7 12  1  0  0  0  0
  8  7  1  0  0  0  0
  8 16  1  0  0  0  0
  9  8  1  0  0  0  0
  9 10  1  0  0  0  0
  9 18  1  0  0  0  0
 10 11  1  0  0  0  0
 11 12  1  0  0  0  0
 11 22  1  0  0  0  0
 12 23  1  6  0  0  0
 12 24  1  0  0  0  0
 13  1  1  0  0  0  0
 14  2  1  0  0  0  0
 15  3  1  0  0  0  0
 17  8  1  0  0  0  0
 19  9  1  0  0  0  0
 20 10  1  0  0  0  0
 21 11  1  0  0  0  0
 24 25  1  1  0  0  0
 24 28  1  0  0  0  0
 25 26  1  0  0  0  0
 26 27  1  0  0  0  0
 26 32  1  0  0  0  0
 26 31  1  0  0  0  0
 27 33  1  0  0  0  0
 27 34  1  0  0  0  0
 28 35  1  1  0  0  0
 28 27  1  0  0  0  0
 29 25  1  0  0  0  0
 30 25  1  0  0  0  0
 37 36  1  0  0  0  0
 37 38  2  0  0  0  0
 39 28  1  0  0  0  0
 39 37  1  0  0  0  0
 40 39  1  0  0  0  0
M  END
>  <minimizedAffinity>
-5.21167231

$$$$

 OpenBabel03272505533D

 40 42  0  0  1  0  0  0  0  0999 V2000
   35.8550   20.9800   35.5450 C   0  0  0  0  0  0  0  0  0  0  0  0
   35.7240   20.7170   34.1770 C   0  0  0  0  0  0  0  0  0  0  0  0
   36.7460   21.1770   33.3530 C   0  0  0  0  0  0  0  0  0  0  0  0
   37.7820   21.8390   33.9330 N   0  0  0  0  0  0  0  0  0  0  0  0
   37.8640   22.0680   35.2520 C   0  0  0  0  0  0  0  0  0  0  0  0
   36.9020   21.6410   36.0650 N   0  0  0  0  0  0  0  0  0  0  0  0
   38.9780   22.7640   35.7630 N   0  0  0  0  0  0  0  0  0  0  0  0
   39.4620   22.5390   37.1200 C   0  0  0  0  0  0  0  0  0  0  0  0
   40.9100   22.1950   37.0870 C   0  0  0  0  0  0  0  0  0  0  0  0
   41.6000   22.4800   35.9350 N   0  0  0  0  0  0  0  0  0  0  0  0
   41.1290   23.4690   34.9960 C   0  0  0  0  0  0  0  0  0  0  0  0
   39.7060   23.7450   34.9700 C   0  0  2  0  0  0  0  0  0  0  0  0
   35.0270   20.5960   36.1220 H   0  0  0  0  0  0  0  0  0  0  0  0
   34.9250   20.2010   33.6960 H   0  0  0  0  0  0  0  0  0  0  0  0
   36.8150   21.0650   32.2660 H   0  0  0  0  0  0  0  0  0  0  0  0
   39.2410   23.4350   37.7580 H   0  0  0  0  0  0  0  0  0  0  0  0
   38.8510   21.7220   37.5650 H   0  0  0  0  0  0  0  0  0  0  0  0
   41.3800   22.6890   37.9740 H   0  0  0  0  0  0  0  0  0  0  0  0
   40.9980   21.0920   37.3170 H   0  0  0  0  0  0  0  0  0  0  0  0
   42.3350   21.8560   35.6050 H   0  0  0  0  0  0  0  0  0  0  0  0
   41.3580   22.9420   34.0010 H   0  0  0  0  0  0  0  0  0  0  0  0
   41.8830   24.2370   35.0000 H   0  0  0  0  0  0  0  0  0  0  0  0
   39.2660   23.6830   33.9270 H   0  0  0  0  0  0  0  0  0  0  0  0
   39.3370   25.0520   35.4510 N   0  0  2  0  0  0  0  0  0  0  0  0
   37.9070   25.1850   35.6250 C   0  0  0  0  0  0  0  0  0  0  0  0
   37.5470   26.6190   35.3000 C   0  0  0  0  0  0  0  0  0  0  0  0
   38.8620   27.2700   35.0890 C   0  0  0  0  0  0  0  0  0  0  0  0
   39.7610   26.1160   34.6110 C   0  0  1  0  0  0  0  0  0  0  0  0
   37.6920   24.9290   36.6980 H   0  0  0  0  0  0  0  0  0  0  0  0
   37.3600   24.4700   34.9800 H   0  0  0  0  0  0  0  0  0  0  0  0
   36.8630   26.6930   34.4250 H   0  0  0  0  0  0  0  0  0  0  0  0
   37.0700   27.0450   36.2210 H   0  0  0  0  0  0  0  0  0  0  0  0
   39.2880   27.7540   35.9870 H   0  0  0  0  0  0  0  0  0  0  0  0
   38.7680   28.0680   34.3330 H   0  0  0  0  0  0  0  0  0  0  0  0
   39.4900   26.0940   33.5640 H   0  0  0  0  0  0  0  0  0  0  0  0
   42.6580   27.5730   33.2530 H   0  0  0  0  0  0  0  0  0  0  0  0
   41.8990   27.1400   33.8750 C   0  0  0  0  0  0  0  0  0  0  0  0
   41.6030   27.2540   32.6230 O   0  0  0  0  0  0  0  0  0  0  0  0
   41.0840   26.6100   34.8940 N   0  0  0  0  0  0  0  0  0  0  0  0
   41.7920   26.7620   35.6360 H   0  0  0  0  0  0  0  0  0  0  0  0
  1  6  1  0  0  0  0
  1 13  1  0  0  0  0
  2  1  2  0  0  0  0
  3  4  2  0  0  0  0
  3  2  1  0  0  0  0
  4  5  1  0  0  0  0
  5  7  1  0  0  0  0
  5  6  2  0  0  0  0
  7  8  1  0  0  0  0
  8 17  1  0  0  0  0
  8 16  1  0  0  0  0
  9  8  1  0  0  0  0
  9 19  1  0  0  0  0
  9 18  1  0  0  0  0
 10  9  1  0  0  0  0
 11 22  1  0  0  0  0
 11 10  1  0  0  0  0
 12 23  1  6  0  0  0
 12 11  1  0  0  0  0
 12 24  1  0  0  0  0
 12  7  1  0  0  0  0
 14  2  1  0  0  0  0
 15  3  1  0  0  0  0
 20 10  1  0  0  0  0
 21 11  1  0  0  0  0
 24 25  1  6  0  0  0
 25 29  1  0  0  0  0
 26 25  1  0  0  0  0
 26 32  1  0  0  0  0
 27 26  1  0  0  0  0
 27 33  1  0  0  0  0
 28 35  1  6  0  0  0
 28 39  1  0  0  0  0
 28 27  1  0  0  0  0
 28 24  1  0  0  0  0
 30 25  1  0  0  0  0
 31 26  1  0  0  0  0
 34 27  1  0  0  0  0
 36 37  1  0  0  0  0
 37 39  1  0  0  0  0
 38 37  2  0  0  0  0
 39 40  1  0  0  0  0
M  END
>  <minimizedAffinity>
-5.20833492

$$$$

 OpenBabel03272505533D

 40 42  0  0  1  0  0  0  0  0999 V2000
   36.7690   27.7640   34.5400 C   0  0  0  0  0  0  0  0  0  0  0  0
   36.6560   27.6550   33.1500 C   0  0  0  0  0  0  0  0  0  0  0  0
   37.1390   26.4840   32.5750 C   0  0  0  0  0  0  0  0  0  0  0  0
   37.6780   25.5460   33.3980 N   0  0  0  0  0  0  0  0  0  0  0  0
   37.7660   25.6950   34.7280 C   0  0  0  0  0  0  0  0  0  0  0  0
   37.3120   26.8040   35.3070 N   0  0  0  0  0  0  0  0  0  0  0  0
   38.3400   24.6670   35.5010 N   0  0  0  0  0  0  0  0  0  0  0  0
   37.9490   24.4450   36.8890 C   0  0  0  0  0  0  0  0  0  0  0  0
   37.5290   23.0290   37.0720 C   0  0  0  0  0  0  0  0  0  0  0  0
   37.8920   22.1320   36.0990 N   0  0  0  0  0  0  0  0  0  0  0  0
   38.9980   22.3880   35.2080 C   0  0  0  0  0  0  0  0  0  0  0  0
   39.3550   23.7720   34.9630 C   0  0  2  0  0  0  0  0  0  0  0  0
   36.3750   28.6960   34.9160 H   0  0  0  0  0  0  0  0  0  0  0  0
   36.2390   28.3730   32.4810 H   0  0  0  0  0  0  0  0  0  0  0  0
   37.1360   26.2240   31.5120 H   0  0  0  0  0  0  0  0  0  0  0  0
   38.7870   24.7450   37.5730 H   0  0  0  0  0  0  0  0  0  0  0  0
   37.1270   25.1570   37.1250 H   0  0  0  0  0  0  0  0  0  0  0  0
   37.9020   22.7090   38.0780 H   0  0  0  0  0  0  0  0  0  0  0  0
   36.4050   23.0260   37.1900 H   0  0  0  0  0  0  0  0  0  0  0  0
   37.2640   21.3740   35.8360 H   0  0  0  0  0  0  0  0  0  0  0  0
   38.5640   22.0030   34.2160 H   0  0  0  0  0  0  0  0  0  0  0  0
   39.7170   21.6190   35.4300 H   0  0  0  0  0  0  0  0  0  0  0  0
   39.4260   24.0180   33.8590 H   0  0  0  0  0  0  0  0  0  0  0  0
   40.6240   24.1720   35.5140 N   0  0  2  0  0  0  0  0  0  0  0  0
   41.3830   24.9920   34.5950 C   0  0  0  0  0  0  0  0  0  0  0  0
   42.8470   24.6730   34.8130 C   0  0  0  0  0  0  0  0  0  0  0  0
   42.8350   23.7620   35.9830 C   0  0  0  0  0  0  0  0  0  0  0  0
   41.4550   23.0860   35.8970 C   0  0  1  0  0  0  0  0  0  0  0  0
   41.1420   26.0600   34.8470 H   0  0  0  0  0  0  0  0  0  0  0  0
   41.0760   24.8020   33.5480 H   0  0  0  0  0  0  0  0  0  0  0  0
   43.3220   24.2350   33.9070 H   0  0  0  0  0  0  0  0  0  0  0  0
   43.3440   25.6350   35.1030 H   0  0  0  0  0  0  0  0  0  0  0  0
   42.9680   24.2620   36.9600 H   0  0  0  0  0  0  0  0  0  0  0  0
   43.6630   23.0360   35.9010 H   0  0  0  0  0  0  0  0  0  0  0  0
   41.6740   22.3150   35.1710 H   0  0  0  0  0  0  0  0  0  0  0  0
   41.8900   20.4090   38.1340 H   0  0  0  0  0  0  0  0  0  0  0  0
   41.6560   21.3340   37.6440 C   0  0  0  0  0  0  0  0  0  0  0  0
   42.2350   20.4410   36.9130 O   0  0  0  0  0  0  0  0  0  0  0  0
   41.2480   22.6210   37.2450 N   0  0  0  0  0  0  0  0  0  0  0  0
   40.8720   22.8680   38.1790 H   0  0  0  0  0  0  0  0  0  0  0  0
  1 13  1  0  0  0  0
  1  6  1  0  0  0  0
  2  1  2  0  0  0  0
  3  2  1  0  0  0  0
  3  4  2  0  0  0  0
  4  5  1  0  0  0  0
  5  6  2  0  0  0  0
  5  7  1  0  0  0  0
  7  8  1  0  0  0  0
  8  9  1  0  0  0  0
  8 17  1  0  0  0  0
  8 16  1  0  0  0  0
  9 19  1  0  0  0  0
  9 18  1  0  0  0  0
 10  9  1  0  0  0  0
 11 22  1  0  0  0  0
 11 10  1  0  0  0  0
 12 23  1  6  0  0  0
 12 11  1  0  0  0  0
 12  7  1  0  0  0  0
 12 24  1  0  0  0  0
 14  2  1  0  0  0  0
 15  3  1  0  0  0  0
 20 10  1  0  0  0  0
 21 11  1  0  0  0  0
 24 25  1  6  0  0  0
 24 28  1  0  0  0  0
 25 26  1  0  0  0  0
 25 29  1  0  0  0  0
 26 32  1  0  0  0  0
 26 27  1  0  0  0  0
 27 33  1  0  0  0  0
 28 35  1  6  0  0  0
 28 27  1  0  0  0  0
 28 39  1  0  0  0  0
 30 25  1  0  0  0  0
 31 26  1  0  0  0  0
 34 27  1  0  0  0  0
 37 36  1  0  0  0  0
 38 37  2  0  0  0  0
 39 37  1  0  0  0  0
 39 40  1  0  0  0  0
M  END
>  <minimizedAffinity>
-5.00325537

$$$$

 OpenBabel03272505533D

 40 42  0  0  1  0  0  0  0  0999 V2000
   37.7670   26.8780   35.0160 C   0  0  0  0  0  0  0  0  0  0  0  0
   39.0980   27.1190   35.3750 C   0  0  0  0  0  0  0  0  0  0  0  0
   40.0420   26.2060   34.9170 C   0  0  0  0  0  0  0  0  0  0  0  0
   39.6050   25.1630   34.1640 N   0  0  0  0  0  0  0  0  0  0  0  0
   38.3170   24.9730   33.8440 C   0  0  0  0  0  0  0  0  0  0  0  0
   37.3910   25.8280   34.2670 N   0  0  0  0  0  0  0  0  0  0  0  0
   37.9580   23.8610   33.0560 N   0  0  0  0  0  0  0  0  0  0  0  0
   36.7910   23.8890   32.1810 C   0  0  0  0  0  0  0  0  0  0  0  0
   37.1930   23.5210   30.7960 C   0  0  0  0  0  0  0  0  0  0  0  0
   38.4080   22.9040   30.6340 N   0  0  0  0  0  0  0  0  0  0  0  0
   39.0550   22.2100   31.7210 C   0  0  0  0  0  0  0  0  0  0  0  0
   38.7270   22.6240   33.0710 C   0  0  2  0  0  0  0  0  0  0  0  0
   37.0910   27.6250   35.4060 H   0  0  0  0  0  0  0  0  0  0  0  0
   39.4680   27.9270   35.9640 H   0  0  0  0  0  0  0  0  0  0  0  0
   41.1210   26.2310   35.0980 H   0  0  0  0  0  0  0  0  0  0  0  0
   35.9890   23.2230   32.5950 H   0  0  0  0  0  0  0  0  0  0  0  0
   36.3580   24.9130   32.2310 H   0  0  0  0  0  0  0  0  0  0  0  0
   36.3630   22.9000   30.3730 H   0  0  0  0  0  0  0  0  0  0  0  0
   37.1620   24.4660   30.1760 H   0  0  0  0  0  0  0  0  0  0  0  0
   38.9830   23.1040   29.8170 H   0  0  0  0  0  0  0  0  0  0  0  0
   40.1460   22.5310   31.5570 H   0  0  0  0  0  0  0  0  0  0  0  0
   39.0950   21.1810   31.4080 H   0  0  0  0  0  0  0  0  0  0  0  0
   39.6460   22.8420   33.6980 H   0  0  0  0  0  0  0  0  0  0  0  0
   37.9790   21.6570   33.8330 N   0  0  2  0  0  0  0  0  0  0  0  0
   36.9140   21.0590   33.0580 C   0  0  0  0  0  0  0  0  0  0  0  0
   35.7700   20.7800   34.0100 C   0  0  0  0  0  0  0  0  0  0  0  0
   36.3320   21.1190   35.3400 C   0  0  0  0  0  0  0  0  0  0  0  0
   37.3990   22.1800   35.0180 C   0  0  1  0  0  0  0  0  0  0  0  0
   37.3330   20.1160   32.6140 H   0  0  0  0  0  0  0  0  0  0  0  0
   36.6020   21.7270   32.2310 H   0  0  0  0  0  0  0  0  0  0  0  0
   34.8540   21.3550   33.7490 H   0  0  0  0  0  0  0  0  0  0  0  0
   35.5790   19.6760   33.9630 H   0  0  0  0  0  0  0  0  0  0  0  0
   36.7770   20.2660   35.8840 H   0  0  0  0  0  0  0  0  0  0  0  0
   35.5340   21.5110   35.9940 H   0  0  0  0  0  0  0  0  0  0  0  0
   36.7690   23.0570   34.9470 H   0  0  0  0  0  0  0  0  0  0  0  0
   38.2820   23.7510   38.0370 H   0  0  0  0  0  0  0  0  0  0  0  0
   38.1840   23.1120   37.1800 C   0  0  0  0  0  0  0  0  0  0  0  0
   37.3990   24.1380   37.2100 O   0  0  0  0  0  0  0  0  0  0  0  0
   38.2530   22.1280   36.1760 N   0  0  0  0  0  0  0  0  0  0  0  0
   39.0060   21.5960   36.6520 H   0  0  0  0  0  0  0  0  0  0  0  0
  1  2  1  0  0  0  0
  1 13  1  0  0  0  0
  2 14  1  0  0  0  0
  3 15  1  0  0  0  0
  3  2  2  0  0  0  0
  4  3  1  0  0  0  0
  5  4  2  0  0  0  0
  5  6  1  0  0  0  0
  6  1  2  0  0  0  0
  7 12  1  0  0  0  0
  7  5  1  0  0  0  0
  8 17  1  0  0  0  0
  8 16  1  0  0  0  0
  8  7  1  0  0  0  0
  9  8  1  0  0  0  0
 10  9  1  0  0  0  0
 10 11  1  0  0  0  0
 11 12  1  0  0  0  0
 12 23  1  1  0  0  0
 12 24  1  0  0  0  0
 18  9  1  0  0  0  0
 19  9  1  0  0  0  0
 20 10  1  0  0  0  0
 21 11  1  0  0  0  0
 22 11  1  0  0  0  0
 24 25  1  6  0  0  0
 24 28  1  0  0  0  0
 25 26  1  0  0  0  0
 26 27  1  0  0  0  0
 27 33  1  0  0  0  0
 27 34  1  0  0  0  0
 28 35  1  6  0  0  0
 28 27  1  0  0  0  0
 28 39  1  0  0  0  0
 29 25  1  0  0  0  0
 30 25  1  0  0  0  0
 31 26  1  0  0  0  0
 32 26  1  0  0  0  0
 37 38  2  0  0  0  0
 37 36  1  0  0  0  0
 39 40  1  0  0  0  0
 39 37  1  0  0  0  0
M  END
>  <minimizedAffinity>
-4.92703724

$$$$

 OpenBabel03272505533D

 40 42  0  0  1  0  0  0  0  0999 V2000
   38.1160   23.7170   38.1500 C   0  0  0  0  0  0  0  0  0  0  0  0
   39.2710   22.9280   38.1240 C   0  0  0  0  0  0  0  0  0  0  0  0
   40.0030   22.9320   36.9420 C   0  0  0  0  0  0  0  0  0  0  0  0
   39.5460   23.6950   35.9130 N   0  0  0  0  0  0  0  0  0  0  0  0
   38.4320   24.4370   35.9840 C   0  0  0  0  0  0  0  0  0  0  0  0
   37.7100   24.4530   37.1020 N   0  0  0  0  0  0  0  0  0  0  0  0
   38.0360   25.1970   34.8660 N   0  0  0  0  0  0  0  0  0  0  0  0
   37.2720   26.4310   35.0120 C   0  0  0  0  0  0  0  0  0  0  0  0
   37.9700   27.5410   34.3070 C   0  0  0  0  0  0  0  0  0  0  0  0
   38.9370   27.2000   33.3960 N   0  0  0  0  0  0  0  0  0  0  0  0
   38.9720   25.8950   32.7800 C   0  0  0  0  0  0  0  0  0  0  0  0
   38.3650   24.7960   33.5050 C   0  0  2  0  0  0  0  0  0  0  0  0
   37.5990   23.6650   39.0960 H   0  0  0  0  0  0  0  0  0  0  0  0
   39.6520   22.3210   38.9140 H   0  0  0  0  0  0  0  0  0  0  0  0
   40.9260   22.3800   36.7380 H   0  0  0  0  0  0  0  0  0  0  0  0
   36.2220   26.2740   34.6480 H   0  0  0  0  0  0  0  0  0  0  0  0
   37.1630   26.6330   36.1010 H   0  0  0  0  0  0  0  0  0  0  0  0
   37.1760   28.1750   33.8380 H   0  0  0  0  0  0  0  0  0  0  0  0
   38.4150   28.2130   35.0990 H   0  0  0  0  0  0  0  0  0  0  0  0
   39.7760   27.7710   33.2950 H   0  0  0  0  0  0  0  0  0  0  0  0
   40.1010   25.6860   32.7920 H   0  0  0  0  0  0  0  0  0  0  0  0
   38.8090   26.0790   31.7320 H   0  0  0  0  0  0  0  0  0  0  0  0
   39.0560   23.9040   33.6070 H   0  0  0  0  0  0  0  0  0  0  0  0
   37.1660   24.2690   32.9050 N   0  0  2  0  0  0  0  0  0  0  0  0
   37.2750   22.8550   32.6200 C   0  0  0  0  0  0  0  0  0  0  0  0
   36.4790   22.5890   31.3600 C   0  0  0  0  0  0  0  0  0  0  0  0
   35.8270   23.8910   31.0770 C   0  0  0  0  0  0  0  0  0  0  0  0
   36.7920   24.9170   31.6980 C   0  0  1  0  0  0  0  0  0  0  0  0
   36.8500   22.3170   33.5100 H   0  0  0  0  0  0  0  0  0  0  0  0
   38.3350   22.5550   32.5040 H   0  0  0  0  0  0  0  0  0  0  0  0
   37.1170   22.2160   30.5290 H   0  0  0  0  0  0  0  0  0  0  0  0
   35.6920   21.8380   31.6330 H   0  0  0  0  0  0  0  0  0  0  0  0
   34.8120   24.0010   31.5000 H   0  0  0  0  0  0  0  0  0  0  0  0
   35.7170   24.0260   29.9880 H   0  0  0  0  0  0  0  0  0  0  0  0
   37.5180   24.9910   30.9000 H   0  0  0  0  0  0  0  0  0  0  0  0
   36.1300   28.2040   30.6400 H   0  0  0  0  0  0  0  0  0  0  0  0
   36.1450   27.2400   31.1120 C   0  0  0  0  0  0  0  0  0  0  0  0
   37.0430   27.4360   30.2050 O   0  0  0  0  0  0  0  0  0  0  0  0
   35.9510   26.0720   31.8750 N   0  0  0  0  0  0  0  0  0  0  0  0
   35.1490   26.4650   32.4010 H   0  0  0  0  0  0  0  0  0  0  0  0
  1 13  1  0  0  0  0
  2  1  1  0  0  0  0
  2 14  1  0  0  0  0
  3  2  2  0  0  0  0
  4  5  2  0  0  0  0
  4  3  1  0  0  0  0
  5  6  1  0  0  0  0
  6  1  2  0  0  0  0
  7  8  1  0  0  0  0
  7  5  1  0  0  0  0
  8 17  1  0  0  0  0
  9  8  1  0  0  0  0
  9 19  1  0  0  0  0
 10  9  1  0  0  0  0
 11 21  1  0  0  0  0
 11 10  1  0  0  0  0
 11 12  1  0  0  0  0
 12 23  1  1  0  0  0
 12  7  1  0  0  0  0
 15  3  1  0  0  0  0
 16  8  1  0  0  0  0
 18  9  1  0  0  0  0
 20 10  1  0  0  0  0
 22 11  1  0  0  0  0
 24 25  1  6  0  0  0
 24 12  1  0  0  0  0
 25 29  1  0  0  0  0
 26 32  1  0  0  0  0
 26 25  1  0  0  0  0
 27 26  1  0  0  0  0
 27 33  1  0  0  0  0
 27 28  1  0  0  0  0
 28 35  1  6  0  0  0
 28 39  1  0  0  0  0
 28 24  1  0  0  0  0
 30 25  1  0  0  0  0
 31 26  1  0  0  0  0
 34 27  1  0  0  0  0
 36 37  1  0  0  0  0
 37 39  1  0  0  0  0
 38 37  2  0  0  0  0
 39 40  1  0  0  0  0
M  END
>  <minimizedAffinity>
-4.91035032

$$$$

 OpenBabel03272505533D

 40 42  0  0  1  0  0  0  0  0999 V2000
   37.7880   27.7610   35.0270 C   0  0  0  0  0  0  0  0  0  0  0  0
   37.2300   27.7510   33.7440 C   0  0  0  0  0  0  0  0  0  0  0  0
   37.0280   26.5040   33.1620 C   0  0  0  0  0  0  0  0  0  0  0  0
   37.3830   25.4040   33.8760 N   0  0  0  0  0  0  0  0  0  0  0  0
   37.9150   25.4620   35.1050 C   0  0  0  0  0  0  0  0  0  0  0  0
   38.1210   26.6400   35.6880 N   0  0  0  0  0  0  0  0  0  0  0  0
   38.2510   24.2660   35.7690 N   0  0  0  0  0  0  0  0  0  0  0  0
   38.2400   24.1710   37.2250 C   0  0  0  0  0  0  0  0  0  0  0  0
   37.3820   23.0300   37.6480 C   0  0  0  0  0  0  0  0  0  0  0  0
   37.0600   22.0960   36.6960 N   0  0  0  0  0  0  0  0  0  0  0  0
   37.8570   21.9240   35.5040 C   0  0  0  0  0  0  0  0  0  0  0  0
   38.6290   23.0610   35.0440 C   0  0  2  0  0  0  0  0  0  0  0  0
   37.9170   28.7610   35.4160 H   0  0  0  0  0  0  0  0  0  0  0  0
   36.9430   28.5970   33.1620 H   0  0  0  0  0  0  0  0  0  0  0  0
   36.6060   26.3020   32.1720 H   0  0  0  0  0  0  0  0  0  0  0  0
   39.2910   24.0920   37.6090 H   0  0  0  0  0  0  0  0  0  0  0  0
   37.8680   25.1410   37.6230 H   0  0  0  0  0  0  0  0  0  0  0  0
   37.8850   22.5560   38.5280 H   0  0  0  0  0  0  0  0  0  0  0  0
   36.4350   23.4680   38.0840 H   0  0  0  0  0  0  0  0  0  0  0  0
   36.1400   21.6560   36.6930 H   0  0  0  0  0  0  0  0  0  0  0  0
   37.0320   21.7740   34.7190 H   0  0  0  0  0  0  0  0  0  0  0  0
   38.2540   20.9260   35.5780 H   0  0  0  0  0  0  0  0  0  0  0  0
   38.4550   23.2940   33.9490 H   0  0  0  0  0  0  0  0  0  0  0  0
   40.0570   22.9090   35.1680 N   0  0  2  0  0  0  0  0  0  0  0  0
   40.4270   22.2070   36.3780 C   0  0  0  0  0  0  0  0  0  0  0  0
   41.7440   22.7870   36.8470 C   0  0  0  0  0  0  0  0  0  0  0  0
   42.1240   23.7180   35.7570 C   0  0  0  0  0  0  0  0  0  0  0  0
   40.7700   24.1360   35.1550 C   0  0  1  0  0  0  0  0  0  0  0  0
   40.5180   21.1220   36.1020 H   0  0  0  0  0  0  0  0  0  0  0  0
   39.6400   22.3070   37.1510 H   0  0  0  0  0  0  0  0  0  0  0  0
   41.6590   23.2730   37.8440 H   0  0  0  0  0  0  0  0  0  0  0  0
   42.4750   21.9370   36.8740 H   0  0  0  0  0  0  0  0  0  0  0  0
   42.7800   23.2810   34.9830 H   0  0  0  0  0  0  0  0  0  0  0  0
   42.6800   24.5760   36.1740 H   0  0  0  0  0  0  0  0  0  0  0  0
   40.4890   24.9100   35.8570 H   0  0  0  0  0  0  0  0  0  0  0  0
   41.5120   26.9500   33.1820 H   0  0  0  0  0  0  0  0  0  0  0  0
   41.3270   25.9700   33.5780 C   0  0  0  0  0  0  0  0  0  0  0  0
   41.2030   26.9470   34.4130 O   0  0  0  0  0  0  0  0  0  0  0  0
   41.1400   24.5990   33.8430 N   0  0  0  0  0  0  0  0  0  0  0  0
   41.3570   24.3110   32.8710 H   0  0  0  0  0  0  0  0  0  0  0  0
  1 13  1  0  0  0  0
  1  6  1  0  0  0  0
  2  1  2  0  0  0  0
  3  2  1  0  0  0  0
  3  4  2  0  0  0  0
  4  5  1  0  0  0  0
  5  6  2  0  0  0  0
  5  7  1  0  0  0  0
  7  8  1  0  0  0  0
  8 16  1  0  0  0  0
  8 17  1  0  0  0  0
  8  9  1  0  0  0  0
  9 19  1  0  0  0  0
  9 18  1  0  0  0  0
 10  9  1  0  0  0  0
 11 22  1  0  0  0  0
 11 10  1  0  0  0  0
 12 23  1  6  0  0  0
 12 24  1  0  0  0  0
 12 11  1  0  0  0  0
 12  7  1  0  0  0  0
 14  2  1  0  0  0  0
 15  3  1  0  0  0  0
 20 10  1  0  0  0  0
 21 11  1  0  0  0  0
 24 25  1  1  0  0  0
 25 26  1  0  0  0  0
 25 30  1  0  0  0  0
 26 32  1  0  0  0  0
 26 31  1  0  0  0  0
 27 34  1  0  0  0  0
 27 26  1  0  0  0  0
 28 24  1  0  0  0  0
 28 27  1  0  0  0  0
 28 35  1  1  0  0  0
 29 25  1  0  0  0  0
 33 27  1  0  0  0  0
 36 37  1  0  0  0  0
 37 39  1  0  0  0  0
 37 38  2  0  0  0  0
 39 28  1  0  0  0  0
 40 39  1  0  0  0  0
M  END
>  <minimizedAffinity>
-4.82766438

$$$$

 OpenBabel03272505533D

 40 42  0  0  1  0  0  0  0  0999 V2000
   37.0870   29.1430   29.7020 C   0  0  0  0  0  0  0  0  0  0  0  0
   38.4230   29.3000   29.3150 C   0  0  0  0  0  0  0  0  0  0  0  0
   39.3110   28.3110   29.7270 C   0  0  0  0  0  0  0  0  0  0  0  0
   38.8190   27.2800   30.4640 N   0  0  0  0  0  0  0  0  0  0  0  0
   37.5280   27.1720   30.8100 C   0  0  0  0  0  0  0  0  0  0  0  0
   36.6550   28.1020   30.4320 N   0  0  0  0  0  0  0  0  0  0  0  0
   37.1100   26.0660   31.5760 N   0  0  0  0  0  0  0  0  0  0  0  0
   35.7520   25.5420   31.4830 C   0  0  0  0  0  0  0  0  0  0  0  0
   35.7940   24.0870   31.1750 C   0  0  0  0  0  0  0  0  0  0  0  0
   36.9840   23.4330   31.3750 N   0  0  0  0  0  0  0  0  0  0  0  0
   37.9930   23.9550   32.2650 C   0  0  0  0  0  0  0  0  0  0  0  0
   38.0050   25.3850   32.5010 C   0  0  2  0  0  0  0  0  0  0  0  0
   36.4570   29.9450   29.3490 H   0  0  0  0  0  0  0  0  0  0  0  0
   38.8360   30.0960   28.7400 H   0  0  0  0  0  0  0  0  0  0  0  0
   40.3850   28.2660   29.5220 H   0  0  0  0  0  0  0  0  0  0  0  0
   35.1890   25.7730   32.4270 H   0  0  0  0  0  0  0  0  0  0  0  0
   35.2210   26.1190   30.6930 H   0  0  0  0  0  0  0  0  0  0  0  0
   34.9660   23.6090   31.7570 H   0  0  0  0  0  0  0  0  0  0  0  0
   35.4700   23.9630   30.0990 H   0  0  0  0  0  0  0  0  0  0  0  0
   37.2780   22.6900   30.7430 H   0  0  0  0  0  0  0  0  0  0  0  0
   38.9440   23.7350   31.6590 H   0  0  0  0  0  0  0  0  0  0  0  0
   38.0760   23.2220   33.0500 H   0  0  0  0  0  0  0  0  0  0  0  0
   39.0260   25.8480   32.3370 H   0  0  0  0  0  0  0  0  0  0  0  0
   37.6300   25.7780   33.8360 N   0  0  2  0  0  0  0  0  0  0  0  0
   37.6150   27.2150   33.9970 C   0  0  0  0  0  0  0  0  0  0  0  0
   38.0470   27.5120   35.4170 C   0  0  0  0  0  0  0  0  0  0  0  0
   38.1480   26.1700   36.0390 C   0  0  0  0  0  0  0  0  0  0  0  0
   38.4700   25.2470   34.8500 C   0  0  1  0  0  0  0  0  0  0  0  0
   36.5600   27.5470   33.7990 H   0  0  0  0  0  0  0  0  0  0  0  0
   38.2790   27.7040   33.2580 H   0  0  0  0  0  0  0  0  0  0  0  0
   38.9920   28.0980   35.4570 H   0  0  0  0  0  0  0  0  0  0  0  0
   37.2030   28.0750   35.8960 H   0  0  0  0  0  0  0  0  0  0  0  0
   37.2340   25.8320   36.5620 H   0  0  0  0  0  0  0  0  0  0  0  0
   38.9480   26.1690   36.7990 H   0  0  0  0  0  0  0  0  0  0  0  0
   39.5380   25.4070   34.7790 H   0  0  0  0  0  0  0  0  0  0  0  0
   39.5160   22.3450   36.5370 H   0  0  0  0  0  0  0  0  0  0  0  0
   38.9840   23.1150   36.0120 C   0  0  0  0  0  0  0  0  0  0  0  0
   40.2240   23.3640   36.2700 O   0  0  0  0  0  0  0  0  0  0  0  0
   38.0730   23.9530   35.3400 N   0  0  0  0  0  0  0  0  0  0  0  0
   37.2880   23.2800   35.4190 H   0  0  0  0  0  0  0  0  0  0  0  0
  1  6  1  0  0  0  0
  2  1  2  0  0  0  0
  2  3  1  0  0  0  0
  3  4  2  0  0  0  0
  4  5  1  0  0  0  0
  5  7  1  0  0  0  0
  6  5  2  0  0  0  0
  7 12  1  0  0  0  0
  8  7  1  0  0  0  0
  8 16  1  0  0  0  0
  9 10  1  0  0  0  0
  9  8  1  0  0  0  0
  9 18  1  0  0  0  0
 10 11  1  0  0  0  0
 11 12  1  0  0  0  0
 11 22  1  0  0  0  0
 12 23  1  6  0  0  0
 12 24  1  0  0  0  0
 13  1  1  0  0  0  0
 14  2  1  0  0  0  0
 15  3  1  0  0  0  0
 17  8  1  0  0  0  0
 19  9  1  0  0  0  0
 20 10  1  0  0  0  0
 21 11  1  0  0  0  0
 24 25  1  6  0  0  0
 24 28  1  0  0  0  0
 25 26  1  0  0  0  0
 26 31  1  0  0  0  0
 26 32  1  0  0  0  0
 26 27  1  0  0  0  0
 27 33  1  0  0  0  0
 27 34  1  0  0  0  0
 28 35  1  6  0  0  0
 28 39  1  0  0  0  0
 28 27  1  0  0  0  0
 29 25  1  0  0  0  0
 30 25  1  0  0  0  0
 37 38  2  0  0  0  0
 37 36  1  0  0  0  0
 39 40  1  0  0  0  0
 39 37  1  0  0  0  0
M  END
>  <minimizedAffinity>
-4.72346592

$$$$

 OpenBabel03272505533D

 40 42  0  0  1  0  0  0  0  0999 V2000
   37.1580   29.6710   30.0010 C   0  0  0  0  0  0  0  0  0  0  0  0
   37.4100   28.3240   30.2840 C   0  0  0  0  0  0  0  0  0  0  0  0
   36.5610   27.7090   31.1980 C   0  0  0  0  0  0  0  0  0  0  0  0
   35.5620   28.4550   31.7390 N   0  0  0  0  0  0  0  0  0  0  0  0
   35.3580   29.7450   31.4370 C   0  0  0  0  0  0  0  0  0  0  0  0
   36.1530   30.3610   30.5660 N   0  0  0  0  0  0  0  0  0  0  0  0
   34.2940   30.4380   32.0480 N   0  0  0  0  0  0  0  0  0  0  0  0
   33.6290   31.5550   31.3880 C   0  0  0  0  0  0  0  0  0  0  0  0
   32.1620   31.3080   31.3350 C   0  0  0  0  0  0  0  0  0  0  0  0
   31.6550   30.3410   32.1650 N   0  0  0  0  0  0  0  0  0  0  0  0
   32.3590   29.9160   33.3510 C   0  0  0  0  0  0  0  0  0  0  0  0
   33.7990   30.0800   33.3700 C   0  0  2  0  0  0  0  0  0  0  0  0
   37.8550   30.0820   29.2860 H   0  0  0  0  0  0  0  0  0  0  0  0
   38.1850   27.7170   29.8750 H   0  0  0  0  0  0  0  0  0  0  0  0
   36.6050   26.6700   31.5390 H   0  0  0  0  0  0  0  0  0  0  0  0
   33.8920   32.5150   31.9070 H   0  0  0  0  0  0  0  0  0  0  0  0
   34.0710   31.6570   30.3720 H   0  0  0  0  0  0  0  0  0  0  0  0
   31.6620   32.2940   31.5070 H   0  0  0  0  0  0  0  0  0  0  0  0
   31.9030   31.0610   30.2620 H   0  0  0  0  0  0  0  0  0  0  0  0
   30.8880   29.7450   31.8550 H   0  0  0  0  0  0  0  0  0  0  0  0
   32.1790   28.7820   33.3090 H   0  0  0  0  0  0  0  0  0  0  0  0
   31.7180   30.1950   34.1690 H   0  0  0  0  0  0  0  0  0  0  0  0
   34.3450   29.1280   33.6550 H   0  0  0  0  0  0  0  0  0  0  0  0
   34.2790   31.0730   34.2970 N   0  0  2  0  0  0  0  0  0  0  0  0
   35.7230   31.0820   34.3870 C   0  0  0  0  0  0  0  0  0  0  0  0
   36.0820   31.4410   35.8130 C   0  0  0  0  0  0  0  0  0  0  0  0
   34.7730   31.7630   36.4320 C   0  0  0  0  0  0  0  0  0  0  0  0
   33.7750   30.9220   35.6160 C   0  0  1  0  0  0  0  0  0  0  0  0
   36.0820   31.8550   33.6540 H   0  0  0  0  0  0  0  0  0  0  0  0
   36.1450   30.1010   34.0950 H   0  0  0  0  0  0  0  0  0  0  0  0
   36.6330   30.6230   36.3270 H   0  0  0  0  0  0  0  0  0  0  0  0
   36.7020   32.3740   35.7610 H   0  0  0  0  0  0  0  0  0  0  0  0
   34.5000   32.8330   36.4050 H   0  0  0  0  0  0  0  0  0  0  0  0
   34.7840   31.4810   37.4990 H   0  0  0  0  0  0  0  0  0  0  0  0
   33.8900   29.9680   36.1130 H   0  0  0  0  0  0  0  0  0  0  0  0
   30.6430   30.7280   37.2030 H   0  0  0  0  0  0  0  0  0  0  0  0
   31.5170   31.0040   36.6450 C   0  0  0  0  0  0  0  0  0  0  0  0
   31.5600   29.8500   37.2230 O   0  0  0  0  0  0  0  0  0  0  0  0
   32.5250   31.5950   35.8590 N   0  0  0  0  0  0  0  0  0  0  0  0
   31.9740   32.4540   35.6740 H   0  0  0  0  0  0  0  0  0  0  0  0
  1  2  2  0  0  0  0
  1  6  1  0  0  0  0
  2  3  1  0  0  0  0
  3 15  1  0  0  0  0
  3  4  2  0  0  0  0
  5  4  1  0  0  0  0
  5  7  1  0  0  0  0
  6  5  2  0  0  0  0
  7 12  1  0  0  0  0
  8 16  1  0  0  0  0
  8  7  1  0  0  0  0
  9  8  1  0  0  0  0
  9 18  1  0  0  0  0
  9 10  1  0  0  0  0
 10 11  1  0  0  0  0
 11 12  1  0  0  0  0
 11 22  1  0  0  0  0
 12 23  1  1  0  0  0
 12 24  1  0  0  0  0
 13  1  1  0  0  0  0
 14  2  1  0  0  0  0
 17  8  1  0  0  0  0
 19  9  1  0  0  0  0
 20 10  1  0  0  0  0
 21 11  1  0  0  0  0
 24 25  1  1  0  0  0
 24 28  1  0  0  0  0
 25 26  1  0  0  0  0
 26 31  1  0  0  0  0
 26 27  1  0  0  0  0
 27 34  1  0  0  0  0
 28 39  1  0  0  0  0
 28 35  1  1  0  0  0
 28 27  1  0  0  0  0
 29 25  1  0  0  0  0
 30 25  1  0  0  0  0
 32 26  1  0  0  0  0
 33 27  1  0  0  0  0
 37 36  1  0  0  0  0
 37 38  2  0  0  0  0
 39 37  1  0  0  0  0
 40 39  1  0  0  0  0
M  END
>  <minimizedAffinity>
-4.65505457

$$$$

 OpenBabel03272505533D

 40 42  0  0  1  0  0  0  0  0999 V2000
   40.5400   21.8880   37.1800 C   0  0  0  0  0  0  0  0  0  0  0  0
   41.9060   21.8170   36.8800 C   0  0  0  0  0  0  0  0  0  0  0  0
   42.4110   22.8060   36.0420 C   0  0  0  0  0  0  0  0  0  0  0  0
   41.5510   23.7540   35.5850 N   0  0  0  0  0  0  0  0  0  0  0  0
   40.2480   23.7810   35.9000 C   0  0  0  0  0  0  0  0  0  0  0  0
   39.7350   22.8490   36.6990 N   0  0  0  0  0  0  0  0  0  0  0  0
   39.4330   24.8050   35.3790 N   0  0  0  0  0  0  0  0  0  0  0  0
   38.2500   25.2780   36.0900 C   0  0  0  0  0  0  0  0  0  0  0  0
   38.3270   26.7540   36.2670 C   0  0  0  0  0  0  0  0  0  0  0  0
   39.2230   27.4370   35.4850 N   0  0  0  0  0  0  0  0  0  0  0  0
   39.7180   26.8890   34.2450 C   0  0  0  0  0  0  0  0  0  0  0  0
   39.7210   25.4470   34.1040 C   0  0  2  0  0  0  0  0  0  0  0  0
   40.2180   21.0900   37.8330 H   0  0  0  0  0  0  0  0  0  0  0  0
   42.6020   21.0870   37.2230 H   0  0  0  0  0  0  0  0  0  0  0  0
   43.4460   22.9120   35.7000 H   0  0  0  0  0  0  0  0  0  0  0  0
   37.3240   24.9500   35.5480 H   0  0  0  0  0  0  0  0  0  0  0  0
   38.2080   24.7430   37.0650 H   0  0  0  0  0  0  0  0  0  0  0  0
   37.2890   27.1490   36.1340 H   0  0  0  0  0  0  0  0  0  0  0  0
   38.5500   26.9490   37.3580 H   0  0  0  0  0  0  0  0  0  0  0  0
   39.7280   28.2400   35.8590 H   0  0  0  0  0  0  0  0  0  0  0  0
   40.8240   27.1950   34.3050 H   0  0  0  0  0  0  0  0  0  0  0  0
   39.3600   27.5600   33.4830 H   0  0  0  0  0  0  0  0  0  0  0  0
   40.7280   25.0410   33.7770 H   0  0  0  0  0  0  0  0  0  0  0  0
   38.7840   24.9340   33.1370 N   0  0  2  0  0  0  0  0  0  0  0  0
   39.4130   24.0430   32.1870 C   0  0  0  0  0  0  0  0  0  0  0  0
   38.7040   24.2280   30.8620 C   0  0  0  0  0  0  0  0  0  0  0  0
   37.5830   25.1420   31.1900 C   0  0  0  0  0  0  0  0  0  0  0  0
   38.1140   25.9410   32.3940 C   0  0  1  0  0  0  0  0  0  0  0  0
   39.2850   23.0040   32.5920 H   0  0  0  0  0  0  0  0  0  0  0  0
   40.4960   24.2550   32.1020 H   0  0  0  0  0  0  0  0  0  0  0  0
   39.3830   24.6150   30.0710 H   0  0  0  0  0  0  0  0  0  0  0  0
   38.2880   23.2250   30.5810 H   0  0  0  0  0  0  0  0  0  0  0  0
   36.6330   24.6370   31.4420 H   0  0  0  0  0  0  0  0  0  0  0  0
   37.3610   25.7880   30.3230 H   0  0  0  0  0  0  0  0  0  0  0  0
   38.7030   26.6850   31.8740 H   0  0  0  0  0  0  0  0  0  0  0  0
   35.9510   28.6920   32.7330 H   0  0  0  0  0  0  0  0  0  0  0  0
   36.4520   27.7450   32.7780 C   0  0  0  0  0  0  0  0  0  0  0  0
   37.0160   28.6450   32.0430 O   0  0  0  0  0  0  0  0  0  0  0  0
   36.9040   26.4300   33.0040 N   0  0  0  0  0  0  0  0  0  0  0  0
   36.1120   26.1910   33.6280 H   0  0  0  0  0  0  0  0  0  0  0  0
  1 13  1  0  0  0  0
  2  1  1  0  0  0  0
  2 14  1  0  0  0  0
  3  2  2  0  0  0  0
  4  5  2  0  0  0  0
  4  3  1  0  0  0  0
  5  6  1  0  0  0  0
  6  1  2  0  0  0  0
  7  5  1  0  0  0  0
  7  8  1  0  0  0  0
  8  9  1  0  0  0  0
  8 17  1  0  0  0  0
  9 19  1  0  0  0  0
 10 20  1  0  0  0  0
 10  9  1  0  0  0  0
 11 21  1  0  0  0  0
 11 10  1  0  0  0  0
 12 23  1  6  0  0  0
 12 11  1  0  0  0  0
 12  7  1  0  0  0  0
 15  3  1  0  0  0  0
 16  8  1  0  0  0  0
 18  9  1  0  0  0  0
 22 11  1  0  0  0  0
 24 25  1  6  0  0  0
 24 12  1  0  0  0  0
 25 29  1  0  0  0  0
 26 27  1  0  0  0  0
 26 25  1  0  0  0  0
 27 33  1  0  0  0  0
 27 28  1  0  0  0  0
 28 35  1  6  0  0  0
 28 39  1  0  0  0  0
 28 24  1  0  0  0  0
 30 25  1  0  0  0  0
 31 26  1  0  0  0  0
 32 26  1  0  0  0  0
 34 27  1  0  0  0  0
 36 37  1  0  0  0  0
 37 39  1  0  0  0  0
 38 37  2  0  0  0  0
 39 40  1  0  0  0  0
M  END
>  <minimizedAffinity>
-4.63416243

$$$$
