
 OpenBabel03272509143D

 40 42  0  0  1  0  0  0  0  0999 V2000
   35.0120   30.0230   46.7490 C   0  0  0  0  0  0  0  0  0  0  0  0
   36.3190   30.5650   46.8580 C   0  0  0  0  0  0  0  0  0  0  0  0
   37.0410   30.7320   45.6680 C   0  0  0  0  0  0  0  0  0  0  0  0
   36.4680   30.3750   44.4960 N   0  0  0  0  0  0  0  0  0  0  0  0
   35.2300   29.8650   44.4330 C   0  0  0  0  0  0  0  0  0  0  0  0
   34.5100   29.6920   45.5480 N   0  0  0  0  0  0  0  0  0  0  0  0
   34.3520   29.8550   47.5780 H   0  0  0  0  0  0  0  0  0  0  0  0
   34.8540   29.6090   43.4530 H   0  0  0  0  0  0  0  0  0  0  0  0
   36.7560   30.8700   48.1850 N   0  0  0  0  0  0  0  0  0  0  0  0
   37.1680   32.0420   48.9400 C   0  0  0  0  0  0  0  0  0  0  0  0
   38.4690   31.5460   49.5770 C   0  0  0  0  0  0  0  0  0  0  0  0
   38.2240   30.0580   49.8220 C   0  0  0  0  0  0  0  0  0  0  0  0
   36.8850   29.8040   49.2080 C   0  0  1  0  0  0  0  0  0  0  0  0
   36.4370   32.4110   49.6510 H   0  0  0  0  0  0  0  0  0  0  0  0
   37.4950   32.7960   48.1930 H   0  0  0  0  0  0  0  0  0  0  0  0
   38.5300   32.0670   50.5650 H   0  0  0  0  0  0  0  0  0  0  0  0
   39.3370   31.7270   48.9450 H   0  0  0  0  0  0  0  0  0  0  0  0
   38.1700   29.8610   50.9250 H   0  0  0  0  0  0  0  0  0  0  0  0
   38.9970   29.4160   49.3960 H   0  0  0  0  0  0  0  0  0  0  0  0
   36.7850   28.8200   48.7640 H   0  0  0  0  0  0  0  0  0  0  0  0
   34.7970   29.1310   50.3970 C   0  0  0  0  0  0  0  0  0  0  0  0
   34.5480   28.1320   49.6650 O   0  0  0  0  0  0  0  0  0  0  0  0
   35.8690   30.0600   50.2220 N   0  0  0  0  0  0  0  0  0  0  0  0
   34.1000   29.2660   51.2380 H   0  0  0  0  0  0  0  0  0  0  0  0
   35.8730   30.8930   50.8430 H   0  0  0  0  0  0  0  0  0  0  0  0
   38.3680   31.2770   45.6630 C   0  0  0  0  0  0  0  0  0  0  0  0
   38.5650   32.5470   46.1630 C   0  0  0  0  0  0  0  0  0  0  0  0
   39.8240   33.1330   46.1900 C   0  0  0  0  0  0  0  0  0  0  0  0
   40.8910   32.4160   45.7020 C   0  0  0  0  0  0  0  0  0  0  0  0
   40.7610   31.1450   45.1900 C   0  0  0  0  0  0  0  0  0  0  0  0
   39.4710   30.6280   45.1970 C   0  0  0  0  0  0  0  0  0  0  0  0
   37.7750   33.1770   46.5680 H   0  0  0  0  0  0  0  0  0  0  0  0
   39.9810   34.1250   46.5800 H   0  0  0  0  0  0  0  0  0  0  0  0
   41.8820   32.8400   45.7070 H   0  0  0  0  0  0  0  0  0  0  0  0
   41.5780   30.5530   44.7980 H   0  0  0  0  0  0  0  0  0  0  0  0
   39.2970   28.5220   42.5470 H   0  0  0  0  0  0  0  0  0  0  0  0
   39.3890   29.3660   43.2400 C   0  0  0  0  0  0  0  0  0  0  0  0
   39.5900   30.3300   42.4280 O   0  0  0  0  0  0  0  0  0  0  0  0
   39.2970   29.3260   44.6710 N   0  0  0  0  0  0  0  0  0  0  0  0
   39.1260   28.3740   45.0240 H   0  0  0  0  0  0  0  0  0  0  0  0
  1  2  1  0  0  0  0
  1  7  1  0  0  0  0
  2  9  1  0  0  0  0
  3  2  2  0  0  0  0
  4  3  1  0  0  0  0
  5  4  2  0  0  0  0
  5  6  1  0  0  0  0
  6  1  2  0  0  0  0
  8  5  1  0  0  0  0
  9 10  1  0  0  0  0
  9 13  1  0  0  0  0
 10 11  1  0  0  0  0
 10 14  1  0  0  0  0
 11 12  1  0  0  0  0
 11 16  1  0  0  0  0
 12 18  1  0  0  0  0
 13 20  1  6  0  0  0
 13 12  1  0  0  0  0
 13 23  1  0  0  0  0
 15 10  1  0  0  0  0
 17 11  1  0  0  0  0
 19 12  1  0  0  0  0
 21 24  1  0  0  0  0
 22 21  2  0  0  0  0
 23 21  1  0  0  0  0
 23 25  1  0  0  0  0
 26  3  1  0  0  0  0
 26 27  1  0  0  0  0
 27 28  2  0  0  0  0
 27 32  1  0  0  0  0
 28 33  1  0  0  0  0
 29 34  1  0  0  0  0
 29 28  1  0  0  0  0
 30 31  1  0  0  0  0
 30 29  2  0  0  0  0
 31 26  2  0  0  0  0
 35 30  1  0  0  0  0
 36 37  1  0  0  0  0
 37 39  1  0  0  0  0
 38 37  2  0  0  0  0
 39 40  1  0  0  0  0
 39 31  1  0  0  0  0
M  END
>  <minimizedAffinity>
-5.80149031

>  <minimizedRMSD>
0.834010363

$$$$
