
     RDKit          3D

 43 46  0  0  0  0  0  0  0  0999 V2000
   36.9459   31.3807   47.3848 C   0  0  1  0  0  0  0  0  0  0  0  0
   38.1229   32.0046   48.0432 C   0  0  0  0  0  0  0  0  0  0  0  0
   38.4476   30.8949   47.1686 C   0  0  2  0  0  0  0  0  0  0  0  0
   39.1275   31.3684   45.9176 C   0  0  0  0  0  0  0  0  0  0  0  0
   39.6250   32.6626   46.1053 C   0  0  0  0  0  0  0  0  0  0  0  0
   40.3755   33.2591   45.1217 C   0  0  0  0  0  0  0  0  0  0  0  0
   40.6610   32.5990   43.9202 C   0  0  0  0  0  0  0  0  0  0  0  0
   40.1528   31.3177   43.7676 C   0  0  0  0  0  0  0  0  0  0  0  0
   40.3431   30.5712   42.6385 C   0  0  0  0  0  0  0  0  0  0  0  0
   39.8298   29.3092   42.4728 C   0  0  0  0  0  0  0  0  0  0  0  0
   39.0838   28.7533   43.4869 C   0  0  0  0  0  0  0  0  0  0  0  0
   38.8876   29.4992   44.6284 C   0  0  0  0  0  0  0  0  0  0  0  0
   39.4212   30.7709   44.7591 C   0  0  0  0  0  0  0  0  0  0  0  0
   34.4470   28.7362   48.3786 C   0  0  0  0  0  0  0  0  0  0  0  0
   35.1897   29.6568   47.5828 C   0  0  0  0  0  0  0  0  0  0  0  0
   36.1632   30.4028   48.1829 C   0  0  0  0  0  0  0  0  0  0  0  0
   36.3515   30.1996   49.5360 N   0  0  0  0  0  0  0  0  0  0  0  0
   35.6491   29.3340   50.2703 C   0  0  0  0  0  0  0  0  0  0  0  0
   34.6876   28.5876   49.7142 N   0  0  0  0  0  0  0  0  0  0  0  0
   35.9757   29.2244   51.7330 C   0  0  0  0  0  0  0  0  0  0  0  0
   37.3346   29.9259   51.9405 C   0  0  0  0  0  0  0  0  0  0  0  0
   36.5047   31.6912   46.4398 H   0  0  0  0  0  0  0  0  0  0  0  0
   38.1069   33.0773   47.8663 H   0  0  0  0  0  0  0  0  0  0  0  0
   38.1799   31.8042   49.1586 H   0  0  0  0  0  0  0  0  0  0  0  0
   38.4750   29.8296   47.3456 H   0  0  0  0  0  0  0  0  0  0  0  0
   39.6021   33.4017   46.8801 H   0  0  0  0  0  0  0  0  0  0  0  0
   40.8352   34.2374   45.0905 H   0  0  0  0  0  0  0  0  0  0  0  0
   41.2368   32.9568   43.0726 H   0  0  0  0  0  0  0  0  0  0  0  0
   40.9223   30.9622   41.8125 H   0  0  0  0  0  0  0  0  0  0  0  0
   40.0066   28.7517   41.5558 H   0  0  0  0  0  0  0  0  0  0  0  0
   38.6482   27.7657   43.4290 H   0  0  0  0  0  0  0  0  0  0  0  0
   38.2876   29.0420   45.4357 H   0  0  0  0  0  0  0  0  0  0  0  0
   33.6746   28.1542   47.8670 H   0  0  0  0  0  0  0  0  0  0  0  0
   34.9501   29.7268   46.5302 H   0  0  0  0  0  0  0  0  0  0  0  0
   35.1971   29.7972   52.2646 H   0  0  0  0  0  0  0  0  0  0  0  0
   36.0301   28.1821   52.0553 H   0  0  0  0  0  0  0  0  0  0  0  0
   37.2689   30.9808   51.6558 H   0  0  0  0  0  0  0  0  0  0  0  0
   38.1162   29.3759   51.3778 H   0  0  0  0  0  0  0  0  0  0  0  0
   38.0289   30.9356   55.1329 H   0  0  0  0  0  0  0  0  0  0  0  0
   37.7997   31.0429   54.0737 C   0  0  0  0  0  0  0  0  0  0  0  0
   37.6766   32.1436   53.4926 O   0  0  0  0  0  0  0  0  0  0  0  0
   37.6401   29.8148   53.3520 N   0  0  0  0  0  0  0  0  0  0  0  0
   37.7452   28.8959   53.8475 H   0  0  0  0  0  0  0  0  0  0  0  0
  1  2  1  0
  1 16  1  0
  3  1  1  0
  3  2  1  0
  4  5  2  0
  4  3  1  0
  6  5  1  0
  7  6  2  0
  8  7  1  0
  8 13  2  0
  9  8  1  0
 10  9  2  0
 10 11  1  0
 11 12  2  0
 12 13  1  0
 13  4  1  0
 14 19  2  0
 15 16  2  0
 15 14  1  0
 16 17  1  0
 17 18  2  0
 18 20  1  0
 19 18  1  0
 20 21  1  0
  1 22  1  6
  2 23  1  0
  2 24  1  0
  3 25  1  1
  5 26  1  0
  6 27  1  0
  7 28  1  0
  9 29  1  0
 10 30  1  0
 11 31  1  0
 12 32  1  0
 14 33  1  0
 15 34  1  0
 20 35  1  0
 20 36  1  0
 21 37  1  0
 21 38  1  0
 39 40  1  0
 40 41  2  0
 40 42  1  0
 42 43  1  0
 21 42  1  0
M  ISO  8  22  13  23  13  24  13  25  13  26  14  27  14  28  14  29  14
M  ISO  8  30  14  31  14  32  14  33  14  34  14  35   8  36   8  37   8
M  ISO  2  38   8  39   1
M  END
>  <DihAtoms>  (1) 
19,20,41,39

>  <DihDeg>  (1) 
179.9999470874228

$$$$
