
 OpenBabel03272507253D

 29 30  0  0  1  0  0  0  0  0999 V2000
   36.9830   30.0130   49.1880 C   0  0  0  0  0  0  0  0  0  0  0  0
   37.9410   30.6820   48.3910 C   0  0  0  0  0  0  0  0  0  0  0  0
   37.6160   30.9450   47.0460 C   0  0  0  0  0  0  0  0  0  0  0  0
   36.4110   30.5470   46.5890 N   0  0  0  0  0  0  0  0  0  0  0  0
   35.5090   29.9070   47.3780 C   0  0  0  0  0  0  0  0  0  0  0  0
   35.7970   29.6470   48.6550 N   0  0  0  0  0  0  0  0  0  0  0  0
   38.5310   31.5950   46.1950 N   0  0  0  0  0  0  0  0  0  0  0  0
   39.5340   32.5610   46.6700 C   0  0  0  0  0  0  0  0  0  0  0  0
   40.1730   33.1090   45.4190 C   0  0  0  0  0  0  0  0  0  0  0  0
   39.0740   32.8950   44.4390 C   0  0  0  0  0  0  0  0  0  0  0  0
   38.6940   31.4580   44.7920 C   0  0  1  0  0  0  0  0  0  0  0  0
   37.3400   29.8660   50.1920 H   0  0  0  0  0  0  0  0  0  0  0  0
   38.9100   31.0020   48.7540 H   0  0  0  0  0  0  0  0  0  0  0  0
   34.5560   29.6080   46.9690 H   0  0  0  0  0  0  0  0  0  0  0  0
   39.1270   33.3040   47.3510 H   0  0  0  0  0  0  0  0  0  0  0  0
   40.3270   31.9630   47.2040 H   0  0  0  0  0  0  0  0  0  0  0  0
   40.2780   34.2090   45.5950 H   0  0  0  0  0  0  0  0  0  0  0  0
   41.1260   32.6350   45.1460 H   0  0  0  0  0  0  0  0  0  0  0  0
   39.3160   33.0430   43.3950 H   0  0  0  0  0  0  0  0  0  0  0  0
   38.2060   33.5090   44.7330 H   0  0  0  0  0  0  0  0  0  0  0  0
   41.5020   29.7410   43.4120 H   0  0  0  0  0  0  0  0  0  0  0  0
   40.6550   30.4020   43.5170 C   0  0  0  0  0  0  0  0  0  0  0  0
   40.4990   31.0140   42.4590 O   0  0  0  0  0  0  0  0  0  0  0  0
   39.8390   30.5610   44.6660 N   0  0  0  0  0  0  0  0  0  0  0  0
   40.1990   29.9120   45.4320 H   0  0  0  0  0  0  0  0  0  0  0  0
   37.5580   30.9420   44.0180 C   0  0  0  0  0  0  0  0  0  0  0  0
   36.4380   31.7150   44.4050 F   0  0  0  0  0  0  0  0  0  0  0  0
   37.2150   29.6510   44.1960 F   0  0  0  0  0  0  0  0  0  0  0  0
   37.7450   31.3440   42.6990 F   0  0  0  0  0  0  0  0  0  0  0  0
  1 12  1  0  0  0  0
  2 13  1  0  0  0  0
  2  1  2  0  0  0  0
  3  2  1  0  0  0  0
  4  3  2  0  0  0  0
  4  5  1  0  0  0  0
  5  6  2  0  0  0  0
  6  1  1  0  0  0  0
  7  8  1  0  0  0  0
  7  3  1  0  0  0  0
  8 16  1  0  0  0  0
  8 15  1  0  0  0  0
  9 17  1  0  0  0  0
  9  8  1  0  0  0  0
 10 20  1  0  0  0  0
 10 11  1  0  0  0  0
 10  9  1  0  0  0  0
 11 26  1  6  0  0  0
 11  7  1  0  0  0  0
 14  5  1  0  0  0  0
 18  9  1  0  0  0  0
 19 10  1  0  0  0  0
 21 22  1  0  0  0  0
 22 24  1  0  0  0  0
 23 22  2  0  0  0  0
 24 11  1  0  0  0  0
 24 25  1  0  0  0  0
 26 28  1  0  0  0  0
 26 27  1  0  0  0  0
 29 26  1  0  0  0  0
M  END
>  <minimizedAffinity>
-4.74710226

>  <minimizedRMSD>
2.99610639

$$$$
