
 OpenBabel03272507253D

 29 30  0  0  1  0  0  0  0  0999 V2000
   38.5930   26.6140   33.5290 C   0  0  0  0  0  0  0  0  0  0  0  0
   38.2000   25.8980   34.6840 C   0  0  0  0  0  0  0  0  0  0  0  0
   39.1250   24.9980   35.2500 C   0  0  0  0  0  0  0  0  0  0  0  0
   40.3320   24.8670   34.6630 N   0  0  0  0  0  0  0  0  0  0  0  0
   40.6820   25.5690   33.5530 C   0  0  0  0  0  0  0  0  0  0  0  0
   39.8210   26.4260   33.0010 N   0  0  0  0  0  0  0  0  0  0  0  0
   38.7930   24.2440   36.3930 N   0  0  0  0  0  0  0  0  0  0  0  0
   37.8420   24.7020   37.4170 C   0  0  0  0  0  0  0  0  0  0  0  0
   37.9160   23.6670   38.5100 C   0  0  0  0  0  0  0  0  0  0  0  0
   39.2890   23.1380   38.2900 C   0  0  0  0  0  0  0  0  0  0  0  0
   39.2510   22.9560   36.7730 C   0  0  1  0  0  0  0  0  0  0  0  0
   37.8100   27.2670   33.1870 H   0  0  0  0  0  0  0  0  0  0  0  0
   37.2320   26.0010   35.1580 H   0  0  0  0  0  0  0  0  0  0  0  0
   41.6600   25.4310   33.1190 H   0  0  0  0  0  0  0  0  0  0  0  0
   38.0110   25.7280   37.7330 H   0  0  0  0  0  0  0  0  0  0  0  0
   36.8140   24.6190   36.9610 H   0  0  0  0  0  0  0  0  0  0  0  0
   37.9110   24.2430   39.4690 H   0  0  0  0  0  0  0  0  0  0  0  0
   37.1230   22.9060   38.4750 H   0  0  0  0  0  0  0  0  0  0  0  0
   39.5610   22.2440   38.8340 H   0  0  0  0  0  0  0  0  0  0  0  0
   40.0170   23.9460   38.4700 H   0  0  0  0  0  0  0  0  0  0  0  0
   36.8810   21.2240   34.7440 H   0  0  0  0  0  0  0  0  0  0  0  0
   37.6870   21.8720   35.0500 C   0  0  0  0  0  0  0  0  0  0  0  0
   38.1450   22.4310   34.0530 O   0  0  0  0  0  0  0  0  0  0  0  0
   38.1600   22.0720   36.3720 N   0  0  0  0  0  0  0  0  0  0  0  0
   37.5860   21.4640   37.0360 H   0  0  0  0  0  0  0  0  0  0  0  0
   40.5200   22.4850   36.2040 C   0  0  0  0  0  0  0  0  0  0  0  0
   41.5170   23.3600   36.6960 F   0  0  0  0  0  0  0  0  0  0  0  0
   40.6400   22.4800   34.8620 F   0  0  0  0  0  0  0  0  0  0  0  0
   40.8390   21.2930   36.8470 F   0  0  0  0  0  0  0  0  0  0  0  0
  1  2  1  0  0  0  0
  2 13  1  0  0  0  0
  2  3  2  0  0  0  0
  3  7  1  0  0  0  0
  4  3  1  0  0  0  0
  5  4  2  0  0  0  0
  6  1  2  0  0  0  0
  6  5  1  0  0  0  0
  7 11  1  0  0  0  0
  7  8  1  0  0  0  0
  8 15  1  0  0  0  0
  8  9  1  0  0  0  0
  9 17  1  0  0  0  0
 10 20  1  0  0  0  0
 10  9  1  0  0  0  0
 10 19  1  0  0  0  0
 11 26  1  6  0  0  0
 11 10  1  0  0  0  0
 12  1  1  0  0  0  0
 14  5  1  0  0  0  0
 16  8  1  0  0  0  0
 18  9  1  0  0  0  0
 21 22  1  0  0  0  0
 22 24  1  0  0  0  0
 23 22  2  0  0  0  0
 24 11  1  0  0  0  0
 24 25  1  0  0  0  0
 26 27  1  0  0  0  0
 26 29  1  0  0  0  0
 28 26  1  0  0  0  0
M  END
>  <minimizedAffinity>
-4.6059041

$$$$

 OpenBabel03272507253D

 29 30  0  0  1  0  0  0  0  0999 V2000
   42.6050   21.7820   36.0540 C   0  0  0  0  0  0  0  0  0  0  0  0
   42.2200   22.9710   35.3930 C   0  0  0  0  0  0  0  0  0  0  0  0
   41.0480   23.6200   35.8260 C   0  0  0  0  0  0  0  0  0  0  0  0
   40.3550   23.0750   36.8480 N   0  0  0  0  0  0  0  0  0  0  0  0
   40.7490   21.9310   37.4650 C   0  0  0  0  0  0  0  0  0  0  0  0
   41.8560   21.3000   37.0700 N   0  0  0  0  0  0  0  0  0  0  0  0
   40.6020   24.8010   35.2020 N   0  0  0  0  0  0  0  0  0  0  0  0
   41.5050   25.7670   34.5580 C   0  0  0  0  0  0  0  0  0  0  0  0
   40.6250   26.9290   34.1720 C   0  0  0  0  0  0  0  0  0  0  0  0
   39.5290   26.7810   35.1690 C   0  0  0  0  0  0  0  0  0  0  0  0
   39.2750   25.2790   35.0450 C   0  0  1  0  0  0  0  0  0  0  0  0
   43.5100   21.3760   35.6390 H   0  0  0  0  0  0  0  0  0  0  0  0
   42.7740   23.4110   34.5720 H   0  0  0  0  0  0  0  0  0  0  0  0
   40.1630   21.5320   38.2790 H   0  0  0  0  0  0  0  0  0  0  0  0
   42.3700   26.0190   35.1660 H   0  0  0  0  0  0  0  0  0  0  0  0
   41.8520   25.2910   33.5970 H   0  0  0  0  0  0  0  0  0  0  0  0
   41.2110   27.8460   34.4290 H   0  0  0  0  0  0  0  0  0  0  0  0
   40.2920   26.9240   33.1250 H   0  0  0  0  0  0  0  0  0  0  0  0
   38.6490   27.3910   35.0200 H   0  0  0  0  0  0  0  0  0  0  0  0
   39.9430   26.9250   36.1800 H   0  0  0  0  0  0  0  0  0  0  0  0
   37.6890   25.2560   31.8480 H   0  0  0  0  0  0  0  0  0  0  0  0
   37.9480   25.5220   32.8610 C   0  0  0  0  0  0  0  0  0  0  0  0
   37.2360   26.4620   33.2170 O   0  0  0  0  0  0  0  0  0  0  0  0
   38.9370   24.9100   33.6730 N   0  0  0  0  0  0  0  0  0  0  0  0
   39.4000   24.1270   33.1150 H   0  0  0  0  0  0  0  0  0  0  0  0
   38.2520   24.7770   35.9710 C   0  0  0  0  0  0  0  0  0  0  0  0
   37.1280   25.6210   35.8060 F   0  0  0  0  0  0  0  0  0  0  0  0
   38.5440   24.7780   37.2870 F   0  0  0  0  0  0  0  0  0  0  0  0
   37.7880   23.5720   35.4530 F   0  0  0  0  0  0  0  0  0  0  0  0
  1  6  1  0  0  0  0
  2  3  1  0  0  0  0
  2  1  2  0  0  0  0
  3  4  2  0  0  0  0
  4  5  1  0  0  0  0
  5 14  1  0  0  0  0
  6  5  2  0  0  0  0
  7  3  1  0  0  0  0
  8 15  1  0  0  0  0
  8  7  1  0  0  0  0
  9 17  1  0  0  0  0
  9  8  1  0  0  0  0
  9 10  1  0  0  0  0
 10 20  1  0  0  0  0
 11 24  1  6  0  0  0
 11 10  1  0  0  0  0
 11  7  1  0  0  0  0
 11 26  1  0  0  0  0
 12  1  1  0  0  0  0
 13  2  1  0  0  0  0
 16  8  1  0  0  0  0
 18  9  1  0  0  0  0
 19 10  1  0  0  0  0
 21 22  1  0  0  0  0
 22 23  2  0  0  0  0
 22 24  1  0  0  0  0
 25 24  1  0  0  0  0
 26 28  1  0  0  0  0
 27 26  1  0  0  0  0
 29 26  1  0  0  0  0
M  END
>  <minimizedAffinity>
-4.55215263

$$$$

 OpenBabel03272507253D

 29 30  0  0  1  0  0  0  0  0999 V2000
   35.7610   24.8680   31.2680 C   0  0  0  0  0  0  0  0  0  0  0  0
   36.6820   25.2220   32.2820 C   0  0  0  0  0  0  0  0  0  0  0  0
   37.3750   24.1860   32.9380 C   0  0  0  0  0  0  0  0  0  0  0  0
   37.1260   22.9130   32.5660 N   0  0  0  0  0  0  0  0  0  0  0  0
   36.2350   22.6020   31.5870 C   0  0  0  0  0  0  0  0  0  0  0  0
   35.5670   23.5690   30.9540 N   0  0  0  0  0  0  0  0  0  0  0  0
   38.2960   24.4690   33.9650 N   0  0  0  0  0  0  0  0  0  0  0  0
   39.0690   25.7180   34.0380 C   0  0  0  0  0  0  0  0  0  0  0  0
   40.0220   25.5220   35.1900 C   0  0  0  0  0  0  0  0  0  0  0  0
   40.1250   24.0380   35.2060 C   0  0  0  0  0  0  0  0  0  0  0  0
   38.6440   23.6790   35.0910 C   0  0  1  0  0  0  0  0  0  0  0  0
   35.2930   25.7370   30.8420 H   0  0  0  0  0  0  0  0  0  0  0  0
   36.8850   26.2420   32.5840 H   0  0  0  0  0  0  0  0  0  0  0  0
   36.0690   21.5700   31.3230 H   0  0  0  0  0  0  0  0  0  0  0  0
   39.5290   25.9950   33.0930 H   0  0  0  0  0  0  0  0  0  0  0  0
   38.3460   26.5250   34.3500 H   0  0  0  0  0  0  0  0  0  0  0  0
   41.0000   25.9380   34.8430 H   0  0  0  0  0  0  0  0  0  0  0  0
   39.6910   25.9670   36.1390 H   0  0  0  0  0  0  0  0  0  0  0  0
   40.6220   23.5920   36.0570 H   0  0  0  0  0  0  0  0  0  0  0  0
   40.5810   23.7000   34.2610 H   0  0  0  0  0  0  0  0  0  0  0  0
   37.5540   24.5500   38.3770 H   0  0  0  0  0  0  0  0  0  0  0  0
   38.1200   24.1180   37.5660 C   0  0  0  0  0  0  0  0  0  0  0  0
   39.0430   23.4530   38.0390 O   0  0  0  0  0  0  0  0  0  0  0  0
   37.8690   24.2720   36.1780 N   0  0  0  0  0  0  0  0  0  0  0  0
   37.0140   24.8980   36.0540 H   0  0  0  0  0  0  0  0  0  0  0  0
   38.3910   22.2350   35.0200 C   0  0  0  0  0  0  0  0  0  0  0  0
   39.1250   21.6570   36.0830 F   0  0  0  0  0  0  0  0  0  0  0  0
   38.7660   21.5890   33.8980 F   0  0  0  0  0  0  0  0  0  0  0  0
   37.0780   22.0280   35.4300 F   0  0  0  0  0  0  0  0  0  0  0  0
  1  2  1  0  0  0  0
  2 13  1  0  0  0  0
  2  3  2  0  0  0  0
  3  7  1  0  0  0  0
  4  3  1  0  0  0  0
  5  4  2  0  0  0  0
  6  1  2  0  0  0  0
  6  5  1  0  0  0  0
  7  8  1  0  0  0  0
  7 11  1  0  0  0  0
  8 16  1  0  0  0  0
  8  9  1  0  0  0  0
  9 10  1  0  0  0  0
  9 18  1  0  0  0  0
 10 19  1  0  0  0  0
 11 26  1  6  0  0  0
 11 10  1  0  0  0  0
 11 24  1  0  0  0  0
 12  1  1  0  0  0  0
 14  5  1  0  0  0  0
 15  8  1  0  0  0  0
 17  9  1  0  0  0  0
 20 10  1  0  0  0  0
 22 23  2  0  0  0  0
 22 21  1  0  0  0  0
 24 22  1  0  0  0  0
 25 24  1  0  0  0  0
 26 29  1  0  0  0  0
 26 27  1  0  0  0  0
 28 26  1  0  0  0  0
M  END
>  <minimizedAffinity>
-4.38855648

$$$$

 OpenBabel03272507253D

 29 30  0  0  1  0  0  0  0  0999 V2000
   38.4430   22.4040   35.8730 C   0  0  0  0  0  0  0  0  0  0  0  0
   38.5020   23.1490   34.6730 C   0  0  0  0  0  0  0  0  0  0  0  0
   38.3890   24.5510   34.7580 C   0  0  0  0  0  0  0  0  0  0  0  0
   38.2320   25.1080   35.9780 N   0  0  0  0  0  0  0  0  0  0  0  0
   38.1790   24.3650   37.1150 C   0  0  0  0  0  0  0  0  0  0  0  0
   38.2830   23.0360   37.0560 N   0  0  0  0  0  0  0  0  0  0  0  0
   38.4270   25.3520   33.6000 N   0  0  0  0  0  0  0  0  0  0  0  0
   39.1590   24.9780   32.3810 C   0  0  0  0  0  0  0  0  0  0  0  0
   39.0540   26.1800   31.4770 C   0  0  0  0  0  0  0  0  0  0  0  0
   38.8580   27.2590   32.4840 C   0  0  0  0  0  0  0  0  0  0  0  0
   37.7940   26.5990   33.3590 C   0  0  1  0  0  0  0  0  0  0  0  0
   38.5380   21.3490   35.6850 H   0  0  0  0  0  0  0  0  0  0  0  0
   38.6280   22.7070   33.6920 H   0  0  0  0  0  0  0  0  0  0  0  0
   38.0520   24.8540   38.0680 H   0  0  0  0  0  0  0  0  0  0  0  0
   40.1700   24.6280   32.5760 H   0  0  0  0  0  0  0  0  0  0  0  0
   38.5680   24.1520   31.8920 H   0  0  0  0  0  0  0  0  0  0  0  0
   40.0690   26.3030   31.0240 H   0  0  0  0  0  0  0  0  0  0  0  0
   38.2610   26.1150   30.7180 H   0  0  0  0  0  0  0  0  0  0  0  0
   38.5760   28.2330   32.1060 H   0  0  0  0  0  0  0  0  0  0  0  0
   39.7580   27.3260   33.1170 H   0  0  0  0  0  0  0  0  0  0  0  0
   35.0640   26.8170   31.0700 H   0  0  0  0  0  0  0  0  0  0  0  0
   35.9370   27.0720   31.6510 C   0  0  0  0  0  0  0  0  0  0  0  0
   36.2680   28.2270   31.3790 O   0  0  0  0  0  0  0  0  0  0  0  0
   36.6130   26.2390   32.5790 N   0  0  0  0  0  0  0  0  0  0  0  0
   36.1160   25.2950   32.6160 H   0  0  0  0  0  0  0  0  0  0  0  0
   37.4050   27.4060   34.5220 C   0  0  0  0  0  0  0  0  0  0  0  0
   36.9190   28.6290   34.0030 F   0  0  0  0  0  0  0  0  0  0  0  0
   38.3640   27.7200   35.4150 F   0  0  0  0  0  0  0  0  0  0  0  0
   36.2490   26.8360   35.0480 F   0  0  0  0  0  0  0  0  0  0  0  0
  1  6  1  0  0  0  0
  2  3  1  0  0  0  0
  2  1  2  0  0  0  0
  3  4  2  0  0  0  0
  4  5  1  0  0  0  0
  5 14  1  0  0  0  0
  6  5  2  0  0  0  0
  7  3  1  0  0  0  0
  8 15  1  0  0  0  0
  8  7  1  0  0  0  0
  9  8  1  0  0  0  0
  9 10  1  0  0  0  0
 10 20  1  0  0  0  0
 10 11  1  0  0  0  0
 11 24  1  6  0  0  0
 11  7  1  0  0  0  0
 11 26  1  0  0  0  0
 12  1  1  0  0  0  0
 13  2  1  0  0  0  0
 16  8  1  0  0  0  0
 17  9  1  0  0  0  0
 18  9  1  0  0  0  0
 19 10  1  0  0  0  0
 21 22  1  0  0  0  0
 22 24  1  0  0  0  0
 23 22  2  0  0  0  0
 24 25  1  0  0  0  0
 26 29  1  0  0  0  0
 26 28  1  0  0  0  0
 27 26  1  0  0  0  0
M  END
>  <minimizedAffinity>
-4.36331511

$$$$

 OpenBabel03272507253D

 29 30  0  0  1  0  0  0  0  0999 V2000
   35.6770   24.7420   30.9570 C   0  0  0  0  0  0  0  0  0  0  0  0
   36.5880   24.2130   31.9000 C   0  0  0  0  0  0  0  0  0  0  0  0
   37.1940   25.1050   32.8080 C   0  0  0  0  0  0  0  0  0  0  0  0
   36.8730   26.4130   32.7300 N   0  0  0  0  0  0  0  0  0  0  0  0
   35.9930   26.8930   31.8130 C   0  0  0  0  0  0  0  0  0  0  0  0
   35.4090   26.0660   30.9430 N   0  0  0  0  0  0  0  0  0  0  0  0
   38.1200   24.6450   33.7640 N   0  0  0  0  0  0  0  0  0  0  0  0
   38.0920   23.2880   34.3320 C   0  0  0  0  0  0  0  0  0  0  0  0
   39.1480   23.2920   35.4070 C   0  0  0  0  0  0  0  0  0  0  0  0
   39.1840   24.7410   35.7460 C   0  0  0  0  0  0  0  0  0  0  0  0
   39.2220   25.3310   34.3370 C   0  0  1  0  0  0  0  0  0  0  0  0
   35.2810   23.9730   30.3190 H   0  0  0  0  0  0  0  0  0  0  0  0
   36.8480   23.1640   31.9650 H   0  0  0  0  0  0  0  0  0  0  0  0
   35.7670   27.9480   31.7890 H   0  0  0  0  0  0  0  0  0  0  0  0
   37.1010   22.9760   34.6510 H   0  0  0  0  0  0  0  0  0  0  0  0
   38.4570   22.5940   33.5220 H   0  0  0  0  0  0  0  0  0  0  0  0
   38.6990   22.7410   36.2700 H   0  0  0  0  0  0  0  0  0  0  0  0
   40.1170   22.8720   35.1000 H   0  0  0  0  0  0  0  0  0  0  0  0
   39.9910   25.0730   36.3850 H   0  0  0  0  0  0  0  0  0  0  0  0
   38.2060   25.0360   36.1600 H   0  0  0  0  0  0  0  0  0  0  0  0
   42.5680   24.4290   33.4800 H   0  0  0  0  0  0  0  0  0  0  0  0
   41.7140   24.7960   34.0290 C   0  0  0  0  0  0  0  0  0  0  0  0
   42.0950   25.1940   35.1310 O   0  0  0  0  0  0  0  0  0  0  0  0
   40.3680   24.8280   33.5830 N   0  0  0  0  0  0  0  0  0  0  0  0
   40.3250   24.4220   32.5970 H   0  0  0  0  0  0  0  0  0  0  0  0
   39.2040   26.7980   34.3120 C   0  0  0  0  0  0  0  0  0  0  0  0
   40.2210   27.2160   35.2030 F   0  0  0  0  0  0  0  0  0  0  0  0
   38.0730   27.4170   34.7010 F   0  0  0  0  0  0  0  0  0  0  0  0
   39.7200   27.1930   33.0810 F   0  0  0  0  0  0  0  0  0  0  0  0
  1  2  1  0  0  0  0
  2 13  1  0  0  0  0
  2  3  2  0  0  0  0
  3  7  1  0  0  0  0
  4  3  1  0  0  0  0
  5  4  2  0  0  0  0
  6  1  2  0  0  0  0
  6  5  1  0  0  0  0
  7  8  1  0  0  0  0
  7 11  1  0  0  0  0
  8 15  1  0  0  0  0
  8  9  1  0  0  0  0
  9 10  1  0  0  0  0
  9 17  1  0  0  0  0
 10 20  1  0  0  0  0
 10 19  1  0  0  0  0
 11 24  1  6  0  0  0
 11 10  1  0  0  0  0
 12  1  1  0  0  0  0
 14  5  1  0  0  0  0
 16  8  1  0  0  0  0
 18  9  1  0  0  0  0
 21 22  1  0  0  0  0
 22 23  2  0  0  0  0
 24 22  1  0  0  0  0
 25 24  1  0  0  0  0
 26 11  1  0  0  0  0
 26 28  1  0  0  0  0
 26 27  1  0  0  0  0
 29 26  1  0  0  0  0
M  END
>  <minimizedAffinity>
-4.31248665

$$$$

 OpenBabel03272507253D

 29 30  0  0  1  0  0  0  0  0999 V2000
   39.3320   22.6640   37.3850 C   0  0  0  0  0  0  0  0  0  0  0  0
   39.6890   23.3120   36.1790 C   0  0  0  0  0  0  0  0  0  0  0  0
   39.1730   24.6020   35.9430 C   0  0  0  0  0  0  0  0  0  0  0  0
   38.3690   25.1500   36.8770 N   0  0  0  0  0  0  0  0  0  0  0  0
   38.0430   24.5040   38.0270 C   0  0  0  0  0  0  0  0  0  0  0  0
   38.5200   23.2810   38.2700 N   0  0  0  0  0  0  0  0  0  0  0  0
   39.4790   25.2970   34.7570 N   0  0  0  0  0  0  0  0  0  0  0  0
   40.7310   25.1080   34.0080 C   0  0  0  0  0  0  0  0  0  0  0  0
   40.6960   26.1510   32.9190 C   0  0  0  0  0  0  0  0  0  0  0  0
   39.8060   27.1660   33.5450 C   0  0  0  0  0  0  0  0  0  0  0  0
   38.6950   26.2500   34.0560 C   0  0  1  0  0  0  0  0  0  0  0  0
   39.7810   21.6900   37.4550 H   0  0  0  0  0  0  0  0  0  0  0  0
   40.3340   22.8750   35.4270 H   0  0  0  0  0  0  0  0  0  0  0  0
   37.3970   24.9830   38.7460 H   0  0  0  0  0  0  0  0  0  0  0  0
   41.6160   25.1220   34.6380 H   0  0  0  0  0  0  0  0  0  0  0  0
   40.6530   24.1060   33.4990 H   0  0  0  0  0  0  0  0  0  0  0  0
   41.7310   26.5710   32.8740 H   0  0  0  0  0  0  0  0  0  0  0  0
   40.3510   25.7820   31.9420 H   0  0  0  0  0  0  0  0  0  0  0  0
   39.4570   27.9680   32.9080 H   0  0  0  0  0  0  0  0  0  0  0  0
   40.2960   27.5640   34.4480 H   0  0  0  0  0  0  0  0  0  0  0  0
   37.1560   25.4310   30.9420 H   0  0  0  0  0  0  0  0  0  0  0  0
   37.5960   25.9940   31.7500 C   0  0  0  0  0  0  0  0  0  0  0  0
   37.5890   27.1890   31.4500 O   0  0  0  0  0  0  0  0  0  0  0  0
   38.1040   25.4740   32.9690 N   0  0  0  0  0  0  0  0  0  0  0  0
   37.9860   24.4140   32.9630 H   0  0  0  0  0  0  0  0  0  0  0  0
   37.6460   26.9550   34.8020 C   0  0  0  0  0  0  0  0  0  0  0  0
   38.2840   27.5200   35.9320 F   0  0  0  0  0  0  0  0  0  0  0  0
   36.6120   26.2270   35.2690 F   0  0  0  0  0  0  0  0  0  0  0  0
   37.3090   28.0860   34.0640 F   0  0  0  0  0  0  0  0  0  0  0  0
  1 12  1  0  0  0  0
  1  6  1  0  0  0  0
  2  1  2  0  0  0  0
  3  2  1  0  0  0  0
  3  4  2  0  0  0  0
  4  5  1  0  0  0  0
  5  6  2  0  0  0  0
  5 14  1  0  0  0  0
  7  3  1  0  0  0  0
  8 15  1  0  0  0  0
  8  7  1  0  0  0  0
  9 10  1  0  0  0  0
  9  8  1  0  0  0  0
 10 11  1  0  0  0  0
 10 20  1  0  0  0  0
 11 24  1  6  0  0  0
 11  7  1  0  0  0  0
 11 26  1  0  0  0  0
 13  2  1  0  0  0  0
 16  8  1  0  0  0  0
 17  9  1  0  0  0  0
 18  9  1  0  0  0  0
 19 10  1  0  0  0  0
 21 22  1  0  0  0  0
 22 24  1  0  0  0  0
 23 22  2  0  0  0  0
 25 24  1  0  0  0  0
 26 28  1  0  0  0  0
 26 27  1  0  0  0  0
 29 26  1  0  0  0  0
M  END
>  <minimizedAffinity>
-4.30346155

$$$$

 OpenBabel03272507253D

 29 30  0  0  1  0  0  0  0  0999 V2000
   37.3420   22.7480   31.2510 C   0  0  0  0  0  0  0  0  0  0  0  0
   37.8520   22.8110   32.5680 C   0  0  0  0  0  0  0  0  0  0  0  0
   37.7290   24.0280   33.2680 C   0  0  0  0  0  0  0  0  0  0  0  0
   37.1320   25.0660   32.6470 N   0  0  0  0  0  0  0  0  0  0  0  0
   36.6510   24.9760   31.3800 C   0  0  0  0  0  0  0  0  0  0  0  0
   36.7580   23.8340   30.6990 N   0  0  0  0  0  0  0  0  0  0  0  0
   38.2270   24.1610   34.5790 N   0  0  0  0  0  0  0  0  0  0  0  0
   38.3240   23.0410   35.5270 C   0  0  0  0  0  0  0  0  0  0  0  0
   38.7540   23.6660   36.8290 C   0  0  0  0  0  0  0  0  0  0  0  0
   38.2410   25.0510   36.6470 C   0  0  0  0  0  0  0  0  0  0  0  0
   38.7330   25.3190   35.2250 C   0  0  1  0  0  0  0  0  0  0  0  0
   37.4930   21.7760   30.8170 H   0  0  0  0  0  0  0  0  0  0  0  0
   38.3320   21.9800   33.0700 H   0  0  0  0  0  0  0  0  0  0  0  0
   36.1800   25.8330   30.9240 H   0  0  0  0  0  0  0  0  0  0  0  0
   37.4200   22.4390   35.5750 H   0  0  0  0  0  0  0  0  0  0  0  0
   39.1800   22.3980   35.1770 H   0  0  0  0  0  0  0  0  0  0  0  0
   38.1410   23.1660   37.6190 H   0  0  0  0  0  0  0  0  0  0  0  0
   39.8330   23.6030   37.0340 H   0  0  0  0  0  0  0  0  0  0  0  0
   38.5620   25.7890   37.3700 H   0  0  0  0  0  0  0  0  0  0  0  0
   37.1420   25.0200   36.5760 H   0  0  0  0  0  0  0  0  0  0  0  0
   42.0130   25.0430   33.8450 H   0  0  0  0  0  0  0  0  0  0  0  0
   40.9430   25.1600   33.9300 C   0  0  0  0  0  0  0  0  0  0  0  0
   40.4700   25.2940   32.8000 O   0  0  0  0  0  0  0  0  0  0  0  0
   40.1810   25.1620   35.1260 N   0  0  0  0  0  0  0  0  0  0  0  0
   40.8430   25.0300   35.9520 H   0  0  0  0  0  0  0  0  0  0  0  0
   38.3290   26.6290   34.6990 C   0  0  0  0  0  0  0  0  0  0  0  0
   36.9430   26.7440   34.9610 F   0  0  0  0  0  0  0  0  0  0  0  0
   38.4900   26.8500   33.3800 F   0  0  0  0  0  0  0  0  0  0  0  0
   38.8640   27.5930   35.5470 F   0  0  0  0  0  0  0  0  0  0  0  0
  1  2  1  0  0  0  0
  2 13  1  0  0  0  0
  2  3  2  0  0  0  0
  3  7  1  0  0  0  0
  4  3  1  0  0  0  0
  5  4  2  0  0  0  0
  6  1  2  0  0  0  0
  6  5  1  0  0  0  0
  7 11  1  0  0  0  0
  7  8  1  0  0  0  0
  8 15  1  0  0  0  0
  8  9  1  0  0  0  0
  9 18  1  0  0  0  0
  9 17  1  0  0  0  0
 10  9  1  0  0  0  0
 10 19  1  0  0  0  0
 11 26  1  6  0  0  0
 11 10  1  0  0  0  0
 12  1  1  0  0  0  0
 14  5  1  0  0  0  0
 16  8  1  0  0  0  0
 20 10  1  0  0  0  0
 21 22  1  0  0  0  0
 22 24  1  0  0  0  0
 23 22  2  0  0  0  0
 24 11  1  0  0  0  0
 24 25  1  0  0  0  0
 26 27  1  0  0  0  0
 26 29  1  0  0  0  0
 28 26  1  0  0  0  0
M  END
>  <minimizedAffinity>
-4.24713373

$$$$

 OpenBabel03272507253D

 29 30  0  0  1  0  0  0  0  0999 V2000
   31.4180   28.5830   33.5520 C   0  0  0  0  0  0  0  0  0  0  0  0
   32.5450   29.4250   33.6960 C   0  0  0  0  0  0  0  0  0  0  0  0
   32.7460   30.0540   34.9400 C   0  0  0  0  0  0  0  0  0  0  0  0
   31.8560   29.8210   35.9270 N   0  0  0  0  0  0  0  0  0  0  0  0
   30.7820   29.0060   35.7600 C   0  0  0  0  0  0  0  0  0  0  0  0
   30.5720   28.4010   34.5890 N   0  0  0  0  0  0  0  0  0  0  0  0
   33.8420   30.9150   35.1460 N   0  0  0  0  0  0  0  0  0  0  0  0
   35.1230   30.7800   34.4360 C   0  0  0  0  0  0  0  0  0  0  0  0
   36.0340   31.7960   35.0750 C   0  0  0  0  0  0  0  0  0  0  0  0
   35.4070   31.9130   36.4200 C   0  0  0  0  0  0  0  0  0  0  0  0
   33.9410   32.0380   36.0070 C   0  0  1  0  0  0  0  0  0  0  0  0
   31.3670   28.1610   32.5640 H   0  0  0  0  0  0  0  0  0  0  0  0
   33.2620   29.6140   32.9060 H   0  0  0  0  0  0  0  0  0  0  0  0
   30.0960   28.8490   36.5780 H   0  0  0  0  0  0  0  0  0  0  0  0
   35.4990   29.7610   34.4170 H   0  0  0  0  0  0  0  0  0  0  0  0
   34.9410   31.1280   33.3790 H   0  0  0  0  0  0  0  0  0  0  0  0
   37.0200   31.2830   35.1910 H   0  0  0  0  0  0  0  0  0  0  0  0
   36.1180   32.7460   34.5280 H   0  0  0  0  0  0  0  0  0  0  0  0
   35.7570   32.7170   37.0530 H   0  0  0  0  0  0  0  0  0  0  0  0
   35.4840   30.9420   36.9370 H   0  0  0  0  0  0  0  0  0  0  0  0
   34.0640   35.3430   34.6650 H   0  0  0  0  0  0  0  0  0  0  0  0
   34.2100   34.4970   35.3180 C   0  0  0  0  0  0  0  0  0  0  0  0
   34.8670   34.8600   36.2950 O   0  0  0  0  0  0  0  0  0  0  0  0
   33.7380   33.1750   35.1130 N   0  0  0  0  0  0  0  0  0  0  0  0
   33.2030   33.1430   34.1900 H   0  0  0  0  0  0  0  0  0  0  0  0
   33.0140   32.1160   37.1430 C   0  0  0  0  0  0  0  0  0  0  0  0
   33.5100   33.1410   37.9820 F   0  0  0  0  0  0  0  0  0  0  0  0
   32.8770   31.0190   37.9150 F   0  0  0  0  0  0  0  0  0  0  0  0
   31.8320   32.6760   36.6690 F   0  0  0  0  0  0  0  0  0  0  0  0
  1  2  2  0  0  0  0
  1  6  1  0  0  0  0
  2  3  1  0  0  0  0
  3  7  1  0  0  0  0
  3  4  2  0  0  0  0
  5  4  1  0  0  0  0
  5 14  1  0  0  0  0
  6  5  2  0  0  0  0
  7 11  1  0  0  0  0
  8  9  1  0  0  0  0
  8  7  1  0  0  0  0
  9 17  1  0  0  0  0
  9 10  1  0  0  0  0
 10 20  1  0  0  0  0
 10 19  1  0  0  0  0
 11 24  1  6  0  0  0
 11 10  1  0  0  0  0
 11 26  1  0  0  0  0
 12  1  1  0  0  0  0
 13  2  1  0  0  0  0
 15  8  1  0  0  0  0
 16  8  1  0  0  0  0
 18  9  1  0  0  0  0
 21 22  1  0  0  0  0
 22 23  2  0  0  0  0
 24 22  1  0  0  0  0
 25 24  1  0  0  0  0
 26 28  1  0  0  0  0
 26 27  1  0  0  0  0
 29 26  1  0  0  0  0
M  END
>  <minimizedAffinity>
-4.19258499

$$$$

 OpenBabel03272507253D

 29 30  0  0  1  0  0  0  0  0999 V2000
   36.4270   24.3020   31.0360 C   0  0  0  0  0  0  0  0  0  0  0  0
   36.6210   24.9850   32.2590 C   0  0  0  0  0  0  0  0  0  0  0  0
   37.9390   25.1290   32.7350 C   0  0  0  0  0  0  0  0  0  0  0  0
   38.9450   24.6100   32.0010 N   0  0  0  0  0  0  0  0  0  0  0  0
   38.7290   23.9590   30.8280 C   0  0  0  0  0  0  0  0  0  0  0  0
   37.4880   23.8100   30.3600 N   0  0  0  0  0  0  0  0  0  0  0  0
   38.2010   25.7880   33.9520 N   0  0  0  0  0  0  0  0  0  0  0  0
   37.3490   26.8570   34.4940 C   0  0  0  0  0  0  0  0  0  0  0  0
   38.0830   27.3650   35.7090 C   0  0  0  0  0  0  0  0  0  0  0  0
   39.4810   27.0010   35.3510 C   0  0  0  0  0  0  0  0  0  0  0  0
   39.2560   25.5670   34.8750 C   0  0  1  0  0  0  0  0  0  0  0  0
   35.3850   24.2520   30.7750 H   0  0  0  0  0  0  0  0  0  0  0  0
   35.8160   25.4030   32.8510 H   0  0  0  0  0  0  0  0  0  0  0  0
   39.5650   23.5610   30.2740 H   0  0  0  0  0  0  0  0  0  0  0  0
   37.0860   27.6120   33.7580 H   0  0  0  0  0  0  0  0  0  0  0  0
   36.4090   26.3600   34.8680 H   0  0  0  0  0  0  0  0  0  0  0  0
   37.9900   28.4790   35.6700 H   0  0  0  0  0  0  0  0  0  0  0  0
   37.7330   26.9480   36.6640 H   0  0  0  0  0  0  0  0  0  0  0  0
   40.2240   27.0950   36.1320 H   0  0  0  0  0  0  0  0  0  0  0  0
   39.7800   27.5650   34.4520 H   0  0  0  0  0  0  0  0  0  0  0  0
   37.6490   22.8360   36.5180 H   0  0  0  0  0  0  0  0  0  0  0  0
   38.1100   23.4450   35.7560 C   0  0  0  0  0  0  0  0  0  0  0  0
   38.1100   22.8180   34.6960 O   0  0  0  0  0  0  0  0  0  0  0  0
   38.6370   24.7530   35.9170 N   0  0  0  0  0  0  0  0  0  0  0  0
   38.5060   25.0500   36.9340 H   0  0  0  0  0  0  0  0  0  0  0  0
   40.4740   24.9130   34.3790 C   0  0  0  0  0  0  0  0  0  0  0  0
   41.0530   25.8160   33.4560 F   0  0  0  0  0  0  0  0  0  0  0  0
   40.3350   23.7390   33.7330 F   0  0  0  0  0  0  0  0  0  0  0  0
   41.3990   24.9290   35.4190 F   0  0  0  0  0  0  0  0  0  0  0  0
  1  2  1  0  0  0  0
  2  3  2  0  0  0  0
  2 13  1  0  0  0  0
  3  7  1  0  0  0  0
  4  3  1  0  0  0  0
  5  4  2  0  0  0  0
  6  5  1  0  0  0  0
  6  1  2  0  0  0  0
  7  8  1  0  0  0  0
  7 11  1  0  0  0  0
  8 16  1  0  0  0  0
  8  9  1  0  0  0  0
  9 18  1  0  0  0  0
 10  9  1  0  0  0  0
 10 19  1  0  0  0  0
 11 26  1  6  0  0  0
 11 10  1  0  0  0  0
 11 24  1  0  0  0  0
 12  1  1  0  0  0  0
 14  5  1  0  0  0  0
 15  8  1  0  0  0  0
 17  9  1  0  0  0  0
 20 10  1  0  0  0  0
 22 24  1  0  0  0  0
 22 21  1  0  0  0  0
 23 22  2  0  0  0  0
 24 25  1  0  0  0  0
 26 29  1  0  0  0  0
 27 26  1  0  0  0  0
 28 26  1  0  0  0  0
M  END
>  <minimizedAffinity>
-4.16832304

$$$$
