
 OpenBabel03272507113D

 23 24  0  0  0  0  0  0  0  0999 V2000
   38.5820   24.5510   36.4930 C   0  0  0  0  0  0  0  0  0  0  0  0
   38.0580   24.6430   37.7460 C   0  0  0  0  0  0  0  0  0  0  0  0
   38.5750   23.5980   38.5040 C   0  0  0  0  0  0  0  0  0  0  0  0
   39.4170   22.9030   37.6460 C   0  0  0  0  0  0  0  0  0  0  0  0
   39.3850   23.5050   36.4740 O   0  0  0  0  0  0  0  0  0  0  0  0
   37.3680   25.3090   38.2480 H   0  0  0  0  0  0  0  0  0  0  0  0
   38.5140   23.2010   39.5080 H   0  0  0  0  0  0  0  0  0  0  0  0
   42.0950   20.7090   37.3880 H   0  0  0  0  0  0  0  0  0  0  0  0
   41.6460   21.6950   37.2770 C   0  0  0  0  0  0  0  0  0  0  0  0
   42.2550   22.7120   36.8380 O   0  0  0  0  0  0  0  0  0  0  0  0
   40.2760   21.7590   37.6730 N   0  0  0  0  0  0  0  0  0  0  0  0
   39.7310   20.9480   38.0410 H   0  0  0  0  0  0  0  0  0  0  0  0
   38.2530   25.4880   35.4410 C   0  0  0  0  0  0  0  0  0  0  0  0
   37.1030   25.9810   35.4030 O   0  0  0  0  0  0  0  0  0  0  0  0
   39.2800   25.8070   34.4820 C   0  0  0  0  0  0  0  0  0  0  0  0
   40.2700   26.6890   34.8770 C   0  0  0  0  0  0  0  0  0  0  0  0
   41.2760   27.0120   33.9610 C   0  0  0  0  0  0  0  0  0  0  0  0
   41.2310   26.4390   32.7250 N   0  0  0  0  0  0  0  0  0  0  0  0
   40.2570   25.5820   32.3630 C   0  0  0  0  0  0  0  0  0  0  0  0
   39.2970   25.2740   33.2360 N   0  0  0  0  0  0  0  0  0  0  0  0
   40.2850   27.1300   35.8620 H   0  0  0  0  0  0  0  0  0  0  0  0
   42.0780   27.6940   34.2090 H   0  0  0  0  0  0  0  0  0  0  0  0
   40.2030   25.1180   31.3890 H   0  0  0  0  0  0  0  0  0  0  0  0
  1  2  2  0  0  0  0
  2  6  1  0  0  0  0
  2  3  1  0  0  0  0
  3  7  1  0  0  0  0
  4 11  1  0  0  0  0
  4  3  2  0  0  0  0
  5  1  1  0  0  0  0
  5  4  1  0  0  0  0
  9  8  1  0  0  0  0
  9 11  1  0  0  0  0
 10  9  2  0  0  0  0
 11 12  1  0  0  0  0
 13  1  1  0  0  0  0
 14 13  2  0  0  0  0
 15 16  1  0  0  0  0
 15 13  1  0  0  0  0
 16 21  1  0  0  0  0
 17 22  1  0  0  0  0
 17 16  2  0  0  0  0
 18 17  1  0  0  0  0
 19 18  2  0  0  0  0
 19 20  1  0  0  0  0
 20 15  2  0  0  0  0
 23 19  1  0  0  0  0
M  END
>  <minimizedAffinity>
-4.453053

$$$$

 OpenBabel03272507113D

 23 24  0  0  0  0  0  0  0  0999 V2000
   38.1750   27.2240   33.6950 C   0  0  0  0  0  0  0  0  0  0  0  0
   37.8180   27.3230   35.0040 C   0  0  0  0  0  0  0  0  0  0  0  0
   38.9590   27.1280   35.7750 C   0  0  0  0  0  0  0  0  0  0  0  0
   39.9850   26.9150   34.8650 C   0  0  0  0  0  0  0  0  0  0  0  0
   39.4700   26.9810   33.6530 O   0  0  0  0  0  0  0  0  0  0  0  0
   36.8970   27.5070   35.5420 H   0  0  0  0  0  0  0  0  0  0  0  0
   39.2550   27.0990   36.8150 H   0  0  0  0  0  0  0  0  0  0  0  0
   43.1230   25.4300   34.8920 H   0  0  0  0  0  0  0  0  0  0  0  0
   42.0350   25.3780   34.8930 C   0  0  0  0  0  0  0  0  0  0  0  0
   41.3710   24.3030   34.9130 O   0  0  0  0  0  0  0  0  0  0  0  0
   41.3920   26.6520   34.8700 N   0  0  0  0  0  0  0  0  0  0  0  0
   41.8970   27.5660   34.8530 H   0  0  0  0  0  0  0  0  0  0  0  0
   37.2230   27.3750   32.6150 C   0  0  0  0  0  0  0  0  0  0  0  0
   36.9730   28.5210   32.1800 O   0  0  0  0  0  0  0  0  0  0  0  0
   36.6080   26.1800   32.0930 C   0  0  0  0  0  0  0  0  0  0  0  0
   35.4950   26.3360   31.2850 C   0  0  0  0  0  0  0  0  0  0  0  0
   34.8840   25.1910   30.7690 C   0  0  0  0  0  0  0  0  0  0  0  0
   35.4160   23.9760   31.0860 N   0  0  0  0  0  0  0  0  0  0  0  0
   36.5000   23.8490   31.8730 C   0  0  0  0  0  0  0  0  0  0  0  0
   37.0840   24.9410   32.3670 N   0  0  0  0  0  0  0  0  0  0  0  0
   35.0920   27.3100   31.0480 H   0  0  0  0  0  0  0  0  0  0  0  0
   34.0110   25.2460   30.1310 H   0  0  0  0  0  0  0  0  0  0  0  0
   36.9380   22.8970   32.1370 H   0  0  0  0  0  0  0  0  0  0  0  0
  1  2  2  0  0  0  0
  2  6  1  0  0  0  0
  2  3  1  0  0  0  0
  3  7  1  0  0  0  0
  4 11  1  0  0  0  0
  4  3  2  0  0  0  0
  5  1  1  0  0  0  0
  5  4  1  0  0  0  0
  8  9  1  0  0  0  0
  9 10  2  0  0  0  0
 11  9  1  0  0  0  0
 12 11  1  0  0  0  0
 13  1  1  0  0  0  0
 14 13  2  0  0  0  0
 15 20  1  0  0  0  0
 15 13  1  0  0  0  0
 16 15  2  0  0  0  0
 17 18  2  0  0  0  0
 17 16  1  0  0  0  0
 18 19  1  0  0  0  0
 19 23  1  0  0  0  0
 19 20  2  0  0  0  0
 21 16  1  0  0  0  0
 22 17  1  0  0  0  0
M  END
>  <minimizedAffinity>
-4.44278097

$$$$

 OpenBabel03272507113D

 23 24  0  0  0  0  0  0  0  0999 V2000
   38.5940   25.0380   36.0930 C   0  0  0  0  0  0  0  0  0  0  0  0
   37.8270   24.8960   37.2090 C   0  0  0  0  0  0  0  0  0  0  0  0
   38.0840   23.6390   37.7470 C   0  0  0  0  0  0  0  0  0  0  0  0
   39.0260   23.0640   36.9050 C   0  0  0  0  0  0  0  0  0  0  0  0
   39.2920   23.9300   35.9460 O   0  0  0  0  0  0  0  0  0  0  0  0
   37.1060   25.5080   37.7340 H   0  0  0  0  0  0  0  0  0  0  0  0
   37.7800   23.0240   38.5830 H   0  0  0  0  0  0  0  0  0  0  0  0
   41.5070   20.6410   36.7470 H   0  0  0  0  0  0  0  0  0  0  0  0
   41.1760   21.6720   36.8690 C   0  0  0  0  0  0  0  0  0  0  0  0
   41.9500   22.6520   37.0660 O   0  0  0  0  0  0  0  0  0  0  0  0
   39.7610   21.8430   36.7860 N   0  0  0  0  0  0  0  0  0  0  0  0
   39.0830   21.0660   36.6250 H   0  0  0  0  0  0  0  0  0  0  0  0
   38.5720   26.2370   35.2820 C   0  0  0  0  0  0  0  0  0  0  0  0
   39.2500   27.2260   35.6400 O   0  0  0  0  0  0  0  0  0  0  0  0
   37.7600   26.2240   34.0910 C   0  0  0  0  0  0  0  0  0  0  0  0
   37.2050   27.4250   33.6850 C   0  0  0  0  0  0  0  0  0  0  0  0
   36.4140   27.4350   32.5320 C   0  0  0  0  0  0  0  0  0  0  0  0
   36.2300   26.2590   31.8660 N   0  0  0  0  0  0  0  0  0  0  0  0
   36.7820   25.1030   32.2800 C   0  0  0  0  0  0  0  0  0  0  0  0
   37.5360   25.0930   33.3790 N   0  0  0  0  0  0  0  0  0  0  0  0
   37.3650   28.3430   34.2300 H   0  0  0  0  0  0  0  0  0  0  0  0
   35.9530   28.3410   32.1620 H   0  0  0  0  0  0  0  0  0  0  0  0
   36.6490   24.1620   31.7670 H   0  0  0  0  0  0  0  0  0  0  0  0
  1  2  2  0  0  0  0
  2  6  1  0  0  0  0
  2  3  1  0  0  0  0
  3  7  1  0  0  0  0
  4  3  2  0  0  0  0
  5  1  1  0  0  0  0
  5  4  1  0  0  0  0
  8  9  1  0  0  0  0
  9 10  2  0  0  0  0
 11  9  1  0  0  0  0
 11  4  1  0  0  0  0
 12 11  1  0  0  0  0
 13 14  2  0  0  0  0
 13  1  1  0  0  0  0
 15 13  1  0  0  0  0
 16 15  1  0  0  0  0
 16 21  1  0  0  0  0
 17 16  2  0  0  0  0
 18 19  2  0  0  0  0
 18 17  1  0  0  0  0
 19 20  1  0  0  0  0
 20 15  2  0  0  0  0
 22 17  1  0  0  0  0
 23 19  1  0  0  0  0
M  END
>  <minimizedAffinity>
-4.41182947

$$$$

 OpenBabel03272507113D

 23 24  0  0  0  0  0  0  0  0999 V2000
   38.4300   24.8280   34.7080 C   0  0  0  0  0  0  0  0  0  0  0  0
   37.8430   25.4190   35.7840 C   0  0  0  0  0  0  0  0  0  0  0  0
   38.0180   24.5830   36.8810 C   0  0  0  0  0  0  0  0  0  0  0  0
   38.7290   23.4910   36.4010 C   0  0  0  0  0  0  0  0  0  0  0  0
   38.9460   23.6850   35.1140 O   0  0  0  0  0  0  0  0  0  0  0  0
   37.3010   26.3400   35.9600 H   0  0  0  0  0  0  0  0  0  0  0  0
   37.7760   24.5450   37.9340 H   0  0  0  0  0  0  0  0  0  0  0  0
   40.8030   20.9710   37.5830 H   0  0  0  0  0  0  0  0  0  0  0  0
   40.6290   21.9880   37.2330 C   0  0  0  0  0  0  0  0  0  0  0  0
   41.5270   22.8700   37.1280 O   0  0  0  0  0  0  0  0  0  0  0  0
   39.2710   22.2600   36.8880 N   0  0  0  0  0  0  0  0  0  0  0  0
   38.4950   21.5640   36.9570 H   0  0  0  0  0  0  0  0  0  0  0  0
   38.4330   25.4330   33.3930 C   0  0  0  0  0  0  0  0  0  0  0  0
   39.4190   26.1180   33.0400 O   0  0  0  0  0  0  0  0  0  0  0  0
   37.2850   25.2090   32.5510 C   0  0  0  0  0  0  0  0  0  0  0  0
   36.9520   23.8980   32.2610 C   0  0  0  0  0  0  0  0  0  0  0  0
   35.8420   23.6590   31.4460 C   0  0  0  0  0  0  0  0  0  0  0  0
   35.1430   24.7320   30.9770 N   0  0  0  0  0  0  0  0  0  0  0  0
   35.4870   25.9990   31.2730 C   0  0  0  0  0  0  0  0  0  0  0  0
   36.5450   26.2280   32.0500 N   0  0  0  0  0  0  0  0  0  0  0  0
   37.5210   23.0640   32.6450 H   0  0  0  0  0  0  0  0  0  0  0  0
   35.5290   22.6570   31.1840 H   0  0  0  0  0  0  0  0  0  0  0  0
   34.9470   26.8630   30.9110 H   0  0  0  0  0  0  0  0  0  0  0  0
  1  5  1  0  0  0  0
  1  2  2  0  0  0  0
  2  6  1  0  0  0  0
  2  3  1  0  0  0  0
  3  7  1  0  0  0  0
  4  3  2  0  0  0  0
  4 11  1  0  0  0  0
  5  4  1  0  0  0  0
  9  8  1  0  0  0  0
 10  9  2  0  0  0  0
 11 12  1  0  0  0  0
 11  9  1  0  0  0  0
 13  1  1  0  0  0  0
 14 13  2  0  0  0  0
 15 13  1  0  0  0  0
 16 15  1  0  0  0  0
 16 21  1  0  0  0  0
 17 16  2  0  0  0  0
 18 19  2  0  0  0  0
 18 17  1  0  0  0  0
 19 20  1  0  0  0  0
 20 15  2  0  0  0  0
 22 17  1  0  0  0  0
 23 19  1  0  0  0  0
M  END
>  <minimizedAffinity>
-4.30305195

$$$$

 OpenBabel03272507113D

 23 24  0  0  0  0  0  0  0  0999 V2000
   38.0040   25.4430   35.9730 C   0  0  0  0  0  0  0  0  0  0  0  0
   38.4210   26.6630   36.4110 C   0  0  0  0  0  0  0  0  0  0  0  0
   38.1040   27.6000   35.4330 C   0  0  0  0  0  0  0  0  0  0  0  0
   37.4890   26.8780   34.4190 C   0  0  0  0  0  0  0  0  0  0  0  0
   37.4550   25.6120   34.7870 O   0  0  0  0  0  0  0  0  0  0  0  0
   38.9150   27.0380   37.2970 H   0  0  0  0  0  0  0  0  0  0  0  0
   38.1930   28.6620   35.2510 H   0  0  0  0  0  0  0  0  0  0  0  0
   36.9200   27.5640   31.0630 H   0  0  0  0  0  0  0  0  0  0  0  0
   37.5810   27.4300   31.9190 C   0  0  0  0  0  0  0  0  0  0  0  0
   38.8400   27.5420   31.8730 O   0  0  0  0  0  0  0  0  0  0  0  0
   36.9040   27.1110   33.1340 N   0  0  0  0  0  0  0  0  0  0  0  0
   35.8690   27.0090   33.2210 H   0  0  0  0  0  0  0  0  0  0  0  0
   38.1790   24.2360   36.7520 C   0  0  0  0  0  0  0  0  0  0  0  0
   37.3150   23.9300   37.6040 O   0  0  0  0  0  0  0  0  0  0  0  0
   39.3540   23.4410   36.4980 C   0  0  0  0  0  0  0  0  0  0  0  0
   39.9080   22.7610   37.5690 C   0  0  0  0  0  0  0  0  0  0  0  0
   41.0480   21.9840   37.3450 C   0  0  0  0  0  0  0  0  0  0  0  0
   41.5570   21.9360   36.0810 N   0  0  0  0  0  0  0  0  0  0  0  0
   41.0000   22.6050   35.0540 C   0  0  0  0  0  0  0  0  0  0  0  0
   39.9130   23.3460   35.2670 N   0  0  0  0  0  0  0  0  0  0  0  0
   39.4860   22.8150   38.5620 H   0  0  0  0  0  0  0  0  0  0  0  0
   41.5280   21.4280   38.1400 H   0  0  0  0  0  0  0  0  0  0  0  0
   41.3880   22.5800   34.0460 H   0  0  0  0  0  0  0  0  0  0  0  0
  1  2  2  0  0  0  0
  1 13  1  0  0  0  0
  2  6  1  0  0  0  0
  3  2  1  0  0  0  0
  4  5  1  0  0  0  0
  4  3  2  0  0  0  0
  5  1  1  0  0  0  0
  7  3  1  0  0  0  0
  8  9  1  0  0  0  0
  9 11  1  0  0  0  0
 10  9  2  0  0  0  0
 11 12  1  0  0  0  0
 11  4  1  0  0  0  0
 13 14  2  0  0  0  0
 15 13  1  0  0  0  0
 15 16  1  0  0  0  0
 16 21  1  0  0  0  0
 17 16  2  0  0  0  0
 17 22  1  0  0  0  0
 18 17  1  0  0  0  0
 19 20  1  0  0  0  0
 19 18  2  0  0  0  0
 20 15  2  0  0  0  0
 23 19  1  0  0  0  0
M  END
>  <minimizedAffinity>
-4.28364086

$$$$

 OpenBabel03272507113D

 23 24  0  0  0  0  0  0  0  0999 V2000
   38.0470   26.6220   33.7550 C   0  0  0  0  0  0  0  0  0  0  0  0
   38.8600   27.1450   32.7970 C   0  0  0  0  0  0  0  0  0  0  0  0
   38.1160   27.2750   31.6280 C   0  0  0  0  0  0  0  0  0  0  0  0
   36.8470   26.8110   31.9480 C   0  0  0  0  0  0  0  0  0  0  0  0
   36.8600   26.4380   33.2130 O   0  0  0  0  0  0  0  0  0  0  0  0
   39.8950   27.4600   32.7480 H   0  0  0  0  0  0  0  0  0  0  0  0
   38.2370   27.6140   30.6090 H   0  0  0  0  0  0  0  0  0  0  0  0
   34.0170   25.5140   30.4110 H   0  0  0  0  0  0  0  0  0  0  0  0
   35.0020   25.4030   30.8640 C   0  0  0  0  0  0  0  0  0  0  0  0
   35.6080   24.3010   30.9920 O   0  0  0  0  0  0  0  0  0  0  0  0
   35.5770   26.6290   31.3160 N   0  0  0  0  0  0  0  0  0  0  0  0
   35.1150   27.5610   31.2310 H   0  0  0  0  0  0  0  0  0  0  0  0
   38.5040   26.3550   35.1020 C   0  0  0  0  0  0  0  0  0  0  0  0
   39.0720   27.2660   35.7450 O   0  0  0  0  0  0  0  0  0  0  0  0
   38.2780   25.0350   35.6360 C   0  0  0  0  0  0  0  0  0  0  0  0
   37.9980   24.9330   36.9870 C   0  0  0  0  0  0  0  0  0  0  0  0
   37.7750   23.6630   37.5250 C   0  0  0  0  0  0  0  0  0  0  0  0
   37.8460   22.5870   36.6900 N   0  0  0  0  0  0  0  0  0  0  0  0
   38.1200   22.7110   35.3780 C   0  0  0  0  0  0  0  0  0  0  0  0
   38.3320   23.9220   34.8640 N   0  0  0  0  0  0  0  0  0  0  0  0
   37.9470   25.8010   37.6290 H   0  0  0  0  0  0  0  0  0  0  0  0
   37.5500   23.5160   38.5740 H   0  0  0  0  0  0  0  0  0  0  0  0
   38.1800   21.8720   34.7000 H   0  0  0  0  0  0  0  0  0  0  0  0
  1 13  1  0  0  0  0
  2  1  2  0  0  0  0
  3  4  2  0  0  0  0
  3  2  1  0  0  0  0
  4  5  1  0  0  0  0
  5  1  1  0  0  0  0
  6  2  1  0  0  0  0
  7  3  1  0  0  0  0
  8  9  1  0  0  0  0
  9 10  2  0  0  0  0
  9 11  1  0  0  0  0
 11  4  1  0  0  0  0
 12 11  1  0  0  0  0
 13 15  1  0  0  0  0
 13 14  2  0  0  0  0
 15 16  1  0  0  0  0
 16 17  2  0  0  0  0
 16 21  1  0  0  0  0
 17 22  1  0  0  0  0
 18 17  1  0  0  0  0
 19 18  2  0  0  0  0
 20 19  1  0  0  0  0
 20 15  2  0  0  0  0
 23 19  1  0  0  0  0
M  END
>  <minimizedAffinity>
-4.25838852

$$$$

 OpenBabel03272507113D

 23 24  0  0  0  0  0  0  0  0999 V2000
   37.1930   27.2650   34.5710 C   0  0  0  0  0  0  0  0  0  0  0  0
   38.0430   27.6780   35.5510 C   0  0  0  0  0  0  0  0  0  0  0  0
   38.6210   26.5480   36.1200 C   0  0  0  0  0  0  0  0  0  0  0  0
   38.0760   25.4710   35.4340 C   0  0  0  0  0  0  0  0  0  0  0  0
   37.2400   25.9490   34.5320 O   0  0  0  0  0  0  0  0  0  0  0  0
   38.3470   28.6330   35.9580 H   0  0  0  0  0  0  0  0  0  0  0  0
   39.3300   26.2870   36.8940 H   0  0  0  0  0  0  0  0  0  0  0  0
   37.9750   22.1000   36.2540 H   0  0  0  0  0  0  0  0  0  0  0  0
   37.8280   23.1520   36.4940 C   0  0  0  0  0  0  0  0  0  0  0  0
   37.4040   23.5790   37.6050 O   0  0  0  0  0  0  0  0  0  0  0  0
   38.1600   24.0430   35.4290 N   0  0  0  0  0  0  0  0  0  0  0  0
   38.5140   23.7380   34.4950 H   0  0  0  0  0  0  0  0  0  0  0  0
   36.4210   28.1910   33.7710 C   0  0  0  0  0  0  0  0  0  0  0  0
   35.4570   28.7930   34.2960 O   0  0  0  0  0  0  0  0  0  0  0  0
   36.8090   28.3720   32.3940 C   0  0  0  0  0  0  0  0  0  0  0  0
   37.9260   27.6860   31.9510 C   0  0  0  0  0  0  0  0  0  0  0  0
   38.3200   27.8480   30.6200 C   0  0  0  0  0  0  0  0  0  0  0  0
   37.5820   28.6730   29.8240 N   0  0  0  0  0  0  0  0  0  0  0  0
   36.4970   29.3290   30.2780 C   0  0  0  0  0  0  0  0  0  0  0  0
   36.1210   29.1760   31.5480 N   0  0  0  0  0  0  0  0  0  0  0  0
   38.4960   27.0380   32.6010 H   0  0  0  0  0  0  0  0  0  0  0  0
   39.1840   27.3390   30.2120 H   0  0  0  0  0  0  0  0  0  0  0  0
   35.8980   29.9870   29.6640 H   0  0  0  0  0  0  0  0  0  0  0  0
  1  2  2  0  0  0  0
  2  6  1  0  0  0  0
  2  3  1  0  0  0  0
  3  7  1  0  0  0  0
  4  3  2  0  0  0  0
  5  1  1  0  0  0  0
  5  4  1  0  0  0  0
  8  9  1  0  0  0  0
  9 10  2  0  0  0  0
 11  4  1  0  0  0  0
 11  9  1  0  0  0  0
 12 11  1  0  0  0  0
 13 14  2  0  0  0  0
 13  1  1  0  0  0  0
 15 13  1  0  0  0  0
 16 15  1  0  0  0  0
 16 21  1  0  0  0  0
 17 16  2  0  0  0  0
 18 19  2  0  0  0  0
 18 17  1  0  0  0  0
 19 20  1  0  0  0  0
 20 15  2  0  0  0  0
 22 17  1  0  0  0  0
 23 19  1  0  0  0  0
M  END
>  <minimizedAffinity>
-4.16313124

$$$$

 OpenBabel03272507113D

 23 24  0  0  0  0  0  0  0  0999 V2000
   38.4960   24.2560   34.3850 C   0  0  0  0  0  0  0  0  0  0  0  0
   39.8480   24.4050   34.3990 C   0  0  0  0  0  0  0  0  0  0  0  0
   40.3250   23.8760   35.5940 C   0  0  0  0  0  0  0  0  0  0  0  0
   39.2010   23.4150   36.2660 C   0  0  0  0  0  0  0  0  0  0  0  0
   38.1490   23.6630   35.5110 O   0  0  0  0  0  0  0  0  0  0  0  0
   40.5870   24.8220   33.7260 H   0  0  0  0  0  0  0  0  0  0  0  0
   41.2620   23.7300   36.1130 H   0  0  0  0  0  0  0  0  0  0  0  0
   38.1440   22.6760   39.4890 H   0  0  0  0  0  0  0  0  0  0  0  0
   38.3050   23.3710   38.6660 C   0  0  0  0  0  0  0  0  0  0  0  0
   38.0260   24.6030   38.7060 O   0  0  0  0  0  0  0  0  0  0  0  0
   38.8730   22.7720   37.5010 N   0  0  0  0  0  0  0  0  0  0  0  0
   39.1210   21.7610   37.4210 H   0  0  0  0  0  0  0  0  0  0  0  0
   37.6750   24.7020   33.2800 C   0  0  0  0  0  0  0  0  0  0  0  0
   37.4490   23.9160   32.3330 O   0  0  0  0  0  0  0  0  0  0  0  0
   37.1560   26.0460   33.3310 C   0  0  0  0  0  0  0  0  0  0  0  0
   36.7080   26.6020   32.1460 C   0  0  0  0  0  0  0  0  0  0  0  0
   36.2010   27.9040   32.1740 C   0  0  0  0  0  0  0  0  0  0  0  0
   36.1740   28.5610   33.3690 N   0  0  0  0  0  0  0  0  0  0  0  0
   36.6160   27.9980   34.5090 C   0  0  0  0  0  0  0  0  0  0  0  0
   37.1000   26.7560   34.4840 N   0  0  0  0  0  0  0  0  0  0  0  0
   36.7390   26.0620   31.2110 H   0  0  0  0  0  0  0  0  0  0  0  0
   35.8340   28.3950   31.2820 H   0  0  0  0  0  0  0  0  0  0  0  0
   36.6030   28.5010   35.4660 H   0  0  0  0  0  0  0  0  0  0  0  0
  1  2  2  0  0  0  0
  1  5  1  0  0  0  0
  2  3  1  0  0  0  0
  3  7  1  0  0  0  0
  3  4  2  0  0  0  0
  4 11  1  0  0  0  0
  5  4  1  0  0  0  0
  6  2  1  0  0  0  0
  9 10  2  0  0  0  0
  9  8  1  0  0  0  0
 11  9  1  0  0  0  0
 12 11  1  0  0  0  0
 13 15  1  0  0  0  0
 13  1  1  0  0  0  0
 14 13  2  0  0  0  0
 15 20  1  0  0  0  0
 16 17  1  0  0  0  0
 16 15  2  0  0  0  0
 17 18  2  0  0  0  0
 18 19  1  0  0  0  0
 19 23  1  0  0  0  0
 20 19  2  0  0  0  0
 21 16  1  0  0  0  0
 22 17  1  0  0  0  0
M  END
>  <minimizedAffinity>
-4.15420437

$$$$

 OpenBabel03272507113D

 23 24  0  0  0  0  0  0  0  0999 V2000
   38.1760   25.1470   34.0840 C   0  0  0  0  0  0  0  0  0  0  0  0
   39.3060   25.8700   33.8580 C   0  0  0  0  0  0  0  0  0  0  0  0
   38.9280   27.1120   33.3580 C   0  0  0  0  0  0  0  0  0  0  0  0
   37.5410   27.0790   33.3060 C   0  0  0  0  0  0  0  0  0  0  0  0
   37.1480   25.8990   33.7440 O   0  0  0  0  0  0  0  0  0  0  0  0
   40.3690   25.6990   33.9740 H   0  0  0  0  0  0  0  0  0  0  0  0
   39.3780   28.0360   33.0230 H   0  0  0  0  0  0  0  0  0  0  0  0
   35.0900   28.8190   31.5690 H   0  0  0  0  0  0  0  0  0  0  0  0
   35.9180   28.1130   31.6140 C   0  0  0  0  0  0  0  0  0  0  0  0
   36.3830   27.4930   30.6160 O   0  0  0  0  0  0  0  0  0  0  0  0
   36.4580   27.9320   32.9230 N   0  0  0  0  0  0  0  0  0  0  0  0
   36.1070   28.4210   33.7770 H   0  0  0  0  0  0  0  0  0  0  0  0
   38.2060   23.7980   34.6080 C   0  0  0  0  0  0  0  0  0  0  0  0
   37.9670   22.8400   33.8390 O   0  0  0  0  0  0  0  0  0  0  0  0
   38.5160   23.6300   36.0050 C   0  0  0  0  0  0  0  0  0  0  0  0
   37.6620   24.2160   36.9230 C   0  0  0  0  0  0  0  0  0  0  0  0
   37.9440   24.0650   38.2840 C   0  0  0  0  0  0  0  0  0  0  0  0
   39.0480   23.3460   38.6380 N   0  0  0  0  0  0  0  0  0  0  0  0
   39.8630   22.7840   37.7260 C   0  0  0  0  0  0  0  0  0  0  0  0
   39.5950   22.9280   36.4280 N   0  0  0  0  0  0  0  0  0  0  0  0
   36.7940   24.7810   36.6180 H   0  0  0  0  0  0  0  0  0  0  0  0
   37.3150   24.4980   39.0510 H   0  0  0  0  0  0  0  0  0  0  0  0
   40.7420   22.2110   37.9860 H   0  0  0  0  0  0  0  0  0  0  0  0
  1 13  1  0  0  0  0
  2  6  1  0  0  0  0
  2  1  2  0  0  0  0
  3  2  1  0  0  0  0
  4  3  2  0  0  0  0
  4  5  1  0  0  0  0
  5  1  1  0  0  0  0
  7  3  1  0  0  0  0
  8  9  1  0  0  0  0
  9 11  1  0  0  0  0
 10  9  2  0  0  0  0
 11  4  1  0  0  0  0
 11 12  1  0  0  0  0
 13 15  1  0  0  0  0
 14 13  2  0  0  0  0
 15 20  2  0  0  0  0
 15 16  1  0  0  0  0
 16 17  2  0  0  0  0
 17 18  1  0  0  0  0
 17 22  1  0  0  0  0
 19 23  1  0  0  0  0
 19 18  2  0  0  0  0
 20 19  1  0  0  0  0
 21 16  1  0  0  0  0
M  END
>  <minimizedAffinity>
-4.14026308

$$$$
