
 OpenBabel03272507223D

 39 42  0  0  1  0  0  0  0  0999 V2000
   38.1800   24.3340   35.3290 C   0  0  0  0  0  0  0  0  0  0  0  0
   38.7250   23.5040   34.3760 C   0  0  0  0  0  0  0  0  0  0  0  0
   38.6380   23.9690   33.0580 C   0  0  0  0  0  0  0  0  0  0  0  0
   38.0470   25.1670   32.7840 N   0  0  0  0  0  0  0  0  0  0  0  0
   37.5200   25.9590   33.7470 C   0  0  0  0  0  0  0  0  0  0  0  0
   37.5960   25.5250   35.0330 N   0  0  0  0  0  0  0  0  0  0  0  0
   39.1700   22.5790   34.6720 H   0  0  0  0  0  0  0  0  0  0  0  0
   39.0490   23.3530   32.2850 H   0  0  0  0  0  0  0  0  0  0  0  0
   36.5100   28.0420   34.4920 C   0  0  0  0  0  0  0  0  0  0  0  0
   36.8880   27.2410   33.4350 C   0  0  0  0  0  0  0  0  0  0  0  0
   36.6570   27.6640   32.1340 C   0  0  0  0  0  0  0  0  0  0  0  0
   36.0540   28.8710   31.8350 C   0  0  0  0  0  0  0  0  0  0  0  0
   35.7240   29.5040   30.6930 N   0  0  0  0  0  0  0  0  0  0  0  0
   35.1570   30.6680   31.0670 C   0  0  0  0  0  0  0  0  0  0  0  0
   35.1300   30.7660   32.4040 N   0  0  0  0  0  0  0  0  0  0  0  0
   35.6880   29.6490   32.9120 C   0  0  0  0  0  0  0  0  0  0  0  0
   35.9030   29.2610   34.2320 C   0  0  0  0  0  0  0  0  0  0  0  0
   36.6440   27.8090   35.5330 H   0  0  0  0  0  0  0  0  0  0  0  0
   36.9570   27.0280   31.3110 H   0  0  0  0  0  0  0  0  0  0  0  0
   35.8960   29.1230   29.7300 H   0  0  0  0  0  0  0  0  0  0  0  0
   34.7750   31.4200   30.3900 H   0  0  0  0  0  0  0  0  0  0  0  0
   35.5850   29.9340   35.0170 H   0  0  0  0  0  0  0  0  0  0  0  0
   38.2460   23.8650   36.7660 C   0  0  1  0  0  0  0  0  0  0  0  0
   37.3890   22.8100   37.2480 C   0  0  2  0  0  0  0  0  0  0  0  0
   38.8520   22.4710   36.8820 C   0  0  2  0  0  0  0  0  0  0  0  0
   38.5700   24.6720   37.4620 H   0  0  0  0  0  0  0  0  0  0  0  0
   37.4090   22.5250   38.3590 H   0  0  0  0  0  0  0  0  0  0  0  0
   38.9440   21.8590   35.9870 H   0  0  0  0  0  0  0  0  0  0  0  0
   42.0050   21.8390   38.2390 H   0  0  0  0  0  0  0  0  0  0  0  0
   41.1820   21.9650   37.5510 C   0  0  0  0  0  0  0  0  0  0  0  0
   41.6080   21.7190   36.3810 O   0  0  0  0  0  0  0  0  0  0  0  0
   39.8550   22.3400   37.9000 N   0  0  0  0  0  0  0  0  0  0  0  0
   39.6430   22.5130   38.9070 H   0  0  0  0  0  0  0  0  0  0  0  0
   36.4800   22.2530   36.4150 O   0  0  0  0  0  0  0  0  0  0  0  0
   35.7000   21.1810   36.3710 C   0  0  0  0  0  0  0  0  0  0  0  0
   35.5540   20.6680   35.2200 O   0  0  0  0  0  0  0  0  0  0  0  0
   35.1600   20.7760   37.5700 N   0  0  0  0  0  0  0  0  0  0  0  0
   35.2390   20.1150   38.3880 H   0  0  0  0  0  0  0  0  0  0  0  0
   34.3060   21.3820   37.7420 H   0  0  0  0  0  0  0  0  0  0  0  0
  1 23  1  0  0  0  0
  2  7  1  0  0  0  0
  2  1  2  0  0  0  0
  3  2  1  0  0  0  0
  4  3  2  0  0  0  0
  4  5  1  0  0  0  0
  5  6  2  0  0  0  0
  6  1  1  0  0  0  0
  8  3  1  0  0  0  0
  9 18  1  0  0  0  0
 10  5  1  0  0  0  0
 10  9  2  0  0  0  0
 11 10  1  0  0  0  0
 12 11  2  0  0  0  0
 12 16  1  0  0  0  0
 13 14  1  0  0  0  0
 13 12  1  0  0  0  0
 14 15  2  0  0  0  0
 15 16  1  0  0  0  0
 16 17  2  0  0  0  0
 17  9  1  0  0  0  0
 17 22  1  0  0  0  0
 19 11  1  0  0  0  0
 20 13  1  0  0  0  0
 21 14  1  0  0  0  0
 23 25  1  0  0  0  0
 23 24  1  0  0  0  0
 23 26  1  1  0  0  0
 24 27  1  1  0  0  0
 25 28  1  6  0  0  0
 25 24  1  0  0  0  0
 25 32  1  0  0  0  0
 30 32  1  0  0  0  0
 30 29  1  0  0  0  0
 31 30  2  0  0  0  0
 32 33  1  0  0  0  0
 34 24  1  0  0  0  0
 35 34  1  0  0  0  0
 35 37  1  0  0  0  0
 36 35  2  0  0  0  0
 37 39  1  0  0  0  0
 37 38  1  0  0  0  0
M  END
>  <minimizedAffinity>
-6.21887255

$$$$

 OpenBabel03272507223D

 39 42  0  0  1  0  0  0  0  0999 V2000
   37.2350   27.9780   31.6990 C   0  0  0  0  0  0  0  0  0  0  0  0
   37.5140   28.7120   30.5690 C   0  0  0  0  0  0  0  0  0  0  0  0
   36.9490   29.9920   30.5330 C   0  0  0  0  0  0  0  0  0  0  0  0
   36.1830   30.4400   31.5690 N   0  0  0  0  0  0  0  0  0  0  0  0
   35.9280   29.6910   32.6670 C   0  0  0  0  0  0  0  0  0  0  0  0
   36.4680   28.4440   32.7200 N   0  0  0  0  0  0  0  0  0  0  0  0
   38.1240   28.2880   29.8000 H   0  0  0  0  0  0  0  0  0  0  0  0
   37.1410   30.5970   29.6710 H   0  0  0  0  0  0  0  0  0  0  0  0
   33.7620   29.8620   33.7590 C   0  0  0  0  0  0  0  0  0  0  0  0
   35.1020   30.1860   33.7680 C   0  0  0  0  0  0  0  0  0  0  0  0
   35.6160   30.9610   34.7980 C   0  0  0  0  0  0  0  0  0  0  0  0
   34.8390   31.4360   35.8360 C   0  0  0  0  0  0  0  0  0  0  0  0
   35.0790   32.1850   36.9300 N   0  0  0  0  0  0  0  0  0  0  0  0
   33.8950   32.3040   37.5640 C   0  0  0  0  0  0  0  0  0  0  0  0
   32.9370   31.6500   36.8900 N   0  0  0  0  0  0  0  0  0  0  0  0
   33.5030   31.0950   35.7990 C   0  0  0  0  0  0  0  0  0  0  0  0
   32.9500   30.3190   34.7850 C   0  0  0  0  0  0  0  0  0  0  0  0
   33.2670   29.2690   33.0120 H   0  0  0  0  0  0  0  0  0  0  0  0
   36.6690   31.2110   34.7960 H   0  0  0  0  0  0  0  0  0  0  0  0
   36.0190   32.5730   37.1910 H   0  0  0  0  0  0  0  0  0  0  0  0
   33.7340   32.8470   38.4840 H   0  0  0  0  0  0  0  0  0  0  0  0
   31.8920   30.0980   34.8340 H   0  0  0  0  0  0  0  0  0  0  0  0
   37.8200   26.5840   31.7740 C   0  0  1  0  0  0  0  0  0  0  0  0
   38.4740   26.1120   32.9710 C   0  0  2  0  0  0  0  0  0  0  0  0
   37.0140   25.6790   32.6990 C   0  0  2  0  0  0  0  0  0  0  0  0
   38.1530   26.2080   30.7800 H   0  0  0  0  0  0  0  0  0  0  0  0
   38.9720   25.0780   32.9750 H   0  0  0  0  0  0  0  0  0  0  0  0
   36.2950   26.1280   33.3830 H   0  0  0  0  0  0  0  0  0  0  0  0
   35.2830   23.2760   30.8530 H   0  0  0  0  0  0  0  0  0  0  0  0
   35.5910   24.2050   31.3090 C   0  0  0  0  0  0  0  0  0  0  0  0
   34.7690   25.1060   30.9560 O   0  0  0  0  0  0  0  0  0  0  0  0
   36.7190   24.3850   32.1570 N   0  0  0  0  0  0  0  0  0  0  0  0
   37.3120   23.5520   32.3650 H   0  0  0  0  0  0  0  0  0  0  0  0
   38.6040   26.9390   34.0330 O   0  0  0  0  0  0  0  0  0  0  0  0
   39.3460   27.0390   35.1280 C   0  0  0  0  0  0  0  0  0  0  0  0
   40.5420   26.6310   35.0070 O   0  0  0  0  0  0  0  0  0  0  0  0
   38.7240   27.5680   36.2350 N   0  0  0  0  0  0  0  0  0  0  0  0
   38.5640   28.4290   36.8230 H   0  0  0  0  0  0  0  0  0  0  0  0
   38.1770   26.7780   36.6860 H   0  0  0  0  0  0  0  0  0  0  0  0
  1 23  1  0  0  0  0
  1  6  1  0  0  0  0
  2  1  2  0  0  0  0
  3  2  1  0  0  0  0
  3  4  2  0  0  0  0
  4  5  1  0  0  0  0
  5  6  2  0  0  0  0
  5 10  1  0  0  0  0
  7  2  1  0  0  0  0
  8  3  1  0  0  0  0
  9 10  2  0  0  0  0
  9 17  1  0  0  0  0
 10 11  1  0  0  0  0
 11 12  2  0  0  0  0
 12 13  1  0  0  0  0
 13 20  1  0  0  0  0
 13 14  1  0  0  0  0
 14 21  1  0  0  0  0
 15 14  2  0  0  0  0
 16 12  1  0  0  0  0
 16 15  1  0  0  0  0
 17 22  1  0  0  0  0
 17 16  2  0  0  0  0
 18  9  1  0  0  0  0
 19 11  1  0  0  0  0
 23 26  1  6  0  0  0
 23 25  1  0  0  0  0
 23 24  1  0  0  0  0
 24 27  1  6  0  0  0
 24 34  1  0  0  0  0
 25 24  1  0  0  0  0
 25 28  1  1  0  0  0
 29 30  1  0  0  0  0
 30 32  1  0  0  0  0
 31 30  2  0  0  0  0
 32 33  1  0  0  0  0
 32 25  1  0  0  0  0
 34 35  1  0  0  0  0
 35 37  1  0  0  0  0
 36 35  2  0  0  0  0
 37 39  1  0  0  0  0
 37 38  1  0  0  0  0
M  END
>  <minimizedAffinity>
-5.86398411

$$$$

 OpenBabel03272507223D

 39 42  0  0  1  0  0  0  0  0999 V2000
   39.3690   24.4450   34.4770 C   0  0  0  0  0  0  0  0  0  0  0  0
   40.5830   24.9490   34.8840 C   0  0  0  0  0  0  0  0  0  0  0  0
   40.7030   26.3420   34.8240 C   0  0  0  0  0  0  0  0  0  0  0  0
   39.6630   27.1080   34.3850 N   0  0  0  0  0  0  0  0  0  0  0  0
   38.4820   26.5800   33.9910 C   0  0  0  0  0  0  0  0  0  0  0  0
   38.3460   25.2280   34.0430 N   0  0  0  0  0  0  0  0  0  0  0  0
   41.3490   24.2800   35.2150 H   0  0  0  0  0  0  0  0  0  0  0  0
   41.6320   26.7760   35.1320 H   0  0  0  0  0  0  0  0  0  0  0  0
   37.1580   27.4830   32.1610 C   0  0  0  0  0  0  0  0  0  0  0  0
   37.3770   27.4160   33.5210 C   0  0  0  0  0  0  0  0  0  0  0  0
   36.5620   28.1340   34.3860 C   0  0  0  0  0  0  0  0  0  0  0  0
   35.5220   28.9290   33.9470 C   0  0  0  0  0  0  0  0  0  0  0  0
   34.6050   29.7060   34.5550 N   0  0  0  0  0  0  0  0  0  0  0  0
   33.8500   30.2280   33.5680 C   0  0  0  0  0  0  0  0  0  0  0  0
   34.2780   29.7950   32.3730 N   0  0  0  0  0  0  0  0  0  0  0  0
   35.3290   28.9760   32.5820 C   0  0  0  0  0  0  0  0  0  0  0  0
   36.1230   28.2710   31.6830 C   0  0  0  0  0  0  0  0  0  0  0  0
   37.7280   26.9680   31.4100 H   0  0  0  0  0  0  0  0  0  0  0  0
   36.7420   28.0750   35.4510 H   0  0  0  0  0  0  0  0  0  0  0  0
   34.5360   29.8420   35.5940 H   0  0  0  0  0  0  0  0  0  0  0  0
   33.0170   30.9020   33.7120 H   0  0  0  0  0  0  0  0  0  0  0  0
   35.9010   28.3640   30.6280 H   0  0  0  0  0  0  0  0  0  0  0  0
   39.2000   22.9420   34.5190 C   0  0  1  0  0  0  0  0  0  0  0  0
   38.5630   22.2930   35.6390 C   0  0  2  0  0  0  0  0  0  0  0  0
   37.7420   22.5300   34.3500 C   0  0  2  0  0  0  0  0  0  0  0  0
   39.9980   22.4080   33.9550 H   0  0  0  0  0  0  0  0  0  0  0  0
   38.5140   21.1470   35.6780 H   0  0  0  0  0  0  0  0  0  0  0  0
   36.9630   23.2820   34.4640 H   0  0  0  0  0  0  0  0  0  0  0  0
   36.4270   20.9300   31.5410 H   0  0  0  0  0  0  0  0  0  0  0  0
   36.6550   21.6610   32.3020 C   0  0  0  0  0  0  0  0  0  0  0  0
   36.0050   22.7190   32.0350 O   0  0  0  0  0  0  0  0  0  0  0  0
   37.5280   21.4690   33.4080 N   0  0  0  0  0  0  0  0  0  0  0  0
   37.9990   20.5430   33.5040 H   0  0  0  0  0  0  0  0  0  0  0  0
   38.1440   23.0330   36.6910 O   0  0  0  0  0  0  0  0  0  0  0  0
   38.5690   23.3650   37.9030 C   0  0  0  0  0  0  0  0  0  0  0  0
   37.9410   24.3220   38.4500 O   0  0  0  0  0  0  0  0  0  0  0  0
   39.6230   22.6310   38.3970 N   0  0  0  0  0  0  0  0  0  0  0  0
   39.9190   21.8300   39.0160 H   0  0  0  0  0  0  0  0  0  0  0  0
   40.5070   23.0460   37.9810 H   0  0  0  0  0  0  0  0  0  0  0  0
  1 23  1  0  0  0  0
  1  2  1  0  0  0  0
  2  7  1  0  0  0  0
  3  2  2  0  0  0  0
  3  8  1  0  0  0  0
  4  3  1  0  0  0  0
  5  6  1  0  0  0  0
  5  4  2  0  0  0  0
  6  1  2  0  0  0  0
  9 10  1  0  0  0  0
 10  5  1  0  0  0  0
 10 11  2  0  0  0  0
 11 19  1  0  0  0  0
 12 11  1  0  0  0  0
 12 13  1  0  0  0  0
 13 20  1  0  0  0  0
 14 21  1  0  0  0  0
 14 13  1  0  0  0  0
 15 16  1  0  0  0  0
 15 14  2  0  0  0  0
 16 12  2  0  0  0  0
 17  9  2  0  0  0  0
 17 16  1  0  0  0  0
 18  9  1  0  0  0  0
 22 17  1  0  0  0  0
 23 26  1  6  0  0  0
 23 24  1  0  0  0  0
 24 27  1  1  0  0  0
 24 34  1  0  0  0  0
 25 28  1  1  0  0  0
 25 23  1  0  0  0  0
 25 24  1  0  0  0  0
 29 30  1  0  0  0  0
 30 32  1  0  0  0  0
 31 30  2  0  0  0  0
 32 33  1  0  0  0  0
 32 25  1  0  0  0  0
 34 35  1  0  0  0  0
 35 37  1  0  0  0  0
 35 36  2  0  0  0  0
 37 38  1  0  0  0  0
 39 37  1  0  0  0  0
M  END
>  <minimizedAffinity>
-5.8362937

$$$$

 OpenBabel03272507223D

 39 42  0  0  1  0  0  0  0  0999 V2000
   38.8840   23.6440   34.5130 C   0  0  0  0  0  0  0  0  0  0  0  0
   39.4790   22.6100   33.8270 C   0  0  0  0  0  0  0  0  0  0  0  0
   39.6310   22.8160   32.4510 C   0  0  0  0  0  0  0  0  0  0  0  0
   39.2050   23.9750   31.8730 N   0  0  0  0  0  0  0  0  0  0  0  0
   38.6230   24.9730   32.5780 C   0  0  0  0  0  0  0  0  0  0  0  0
   38.4670   24.7920   33.9170 N   0  0  0  0  0  0  0  0  0  0  0  0
   39.7850   21.7320   34.3540 H   0  0  0  0  0  0  0  0  0  0  0  0
   40.0890   22.0350   31.8790 H   0  0  0  0  0  0  0  0  0  0  0  0
   37.4650   27.1070   32.7150 C   0  0  0  0  0  0  0  0  0  0  0  0
   38.1700   26.2100   31.9420 C   0  0  0  0  0  0  0  0  0  0  0  0
   38.4200   26.4990   30.6070 C   0  0  0  0  0  0  0  0  0  0  0  0
   37.9890   27.6620   30.0000 C   0  0  0  0  0  0  0  0  0  0  0  0
   38.0950   28.1750   28.7600 N   0  0  0  0  0  0  0  0  0  0  0  0
   37.4600   29.3640   28.7950 C   0  0  0  0  0  0  0  0  0  0  0  0
   36.9680   29.5930   30.0220 N   0  0  0  0  0  0  0  0  0  0  0  0
   37.2870   28.5390   30.8000 C   0  0  0  0  0  0  0  0  0  0  0  0
   37.0170   28.2870   32.1410 C   0  0  0  0  0  0  0  0  0  0  0  0
   37.2200   26.9800   33.7540 H   0  0  0  0  0  0  0  0  0  0  0  0
   38.9740   25.7880   30.0080 H   0  0  0  0  0  0  0  0  0  0  0  0
   38.5850   27.7030   27.9600 H   0  0  0  0  0  0  0  0  0  0  0  0
   37.3580   30.0400   27.9590 H   0  0  0  0  0  0  0  0  0  0  0  0
   36.4590   29.0300   32.6960 H   0  0  0  0  0  0  0  0  0  0  0  0
   38.6940   23.4590   36.0030 C   0  0  1  0  0  0  0  0  0  0  0  0
   37.7090   22.5410   36.5230 C   0  0  2  0  0  0  0  0  0  0  0  0
   39.1890   22.0970   36.4750 C   0  0  2  0  0  0  0  0  0  0  0  0
   38.9510   24.3750   36.5820 H   0  0  0  0  0  0  0  0  0  0  0  0
   37.5360   22.4760   37.6550 H   0  0  0  0  0  0  0  0  0  0  0  0
   39.3850   21.3210   35.7370 H   0  0  0  0  0  0  0  0  0  0  0  0
   42.0580   21.6910   38.4210 H   0  0  0  0  0  0  0  0  0  0  0  0
   41.3610   21.7020   37.5950 C   0  0  0  0  0  0  0  0  0  0  0  0
   41.9640   21.2600   36.5690 O   0  0  0  0  0  0  0  0  0  0  0  0
   40.0080   22.1350   37.6520 N   0  0  0  0  0  0  0  0  0  0  0  0
   39.6420   22.4770   38.5670 H   0  0  0  0  0  0  0  0  0  0  0  0
   36.9120   21.8610   35.6670 O   0  0  0  0  0  0  0  0  0  0  0  0
   35.8890   21.0180   35.7220 C   0  0  0  0  0  0  0  0  0  0  0  0
   35.5270   20.5380   34.6040 O   0  0  0  0  0  0  0  0  0  0  0  0
   35.3660   20.7790   36.9720 N   0  0  0  0  0  0  0  0  0  0  0  0
   35.3470   20.1330   37.8050 H   0  0  0  0  0  0  0  0  0  0  0  0
   34.7060   21.5830   37.1860 H   0  0  0  0  0  0  0  0  0  0  0  0
  1 23  1  0  0  0  0
  2  7  1  0  0  0  0
  2  1  2  0  0  0  0
  3  2  1  0  0  0  0
  4  3  2  0  0  0  0
  4  5  1  0  0  0  0
  5  6  2  0  0  0  0
  6  1  1  0  0  0  0
  8  3  1  0  0  0  0
  9 18  1  0  0  0  0
 10  5  1  0  0  0  0
 10  9  2  0  0  0  0
 11 10  1  0  0  0  0
 12 11  2  0  0  0  0
 12 16  1  0  0  0  0
 13 14  1  0  0  0  0
 13 12  1  0  0  0  0
 14 15  2  0  0  0  0
 15 16  1  0  0  0  0
 16 17  2  0  0  0  0
 17 22  1  0  0  0  0
 17  9  1  0  0  0  0
 19 11  1  0  0  0  0
 20 13  1  0  0  0  0
 21 14  1  0  0  0  0
 23 25  1  0  0  0  0
 23 24  1  0  0  0  0
 23 26  1  1  0  0  0
 24 27  1  1  0  0  0
 25 28  1  6  0  0  0
 25 24  1  0  0  0  0
 25 32  1  0  0  0  0
 30 32  1  0  0  0  0
 30 29  1  0  0  0  0
 31 30  2  0  0  0  0
 32 33  1  0  0  0  0
 34 35  1  0  0  0  0
 34 24  1  0  0  0  0
 35 37  1  0  0  0  0
 36 35  2  0  0  0  0
 37 39  1  0  0  0  0
 37 38  1  0  0  0  0
M  END
>  <minimizedAffinity>
-5.56143904

$$$$

 OpenBabel03272507223D

 39 42  0  0  1  0  0  0  0  0999 V2000
   34.8580   30.1590   33.3110 C   0  0  0  0  0  0  0  0  0  0  0  0
   34.9140   30.2740   31.9420 C   0  0  0  0  0  0  0  0  0  0  0  0
   35.7480   29.3510   31.2980 C   0  0  0  0  0  0  0  0  0  0  0  0
   36.4360   28.4200   32.0190 N   0  0  0  0  0  0  0  0  0  0  0  0
   36.3570   28.3350   33.3670 C   0  0  0  0  0  0  0  0  0  0  0  0
   35.5530   29.2220   34.0100 N   0  0  0  0  0  0  0  0  0  0  0  0
   34.3440   31.0330   31.4500 H   0  0  0  0  0  0  0  0  0  0  0  0
   35.8210   29.4060   30.2310 H   0  0  0  0  0  0  0  0  0  0  0  0
   37.6470   27.7140   35.3320 C   0  0  0  0  0  0  0  0  0  0  0  0
   37.1040   27.3310   34.1250 C   0  0  0  0  0  0  0  0  0  0  0  0
   37.2830   26.0320   33.6700 C   0  0  0  0  0  0  0  0  0  0  0  0
   37.9930   25.0820   34.3790 C   0  0  0  0  0  0  0  0  0  0  0  0
   38.3060   23.7890   34.1730 N   0  0  0  0  0  0  0  0  0  0  0  0
   39.0260   23.4070   35.2460 C   0  0  0  0  0  0  0  0  0  0  0  0
   39.1640   24.4300   36.1030 N   0  0  0  0  0  0  0  0  0  0  0  0
   38.5230   25.4950   35.5830 C   0  0  0  0  0  0  0  0  0  0  0  0
   38.3660   26.7880   36.0730 C   0  0  0  0  0  0  0  0  0  0  0  0
   37.5660   28.6910   35.7730 H   0  0  0  0  0  0  0  0  0  0  0  0
   36.8530   25.7410   32.7200 H   0  0  0  0  0  0  0  0  0  0  0  0
   38.0210   23.2340   33.3280 H   0  0  0  0  0  0  0  0  0  0  0  0
   39.4380   22.4200   35.4010 H   0  0  0  0  0  0  0  0  0  0  0  0
   38.8150   27.0270   37.0280 H   0  0  0  0  0  0  0  0  0  0  0  0
   33.9740   31.1430   34.0470 C   0  0  1  0  0  0  0  0  0  0  0  0
   32.7510   30.7180   34.6840 C   0  0  2  0  0  0  0  0  0  0  0  0
   34.0120   30.9230   35.5550 C   0  0  2  0  0  0  0  0  0  0  0  0
   34.0490   32.1740   33.6340 H   0  0  0  0  0  0  0  0  0  0  0  0
   32.0650   31.4970   35.1720 H   0  0  0  0  0  0  0  0  0  0  0  0
   34.4260   29.9940   35.9440 H   0  0  0  0  0  0  0  0  0  0  0  0
   35.6850   33.6710   36.9080 H   0  0  0  0  0  0  0  0  0  0  0  0
   35.4510   32.7700   36.3600 C   0  0  0  0  0  0  0  0  0  0  0  0
   36.5010   32.3970   35.7520 O   0  0  0  0  0  0  0  0  0  0  0  0
   34.1870   32.1190   36.3270 N   0  0  0  0  0  0  0  0  0  0  0  0
   33.4060   32.5390   36.8780 H   0  0  0  0  0  0  0  0  0  0  0  0
   32.3620   29.4260   34.5900 O   0  0  0  0  0  0  0  0  0  0  0  0
   31.3820   28.7220   34.0400 C   0  0  0  0  0  0  0  0  0  0  0  0
   30.3930   28.4900   34.8010 O   0  0  0  0  0  0  0  0  0  0  0  0
   31.5680   28.3440   32.7300 N   0  0  0  0  0  0  0  0  0  0  0  0
   31.3610   28.5580   31.7180 H   0  0  0  0  0  0  0  0  0  0  0  0
   32.1750   27.4730   32.7460 H   0  0  0  0  0  0  0  0  0  0  0  0
  1  6  1  0  0  0  0
  1 23  1  0  0  0  0
  2  1  2  0  0  0  0
  3  2  1  0  0  0  0
  3  4  2  0  0  0  0
  4  5  1  0  0  0  0
  5  6  2  0  0  0  0
  5 10  1  0  0  0  0
  7  2  1  0  0  0  0
  8  3  1  0  0  0  0
  9 18  1  0  0  0  0
  9 17  1  0  0  0  0
 10  9  2  0  0  0  0
 11 10  1  0  0  0  0
 11 12  2  0  0  0  0
 12 16  1  0  0  0  0
 13 12  1  0  0  0  0
 13 14  1  0  0  0  0
 14 21  1  0  0  0  0
 14 15  2  0  0  0  0
 16 17  2  0  0  0  0
 16 15  1  0  0  0  0
 17 22  1  0  0  0  0
 19 11  1  0  0  0  0
 20 13  1  0  0  0  0
 23 26  1  6  0  0  0
 23 24  1  0  0  0  0
 23 25  1  0  0  0  0
 24 27  1  1  0  0  0
 24 25  1  0  0  0  0
 25 28  1  1  0  0  0
 25 32  1  0  0  0  0
 30 29  1  0  0  0  0
 31 30  2  0  0  0  0
 32 30  1  0  0  0  0
 32 33  1  0  0  0  0
 34 24  1  0  0  0  0
 35 34  1  0  0  0  0
 35 36  2  0  0  0  0
 37 39  1  0  0  0  0
 37 35  1  0  0  0  0
 38 37  1  0  0  0  0
M  END
>  <minimizedAffinity>
-5.49951601

$$$$

 OpenBabel03272507223D

 39 42  0  0  1  0  0  0  0  0999 V2000
   37.5600   26.5750   33.4440 C   0  0  0  0  0  0  0  0  0  0  0  0
   36.7810   27.5090   32.8020 C   0  0  0  0  0  0  0  0  0  0  0  0
   35.9550   27.0050   31.7900 C   0  0  0  0  0  0  0  0  0  0  0  0
   35.9550   25.6740   31.4960 N   0  0  0  0  0  0  0  0  0  0  0  0
   36.7360   24.7810   32.1480 C   0  0  0  0  0  0  0  0  0  0  0  0
   37.5440   25.2520   33.1350 N   0  0  0  0  0  0  0  0  0  0  0  0
   36.8390   28.5370   33.0920 H   0  0  0  0  0  0  0  0  0  0  0  0
   35.3320   27.7000   31.2640 H   0  0  0  0  0  0  0  0  0  0  0  0
   37.7730   22.8640   31.0690 C   0  0  0  0  0  0  0  0  0  0  0  0
   36.7250   23.3560   31.8180 C   0  0  0  0  0  0  0  0  0  0  0  0
   35.7080   22.5020   32.2230 C   0  0  0  0  0  0  0  0  0  0  0  0
   35.6910   21.1570   31.9080 C   0  0  0  0  0  0  0  0  0  0  0  0
   34.8520   20.1380   32.1690 N   0  0  0  0  0  0  0  0  0  0  0  0
   35.3940   19.0520   31.5840 C   0  0  0  0  0  0  0  0  0  0  0  0
   36.5420   19.3780   30.9710 N   0  0  0  0  0  0  0  0  0  0  0  0
   36.7530   20.6960   31.1600 C   0  0  0  0  0  0  0  0  0  0  0  0
   37.7910   21.5190   30.7350 C   0  0  0  0  0  0  0  0  0  0  0  0
   38.6070   23.4380   30.7080 H   0  0  0  0  0  0  0  0  0  0  0  0
   34.8890   22.8980   32.8100 H   0  0  0  0  0  0  0  0  0  0  0  0
   33.9640   20.2240   32.7240 H   0  0  0  0  0  0  0  0  0  0  0  0
   34.9710   18.0580   31.6010 H   0  0  0  0  0  0  0  0  0  0  0  0
   38.5860   21.0740   30.1510 H   0  0  0  0  0  0  0  0  0  0  0  0
   38.4730   27.0800   34.5400 C   0  0  1  0  0  0  0  0  0  0  0  0
   38.5500   26.4100   35.8170 C   0  0  2  0  0  0  0  0  0  0  0  0
   39.6560   26.1460   34.7690 C   0  0  2  0  0  0  0  0  0  0  0  0
   38.6360   28.1800   34.4870 H   0  0  0  0  0  0  0  0  0  0  0  0
   39.1960   26.8560   36.6530 H   0  0  0  0  0  0  0  0  0  0  0  0
   39.6250   25.1410   34.3500 H   0  0  0  0  0  0  0  0  0  0  0  0
   42.5920   27.6540   33.6330 H   0  0  0  0  0  0  0  0  0  0  0  0
   41.6330   27.1580   33.6740 C   0  0  0  0  0  0  0  0  0  0  0  0
   41.2500   26.9470   32.4820 O   0  0  0  0  0  0  0  0  0  0  0  0
   40.9270   26.8050   34.8570 N   0  0  0  0  0  0  0  0  0  0  0  0
   41.3630   27.0410   35.7760 H   0  0  0  0  0  0  0  0  0  0  0  0
   37.7650   25.3350   36.0560 O   0  0  0  0  0  0  0  0  0  0  0  0
   37.7920   24.2300   36.7890 C   0  0  0  0  0  0  0  0  0  0  0  0
   37.7380   23.1460   36.1320 O   0  0  0  0  0  0  0  0  0  0  0  0
   37.8750   24.4080   38.1510 N   0  0  0  0  0  0  0  0  0  0  0  0
   38.5080   24.4320   38.9950 H   0  0  0  0  0  0  0  0  0  0  0  0
   36.8900   24.6040   38.4950 H   0  0  0  0  0  0  0  0  0  0  0  0
  1 23  1  0  0  0  0
  2  7  1  0  0  0  0
  2  1  2  0  0  0  0
  3  2  1  0  0  0  0
  4  3  2  0  0  0  0
  4  5  1  0  0  0  0
  5  6  2  0  0  0  0
  6  1  1  0  0  0  0
  8  3  1  0  0  0  0
  9 10  1  0  0  0  0
 10  5  1  0  0  0  0
 10 11  2  0  0  0  0
 11 19  1  0  0  0  0
 12 13  1  0  0  0  0
 12 11  1  0  0  0  0
 13 20  1  0  0  0  0
 14 21  1  0  0  0  0
 14 13  1  0  0  0  0
 15 16  1  0  0  0  0
 15 14  2  0  0  0  0
 16 12  2  0  0  0  0
 17  9  2  0  0  0  0
 17 16  1  0  0  0  0
 18  9  1  0  0  0  0
 22 17  1  0  0  0  0
 23 26  1  6  0  0  0
 23 25  1  0  0  0  0
 23 24  1  0  0  0  0
 24 34  1  0  0  0  0
 24 27  1  1  0  0  0
 25 28  1  6  0  0  0
 25 32  1  0  0  0  0
 25 24  1  0  0  0  0
 29 30  1  0  0  0  0
 30 32  1  0  0  0  0
 31 30  2  0  0  0  0
 32 33  1  0  0  0  0
 34 35  1  0  0  0  0
 35 37  1  0  0  0  0
 36 35  2  0  0  0  0
 37 39  1  0  0  0  0
 37 38  1  0  0  0  0
M  END
>  <minimizedAffinity>
-5.49726295

$$$$

 OpenBabel03272507223D

 39 42  0  0  1  0  0  0  0  0999 V2000
   37.2760   26.0690   33.5610 C   0  0  0  0  0  0  0  0  0  0  0  0
   37.0440   27.2630   34.2050 C   0  0  0  0  0  0  0  0  0  0  0  0
   37.8570   27.5090   35.3180 C   0  0  0  0  0  0  0  0  0  0  0  0
   38.8000   26.6020   35.7010 N   0  0  0  0  0  0  0  0  0  0  0  0
   39.0010   25.4350   35.0450 C   0  0  0  0  0  0  0  0  0  0  0  0
   38.2220   25.1780   33.9610 N   0  0  0  0  0  0  0  0  0  0  0  0
   36.2850   27.9210   33.8420 H   0  0  0  0  0  0  0  0  0  0  0  0
   37.7090   28.4280   35.8480 H   0  0  0  0  0  0  0  0  0  0  0  0
   41.2650   24.5600   34.8940 C   0  0  0  0  0  0  0  0  0  0  0  0
   40.0160   24.4720   35.4710 C   0  0  0  0  0  0  0  0  0  0  0  0
   39.7620   23.4880   36.4170 C   0  0  0  0  0  0  0  0  0  0  0  0
   40.7150   22.5720   36.8180 C   0  0  0  0  0  0  0  0  0  0  0  0
   40.7320   21.5480   37.6920 N   0  0  0  0  0  0  0  0  0  0  0  0
   41.9760   21.0330   37.6350 C   0  0  0  0  0  0  0  0  0  0  0  0
   42.7220   21.7120   36.7510 N   0  0  0  0  0  0  0  0  0  0  0  0
   41.9540   22.6860   36.2230 C   0  0  0  0  0  0  0  0  0  0  0  0
   42.2480   23.6590   35.2720 C   0  0  0  0  0  0  0  0  0  0  0  0
   41.5630   25.2820   34.1570 H   0  0  0  0  0  0  0  0  0  0  0  0
   38.7780   23.4260   36.8640 H   0  0  0  0  0  0  0  0  0  0  0  0
   39.9110   21.2500   38.2760 H   0  0  0  0  0  0  0  0  0  0  0  0
   42.3290   20.1920   38.2160 H   0  0  0  0  0  0  0  0  0  0  0  0
   43.2470   23.6770   34.8560 H   0  0  0  0  0  0  0  0  0  0  0  0
   36.4130   25.7600   32.3570 C   0  0  1  0  0  0  0  0  0  0  0  0
   36.9380   25.8580   31.0160 C   0  0  2  0  0  0  0  0  0  0  0  0
   36.8340   24.4630   31.6750 C   0  0  2  0  0  0  0  0  0  0  0  0
   35.3350   25.9660   32.5420 H   0  0  0  0  0  0  0  0  0  0  0  0
   36.2420   25.6880   30.1210 H   0  0  0  0  0  0  0  0  0  0  0  0
   37.8010   24.0260   31.9210 H   0  0  0  0  0  0  0  0  0  0  0  0
   34.9180   21.5480   31.7760 H   0  0  0  0  0  0  0  0  0  0  0  0
   35.6870   22.2850   31.9480 C   0  0  0  0  0  0  0  0  0  0  0  0
   36.5230   21.7940   32.7680 O   0  0  0  0  0  0  0  0  0  0  0  0
   35.7500   23.5780   31.3580 N   0  0  0  0  0  0  0  0  0  0  0  0
   34.9900   23.8520   30.6980 H   0  0  0  0  0  0  0  0  0  0  0  0
   38.2120   26.2720   30.8260 O   0  0  0  0  0  0  0  0  0  0  0  0
   38.8820   27.0790   30.0140 C   0  0  0  0  0  0  0  0  0  0  0  0
   39.1160   28.2370   30.4780 O   0  0  0  0  0  0  0  0  0  0  0  0
   39.2300   26.5540   28.7900 N   0  0  0  0  0  0  0  0  0  0  0  0
   39.9890   26.1010   28.2150 H   0  0  0  0  0  0  0  0  0  0  0  0
   38.3770   26.6440   28.1650 H   0  0  0  0  0  0  0  0  0  0  0  0
  1  6  2  0  0  0  0
  1  2  1  0  0  0  0
  2  3  2  0  0  0  0
  3  4  1  0  0  0  0
  3  8  1  0  0  0  0
  5 10  1  0  0  0  0
  5  4  2  0  0  0  0
  6  5  1  0  0  0  0
  7  2  1  0  0  0  0
  9 17  2  0  0  0  0
  9 10  1  0  0  0  0
 10 11  2  0  0  0  0
 11 12  1  0  0  0  0
 11 19  1  0  0  0  0
 12 13  1  0  0  0  0
 13 20  1  0  0  0  0
 14 13  1  0  0  0  0
 14 21  1  0  0  0  0
 15 14  2  0  0  0  0
 16 15  1  0  0  0  0
 16 12  2  0  0  0  0
 17 16  1  0  0  0  0
 18  9  1  0  0  0  0
 22 17  1  0  0  0  0
 23 26  1  1  0  0  0
 23  1  1  0  0  0  0
 24 27  1  6  0  0  0
 24 25  1  0  0  0  0
 24 23  1  0  0  0  0
 25 28  1  1  0  0  0
 25 23  1  0  0  0  0
 29 30  1  0  0  0  0
 30 31  2  0  0  0  0
 32 25  1  0  0  0  0
 32 30  1  0  0  0  0
 33 32  1  0  0  0  0
 34 24  1  0  0  0  0
 35 36  2  0  0  0  0
 35 34  1  0  0  0  0
 37 35  1  0  0  0  0
 38 37  1  0  0  0  0
 39 37  1  0  0  0  0
M  END
>  <minimizedAffinity>
-5.47505283

$$$$

 OpenBabel03272507223D

 39 42  0  0  1  0  0  0  0  0999 V2000
   37.8940   25.6450   32.9930 C   0  0  0  0  0  0  0  0  0  0  0  0
   37.1770   26.4920   33.8070 C   0  0  0  0  0  0  0  0  0  0  0  0
   37.5030   26.4340   35.1670 C   0  0  0  0  0  0  0  0  0  0  0  0
   38.4720   25.5840   35.6100 N   0  0  0  0  0  0  0  0  0  0  0  0
   39.1590   24.7620   34.7820 C   0  0  0  0  0  0  0  0  0  0  0  0
   38.8560   24.8040   33.4570 N   0  0  0  0  0  0  0  0  0  0  0  0
   36.4320   27.1300   33.3810 H   0  0  0  0  0  0  0  0  0  0  0  0
   36.9680   27.0780   35.8350 H   0  0  0  0  0  0  0  0  0  0  0  0
   41.4090   23.8530   34.6240 C   0  0  0  0  0  0  0  0  0  0  0  0
   40.1940   23.8540   35.2750 C   0  0  0  0  0  0  0  0  0  0  0  0
   39.9910   23.0050   36.3550 C   0  0  0  0  0  0  0  0  0  0  0  0
   40.9640   22.1410   36.8200 C   0  0  0  0  0  0  0  0  0  0  0  0
   41.0270   21.2410   37.8190 N   0  0  0  0  0  0  0  0  0  0  0  0
   42.2650   20.7110   37.7630 C   0  0  0  0  0  0  0  0  0  0  0  0
   42.9620   21.2610   36.7570 N   0  0  0  0  0  0  0  0  0  0  0  0
   42.1670   22.1640   36.1480 C   0  0  0  0  0  0  0  0  0  0  0  0
   42.4100   23.0000   35.0620 C   0  0  0  0  0  0  0  0  0  0  0  0
   41.6670   24.4690   33.7820 H   0  0  0  0  0  0  0  0  0  0  0  0
   39.0340   23.0120   36.8600 H   0  0  0  0  0  0  0  0  0  0  0  0
   40.2400   21.0310   38.4820 H   0  0  0  0  0  0  0  0  0  0  0  0
   42.6480   19.9520   38.4290 H   0  0  0  0  0  0  0  0  0  0  0  0
   43.3840   22.9540   34.5930 H   0  0  0  0  0  0  0  0  0  0  0  0
   37.5660   25.6700   31.5170 C   0  0  1  0  0  0  0  0  0  0  0  0
   36.5990   24.7620   30.9490 C   0  0  2  0  0  0  0  0  0  0  0  0
   36.1670   26.2150   31.2540 C   0  0  2  0  0  0  0  0  0  0  0  0
   38.4230   26.0180   30.8960 H   0  0  0  0  0  0  0  0  0  0  0  0
   36.4240   24.7540   29.8160 H   0  0  0  0  0  0  0  0  0  0  0  0
   35.4660   26.2940   32.0830 H   0  0  0  0  0  0  0  0  0  0  0  0
   36.4730   29.3490   29.7480 H   0  0  0  0  0  0  0  0  0  0  0  0
   36.4890   28.5390   30.4630 C   0  0  0  0  0  0  0  0  0  0  0  0
   36.9210   28.9980   31.5650 O   0  0  0  0  0  0  0  0  0  0  0  0
   36.0950   27.1960   30.2100 N   0  0  0  0  0  0  0  0  0  0  0  0
   35.7590   26.9570   29.2510 H   0  0  0  0  0  0  0  0  0  0  0  0
   36.0000   23.8430   31.7420 O   0  0  0  0  0  0  0  0  0  0  0  0
   36.1540   22.5670   32.0710 C   0  0  0  0  0  0  0  0  0  0  0  0
   35.0820   21.8880   32.1080 O   0  0  0  0  0  0  0  0  0  0  0  0
   37.4430   22.1570   32.3250 N   0  0  0  0  0  0  0  0  0  0  0  0
   38.3030   21.6830   31.9420 H   0  0  0  0  0  0  0  0  0  0  0  0
   37.6610   22.4350   33.3260 H   0  0  0  0  0  0  0  0  0  0  0  0
  1  6  2  0  0  0  0
  1  2  1  0  0  0  0
  2  3  2  0  0  0  0
  3  4  1  0  0  0  0
  3  8  1  0  0  0  0
  5 10  1  0  0  0  0
  5  4  2  0  0  0  0
  6  5  1  0  0  0  0
  7  2  1  0  0  0  0
  9 17  2  0  0  0  0
  9 10  1  0  0  0  0
 10 11  2  0  0  0  0
 11 12  1  0  0  0  0
 11 19  1  0  0  0  0
 12 13  1  0  0  0  0
 13 20  1  0  0  0  0
 14 13  1  0  0  0  0
 14 21  1  0  0  0  0
 15 14  2  0  0  0  0
 16 15  1  0  0  0  0
 16 12  2  0  0  0  0
 17 16  1  0  0  0  0
 18  9  1  0  0  0  0
 22 17  1  0  0  0  0
 23 26  1  6  0  0  0
 23  1  1  0  0  0  0
 24 27  1  6  0  0  0
 24 25  1  0  0  0  0
 24 23  1  0  0  0  0
 24 34  1  0  0  0  0
 25 23  1  0  0  0  0
 25 28  1  1  0  0  0
 29 30  1  0  0  0  0
 30 31  2  0  0  0  0
 32 30  1  0  0  0  0
 32 25  1  0  0  0  0
 33 32  1  0  0  0  0
 34 35  1  0  0  0  0
 35 36  2  0  0  0  0
 35 37  1  0  0  0  0
 37 39  1  0  0  0  0
 38 37  1  0  0  0  0
M  END
>  <minimizedAffinity>
-5.39304399

$$$$

 OpenBabel03272507223D

 39 42  0  0  1  0  0  0  0  0999 V2000
   39.1480   24.6380   35.3690 C   0  0  0  0  0  0  0  0  0  0  0  0
   40.4820   24.9030   35.1610 C   0  0  0  0  0  0  0  0  0  0  0  0
   40.7530   26.0560   34.4130 C   0  0  0  0  0  0  0  0  0  0  0  0
   39.7340   26.8320   33.9450 N   0  0  0  0  0  0  0  0  0  0  0  0
   38.4320   26.5410   34.1680 C   0  0  0  0  0  0  0  0  0  0  0  0
   38.1480   25.4260   34.8920 N   0  0  0  0  0  0  0  0  0  0  0  0
   41.2210   24.2440   35.5620 H   0  0  0  0  0  0  0  0  0  0  0  0
   41.7790   26.2990   34.2280 H   0  0  0  0  0  0  0  0  0  0  0  0
   37.1310   27.3860   32.2950 C   0  0  0  0  0  0  0  0  0  0  0  0
   37.3510   27.3840   33.6550 C   0  0  0  0  0  0  0  0  0  0  0  0
   36.5600   28.1710   34.4820 C   0  0  0  0  0  0  0  0  0  0  0  0
   35.5430   28.9730   34.0030 C   0  0  0  0  0  0  0  0  0  0  0  0
   34.6520   29.8070   34.5700 N   0  0  0  0  0  0  0  0  0  0  0  0
   33.9090   30.2990   33.5580 C   0  0  0  0  0  0  0  0  0  0  0  0
   34.3220   29.7900   32.3870 N   0  0  0  0  0  0  0  0  0  0  0  0
   35.3480   28.9530   32.6380 C   0  0  0  0  0  0  0  0  0  0  0  0
   36.1180   28.1780   31.7760 C   0  0  0  0  0  0  0  0  0  0  0  0
   37.6830   26.8160   31.5710 H   0  0  0  0  0  0  0  0  0  0  0  0
   36.7420   28.1630   35.5490 H   0  0  0  0  0  0  0  0  0  0  0  0
   34.5890   30.0010   35.6000 H   0  0  0  0  0  0  0  0  0  0  0  0
   33.0970   31.0040   33.6670 H   0  0  0  0  0  0  0  0  0  0  0  0
   35.8960   28.2220   30.7180 H   0  0  0  0  0  0  0  0  0  0  0  0
   38.8110   23.3970   36.1650 C   0  0  1  0  0  0  0  0  0  0  0  0
   38.3980   22.1780   35.5120 C   0  0  2  0  0  0  0  0  0  0  0  0
   39.8630   22.3070   35.9910 C   0  0  2  0  0  0  0  0  0  0  0  0
   38.4210   23.6350   37.1810 H   0  0  0  0  0  0  0  0  0  0  0  0
   38.0790   21.2750   36.1440 H   0  0  0  0  0  0  0  0  0  0  0  0
   40.5800   22.3890   35.1760 H   0  0  0  0  0  0  0  0  0  0  0  0
   42.0960   20.9590   38.3100 H   0  0  0  0  0  0  0  0  0  0  0  0
   41.6720   21.4160   37.4280 C   0  0  0  0  0  0  0  0  0  0  0  0
   42.6190   21.6600   36.6190 O   0  0  0  0  0  0  0  0  0  0  0  0
   40.2930   21.6940   37.2150 N   0  0  0  0  0  0  0  0  0  0  0  0
   39.6200   21.4390   37.9700 H   0  0  0  0  0  0  0  0  0  0  0  0
   38.2700   22.1520   34.1660 O   0  0  0  0  0  0  0  0  0  0  0  0
   37.3040   22.2240   33.2590 C   0  0  0  0  0  0  0  0  0  0  0  0
   36.5960   21.1770   33.1430 O   0  0  0  0  0  0  0  0  0  0  0  0
   37.2020   23.4130   32.5760 N   0  0  0  0  0  0  0  0  0  0  0  0
   36.7080   24.3420   32.5020 H   0  0  0  0  0  0  0  0  0  0  0  0
   37.9220   23.3820   31.7960 H   0  0  0  0  0  0  0  0  0  0  0  0
  1 23  1  0  0  0  0
  2  1  1  0  0  0  0
  2  7  1  0  0  0  0
  3  2  2  0  0  0  0
  4  5  2  0  0  0  0
  4  3  1  0  0  0  0
  5  6  1  0  0  0  0
  6  1  2  0  0  0  0
  8  3  1  0  0  0  0
  9 10  1  0  0  0  0
 10  5  1  0  0  0  0
 10 11  2  0  0  0  0
 11 19  1  0  0  0  0
 12 11  1  0  0  0  0
 12 13  1  0  0  0  0
 13 20  1  0  0  0  0
 14 21  1  0  0  0  0
 14 13  1  0  0  0  0
 15 16  1  0  0  0  0
 15 14  2  0  0  0  0
 16 12  2  0  0  0  0
 17  9  2  0  0  0  0
 17 16  1  0  0  0  0
 18  9  1  0  0  0  0
 22 17  1  0  0  0  0
 23 26  1  1  0  0  0
 24 25  1  0  0  0  0
 24 27  1  1  0  0  0
 24 23  1  0  0  0  0
 25 28  1  6  0  0  0
 25 23  1  0  0  0  0
 25 32  1  0  0  0  0
 30 29  1  0  0  0  0
 31 30  2  0  0  0  0
 32 30  1  0  0  0  0
 32 33  1  0  0  0  0
 34 24  1  0  0  0  0
 35 34  1  0  0  0  0
 36 35  2  0  0  0  0
 37 35  1  0  0  0  0
 38 37  1  0  0  0  0
 39 37  1  0  0  0  0
M  END
>  <minimizedAffinity>
-5.36000156

$$$$
