
 OpenBabel03272505503D

 40 42  0  0  1  0  0  0  0  0999 V2000
   37.2840   29.3020   50.6070 C   0  0  0  0  0  0  0  0  0  0  0  0
   37.4430   30.6650   50.8810 C   0  0  0  0  0  0  0  0  0  0  0  0
   36.7040   31.5480   50.1010 C   0  0  0  0  0  0  0  0  0  0  0  0
   35.8940   31.0260   49.1430 N   0  0  0  0  0  0  0  0  0  0  0  0
   35.7740   29.7100   48.9160 C   0  0  0  0  0  0  0  0  0  0  0  0
   36.4670   28.8400   49.6460 N   0  0  0  0  0  0  0  0  0  0  0  0
   34.9070   29.2600   47.9000 N   0  0  0  0  0  0  0  0  0  0  0  0
   34.2560   27.9570   47.9710 C   0  0  0  0  0  0  0  0  0  0  0  0
   32.7850   28.1200   47.8200 C   0  0  0  0  0  0  0  0  0  0  0  0
   32.3310   29.3100   47.3090 N   0  0  0  0  0  0  0  0  0  0  0  0
   33.1810   30.1670   46.5180 C   0  0  0  0  0  0  0  0  0  0  0  0
   34.6120   30.0680   46.7240 C   0  0  2  0  0  0  0  0  0  0  0  0
   37.8870   28.6770   51.2500 H   0  0  0  0  0  0  0  0  0  0  0  0
   38.0700   31.1020   51.6240 H   0  0  0  0  0  0  0  0  0  0  0  0
   36.7000   32.6410   50.1690 H   0  0  0  0  0  0  0  0  0  0  0  0
   34.7000   27.2670   47.2060 H   0  0  0  0  0  0  0  0  0  0  0  0
   34.5260   27.4990   48.9490 H   0  0  0  0  0  0  0  0  0  0  0  0
   32.4240   27.2540   47.2100 H   0  0  0  0  0  0  0  0  0  0  0  0
   32.3220   27.9430   48.8360 H   0  0  0  0  0  0  0  0  0  0  0  0
   31.4650   29.7240   47.6540 H   0  0  0  0  0  0  0  0  0  0  0  0
   32.8820   31.1980   46.9270 H   0  0  0  0  0  0  0  0  0  0  0  0
   32.7210   30.1920   45.5450 H   0  0  0  0  0  0  0  0  0  0  0  0
   35.0990   31.0740   46.9130 H   0  0  0  0  0  0  0  0  0  0  0  0
   35.3430   29.5050   45.6170 N   0  0  2  0  0  0  0  0  0  0  0  0
   36.3980   30.3820   45.1590 C   0  0  0  0  0  0  0  0  0  0  0  0
   36.5170   30.1950   43.6610 C   0  0  0  0  0  0  0  0  0  0  0  0
   35.5840   29.0800   43.3730 C   0  0  0  0  0  0  0  0  0  0  0  0
   34.5340   29.1920   44.4930 C   0  0  1  0  0  0  0  0  0  0  0  0
   37.3310   30.0670   45.6990 H   0  0  0  0  0  0  0  0  0  0  0  0
   36.1810   31.4360   45.4220 H   0  0  0  0  0  0  0  0  0  0  0  0
   36.2890   31.1290   43.1000 H   0  0  0  0  0  0  0  0  0  0  0  0
   37.5680   29.8540   43.4650 H   0  0  0  0  0  0  0  0  0  0  0  0
   36.0490   28.0770   43.3700 H   0  0  0  0  0  0  0  0  0  0  0  0
   35.1430   29.2100   42.3700 H   0  0  0  0  0  0  0  0  0  0  0  0
   33.9020   29.9640   44.0740 H   0  0  0  0  0  0  0  0  0  0  0  0
   31.6920   27.2590   43.7530 H   0  0  0  0  0  0  0  0  0  0  0  0
   32.6500   27.6370   44.0540 C   0  0  0  0  0  0  0  0  0  0  0  0
   31.8280   28.5080   43.5710 O   0  0  0  0  0  0  0  0  0  0  0  0
   33.9590   27.8720   44.5180 N   0  0  0  0  0  0  0  0  0  0  0  0
   34.1230   26.8800   44.7700 H   0  0  0  0  0  0  0  0  0  0  0  0
  1  2  1  0  0  0  0
  1 13  1  0  0  0  0
  2 14  1  0  0  0  0
  3 15  1  0  0  0  0
  3  2  2  0  0  0  0
  4  3  1  0  0  0  0
  5  4  2  0  0  0  0
  5  6  1  0  0  0  0
  6  1  2  0  0  0  0
  7  8  1  0  0  0  0
  7  5  1  0  0  0  0
  8 17  1  0  0  0  0
  9  8  1  0  0  0  0
  9 19  1  0  0  0  0
 10 20  1  0  0  0  0
 10  9  1  0  0  0  0
 11 12  1  0  0  0  0
 11 21  1  0  0  0  0
 11 10  1  0  0  0  0
 12 23  1  1  0  0  0
 12  7  1  0  0  0  0
 16  8  1  0  0  0  0
 18  9  1  0  0  0  0
 22 11  1  0  0  0  0
 24 25  1  6  0  0  0
 24 12  1  0  0  0  0
 25 30  1  0  0  0  0
 25 29  1  0  0  0  0
 26 25  1  0  0  0  0
 27 26  1  0  0  0  0
 27 28  1  0  0  0  0
 28 35  1  6  0  0  0
 28 39  1  0  0  0  0
 28 24  1  0  0  0  0
 31 26  1  0  0  0  0
 32 26  1  0  0  0  0
 33 27  1  0  0  0  0
 34 27  1  0  0  0  0
 36 37  1  0  0  0  0
 37 39  1  0  0  0  0
 38 37  2  0  0  0  0
 39 40  1  0  0  0  0
M  END
>  <minimizedAffinity>
-4.50466299

>  <minimizedRMSD>
0.899677038

$$$$
