
 OpenBabel03272505193D

 29 30  0  0  0  0  0  0  0  0999 V2000
   36.7590   27.5720   32.2970 C   0  0  0  0  0  0  0  0  0  0  0  0
   36.1580   28.3750   33.2260 C   0  0  0  0  0  0  0  0  0  0  0  0
   36.6190   28.2940   34.5240 C   0  0  0  0  0  0  0  0  0  0  0  0
   37.6150   27.4700   34.8850 C   0  0  0  0  0  0  0  0  0  0  0  0
   38.2470   26.6410   33.9690 C   0  0  0  0  0  0  0  0  0  0  0  0
   37.7940   26.7160   32.6740 C   0  0  0  0  0  0  0  0  0  0  0  0
   36.1310   28.9380   35.2470 H   0  0  0  0  0  0  0  0  0  0  0  0
   37.9090   27.4750   35.9280 H   0  0  0  0  0  0  0  0  0  0  0  0
   39.0430   25.9960   34.3120 H   0  0  0  0  0  0  0  0  0  0  0  0
   38.3340   26.0410   32.0220 H   0  0  0  0  0  0  0  0  0  0  0  0
   34.4710   31.3950   31.8430 C   0  0  0  0  0  0  0  0  0  0  0  0
   35.4470   30.4750   32.2780 C   0  0  0  0  0  0  0  0  0  0  0  0
   35.0900   29.2490   32.8070 C   0  0  0  0  0  0  0  0  0  0  0  0
   33.7510   29.0520   32.8540 N   0  0  0  0  0  0  0  0  0  0  0  0
   32.8120   29.9040   32.4500 C   0  0  0  0  0  0  0  0  0  0  0  0
   33.1790   31.0910   31.9380 N   0  0  0  0  0  0  0  0  0  0  0  0
   34.8370   32.3320   31.4400 H   0  0  0  0  0  0  0  0  0  0  0  0
   36.4840   30.7470   32.1900 H   0  0  0  0  0  0  0  0  0  0  0  0
   29.6350   29.7980   33.6090 H   0  0  0  0  0  0  0  0  0  0  0  0
   30.6770   30.1530   33.6150 C   0  0  0  0  0  0  0  0  0  0  0  0
   31.1570   30.9840   34.4210 O   0  0  0  0  0  0  0  0  0  0  0  0
   31.4400   29.5400   32.5690 N   0  0  0  0  0  0  0  0  0  0  0  0
   31.0500   28.8370   31.8820 H   0  0  0  0  0  0  0  0  0  0  0  0
   35.7610   26.4770   30.4190 N   0  0  0  0  0  0  0  0  0  0  0  0
   36.4690   27.4740   30.9000 C   0  0  0  0  0  0  0  0  0  0  0  0
   36.6670   28.1030   29.6620 N   0  0  0  0  0  0  0  0  0  0  0  0
   35.5730   26.4130   29.3930 H   0  0  0  0  0  0  0  0  0  0  0  0
   37.4930   27.8850   29.0690 H   0  0  0  0  0  0  0  0  0  0  0  0
   36.0680   28.8170   29.1910 H   0  0  0  0  0  0  0  0  0  0  0  0
  1  6  2  0  0  0  0
  1  2  1  0  0  0  0
  2  3  2  0  0  0  0
  3  4  1  0  0  0  0
  3  7  1  0  0  0  0
  4  8  1  0  0  0  0
  5  9  1  0  0  0  0
  5  4  2  0  0  0  0
  6  5  1  0  0  0  0
 10  6  1  0  0  0  0
 11 16  2  0  0  0  0
 11 12  1  0  0  0  0
 12 13  2  0  0  0  0
 13 14  1  0  0  0  0
 13  2  1  0  0  0  0
 15 22  1  0  0  0  0
 15 14  2  0  0  0  0
 16 15  1  0  0  0  0
 17 11  1  0  0  0  0
 18 12  1  0  0  0  0
 19 20  1  0  0  0  0
 20 21  2  0  0  0  0
 22 20  1  0  0  0  0
 23 22  1  0  0  0  0
 24 25  2  0  0  0  0
 25  1  1  0  0  0  0
 26 25  1  0  0  0  0
 27 24  1  0  0  0  0
 28 26  1  0  0  0  0
 29 26  1  0  0  0  0
M  END
>  <minimizedAffinity>
-5.12340593

$$$$

 OpenBabel03272505193D

 29 30  0  0  0  0  0  0  0  0999 V2000
   33.9270   30.2810   34.8830 C   0  0  0  0  0  0  0  0  0  0  0  0
   35.2850   30.1740   34.7720 C   0  0  0  0  0  0  0  0  0  0  0  0
   36.0510   31.0250   35.5430 C   0  0  0  0  0  0  0  0  0  0  0  0
   35.5090   31.9280   36.3740 C   0  0  0  0  0  0  0  0  0  0  0  0
   34.1350   32.0640   36.5120 C   0  0  0  0  0  0  0  0  0  0  0  0
   33.3650   31.2200   35.7490 C   0  0  0  0  0  0  0  0  0  0  0  0
   37.1260   30.9270   35.4410 H   0  0  0  0  0  0  0  0  0  0  0  0
   36.1910   32.5530   36.9390 H   0  0  0  0  0  0  0  0  0  0  0  0
   33.7510   32.8070   37.1960 H   0  0  0  0  0  0  0  0  0  0  0  0
   32.3080   31.3870   35.9110 H   0  0  0  0  0  0  0  0  0  0  0  0
   37.0990   27.1300   33.6220 C   0  0  0  0  0  0  0  0  0  0  0  0
   36.5240   28.1340   34.4280 C   0  0  0  0  0  0  0  0  0  0  0  0
   35.8370   29.1950   33.8680 C   0  0  0  0  0  0  0  0  0  0  0  0
   35.7880   29.1520   32.5160 N   0  0  0  0  0  0  0  0  0  0  0  0
   36.3210   28.2160   31.7340 C   0  0  0  0  0  0  0  0  0  0  0  0
   36.9850   27.1910   32.2970 N   0  0  0  0  0  0  0  0  0  0  0  0
   37.6180   26.3340   34.1420 H   0  0  0  0  0  0  0  0  0  0  0  0
   36.6300   28.0600   35.4950 H   0  0  0  0  0  0  0  0  0  0  0  0
   37.0940   28.7720   28.4880 H   0  0  0  0  0  0  0  0  0  0  0  0
   37.3220   28.7300   29.5640 C   0  0  0  0  0  0  0  0  0  0  0  0
   38.4310   29.0010   30.0840 O   0  0  0  0  0  0  0  0  0  0  0  0
   36.1780   28.3180   30.3210 N   0  0  0  0  0  0  0  0  0  0  0  0
   35.2370   28.0860   29.8990 H   0  0  0  0  0  0  0  0  0  0  0  0
   31.9120   28.9920   34.8510 N   0  0  0  0  0  0  0  0  0  0  0  0
   32.9260   29.5190   34.2020 C   0  0  0  0  0  0  0  0  0  0  0  0
   32.5390   29.0390   32.9420 N   0  0  0  0  0  0  0  0  0  0  0  0
   31.1980   28.4250   34.3380 H   0  0  0  0  0  0  0  0  0  0  0  0
   32.8710   28.1200   32.5870 H   0  0  0  0  0  0  0  0  0  0  0  0
   31.9150   29.4900   32.2360 H   0  0  0  0  0  0  0  0  0  0  0  0
  1  6  1  0  0  0  0
  2  1  2  0  0  0  0
  2  3  1  0  0  0  0
  3  4  2  0  0  0  0
  4  5  1  0  0  0  0
  4  8  1  0  0  0  0
  5  9  1  0  0  0  0
  6 10  1  0  0  0  0
  6  5  2  0  0  0  0
  7  3  1  0  0  0  0
 11 17  1  0  0  0  0
 11 12  1  0  0  0  0
 12 18  1  0  0  0  0
 13 12  2  0  0  0  0
 13  2  1  0  0  0  0
 14 13  1  0  0  0  0
 15 16  1  0  0  0  0
 15 14  2  0  0  0  0
 16 11  2  0  0  0  0
 19 20  1  0  0  0  0
 20 21  2  0  0  0  0
 20 22  1  0  0  0  0
 22 15  1  0  0  0  0
 23 22  1  0  0  0  0
 25 24  2  0  0  0  0
 25  1  1  0  0  0  0
 26 25  1  0  0  0  0
 27 24  1  0  0  0  0
 28 26  1  0  0  0  0
 29 26  1  0  0  0  0
M  END
>  <minimizedAffinity>
-5.11187506

$$$$

 OpenBabel03272505193D

 29 30  0  0  0  0  0  0  0  0999 V2000
   33.7390   30.2610   34.6920 C   0  0  0  0  0  0  0  0  0  0  0  0
   35.0790   30.2680   34.4210 C   0  0  0  0  0  0  0  0  0  0  0  0
   35.8940   30.9740   35.2830 C   0  0  0  0  0  0  0  0  0  0  0  0
   35.4150   31.6340   36.3490 C   0  0  0  0  0  0  0  0  0  0  0  0
   34.0610   31.6480   36.6540 C   0  0  0  0  0  0  0  0  0  0  0  0
   33.2430   30.9470   35.8010 C   0  0  0  0  0  0  0  0  0  0  0  0
   36.9530   30.9700   35.0530 H   0  0  0  0  0  0  0  0  0  0  0  0
   36.1310   32.1610   36.9680 H   0  0  0  0  0  0  0  0  0  0  0  0
   33.7280   32.1950   37.5240 H   0  0  0  0  0  0  0  0  0  0  0  0
   32.2060   31.0070   36.1040 H   0  0  0  0  0  0  0  0  0  0  0  0
   36.1140   29.6350   30.8990 C   0  0  0  0  0  0  0  0  0  0  0  0
   35.6530   30.2530   32.0790 C   0  0  0  0  0  0  0  0  0  0  0  0
   35.5620   29.5510   33.2670 C   0  0  0  0  0  0  0  0  0  0  0  0
   35.9510   28.2590   33.1600 N   0  0  0  0  0  0  0  0  0  0  0  0
   36.3890   27.6530   32.0590 C   0  0  0  0  0  0  0  0  0  0  0  0
   36.4710   28.3530   30.9140 N   0  0  0  0  0  0  0  0  0  0  0  0
   36.1550   30.2570   30.0130 H   0  0  0  0  0  0  0  0  0  0  0  0
   35.3710   31.2900   32.0390 H   0  0  0  0  0  0  0  0  0  0  0  0
   36.2540   24.2980   31.6470 H   0  0  0  0  0  0  0  0  0  0  0  0
   35.8630   25.3220   31.5450 C   0  0  0  0  0  0  0  0  0  0  0  0
   34.7760   25.6350   31.0030 O   0  0  0  0  0  0  0  0  0  0  0  0
   36.7620   26.2800   32.1170 N   0  0  0  0  0  0  0  0  0  0  0  0
   37.6810   26.0330   32.5770 H   0  0  0  0  0  0  0  0  0  0  0  0
   31.7720   28.9050   34.5750 N   0  0  0  0  0  0  0  0  0  0  0  0
   32.6980   29.6070   33.9610 C   0  0  0  0  0  0  0  0  0  0  0  0
   32.1990   29.3800   32.6700 N   0  0  0  0  0  0  0  0  0  0  0  0
   31.0280   28.4200   34.0230 H   0  0  0  0  0  0  0  0  0  0  0  0
   32.5210   28.5730   32.0980 H   0  0  0  0  0  0  0  0  0  0  0  0
   31.4930   29.9350   32.1370 H   0  0  0  0  0  0  0  0  0  0  0  0
  1  6  1  0  0  0  0
  2  1  2  0  0  0  0
  2  3  1  0  0  0  0
  3  4  2  0  0  0  0
  4  5  1  0  0  0  0
  4  8  1  0  0  0  0
  5  9  1  0  0  0  0
  6 10  1  0  0  0  0
  6  5  2  0  0  0  0
  7  3  1  0  0  0  0
 11 16  2  0  0  0  0
 11 12  1  0  0  0  0
 12 13  2  0  0  0  0
 13  2  1  0  0  0  0
 14 13  1  0  0  0  0
 15 22  1  0  0  0  0
 15 14  2  0  0  0  0
 16 15  1  0  0  0  0
 17 11  1  0  0  0  0
 18 12  1  0  0  0  0
 20 19  1  0  0  0  0
 20 22  1  0  0  0  0
 21 20  2  0  0  0  0
 22 23  1  0  0  0  0
 25 24  2  0  0  0  0
 25  1  1  0  0  0  0
 26 25  1  0  0  0  0
 27 24  1  0  0  0  0
 28 26  1  0  0  0  0
 29 26  1  0  0  0  0
M  END
>  <minimizedAffinity>
-5.08158779

$$$$

 OpenBabel03272505193D

 29 30  0  0  0  0  0  0  0  0999 V2000
   38.0530   25.3610   35.6370 C   0  0  0  0  0  0  0  0  0  0  0  0
   38.2480   24.4720   34.6170 C   0  0  0  0  0  0  0  0  0  0  0  0
   38.3400   23.1360   34.9520 C   0  0  0  0  0  0  0  0  0  0  0  0
   38.2450   22.7030   36.2190 C   0  0  0  0  0  0  0  0  0  0  0  0
   38.0480   23.5770   37.2780 C   0  0  0  0  0  0  0  0  0  0  0  0
   37.9540   24.9080   36.9530 C   0  0  0  0  0  0  0  0  0  0  0  0
   38.4960   22.4460   34.1310 H   0  0  0  0  0  0  0  0  0  0  0  0
   38.3300   21.6350   36.3840 H   0  0  0  0  0  0  0  0  0  0  0  0
   37.9780   23.1750   38.2790 H   0  0  0  0  0  0  0  0  0  0  0  0
   37.8020   25.5240   37.8300 H   0  0  0  0  0  0  0  0  0  0  0  0
   39.7480   25.2560   31.2980 C   0  0  0  0  0  0  0  0  0  0  0  0
   39.5570   24.8000   32.6190 C   0  0  0  0  0  0  0  0  0  0  0  0
   38.3480   24.9690   33.2660 C   0  0  0  0  0  0  0  0  0  0  0  0
   37.4150   25.5960   32.5120 N   0  0  0  0  0  0  0  0  0  0  0  0
   37.5710   26.0340   31.2650 C   0  0  0  0  0  0  0  0  0  0  0  0
   38.7540   25.8600   30.6510 N   0  0  0  0  0  0  0  0  0  0  0  0
   40.7260   25.0820   30.8650 H   0  0  0  0  0  0  0  0  0  0  0  0
   40.3770   24.3150   33.1180 H   0  0  0  0  0  0  0  0  0  0  0  0
   35.6500   28.4830   29.9390 H   0  0  0  0  0  0  0  0  0  0  0  0
   36.5400   28.0990   30.4600 C   0  0  0  0  0  0  0  0  0  0  0  0
   37.4940   28.7970   30.8790 O   0  0  0  0  0  0  0  0  0  0  0  0
   36.4820   26.6750   30.6070 N   0  0  0  0  0  0  0  0  0  0  0  0
   35.6860   26.0730   30.2600 H   0  0  0  0  0  0  0  0  0  0  0  0
   38.7080   27.5810   36.2370 N   0  0  0  0  0  0  0  0  0  0  0  0
   37.9220   26.7820   35.5510 C   0  0  0  0  0  0  0  0  0  0  0  0
   37.1850   27.8110   34.9460 N   0  0  0  0  0  0  0  0  0  0  0  0
   38.5860   28.6180   36.1740 H   0  0  0  0  0  0  0  0  0  0  0  0
   36.3180   28.1860   35.3820 H   0  0  0  0  0  0  0  0  0  0  0  0
   37.3780   28.3110   34.0490 H   0  0  0  0  0  0  0  0  0  0  0  0
  1  6  1  0  0  0  0
  2  3  1  0  0  0  0
  2  1  2  0  0  0  0
  3  4  2  0  0  0  0
  4  8  1  0  0  0  0
  4  5  1  0  0  0  0
  5  9  1  0  0  0  0
  6  5  2  0  0  0  0
  6 10  1  0  0  0  0
  7  3  1  0  0  0  0
 11 12  1  0  0  0  0
 12 18  1  0  0  0  0
 12 13  2  0  0  0  0
 13  2  1  0  0  0  0
 14 13  1  0  0  0  0
 15 14  2  0  0  0  0
 16 15  1  0  0  0  0
 16 11  2  0  0  0  0
 17 11  1  0  0  0  0
 19 20  1  0  0  0  0
 20 22  1  0  0  0  0
 20 21  2  0  0  0  0
 22 15  1  0  0  0  0
 23 22  1  0  0  0  0
 25  1  1  0  0  0  0
 25 24  2  0  0  0  0
 26 28  1  0  0  0  0
 26 25  1  0  0  0  0
 27 24  1  0  0  0  0
 29 26  1  0  0  0  0
M  END
>  <minimizedAffinity>
-5.01538706

$$$$

 OpenBabel03272505193D

 29 30  0  0  0  0  0  0  0  0999 V2000
   38.0710   26.6600   33.5740 C   0  0  0  0  0  0  0  0  0  0  0  0
   37.6360   25.4020   33.2630 C   0  0  0  0  0  0  0  0  0  0  0  0
   36.8720   25.2610   32.1220 C   0  0  0  0  0  0  0  0  0  0  0  0
   36.5570   26.3010   31.3330 C   0  0  0  0  0  0  0  0  0  0  0  0
   36.9820   27.5900   31.6190 C   0  0  0  0  0  0  0  0  0  0  0  0
   37.7430   27.7390   32.7530 C   0  0  0  0  0  0  0  0  0  0  0  0
   36.5350   24.2570   31.8920 H   0  0  0  0  0  0  0  0  0  0  0  0
   35.9530   26.0930   30.4590 H   0  0  0  0  0  0  0  0  0  0  0  0
   36.7000   28.3910   30.9500 H   0  0  0  0  0  0  0  0  0  0  0  0
   38.0330   28.7700   32.9070 H   0  0  0  0  0  0  0  0  0  0  0  0
   38.0180   21.8970   34.4660 C   0  0  0  0  0  0  0  0  0  0  0  0
   37.7090   23.0290   33.6840 C   0  0  0  0  0  0  0  0  0  0  0  0
   37.9890   24.3060   34.1320 C   0  0  0  0  0  0  0  0  0  0  0  0
   38.5690   24.3330   35.3550 N   0  0  0  0  0  0  0  0  0  0  0  0
   38.8710   23.2800   36.1110 C   0  0  0  0  0  0  0  0  0  0  0  0
   38.5910   22.0460   35.6580 N   0  0  0  0  0  0  0  0  0  0  0  0
   37.7650   20.9340   34.0390 H   0  0  0  0  0  0  0  0  0  0  0  0
   37.2460   22.8800   32.7240 H   0  0  0  0  0  0  0  0  0  0  0  0
   39.2470   23.4910   39.4660 H   0  0  0  0  0  0  0  0  0  0  0  0
   38.6690   23.3110   38.5470 C   0  0  0  0  0  0  0  0  0  0  0  0
   37.4560   22.9950   38.5000 O   0  0  0  0  0  0  0  0  0  0  0  0
   39.4840   23.4820   37.3810 N   0  0  0  0  0  0  0  0  0  0  0  0
   40.5060   23.7480   37.4030 H   0  0  0  0  0  0  0  0  0  0  0  0
   40.1830   27.0350   34.6310 N   0  0  0  0  0  0  0  0  0  0  0  0
   38.8710   27.0630   34.6880 C   0  0  0  0  0  0  0  0  0  0  0  0
   38.8080   27.5430   36.0050 N   0  0  0  0  0  0  0  0  0  0  0  0
   40.7520   27.3190   35.4620 H   0  0  0  0  0  0  0  0  0  0  0  0
   38.7670   26.8940   36.8170 H   0  0  0  0  0  0  0  0  0  0  0  0
   38.7960   28.5320   36.3390 H   0  0  0  0  0  0  0  0  0  0  0  0
  1 25  1  0  0  0  0
  2  1  1  0  0  0  0
  2 13  1  0  0  0  0
  3  2  2  0  0  0  0
  4  5  2  0  0  0  0
  4  3  1  0  0  0  0
  5  6  1  0  0  0  0
  6 10  1  0  0  0  0
  6  1  2  0  0  0  0
  7  3  1  0  0  0  0
  8  4  1  0  0  0  0
  9  5  1  0  0  0  0
 11 16  1  0  0  0  0
 12 13  1  0  0  0  0
 12 11  2  0  0  0  0
 13 14  2  0  0  0  0
 14 15  1  0  0  0  0
 15 22  1  0  0  0  0
 16 15  2  0  0  0  0
 17 11  1  0  0  0  0
 18 12  1  0  0  0  0
 20 19  1  0  0  0  0
 21 20  2  0  0  0  0
 22 23  1  0  0  0  0
 22 20  1  0  0  0  0
 24 25  2  0  0  0  0
 24 27  1  0  0  0  0
 25 26  1  0  0  0  0
 26 29  1  0  0  0  0
 26 28  1  0  0  0  0
M  END
>  <minimizedAffinity>
-4.95394564

$$$$

 OpenBabel03272505193D

 29 30  0  0  0  0  0  0  0  0999 V2000
   39.7650   23.0560   36.1880 C   0  0  0  0  0  0  0  0  0  0  0  0
   40.1260   24.0630   35.3360 C   0  0  0  0  0  0  0  0  0  0  0  0
   41.4730   24.3430   35.2250 C   0  0  0  0  0  0  0  0  0  0  0  0
   42.4090   23.6690   35.9120 C   0  0  0  0  0  0  0  0  0  0  0  0
   42.0780   22.6420   36.7850 C   0  0  0  0  0  0  0  0  0  0  0  0
   40.7390   22.3570   36.9010 C   0  0  0  0  0  0  0  0  0  0  0  0
   41.7410   25.1440   34.5460 H   0  0  0  0  0  0  0  0  0  0  0  0
   43.4410   23.9610   35.7590 H   0  0  0  0  0  0  0  0  0  0  0  0
   42.8700   22.1330   37.3140 H   0  0  0  0  0  0  0  0  0  0  0  0
   40.5620   21.5480   37.5990 H   0  0  0  0  0  0  0  0  0  0  0  0
   37.3160   26.4230   34.6970 C   0  0  0  0  0  0  0  0  0  0  0  0
   38.3450   25.6870   35.3200 C   0  0  0  0  0  0  0  0  0  0  0  0
   39.0980   24.7690   34.6130 C   0  0  0  0  0  0  0  0  0  0  0  0
   38.7420   24.6690   33.3110 N   0  0  0  0  0  0  0  0  0  0  0  0
   37.7760   25.3520   32.7000 C   0  0  0  0  0  0  0  0  0  0  0  0
   37.0550   26.2410   33.4040 N   0  0  0  0  0  0  0  0  0  0  0  0
   36.7760   27.1220   35.3240 H   0  0  0  0  0  0  0  0  0  0  0  0
   38.5350   25.8540   36.3660 H   0  0  0  0  0  0  0  0  0  0  0  0
   36.2780   24.2590   29.8700 H   0  0  0  0  0  0  0  0  0  0  0  0
   36.3670   24.3670   30.9620 C   0  0  0  0  0  0  0  0  0  0  0  0
   35.5700   23.8940   31.8070 O   0  0  0  0  0  0  0  0  0  0  0  0
   37.5280   25.1280   31.3150 N   0  0  0  0  0  0  0  0  0  0  0  0
   38.2100   25.5320   30.6160 H   0  0  0  0  0  0  0  0  0  0  0  0
   37.8570   22.8480   37.6140 N   0  0  0  0  0  0  0  0  0  0  0  0
   38.4490   22.5760   36.4730 C   0  0  0  0  0  0  0  0  0  0  0  0
   37.3860   21.8230   35.9510 N   0  0  0  0  0  0  0  0  0  0  0  0
   36.9000   22.4750   37.8120 H   0  0  0  0  0  0  0  0  0  0  0  0
   37.3290   20.7950   36.0950 H   0  0  0  0  0  0  0  0  0  0  0  0
   36.5670   22.1520   35.3930 H   0  0  0  0  0  0  0  0  0  0  0  0
  1 25  1  0  0  0  0
  1  6  1  0  0  0  0
  2  1  2  0  0  0  0
  3  2  1  0  0  0  0
  3  4  2  0  0  0  0
  4  5  1  0  0  0  0
  5  6  2  0  0  0  0
  5  9  1  0  0  0  0
  6 10  1  0  0  0  0
  7  3  1  0  0  0  0
  8  4  1  0  0  0  0
 11 12  1  0  0  0  0
 11 17  1  0  0  0  0
 12 18  1  0  0  0  0
 13 12  2  0  0  0  0
 13  2  1  0  0  0  0
 14 13  1  0  0  0  0
 15 14  2  0  0  0  0
 15 16  1  0  0  0  0
 16 11  2  0  0  0  0
 19 20  1  0  0  0  0
 20 22  1  0  0  0  0
 20 21  2  0  0  0  0
 22 15  1  0  0  0  0
 23 22  1  0  0  0  0
 24 27  1  0  0  0  0
 25 24  2  0  0  0  0
 26 28  1  0  0  0  0
 26 25  1  0  0  0  0
 29 26  1  0  0  0  0
M  END
>  <minimizedAffinity>
-4.95026064

$$$$

 OpenBabel03272505193D

 29 30  0  0  0  0  0  0  0  0999 V2000
   39.6610   23.7740   36.0290 C   0  0  0  0  0  0  0  0  0  0  0  0
   38.4610   24.4200   36.1350 C   0  0  0  0  0  0  0  0  0  0  0  0
   37.7920   24.3180   37.3380 C   0  0  0  0  0  0  0  0  0  0  0  0
   38.2790   23.6190   38.3760 C   0  0  0  0  0  0  0  0  0  0  0  0
   39.4930   22.9520   38.3030 C   0  0  0  0  0  0  0  0  0  0  0  0
   40.1650   23.0490   37.1090 C   0  0  0  0  0  0  0  0  0  0  0  0
   36.8420   24.8350   37.4040 H   0  0  0  0  0  0  0  0  0  0  0  0
   37.6820   23.5960   39.2800 H   0  0  0  0  0  0  0  0  0  0  0  0
   39.8390   22.4050   39.1690 H   0  0  0  0  0  0  0  0  0  0  0  0
   41.0990   22.5030   37.1310 H   0  0  0  0  0  0  0  0  0  0  0  0
   37.0190   27.2480   34.1850 C   0  0  0  0  0  0  0  0  0  0  0  0
   37.5220   26.4500   35.2330 C   0  0  0  0  0  0  0  0  0  0  0  0
   37.9640   25.1600   35.0010 C   0  0  0  0  0  0  0  0  0  0  0  0
   37.8560   24.7780   33.7070 N   0  0  0  0  0  0  0  0  0  0  0  0
   37.3850   25.5120   32.7020 C   0  0  0  0  0  0  0  0  0  0  0  0
   36.9610   26.7640   32.9460 N   0  0  0  0  0  0  0  0  0  0  0  0
   36.6950   28.2460   34.4540 H   0  0  0  0  0  0  0  0  0  0  0  0
   37.5580   26.8650   36.2240 H   0  0  0  0  0  0  0  0  0  0  0  0
   36.1520   24.1430   29.8650 H   0  0  0  0  0  0  0  0  0  0  0  0
   36.0640   24.5540   30.8820 C   0  0  0  0  0  0  0  0  0  0  0  0
   34.9970   24.6650   31.5320 O   0  0  0  0  0  0  0  0  0  0  0  0
   37.3410   24.9580   31.3900 N   0  0  0  0  0  0  0  0  0  0  0  0
   38.2480   24.8710   30.8560 H   0  0  0  0  0  0  0  0  0  0  0  0
   41.7220   24.3020   34.9370 N   0  0  0  0  0  0  0  0  0  0  0  0
   40.5390   23.7300   34.9020 C   0  0  0  0  0  0  0  0  0  0  0  0
   40.6620   23.2570   33.5870 N   0  0  0  0  0  0  0  0  0  0  0  0
   42.3450   24.2730   34.0970 H   0  0  0  0  0  0  0  0  0  0  0  0
   40.3430   23.8230   32.7750 H   0  0  0  0  0  0  0  0  0  0  0  0
   41.0580   22.3490   33.2550 H   0  0  0  0  0  0  0  0  0  0  0  0
  1  2  2  0  0  0  0
  1  6  1  0  0  0  0
  2  3  1  0  0  0  0
  3  7  1  0  0  0  0
  3  4  2  0  0  0  0
  4  8  1  0  0  0  0
  5  4  1  0  0  0  0
  5  9  1  0  0  0  0
  6 10  1  0  0  0  0
  6  5  2  0  0  0  0
 11 17  1  0  0  0  0
 11 12  1  0  0  0  0
 12 18  1  0  0  0  0
 13 12  2  0  0  0  0
 13  2  1  0  0  0  0
 14 13  1  0  0  0  0
 15 16  1  0  0  0  0
 15 14  2  0  0  0  0
 16 11  2  0  0  0  0
 19 20  1  0  0  0  0
 20 22  1  0  0  0  0
 20 21  2  0  0  0  0
 22 15  1  0  0  0  0
 23 22  1  0  0  0  0
 25 24  2  0  0  0  0
 25  1  1  0  0  0  0
 26 25  1  0  0  0  0
 27 24  1  0  0  0  0
 28 26  1  0  0  0  0
 29 26  1  0  0  0  0
M  END
>  <minimizedAffinity>
-4.91652822

$$$$

 OpenBabel03272505193D

 29 30  0  0  0  0  0  0  0  0999 V2000
   36.0630   28.9820   32.1360 C   0  0  0  0  0  0  0  0  0  0  0  0
   36.4520   28.3350   33.2760 C   0  0  0  0  0  0  0  0  0  0  0  0
   36.1080   28.9150   34.4810 C   0  0  0  0  0  0  0  0  0  0  0  0
   35.4200   30.0650   34.5560 C   0  0  0  0  0  0  0  0  0  0  0  0
   35.0100   30.7480   33.4200 C   0  0  0  0  0  0  0  0  0  0  0  0
   35.3490   30.1780   32.2170 C   0  0  0  0  0  0  0  0  0  0  0  0
   36.4240   28.3890   35.3730 H   0  0  0  0  0  0  0  0  0  0  0  0
   35.1960   30.4430   35.5460 H   0  0  0  0  0  0  0  0  0  0  0  0
   34.4590   31.6710   33.5370 H   0  0  0  0  0  0  0  0  0  0  0  0
   34.9960   30.7690   31.3820 H   0  0  0  0  0  0  0  0  0  0  0  0
   39.3360   25.9810   33.4040 C   0  0  0  0  0  0  0  0  0  0  0  0
   38.5340   27.1380   33.4870 C   0  0  0  0  0  0  0  0  0  0  0  0
   37.1910   27.1020   33.1620 C   0  0  0  0  0  0  0  0  0  0  0  0
   36.7630   25.8780   32.7720 N   0  0  0  0  0  0  0  0  0  0  0  0
   37.5000   24.7730   32.6850 C   0  0  0  0  0  0  0  0  0  0  0  0
   38.8040   24.8270   33.0070 N   0  0  0  0  0  0  0  0  0  0  0  0
   40.3780   26.0970   33.6790 H   0  0  0  0  0  0  0  0  0  0  0  0
   38.9890   28.0570   33.8110 H   0  0  0  0  0  0  0  0  0  0  0  0
   36.6510   22.1650   30.7050 H   0  0  0  0  0  0  0  0  0  0  0  0
   37.1720   23.1100   30.9250 C   0  0  0  0  0  0  0  0  0  0  0  0
   37.9170   23.7310   30.1300 O   0  0  0  0  0  0  0  0  0  0  0  0
   36.8930   23.5580   32.2560 N   0  0  0  0  0  0  0  0  0  0  0  0
   36.2670   23.0470   32.9370 H   0  0  0  0  0  0  0  0  0  0  0  0
   36.4170   29.4810   29.8240 N   0  0  0  0  0  0  0  0  0  0  0  0
   36.2910   28.5890   30.7810 C   0  0  0  0  0  0  0  0  0  0  0  0
   36.4560   27.4760   29.9430 N   0  0  0  0  0  0  0  0  0  0  0  0
   36.5670   29.1740   28.8360 H   0  0  0  0  0  0  0  0  0  0  0  0
   35.6420   27.0130   29.4910 H   0  0  0  0  0  0  0  0  0  0  0  0
   37.3400   26.9900   29.6710 H   0  0  0  0  0  0  0  0  0  0  0  0
  1  6  2  0  0  0  0
  1  2  1  0  0  0  0
  2  3  2  0  0  0  0
  3  4  1  0  0  0  0
  3  7  1  0  0  0  0
  4  8  1  0  0  0  0
  5  9  1  0  0  0  0
  5  4  2  0  0  0  0
  6  5  1  0  0  0  0
 10  6  1  0  0  0  0
 11 12  1  0  0  0  0
 11 17  1  0  0  0  0
 12 18  1  0  0  0  0
 13  2  1  0  0  0  0
 13 12  2  0  0  0  0
 14 13  1  0  0  0  0
 15 14  2  0  0  0  0
 15 16  1  0  0  0  0
 16 11  2  0  0  0  0
 19 20  1  0  0  0  0
 20 22  1  0  0  0  0
 21 20  2  0  0  0  0
 22 15  1  0  0  0  0
 22 23  1  0  0  0  0
 24 25  2  0  0  0  0
 25  1  1  0  0  0  0
 26 25  1  0  0  0  0
 27 24  1  0  0  0  0
 28 26  1  0  0  0  0
 29 26  1  0  0  0  0
M  END
>  <minimizedAffinity>
-4.85550594

$$$$

 OpenBabel03272505193D

 29 30  0  0  0  0  0  0  0  0999 V2000
   40.7870   22.6070   36.7690 C   0  0  0  0  0  0  0  0  0  0  0  0
   41.5440   23.1610   35.7750 C   0  0  0  0  0  0  0  0  0  0  0  0
   42.7660   22.5770   35.5110 C   0  0  0  0  0  0  0  0  0  0  0  0
   43.2150   21.5080   36.1870 C   0  0  0  0  0  0  0  0  0  0  0  0
   42.4730   20.9200   37.2020 C   0  0  0  0  0  0  0  0  0  0  0  0
   41.2550   21.4950   37.4710 C   0  0  0  0  0  0  0  0  0  0  0  0
   43.3530   23.0300   34.7210 H   0  0  0  0  0  0  0  0  0  0  0  0
   44.1860   21.1190   35.9090 H   0  0  0  0  0  0  0  0  0  0  0  0
   42.8810   20.0610   37.7150 H   0  0  0  0  0  0  0  0  0  0  0  0
   40.7390   20.9830   38.2730 H   0  0  0  0  0  0  0  0  0  0  0  0
   41.4010   26.6210   34.4020 C   0  0  0  0  0  0  0  0  0  0  0  0
   41.8180   25.4490   35.0660 C   0  0  0  0  0  0  0  0  0  0  0  0
   41.0350   24.3110   35.0680 C   0  0  0  0  0  0  0  0  0  0  0  0
   39.8730   24.4540   34.3880 N   0  0  0  0  0  0  0  0  0  0  0  0
   39.4580   25.5490   33.7540 C   0  0  0  0  0  0  0  0  0  0  0  0
   40.2350   26.6460   33.7620 N   0  0  0  0  0  0  0  0  0  0  0  0
   42.0760   27.4680   34.4490 H   0  0  0  0  0  0  0  0  0  0  0  0
   42.7660   25.4570   35.5750 H   0  0  0  0  0  0  0  0  0  0  0  0
   36.1950   26.1440   33.0890 H   0  0  0  0  0  0  0  0  0  0  0  0
   37.1090   26.2230   33.6970 C   0  0  0  0  0  0  0  0  0  0  0  0
   37.2060   26.8300   34.7900 O   0  0  0  0  0  0  0  0  0  0  0  0
   38.2030   25.5340   33.0800 N   0  0  0  0  0  0  0  0  0  0  0  0
   38.1380   25.0180   32.1600 H   0  0  0  0  0  0  0  0  0  0  0  0
   39.1640   22.9360   38.4950 N   0  0  0  0  0  0  0  0  0  0  0  0
   39.4960   23.0200   37.2270 C   0  0  0  0  0  0  0  0  0  0  0  0
   38.2690   23.5530   36.8050 N   0  0  0  0  0  0  0  0  0  0  0  0
   38.2100   23.2280   38.8090 H   0  0  0  0  0  0  0  0  0  0  0  0
   37.4890   22.9390   36.4950 H   0  0  0  0  0  0  0  0  0  0  0  0
   37.9790   24.5550   36.7460 H   0  0  0  0  0  0  0  0  0  0  0  0
  1 25  1  0  0  0  0
  1  6  1  0  0  0  0
  2  1  2  0  0  0  0
  3  2  1  0  0  0  0
  3  4  2  0  0  0  0
  4  5  1  0  0  0  0
  5  6  2  0  0  0  0
  5  9  1  0  0  0  0
  6 10  1  0  0  0  0
  7  3  1  0  0  0  0
  8  4  1  0  0  0  0
 11 17  1  0  0  0  0
 11 12  1  0  0  0  0
 12 13  2  0  0  0  0
 12 18  1  0  0  0  0
 13  2  1  0  0  0  0
 14 13  1  0  0  0  0
 15 16  1  0  0  0  0
 15 14  2  0  0  0  0
 16 11  2  0  0  0  0
 19 20  1  0  0  0  0
 20 21  2  0  0  0  0
 22 20  1  0  0  0  0
 22 15  1  0  0  0  0
 23 22  1  0  0  0  0
 24 27  1  0  0  0  0
 25 24  2  0  0  0  0
 26 25  1  0  0  0  0
 28 26  1  0  0  0  0
 29 26  1  0  0  0  0
M  END
>  <minimizedAffinity>
-4.83964252

$$$$
