
 OpenBabel03272510003D

 17 17  0  0  0  0  0  0  0  0999 V2000
   37.7160   33.1140   49.4690 C   0  0  0  0  0  0  0  0  0  0  0  0
   38.5630   32.7840   48.4070 C   0  0  0  0  0  0  0  0  0  0  0  0
   38.5880   31.4620   47.9870 C   0  0  0  0  0  0  0  0  0  0  0  0
   37.7920   30.5570   48.6250 N   0  0  0  0  0  0  0  0  0  0  0  0
   36.9920   30.9190   49.6420 C   0  0  0  0  0  0  0  0  0  0  0  0
   36.9500   32.1900   50.0660 N   0  0  0  0  0  0  0  0  0  0  0  0
   37.7310   34.1570   49.7600 H   0  0  0  0  0  0  0  0  0  0  0  0
   39.2080   33.4740   47.8780 H   0  0  0  0  0  0  0  0  0  0  0  0
   39.5600   30.6220   44.8440 H   0  0  0  0  0  0  0  0  0  0  0  0
   38.8810   30.9500   45.6170 C   0  0  0  0  0  0  0  0  0  0  0  0
   37.6570   31.2580   45.4490 O   0  0  0  0  0  0  0  0  0  0  0  0
   39.4200   31.0370   46.9140 N   0  0  0  0  0  0  0  0  0  0  0  0
   40.4140   30.8020   47.1310 H   0  0  0  0  0  0  0  0  0  0  0  0
   36.1630   29.8620   50.2710 C   0  0  0  0  0  0  0  0  0  0  0  0
   36.3870   29.7490   51.6330 F   0  0  0  0  0  0  0  0  0  0  0  0
   34.7960   30.1600   50.1330 F   0  0  0  0  0  0  0  0  0  0  0  0
   36.3230   28.6240   49.7210 F   0  0  0  0  0  0  0  0  0  0  0  0
  1  7  1  0  0  0  0
  1  6  1  0  0  0  0
  2  1  2  0  0  0  0
  3  2  1  0  0  0  0
  3  4  2  0  0  0  0
  4  5  1  0  0  0  0
  5  6  2  0  0  0  0
  5 14  1  0  0  0  0
  8  2  1  0  0  0  0
  9 10  1  0  0  0  0
 10 12  1  0  0  0  0
 11 10  2  0  0  0  0
 12 13  1  0  0  0  0
 12  3  1  0  0  0  0
 14 15  1  0  0  0  0
 16 14  1  0  0  0  0
 17 14  1  0  0  0  0
M  END
>  <minimizedAffinity>
-4.83250141

>  <minimizedRMSD>
1.85927486

$$$$
