
 OpenBabel03272507083D

 23 24  0  0  0  0  0  0  0  0999 V2000
   36.6210   30.5300   49.7400 C   0  0  0  0  0  0  0  0  0  0  0  0
   37.6410   30.6660   50.6310 C   0  0  0  0  0  0  0  0  0  0  0  0
   38.5600   31.5630   50.0960 C   0  0  0  0  0  0  0  0  0  0  0  0
   38.0340   31.9390   48.8680 C   0  0  0  0  0  0  0  0  0  0  0  0
   36.8910   31.3010   48.7060 O   0  0  0  0  0  0  0  0  0  0  0  0
   37.8780   30.2540   51.6040 H   0  0  0  0  0  0  0  0  0  0  0  0
   39.5060   32.0220   50.3500 H   0  0  0  0  0  0  0  0  0  0  0  0
   39.2960   33.2850   45.9280 H   0  0  0  0  0  0  0  0  0  0  0  0
   39.1830   32.4690   46.6410 C   0  0  0  0  0  0  0  0  0  0  0  0
   39.7130   31.3290   46.5110 O   0  0  0  0  0  0  0  0  0  0  0  0
   38.3690   32.7910   47.7680 N   0  0  0  0  0  0  0  0  0  0  0  0
   37.9110   33.7170   47.9190 H   0  0  0  0  0  0  0  0  0  0  0  0
   35.4870   29.6640   49.9830 C   0  0  0  0  0  0  0  0  0  0  0  0
   35.2310   29.3100   51.1550 O   0  0  0  0  0  0  0  0  0  0  0  0
   34.7050   29.2510   48.8450 C   0  0  0  0  0  0  0  0  0  0  0  0
   34.4210   27.9020   48.7210 C   0  0  0  0  0  0  0  0  0  0  0  0
   33.6640   27.4810   47.6240 C   0  0  0  0  0  0  0  0  0  0  0  0
   33.2430   28.4220   46.7310 N   0  0  0  0  0  0  0  0  0  0  0  0
   33.5310   29.7290   46.8730 C   0  0  0  0  0  0  0  0  0  0  0  0
   34.2540   30.1320   47.9190 N   0  0  0  0  0  0  0  0  0  0  0  0
   34.7660   27.1760   49.4420 H   0  0  0  0  0  0  0  0  0  0  0  0
   33.4070   26.4410   47.4710 H   0  0  0  0  0  0  0  0  0  0  0  0
   33.2070   30.4900   46.1770 H   0  0  0  0  0  0  0  0  0  0  0  0
  1 13  1  0  0  0  0
  1  2  2  0  0  0  0
  2  6  1  0  0  0  0
  3  7  1  0  0  0  0
  3  2  1  0  0  0  0
  4  3  2  0  0  0  0
  5  4  1  0  0  0  0
  5  1  1  0  0  0  0
  8  9  1  0  0  0  0
  9 11  1  0  0  0  0
 10  9  2  0  0  0  0
 11 12  1  0  0  0  0
 11  4  1  0  0  0  0
 13 14  2  0  0  0  0
 15 13  1  0  0  0  0
 16 15  1  0  0  0  0
 16 21  1  0  0  0  0
 17 16  2  0  0  0  0
 18 19  2  0  0  0  0
 18 17  1  0  0  0  0
 19 20  1  0  0  0  0
 20 15  2  0  0  0  0
 22 17  1  0  0  0  0
 23 19  1  0  0  0  0
M  END
>  <minimizedAffinity>
-5.12544537

>  <minimizedRMSD>
5.71079683

$$$$
