
 OpenBabel03272501283D

 35 37  0  0  1  0  0  0  0  0999 V2000
   35.9070   29.3990   33.8000 C   0  0  0  0  0  0  0  0  0  0  0  0
   36.4220   28.1500   34.1140 C   0  0  0  0  0  0  0  0  0  0  0  0
   36.9330   27.6000   32.9310 C   0  0  0  0  0  0  0  0  0  0  0  0
   36.7130   28.5190   31.9670 N   0  0  0  0  0  0  0  0  0  0  0  0
   36.1090   29.5640   32.5050 N   0  0  0  0  0  0  0  0  0  0  0  0
   36.4900   27.5780   35.0380 H   0  0  0  0  0  0  0  0  0  0  0  0
   37.4120   26.6290   32.8110 H   0  0  0  0  0  0  0  0  0  0  0  0
   36.0210   31.1040   35.6310 C   0  0  0  0  0  0  0  0  0  0  0  0
   35.2900   30.2600   34.7970 C   0  0  0  0  0  0  0  0  0  0  0  0
   33.9020   30.2560   34.9430 C   0  0  0  0  0  0  0  0  0  0  0  0
   33.3590   31.0640   35.8750 N   0  0  0  0  0  0  0  0  0  0  0  0
   34.0940   31.8720   36.6690 C   0  0  0  0  0  0  0  0  0  0  0  0
   35.4520   31.8920   36.5440 N   0  0  0  0  0  0  0  0  0  0  0  0
   37.1050   31.1110   35.5210 H   0  0  0  0  0  0  0  0  0  0  0  0
   33.2770   29.6090   34.3120 H   0  0  0  0  0  0  0  0  0  0  0  0
   33.3560   34.6740   38.5520 H   0  0  0  0  0  0  0  0  0  0  0  0
   33.8470   34.0440   37.7980 C   0  0  0  0  0  0  0  0  0  0  0  0
   34.7680   34.4830   37.0410 O   0  0  0  0  0  0  0  0  0  0  0  0
   33.4760   32.7010   37.6330 N   0  0  0  0  0  0  0  0  0  0  0  0
   32.7300   32.3400   38.2440 H   0  0  0  0  0  0  0  0  0  0  0  0
   36.8520   29.6970   29.8760 N   0  0  0  0  0  0  0  0  0  0  0  0
   37.6160   29.5390   28.6550 C   0  0  0  0  0  0  0  0  0  0  0  0
   38.5980   28.4020   28.8580 C   0  0  0  0  0  0  0  0  0  0  0  0
   38.5130   28.2080   30.3730 C   0  0  0  0  0  0  0  0  0  0  0  0
   37.0440   28.4470   30.5860 C   0  0  1  0  0  0  0  0  0  0  0  0
   37.2240   30.4770   30.4700 H   0  0  0  0  0  0  0  0  0  0  0  0
   38.1690   30.4900   28.4030 H   0  0  0  0  0  0  0  0  0  0  0  0
   36.9090   29.2810   27.8420 H   0  0  0  0  0  0  0  0  0  0  0  0
   38.2890   27.4810   28.3360 H   0  0  0  0  0  0  0  0  0  0  0  0
   39.6340   28.6700   28.5490 H   0  0  0  0  0  0  0  0  0  0  0  0
   39.1450   28.9230   30.9130 H   0  0  0  0  0  0  0  0  0  0  0  0
   38.7300   27.1420   30.5780 H   0  0  0  0  0  0  0  0  0  0  0  0
   36.2970   27.3690   29.9970 N   0  0  0  0  0  0  0  0  0  0  0  0
   36.5810   26.4720   30.4050 H   0  0  0  0  0  0  0  0  0  0  0  0
   35.2690   27.5660   30.0640 H   0  0  0  0  0  0  0  0  0  0  0  0
  1  2  1  0  0  0  0
  1  9  1  0  0  0  0
  2  6  1  0  0  0  0
  3  2  2  0  0  0  0
  4  5  1  0  0  0  0
  4  3  1  0  0  0  0
  5  1  2  0  0  0  0
  7  3  1  0  0  0  0
  8 13  1  0  0  0  0
  9 10  1  0  0  0  0
  9  8  2  0  0  0  0
 10 11  2  0  0  0  0
 11 12  1  0  0  0  0
 12 19  1  0  0  0  0
 13 12  2  0  0  0  0
 14  8  1  0  0  0  0
 15 10  1  0  0  0  0
 17 16  1  0  0  0  0
 18 17  2  0  0  0  0
 19 17  1  0  0  0  0
 19 20  1  0  0  0  0
 21 26  1  0  0  0  0
 21 25  1  0  0  0  0
 22 23  1  0  0  0  0
 22 21  1  0  0  0  0
 23 24  1  0  0  0  0
 24 32  1  0  0  0  0
 24 25  1  0  0  0  0
 24 31  1  0  0  0  0
 25 33  1  6  0  0  0
 25  4  1  0  0  0  0
 27 22  1  0  0  0  0
 28 22  1  0  0  0  0
 29 23  1  0  0  0  0
 30 23  1  0  0  0  0
 33 35  1  0  0  0  0
 33 34  1  0  0  0  0
M  END
>  <minimizedAffinity>
-5.47472906

$$$$

 OpenBabel03272501283D

 35 37  0  0  1  0  0  0  0  0999 V2000
   37.6590   26.2480   34.0510 C   0  0  0  0  0  0  0  0  0  0  0  0
   36.9110   27.3100   34.5390 C   0  0  0  0  0  0  0  0  0  0  0  0
   36.5690   28.1170   33.4460 C   0  0  0  0  0  0  0  0  0  0  0  0
   37.1120   27.5250   32.3610 N   0  0  0  0  0  0  0  0  0  0  0  0
   37.7450   26.4310   32.7450 N   0  0  0  0  0  0  0  0  0  0  0  0
   36.5770   27.5950   35.5360 H   0  0  0  0  0  0  0  0  0  0  0  0
   35.9850   29.0360   33.4660 H   0  0  0  0  0  0  0  0  0  0  0  0
   39.0580   24.2130   34.4670 C   0  0  0  0  0  0  0  0  0  0  0  0
   38.1870   25.2040   34.9140 C   0  0  0  0  0  0  0  0  0  0  0  0
   37.8150   25.1740   36.2590 C   0  0  0  0  0  0  0  0  0  0  0  0
   38.3200   24.1940   37.0360 N   0  0  0  0  0  0  0  0  0  0  0  0
   39.1630   23.2470   36.5730 C   0  0  0  0  0  0  0  0  0  0  0  0
   39.5400   23.2570   35.2620 N   0  0  0  0  0  0  0  0  0  0  0  0
   39.3510   24.2330   33.4170 H   0  0  0  0  0  0  0  0  0  0  0  0
   37.1310   25.9300   36.6660 H   0  0  0  0  0  0  0  0  0  0  0  0
   41.3930   21.0910   38.0970 H   0  0  0  0  0  0  0  0  0  0  0  0
   41.0200   21.8760   37.4250 C   0  0  0  0  0  0  0  0  0  0  0  0
   41.7790   22.4940   36.6150 O   0  0  0  0  0  0  0  0  0  0  0  0
   39.6650   22.2400   37.4280 N   0  0  0  0  0  0  0  0  0  0  0  0
   39.0460   21.7420   38.0820 H   0  0  0  0  0  0  0  0  0  0  0  0
   36.6970   29.3440   30.8440 N   0  0  0  0  0  0  0  0  0  0  0  0
   37.0990   29.6660   29.4900 C   0  0  0  0  0  0  0  0  0  0  0  0
   38.0820   28.6080   29.0260 C   0  0  0  0  0  0  0  0  0  0  0  0
   38.4080   27.9110   30.3480 C   0  0  0  0  0  0  0  0  0  0  0  0
   37.0550   27.9470   31.0050 C   0  0  1  0  0  0  0  0  0  0  0  0
   37.2280   29.9060   31.5520 H   0  0  0  0  0  0  0  0  0  0  0  0
   37.5780   30.6870   29.4470 H   0  0  0  0  0  0  0  0  0  0  0  0
   36.1950   29.6410   28.8510 H   0  0  0  0  0  0  0  0  0  0  0  0
   37.6290   27.8950   28.3180 H   0  0  0  0  0  0  0  0  0  0  0  0
   39.0000   29.0460   28.5710 H   0  0  0  0  0  0  0  0  0  0  0  0
   39.1740   28.4520   30.9170 H   0  0  0  0  0  0  0  0  0  0  0  0
   38.6560   26.8590   30.1100 H   0  0  0  0  0  0  0  0  0  0  0  0
   36.1600   27.0740   30.2950 N   0  0  0  0  0  0  0  0  0  0  0  0
   36.5300   26.1180   30.2810 H   0  0  0  0  0  0  0  0  0  0  0  0
   35.1920   27.1550   30.6900 H   0  0  0  0  0  0  0  0  0  0  0  0
  1  2  1  0  0  0  0
  1  9  1  0  0  0  0
  2  6  1  0  0  0  0
  3  7  1  0  0  0  0
  3  2  2  0  0  0  0
  4  5  1  0  0  0  0
  4  3  1  0  0  0  0
  5  1  2  0  0  0  0
  8  9  2  0  0  0  0
  8 13  1  0  0  0  0
  9 10  1  0  0  0  0
 10 15  1  0  0  0  0
 10 11  2  0  0  0  0
 12 11  1  0  0  0  0
 12 19  1  0  0  0  0
 13 12  2  0  0  0  0
 14  8  1  0  0  0  0
 17 19  1  0  0  0  0
 17 16  1  0  0  0  0
 18 17  2  0  0  0  0
 19 20  1  0  0  0  0
 21 25  1  0  0  0  0
 21 26  1  0  0  0  0
 22 21  1  0  0  0  0
 23 22  1  0  0  0  0
 23 24  1  0  0  0  0
 24 31  1  0  0  0  0
 24 25  1  0  0  0  0
 25 33  1  6  0  0  0
 25  4  1  0  0  0  0
 27 22  1  0  0  0  0
 28 22  1  0  0  0  0
 29 23  1  0  0  0  0
 30 23  1  0  0  0  0
 32 24  1  0  0  0  0
 33 35  1  0  0  0  0
 34 33  1  0  0  0  0
M  END
>  <minimizedAffinity>
-5.45278311

$$$$

 OpenBabel03272501283D

 35 37  0  0  1  0  0  0  0  0999 V2000
   37.6560   24.7820   33.1620 C   0  0  0  0  0  0  0  0  0  0  0  0
   37.8180   23.5270   32.5930 C   0  0  0  0  0  0  0  0  0  0  0  0
   38.1600   22.6420   33.6240 C   0  0  0  0  0  0  0  0  0  0  0  0
   38.1910   23.3800   34.7540 N   0  0  0  0  0  0  0  0  0  0  0  0
   37.8910   24.6320   34.4540 N   0  0  0  0  0  0  0  0  0  0  0  0
   37.7330   23.1490   31.5750 H   0  0  0  0  0  0  0  0  0  0  0  0
   38.3610   21.5760   33.5340 H   0  0  0  0  0  0  0  0  0  0  0  0
   37.9810   27.1630   32.4590 C   0  0  0  0  0  0  0  0  0  0  0  0
   37.2970   25.9520   32.3780 C   0  0  0  0  0  0  0  0  0  0  0  0
   36.2170   25.8820   31.4960 C   0  0  0  0  0  0  0  0  0  0  0  0
   35.9060   26.9840   30.7830 N   0  0  0  0  0  0  0  0  0  0  0  0
   36.5900   28.1440   30.8830 C   0  0  0  0  0  0  0  0  0  0  0  0
   37.6490   28.2350   31.7380 N   0  0  0  0  0  0  0  0  0  0  0  0
   38.8260   27.2230   33.1460 H   0  0  0  0  0  0  0  0  0  0  0  0
   35.6410   24.9530   31.3930 H   0  0  0  0  0  0  0  0  0  0  0  0
   36.8800   30.9220   28.8480 H   0  0  0  0  0  0  0  0  0  0  0  0
   37.1810   30.0490   29.4430 C   0  0  0  0  0  0  0  0  0  0  0  0
   38.3950   29.6940   29.5610 O   0  0  0  0  0  0  0  0  0  0  0  0
   36.2250   29.2710   30.1120 N   0  0  0  0  0  0  0  0  0  0  0  0
   35.2400   29.5540   30.0200 H   0  0  0  0  0  0  0  0  0  0  0  0
   39.8960   22.7000   36.3060 N   0  0  0  0  0  0  0  0  0  0  0  0
   40.0350   22.7010   37.7480 C   0  0  0  0  0  0  0  0  0  0  0  0
   38.8200   23.3920   38.3370 C   0  0  0  0  0  0  0  0  0  0  0  0
   38.2140   24.0360   37.0890 C   0  0  0  0  0  0  0  0  0  0  0  0
   38.4870   22.9550   36.0780 C   0  0  1  0  0  0  0  0  0  0  0  0
   40.4490   23.4720   35.8610 H   0  0  0  0  0  0  0  0  0  0  0  0
   40.9770   23.2390   38.0590 H   0  0  0  0  0  0  0  0  0  0  0  0
   40.0660   21.6480   38.0880 H   0  0  0  0  0  0  0  0  0  0  0  0
   38.1070   22.6800   38.7850 H   0  0  0  0  0  0  0  0  0  0  0  0
   39.0900   24.1660   39.0910 H   0  0  0  0  0  0  0  0  0  0  0  0
   38.7030   24.9860   36.8400 H   0  0  0  0  0  0  0  0  0  0  0  0
   37.1220   24.0980   37.2510 H   0  0  0  0  0  0  0  0  0  0  0  0
   37.6740   21.8080   36.3790 N   0  0  0  0  0  0  0  0  0  0  0  0
   36.6800   22.0640   36.3760 H   0  0  0  0  0  0  0  0  0  0  0  0
   37.9160   21.0190   35.7340 H   0  0  0  0  0  0  0  0  0  0  0  0
  1  5  2  0  0  0  0
  2  1  1  0  0  0  0
  2  3  2  0  0  0  0
  3  4  1  0  0  0  0
  4 25  1  0  0  0  0
  5  4  1  0  0  0  0
  6  2  1  0  0  0  0
  7  3  1  0  0  0  0
  8 14  1  0  0  0  0
  9  8  1  0  0  0  0
  9  1  1  0  0  0  0
 10  9  2  0  0  0  0
 11 12  2  0  0  0  0
 11 10  1  0  0  0  0
 12 13  1  0  0  0  0
 13  8  2  0  0  0  0
 15 10  1  0  0  0  0
 16 17  1  0  0  0  0
 17 18  2  0  0  0  0
 17 19  1  0  0  0  0
 19 12  1  0  0  0  0
 20 19  1  0  0  0  0
 21 22  1  0  0  0  0
 22 27  1  0  0  0  0
 22 28  1  0  0  0  0
 22 23  1  0  0  0  0
 23 29  1  0  0  0  0
 23 30  1  0  0  0  0
 24 32  1  0  0  0  0
 24 23  1  0  0  0  0
 25 21  1  0  0  0  0
 25 33  1  1  0  0  0
 25 24  1  0  0  0  0
 26 21  1  0  0  0  0
 31 24  1  0  0  0  0
 34 33  1  0  0  0  0
 35 33  1  0  0  0  0
M  END
>  <minimizedAffinity>
-5.34473467

$$$$

 OpenBabel03272501283D

 35 37  0  0  1  0  0  0  0  0999 V2000
   38.0770   25.4020   34.2930 C   0  0  0  0  0  0  0  0  0  0  0  0
   37.7500   25.8640   35.5600 C   0  0  0  0  0  0  0  0  0  0  0  0
   38.2640   24.9470   36.4850 C   0  0  0  0  0  0  0  0  0  0  0  0
   38.8720   23.9850   35.7590 N   0  0  0  0  0  0  0  0  0  0  0  0
   38.7470   24.2770   34.4760 N   0  0  0  0  0  0  0  0  0  0  0  0
   37.2090   26.7380   35.9220 H   0  0  0  0  0  0  0  0  0  0  0  0
   38.1910   24.9980   37.5710 H   0  0  0  0  0  0  0  0  0  0  0  0
   37.9870   27.4570   32.8660 C   0  0  0  0  0  0  0  0  0  0  0  0
   37.6970   26.1110   33.0820 C   0  0  0  0  0  0  0  0  0  0  0  0
   37.0080   25.4320   32.0770 C   0  0  0  0  0  0  0  0  0  0  0  0
   36.6680   26.1160   30.9660 N   0  0  0  0  0  0  0  0  0  0  0  0
   36.9640   27.4220   30.7850 C   0  0  0  0  0  0  0  0  0  0  0  0
   37.6360   28.1050   31.7540 N   0  0  0  0  0  0  0  0  0  0  0  0
   38.5250   27.9920   33.6490 H   0  0  0  0  0  0  0  0  0  0  0  0
   36.7530   24.3710   32.1950 H   0  0  0  0  0  0  0  0  0  0  0  0
   37.1610   29.4550   27.9970 H   0  0  0  0  0  0  0  0  0  0  0  0
   37.4710   28.9400   28.9160 C   0  0  0  0  0  0  0  0  0  0  0  0
   38.6340   29.0750   29.4110 O   0  0  0  0  0  0  0  0  0  0  0  0
   36.5850   28.0940   29.6000 N   0  0  0  0  0  0  0  0  0  0  0  0
   35.6420   27.9810   29.2040 H   0  0  0  0  0  0  0  0  0  0  0  0
   40.6730   22.4370   35.3880 N   0  0  0  0  0  0  0  0  0  0  0  0
   41.4520   21.5450   36.2240 C   0  0  0  0  0  0  0  0  0  0  0  0
   41.0350   21.7680   37.6650 C   0  0  0  0  0  0  0  0  0  0  0  0
   40.2330   23.0640   37.5420 C   0  0  0  0  0  0  0  0  0  0  0  0
   39.5520   22.8260   36.2220 C   0  0  1  0  0  0  0  0  0  0  0  0
   41.2120   23.2990   35.1320 H   0  0  0  0  0  0  0  0  0  0  0  0
   42.5560   21.7450   36.1030 H   0  0  0  0  0  0  0  0  0  0  0  0
   41.2170   20.5050   35.9240 H   0  0  0  0  0  0  0  0  0  0  0  0
   40.3960   20.9550   38.0480 H   0  0  0  0  0  0  0  0  0  0  0  0
   41.9060   21.9040   38.3470 H   0  0  0  0  0  0  0  0  0  0  0  0
   40.8810   23.9480   37.5350 H   0  0  0  0  0  0  0  0  0  0  0  0
   39.4660   23.0500   38.3400 H   0  0  0  0  0  0  0  0  0  0  0  0
   38.5920   21.7650   36.3670 N   0  0  0  0  0  0  0  0  0  0  0  0
   37.9050   22.0020   37.0910 H   0  0  0  0  0  0  0  0  0  0  0  0
   38.1720   21.5320   35.4350 H   0  0  0  0  0  0  0  0  0  0  0  0
  1  5  2  0  0  0  0
  1  2  1  0  0  0  0
  2  6  1  0  0  0  0
  2  3  2  0  0  0  0
  3  7  1  0  0  0  0
  4 25  1  0  0  0  0
  4  3  1  0  0  0  0
  5  4  1  0  0  0  0
  8  9  1  0  0  0  0
  8 14  1  0  0  0  0
  9  1  1  0  0  0  0
 10 15  1  0  0  0  0
 10  9  2  0  0  0  0
 11 10  1  0  0  0  0
 12 11  2  0  0  0  0
 12 13  1  0  0  0  0
 13  8  2  0  0  0  0
 16 17  1  0  0  0  0
 17 18  2  0  0  0  0
 17 19  1  0  0  0  0
 19 12  1  0  0  0  0
 20 19  1  0  0  0  0
 21 25  1  0  0  0  0
 21 22  1  0  0  0  0
 22 23  1  0  0  0  0
 23 29  1  0  0  0  0
 23 30  1  0  0  0  0
 24 23  1  0  0  0  0
 24 32  1  0  0  0  0
 25 33  1  1  0  0  0
 25 24  1  0  0  0  0
 26 21  1  0  0  0  0
 27 22  1  0  0  0  0
 28 22  1  0  0  0  0
 31 24  1  0  0  0  0
 33 34  1  0  0  0  0
 35 33  1  0  0  0  0
M  END
>  <minimizedAffinity>
-5.30706787

$$$$

 OpenBabel03272501283D

 35 37  0  0  1  0  0  0  0  0999 V2000
   37.2950   27.4180   33.1690 C   0  0  0  0  0  0  0  0  0  0  0  0
   36.3190   28.3650   33.4440 C   0  0  0  0  0  0  0  0  0  0  0  0
   36.1450   29.1350   32.2870 C   0  0  0  0  0  0  0  0  0  0  0  0
   37.0040   28.6340   31.3740 N   0  0  0  0  0  0  0  0  0  0  0  0
   37.6660   27.6280   31.9180 N   0  0  0  0  0  0  0  0  0  0  0  0
   35.7210   28.5900   34.3270 H   0  0  0  0  0  0  0  0  0  0  0  0
   35.4560   29.9670   32.1490 H   0  0  0  0  0  0  0  0  0  0  0  0
   38.0530   26.7780   35.4680 C   0  0  0  0  0  0  0  0  0  0  0  0
   37.7340   26.4430   34.1540 C   0  0  0  0  0  0  0  0  0  0  0  0
   37.8490   25.1010   33.7860 C   0  0  0  0  0  0  0  0  0  0  0  0
   38.2590   24.2190   34.7200 N   0  0  0  0  0  0  0  0  0  0  0  0
   38.5610   24.5750   35.9880 C   0  0  0  0  0  0  0  0  0  0  0  0
   38.4550   25.8800   36.3690 N   0  0  0  0  0  0  0  0  0  0  0  0
   37.9640   27.8250   35.7600 H   0  0  0  0  0  0  0  0  0  0  0  0
   37.6110   24.7810   32.7630 H   0  0  0  0  0  0  0  0  0  0  0  0
   38.8160   22.8240   38.9560 H   0  0  0  0  0  0  0  0  0  0  0  0
   38.4740   23.5800   38.2360 C   0  0  0  0  0  0  0  0  0  0  0  0
   37.6080   24.4600   38.5350 O   0  0  0  0  0  0  0  0  0  0  0  0
   38.9860   23.6120   36.9310 N   0  0  0  0  0  0  0  0  0  0  0  0
   39.6880   22.9010   36.6830 H   0  0  0  0  0  0  0  0  0  0  0  0
   36.6630   30.3710   29.7480 N   0  0  0  0  0  0  0  0  0  0  0  0
   37.3300   30.7860   28.5300 C   0  0  0  0  0  0  0  0  0  0  0  0
   38.5750   29.9360   28.3620 C   0  0  0  0  0  0  0  0  0  0  0  0
   38.6760   29.2880   29.7440 C   0  0  0  0  0  0  0  0  0  0  0  0
   37.2180   29.0620   30.0350 C   0  0  1  0  0  0  0  0  0  0  0  0
   36.8840   31.0090   30.5490 H   0  0  0  0  0  0  0  0  0  0  0  0
   37.6090   31.8790   28.5790 H   0  0  0  0  0  0  0  0  0  0  0  0
   36.6380   30.6060   27.6840 H   0  0  0  0  0  0  0  0  0  0  0  0
   38.4550   29.1640   27.5840 H   0  0  0  0  0  0  0  0  0  0  0  0
   39.4820   30.5440   28.1410 H   0  0  0  0  0  0  0  0  0  0  0  0
   39.1590   29.9500   30.4720 H   0  0  0  0  0  0  0  0  0  0  0  0
   39.1640   28.3050   29.6080 H   0  0  0  0  0  0  0  0  0  0  0  0
   36.7070   28.0520   29.1490 N   0  0  0  0  0  0  0  0  0  0  0  0
   37.2380   27.1800   29.2580 H   0  0  0  0  0  0  0  0  0  0  0  0
   35.6740   27.9460   29.2830 H   0  0  0  0  0  0  0  0  0  0  0  0
  1  2  1  0  0  0  0
  1  9  1  0  0  0  0
  2  6  1  0  0  0  0
  3  2  2  0  0  0  0
  4  5  1  0  0  0  0
  4  3  1  0  0  0  0
  5  1  2  0  0  0  0
  7  3  1  0  0  0  0
  8 14  1  0  0  0  0
  8 13  1  0  0  0  0
  9  8  2  0  0  0  0
 10  9  1  0  0  0  0
 10 11  2  0  0  0  0
 11 12  1  0  0  0  0
 12 13  2  0  0  0  0
 12 19  1  0  0  0  0
 15 10  1  0  0  0  0
 17 18  2  0  0  0  0
 17 16  1  0  0  0  0
 19 17  1  0  0  0  0
 20 19  1  0  0  0  0
 21 25  1  0  0  0  0
 21 26  1  0  0  0  0
 22 27  1  0  0  0  0
 22 21  1  0  0  0  0
 23 22  1  0  0  0  0
 23 24  1  0  0  0  0
 24 25  1  0  0  0  0
 24 31  1  0  0  0  0
 25 33  1  6  0  0  0
 25  4  1  0  0  0  0
 28 22  1  0  0  0  0
 29 23  1  0  0  0  0
 30 23  1  0  0  0  0
 32 24  1  0  0  0  0
 33 34  1  0  0  0  0
 33 35  1  0  0  0  0
M  END
>  <minimizedAffinity>
-5.26310158

$$$$

 OpenBabel03272501283D

 35 37  0  0  1  0  0  0  0  0999 V2000
   37.4310   26.1430   34.0310 C   0  0  0  0  0  0  0  0  0  0  0  0
   37.9120   25.2050   33.1300 C   0  0  0  0  0  0  0  0  0  0  0  0
   38.3470   24.0980   33.8700 C   0  0  0  0  0  0  0  0  0  0  0  0
   38.1170   24.4020   35.1650 N   0  0  0  0  0  0  0  0  0  0  0  0
   37.5790   25.6070   35.2310 N   0  0  0  0  0  0  0  0  0  0  0  0
   38.0000   25.1860   32.0440 H   0  0  0  0  0  0  0  0  0  0  0  0
   38.7830   23.1780   33.4820 H   0  0  0  0  0  0  0  0  0  0  0  0
   36.1850   28.2720   34.4590 C   0  0  0  0  0  0  0  0  0  0  0  0
   36.8950   27.4260   33.6090 C   0  0  0  0  0  0  0  0  0  0  0  0
   37.0870   27.8510   32.2930 C   0  0  0  0  0  0  0  0  0  0  0  0
   36.5770   29.0450   31.9300 N   0  0  0  0  0  0  0  0  0  0  0  0
   35.8940   29.8440   32.7780 C   0  0  0  0  0  0  0  0  0  0  0  0
   35.6940   29.4490   34.0680 N   0  0  0  0  0  0  0  0  0  0  0  0
   36.0330   27.9450   35.4880 H   0  0  0  0  0  0  0  0  0  0  0  0
   37.6380   27.2240   31.5800 H   0  0  0  0  0  0  0  0  0  0  0  0
   35.1130   33.2100   32.7710 H   0  0  0  0  0  0  0  0  0  0  0  0
   35.5180   32.2510   33.1210 C   0  0  0  0  0  0  0  0  0  0  0  0
   36.1280   32.1350   34.2290 O   0  0  0  0  0  0  0  0  0  0  0  0
   35.3800   31.0880   32.3480 N   0  0  0  0  0  0  0  0  0  0  0  0
   34.8860   31.1770   31.4490 H   0  0  0  0  0  0  0  0  0  0  0  0
   39.7870   23.3020   36.4990 N   0  0  0  0  0  0  0  0  0  0  0  0
   39.8880   22.8870   37.8840 C   0  0  0  0  0  0  0  0  0  0  0  0
   38.6540   23.3790   38.6140 C   0  0  0  0  0  0  0  0  0  0  0  0
   38.0770   24.3560   37.5890 C   0  0  0  0  0  0  0  0  0  0  0  0
   38.3820   23.6130   36.3170 C   0  0  1  0  0  0  0  0  0  0  0  0
   40.3460   24.1680   36.3110 H   0  0  0  0  0  0  0  0  0  0  0  0
   40.8190   23.3110   38.3620 H   0  0  0  0  0  0  0  0  0  0  0  0
   39.9190   21.7800   37.9060 H   0  0  0  0  0  0  0  0  0  0  0  0
   37.9350   22.5680   38.8190 H   0  0  0  0  0  0  0  0  0  0  0  0
   38.9000   23.9020   39.5670 H   0  0  0  0  0  0  0  0  0  0  0  0
   38.5650   25.3370   37.6390 H   0  0  0  0  0  0  0  0  0  0  0  0
   36.9800   24.3700   37.7330 H   0  0  0  0  0  0  0  0  0  0  0  0
   37.5700   22.4290   36.2530 N   0  0  0  0  0  0  0  0  0  0  0  0
   36.5750   22.6750   36.2980 H   0  0  0  0  0  0  0  0  0  0  0  0
   37.8340   21.8580   35.4140 H   0  0  0  0  0  0  0  0  0  0  0  0
  1  5  2  0  0  0  0
  2  3  2  0  0  0  0
  2  1  1  0  0  0  0
  3  4  1  0  0  0  0
  4  5  1  0  0  0  0
  4 25  1  0  0  0  0
  6  2  1  0  0  0  0
  7  3  1  0  0  0  0
  8 14  1  0  0  0  0
  9  1  1  0  0  0  0
  9  8  2  0  0  0  0
 10  9  1  0  0  0  0
 11 10  2  0  0  0  0
 11 12  1  0  0  0  0
 12 13  2  0  0  0  0
 13  8  1  0  0  0  0
 15 10  1  0  0  0  0
 16 17  1  0  0  0  0
 17 18  2  0  0  0  0
 19 12  1  0  0  0  0
 19 17  1  0  0  0  0
 20 19  1  0  0  0  0
 21 22  1  0  0  0  0
 22 28  1  0  0  0  0
 22 27  1  0  0  0  0
 22 23  1  0  0  0  0
 23 29  1  0  0  0  0
 23 30  1  0  0  0  0
 24 31  1  0  0  0  0
 24 32  1  0  0  0  0
 24 23  1  0  0  0  0
 25 33  1  6  0  0  0
 25 21  1  0  0  0  0
 25 24  1  0  0  0  0
 26 21  1  0  0  0  0
 33 34  1  0  0  0  0
 35 33  1  0  0  0  0
M  END
>  <minimizedAffinity>
-5.24075985

$$$$

 OpenBabel03272501283D

 35 37  0  0  1  0  0  0  0  0999 V2000
   37.4530   26.4920   34.4970 C   0  0  0  0  0  0  0  0  0  0  0  0
   37.5770   26.6100   33.1200 C   0  0  0  0  0  0  0  0  0  0  0  0
   36.8990   27.7740   32.7370 C   0  0  0  0  0  0  0  0  0  0  0  0
   36.4020   28.3070   33.8730 N   0  0  0  0  0  0  0  0  0  0  0  0
   36.7420   27.5350   34.8900 N   0  0  0  0  0  0  0  0  0  0  0  0
   38.0660   26.0040   32.3580 H   0  0  0  0  0  0  0  0  0  0  0  0
   36.7940   28.1710   31.7280 H   0  0  0  0  0  0  0  0  0  0  0  0
   38.9430   24.4890   34.6810 C   0  0  0  0  0  0  0  0  0  0  0  0
   38.0400   25.3900   35.2410 C   0  0  0  0  0  0  0  0  0  0  0  0
   37.6940   25.2060   36.5800 C   0  0  0  0  0  0  0  0  0  0  0  0
   38.2530   24.1740   37.2450 N   0  0  0  0  0  0  0  0  0  0  0  0
   39.1280   23.3170   36.6740 C   0  0  0  0  0  0  0  0  0  0  0  0
   39.4790   23.4780   35.3670 N   0  0  0  0  0  0  0  0  0  0  0  0
   39.2160   24.6290   33.6350 H   0  0  0  0  0  0  0  0  0  0  0  0
   36.9860   25.8850   37.0720 H   0  0  0  0  0  0  0  0  0  0  0  0
   41.4730   21.1150   37.9370 H   0  0  0  0  0  0  0  0  0  0  0  0
   41.0550   21.9480   37.3540 C   0  0  0  0  0  0  0  0  0  0  0  0
   41.7730   22.6780   36.6020 O   0  0  0  0  0  0  0  0  0  0  0  0
   39.6870   22.2500   37.4140 N   0  0  0  0  0  0  0  0  0  0  0  0
   39.1010   21.6610   38.0220 H   0  0  0  0  0  0  0  0  0  0  0  0
   34.2440   29.2450   34.3650 N   0  0  0  0  0  0  0  0  0  0  0  0
   33.7660   30.5120   34.8810 C   0  0  0  0  0  0  0  0  0  0  0  0
   34.9720   31.3500   35.2610 C   0  0  0  0  0  0  0  0  0  0  0  0
   36.0840   30.3020   35.2150 C   0  0  0  0  0  0  0  0  0  0  0  0
   35.6340   29.4930   34.0300 C   0  0  1  0  0  0  0  0  0  0  0  0
   34.2070   28.4910   35.0910 H   0  0  0  0  0  0  0  0  0  0  0  0
   33.1030   30.3540   35.7810 H   0  0  0  0  0  0  0  0  0  0  0  0
   33.2010   31.0170   34.0730 H   0  0  0  0  0  0  0  0  0  0  0  0
   35.1720   32.1540   34.5330 H   0  0  0  0  0  0  0  0  0  0  0  0
   34.8830   31.7910   36.2810 H   0  0  0  0  0  0  0  0  0  0  0  0
   36.1320   29.7150   36.1400 H   0  0  0  0  0  0  0  0  0  0  0  0
   37.0190   30.8290   34.9460 H   0  0  0  0  0  0  0  0  0  0  0  0
   35.7700   30.2820   32.8360 N   0  0  0  0  0  0  0  0  0  0  0  0
   36.7420   30.5860   32.7180 H   0  0  0  0  0  0  0  0  0  0  0  0
   35.3800   29.7610   32.0150 H   0  0  0  0  0  0  0  0  0  0  0  0
  1  5  2  0  0  0  0
  1  9  1  0  0  0  0
  2  1  1  0  0  0  0
  3  2  2  0  0  0  0
  3  4  1  0  0  0  0
  4 25  1  0  0  0  0
  4  5  1  0  0  0  0
  6  2  1  0  0  0  0
  7  3  1  0  0  0  0
  8  9  2  0  0  0  0
  8 13  1  0  0  0  0
  9 10  1  0  0  0  0
 10 15  1  0  0  0  0
 10 11  2  0  0  0  0
 12 11  1  0  0  0  0
 12 19  1  0  0  0  0
 13 12  2  0  0  0  0
 14  8  1  0  0  0  0
 17 19  1  0  0  0  0
 17 16  1  0  0  0  0
 18 17  2  0  0  0  0
 19 20  1  0  0  0  0
 21 22  1  0  0  0  0
 21 26  1  0  0  0  0
 22 23  1  0  0  0  0
 22 27  1  0  0  0  0
 23 30  1  0  0  0  0
 24 23  1  0  0  0  0
 24 31  1  0  0  0  0
 25 33  1  6  0  0  0
 25 21  1  0  0  0  0
 25 24  1  0  0  0  0
 28 22  1  0  0  0  0
 29 23  1  0  0  0  0
 32 24  1  0  0  0  0
 34 33  1  0  0  0  0
 35 33  1  0  0  0  0
M  END
>  <minimizedAffinity>
-5.18218946

$$$$

 OpenBabel03272501283D

 35 37  0  0  1  0  0  0  0  0999 V2000
   36.4880   28.0840   33.7780 C   0  0  0  0  0  0  0  0  0  0  0  0
   36.3090   28.6780   32.5370 C   0  0  0  0  0  0  0  0  0  0  0  0
   35.7360   29.9370   32.7540 C   0  0  0  0  0  0  0  0  0  0  0  0
   35.5930   30.0560   34.0910 N   0  0  0  0  0  0  0  0  0  0  0  0
   36.0420   28.9540   34.6670 N   0  0  0  0  0  0  0  0  0  0  0  0
   36.5200   28.3590   31.5160 H   0  0  0  0  0  0  0  0  0  0  0  0
   35.4610   30.6730   32.0000 H   0  0  0  0  0  0  0  0  0  0  0  0
   37.5330   26.2690   35.1490 C   0  0  0  0  0  0  0  0  0  0  0  0
   37.0650   26.7590   33.9320 C   0  0  0  0  0  0  0  0  0  0  0  0
   37.1640   25.9210   32.8200 C   0  0  0  0  0  0  0  0  0  0  0  0
   37.7040   24.6970   32.9930 N   0  0  0  0  0  0  0  0  0  0  0  0
   38.1500   24.2500   34.1870 C   0  0  0  0  0  0  0  0  0  0  0  0
   38.0620   25.0520   35.2870 N   0  0  0  0  0  0  0  0  0  0  0  0
   37.4570   26.9200   36.0200 H   0  0  0  0  0  0  0  0  0  0  0  0
   36.8120   26.2560   31.8360 H   0  0  0  0  0  0  0  0  0  0  0  0
   38.8020   21.1040   35.4600 H   0  0  0  0  0  0  0  0  0  0  0  0
   38.3590   22.1060   35.3750 C   0  0  0  0  0  0  0  0  0  0  0  0
   37.5160   22.5490   36.2160 O   0  0  0  0  0  0  0  0  0  0  0  0
   38.7080   22.9580   34.3170 N   0  0  0  0  0  0  0  0  0  0  0  0
   39.3910   22.6040   33.6330 H   0  0  0  0  0  0  0  0  0  0  0  0
   33.8610   30.8150   35.5750 N   0  0  0  0  0  0  0  0  0  0  0  0
   33.7330   31.8820   36.5470 C   0  0  0  0  0  0  0  0  0  0  0  0
   35.0750   32.5770   36.6620 C   0  0  0  0  0  0  0  0  0  0  0  0
   35.9830   31.5860   35.9320 C   0  0  0  0  0  0  0  0  0  0  0  0
   35.0590   31.1480   34.8290 C   0  0  1  0  0  0  0  0  0  0  0  0
   34.0040   29.8840   36.0360 H   0  0  0  0  0  0  0  0  0  0  0  0
   33.4180   31.4740   37.5510 H   0  0  0  0  0  0  0  0  0  0  0  0
   32.9740   32.5960   36.1700 H   0  0  0  0  0  0  0  0  0  0  0  0
   35.0880   33.5550   36.1520 H   0  0  0  0  0  0  0  0  0  0  0  0
   35.4010   32.7090   37.7190 H   0  0  0  0  0  0  0  0  0  0  0  0
   36.2930   30.7590   36.5830 H   0  0  0  0  0  0  0  0  0  0  0  0
   36.8110   32.1680   35.4870 H   0  0  0  0  0  0  0  0  0  0  0  0
   34.8460   32.2450   33.9240 N   0  0  0  0  0  0  0  0  0  0  0  0
   35.7400   32.5700   33.5400 H   0  0  0  0  0  0  0  0  0  0  0  0
   34.1380   31.9790   33.1990 H   0  0  0  0  0  0  0  0  0  0  0  0
  1  9  1  0  0  0  0
  1  5  2  0  0  0  0
  2  3  2  0  0  0  0
  2  1  1  0  0  0  0
  3  4  1  0  0  0  0
  4  5  1  0  0  0  0
  4 25  1  0  0  0  0
  6  2  1  0  0  0  0
  7  3  1  0  0  0  0
  8 13  1  0  0  0  0
  8 14  1  0  0  0  0
  9  8  2  0  0  0  0
 10 11  2  0  0  0  0
 10  9  1  0  0  0  0
 11 12  1  0  0  0  0
 12 19  1  0  0  0  0
 12 13  2  0  0  0  0
 15 10  1  0  0  0  0
 17 16  1  0  0  0  0
 17 18  2  0  0  0  0
 19 17  1  0  0  0  0
 20 19  1  0  0  0  0
 21 26  1  0  0  0  0
 21 22  1  0  0  0  0
 22 23  1  0  0  0  0
 22 27  1  0  0  0  0
 23 30  1  0  0  0  0
 24 31  1  0  0  0  0
 24 23  1  0  0  0  0
 25 33  1  6  0  0  0
 25 21  1  0  0  0  0
 25 24  1  0  0  0  0
 28 22  1  0  0  0  0
 29 23  1  0  0  0  0
 32 24  1  0  0  0  0
 34 33  1  0  0  0  0
 35 33  1  0  0  0  0
M  END
>  <minimizedAffinity>
-5.13412285

$$$$

 OpenBabel03272501283D

 35 37  0  0  1  0  0  0  0  0999 V2000
   37.2600   27.2560   34.4200 C   0  0  0  0  0  0  0  0  0  0  0  0
   37.8840   27.6970   35.5780 C   0  0  0  0  0  0  0  0  0  0  0  0
   38.3570   26.5660   36.2560 C   0  0  0  0  0  0  0  0  0  0  0  0
   38.0080   25.5050   35.4970 N   0  0  0  0  0  0  0  0  0  0  0  0
   37.3660   25.9390   34.4270 N   0  0  0  0  0  0  0  0  0  0  0  0
   38.0530   28.6840   36.0100 H   0  0  0  0  0  0  0  0  0  0  0  0
   38.8960   26.5440   37.2020 H   0  0  0  0  0  0  0  0  0  0  0  0
   35.6850   29.1110   33.8280 C   0  0  0  0  0  0  0  0  0  0  0  0
   36.6480   28.1690   33.4690 C   0  0  0  0  0  0  0  0  0  0  0  0
   37.0270   28.1170   32.1270 C   0  0  0  0  0  0  0  0  0  0  0  0
   36.4410   28.9760   31.2670 N   0  0  0  0  0  0  0  0  0  0  0  0
   35.5110   29.8780   31.6460 C   0  0  0  0  0  0  0  0  0  0  0  0
   35.1260   29.9470   32.9530 N   0  0  0  0  0  0  0  0  0  0  0  0
   35.3860   29.1560   34.8760 H   0  0  0  0  0  0  0  0  0  0  0  0
   37.7800   27.3940   31.7880 H   0  0  0  0  0  0  0  0  0  0  0  0
   34.3060   32.7930   30.2340 H   0  0  0  0  0  0  0  0  0  0  0  0
   34.7620   32.1240   30.9770 C   0  0  0  0  0  0  0  0  0  0  0  0
   35.1620   32.5380   32.1090 O   0  0  0  0  0  0  0  0  0  0  0  0
   34.9270   30.7570   30.7060 N   0  0  0  0  0  0  0  0  0  0  0  0
   34.6040   30.4160   29.7900 H   0  0  0  0  0  0  0  0  0  0  0  0
   37.9580   23.2730   34.6060 N   0  0  0  0  0  0  0  0  0  0  0  0
   38.6500   22.0330   34.8970 C   0  0  0  0  0  0  0  0  0  0  0  0
   39.6960   22.3160   35.9580 C   0  0  0  0  0  0  0  0  0  0  0  0
   39.7170   23.8450   35.9490 C   0  0  0  0  0  0  0  0  0  0  0  0
   38.2540   24.1260   35.7410 C   0  0  1  0  0  0  0  0  0  0  0  0
   38.3290   23.7310   33.7400 H   0  0  0  0  0  0  0  0  0  0  0  0
   39.1400   21.6200   33.9680 H   0  0  0  0  0  0  0  0  0  0  0  0
   37.9060   21.3120   35.2890 H   0  0  0  0  0  0  0  0  0  0  0  0
   39.3990   21.9420   36.9520 H   0  0  0  0  0  0  0  0  0  0  0  0
   40.6970   21.9030   35.6940 H   0  0  0  0  0  0  0  0  0  0  0  0
   40.3470   24.2410   35.1440 H   0  0  0  0  0  0  0  0  0  0  0  0
   39.9970   24.1730   36.9680 H   0  0  0  0  0  0  0  0  0  0  0  0
   37.5240   23.7370   36.9160 N   0  0  0  0  0  0  0  0  0  0  0  0
   37.8760   24.2390   37.7380 H   0  0  0  0  0  0  0  0  0  0  0  0
   36.4950   23.8480   36.7520 H   0  0  0  0  0  0  0  0  0  0  0  0
  1  5  2  0  0  0  0
  1  2  1  0  0  0  0
  2  6  1  0  0  0  0
  2  3  2  0  0  0  0
  3  7  1  0  0  0  0
  4 25  1  0  0  0  0
  4  3  1  0  0  0  0
  5  4  1  0  0  0  0
  8 14  1  0  0  0  0
  9  8  1  0  0  0  0
  9  1  1  0  0  0  0
 10  9  2  0  0  0  0
 11 12  2  0  0  0  0
 11 10  1  0  0  0  0
 12 13  1  0  0  0  0
 13  8  2  0  0  0  0
 15 10  1  0  0  0  0
 16 17  1  0  0  0  0
 17 18  2  0  0  0  0
 19 17  1  0  0  0  0
 19 12  1  0  0  0  0
 20 19  1  0  0  0  0
 21 22  1  0  0  0  0
 21 25  1  0  0  0  0
 22 28  1  0  0  0  0
 22 23  1  0  0  0  0
 23 29  1  0  0  0  0
 24 23  1  0  0  0  0
 24 32  1  0  0  0  0
 25 24  1  0  0  0  0
 25 33  1  1  0  0  0
 26 21  1  0  0  0  0
 27 22  1  0  0  0  0
 30 23  1  0  0  0  0
 31 24  1  0  0  0  0
 33 34  1  0  0  0  0
 35 33  1  0  0  0  0
M  END
>  <minimizedAffinity>
-5.06901073

$$$$
