
 OpenBabel03272510293D

 24 25  0  0  0  0  0  0  0  0999 V2000
   37.1980   31.1890   49.2490 C   0  0  0  0  0  0  0  0  0  0  0  0
   37.5820   32.4560   49.6860 C   0  0  0  0  0  0  0  0  0  0  0  0
   38.4620   33.1300   48.8510 C   0  0  0  0  0  0  0  0  0  0  0  0
   38.8930   32.5530   47.6970 N   0  0  0  0  0  0  0  0  0  0  0  0
   38.4930   31.3130   47.3080 C   0  0  0  0  0  0  0  0  0  0  0  0
   37.6240   30.6260   48.1130 N   0  0  0  0  0  0  0  0  0  0  0  0
   37.2330   32.9060   50.6050 H   0  0  0  0  0  0  0  0  0  0  0  0
   38.8340   34.1150   49.0770 H   0  0  0  0  0  0  0  0  0  0  0  0
   36.2220   30.4260   50.1030 C   0  0  0  0  0  0  0  0  0  0  0  0
   36.0070   29.0070   49.9610 C   0  0  0  0  0  0  0  0  0  0  0  0
   36.9110   29.4730   51.0810 C   0  0  0  0  0  0  0  0  0  0  0  0
   35.4330   31.0740   50.5340 H   0  0  0  0  0  0  0  0  0  0  0  0
   36.5950   28.4640   49.1650 H   0  0  0  0  0  0  0  0  0  0  0  0
   35.0480   28.5300   50.1720 H   0  0  0  0  0  0  0  0  0  0  0  0
   36.4420   29.4440   52.0840 H   0  0  0  0  0  0  0  0  0  0  0  0
   37.9920   29.3620   51.0150 H   0  0  0  0  0  0  0  0  0  0  0  0
   38.9360   30.6730   46.0740 C   0  0  0  0  0  0  0  0  0  0  0  0
   38.4730   31.1080   45.1810 H   0  0  0  0  0  0  0  0  0  0  0  0
   38.7350   29.6040   46.0530 H   0  0  0  0  0  0  0  0  0  0  0  0
   42.1600   31.5400   45.0950 H   0  0  0  0  0  0  0  0  0  0  0  0
   41.0680   31.5120   45.0180 C   0  0  0  0  0  0  0  0  0  0  0  0
   40.4800   32.0960   44.0580 O   0  0  0  0  0  0  0  0  0  0  0  0
   40.3950   30.8010   46.0370 N   0  0  0  0  0  0  0  0  0  0  0  0
   40.9220   30.3280   46.8210 H   0  0  0  0  0  0  0  0  0  0  0  0
  1  2  1  0  0  0  0
  1  9  1  0  0  0  0
  2  7  1  0  0  0  0
  3  8  1  0  0  0  0
  3  2  2  0  0  0  0
  4  3  1  0  0  0  0
  5  4  2  0  0  0  0
  5  6  1  0  0  0  0
  6  1  2  0  0  0  0
  9 12  1  0  0  0  0
  9 11  1  0  0  0  0
 10  9  1  0  0  0  0
 10 14  1  0  0  0  0
 10 11  1  0  0  0  0
 11 15  1  0  0  0  0
 13 10  1  0  0  0  0
 16 11  1  0  0  0  0
 17  5  1  0  0  0  0
 18 17  1  0  0  0  0
 19 17  1  0  0  0  0
 21 20  1  0  0  0  0
 21 23  1  0  0  0  0
 22 21  2  0  0  0  0
 23 17  1  0  0  0  0
 23 24  1  0  0  0  0
M  END
>  <minimizedAffinity>
-5.09957838

>  <minimizedRMSD>
0.841412365

$$$$
