
 OpenBabel03272509363D

 26 27  0  0  0  0  0  0  0  0999 V2000
   35.9380   29.5920   48.9880 C   0  0  0  0  0  0  0  0  0  0  0  0
   36.2290   29.2910   50.3150 C   0  0  0  0  0  0  0  0  0  0  0  0
   37.2610   29.9340   51.0050 C   0  0  0  0  0  0  0  0  0  0  0  0
   38.0320   30.9050   50.3700 C   0  0  0  0  0  0  0  0  0  0  0  0
   37.7290   31.1950   49.0410 C   0  0  0  0  0  0  0  0  0  0  0  0
   36.7160   30.5600   48.3710 C   0  0  0  0  0  0  0  0  0  0  0  0
   35.6710   28.5490   50.8710 H   0  0  0  0  0  0  0  0  0  0  0  0
   37.4580   29.6760   52.0330 H   0  0  0  0  0  0  0  0  0  0  0  0
   38.8050   31.3680   50.9300 H   0  0  0  0  0  0  0  0  0  0  0  0
   38.3100   31.9410   48.5280 H   0  0  0  0  0  0  0  0  0  0  0  0
   37.5350   30.9680   45.0430 H   0  0  0  0  0  0  0  0  0  0  0  0
   37.5620   30.7560   46.1200 C   0  0  0  0  0  0  0  0  0  0  0  0
   38.7650   30.4510   45.9890 O   0  0  0  0  0  0  0  0  0  0  0  0
   36.4460   30.8920   47.0130 N   0  0  0  0  0  0  0  0  0  0  0  0
   35.5970   31.2220   46.5020 H   0  0  0  0  0  0  0  0  0  0  0  0
   34.8540   28.8850   48.3330 C   0  0  0  0  0  0  0  0  0  0  0  0
   34.4700   27.8420   48.9590 O   0  0  0  0  0  0  0  0  0  0  0  0
   32.7450   30.8010   46.0740 C   0  0  0  0  0  0  0  0  0  0  0  0
   32.9710   30.2200   44.8340 C   0  0  0  0  0  0  0  0  0  0  0  0
   33.8530   29.1550   44.7490 C   0  0  0  0  0  0  0  0  0  0  0  0
   34.4770   28.7070   45.8840 N   0  0  0  0  0  0  0  0  0  0  0  0
   34.2290   29.3000   47.0660 C   0  0  0  0  0  0  0  0  0  0  0  0
   33.3760   30.3310   47.1550 N   0  0  0  0  0  0  0  0  0  0  0  0
   32.0470   31.6280   46.0750 H   0  0  0  0  0  0  0  0  0  0  0  0
   32.4830   30.5670   43.9240 H   0  0  0  0  0  0  0  0  0  0  0  0
   34.0600   28.6730   43.8070 H   0  0  0  0  0  0  0  0  0  0  0  0
  1  2  1  0  0  0  0
  2  7  1  0  0  0  0
  2  3  2  0  0  0  0
  3  8  1  0  0  0  0
  4  9  1  0  0  0  0
  4  3  1  0  0  0  0
  5  4  2  0  0  0  0
  6  1  2  0  0  0  0
  6  5  1  0  0  0  0
 10  5  1  0  0  0  0
 11 12  1  0  0  0  0
 12 14  1  0  0  0  0
 13 12  2  0  0  0  0
 14  6  1  0  0  0  0
 15 14  1  0  0  0  0
 16 17  2  0  0  0  0
 16  1  1  0  0  0  0
 18 24  1  0  0  0  0
 18 23  1  0  0  0  0
 19 18  2  0  0  0  0
 20 19  1  0  0  0  0
 20 21  2  0  0  0  0
 21 22  1  0  0  0  0
 22 23  2  0  0  0  0
 22 16  1  0  0  0  0
 25 19  1  0  0  0  0
 26 20  1  0  0  0  0
M  END
>  <minimizedAffinity>
-4.98573399

>  <minimizedRMSD>
0.742896497

$$$$
