
 OpenBabel03272510323D

 24 25  0  0  0  0  0  0  0  0999 V2000
   36.1010   30.3840   48.8720 C   0  0  0  0  0  0  0  0  0  0  0  0
   35.4080   29.9570   47.7800 C   0  0  0  0  0  0  0  0  0  0  0  0
   34.3950   29.0250   47.8660 C   0  0  0  0  0  0  0  0  0  0  0  0
   34.0940   28.5220   49.1260 C   0  0  0  0  0  0  0  0  0  0  0  0
   34.7720   28.9290   50.2540 C   0  0  0  0  0  0  0  0  0  0  0  0
   35.7820   29.8680   50.1180 C   0  0  0  0  0  0  0  0  0  0  0  0
   35.6370   30.3470   46.7840 H   0  0  0  0  0  0  0  0  0  0  0  0
   33.8200   28.6590   47.0260 H   0  0  0  0  0  0  0  0  0  0  0  0
   33.3120   27.7850   49.2840 H   0  0  0  0  0  0  0  0  0  0  0  0
   34.5460   28.5410   51.2510 H   0  0  0  0  0  0  0  0  0  0  0  0
   38.1010   33.3800   49.3540 C   0  0  0  0  0  0  0  0  0  0  0  0
   39.0940   33.2960   48.3810 C   0  0  0  0  0  0  0  0  0  0  0  0
   39.0680   32.1560   47.5250 C   0  0  0  0  0  0  0  0  0  0  0  0
   38.0910   31.2490   47.7190 N   0  0  0  0  0  0  0  0  0  0  0  0
   37.1500   31.3700   48.6720 C   0  0  0  0  0  0  0  0  0  0  0  0
   37.1570   32.4440   49.4950 N   0  0  0  0  0  0  0  0  0  0  0  0
   38.1080   34.2470   50.0170 H   0  0  0  0  0  0  0  0  0  0  0  0
   39.8550   34.0680   48.2830 H   0  0  0  0  0  0  0  0  0  0  0  0
   39.8320   32.0750   46.7640 H   0  0  0  0  0  0  0  0  0  0  0  0
   38.3290   29.5010   52.3220 H   0  0  0  0  0  0  0  0  0  0  0  0
   37.5930   29.4290   51.5190 C   0  0  0  0  0  0  0  0  0  0  0  0
   37.7450   28.4370   50.7490 O   0  0  0  0  0  0  0  0  0  0  0  0
   36.5040   30.3130   51.2550 N   0  0  0  0  0  0  0  0  0  0  0  0
   36.4090   31.1200   51.9090 H   0  0  0  0  0  0  0  0  0  0  0  0
  1  6  1  0  0  0  0
  2  3  1  0  0  0  0
  2  1  2  0  0  0  0
  3  4  2  0  0  0  0
  4  9  1  0  0  0  0
  4  5  1  0  0  0  0
  5 10  1  0  0  0  0
  6  5  2  0  0  0  0
  6 23  1  0  0  0  0
  7  2  1  0  0  0  0
  8  3  1  0  0  0  0
 11 16  1  0  0  0  0
 11 17  1  0  0  0  0
 12 11  2  0  0  0  0
 13 14  2  0  0  0  0
 13 12  1  0  0  0  0
 14 15  1  0  0  0  0
 15  1  1  0  0  0  0
 15 16  2  0  0  0  0
 18 12  1  0  0  0  0
 19 13  1  0  0  0  0
 21 20  1  0  0  0  0
 22 21  2  0  0  0  0
 23 21  1  0  0  0  0
 23 24  1  0  0  0  0
M  END
>  <minimizedAffinity>
-4.97093487

>  <minimizedRMSD>
0.612385213

$$$$
