
 OpenBabel03272508073D

 31 33  0  0  0  0  0  0  0  0999 V2000
   37.4530   26.4390   34.3150 C   0  0  0  0  0  0  0  0  0  0  0  0
   37.4780   26.7950   32.9950 C   0  0  0  0  0  0  0  0  0  0  0  0
   36.7790   27.9820   32.7810 C   0  0  0  0  0  0  0  0  0  0  0  0
   36.3510   28.3020   34.0120 N   0  0  0  0  0  0  0  0  0  0  0  0
   36.7370   27.4100   34.9210 N   0  0  0  0  0  0  0  0  0  0  0  0
   37.9670   26.2510   32.1780 H   0  0  0  0  0  0  0  0  0  0  0  0
   36.5920   28.5500   31.8790 H   0  0  0  0  0  0  0  0  0  0  0  0
   38.0620   25.2740   34.9430 C   0  0  0  0  0  0  0  0  0  0  0  0
   37.8760   25.1260   36.3470 C   0  0  0  0  0  0  0  0  0  0  0  0
   38.4570   24.0170   36.9530 C   0  0  0  0  0  0  0  0  0  0  0  0
   39.1620   23.1460   36.1710 N   0  0  0  0  0  0  0  0  0  0  0  0
   39.3150   23.3210   34.8390 C   0  0  0  0  0  0  0  0  0  0  0  0
   38.7620   24.3870   34.2350 N   0  0  0  0  0  0  0  0  0  0  0  0
   37.3020   25.8620   36.9030 H   0  0  0  0  0  0  0  0  0  0  0  0
   39.8790   22.6140   34.2480 H   0  0  0  0  0  0  0  0  0  0  0  0
   38.2850   23.8290   38.4200 C   0  0  0  0  0  0  0  0  0  0  0  0
   39.4980   23.3750   38.8790 F   0  0  0  0  0  0  0  0  0  0  0  0
   37.9670   25.0120   39.0740 F   0  0  0  0  0  0  0  0  0  0  0  0
   37.3170   22.8650   38.7030 F   0  0  0  0  0  0  0  0  0  0  0  0
   35.5560   29.4660   34.4200 C   0  0  0  0  0  0  0  0  0  0  0  0
   36.0650   30.4410   35.2860 C   0  0  0  0  0  0  0  0  0  0  0  0
   35.3300   31.4860   35.6490 C   0  0  0  0  0  0  0  0  0  0  0  0
   33.9950   31.6100   35.1420 C   0  0  0  0  0  0  0  0  0  0  0  0
   33.8800   30.0640   34.0760 S   0  0  0  0  0  0  0  0  0  0  0  0
   37.0840   30.3890   35.6990 H   0  0  0  0  0  0  0  0  0  0  0  0
   35.5290   32.3270   36.2910 H   0  0  0  0  0  0  0  0  0  0  0  0
   31.2020   33.1660   36.2490 H   0  0  0  0  0  0  0  0  0  0  0  0
   31.9970   32.4060   36.3080 C   0  0  0  0  0  0  0  0  0  0  0  0
   32.0930   31.5570   37.2100 O   0  0  0  0  0  0  0  0  0  0  0  0
   32.9340   32.4730   35.2420 N   0  0  0  0  0  0  0  0  0  0  0  0
   32.8890   33.1550   34.4840 H   0  0  0  0  0  0  0  0  0  0  0  0
  1  5  2  0  0  0  0
  1  8  1  0  0  0  0
  2  1  1  0  0  0  0
  3  2  2  0  0  0  0
  3  4  1  0  0  0  0
  4 20  1  0  0  0  0
  4  5  1  0  0  0  0
  6  2  1  0  0  0  0
  7  3  1  0  0  0  0
  8  9  1  0  0  0  0
  9 14  1  0  0  0  0
  9 10  2  0  0  0  0
 10 16  1  0  0  0  0
 11 10  1  0  0  0  0
 12 11  2  0  0  0  0
 13 12  1  0  0  0  0
 13  8  2  0  0  0  0
 15 12  1  0  0  0  0
 16 19  1  0  0  0  0
 16 17  1  0  0  0  0
 16 18  1  0  0  0  0
 20 21  2  0  0  0  0
 21 22  1  0  0  0  0
 21 25  1  0  0  0  0
 22 26  1  0  0  0  0
 23 30  1  0  0  0  0
 23 22  2  0  0  0  0
 24 20  1  0  0  0  0
 24 23  1  0  0  0  0
 27 28  1  0  0  0  0
 28 29  2  0  0  0  0
 30 28  1  0  0  0  0
 31 30  1  0  0  0  0
M  END
>  <minimizedAffinity>
-5.90055704

$$$$

 OpenBabel03272508073D

 31 33  0  0  0  0  0  0  0  0999 V2000
   37.7500   25.9720   34.0930 C   0  0  0  0  0  0  0  0  0  0  0  0
   36.9760   27.0260   34.4960 C   0  0  0  0  0  0  0  0  0  0  0  0
   36.8800   27.9910   33.4950 C   0  0  0  0  0  0  0  0  0  0  0  0
   37.6170   27.4670   32.5030 N   0  0  0  0  0  0  0  0  0  0  0  0
   38.1330   26.2860   32.8370 N   0  0  0  0  0  0  0  0  0  0  0  0
   36.4800   27.1410   35.4670 H   0  0  0  0  0  0  0  0  0  0  0  0
   36.3610   28.9390   33.4630 H   0  0  0  0  0  0  0  0  0  0  0  0
   38.0920   24.7710   34.8420 C   0  0  0  0  0  0  0  0  0  0  0  0
   37.9960   24.8450   36.2620 C   0  0  0  0  0  0  0  0  0  0  0  0
   38.3240   23.7030   36.9830 C   0  0  0  0  0  0  0  0  0  0  0  0
   38.7130   22.5900   36.2920 N   0  0  0  0  0  0  0  0  0  0  0  0
   38.7900   22.5570   34.9430 C   0  0  0  0  0  0  0  0  0  0  0  0
   38.4780   23.6520   34.2280 N   0  0  0  0  0  0  0  0  0  0  0  0
   37.6800   25.7680   36.7400 H   0  0  0  0  0  0  0  0  0  0  0  0
   39.1020   21.6610   34.4260 H   0  0  0  0  0  0  0  0  0  0  0  0
   38.2360   23.7430   38.4690 C   0  0  0  0  0  0  0  0  0  0  0  0
   39.4950   23.4250   38.9220 F   0  0  0  0  0  0  0  0  0  0  0  0
   37.8870   25.0000   38.9470 F   0  0  0  0  0  0  0  0  0  0  0  0
   37.3390   22.7920   38.9560 F   0  0  0  0  0  0  0  0  0  0  0  0
   37.8850   28.0330   31.1770 C   0  0  0  0  0  0  0  0  0  0  0  0
   39.1060   27.8340   30.5210 C   0  0  0  0  0  0  0  0  0  0  0  0
   39.3330   28.3580   29.3220 C   0  0  0  0  0  0  0  0  0  0  0  0
   38.3070   29.1380   28.6960 C   0  0  0  0  0  0  0  0  0  0  0  0
   36.9570   29.0560   30.0030 S   0  0  0  0  0  0  0  0  0  0  0  0
   39.9220   27.2410   30.9630 H   0  0  0  0  0  0  0  0  0  0  0  0
   40.1840   28.3250   28.6640 H   0  0  0  0  0  0  0  0  0  0  0  0
   38.1090   31.6490   26.4350 H   0  0  0  0  0  0  0  0  0  0  0  0
   38.3050   31.2360   27.4380 C   0  0  0  0  0  0  0  0  0  0  0  0
   38.6640   31.9110   28.4180 O   0  0  0  0  0  0  0  0  0  0  0  0
   38.1120   29.8310   27.5290 N   0  0  0  0  0  0  0  0  0  0  0  0
   37.8180   29.2440   26.7480 H   0  0  0  0  0  0  0  0  0  0  0  0
  1  2  1  0  0  0  0
  1  8  1  0  0  0  0
  2  6  1  0  0  0  0
  3  2  2  0  0  0  0
  4  5  1  0  0  0  0
  4  3  1  0  0  0  0
  5  1  2  0  0  0  0
  7  3  1  0  0  0  0
  8  9  1  0  0  0  0
  9 14  1  0  0  0  0
  9 10  2  0  0  0  0
 10 16  1  0  0  0  0
 11 10  1  0  0  0  0
 12 11  2  0  0  0  0
 13  8  2  0  0  0  0
 13 12  1  0  0  0  0
 15 12  1  0  0  0  0
 16 17  1  0  0  0  0
 16 18  1  0  0  0  0
 16 19  1  0  0  0  0
 20  4  1  0  0  0  0
 21 25  1  0  0  0  0
 21 20  2  0  0  0  0
 22 21  1  0  0  0  0
 23 22  2  0  0  0  0
 23 24  1  0  0  0  0
 24 20  1  0  0  0  0
 26 22  1  0  0  0  0
 27 28  1  0  0  0  0
 28 30  1  0  0  0  0
 28 29  2  0  0  0  0
 30 23  1  0  0  0  0
 31 30  1  0  0  0  0
M  END
>  <minimizedAffinity>
-5.74509287

$$$$

 OpenBabel03272508073D

 31 33  0  0  0  0  0  0  0  0999 V2000
   37.4430   26.4330   34.3000 C   0  0  0  0  0  0  0  0  0  0  0  0
   37.5170   26.8120   32.9880 C   0  0  0  0  0  0  0  0  0  0  0  0
   36.8320   28.0060   32.7700 C   0  0  0  0  0  0  0  0  0  0  0  0
   36.3620   28.3070   33.9900 N   0  0  0  0  0  0  0  0  0  0  0  0
   36.7100   27.3970   34.8970 N   0  0  0  0  0  0  0  0  0  0  0  0
   38.0330   26.2800   32.1800 H   0  0  0  0  0  0  0  0  0  0  0  0
   36.6820   28.5910   31.8730 H   0  0  0  0  0  0  0  0  0  0  0  0
   38.0220   25.2530   34.9280 C   0  0  0  0  0  0  0  0  0  0  0  0
   37.8890   25.1430   36.3420 C   0  0  0  0  0  0  0  0  0  0  0  0
   38.4420   24.0200   36.9480 C   0  0  0  0  0  0  0  0  0  0  0  0
   39.0730   23.1010   36.1580 N   0  0  0  0  0  0  0  0  0  0  0  0
   39.1780   23.2410   34.8170 C   0  0  0  0  0  0  0  0  0  0  0  0
   38.6500   24.3190   34.2130 N   0  0  0  0  0  0  0  0  0  0  0  0
   37.3730   25.9170   36.9040 H   0  0  0  0  0  0  0  0  0  0  0  0
   39.6840   22.4960   34.2200 H   0  0  0  0  0  0  0  0  0  0  0  0
   38.3230   23.8710   38.4250 C   0  0  0  0  0  0  0  0  0  0  0  0
   37.3380   22.9320   38.6230 F   0  0  0  0  0  0  0  0  0  0  0  0
   39.5000   23.4230   39.0110 F   0  0  0  0  0  0  0  0  0  0  0  0
   37.9230   25.0630   39.0300 F   0  0  0  0  0  0  0  0  0  0  0  0
   35.5590   29.4680   34.3900 C   0  0  0  0  0  0  0  0  0  0  0  0
   36.0620   30.4540   35.2470 C   0  0  0  0  0  0  0  0  0  0  0  0
   35.3190   31.4960   35.6030 C   0  0  0  0  0  0  0  0  0  0  0  0
   33.9830   31.6060   35.0970 C   0  0  0  0  0  0  0  0  0  0  0  0
   33.8770   30.0510   34.0440 S   0  0  0  0  0  0  0  0  0  0  0  0
   37.0820   30.4130   35.6590 H   0  0  0  0  0  0  0  0  0  0  0  0
   35.5120   32.3440   36.2370 H   0  0  0  0  0  0  0  0  0  0  0  0
   31.7780   34.0900   34.4490 H   0  0  0  0  0  0  0  0  0  0  0  0
   32.6740   33.4850   34.2370 C   0  0  0  0  0  0  0  0  0  0  0  0
   33.4250   33.6590   33.2610 O   0  0  0  0  0  0  0  0  0  0  0  0
   32.9150   32.4610   35.1910 N   0  0  0  0  0  0  0  0  0  0  0  0
   32.3220   32.2880   36.0040 H   0  0  0  0  0  0  0  0  0  0  0  0
  1  5  2  0  0  0  0
  1  8  1  0  0  0  0
  2  1  1  0  0  0  0
  3  2  2  0  0  0  0
  3  4  1  0  0  0  0
  4 20  1  0  0  0  0
  4  5  1  0  0  0  0
  6  2  1  0  0  0  0
  7  3  1  0  0  0  0
  8  9  1  0  0  0  0
  9 14  1  0  0  0  0
  9 10  2  0  0  0  0
 10 16  1  0  0  0  0
 11 10  1  0  0  0  0
 12 11  2  0  0  0  0
 13 12  1  0  0  0  0
 13  8  2  0  0  0  0
 15 12  1  0  0  0  0
 16 17  1  0  0  0  0
 16 18  1  0  0  0  0
 16 19  1  0  0  0  0
 20 21  2  0  0  0  0
 21 22  1  0  0  0  0
 21 25  1  0  0  0  0
 22 26  1  0  0  0  0
 23 30  1  0  0  0  0
 23 22  2  0  0  0  0
 24 20  1  0  0  0  0
 24 23  1  0  0  0  0
 28 27  1  0  0  0  0
 28 30  1  0  0  0  0
 29 28  2  0  0  0  0
 30 31  1  0  0  0  0
M  END
>  <minimizedAffinity>
-5.70655823

$$$$

 OpenBabel03272508073D

 31 33  0  0  0  0  0  0  0  0999 V2000
   37.6070   25.3290   33.8790 C   0  0  0  0  0  0  0  0  0  0  0  0
   37.2060   25.1150   32.5890 C   0  0  0  0  0  0  0  0  0  0  0  0
   36.6210   26.2590   32.0480 C   0  0  0  0  0  0  0  0  0  0  0  0
   36.6950   27.1380   33.0600 N   0  0  0  0  0  0  0  0  0  0  0  0
   37.2690   26.6100   34.1380 N   0  0  0  0  0  0  0  0  0  0  0  0
   37.3100   24.1860   32.0160 H   0  0  0  0  0  0  0  0  0  0  0  0
   36.1970   26.4520   31.0730 H   0  0  0  0  0  0  0  0  0  0  0  0
   38.2570   24.3900   34.7850 C   0  0  0  0  0  0  0  0  0  0  0  0
   37.9660   24.5270   36.1730 C   0  0  0  0  0  0  0  0  0  0  0  0
   38.5850   23.6360   37.0430 C   0  0  0  0  0  0  0  0  0  0  0  0
   39.4250   22.6940   36.5180 N   0  0  0  0  0  0  0  0  0  0  0  0
   39.6750   22.5960   35.1930 C   0  0  0  0  0  0  0  0  0  0  0  0
   39.0860   23.4480   34.3360 N   0  0  0  0  0  0  0  0  0  0  0  0
   37.2870   25.3020   36.5160 H   0  0  0  0  0  0  0  0  0  0  0  0
   40.3440   21.8400   34.8090 H   0  0  0  0  0  0  0  0  0  0  0  0
   38.3070   23.7480   38.5010 C   0  0  0  0  0  0  0  0  0  0  0  0
   39.4910   23.4420   39.1290 F   0  0  0  0  0  0  0  0  0  0  0  0
   37.9150   25.0280   38.8720 F   0  0  0  0  0  0  0  0  0  0  0  0
   37.3410   22.8280   38.9110 F   0  0  0  0  0  0  0  0  0  0  0  0
   36.2360   28.5310   33.0840 C   0  0  0  0  0  0  0  0  0  0  0  0
   35.8340   29.1560   34.2700 C   0  0  0  0  0  0  0  0  0  0  0  0
   35.4170   30.4180   34.2730 C   0  0  0  0  0  0  0  0  0  0  0  0
   35.3830   31.1440   33.0380 C   0  0  0  0  0  0  0  0  0  0  0  0
   36.0120   29.8340   31.8430 S   0  0  0  0  0  0  0  0  0  0  0  0
   35.8440   28.6390   35.2420 H   0  0  0  0  0  0  0  0  0  0  0  0
   35.0720   31.0670   35.0590 H   0  0  0  0  0  0  0  0  0  0  0  0
   35.5580   34.4080   32.1620 H   0  0  0  0  0  0  0  0  0  0  0  0
   35.9800   33.4640   32.5450 C   0  0  0  0  0  0  0  0  0  0  0  0
   37.1590   33.3180   32.9090 O   0  0  0  0  0  0  0  0  0  0  0  0
   35.0450   32.3950   32.5910 N   0  0  0  0  0  0  0  0  0  0  0  0
   34.0700   32.4770   32.3010 H   0  0  0  0  0  0  0  0  0  0  0  0
  1  5  2  0  0  0  0
  1  8  1  0  0  0  0
  2  1  1  0  0  0  0
  3  2  2  0  0  0  0
  3  4  1  0  0  0  0
  4 20  1  0  0  0  0
  4  5  1  0  0  0  0
  6  2  1  0  0  0  0
  7  3  1  0  0  0  0
  8  9  1  0  0  0  0
  9 14  1  0  0  0  0
  9 10  2  0  0  0  0
 10 16  1  0  0  0  0
 11 10  1  0  0  0  0
 12 11  2  0  0  0  0
 13  8  2  0  0  0  0
 13 12  1  0  0  0  0
 15 12  1  0  0  0  0
 16 18  1  0  0  0  0
 16 19  1  0  0  0  0
 16 17  1  0  0  0  0
 20 21  2  0  0  0  0
 21 22  1  0  0  0  0
 21 25  1  0  0  0  0
 22 26  1  0  0  0  0
 23 22  2  0  0  0  0
 24 23  1  0  0  0  0
 24 20  1  0  0  0  0
 27 28  1  0  0  0  0
 28 30  1  0  0  0  0
 28 29  2  0  0  0  0
 30 23  1  0  0  0  0
 31 30  1  0  0  0  0
M  END
>  <minimizedAffinity>
-5.64411449

$$$$

 OpenBabel03272508073D

 31 33  0  0  0  0  0  0  0  0999 V2000
   36.4560   27.8600   33.6450 C   0  0  0  0  0  0  0  0  0  0  0  0
   37.0660   27.3620   32.5260 C   0  0  0  0  0  0  0  0  0  0  0  0
   37.8010   26.2150   32.8230 C   0  0  0  0  0  0  0  0  0  0  0  0
   37.5990   26.0640   34.1410 N   0  0  0  0  0  0  0  0  0  0  0  0
   36.8140   27.0180   34.6370 N   0  0  0  0  0  0  0  0  0  0  0  0
   37.0140   27.7750   31.5120 H   0  0  0  0  0  0  0  0  0  0  0  0
   38.4010   25.5690   32.1980 H   0  0  0  0  0  0  0  0  0  0  0  0
   35.6040   29.0370   33.7550 C   0  0  0  0  0  0  0  0  0  0  0  0
   35.9480   29.9920   34.7540 C   0  0  0  0  0  0  0  0  0  0  0  0
   35.1380   31.1160   34.8660 C   0  0  0  0  0  0  0  0  0  0  0  0
   34.0730   31.2350   34.0180 N   0  0  0  0  0  0  0  0  0  0  0  0
   33.7790   30.3060   33.0800 C   0  0  0  0  0  0  0  0  0  0  0  0
   34.5500   29.2120   32.9570 N   0  0  0  0  0  0  0  0  0  0  0  0
   36.8120   29.8270   35.3930 H   0  0  0  0  0  0  0  0  0  0  0  0
   32.9300   30.4290   32.4250 H   0  0  0  0  0  0  0  0  0  0  0  0
   35.4660   32.1360   35.9000 C   0  0  0  0  0  0  0  0  0  0  0  0
   34.8040   33.2790   35.5150 F   0  0  0  0  0  0  0  0  0  0  0  0
   35.0340   31.7680   37.1670 F   0  0  0  0  0  0  0  0  0  0  0  0
   36.8340   32.4100   35.9340 F   0  0  0  0  0  0  0  0  0  0  0  0
   38.1230   25.0150   35.0230 C   0  0  0  0  0  0  0  0  0  0  0  0
   37.9170   25.0450   36.4080 C   0  0  0  0  0  0  0  0  0  0  0  0
   38.4030   24.0890   37.1930 C   0  0  0  0  0  0  0  0  0  0  0  0
   39.1460   23.0150   36.6060 C   0  0  0  0  0  0  0  0  0  0  0  0
   39.0910   23.5010   34.7890 S   0  0  0  0  0  0  0  0  0  0  0  0
   37.3510   25.8490   36.9030 H   0  0  0  0  0  0  0  0  0  0  0  0
   38.3580   23.9310   38.2560 H   0  0  0  0  0  0  0  0  0  0  0  0
   41.5800   20.8430   37.5100 H   0  0  0  0  0  0  0  0  0  0  0  0
   41.2050   21.8280   37.1860 C   0  0  0  0  0  0  0  0  0  0  0  0
   41.9240   22.8220   36.9870 O   0  0  0  0  0  0  0  0  0  0  0  0
   39.7970   21.8760   37.0060 N   0  0  0  0  0  0  0  0  0  0  0  0
   39.1750   21.0810   37.1590 H   0  0  0  0  0  0  0  0  0  0  0  0
  1  8  1  0  0  0  0
  1  5  2  0  0  0  0
  2  3  2  0  0  0  0
  2  1  1  0  0  0  0
  3  4  1  0  0  0  0
  4  5  1  0  0  0  0
  4 20  1  0  0  0  0
  6  2  1  0  0  0  0
  7  3  1  0  0  0  0
  8  9  1  0  0  0  0
  9 10  2  0  0  0  0
  9 14  1  0  0  0  0
 10 16  1  0  0  0  0
 11 10  1  0  0  0  0
 12 11  2  0  0  0  0
 13 12  1  0  0  0  0
 13  8  2  0  0  0  0
 15 12  1  0  0  0  0
 16 19  1  0  0  0  0
 16 18  1  0  0  0  0
 17 16  1  0  0  0  0
 20 21  2  0  0  0  0
 21 25  1  0  0  0  0
 21 22  1  0  0  0  0
 22 26  1  0  0  0  0
 23 30  1  0  0  0  0
 23 22  2  0  0  0  0
 24 20  1  0  0  0  0
 24 23  1  0  0  0  0
 28 27  1  0  0  0  0
 29 28  2  0  0  0  0
 30 31  1  0  0  0  0
 30 28  1  0  0  0  0
M  END
>  <minimizedAffinity>
-5.63205576

$$$$

 OpenBabel03272508073D

 31 33  0  0  0  0  0  0  0  0999 V2000
   37.9970   24.7100   34.5140 C   0  0  0  0  0  0  0  0  0  0  0  0
   37.9540   24.1060   33.2870 C   0  0  0  0  0  0  0  0  0  0  0  0
   37.4610   24.9750   32.3160 C   0  0  0  0  0  0  0  0  0  0  0  0
   37.2210   26.0960   33.0130 N   0  0  0  0  0  0  0  0  0  0  0  0
   37.5290   25.9580   34.3000 N   0  0  0  0  0  0  0  0  0  0  0  0
   38.2560   23.0780   33.0520 H   0  0  0  0  0  0  0  0  0  0  0  0
   37.2910   24.8410   31.2560 H   0  0  0  0  0  0  0  0  0  0  0  0
   38.4460   24.1440   35.7790 C   0  0  0  0  0  0  0  0  0  0  0  0
   39.6750   23.4230   35.7640 C   0  0  0  0  0  0  0  0  0  0  0  0
   40.1080   22.8780   36.9670 C   0  0  0  0  0  0  0  0  0  0  0  0
   39.3370   23.0670   38.0790 N   0  0  0  0  0  0  0  0  0  0  0  0
   38.1750   23.7590   38.0540 C   0  0  0  0  0  0  0  0  0  0  0  0
   37.7400   24.2920   36.9000 N   0  0  0  0  0  0  0  0  0  0  0  0
   40.2330   23.3150   34.8380 H   0  0  0  0  0  0  0  0  0  0  0  0
   37.5880   23.8890   38.9510 H   0  0  0  0  0  0  0  0  0  0  0  0
   41.3880   22.1180   36.9900 C   0  0  0  0  0  0  0  0  0  0  0  0
   41.3980   21.3760   35.8330 F   0  0  0  0  0  0  0  0  0  0  0  0
   42.5010   22.9490   37.0050 F   0  0  0  0  0  0  0  0  0  0  0  0
   41.4450   21.2420   38.0750 F   0  0  0  0  0  0  0  0  0  0  0  0
   36.6900   27.3730   32.5210 C   0  0  0  0  0  0  0  0  0  0  0  0
   36.2640   28.3810   33.3930 C   0  0  0  0  0  0  0  0  0  0  0  0
   35.7820   29.5290   32.9300 C   0  0  0  0  0  0  0  0  0  0  0  0
   35.7020   29.7320   31.5140 C   0  0  0  0  0  0  0  0  0  0  0  0
   36.3900   28.0970   30.8860 S   0  0  0  0  0  0  0  0  0  0  0  0
   36.3090   28.2710   34.4880 H   0  0  0  0  0  0  0  0  0  0  0  0
   35.4090   30.4110   33.4220 H   0  0  0  0  0  0  0  0  0  0  0  0
   35.6690   32.4810   29.5420 H   0  0  0  0  0  0  0  0  0  0  0  0
   36.1370   31.7820   30.2540 C   0  0  0  0  0  0  0  0  0  0  0  0
   37.2920   31.9000   30.6980 O   0  0  0  0  0  0  0  0  0  0  0  0
   35.2960   30.7040   30.6370 N   0  0  0  0  0  0  0  0  0  0  0  0
   34.3430   30.5740   30.2940 H   0  0  0  0  0  0  0  0  0  0  0  0
  1  8  1  0  0  0  0
  2  1  1  0  0  0  0
  3  4  1  0  0  0  0
  3  2  2  0  0  0  0
  4  5  1  0  0  0  0
  5  1  2  0  0  0  0
  6  2  1  0  0  0  0
  7  3  1  0  0  0  0
  8 13  1  0  0  0  0
  9  8  2  0  0  0  0
  9 10  1  0  0  0  0
 10 16  1  0  0  0  0
 10 11  2  0  0  0  0
 12 11  1  0  0  0  0
 12 15  1  0  0  0  0
 13 12  2  0  0  0  0
 14  9  1  0  0  0  0
 16 18  1  0  0  0  0
 16 19  1  0  0  0  0
 17 16  1  0  0  0  0
 20  4  1  0  0  0  0
 20 21  2  0  0  0  0
 21 25  1  0  0  0  0
 22 21  1  0  0  0  0
 22 26  1  0  0  0  0
 23 22  2  0  0  0  0
 24 23  1  0  0  0  0
 24 20  1  0  0  0  0
 27 28  1  0  0  0  0
 28 30  1  0  0  0  0
 28 29  2  0  0  0  0
 30 23  1  0  0  0  0
 31 30  1  0  0  0  0
M  END
>  <minimizedAffinity>
-5.56978559

$$$$

 OpenBabel03272508073D

 31 33  0  0  0  0  0  0  0  0999 V2000
   37.9510   25.0050   34.8830 C   0  0  0  0  0  0  0  0  0  0  0  0
   37.9720   24.5590   33.5890 C   0  0  0  0  0  0  0  0  0  0  0  0
   37.4200   25.5020   32.7240 C   0  0  0  0  0  0  0  0  0  0  0  0
   37.0820   26.5040   33.5500 N   0  0  0  0  0  0  0  0  0  0  0  0
   37.3860   26.2290   34.8170 N   0  0  0  0  0  0  0  0  0  0  0  0
   38.3580   23.5960   33.2340 H   0  0  0  0  0  0  0  0  0  0  0  0
   37.2740   25.4900   31.6520 H   0  0  0  0  0  0  0  0  0  0  0  0
   38.4310   24.3200   36.0760 C   0  0  0  0  0  0  0  0  0  0  0  0
   39.6300   23.5620   35.9480 C   0  0  0  0  0  0  0  0  0  0  0  0
   40.0920   22.9050   37.0830 C   0  0  0  0  0  0  0  0  0  0  0  0
   39.3750   23.0260   38.2390 N   0  0  0  0  0  0  0  0  0  0  0  0
   38.2400   23.7570   38.3220 C   0  0  0  0  0  0  0  0  0  0  0  0
   37.7780   24.4000   37.2360 N   0  0  0  0  0  0  0  0  0  0  0  0
   40.1450   23.5120   34.9920 H   0  0  0  0  0  0  0  0  0  0  0  0
   37.6960   23.8330   39.2510 H   0  0  0  0  0  0  0  0  0  0  0  0
   41.3420   22.1010   36.9870 C   0  0  0  0  0  0  0  0  0  0  0  0
   42.3700   23.0140   37.0120 F   0  0  0  0  0  0  0  0  0  0  0  0
   41.4920   21.2210   38.0510 F   0  0  0  0  0  0  0  0  0  0  0  0
   41.4070   21.3960   35.7850 F   0  0  0  0  0  0  0  0  0  0  0  0
   36.4560   27.7860   33.2100 C   0  0  0  0  0  0  0  0  0  0  0  0
   36.0620   28.7000   34.1960 C   0  0  0  0  0  0  0  0  0  0  0  0
   35.4920   29.8550   33.8700 C   0  0  0  0  0  0  0  0  0  0  0  0
   35.2810   30.1630   32.4870 C   0  0  0  0  0  0  0  0  0  0  0  0
   35.9840   28.6210   31.6720 S   0  0  0  0  0  0  0  0  0  0  0  0
   36.2060   28.5070   35.2700 H   0  0  0  0  0  0  0  0  0  0  0  0
   35.1240   30.6750   34.4620 H   0  0  0  0  0  0  0  0  0  0  0  0
   33.1000   32.1730   30.8580 H   0  0  0  0  0  0  0  0  0  0  0  0
   33.3650   31.3060   31.4840 C   0  0  0  0  0  0  0  0  0  0  0  0
   32.5430   30.4970   31.9480 O   0  0  0  0  0  0  0  0  0  0  0  0
   34.7580   31.1790   31.7290 N   0  0  0  0  0  0  0  0  0  0  0  0
   35.4620   31.8240   31.3660 H   0  0  0  0  0  0  0  0  0  0  0  0
  1  8  1  0  0  0  0
  2  1  1  0  0  0  0
  3  4  1  0  0  0  0
  3  2  2  0  0  0  0
  4  5  1  0  0  0  0
  5  1  2  0  0  0  0
  6  2  1  0  0  0  0
  7  3  1  0  0  0  0
  8 13  1  0  0  0  0
  9  8  2  0  0  0  0
  9 10  1  0  0  0  0
 10 11  2  0  0  0  0
 11 12  1  0  0  0  0
 12 15  1  0  0  0  0
 13 12  2  0  0  0  0
 14  9  1  0  0  0  0
 16 17  1  0  0  0  0
 16 10  1  0  0  0  0
 16 18  1  0  0  0  0
 19 16  1  0  0  0  0
 20  4  1  0  0  0  0
 20 21  2  0  0  0  0
 21 25  1  0  0  0  0
 22 21  1  0  0  0  0
 22 26  1  0  0  0  0
 23 22  2  0  0  0  0
 24 23  1  0  0  0  0
 24 20  1  0  0  0  0
 27 28  1  0  0  0  0
 28 30  1  0  0  0  0
 28 29  2  0  0  0  0
 30 23  1  0  0  0  0
 31 30  1  0  0  0  0
M  END
>  <minimizedAffinity>
-5.55141068

$$$$

 OpenBabel03272508073D

 31 33  0  0  0  0  0  0  0  0999 V2000
   38.0480   25.7440   33.8940 C   0  0  0  0  0  0  0  0  0  0  0  0
   38.8330   26.1950   32.8690 C   0  0  0  0  0  0  0  0  0  0  0  0
   38.3190   27.3690   32.3210 C   0  0  0  0  0  0  0  0  0  0  0  0
   37.2180   27.5840   33.0580 N   0  0  0  0  0  0  0  0  0  0  0  0
   37.0450   26.6420   33.9830 N   0  0  0  0  0  0  0  0  0  0  0  0
   39.7510   25.7290   32.4920 H   0  0  0  0  0  0  0  0  0  0  0  0
   38.6690   27.9940   31.5110 H   0  0  0  0  0  0  0  0  0  0  0  0
   38.2420   24.5570   34.7180 C   0  0  0  0  0  0  0  0  0  0  0  0
   38.1750   24.7340   36.1300 C   0  0  0  0  0  0  0  0  0  0  0  0
   38.3610   23.6060   36.9220 C   0  0  0  0  0  0  0  0  0  0  0  0
   38.5930   22.4110   36.3030 N   0  0  0  0  0  0  0  0  0  0  0  0
   38.6490   22.2830   34.9580 C   0  0  0  0  0  0  0  0  0  0  0  0
   38.4720   23.3610   34.1760 N   0  0  0  0  0  0  0  0  0  0  0  0
   37.9860   25.7180   36.5490 H   0  0  0  0  0  0  0  0  0  0  0  0
   38.8350   21.3230   34.4990 H   0  0  0  0  0  0  0  0  0  0  0  0
   38.2980   23.7520   38.4020 C   0  0  0  0  0  0  0  0  0  0  0  0
   37.3290   22.8700   38.8200 F   0  0  0  0  0  0  0  0  0  0  0  0
   39.5000   23.4290   39.0200 F   0  0  0  0  0  0  0  0  0  0  0  0
   37.9130   25.0400   38.7750 F   0  0  0  0  0  0  0  0  0  0  0  0
   36.2560   28.6870   32.9490 C   0  0  0  0  0  0  0  0  0  0  0  0
   36.0340   29.3560   31.7390 C   0  0  0  0  0  0  0  0  0  0  0  0
   35.1620   30.3560   31.6590 C   0  0  0  0  0  0  0  0  0  0  0  0
   34.4410   30.7470   32.8330 C   0  0  0  0  0  0  0  0  0  0  0  0
   35.1350   29.5350   34.0930 S   0  0  0  0  0  0  0  0  0  0  0  0
   36.5640   29.0890   30.8120 H   0  0  0  0  0  0  0  0  0  0  0  0
   34.8530   30.9860   30.8440 H   0  0  0  0  0  0  0  0  0  0  0  0
   31.4720   32.2900   33.3460 H   0  0  0  0  0  0  0  0  0  0  0  0
   32.1060   31.4560   33.0010 C   0  0  0  0  0  0  0  0  0  0  0  0
   31.6730   30.4120   32.4850 O   0  0  0  0  0  0  0  0  0  0  0  0
   33.4960   31.6720   33.1980 N   0  0  0  0  0  0  0  0  0  0  0  0
   33.8890   32.5150   33.6180 H   0  0  0  0  0  0  0  0  0  0  0  0
  1  5  2  0  0  0  0
  1  8  1  0  0  0  0
  2  1  1  0  0  0  0
  3  2  2  0  0  0  0
  3  4  1  0  0  0  0
  4  5  1  0  0  0  0
  6  2  1  0  0  0  0
  7  3  1  0  0  0  0
  8  9  1  0  0  0  0
  9 14  1  0  0  0  0
  9 10  2  0  0  0  0
 10 16  1  0  0  0  0
 11 10  1  0  0  0  0
 12 11  2  0  0  0  0
 13  8  2  0  0  0  0
 13 12  1  0  0  0  0
 15 12  1  0  0  0  0
 16 19  1  0  0  0  0
 16 17  1  0  0  0  0
 16 18  1  0  0  0  0
 20  4  1  0  0  0  0
 20 24  1  0  0  0  0
 21 20  2  0  0  0  0
 22 21  1  0  0  0  0
 22 23  2  0  0  0  0
 23 30  1  0  0  0  0
 23 24  1  0  0  0  0
 25 21  1  0  0  0  0
 26 22  1  0  0  0  0
 28 30  1  0  0  0  0
 28 27  1  0  0  0  0
 29 28  2  0  0  0  0
 30 31  1  0  0  0  0
M  END
>  <minimizedAffinity>
-5.51947355

$$$$

 OpenBabel03272508073D

 31 33  0  0  0  0  0  0  0  0999 V2000
   36.7630   27.5350   32.7470 C   0  0  0  0  0  0  0  0  0  0  0  0
   36.5850   28.4660   31.7610 C   0  0  0  0  0  0  0  0  0  0  0  0
   36.0080   29.6300   32.2680 C   0  0  0  0  0  0  0  0  0  0  0  0
   35.8590   29.3460   33.5710 N   0  0  0  0  0  0  0  0  0  0  0  0
   36.2960   28.1240   33.8680 N   0  0  0  0  0  0  0  0  0  0  0  0
   36.8440   28.3570   30.7020 H   0  0  0  0  0  0  0  0  0  0  0  0
   35.7280   30.5570   31.7870 H   0  0  0  0  0  0  0  0  0  0  0  0
   37.3310   26.1980   32.6280 C   0  0  0  0  0  0  0  0  0  0  0  0
   36.4760   25.1750   32.1280 C   0  0  0  0  0  0  0  0  0  0  0  0
   37.0110   23.8970   32.0140 C   0  0  0  0  0  0  0  0  0  0  0  0
   38.3120   23.7040   32.3840 N   0  0  0  0  0  0  0  0  0  0  0  0
   39.0940   24.7020   32.8540 C   0  0  0  0  0  0  0  0  0  0  0  0
   38.5940   25.9440   32.9720 N   0  0  0  0  0  0  0  0  0  0  0  0
   35.4500   25.4060   31.8540 H   0  0  0  0  0  0  0  0  0  0  0  0
   40.1190   24.5170   33.1390 H   0  0  0  0  0  0  0  0  0  0  0  0
   36.1470   22.8010   31.4960 C   0  0  0  0  0  0  0  0  0  0  0  0
   35.2480   23.4070   30.6510 F   0  0  0  0  0  0  0  0  0  0  0  0
   36.8650   21.8480   30.7850 F   0  0  0  0  0  0  0  0  0  0  0  0
   35.4360   22.1790   32.5230 F   0  0  0  0  0  0  0  0  0  0  0  0
   35.3010   30.2000   34.6260 C   0  0  0  0  0  0  0  0  0  0  0  0
   33.9300   30.2250   34.9080 C   0  0  0  0  0  0  0  0  0  0  0  0
   33.4410   31.0080   35.8630 C   0  0  0  0  0  0  0  0  0  0  0  0
   34.3380   31.8350   36.6140 C   0  0  0  0  0  0  0  0  0  0  0  0
   35.9810   31.3870   35.8140 S   0  0  0  0  0  0  0  0  0  0  0  0
   33.2040   29.6060   34.3590 H   0  0  0  0  0  0  0  0  0  0  0  0
   32.4420   31.1710   36.2280 H   0  0  0  0  0  0  0  0  0  0  0  0
   34.1160   34.7480   38.3230 H   0  0  0  0  0  0  0  0  0  0  0  0
   34.1460   34.1430   37.4020 C   0  0  0  0  0  0  0  0  0  0  0  0
   34.0700   34.6090   36.2520 O   0  0  0  0  0  0  0  0  0  0  0  0
   34.2830   32.7480   37.6350 N   0  0  0  0  0  0  0  0  0  0  0  0
   34.3480   32.3290   38.5640 H   0  0  0  0  0  0  0  0  0  0  0  0
  1  5  2  0  0  0  0
  2  3  2  0  0  0  0
  2  1  1  0  0  0  0
  3  4  1  0  0  0  0
  4  5  1  0  0  0  0
  4 20  1  0  0  0  0
  6  2  1  0  0  0  0
  7  3  1  0  0  0  0
  8  1  1  0  0  0  0
  8 13  1  0  0  0  0
  9  8  2  0  0  0  0
 10  9  1  0  0  0  0
 10 11  2  0  0  0  0
 11 12  1  0  0  0  0
 12 13  2  0  0  0  0
 12 15  1  0  0  0  0
 14  9  1  0  0  0  0
 16 10  1  0  0  0  0
 16 19  1  0  0  0  0
 17 16  1  0  0  0  0
 18 16  1  0  0  0  0
 20 21  2  0  0  0  0
 20 24  1  0  0  0  0
 21 22  1  0  0  0  0
 22 26  1  0  0  0  0
 22 23  2  0  0  0  0
 23 30  1  0  0  0  0
 24 23  1  0  0  0  0
 25 21  1  0  0  0  0
 28 30  1  0  0  0  0
 28 27  1  0  0  0  0
 29 28  2  0  0  0  0
 30 31  1  0  0  0  0
M  END
>  <minimizedAffinity>
-5.26817322

$$$$
