
 OpenBabel03272508143D

 24 25  0  0  0  0  0  0  0  0999 V2000
   38.8180   32.5970   48.4100 Cl  0  0  0  0  0  0  0  0  0  0  0  0
   38.0990   31.9510   46.9580 C   0  0  0  0  0  0  0  0  0  0  0  0
   37.1380   30.9960   47.1950 C   0  0  0  0  0  0  0  0  0  0  0  0
   36.4990   30.4140   46.0840 C   0  0  0  0  0  0  0  0  0  0  0  0
   36.8110   30.7720   44.8140 C   0  0  0  0  0  0  0  0  0  0  0  0
   37.7760   31.7310   44.6010 C   0  0  0  0  0  0  0  0  0  0  0  0
   38.1980   32.2120   42.9800 Cl  0  0  0  0  0  0  0  0  0  0  0  0
   38.4020   32.3010   45.6660 C   0  0  0  0  0  0  0  0  0  0  0  0
   35.7310   29.6560   46.1670 H   0  0  0  0  0  0  0  0  0  0  0  0
   36.3300   30.3360   43.9300 H   0  0  0  0  0  0  0  0  0  0  0  0
   37.5770   29.8370   49.3220 C   0  0  0  0  0  0  0  0  0  0  0  0
   36.6450   30.4610   48.4690 C   0  0  0  0  0  0  0  0  0  0  0  0
   35.3180   30.5330   48.8850 C   0  0  0  0  0  0  0  0  0  0  0  0
   34.9840   30.0000   50.0870 N   0  0  0  0  0  0  0  0  0  0  0  0
   35.9150   29.4030   50.8860 C   0  0  0  0  0  0  0  0  0  0  0  0
   37.2030   29.3260   50.4980 N   0  0  0  0  0  0  0  0  0  0  0  0
   38.6060   29.7870   48.9890 H   0  0  0  0  0  0  0  0  0  0  0  0
   34.6110   31.0130   48.2270 H   0  0  0  0  0  0  0  0  0  0  0  0
   35.6530   28.9800   51.8400 H   0  0  0  0  0  0  0  0  0  0  0  0
   41.6550   33.3300   45.2680 H   0  0  0  0  0  0  0  0  0  0  0  0
   40.7330   32.7650   45.3780 C   0  0  0  0  0  0  0  0  0  0  0  0
   40.9880   31.5300   45.3390 O   0  0  0  0  0  0  0  0  0  0  0  0
   39.4110   33.2970   45.5470 N   0  0  0  0  0  0  0  0  0  0  0  0
   39.3450   34.3510   45.5620 H   0  0  0  0  0  0  0  0  0  0  0  0
  2  3  1  0  0  0  0
  2  1  1  0  0  0  0
  3 12  1  0  0  0  0
  4  9  1  0  0  0  0
  4  3  2  0  0  0  0
  5  4  1  0  0  0  0
  6  5  2  0  0  0  0
  6  8  1  0  0  0  0
  7  6  1  0  0  0  0
  8  2  2  0  0  0  0
 10  5  1  0  0  0  0
 11 16  1  0  0  0  0
 12 13  1  0  0  0  0
 12 11  2  0  0  0  0
 13 14  2  0  0  0  0
 14 15  1  0  0  0  0
 15 19  1  0  0  0  0
 16 15  2  0  0  0  0
 17 11  1  0  0  0  0
 18 13  1  0  0  0  0
 20 21  1  0  0  0  0
 21 23  1  0  0  0  0
 22 21  2  0  0  0  0
 23 24  1  0  0  0  0
 23  8  1  0  0  0  0
M  END
>  <minimizedAffinity>
-5.58375549

>  <minimizedRMSD>
1.81933737

$$$$
