
 OpenBabel03272508343D

 27 28  0  0  0  0  0  0  0  0999 V2000
   37.7890   31.2080   48.0930 C   0  0  0  0  0  0  0  0  0  0  0  0
   37.1930   31.0530   46.8780 C   0  0  0  0  0  0  0  0  0  0  0  0
   37.9210   31.7500   45.9320 C   0  0  0  0  0  0  0  0  0  0  0  0
   38.9450   32.3100   46.6140 N   0  0  0  0  0  0  0  0  0  0  0  0
   38.8650   31.9840   47.9100 N   0  0  0  0  0  0  0  0  0  0  0  0
   36.2950   30.5000   46.5780 H   0  0  0  0  0  0  0  0  0  0  0  0
   37.7420   31.8500   44.8620 H   0  0  0  0  0  0  0  0  0  0  0  0
   37.2800   30.0580   51.6340 C   0  0  0  0  0  0  0  0  0  0  0  0
   37.8860   30.6940   50.5460 C   0  0  0  0  0  0  0  0  0  0  0  0
   37.2540   30.5890   49.3010 C   0  0  0  0  0  0  0  0  0  0  0  0
   36.0980   29.8770   49.2420 N   0  0  0  0  0  0  0  0  0  0  0  0
   35.5460   29.2770   50.3230 C   0  0  0  0  0  0  0  0  0  0  0  0
   36.1470   29.3750   51.5140 N   0  0  0  0  0  0  0  0  0  0  0  0
   37.8500   30.2010   52.5500 H   0  0  0  0  0  0  0  0  0  0  0  0
   38.8090   31.2580   50.6090 H   0  0  0  0  0  0  0  0  0  0  0  0
   34.6210   28.7380   50.1470 H   0  0  0  0  0  0  0  0  0  0  0  0
   39.9780   33.1490   45.9850 C   0  0  0  0  0  0  0  0  0  0  0  0
   39.4680   33.9550   45.4350 H   0  0  0  0  0  0  0  0  0  0  0  0
   40.6240   33.5230   46.8040 H   0  0  0  0  0  0  0  0  0  0  0  0
   40.8280   32.2980   45.0820 C   0  0  0  0  0  0  0  0  0  0  0  0
   41.8670   32.6450   45.0360 H   0  0  0  0  0  0  0  0  0  0  0  0
   40.7760   31.2230   45.3150 H   0  0  0  0  0  0  0  0  0  0  0  0
   39.7390   31.4660   41.8220 H   0  0  0  0  0  0  0  0  0  0  0  0
   40.1400   31.3510   42.8100 C   0  0  0  0  0  0  0  0  0  0  0  0
   40.4870   30.1800   43.1130 O   0  0  0  0  0  0  0  0  0  0  0  0
   40.2890   32.4180   43.7400 N   0  0  0  0  0  0  0  0  0  0  0  0
   39.9550   33.3420   43.3390 H   0  0  0  0  0  0  0  0  0  0  0  0
  1 10  1  0  0  0  0
  2  1  1  0  0  0  0
  3  4  1  0  0  0  0
  3  2  2  0  0  0  0
  4  5  1  0  0  0  0
  5  1  2  0  0  0  0
  6  2  1  0  0  0  0
  7  3  1  0  0  0  0
  8 14  1  0  0  0  0
  9 15  1  0  0  0  0
  9  8  2  0  0  0  0
 10  9  1  0  0  0  0
 11 10  2  0  0  0  0
 11 12  1  0  0  0  0
 12 13  2  0  0  0  0
 13  8  1  0  0  0  0
 16 12  1  0  0  0  0
 17  4  1  0  0  0  0
 17 19  1  0  0  0  0
 18 17  1  0  0  0  0
 20 22  1  0  0  0  0
 20 17  1  0  0  0  0
 21 20  1  0  0  0  0
 23 24  1  0  0  0  0
 24 25  2  0  0  0  0
 24 26  1  0  0  0  0
 26 20  1  0  0  0  0
 27 26  1  0  0  0  0
M  END
>  <minimizedAffinity>
-4.881845

>  <minimizedRMSD>
2.01840806

$$$$
