
 OpenBabel03272507403D

 30 31  0  0  0  0  0  0  0  0999 V2000
   37.4070   25.6120   33.5200 C   0  0  0  0  0  0  0  0  0  0  0  0
   37.9760   25.2460   34.7210 C   0  0  0  0  0  0  0  0  0  0  0  0
   38.1890   26.1850   35.7230 C   0  0  0  0  0  0  0  0  0  0  0  0
   37.8290   27.5020   35.5160 C   0  0  0  0  0  0  0  0  0  0  0  0
   37.2480   27.8780   34.2930 C   0  0  0  0  0  0  0  0  0  0  0  0
   37.0450   26.9160   33.3030 C   0  0  0  0  0  0  0  0  0  0  0  0
   38.6220   25.9810   36.6780 H   0  0  0  0  0  0  0  0  0  0  0  0
   37.9810   28.2580   36.2750 H   0  0  0  0  0  0  0  0  0  0  0  0
   36.9510   28.8970   34.0880 H   0  0  0  0  0  0  0  0  0  0  0  0
   36.9640   28.0500   30.0180 H   0  0  0  0  0  0  0  0  0  0  0  0
   37.2890   27.7680   30.9990 C   0  0  0  0  0  0  0  0  0  0  0  0
   38.5140   27.9190   31.2330 O   0  0  0  0  0  0  0  0  0  0  0  0
   36.4610   27.2440   32.0470 N   0  0  0  0  0  0  0  0  0  0  0  0
   35.4550   27.1390   31.8020 H   0  0  0  0  0  0  0  0  0  0  0  0
   37.1050   23.7740   31.7460 N   0  0  0  0  0  0  0  0  0  0  0  0
   37.2400   24.5910   32.5500 C   0  0  0  0  0  0  0  0  0  0  0  0
   38.3890   23.9810   35.0860 O   0  0  0  0  0  0  0  0  0  0  0  0
   39.6330   23.6860   35.5650 C   0  0  0  0  0  0  0  0  0  0  0  0
   39.5770   22.9700   36.7550 C   0  0  0  0  0  0  0  0  0  0  0  0
   40.7240   22.5760   37.3970 C   0  0  0  0  0  0  0  0  0  0  0  0
   41.9220   22.9170   36.8110 N   0  0  0  0  0  0  0  0  0  0  0  0
   41.9670   23.6090   35.6590 C   0  0  0  0  0  0  0  0  0  0  0  0
   40.8460   23.9810   35.0560 N   0  0  0  0  0  0  0  0  0  0  0  0
   40.7670   22.0190   38.3220 H   0  0  0  0  0  0  0  0  0  0  0  0
   42.8300   23.9320   35.1070 H   0  0  0  0  0  0  0  0  0  0  0  0
   37.8310   23.4270   38.4000 C   0  0  0  0  0  0  0  0  0  0  0  0
   38.0830   24.6210   38.8450 O   0  0  0  0  0  0  0  0  0  0  0  0
   38.3940   22.5930   37.3980 N   0  0  0  0  0  0  0  0  0  0  0  0
   37.1800   23.7660   39.1980 H   0  0  0  0  0  0  0  0  0  0  0  0
   37.6410   21.9110   37.5140 H   0  0  0  0  0  0  0  0  0  0  0  0
  1  2  1  0  0  0  0
  2 17  1  0  0  0  0
  2  3  2  0  0  0  0
  3  7  1  0  0  0  0
  4  3  1  0  0  0  0
  4  8  1  0  0  0  0
  5  4  2  0  0  0  0
  6  1  2  0  0  0  0
  6  5  1  0  0  0  0
  9  5  1  0  0  0  0
 10 11  1  0  0  0  0
 11 12  2  0  0  0  0
 11 13  1  0  0  0  0
 13  6  1  0  0  0  0
 14 13  1  0  0  0  0
 15 16  3  0  0  0  0
 16  1  1  0  0  0  0
 17 18  1  0  0  0  0
 18 19  1  0  0  0  0
 19 20  2  0  0  0  0
 19 28  1  0  0  0  0
 20 24  1  0  0  0  0
 21 20  1  0  0  0  0
 22 21  2  0  0  0  0
 23 18  2  0  0  0  0
 23 22  1  0  0  0  0
 25 22  1  0  0  0  0
 26 27  2  0  0  0  0
 26 29  1  0  0  0  0
 28 30  1  0  0  0  0
 28 26  1  0  0  0  0
M  END
>  <minimizedAffinity>
-5.04218817

$$$$

 OpenBabel03272507403D

 30 31  0  0  0  0  0  0  0  0999 V2000
   37.5520   24.8340   32.9070 C   0  0  0  0  0  0  0  0  0  0  0  0
   38.0270   23.8780   33.7790 C   0  0  0  0  0  0  0  0  0  0  0  0
   38.1510   22.5510   33.3830 C   0  0  0  0  0  0  0  0  0  0  0  0
   37.7940   22.1830   32.1010 C   0  0  0  0  0  0  0  0  0  0  0  0
   37.3110   23.1550   31.2100 C   0  0  0  0  0  0  0  0  0  0  0  0
   37.1950   24.4800   31.6320 C   0  0  0  0  0  0  0  0  0  0  0  0
   38.5100   21.7550   33.9980 H   0  0  0  0  0  0  0  0  0  0  0  0
   37.8780   21.1590   31.7610 H   0  0  0  0  0  0  0  0  0  0  0  0
   37.0200   22.9110   30.1970 H   0  0  0  0  0  0  0  0  0  0  0  0
   34.8170   26.4390   30.0210 H   0  0  0  0  0  0  0  0  0  0  0  0
   35.2970   25.7050   30.6380 C   0  0  0  0  0  0  0  0  0  0  0  0
   34.5300   24.9610   31.2980 O   0  0  0  0  0  0  0  0  0  0  0  0
   36.7110   25.5030   30.7680 N   0  0  0  0  0  0  0  0  0  0  0  0
   37.3020   26.1440   30.2000 H   0  0  0  0  0  0  0  0  0  0  0  0
   37.3790   27.2410   33.7950 N   0  0  0  0  0  0  0  0  0  0  0  0
   37.4460   26.1590   33.4000 C   0  0  0  0  0  0  0  0  0  0  0  0
   38.4250   24.0780   35.0850 O   0  0  0  0  0  0  0  0  0  0  0  0
   39.6530   23.7430   35.5760 C   0  0  0  0  0  0  0  0  0  0  0  0
   39.5620   22.9900   36.7410 C   0  0  0  0  0  0  0  0  0  0  0  0
   40.6890   22.5530   37.3890 C   0  0  0  0  0  0  0  0  0  0  0  0
   41.9040   22.8910   36.8370 N   0  0  0  0  0  0  0  0  0  0  0  0
   41.9840   23.6180   35.7090 C   0  0  0  0  0  0  0  0  0  0  0  0
   40.8810   24.0320   35.0990 N   0  0  0  0  0  0  0  0  0  0  0  0
   40.7050   21.9660   38.2970 H   0  0  0  0  0  0  0  0  0  0  0  0
   42.8620   23.9420   35.1840 H   0  0  0  0  0  0  0  0  0  0  0  0
   37.7810   23.4410   38.3500 C   0  0  0  0  0  0  0  0  0  0  0  0
   38.0340   24.6260   38.8190 O   0  0  0  0  0  0  0  0  0  0  0  0
   38.3610   22.6160   37.3490 N   0  0  0  0  0  0  0  0  0  0  0  0
   37.1150   23.7740   39.1380 H   0  0  0  0  0  0  0  0  0  0  0  0
   37.5980   21.9400   37.4380 H   0  0  0  0  0  0  0  0  0  0  0  0
  1 16  1  0  0  0  0
  1  2  1  0  0  0  0
  2 17  1  0  0  0  0
  3  2  2  0  0  0  0
  3  7  1  0  0  0  0
  4  3  1  0  0  0  0
  5  6  1  0  0  0  0
  5  4  2  0  0  0  0
  6  1  2  0  0  0  0
  8  4  1  0  0  0  0
  9  5  1  0  0  0  0
 10 11  1  0  0  0  0
 11 13  1  0  0  0  0
 11 12  2  0  0  0  0
 13  6  1  0  0  0  0
 14 13  1  0  0  0  0
 16 15  3  0  0  0  0
 17 18  1  0  0  0  0
 18 19  1  0  0  0  0
 19 28  1  0  0  0  0
 19 20  2  0  0  0  0
 20 24  1  0  0  0  0
 21 20  1  0  0  0  0
 22 21  2  0  0  0  0
 23 18  2  0  0  0  0
 23 22  1  0  0  0  0
 25 22  1  0  0  0  0
 26 27  2  0  0  0  0
 26 29  1  0  0  0  0
 28 30  1  0  0  0  0
 28 26  1  0  0  0  0
M  END
>  <minimizedAffinity>
-4.78874969

$$$$

 OpenBabel03272507403D

 30 31  0  0  0  0  0  0  0  0999 V2000
   38.9750   23.3580   35.0020 C   0  0  0  0  0  0  0  0  0  0  0  0
   38.4500   24.5440   34.5330 C   0  0  0  0  0  0  0  0  0  0  0  0
   37.9380   25.4920   35.4110 C   0  0  0  0  0  0  0  0  0  0  0  0
   37.9540   25.2470   36.7700 C   0  0  0  0  0  0  0  0  0  0  0  0
   38.4890   24.0410   37.2500 C   0  0  0  0  0  0  0  0  0  0  0  0
   38.9960   23.1050   36.3490 C   0  0  0  0  0  0  0  0  0  0  0  0
   37.5160   26.4310   35.1270 H   0  0  0  0  0  0  0  0  0  0  0  0
   37.5630   25.9640   37.4800 H   0  0  0  0  0  0  0  0  0  0  0  0
   38.5210   23.8070   38.3060 H   0  0  0  0  0  0  0  0  0  0  0  0
   41.4520   20.9380   37.5170 H   0  0  0  0  0  0  0  0  0  0  0  0
   40.9280   21.8080   37.1750 C   0  0  0  0  0  0  0  0  0  0  0  0
   41.6040   22.8650   37.1180 O   0  0  0  0  0  0  0  0  0  0  0  0
   39.5490   21.8670   36.7840 N   0  0  0  0  0  0  0  0  0  0  0  0
   39.0340   20.9650   36.8490 H   0  0  0  0  0  0  0  0  0  0  0  0
   39.8470   21.7080   33.2330 N   0  0  0  0  0  0  0  0  0  0  0  0
   39.4620   22.4430   34.0350 C   0  0  0  0  0  0  0  0  0  0  0  0
   38.3600   24.9410   33.2150 O   0  0  0  0  0  0  0  0  0  0  0  0
   37.2430   24.8050   32.4440 C   0  0  0  0  0  0  0  0  0  0  0  0
   36.8420   26.0130   31.8860 C   0  0  0  0  0  0  0  0  0  0  0  0
   35.7380   26.0870   31.0760 C   0  0  0  0  0  0  0  0  0  0  0  0
   35.0510   24.9170   30.8420 N   0  0  0  0  0  0  0  0  0  0  0  0
   35.4450   23.7520   31.3840 C   0  0  0  0  0  0  0  0  0  0  0  0
   36.5150   23.7040   32.1660 N   0  0  0  0  0  0  0  0  0  0  0  0
   35.3610   26.9830   30.6060 H   0  0  0  0  0  0  0  0  0  0  0  0
   34.9990   22.7810   31.2780 H   0  0  0  0  0  0  0  0  0  0  0  0
   36.9860   28.1710   33.0230 C   0  0  0  0  0  0  0  0  0  0  0  0
   36.0450   28.1510   33.9170 O   0  0  0  0  0  0  0  0  0  0  0  0
   37.4970   27.2320   32.0860 N   0  0  0  0  0  0  0  0  0  0  0  0
   36.8660   29.0920   33.5820 H   0  0  0  0  0  0  0  0  0  0  0  0
   38.2660   27.8620   31.8450 H   0  0  0  0  0  0  0  0  0  0  0  0
  1  6  1  0  0  0  0
  2  1  2  0  0  0  0
  2  3  1  0  0  0  0
  3  4  2  0  0  0  0
  4  5  1  0  0  0  0
  4  8  1  0  0  0  0
  5  9  1  0  0  0  0
  6 13  1  0  0  0  0
  6  5  2  0  0  0  0
  7  3  1  0  0  0  0
 11 10  1  0  0  0  0
 12 11  2  0  0  0  0
 13 14  1  0  0  0  0
 13 11  1  0  0  0  0
 15 16  3  0  0  0  0
 16  1  1  0  0  0  0
 17  2  1  0  0  0  0
 18 17  1  0  0  0  0
 19 28  1  0  0  0  0
 19 18  2  0  0  0  0
 20 19  1  0  0  0  0
 21 20  2  0  0  0  0
 21 22  1  0  0  0  0
 22 23  2  0  0  0  0
 23 18  1  0  0  0  0
 24 20  1  0  0  0  0
 25 22  1  0  0  0  0
 26 29  1  0  0  0  0
 26 27  2  0  0  0  0
 28 26  1  0  0  0  0
 30 28  1  0  0  0  0
M  END
>  <minimizedAffinity>
-4.68180227

$$$$

 OpenBabel03272507403D

 30 31  0  0  0  0  0  0  0  0999 V2000
   38.9150   22.5170   35.5260 C   0  0  0  0  0  0  0  0  0  0  0  0
   39.2650   22.8240   34.2280 C   0  0  0  0  0  0  0  0  0  0  0  0
   40.5010   23.3910   33.9390 C   0  0  0  0  0  0  0  0  0  0  0  0
   41.3910   23.6530   34.9630 C   0  0  0  0  0  0  0  0  0  0  0  0
   41.0370   23.3400   36.2850 C   0  0  0  0  0  0  0  0  0  0  0  0
   39.7910   22.7720   36.5490 C   0  0  0  0  0  0  0  0  0  0  0  0
   40.8450   23.6570   32.9640 H   0  0  0  0  0  0  0  0  0  0  0  0
   42.3610   24.0940   34.7720 H   0  0  0  0  0  0  0  0  0  0  0  0
   41.7030   23.5280   37.1170 H   0  0  0  0  0  0  0  0  0  0  0  0
   38.2380   23.2300   39.6260 H   0  0  0  0  0  0  0  0  0  0  0  0
   38.6000   23.3700   38.6270 C   0  0  0  0  0  0  0  0  0  0  0  0
   38.2980   24.4630   38.0850 O   0  0  0  0  0  0  0  0  0  0  0  0
   39.3840   22.4360   37.8720 N   0  0  0  0  0  0  0  0  0  0  0  0
   39.6070   21.5470   38.3650 H   0  0  0  0  0  0  0  0  0  0  0  0
   36.5760   21.5140   35.8950 N   0  0  0  0  0  0  0  0  0  0  0  0
   37.6300   21.9540   35.7290 C   0  0  0  0  0  0  0  0  0  0  0  0
   38.4980   22.6280   33.0990 O   0  0  0  0  0  0  0  0  0  0  0  0
   37.6180   23.5420   32.5970 C   0  0  0  0  0  0  0  0  0  0  0  0
   36.7410   22.9740   31.6800 C   0  0  0  0  0  0  0  0  0  0  0  0
   35.7780   23.7300   31.0610 C   0  0  0  0  0  0  0  0  0  0  0  0
   35.7180   25.0650   31.3910 N   0  0  0  0  0  0  0  0  0  0  0  0
   36.5690   25.6070   32.2800 C   0  0  0  0  0  0  0  0  0  0  0  0
   37.4940   24.8580   32.8650 N   0  0  0  0  0  0  0  0  0  0  0  0
   35.0610   23.3670   30.3390 H   0  0  0  0  0  0  0  0  0  0  0  0
   36.6240   26.6240   32.6180 H   0  0  0  0  0  0  0  0  0  0  0  0
   35.9590   20.6840   32.0140 C   0  0  0  0  0  0  0  0  0  0  0  0
   35.0500   20.7640   32.9380 O   0  0  0  0  0  0  0  0  0  0  0  0
   36.7510   21.6270   31.3050 N   0  0  0  0  0  0  0  0  0  0  0  0
   35.5480   19.7340   32.3350 H   0  0  0  0  0  0  0  0  0  0  0  0
   37.1050   20.8940   30.6860 H   0  0  0  0  0  0  0  0  0  0  0  0
  1 16  1  0  0  0  0
  1  6  1  0  0  0  0
  2  1  2  0  0  0  0
  3  2  1  0  0  0  0
  3  4  2  0  0  0  0
  4  5  1  0  0  0  0
  5  6  2  0  0  0  0
  5  9  1  0  0  0  0
  6 13  1  0  0  0  0
  7  3  1  0  0  0  0
  8  4  1  0  0  0  0
 11 10  1  0  0  0  0
 12 11  2  0  0  0  0
 13 14  1  0  0  0  0
 13 11  1  0  0  0  0
 16 15  3  0  0  0  0
 17  2  1  0  0  0  0
 18 23  1  0  0  0  0
 18 17  1  0  0  0  0
 19 18  2  0  0  0  0
 20 21  2  0  0  0  0
 20 19  1  0  0  0  0
 21 22  1  0  0  0  0
 22 25  1  0  0  0  0
 22 23  2  0  0  0  0
 24 20  1  0  0  0  0
 26 29  1  0  0  0  0
 26 27  2  0  0  0  0
 28 19  1  0  0  0  0
 28 26  1  0  0  0  0
 30 28  1  0  0  0  0
M  END
>  <minimizedAffinity>
-4.62556601

$$$$

 OpenBabel03272507403D

 30 31  0  0  0  0  0  0  0  0999 V2000
   37.8640   25.2710   34.0440 C   0  0  0  0  0  0  0  0  0  0  0  0
   37.1810   26.3950   33.6290 C   0  0  0  0  0  0  0  0  0  0  0  0
   37.1930   27.5570   34.3900 C   0  0  0  0  0  0  0  0  0  0  0  0
   37.8940   27.5900   35.5790 C   0  0  0  0  0  0  0  0  0  0  0  0
   38.5910   26.4480   36.0050 C   0  0  0  0  0  0  0  0  0  0  0  0
   38.5640   25.2930   35.2220 C   0  0  0  0  0  0  0  0  0  0  0  0
   36.6910   28.4650   34.1370 H   0  0  0  0  0  0  0  0  0  0  0  0
   37.9230   28.4790   36.1960 H   0  0  0  0  0  0  0  0  0  0  0  0
   39.1540   26.4290   36.9290 H   0  0  0  0  0  0  0  0  0  0  0  0
   39.0600   22.2910   36.9040 H   0  0  0  0  0  0  0  0  0  0  0  0
   38.6400   23.2080   36.5410 C   0  0  0  0  0  0  0  0  0  0  0  0
   37.5030   23.5020   36.9870 O   0  0  0  0  0  0  0  0  0  0  0  0
   39.2530   24.1080   35.6080 N   0  0  0  0  0  0  0  0  0  0  0  0
   40.1940   23.8190   35.2690 H   0  0  0  0  0  0  0  0  0  0  0  0
   37.7210   23.1830   32.5500 N   0  0  0  0  0  0  0  0  0  0  0  0
   37.7860   24.1270   33.2110 C   0  0  0  0  0  0  0  0  0  0  0  0
   36.4380   26.5270   32.4740 O   0  0  0  0  0  0  0  0  0  0  0  0
   36.4160   27.6480   31.6960 C   0  0  0  0  0  0  0  0  0  0  0  0
   37.2350   27.5250   30.5800 C   0  0  0  0  0  0  0  0  0  0  0  0
   37.3500   28.5470   29.6720 C   0  0  0  0  0  0  0  0  0  0  0  0
   36.6210   29.6890   29.9140 N   0  0  0  0  0  0  0  0  0  0  0  0
   35.8310   29.8000   30.9960 C   0  0  0  0  0  0  0  0  0  0  0  0
   35.7360   28.8000   31.8620 N   0  0  0  0  0  0  0  0  0  0  0  0
   37.9620   28.5310   28.7810 H   0  0  0  0  0  0  0  0  0  0  0  0
   35.2180   30.6300   31.2930 H   0  0  0  0  0  0  0  0  0  0  0  0
   39.3710   26.3420   30.6390 C   0  0  0  0  0  0  0  0  0  0  0  0
   40.1600   27.0940   31.3450 O   0  0  0  0  0  0  0  0  0  0  0  0
   37.9970   26.3930   30.2780 N   0  0  0  0  0  0  0  0  0  0  0  0
   40.3950   25.9920   30.7100 H   0  0  0  0  0  0  0  0  0  0  0  0
   38.0520   25.4600   29.8620 H   0  0  0  0  0  0  0  0  0  0  0  0
  1  6  1  0  0  0  0
  2  1  2  0  0  0  0
  2  3  1  0  0  0  0
  3  4  2  0  0  0  0
  4  5  1  0  0  0  0
  4  8  1  0  0  0  0
  5  9  1  0  0  0  0
  6 13  1  0  0  0  0
  6  5  2  0  0  0  0
  7  3  1  0  0  0  0
 11 10  1  0  0  0  0
 11 12  2  0  0  0  0
 13 11  1  0  0  0  0
 14 13  1  0  0  0  0
 15 16  3  0  0  0  0
 16  1  1  0  0  0  0
 17  2  1  0  0  0  0
 18 23  1  0  0  0  0
 18 17  1  0  0  0  0
 19 18  2  0  0  0  0
 20 21  2  0  0  0  0
 20 19  1  0  0  0  0
 21 22  1  0  0  0  0
 22 25  1  0  0  0  0
 22 23  2  0  0  0  0
 24 20  1  0  0  0  0
 26 29  1  0  0  0  0
 26 27  2  0  0  0  0
 28 19  1  0  0  0  0
 28 26  1  0  0  0  0
 30 28  1  0  0  0  0
M  END
>  <minimizedAffinity>
-4.60793924

$$$$

 OpenBabel03272507403D

 30 31  0  0  0  0  0  0  0  0999 V2000
   38.0410   24.9840   32.5760 C   0  0  0  0  0  0  0  0  0  0  0  0
   38.8390   24.7600   33.6780 C   0  0  0  0  0  0  0  0  0  0  0  0
   39.7370   25.7270   34.1150 C   0  0  0  0  0  0  0  0  0  0  0  0
   39.8340   26.9270   33.4390 C   0  0  0  0  0  0  0  0  0  0  0  0
   39.0220   27.1580   32.3170 C   0  0  0  0  0  0  0  0  0  0  0  0
   38.1280   26.1720   31.8980 C   0  0  0  0  0  0  0  0  0  0  0  0
   40.3860   25.6290   34.9570 H   0  0  0  0  0  0  0  0  0  0  0  0
   40.5230   27.7000   33.7530 H   0  0  0  0  0  0  0  0  0  0  0  0
   39.0650   28.0840   31.7580 H   0  0  0  0  0  0  0  0  0  0  0  0
   35.3390   27.2770   30.1420 H   0  0  0  0  0  0  0  0  0  0  0  0
   36.0520   27.0770   30.9160 C   0  0  0  0  0  0  0  0  0  0  0  0
   35.7620   27.5230   32.0540 O   0  0  0  0  0  0  0  0  0  0  0  0
   37.2840   26.3560   30.7670 N   0  0  0  0  0  0  0  0  0  0  0  0
   37.4760   26.0070   29.8060 H   0  0  0  0  0  0  0  0  0  0  0  0
   36.4510   23.0930   31.8630 N   0  0  0  0  0  0  0  0  0  0  0  0
   37.1640   23.9380   32.1930 C   0  0  0  0  0  0  0  0  0  0  0  0
   38.8640   23.6230   34.4590 O   0  0  0  0  0  0  0  0  0  0  0  0
   38.7430   23.6210   35.8190 C   0  0  0  0  0  0  0  0  0  0  0  0
   39.7680   22.9100   36.4330 C   0  0  0  0  0  0  0  0  0  0  0  0
   39.8250   22.7910   37.7980 C   0  0  0  0  0  0  0  0  0  0  0  0
   38.8300   23.4030   38.5260 N   0  0  0  0  0  0  0  0  0  0  0  0
   37.8420   24.0890   37.9240 C   0  0  0  0  0  0  0  0  0  0  0  0
   37.8060   24.1910   36.6020 N   0  0  0  0  0  0  0  0  0  0  0  0
   40.5850   22.2580   38.3520 H   0  0  0  0  0  0  0  0  0  0  0  0
   37.0170   24.6070   38.3760 H   0  0  0  0  0  0  0  0  0  0  0  0
   42.0200   22.9560   35.4890 C   0  0  0  0  0  0  0  0  0  0  0  0
   42.5200   24.1000   35.8490 O   0  0  0  0  0  0  0  0  0  0  0  0
   40.8050   22.2680   35.7510 N   0  0  0  0  0  0  0  0  0  0  0  0
   43.0060   23.1710   35.0930 H   0  0  0  0  0  0  0  0  0  0  0  0
   41.1560   21.4300   35.2810 H   0  0  0  0  0  0  0  0  0  0  0  0
  1  2  1  0  0  0  0
  2  3  2  0  0  0  0
  2 17  1  0  0  0  0
  3  7  1  0  0  0  0
  4  8  1  0  0  0  0
  4  3  1  0  0  0  0
  5  4  2  0  0  0  0
  6  5  1  0  0  0  0
  6  1  2  0  0  0  0
  9  5  1  0  0  0  0
 10 11  1  0  0  0  0
 11 12  2  0  0  0  0
 13 11  1  0  0  0  0
 13  6  1  0  0  0  0
 14 13  1  0  0  0  0
 15 16  3  0  0  0  0
 16  1  1  0  0  0  0
 17 18  1  0  0  0  0
 18 19  2  0  0  0  0
 18 23  1  0  0  0  0
 19 20  1  0  0  0  0
 20 24  1  0  0  0  0
 20 21  2  0  0  0  0
 22 25  1  0  0  0  0
 22 21  1  0  0  0  0
 23 22  2  0  0  0  0
 26 28  1  0  0  0  0
 26 27  2  0  0  0  0
 28 19  1  0  0  0  0
 29 26  1  0  0  0  0
 30 28  1  0  0  0  0
M  END
>  <minimizedAffinity>
-4.45218372

$$$$

 OpenBabel03272507403D

 30 31  0  0  0  0  0  0  0  0999 V2000
   38.1220   24.1110   32.5440 C   0  0  0  0  0  0  0  0  0  0  0  0
   38.2640   24.6390   33.8090 C   0  0  0  0  0  0  0  0  0  0  0  0
   38.2860   26.0150   34.0090 C   0  0  0  0  0  0  0  0  0  0  0  0
   38.1660   26.8660   32.9280 C   0  0  0  0  0  0  0  0  0  0  0  0
   38.0200   26.3300   31.6370 C   0  0  0  0  0  0  0  0  0  0  0  0
   38.0010   24.9460   31.4640 C   0  0  0  0  0  0  0  0  0  0  0  0
   38.3920   26.4990   34.9540 H   0  0  0  0  0  0  0  0  0  0  0  0
   38.1800   27.9410   33.0480 H   0  0  0  0  0  0  0  0  0  0  0  0
   37.9230   26.9590   30.7630 H   0  0  0  0  0  0  0  0  0  0  0  0
   39.0310   23.7180   28.3790 H   0  0  0  0  0  0  0  0  0  0  0  0
   39.0160   24.1510   29.3590 C   0  0  0  0  0  0  0  0  0  0  0  0
   40.1310   24.5110   29.8140 O   0  0  0  0  0  0  0  0  0  0  0  0
   37.8560   24.3530   30.1780 N   0  0  0  0  0  0  0  0  0  0  0  0
   36.9580   24.0390   29.7550 H   0  0  0  0  0  0  0  0  0  0  0  0
   38.1140   21.5460   32.3600 N   0  0  0  0  0  0  0  0  0  0  0  0
   38.1230   22.6970   32.4330 C   0  0  0  0  0  0  0  0  0  0  0  0
   38.3940   23.9330   34.9870 O   0  0  0  0  0  0  0  0  0  0  0  0
   39.5890   23.5850   35.5490 C   0  0  0  0  0  0  0  0  0  0  0  0
   39.4250   22.9580   36.7780 C   0  0  0  0  0  0  0  0  0  0  0  0
   40.5080   22.5300   37.5040 C   0  0  0  0  0  0  0  0  0  0  0  0
   41.7540   22.7480   36.9610 N   0  0  0  0  0  0  0  0  0  0  0  0
   41.9040   23.3550   35.7710 C   0  0  0  0  0  0  0  0  0  0  0  0
   40.8430   23.7620   35.0870 N   0  0  0  0  0  0  0  0  0  0  0  0
   40.4670   22.0360   38.4640 H   0  0  0  0  0  0  0  0  0  0  0  0
   42.8130   23.5800   35.2460 H   0  0  0  0  0  0  0  0  0  0  0  0
   37.6950   23.5830   38.3860 C   0  0  0  0  0  0  0  0  0  0  0  0
   38.0690   24.7310   38.8630 O   0  0  0  0  0  0  0  0  0  0  0  0
   38.1880   22.7080   37.3810 N   0  0  0  0  0  0  0  0  0  0  0  0
   37.0640   23.9790   39.1730 H   0  0  0  0  0  0  0  0  0  0  0  0
   37.3580   22.1150   37.4620 H   0  0  0  0  0  0  0  0  0  0  0  0
  1  2  1  0  0  0  0
  2  3  2  0  0  0  0
  2 17  1  0  0  0  0
  3  7  1  0  0  0  0
  4  8  1  0  0  0  0
  4  3  1  0  0  0  0
  5  4  2  0  0  0  0
  6  5  1  0  0  0  0
  6  1  2  0  0  0  0
  9  5  1  0  0  0  0
 10 11  1  0  0  0  0
 11 12  2  0  0  0  0
 11 13  1  0  0  0  0
 13  6  1  0  0  0  0
 14 13  1  0  0  0  0
 15 16  3  0  0  0  0
 16  1  1  0  0  0  0
 17 18  1  0  0  0  0
 18 19  1  0  0  0  0
 19 28  1  0  0  0  0
 19 20  2  0  0  0  0
 20 24  1  0  0  0  0
 21 20  1  0  0  0  0
 22 21  2  0  0  0  0
 23 18  2  0  0  0  0
 23 22  1  0  0  0  0
 25 22  1  0  0  0  0
 26 27  2  0  0  0  0
 26 29  1  0  0  0  0
 28 30  1  0  0  0  0
 28 26  1  0  0  0  0
M  END
>  <minimizedAffinity>
-4.43533659

$$$$

 OpenBabel03272507403D

 30 31  0  0  0  0  0  0  0  0999 V2000
   38.1260   24.3830   35.3780 C   0  0  0  0  0  0  0  0  0  0  0  0
   38.1840   24.0060   34.0530 C   0  0  0  0  0  0  0  0  0  0  0  0
   37.8820   22.7050   33.6680 C   0  0  0  0  0  0  0  0  0  0  0  0
   37.5220   21.7740   34.6230 C   0  0  0  0  0  0  0  0  0  0  0  0
   37.4630   22.1550   35.9740 C   0  0  0  0  0  0  0  0  0  0  0  0
   37.7700   23.4680   36.3340 C   0  0  0  0  0  0  0  0  0  0  0  0
   37.9030   22.3380   32.6660 H   0  0  0  0  0  0  0  0  0  0  0  0
   37.2820   20.7530   34.3580 H   0  0  0  0  0  0  0  0  0  0  0  0
   37.1860   21.4600   36.7550 H   0  0  0  0  0  0  0  0  0  0  0  0
   38.8710   23.8270   39.6120 H   0  0  0  0  0  0  0  0  0  0  0  0
   38.7960   23.5580   38.5770 C   0  0  0  0  0  0  0  0  0  0  0  0
   39.7450   22.8730   38.1210 O   0  0  0  0  0  0  0  0  0  0  0  0
   37.7250   23.9040   37.6880 N   0  0  0  0  0  0  0  0  0  0  0  0
   36.9640   24.4720   38.1150 H   0  0  0  0  0  0  0  0  0  0  0  0
   38.7180   26.8230   35.9340 N   0  0  0  0  0  0  0  0  0  0  0  0
   38.4630   25.7270   35.6800 C   0  0  0  0  0  0  0  0  0  0  0  0
   38.5220   24.8080   32.9820 O   0  0  0  0  0  0  0  0  0  0  0  0
   37.6530   25.6390   32.3370 C   0  0  0  0  0  0  0  0  0  0  0  0
   38.1720   26.9190   32.1820 C   0  0  0  0  0  0  0  0  0  0  0  0
   37.4500   27.9030   31.5560 C   0  0  0  0  0  0  0  0  0  0  0  0
   36.1990   27.5670   31.0900 N   0  0  0  0  0  0  0  0  0  0  0  0
   35.7040   26.3260   31.2440 C   0  0  0  0  0  0  0  0  0  0  0  0
   36.4190   25.3900   31.8530 N   0  0  0  0  0  0  0  0  0  0  0  0
   37.7790   28.9200   31.3960 H   0  0  0  0  0  0  0  0  0  0  0  0
   34.7520   25.9420   30.9270 H   0  0  0  0  0  0  0  0  0  0  0  0
   40.5530   27.2620   31.7590 C   0  0  0  0  0  0  0  0  0  0  0  0
   40.7160   27.0150   30.4940 O   0  0  0  0  0  0  0  0  0  0  0  0
   39.4330   27.3220   32.6310 N   0  0  0  0  0  0  0  0  0  0  0  0
   41.5790   27.3030   31.4120 H   0  0  0  0  0  0  0  0  0  0  0  0
   40.0180   27.6820   33.3890 H   0  0  0  0  0  0  0  0  0  0  0  0
  1 16  1  0  0  0  0
  1  6  1  0  0  0  0
  2  1  2  0  0  0  0
  3  2  1  0  0  0  0
  3  4  2  0  0  0  0
  4  5  1  0  0  0  0
  5  6  2  0  0  0  0
  5  9  1  0  0  0  0
  6 13  1  0  0  0  0
  7  3  1  0  0  0  0
  8  4  1  0  0  0  0
 11 10  1  0  0  0  0
 12 11  2  0  0  0  0
 13 14  1  0  0  0  0
 13 11  1  0  0  0  0
 16 15  3  0  0  0  0
 17  2  1  0  0  0  0
 18 17  1  0  0  0  0
 19 18  1  0  0  0  0
 19 28  1  0  0  0  0
 20 19  2  0  0  0  0
 21 22  2  0  0  0  0
 21 20  1  0  0  0  0
 22 23  1  0  0  0  0
 23 18  2  0  0  0  0
 24 20  1  0  0  0  0
 25 22  1  0  0  0  0
 26 28  1  0  0  0  0
 27 26  2  0  0  0  0
 28 30  1  0  0  0  0
 29 26  1  0  0  0  0
M  END
>  <minimizedAffinity>
-4.38361263

$$$$

 OpenBabel03272507403D

 30 31  0  0  0  0  0  0  0  0999 V2000
   37.6020   27.6140   33.0540 C   0  0  0  0  0  0  0  0  0  0  0  0
   37.0290   27.9560   34.2610 C   0  0  0  0  0  0  0  0  0  0  0  0
   37.6940   27.7160   35.4580 C   0  0  0  0  0  0  0  0  0  0  0  0
   38.9430   27.1270   35.4420 C   0  0  0  0  0  0  0  0  0  0  0  0
   39.5290   26.7790   34.2150 C   0  0  0  0  0  0  0  0  0  0  0  0
   38.8420   27.0300   33.0270 C   0  0  0  0  0  0  0  0  0  0  0  0
   37.3180   27.9520   36.4290 H   0  0  0  0  0  0  0  0  0  0  0  0
   39.4870   26.9260   36.3560 H   0  0  0  0  0  0  0  0  0  0  0  0
   40.5050   26.3160   34.1550 H   0  0  0  0  0  0  0  0  0  0  0  0
   39.6360   24.9870   30.3280 H   0  0  0  0  0  0  0  0  0  0  0  0
   39.2640   25.3540   31.2640 C   0  0  0  0  0  0  0  0  0  0  0  0
   38.6660   24.5150   31.9810 O   0  0  0  0  0  0  0  0  0  0  0  0
   39.3910   26.6950   31.7570 N   0  0  0  0  0  0  0  0  0  0  0  0
   39.8950   27.3510   31.1250 H   0  0  0  0  0  0  0  0  0  0  0  0
   36.2330   28.1220   30.9370 N   0  0  0  0  0  0  0  0  0  0  0  0
   36.8470   27.8830   31.8850 C   0  0  0  0  0  0  0  0  0  0  0  0
   35.7980   28.5480   34.4500 O   0  0  0  0  0  0  0  0  0  0  0  0
   35.6100   29.8830   34.6640 C   0  0  0  0  0  0  0  0  0  0  0  0
   34.7130   30.4360   33.7570 C   0  0  0  0  0  0  0  0  0  0  0  0
   34.3900   31.7690   33.8070 C   0  0  0  0  0  0  0  0  0  0  0  0
   34.9870   32.5250   34.7890 N   0  0  0  0  0  0  0  0  0  0  0  0
   35.8530   31.9820   35.6630 C   0  0  0  0  0  0  0  0  0  0  0  0
   36.1520   30.6920   35.5960 N   0  0  0  0  0  0  0  0  0  0  0  0
   33.7050   32.2750   33.1410 H   0  0  0  0  0  0  0  0  0  0  0  0
   36.3790   32.4610   36.4670 H   0  0  0  0  0  0  0  0  0  0  0  0
   32.7710   29.1940   32.9490 C   0  0  0  0  0  0  0  0  0  0  0  0
   31.8780   29.3060   33.8850 O   0  0  0  0  0  0  0  0  0  0  0  0
   34.0740   29.7220   32.7400 N   0  0  0  0  0  0  0  0  0  0  0  0
   31.8570   28.6380   32.7780 H   0  0  0  0  0  0  0  0  0  0  0  0
   34.0980   29.3390   31.7920 H   0  0  0  0  0  0  0  0  0  0  0  0
  1  2  1  0  0  0  0
  2 17  1  0  0  0  0
  2  3  2  0  0  0  0
  3  7  1  0  0  0  0
  4  3  1  0  0  0  0
  4  8  1  0  0  0  0
  5  4  2  0  0  0  0
  6  1  2  0  0  0  0
  6  5  1  0  0  0  0
  9  5  1  0  0  0  0
 10 11  1  0  0  0  0
 11 13  1  0  0  0  0
 11 12  2  0  0  0  0
 13  6  1  0  0  0  0
 14 13  1  0  0  0  0
 15 16  3  0  0  0  0
 16  1  1  0  0  0  0
 17 18  1  0  0  0  0
 18 23  1  0  0  0  0
 19 20  1  0  0  0  0
 19 18  2  0  0  0  0
 20 21  2  0  0  0  0
 21 22  1  0  0  0  0
 22 25  1  0  0  0  0
 23 22  2  0  0  0  0
 24 20  1  0  0  0  0
 26 27  2  0  0  0  0
 28 26  1  0  0  0  0
 28 19  1  0  0  0  0
 29 26  1  0  0  0  0
 30 28  1  0  0  0  0
M  END
>  <minimizedAffinity>
-4.3638072

$$$$
