
 OpenBabel03272510323D

 24 25  0  0  0  0  0  0  0  0999 V2000
   36.2460   30.4880   48.8470 C   0  0  0  0  0  0  0  0  0  0  0  0
   35.5480   30.0050   47.7810 C   0  0  0  0  0  0  0  0  0  0  0  0
   34.5380   29.0770   47.9200 C   0  0  0  0  0  0  0  0  0  0  0  0
   34.2430   28.6390   49.2060 C   0  0  0  0  0  0  0  0  0  0  0  0
   34.9260   29.1050   50.3070 C   0  0  0  0  0  0  0  0  0  0  0  0
   35.9340   30.0360   50.1190 C   0  0  0  0  0  0  0  0  0  0  0  0
   35.7730   30.3430   46.7650 H   0  0  0  0  0  0  0  0  0  0  0  0
   33.9590   28.6670   47.1020 H   0  0  0  0  0  0  0  0  0  0  0  0
   33.4630   27.9110   49.4040 H   0  0  0  0  0  0  0  0  0  0  0  0
   34.7040   28.7690   51.3240 H   0  0  0  0  0  0  0  0  0  0  0  0
   38.3030   33.4600   49.2280 C   0  0  0  0  0  0  0  0  0  0  0  0
   39.2380   33.3700   48.1990 C   0  0  0  0  0  0  0  0  0  0  0  0
   39.1510   32.2350   47.3400 C   0  0  0  0  0  0  0  0  0  0  0  0
   38.1760   31.3380   47.5860 N   0  0  0  0  0  0  0  0  0  0  0  0
   37.2920   31.4640   48.5920 C   0  0  0  0  0  0  0  0  0  0  0  0
   37.3580   32.5330   49.4180 N   0  0  0  0  0  0  0  0  0  0  0  0
   38.3580   34.3230   49.8930 H   0  0  0  0  0  0  0  0  0  0  0  0
   40.0010   34.1350   48.0600 H   0  0  0  0  0  0  0  0  0  0  0  0
   39.8690   32.1500   46.5360 H   0  0  0  0  0  0  0  0  0  0  0  0
   38.3760   29.7000   52.4410 H   0  0  0  0  0  0  0  0  0  0  0  0
   37.6590   29.6030   51.6240 C   0  0  0  0  0  0  0  0  0  0  0  0
   37.7460   28.5240   50.9690 O   0  0  0  0  0  0  0  0  0  0  0  0
   36.6600   30.5410   51.2280 N   0  0  0  0  0  0  0  0  0  0  0  0
   36.6170   31.4200   51.7900 H   0  0  0  0  0  0  0  0  0  0  0  0
  1  6  1  0  0  0  0
  2  3  1  0  0  0  0
  2  1  2  0  0  0  0
  3  4  2  0  0  0  0
  4  9  1  0  0  0  0
  4  5  1  0  0  0  0
  5 10  1  0  0  0  0
  6  5  2  0  0  0  0
  6 23  1  0  0  0  0
  7  2  1  0  0  0  0
  8  3  1  0  0  0  0
 11 16  1  0  0  0  0
 11 17  1  0  0  0  0
 12 11  2  0  0  0  0
 13 14  2  0  0  0  0
 13 12  1  0  0  0  0
 14 15  1  0  0  0  0
 15  1  1  0  0  0  0
 15 16  2  0  0  0  0
 18 12  1  0  0  0  0
 19 13  1  0  0  0  0
 21 20  1  0  0  0  0
 22 21  2  0  0  0  0
 23 21  1  0  0  0  0
 23 24  1  0  0  0  0
M  END
>  <minimizedAffinity>
-5.04738569

>  <minimizedRMSD>
0.783502579

$$$$
