
 OpenBabel03272501173D

 31 33  0  0  1  0  0  0  0  0999 V2000
   37.4060   27.0100   34.7730 C   0  0  1  0  0  0  0  0  0  0  0  0
   38.0330   25.8780   35.3730 C   0  0  1  0  0  0  0  0  0  0  0  0
   38.9370   26.9880   34.9000 C   0  0  0  0  0  0  0  0  0  0  0  0
   36.8850   27.7900   35.3620 H   0  0  0  0  0  0  0  0  0  0  0  0
   38.1540   24.9380   34.7580 H   0  0  0  0  0  0  0  0  0  0  0  0
   39.5470   26.8520   33.9950 H   0  0  0  0  0  0  0  0  0  0  0  0
   39.3070   27.6190   35.7300 H   0  0  0  0  0  0  0  0  0  0  0  0
   36.9660   27.0030   33.3210 C   0  0  0  0  0  0  0  0  0  0  0  0
   36.5940   28.2310   32.8030 C   0  0  0  0  0  0  0  0  0  0  0  0
   36.1620   28.1930   31.4630 C   0  0  0  0  0  0  0  0  0  0  0  0
   36.1280   27.0340   30.7790 N   0  0  0  0  0  0  0  0  0  0  0  0
   36.5060   25.8460   31.3340 C   0  0  0  0  0  0  0  0  0  0  0  0
   36.9350   25.8340   32.6380 N   0  0  0  0  0  0  0  0  0  0  0  0
   36.6450   29.1250   33.4080 H   0  0  0  0  0  0  0  0  0  0  0  0
   35.8600   29.1300   31.0130 H   0  0  0  0  0  0  0  0  0  0  0  0
   36.4940   24.8990   30.8250 H   0  0  0  0  0  0  0  0  0  0  0  0
   37.8260   25.5900   36.8260 C   0  0  0  0  0  0  0  0  0  0  0  0
   38.3280   26.4310   37.3850 H   0  0  0  0  0  0  0  0  0  0  0  0
   36.7780   25.6220   37.1370 H   0  0  0  0  0  0  0  0  0  0  0  0
   38.5330   24.3530   37.2710 C   0  0  0  0  0  0  0  0  0  0  0  0
   38.2990   23.7690   38.4980 C   0  0  0  0  0  0  0  0  0  0  0  0
   39.0450   22.6720   38.6840 N   0  0  0  0  0  0  0  0  0  0  0  0
   39.7640   22.5650   37.5460 C   0  0  0  0  0  0  0  0  0  0  0  0
   39.4620   23.5670   36.6980 N   0  0  0  0  0  0  0  0  0  0  0  0
   37.5990   24.1180   39.2650 H   0  0  0  0  0  0  0  0  0  0  0  0
   39.0620   22.0480   39.5160 H   0  0  0  0  0  0  0  0  0  0  0  0
   42.5830   20.8040   36.7190 H   0  0  0  0  0  0  0  0  0  0  0  0
   42.0100   21.7260   36.8050 C   0  0  0  0  0  0  0  0  0  0  0  0
   42.3350   22.9190   36.5050 O   0  0  0  0  0  0  0  0  0  0  0  0
   40.7010   21.5040   37.3410 N   0  0  0  0  0  0  0  0  0  0  0  0
   40.3030   20.5830   37.6290 H   0  0  0  0  0  0  0  0  0  0  0  0
  1  3  1  0  0  0  0
  1  4  1  1  0  0  0
  1  2  1  0  0  0  0
  2  5  1  6  0  0  0
  2 17  1  0  0  0  0
  3  2  1  0  0  0  0
  3  7  1  0  0  0  0
  6  3  1  0  0  0  0
  8  1  1  0  0  0  0
  9  8  1  0  0  0  0
  9 14  1  0  0  0  0
 10  9  2  0  0  0  0
 11 12  2  0  0  0  0
 11 10  1  0  0  0  0
 12 13  1  0  0  0  0
 13  8  2  0  0  0  0
 15 10  1  0  0  0  0
 16 12  1  0  0  0  0
 17 19  1  0  0  0  0
 17 20  1  0  0  0  0
 17 18  1  0  0  0  0
 20 21  2  0  0  0  0
 21 22  1  0  0  0  0
 21 25  1  0  0  0  0
 22 26  1  0  0  0  0
 23 22  1  0  0  0  0
 24 20  1  0  0  0  0
 24 23  2  0  0  0  0
 27 28  1  0  0  0  0
 28 30  1  0  0  0  0
 29 28  2  0  0  0  0
 30 23  1  0  0  0  0
 30 31  1  0  0  0  0
M  END
>  <minimizedAffinity>
-5.49650002

$$$$

 OpenBabel03272501173D

 31 33  0  0  1  0  0  0  0  0999 V2000
   38.5600   26.3330   34.4010 C   0  0  1  0  0  0  0  0  0  0  0  0
   38.4850   26.3110   35.8260 C   0  0  1  0  0  0  0  0  0  0  0  0
   37.9100   27.5190   35.1310 C   0  0  0  0  0  0  0  0  0  0  0  0
   37.8860   25.7380   33.7550 H   0  0  0  0  0  0  0  0  0  0  0  0
   39.4120   26.5610   36.4200 H   0  0  0  0  0  0  0  0  0  0  0  0
   38.4440   28.4800   35.1690 H   0  0  0  0  0  0  0  0  0  0  0  0
   36.8050   27.4990   35.0830 H   0  0  0  0  0  0  0  0  0  0  0  0
   39.8260   26.7490   33.6750 C   0  0  0  0  0  0  0  0  0  0  0  0
   40.9770   26.7620   34.4420 C   0  0  0  0  0  0  0  0  0  0  0  0
   42.1330   27.1790   33.7540 C   0  0  0  0  0  0  0  0  0  0  0  0
   42.0770   27.5290   32.4540 N   0  0  0  0  0  0  0  0  0  0  0  0
   40.9150   27.4990   31.7380 C   0  0  0  0  0  0  0  0  0  0  0  0
   39.7630   27.0980   32.3690 N   0  0  0  0  0  0  0  0  0  0  0  0
   40.9530   26.4690   35.4820 H   0  0  0  0  0  0  0  0  0  0  0  0
   43.0600   27.2070   34.3110 H   0  0  0  0  0  0  0  0  0  0  0  0
   40.8250   27.7700   30.7020 H   0  0  0  0  0  0  0  0  0  0  0  0
   37.6160   25.3060   36.5140 C   0  0  0  0  0  0  0  0  0  0  0  0
   37.1230   25.8540   37.3670 H   0  0  0  0  0  0  0  0  0  0  0  0
   36.7940   24.9370   35.8940 H   0  0  0  0  0  0  0  0  0  0  0  0
   38.4030   24.2140   37.1570 C   0  0  0  0  0  0  0  0  0  0  0  0
   38.2160   23.8440   38.4720 C   0  0  0  0  0  0  0  0  0  0  0  0
   39.0300   22.8450   38.8350 N   0  0  0  0  0  0  0  0  0  0  0  0
   39.7470   22.5810   37.7210 C   0  0  0  0  0  0  0  0  0  0  0  0
   39.3760   23.3960   36.7150 N   0  0  0  0  0  0  0  0  0  0  0  0
   37.5010   24.2800   39.1790 H   0  0  0  0  0  0  0  0  0  0  0  0
   39.0930   22.3810   39.7640 H   0  0  0  0  0  0  0  0  0  0  0  0
   42.6640   20.8750   37.1650 H   0  0  0  0  0  0  0  0  0  0  0  0
   42.0340   21.7610   37.0970 C   0  0  0  0  0  0  0  0  0  0  0  0
   42.2810   22.9000   36.5850 O   0  0  0  0  0  0  0  0  0  0  0  0
   40.7470   21.5590   37.6890 N   0  0  0  0  0  0  0  0  0  0  0  0
   40.4100   20.6810   38.1420 H   0  0  0  0  0  0  0  0  0  0  0  0
  1  4  1  6  0  0  0
  1  3  1  0  0  0  0
  1  2  1  0  0  0  0
  2  5  1  1  0  0  0
  2 17  1  0  0  0  0
  3  6  1  0  0  0  0
  3  2  1  0  0  0  0
  7  3  1  0  0  0  0
  8  1  1  0  0  0  0
  8  9  1  0  0  0  0
  9 14  1  0  0  0  0
 10 15  1  0  0  0  0
 10  9  2  0  0  0  0
 11 10  1  0  0  0  0
 12 13  1  0  0  0  0
 12 11  2  0  0  0  0
 13  8  2  0  0  0  0
 16 12  1  0  0  0  0
 17 20  1  0  0  0  0
 17 18  1  0  0  0  0
 19 17  1  0  0  0  0
 20 21  2  0  0  0  0
 21 22  1  0  0  0  0
 21 25  1  0  0  0  0
 22 26  1  0  0  0  0
 23 22  1  0  0  0  0
 24 20  1  0  0  0  0
 24 23  2  0  0  0  0
 28 27  1  0  0  0  0
 28 30  1  0  0  0  0
 29 28  2  0  0  0  0
 30 23  1  0  0  0  0
 30 31  1  0  0  0  0
M  END
>  <minimizedAffinity>
-5.42144966

$$$$

 OpenBabel03272501173D

 31 33  0  0  1  0  0  0  0  0999 V2000
   38.0980   26.6040   33.9340 C   0  0  1  0  0  0  0  0  0  0  0  0
   38.6570   25.6510   34.8380 C   0  0  1  0  0  0  0  0  0  0  0  0
   39.3170   27.0050   34.7800 C   0  0  0  0  0  0  0  0  0  0  0  0
   37.1620   27.1560   34.1470 H   0  0  0  0  0  0  0  0  0  0  0  0
   39.3180   24.8360   34.4220 H   0  0  0  0  0  0  0  0  0  0  0  0
   40.2950   27.1190   34.2880 H   0  0  0  0  0  0  0  0  0  0  0  0
   39.0500   27.6470   35.6400 H   0  0  0  0  0  0  0  0  0  0  0  0
   38.4260   26.5880   32.4530 C   0  0  0  0  0  0  0  0  0  0  0  0
   38.7150   25.3440   31.9190 C   0  0  0  0  0  0  0  0  0  0  0  0
   39.0440   25.3590   30.5500 C   0  0  0  0  0  0  0  0  0  0  0  0
   39.0660   26.5130   29.8550 N   0  0  0  0  0  0  0  0  0  0  0  0
   38.7730   27.7160   30.4270 C   0  0  0  0  0  0  0  0  0  0  0  0
   38.4450   27.7500   31.7600 N   0  0  0  0  0  0  0  0  0  0  0  0
   38.6800   24.4560   32.5330 H   0  0  0  0  0  0  0  0  0  0  0  0
   39.2790   24.4100   30.0850 H   0  0  0  0  0  0  0  0  0  0  0  0
   38.7780   28.6590   29.9100 H   0  0  0  0  0  0  0  0  0  0  0  0
   37.8750   25.2020   36.0300 C   0  0  0  0  0  0  0  0  0  0  0  0
   37.8250   26.0910   36.7230 H   0  0  0  0  0  0  0  0  0  0  0  0
   36.8340   24.9520   35.8070 H   0  0  0  0  0  0  0  0  0  0  0  0
   38.5770   24.1420   36.8110 C   0  0  0  0  0  0  0  0  0  0  0  0
   38.2640   23.8600   38.1240 C   0  0  0  0  0  0  0  0  0  0  0  0
   39.0220   22.8750   38.6210 N   0  0  0  0  0  0  0  0  0  0  0  0
   39.8310   22.5300   37.5970 C   0  0  0  0  0  0  0  0  0  0  0  0
   39.5700   23.2840   36.5120 N   0  0  0  0  0  0  0  0  0  0  0  0
   37.4970   24.3500   38.7320 H   0  0  0  0  0  0  0  0  0  0  0  0
   38.9910   22.4700   39.5790 H   0  0  0  0  0  0  0  0  0  0  0  0
   42.7530   20.7510   37.4200 H   0  0  0  0  0  0  0  0  0  0  0  0
   42.1500   21.6390   37.2390 C   0  0  0  0  0  0  0  0  0  0  0  0
   42.4650   22.7400   36.6820 O   0  0  0  0  0  0  0  0  0  0  0  0
   40.8100   21.4940   37.7210 N   0  0  0  0  0  0  0  0  0  0  0  0
   40.4150   20.6520   38.1950 H   0  0  0  0  0  0  0  0  0  0  0  0
  1  4  1  1  0  0  0
  1  3  1  0  0  0  0
  1  2  1  0  0  0  0
  2  5  1  6  0  0  0
  2 17  1  0  0  0  0
  3  2  1  0  0  0  0
  3  7  1  0  0  0  0
  6  3  1  0  0  0  0
  8  1  1  0  0  0  0
  9  8  1  0  0  0  0
  9 14  1  0  0  0  0
 10  9  2  0  0  0  0
 11 12  2  0  0  0  0
 11 10  1  0  0  0  0
 12 13  1  0  0  0  0
 13  8  2  0  0  0  0
 15 10  1  0  0  0  0
 16 12  1  0  0  0  0
 17 18  1  0  0  0  0
 17 20  1  0  0  0  0
 19 17  1  0  0  0  0
 20 21  2  0  0  0  0
 21 22  1  0  0  0  0
 21 25  1  0  0  0  0
 22 26  1  0  0  0  0
 23 30  1  0  0  0  0
 23 22  1  0  0  0  0
 24 20  1  0  0  0  0
 24 23  2  0  0  0  0
 28 27  1  0  0  0  0
 28 30  1  0  0  0  0
 29 28  2  0  0  0  0
 30 31  1  0  0  0  0
M  END
>  <minimizedAffinity>
-5.16122913

$$$$

 OpenBabel03272501173D

 31 33  0  0  1  0  0  0  0  0999 V2000
   38.6580   26.2580   35.0230 C   0  0  1  0  0  0  0  0  0  0  0  0
   37.3910   26.9040   35.1370 C   0  0  1  0  0  0  0  0  0  0  0  0
   38.5080   27.4350   35.9990 C   0  0  0  0  0  0  0  0  0  0  0  0
   39.3420   26.4250   34.1680 H   0  0  0  0  0  0  0  0  0  0  0  0
   36.5820   26.4040   35.7470 H   0  0  0  0  0  0  0  0  0  0  0  0
   38.5090   27.2360   37.0810 H   0  0  0  0  0  0  0  0  0  0  0  0
   38.9390   28.3750   35.6060 H   0  0  0  0  0  0  0  0  0  0  0  0
   38.9620   24.9630   35.7520 C   0  0  0  0  0  0  0  0  0  0  0  0
   40.1460   24.3410   35.3960 C   0  0  0  0  0  0  0  0  0  0  0  0
   40.3920   23.1260   36.0650 C   0  0  0  0  0  0  0  0  0  0  0  0
   39.5180   22.6440   36.9700 N   0  0  0  0  0  0  0  0  0  0  0  0
   38.3610   23.2960   37.2880 C   0  0  0  0  0  0  0  0  0  0  0  0
   38.0800   24.4850   36.6610 N   0  0  0  0  0  0  0  0  0  0  0  0
   40.8030   24.7820   34.6610 H   0  0  0  0  0  0  0  0  0  0  0  0
   41.3060   22.6010   35.8210 H   0  0  0  0  0  0  0  0  0  0  0  0
   37.6380   22.9470   38.0020 H   0  0  0  0  0  0  0  0  0  0  0  0
   36.8410   27.6830   33.9850 C   0  0  0  0  0  0  0  0  0  0  0  0
   35.7820   27.9490   34.2660 H   0  0  0  0  0  0  0  0  0  0  0  0
   37.3450   28.6400   33.8200 H   0  0  0  0  0  0  0  0  0  0  0  0
   36.7180   26.8630   32.7450 C   0  0  0  0  0  0  0  0  0  0  0  0
   36.3760   27.4100   31.5270 C   0  0  0  0  0  0  0  0  0  0  0  0
   36.3240   26.4890   30.5570 N   0  0  0  0  0  0  0  0  0  0  0  0
   36.6400   25.3340   31.1810 C   0  0  0  0  0  0  0  0  0  0  0  0
   36.8770   25.5510   32.4890 N   0  0  0  0  0  0  0  0  0  0  0  0
   36.1640   28.4650   31.3210 H   0  0  0  0  0  0  0  0  0  0  0  0
   36.0930   26.6340   29.5530 H   0  0  0  0  0  0  0  0  0  0  0  0
   36.2560   22.0370   30.3350 H   0  0  0  0  0  0  0  0  0  0  0  0
   36.1160   22.8870   31.0020 C   0  0  0  0  0  0  0  0  0  0  0  0
   35.5310   22.9500   32.1310 O   0  0  0  0  0  0  0  0  0  0  0  0
   36.6960   24.0870   30.4820 N   0  0  0  0  0  0  0  0  0  0  0  0
   37.2040   24.1810   29.5750 H   0  0  0  0  0  0  0  0  0  0  0  0
  1  4  1  6  0  0  0
  1  2  1  0  0  0  0
  1  8  1  0  0  0  0
  1  3  1  0  0  0  0
  2  5  1  1  0  0  0
  2  3  1  0  0  0  0
  3  6  1  0  0  0  0
  7  3  1  0  0  0  0
  8 13  1  0  0  0  0
  9  8  2  0  0  0  0
  9 10  1  0  0  0  0
 10 11  2  0  0  0  0
 11 12  1  0  0  0  0
 12 16  1  0  0  0  0
 13 12  2  0  0  0  0
 14  9  1  0  0  0  0
 15 10  1  0  0  0  0
 17 18  1  0  0  0  0
 17  2  1  0  0  0  0
 19 17  1  0  0  0  0
 20 17  1  0  0  0  0
 21 20  2  0  0  0  0
 22 23  1  0  0  0  0
 22 21  1  0  0  0  0
 23 24  2  0  0  0  0
 24 20  1  0  0  0  0
 25 21  1  0  0  0  0
 26 22  1  0  0  0  0
 27 28  1  0  0  0  0
 28 29  2  0  0  0  0
 30 28  1  0  0  0  0
 30 23  1  0  0  0  0
 31 30  1  0  0  0  0
M  END
>  <minimizedAffinity>
-5.03034639

$$$$

 OpenBabel03272501173D

 31 33  0  0  1  0  0  0  0  0999 V2000
   38.9380   25.3640   34.7630 C   0  0  1  0  0  0  0  0  0  0  0  0
   38.1700   26.5610   34.6560 C   0  0  1  0  0  0  0  0  0  0  0  0
   39.6360   26.7170   34.9700 C   0  0  0  0  0  0  0  0  0  0  0  0
   39.2690   24.7820   33.8800 H   0  0  0  0  0  0  0  0  0  0  0  0
   37.5130   26.8600   35.5250 H   0  0  0  0  0  0  0  0  0  0  0  0
   39.9530   27.0050   35.9830 H   0  0  0  0  0  0  0  0  0  0  0  0
   40.2290   27.0330   34.0910 H   0  0  0  0  0  0  0  0  0  0  0  0
   38.9470   24.5300   36.0300 C   0  0  0  0  0  0  0  0  0  0  0  0
   37.9810   24.8560   36.9660 C   0  0  0  0  0  0  0  0  0  0  0  0
   38.0270   24.0880   38.1450 C   0  0  0  0  0  0  0  0  0  0  0  0
   38.9540   23.1250   38.3090 N   0  0  0  0  0  0  0  0  0  0  0  0
   39.8880   22.8400   37.3550 C   0  0  0  0  0  0  0  0  0  0  0  0
   39.8800   23.5630   36.1880 N   0  0  0  0  0  0  0  0  0  0  0  0
   37.2650   25.6420   36.7710 H   0  0  0  0  0  0  0  0  0  0  0  0
   37.2910   24.3060   38.9090 H   0  0  0  0  0  0  0  0  0  0  0  0
   40.6450   22.0820   37.4450 H   0  0  0  0  0  0  0  0  0  0  0  0
   37.5950   26.9670   33.3370 C   0  0  0  0  0  0  0  0  0  0  0  0
   38.4360   27.4580   32.7680 H   0  0  0  0  0  0  0  0  0  0  0  0
   37.2800   26.1240   32.7150 H   0  0  0  0  0  0  0  0  0  0  0  0
   36.5490   28.0220   33.4670 C   0  0  0  0  0  0  0  0  0  0  0  0
   35.7950   28.4540   32.3960 C   0  0  0  0  0  0  0  0  0  0  0  0
   34.9210   29.4050   32.7470 N   0  0  0  0  0  0  0  0  0  0  0  0
   35.1310   29.5770   34.0690 C   0  0  0  0  0  0  0  0  0  0  0  0
   36.1020   28.7530   34.5060 N   0  0  0  0  0  0  0  0  0  0  0  0
   35.8610   28.0940   31.3640 H   0  0  0  0  0  0  0  0  0  0  0  0
   34.2370   29.8980   32.1360 H   0  0  0  0  0  0  0  0  0  0  0  0
   34.2770   32.0580   36.2710 H   0  0  0  0  0  0  0  0  0  0  0  0
   34.9990   31.4080   35.7800 C   0  0  0  0  0  0  0  0  0  0  0  0
   36.2620   31.3340   35.9270 O   0  0  0  0  0  0  0  0  0  0  0  0
   34.3840   30.5240   34.8380 N   0  0  0  0  0  0  0  0  0  0  0  0
   33.3640   30.4750   34.6160 H   0  0  0  0  0  0  0  0  0  0  0  0
  1  4  1  6  0  0  0
  1  3  1  0  0  0  0
  1  8  1  0  0  0  0
  2  1  1  0  0  0  0
  2  3  1  0  0  0  0
  2  5  1  1  0  0  0
  3  6  1  0  0  0  0
  7  3  1  0  0  0  0
  8 13  2  0  0  0  0
  8  9  1  0  0  0  0
  9 10  2  0  0  0  0
 10 11  1  0  0  0  0
 10 15  1  0  0  0  0
 12 16  1  0  0  0  0
 12 11  2  0  0  0  0
 13 12  1  0  0  0  0
 14  9  1  0  0  0  0
 17 20  1  0  0  0  0
 17  2  1  0  0  0  0
 18 17  1  0  0  0  0
 19 17  1  0  0  0  0
 20 24  1  0  0  0  0
 21 22  1  0  0  0  0
 21 20  2  0  0  0  0
 22 23  1  0  0  0  0
 23 24  2  0  0  0  0
 23 30  1  0  0  0  0
 25 21  1  0  0  0  0
 26 22  1  0  0  0  0
 28 29  2  0  0  0  0
 28 27  1  0  0  0  0
 30 28  1  0  0  0  0
 31 30  1  0  0  0  0
M  END
>  <minimizedAffinity>
-4.99155521

$$$$

 OpenBabel03272501173D

 31 33  0  0  1  0  0  0  0  0999 V2000
   39.1010   27.1730   34.7440 C   0  0  1  0  0  0  0  0  0  0  0  0
   37.6960   26.9300   34.7860 C   0  0  1  0  0  0  0  0  0  0  0  0
   38.3610   27.3190   36.0820 C   0  0  0  0  0  0  0  0  0  0  0  0
   39.5380   28.1030   34.3310 H   0  0  0  0  0  0  0  0  0  0  0  0
   37.3320   25.8610   34.7970 H   0  0  0  0  0  0  0  0  0  0  0  0
   38.5190   26.5640   36.8660 H   0  0  0  0  0  0  0  0  0  0  0  0
   38.1750   28.3750   36.3560 H   0  0  0  0  0  0  0  0  0  0  0  0
   40.1090   26.0390   34.7840 C   0  0  0  0  0  0  0  0  0  0  0  0
   41.4340   26.4120   34.6430 C   0  0  0  0  0  0  0  0  0  0  0  0
   42.3470   25.3390   34.6550 C   0  0  0  0  0  0  0  0  0  0  0  0
   41.9210   24.0690   34.7930 N   0  0  0  0  0  0  0  0  0  0  0  0
   40.6010   23.7510   34.9290 C   0  0  0  0  0  0  0  0  0  0  0  0
   39.6750   24.7640   34.9240 N   0  0  0  0  0  0  0  0  0  0  0  0
   41.7080   27.4510   34.5360 H   0  0  0  0  0  0  0  0  0  0  0  0
   43.3960   25.5800   34.5470 H   0  0  0  0  0  0  0  0  0  0  0  0
   40.2190   22.7520   35.0410 H   0  0  0  0  0  0  0  0  0  0  0  0
   36.7560   27.8480   34.0720 C   0  0  0  0  0  0  0  0  0  0  0  0
   35.7230   27.5800   34.4350 H   0  0  0  0  0  0  0  0  0  0  0  0
   36.8880   28.9030   34.3300 H   0  0  0  0  0  0  0  0  0  0  0  0
   36.7240   27.6040   32.6000 C   0  0  0  0  0  0  0  0  0  0  0  0
   36.4800   26.3590   32.0610 C   0  0  0  0  0  0  0  0  0  0  0  0
   36.5010   26.3760   30.7230 N   0  0  0  0  0  0  0  0  0  0  0  0
   36.7650   27.6640   30.4130 C   0  0  0  0  0  0  0  0  0  0  0  0
   36.8990   28.4020   31.5300 N   0  0  0  0  0  0  0  0  0  0  0  0
   36.2860   25.4340   32.6150 H   0  0  0  0  0  0  0  0  0  0  0  0
   36.3480   25.5780   30.0740 H   0  0  0  0  0  0  0  0  0  0  0  0
   37.8450   29.2070   27.5520 H   0  0  0  0  0  0  0  0  0  0  0  0
   37.9230   28.9730   28.6120 C   0  0  0  0  0  0  0  0  0  0  0  0
   38.7860   29.3490   29.4690 O   0  0  0  0  0  0  0  0  0  0  0  0
   36.8730   28.1090   29.0580 N   0  0  0  0  0  0  0  0  0  0  0  0
   36.1010   27.7250   28.4680 H   0  0  0  0  0  0  0  0  0  0  0  0
  1  4  1  6  0  0  0
  1  8  1  0  0  0  0
  1  2  1  0  0  0  0
  1  3  1  0  0  0  0
  2  5  1  6  0  0  0
  2  3  1  0  0  0  0
  3  7  1  0  0  0  0
  3  6  1  0  0  0  0
  8 13  1  0  0  0  0
  9 10  1  0  0  0  0
  9  8  2  0  0  0  0
 10 11  2  0  0  0  0
 11 12  1  0  0  0  0
 12 16  1  0  0  0  0
 13 12  2  0  0  0  0
 14  9  1  0  0  0  0
 15 10  1  0  0  0  0
 17 19  1  0  0  0  0
 17 18  1  0  0  0  0
 17  2  1  0  0  0  0
 20 17  1  0  0  0  0
 21 20  2  0  0  0  0
 21 25  1  0  0  0  0
 22 21  1  0  0  0  0
 23 22  1  0  0  0  0
 23 24  2  0  0  0  0
 24 20  1  0  0  0  0
 26 22  1  0  0  0  0
 27 28  1  0  0  0  0
 28 30  1  0  0  0  0
 28 29  2  0  0  0  0
 30 23  1  0  0  0  0
 31 30  1  0  0  0  0
M  END
>  <minimizedAffinity>
-4.92335653

$$$$

 OpenBabel03272501173D

 31 33  0  0  1  0  0  0  0  0999 V2000
   38.4300   25.7080   34.9120 C   0  0  1  0  0  0  0  0  0  0  0  0
   37.7860   26.9460   35.2120 C   0  0  1  0  0  0  0  0  0  0  0  0
   39.2850   26.9780   35.0460 C   0  0  0  0  0  0  0  0  0  0  0  0
   38.4060   25.2480   33.9050 H   0  0  0  0  0  0  0  0  0  0  0  0
   37.4710   27.1460   36.2780 H   0  0  0  0  0  0  0  0  0  0  0  0
   39.9320   27.0950   35.9280 H   0  0  0  0  0  0  0  0  0  0  0  0
   39.5970   27.3900   34.0680 H   0  0  0  0  0  0  0  0  0  0  0  0
   38.7580   24.6960   35.9930 C   0  0  0  0  0  0  0  0  0  0  0  0
   37.9550   24.7430   37.1190 C   0  0  0  0  0  0  0  0  0  0  0  0
   38.2970   23.8140   38.1210 C   0  0  0  0  0  0  0  0  0  0  0  0
   39.3320   22.9670   37.9550 N   0  0  0  0  0  0  0  0  0  0  0  0
   40.0960   22.9580   36.8240 C   0  0  0  0  0  0  0  0  0  0  0  0
   39.7980   23.8470   35.8210 N   0  0  0  0  0  0  0  0  0  0  0  0
   37.1400   25.4490   37.1880 H   0  0  0  0  0  0  0  0  0  0  0  0
   37.6990   23.8120   39.0220 H   0  0  0  0  0  0  0  0  0  0  0  0
   40.9280   22.3010   36.6520 H   0  0  0  0  0  0  0  0  0  0  0  0
   36.8660   27.5720   34.2140 C   0  0  0  0  0  0  0  0  0  0  0  0
   35.8430   27.1490   34.4240 H   0  0  0  0  0  0  0  0  0  0  0  0
   36.7600   28.6550   34.3310 H   0  0  0  0  0  0  0  0  0  0  0  0
   37.1750   27.1620   32.8130 C   0  0  0  0  0  0  0  0  0  0  0  0
   36.4770   26.1660   32.1630 C   0  0  0  0  0  0  0  0  0  0  0  0
   36.9260   25.9660   30.9180 N   0  0  0  0  0  0  0  0  0  0  0  0
   37.9310   26.8580   30.7820 C   0  0  0  0  0  0  0  0  0  0  0  0
   38.0840   27.5750   31.9110 N   0  0  0  0  0  0  0  0  0  0  0  0
   35.6470   25.5780   32.5690 H   0  0  0  0  0  0  0  0  0  0  0  0
   36.5780   25.2800   30.2180 H   0  0  0  0  0  0  0  0  0  0  0  0
   40.5170   27.1470   28.5540 H   0  0  0  0  0  0  0  0  0  0  0  0
   40.1140   27.0710   29.5630 C   0  0  0  0  0  0  0  0  0  0  0  0
   40.7180   27.0630   30.6830 O   0  0  0  0  0  0  0  0  0  0  0  0
   38.6870   26.9680   29.5720 N   0  0  0  0  0  0  0  0  0  0  0  0
   38.0650   26.9630   28.7330 H   0  0  0  0  0  0  0  0  0  0  0  0
  1  4  1  6  0  0  0
  1  3  1  0  0  0  0
  1  2  1  0  0  0  0
  1  8  1  0  0  0  0
  2  5  1  1  0  0  0
  3  2  1  0  0  0  0
  3  6  1  0  0  0  0
  7  3  1  0  0  0  0
  8  9  1  0  0  0  0
  9 14  1  0  0  0  0
  9 10  2  0  0  0  0
 10 15  1  0  0  0  0
 11 10  1  0  0  0  0
 12 11  2  0  0  0  0
 13  8  2  0  0  0  0
 13 12  1  0  0  0  0
 16 12  1  0  0  0  0
 17 19  1  0  0  0  0
 17 18  1  0  0  0  0
 17  2  1  0  0  0  0
 20 17  1  0  0  0  0
 21 25  1  0  0  0  0
 21 20  2  0  0  0  0
 22 21  1  0  0  0  0
 23 22  1  0  0  0  0
 23 24  2  0  0  0  0
 24 20  1  0  0  0  0
 26 22  1  0  0  0  0
 27 28  1  0  0  0  0
 28 30  1  0  0  0  0
 28 29  2  0  0  0  0
 30 23  1  0  0  0  0
 31 30  1  0  0  0  0
M  END
>  <minimizedAffinity>
-4.85390663

$$$$

 OpenBabel03272501173D

 31 33  0  0  1  0  0  0  0  0999 V2000
   39.2660   25.2790   34.6620 C   0  0  1  0  0  0  0  0  0  0  0  0
   38.3040   26.2240   34.1950 C   0  0  1  0  0  0  0  0  0  0  0  0
   39.5230   26.7760   34.8910 C   0  0  0  0  0  0  0  0  0  0  0  0
   39.9790   24.7650   33.9880 H   0  0  0  0  0  0  0  0  0  0  0  0
   37.3620   26.3790   34.7990 H   0  0  0  0  0  0  0  0  0  0  0  0
   39.4360   27.1840   35.9090 H   0  0  0  0  0  0  0  0  0  0  0  0
   40.2620   27.1970   34.1840 H   0  0  0  0  0  0  0  0  0  0  0  0
   39.0840   24.5360   35.9730 C   0  0  0  0  0  0  0  0  0  0  0  0
   40.0010   23.5300   36.2210 C   0  0  0  0  0  0  0  0  0  0  0  0
   39.7940   22.8370   37.4290 C   0  0  0  0  0  0  0  0  0  0  0  0
   38.7740   23.1590   38.2470 N   0  0  0  0  0  0  0  0  0  0  0  0
   37.8940   24.1620   37.9580 C   0  0  0  0  0  0  0  0  0  0  0  0
   38.0570   24.8660   36.7910 N   0  0  0  0  0  0  0  0  0  0  0  0
   40.7980   23.3220   35.5210 H   0  0  0  0  0  0  0  0  0  0  0  0
   40.4850   22.0390   37.6680 H   0  0  0  0  0  0  0  0  0  0  0  0
   37.0670   24.4510   38.5810 H   0  0  0  0  0  0  0  0  0  0  0  0
   38.0810   26.4030   32.7280 C   0  0  0  0  0  0  0  0  0  0  0  0
   37.5710   27.4010   32.6090 H   0  0  0  0  0  0  0  0  0  0  0  0
   39.0060   26.4810   32.1480 H   0  0  0  0  0  0  0  0  0  0  0  0
   37.1210   25.4080   32.1680 C   0  0  0  0  0  0  0  0  0  0  0  0
   35.9270   25.7780   31.5860 C   0  0  0  0  0  0  0  0  0  0  0  0
   35.2270   24.7210   31.1560 N   0  0  0  0  0  0  0  0  0  0  0  0
   35.9990   23.6610   31.4770 C   0  0  0  0  0  0  0  0  0  0  0  0
   37.1320   24.0650   32.0810 N   0  0  0  0  0  0  0  0  0  0  0  0
   35.5490   26.7990   31.4630 H   0  0  0  0  0  0  0  0  0  0  0  0
   34.3000   24.7220   30.6830 H   0  0  0  0  0  0  0  0  0  0  0  0
   35.3720   20.3030   31.7320 H   0  0  0  0  0  0  0  0  0  0  0  0
   35.7240   21.2540   32.1300 C   0  0  0  0  0  0  0  0  0  0  0  0
   36.2070   21.5300   33.2750 O   0  0  0  0  0  0  0  0  0  0  0  0
   35.6010   22.3190   31.1820 N   0  0  0  0  0  0  0  0  0  0  0  0
   35.2250   22.2370   30.2110 H   0  0  0  0  0  0  0  0  0  0  0  0
  1  4  1  6  0  0  0
  1  3  1  0  0  0  0
  1  8  1  0  0  0  0
  2  1  1  0  0  0  0
  2  5  1  1  0  0  0
  2  3  1  0  0  0  0
  3  6  1  0  0  0  0
  7  3  1  0  0  0  0
  8  9  2  0  0  0  0
  8 13  1  0  0  0  0
  9 10  1  0  0  0  0
 10 15  1  0  0  0  0
 10 11  2  0  0  0  0
 12 11  1  0  0  0  0
 12 16  1  0  0  0  0
 13 12  2  0  0  0  0
 14  9  1  0  0  0  0
 17  2  1  0  0  0  0
 18 17  1  0  0  0  0
 19 17  1  0  0  0  0
 20 17  1  0  0  0  0
 21 20  2  0  0  0  0
 22 23  1  0  0  0  0
 22 21  1  0  0  0  0
 23 24  2  0  0  0  0
 24 20  1  0  0  0  0
 25 21  1  0  0  0  0
 26 22  1  0  0  0  0
 27 28  1  0  0  0  0
 28 29  2  0  0  0  0
 30 23  1  0  0  0  0
 30 28  1  0  0  0  0
 31 30  1  0  0  0  0
M  END
>  <minimizedAffinity>
-4.83217812

$$$$

 OpenBabel03272501173D

 31 33  0  0  1  0  0  0  0  0999 V2000
   37.3260   26.3830   34.8980 C   0  0  1  0  0  0  0  0  0  0  0  0
   38.2350   25.3250   35.2000 C   0  0  1  0  0  0  0  0  0  0  0  0
   38.5910   26.6980   35.7120 C   0  0  0  0  0  0  0  0  0  0  0  0
   36.3650   26.5190   35.4310 H   0  0  0  0  0  0  0  0  0  0  0  0
   38.9430   24.9740   34.3930 H   0  0  0  0  0  0  0  0  0  0  0  0
   39.4040   27.2670   35.2380 H   0  0  0  0  0  0  0  0  0  0  0  0
   38.3870   26.8160   36.7930 H   0  0  0  0  0  0  0  0  0  0  0  0
   37.3370   27.0860   33.5540 C   0  0  0  0  0  0  0  0  0  0  0  0
   36.4320   28.1220   33.4140 C   0  0  0  0  0  0  0  0  0  0  0  0
   36.4410   28.7400   32.1480 C   0  0  0  0  0  0  0  0  0  0  0  0
   37.2800   28.3220   31.1800 N   0  0  0  0  0  0  0  0  0  0  0  0
   38.1570   27.2940   31.3670 C   0  0  0  0  0  0  0  0  0  0  0  0
   38.1840   26.6620   32.5860 N   0  0  0  0  0  0  0  0  0  0  0  0
   35.7860   28.4070   34.2320 H   0  0  0  0  0  0  0  0  0  0  0  0
   35.7490   29.5560   31.9890 H   0  0  0  0  0  0  0  0  0  0  0  0
   38.8420   26.9290   30.6230 H   0  0  0  0  0  0  0  0  0  0  0  0
   37.8200   24.2210   36.1190 C   0  0  0  0  0  0  0  0  0  0  0  0
   37.3600   24.7210   37.0200 H   0  0  0  0  0  0  0  0  0  0  0  0
   37.0320   23.5810   35.7120 H   0  0  0  0  0  0  0  0  0  0  0  0
   38.9820   23.4530   36.6540 C   0  0  0  0  0  0  0  0  0  0  0  0
   38.9950   22.9220   37.9270 C   0  0  0  0  0  0  0  0  0  0  0  0
   40.1380   22.2770   38.1910 N   0  0  0  0  0  0  0  0  0  0  0  0
   40.8600   22.4060   37.0580 C   0  0  0  0  0  0  0  0  0  0  0  0
   40.1750   23.1080   36.1360 N   0  0  0  0  0  0  0  0  0  0  0  0
   38.1940   22.9900   38.6710 H   0  0  0  0  0  0  0  0  0  0  0  0
   40.4040   21.7880   39.0700 H   0  0  0  0  0  0  0  0  0  0  0  0
   44.1840   21.9880   36.3420 H   0  0  0  0  0  0  0  0  0  0  0  0
   43.2650   22.5720   36.3610 C   0  0  0  0  0  0  0  0  0  0  0  0
   43.0470   23.7610   35.9630 O   0  0  0  0  0  0  0  0  0  0  0  0
   42.1700   21.8460   36.9270 N   0  0  0  0  0  0  0  0  0  0  0  0
   42.2040   20.8680   37.2920 H   0  0  0  0  0  0  0  0  0  0  0  0
  1  2  1  0  0  0  0
  1  4  1  1  0  0  0
  1  3  1  0  0  0  0
  2  5  1  6  0  0  0
  2  3  1  0  0  0  0
  2 17  1  0  0  0  0
  3  7  1  0  0  0  0
  6  3  1  0  0  0  0
  8  1  1  0  0  0  0
  9  8  1  0  0  0  0
  9 14  1  0  0  0  0
 10  9  2  0  0  0  0
 11 12  2  0  0  0  0
 11 10  1  0  0  0  0
 12 13  1  0  0  0  0
 13  8  2  0  0  0  0
 15 10  1  0  0  0  0
 16 12  1  0  0  0  0
 17 20  1  0  0  0  0
 17 18  1  0  0  0  0
 19 17  1  0  0  0  0
 20 21  2  0  0  0  0
 21 22  1  0  0  0  0
 21 25  1  0  0  0  0
 22 26  1  0  0  0  0
 23 22  1  0  0  0  0
 24 20  1  0  0  0  0
 24 23  2  0  0  0  0
 27 28  1  0  0  0  0
 28 30  1  0  0  0  0
 29 28  2  0  0  0  0
 30 23  1  0  0  0  0
 30 31  1  0  0  0  0
M  END
>  <minimizedAffinity>
-4.78539276

$$$$
