
 OpenBabel03272506043D

 26 27  0  0  0  0  0  0  0  0999 V2000
   35.7560   28.9220   49.2550 C   0  0  0  0  0  0  0  0  0  0  0  0
   35.8850   28.1300   50.0110 H   0  0  0  0  0  0  0  0  0  0  0  0
   36.6260   28.8570   48.5660 H   0  0  0  0  0  0  0  0  0  0  0  0
   34.4840   28.7240   48.4750 C   0  0  0  0  0  0  0  0  0  0  0  0
   34.3190   29.4770   47.2490 C   0  0  0  0  0  0  0  0  0  0  0  0
   32.7200   28.9250   46.7180 S   0  0  0  0  0  0  0  0  0  0  0  0
   32.4840   27.7780   48.1820 C   0  0  0  0  0  0  0  0  0  0  0  0
   33.4940   27.9310   48.7990 N   0  0  0  0  0  0  0  0  0  0  0  0
   35.0110   30.1700   46.8220 H   0  0  0  0  0  0  0  0  0  0  0  0
   29.4520   27.0050   49.7530 H   0  0  0  0  0  0  0  0  0  0  0  0
   30.3610   27.4270   49.3470 C   0  0  0  0  0  0  0  0  0  0  0  0
   29.7220   28.2750   50.0250 O   0  0  0  0  0  0  0  0  0  0  0  0
   31.3870   26.8980   48.5440 N   0  0  0  0  0  0  0  0  0  0  0  0
   31.2290   25.9100   48.3010 H   0  0  0  0  0  0  0  0  0  0  0  0
   35.7530   30.2490   49.9530 C   0  0  0  0  0  0  0  0  0  0  0  0
   34.7830   30.7420   49.7560 H   0  0  0  0  0  0  0  0  0  0  0  0
   35.9050   30.1350   51.0420 H   0  0  0  0  0  0  0  0  0  0  0  0
   38.0270   33.1150   49.2840 C   0  0  0  0  0  0  0  0  0  0  0  0
   38.8020   32.6520   48.2230 C   0  0  0  0  0  0  0  0  0  0  0  0
   38.5420   31.3640   47.7430 C   0  0  0  0  0  0  0  0  0  0  0  0
   37.5600   30.6360   48.3270 N   0  0  0  0  0  0  0  0  0  0  0  0
   36.8340   31.1370   49.3610 C   0  0  0  0  0  0  0  0  0  0  0  0
   37.0550   32.3600   49.8420 N   0  0  0  0  0  0  0  0  0  0  0  0
   38.2340   34.1080   49.6470 H   0  0  0  0  0  0  0  0  0  0  0  0
   39.5870   33.2250   47.7510 H   0  0  0  0  0  0  0  0  0  0  0  0
   39.0780   30.9010   46.9280 H   0  0  0  0  0  0  0  0  0  0  0  0
  1 15  1  0  0  0  0
  1  2  1  0  0  0  0
  3  1  1  0  0  0  0
  4  8  1  0  0  0  0
  4  1  1  0  0  0  0
  5  4  2  0  0  0  0
  6  5  1  0  0  0  0
  6  7  1  0  0  0  0
  7 13  1  0  0  0  0
  7  8  2  0  0  0  0
  9  5  1  0  0  0  0
 11 10  1  0  0  0  0
 11 12  2  0  0  0  0
 13 11  1  0  0  0  0
 14 13  1  0  0  0  0
 15 17  1  0  0  0  0
 16 15  1  0  0  0  0
 18 24  1  0  0  0  0
 18 23  1  0  0  0  0
 19 18  2  0  0  0  0
 20 19  1  0  0  0  0
 20 21  2  0  0  0  0
 21 22  1  0  0  0  0
 22 23  2  0  0  0  0
 22 15  1  0  0  0  0
 25 19  1  0  0  0  0
 26 20  1  0  0  0  0
M  END
>  <minimizedAffinity>
-4.91909409

>  <minimizedRMSD>
0.478697658

$$$$
