
 OpenBabel03272503363D

 15 15  0  0  0  0  0  0  0  0999 V2000
   37.3290   30.0410   51.1010 C   0  0  0  0  0  0  0  0  0  0  0  0
   38.0720   30.8370   50.2210 C   0  0  0  0  0  0  0  0  0  0  0  0
   37.4300   31.2700   49.0700 C   0  0  0  0  0  0  0  0  0  0  0  0
   36.1400   30.9100   48.8540 N   0  0  0  0  0  0  0  0  0  0  0  0
   35.4450   30.1290   49.7370 C   0  0  0  0  0  0  0  0  0  0  0  0
   36.0570   29.7080   50.8500 N   0  0  0  0  0  0  0  0  0  0  0  0
   39.1010   31.1310   50.3820 H   0  0  0  0  0  0  0  0  0  0  0  0
   34.4160   29.8470   49.5560 H   0  0  0  0  0  0  0  0  0  0  0  0
   39.4600   33.9460   48.0770 H   0  0  0  0  0  0  0  0  0  0  0  0
   38.8660   33.1830   48.5700 C   0  0  0  0  0  0  0  0  0  0  0  0
   39.0860   33.5930   49.7570 O   0  0  0  0  0  0  0  0  0  0  0  0
   38.0920   32.0840   48.1090 N   0  0  0  0  0  0  0  0  0  0  0  0
   38.1460   32.0600   47.0710 H   0  0  0  0  0  0  0  0  0  0  0  0
   38.0720   29.6640   52.2210 O   0  0  0  0  0  0  0  0  0  0  0  0
   37.6630   29.6410   53.1510 H   0  0  0  0  0  0  0  0  0  0  0  0
  1 14  1  0  0  0  0
  2  7  1  0  0  0  0
  2  1  2  0  0  0  0
  3  2  1  0  0  0  0
  4  3  2  0  0  0  0
  4  5  1  0  0  0  0
  5  6  2  0  0  0  0
  6  1  1  0  0  0  0
  8  5  1  0  0  0  0
  9 10  1  0  0  0  0
 10 11  2  0  0  0  0
 12 10  1  0  0  0  0
 12  3  1  0  0  0  0
 13 12  1  0  0  0  0
 14 15  1  0  0  0  0
M  END
>  <minimizedAffinity>
-4.48238754

>  <minimizedRMSD>
0.302596986

$$$$
