
 OpenBabel03272506523D

 30 31  0  0  1  0  0  0  0  0999 V2000
   39.1200   26.7620   35.2490 C   0  0  1  0  0  0  0  0  0  0  0  0
   39.7330   27.0060   33.9480 C   0  0  0  0  0  0  0  0  0  0  0  0
   38.8180   27.0660   32.7560 C   0  0  0  0  0  0  0  0  0  0  0  0
   37.5270   27.7490   33.0010 C   0  0  2  0  0  0  0  0  0  0  0  0
   36.8590   27.4660   34.3070 C   0  0  0  0  0  0  0  0  0  0  0  0
   37.8380   27.5340   35.4340 C   0  0  0  0  0  0  0  0  0  0  0  0
   39.8010   27.1970   36.0490 H   0  0  0  0  0  0  0  0  0  0  0  0
   40.1390   28.0710   33.9940 H   0  0  0  0  0  0  0  0  0  0  0  0
   40.6070   26.4300   33.6710 H   0  0  0  0  0  0  0  0  0  0  0  0
   38.6010   26.0160   32.4590 H   0  0  0  0  0  0  0  0  0  0  0  0
   39.3440   27.5560   31.9320 H   0  0  0  0  0  0  0  0  0  0  0  0
   37.7070   28.8430   32.9400 H   0  0  0  0  0  0  0  0  0  0  0  0
   36.1000   28.2260   34.4760 H   0  0  0  0  0  0  0  0  0  0  0  0
   36.4290   26.4390   34.3260 H   0  0  0  0  0  0  0  0  0  0  0  0
   38.1870   28.6170   35.4260 H   0  0  0  0  0  0  0  0  0  0  0  0
   37.3410   27.4230   36.3840 H   0  0  0  0  0  0  0  0  0  0  0  0
   38.0910   24.9320   36.6750 C   0  0  0  0  0  0  0  0  0  0  0  0
   39.0070   25.3450   35.6750 C   0  0  0  0  0  0  0  0  0  0  0  0
   39.8020   24.3750   35.1010 C   0  0  0  0  0  0  0  0  0  0  0  0
   39.6760   23.0820   35.5130 N   0  0  0  0  0  0  0  0  0  0  0  0
   38.7850   22.7240   36.4770 C   0  0  0  0  0  0  0  0  0  0  0  0
   37.9950   23.6620   37.0530 N   0  0  0  0  0  0  0  0  0  0  0  0
   37.4400   25.6380   37.1660 H   0  0  0  0  0  0  0  0  0  0  0  0
   40.5260   24.5290   34.3460 H   0  0  0  0  0  0  0  0  0  0  0  0
   38.6680   21.7090   36.8190 H   0  0  0  0  0  0  0  0  0  0  0  0
   35.5510   25.7880   30.9200 H   0  0  0  0  0  0  0  0  0  0  0  0
   36.2270   26.0580   31.7100 C   0  0  0  0  0  0  0  0  0  0  0  0
   36.6610   25.1140   32.4360 O   0  0  0  0  0  0  0  0  0  0  0  0
   36.6060   27.4250   31.9170 N   0  0  0  0  0  0  0  0  0  0  0  0
   36.2230   28.1910   31.2890 H   0  0  0  0  0  0  0  0  0  0  0  0
  1  6  1  0  0  0  0
  1 18  1  0  0  0  0
  1  7  1  1  0  0  0
  2  8  1  0  0  0  0
  2  1  1  0  0  0  0
  3  4  1  0  0  0  0
  3  2  1  0  0  0  0
  4 12  1  6  0  0  0
  4  5  1  0  0  0  0
  5 14  1  0  0  0  0
  5 13  1  0  0  0  0
  5  6  1  0  0  0  0
  6 16  1  0  0  0  0
  9  2  1  0  0  0  0
 10  3  1  0  0  0  0
 11  3  1  0  0  0  0
 15  6  1  0  0  0  0
 17 22  1  0  0  0  0
 17 23  1  0  0  0  0
 18 17  2  0  0  0  0
 19 20  2  0  0  0  0
 19 18  1  0  0  0  0
 20 21  1  0  0  0  0
 21 25  1  0  0  0  0
 21 22  2  0  0  0  0
 24 19  1  0  0  0  0
 26 27  1  0  0  0  0
 27 29  1  0  0  0  0
 27 28  2  0  0  0  0
 29  4  1  0  0  0  0
 30 29  1  0  0  0  0
M  END
>  <minimizedAffinity>
-4.35544205

$$$$

 OpenBabel03272506523D

 30 31  0  0  1  0  0  0  0  0999 V2000
   39.0880   26.7030   34.0460 C   0  0  1  0  0  0  0  0  0  0  0  0
   38.9190   27.2100   35.4040 C   0  0  0  0  0  0  0  0  0  0  0  0
   38.1810   26.3340   36.3780 C   0  0  0  0  0  0  0  0  0  0  0  0
   38.4800   24.8890   36.2610 C   0  0  2  0  0  0  0  0  0  0  0  0
   38.6020   24.3430   34.8750 C   0  0  0  0  0  0  0  0  0  0  0  0
   39.4400   25.2380   34.0200 C   0  0  0  0  0  0  0  0  0  0  0  0
   40.0080   27.1980   33.5950 H   0  0  0  0  0  0  0  0  0  0  0  0
   39.9660   27.2420   35.8540 H   0  0  0  0  0  0  0  0  0  0  0  0
   38.5710   28.2270   35.5370 H   0  0  0  0  0  0  0  0  0  0  0  0
   37.0940   26.4770   36.1870 H   0  0  0  0  0  0  0  0  0  0  0  0
   38.4000   26.6740   37.3940 H   0  0  0  0  0  0  0  0  0  0  0  0
   39.4380   24.6980   36.7880 H   0  0  0  0  0  0  0  0  0  0  0  0
   39.0940   23.3740   34.9300 H   0  0  0  0  0  0  0  0  0  0  0  0
   37.6080   24.2750   34.3790 H   0  0  0  0  0  0  0  0  0  0  0  0
   40.4630   25.2100   34.5180 H   0  0  0  0  0  0  0  0  0  0  0  0
   39.6070   24.7980   33.0500 H   0  0  0  0  0  0  0  0  0  0  0  0
   36.9350   27.8880   33.4150 C   0  0  0  0  0  0  0  0  0  0  0  0
   38.0330   27.0610   33.0660 C   0  0  0  0  0  0  0  0  0  0  0  0
   38.0900   26.5920   31.7710 C   0  0  0  0  0  0  0  0  0  0  0  0
   37.1060   26.9380   30.8940 N   0  0  0  0  0  0  0  0  0  0  0  0
   36.0670   27.7340   31.2650 C   0  0  0  0  0  0  0  0  0  0  0  0
   35.9920   28.2050   32.5340 N   0  0  0  0  0  0  0  0  0  0  0  0
   36.8270   28.2890   34.4100 H   0  0  0  0  0  0  0  0  0  0  0  0
   38.8440   25.9710   31.3660 H   0  0  0  0  0  0  0  0  0  0  0  0
   35.2770   28.0200   30.5900 H   0  0  0  0  0  0  0  0  0  0  0  0
   37.0930   22.8850   38.7390 H   0  0  0  0  0  0  0  0  0  0  0  0
   37.8210   23.4490   38.1870 C   0  0  0  0  0  0  0  0  0  0  0  0
   38.9980   23.4760   38.6580 O   0  0  0  0  0  0  0  0  0  0  0  0
   37.4600   24.1330   36.9800 N   0  0  0  0  0  0  0  0  0  0  0  0
   36.4640   24.0900   36.6140 H   0  0  0  0  0  0  0  0  0  0  0  0
  1  7  1  6  0  0  0
  1  2  1  0  0  0  0
  2  9  1  0  0  0  0
  2  8  1  0  0  0  0
  2  3  1  0  0  0  0
  3 11  1  0  0  0  0
  4  3  1  0  0  0  0
  4 12  1  1  0  0  0
  4 29  1  0  0  0  0
  5 13  1  0  0  0  0
  5  4  1  0  0  0  0
  6  1  1  0  0  0  0
  6 15  1  0  0  0  0
  6  5  1  0  0  0  0
 10  3  1  0  0  0  0
 14  5  1  0  0  0  0
 16  6  1  0  0  0  0
 17 23  1  0  0  0  0
 18 17  1  0  0  0  0
 18  1  1  0  0  0  0
 19 18  2  0  0  0  0
 20 21  2  0  0  0  0
 20 19  1  0  0  0  0
 21 22  1  0  0  0  0
 22 17  2  0  0  0  0
 24 19  1  0  0  0  0
 25 21  1  0  0  0  0
 27 28  2  0  0  0  0
 27 26  1  0  0  0  0
 29 27  1  0  0  0  0
 30 29  1  0  0  0  0
M  END
>  <minimizedAffinity>
-4.35162926

$$$$

 OpenBabel03272506523D

 30 31  0  0  1  0  0  0  0  0999 V2000
   39.2190   26.6130   35.2370 C   0  0  1  0  0  0  0  0  0  0  0  0
   39.6880   26.9050   33.8860 C   0  0  0  0  0  0  0  0  0  0  0  0
   38.6440   27.0760   32.8170 C   0  0  0  0  0  0  0  0  0  0  0  0
   37.4270   27.8010   33.2500 C   0  0  2  0  0  0  0  0  0  0  0  0
   36.9030   27.4720   34.6100 C   0  0  0  0  0  0  0  0  0  0  0  0
   38.0090   27.4290   35.6140 C   0  0  0  0  0  0  0  0  0  0  0  0
   40.0100   26.9690   35.9720 H   0  0  0  0  0  0  0  0  0  0  0  0
   40.1500   27.9470   33.9400 H   0  0  0  0  0  0  0  0  0  0  0  0
   40.4920   26.3080   33.4760 H   0  0  0  0  0  0  0  0  0  0  0  0
   38.3390   26.0560   32.4930 H   0  0  0  0  0  0  0  0  0  0  0  0
   39.0940   27.5900   31.9640 H   0  0  0  0  0  0  0  0  0  0  0  0
   37.6540   28.8880   33.2260 H   0  0  0  0  0  0  0  0  0  0  0  0
   36.2080   28.2540   34.9090 H   0  0  0  0  0  0  0  0  0  0  0  0
   36.4260   26.4660   34.6260 H   0  0  0  0  0  0  0  0  0  0  0  0
   38.4100   28.4940   35.6220 H   0  0  0  0  0  0  0  0  0  0  0  0
   37.6210   27.2860   36.6100 H   0  0  0  0  0  0  0  0  0  0  0  0
   38.1890   24.7410   36.6050 C   0  0  0  0  0  0  0  0  0  0  0  0
   39.0840   25.1800   35.5970 C   0  0  0  0  0  0  0  0  0  0  0  0
   39.8370   24.2210   34.9530 C   0  0  0  0  0  0  0  0  0  0  0  0
   39.6910   22.9130   35.3060 N   0  0  0  0  0  0  0  0  0  0  0  0
   38.8210   22.5290   36.2790 C   0  0  0  0  0  0  0  0  0  0  0  0
   38.0720   23.4560   36.9250 N   0  0  0  0  0  0  0  0  0  0  0  0
   37.5700   25.4370   37.1490 H   0  0  0  0  0  0  0  0  0  0  0  0
   40.5410   24.3950   34.1840 H   0  0  0  0  0  0  0  0  0  0  0  0
   38.6890   21.5020   36.5750 H   0  0  0  0  0  0  0  0  0  0  0  0
   35.2030   28.5360   30.6830 H   0  0  0  0  0  0  0  0  0  0  0  0
   35.9780   28.6660   31.4150 C   0  0  0  0  0  0  0  0  0  0  0  0
   36.5160   29.8110   31.4790 O   0  0  0  0  0  0  0  0  0  0  0  0
   36.3700   27.5830   32.2690 N   0  0  0  0  0  0  0  0  0  0  0  0
   35.8980   26.6340   32.1880 H   0  0  0  0  0  0  0  0  0  0  0  0
  1 18  1  0  0  0  0
  1  6  1  0  0  0  0
  1  7  1  1  0  0  0
  2  8  1  0  0  0  0
  2  1  1  0  0  0  0
  3  4  1  0  0  0  0
  3  2  1  0  0  0  0
  4 12  1  6  0  0  0
  4  5  1  0  0  0  0
  5 14  1  0  0  0  0
  5 13  1  0  0  0  0
  5  6  1  0  0  0  0
  6 15  1  0  0  0  0
  6 16  1  0  0  0  0
  9  2  1  0  0  0  0
 10  3  1  0  0  0  0
 11  3  1  0  0  0  0
 17 22  1  0  0  0  0
 17 23  1  0  0  0  0
 18 17  2  0  0  0  0
 19 20  2  0  0  0  0
 19 18  1  0  0  0  0
 20 21  1  0  0  0  0
 21 25  1  0  0  0  0
 21 22  2  0  0  0  0
 24 19  1  0  0  0  0
 26 27  1  0  0  0  0
 27 28  2  0  0  0  0
 27 29  1  0  0  0  0
 29  4  1  0  0  0  0
 30 29  1  0  0  0  0
M  END
>  <minimizedAffinity>
-4.28670025

$$$$

 OpenBabel03272506523D

 30 31  0  0  1  0  0  0  0  0999 V2000
   38.4610   25.1950   33.2210 C   0  0  1  0  0  0  0  0  0  0  0  0
   38.5750   26.2120   34.2610 C   0  0  0  0  0  0  0  0  0  0  0  0
   38.0590   25.8580   35.6290 C   0  0  0  0  0  0  0  0  0  0  0  0
   38.3320   24.4660   36.0530 C   0  0  2  0  0  0  0  0  0  0  0  0
   38.1660   23.4070   35.0130 C   0  0  0  0  0  0  0  0  0  0  0  0
   38.8050   23.8160   33.7260 C   0  0  0  0  0  0  0  0  0  0  0  0
   39.2660   25.3930   32.4420 H   0  0  0  0  0  0  0  0  0  0  0  0
   39.6940   26.3350   34.4510 H   0  0  0  0  0  0  0  0  0  0  0  0
   38.2590   27.2220   34.0350 H   0  0  0  0  0  0  0  0  0  0  0  0
   36.9550   26.0010   35.6070 H   0  0  0  0  0  0  0  0  0  0  0  0
   38.4830   26.5550   36.3570 H   0  0  0  0  0  0  0  0  0  0  0  0
   39.3800   24.4240   36.4190 H   0  0  0  0  0  0  0  0  0  0  0  0
   38.6610   22.5030   35.3610 H   0  0  0  0  0  0  0  0  0  0  0  0
   37.0910   23.2280   34.7870 H   0  0  0  0  0  0  0  0  0  0  0  0
   39.9090   23.9060   33.9860 H   0  0  0  0  0  0  0  0  0  0  0  0
   38.7680   23.0150   33.0050 H   0  0  0  0  0  0  0  0  0  0  0  0
   36.6520   24.0340   31.8730 C   0  0  0  0  0  0  0  0  0  0  0  0
   37.2240   25.2180   32.4020 C   0  0  0  0  0  0  0  0  0  0  0  0
   36.5870   26.4100   32.1280 C   0  0  0  0  0  0  0  0  0  0  0  0
   35.4530   26.4000   31.3730 N   0  0  0  0  0  0  0  0  0  0  0  0
   34.9330   25.2420   30.8820 C   0  0  0  0  0  0  0  0  0  0  0  0
   35.5440   24.0600   31.1400 N   0  0  0  0  0  0  0  0  0  0  0  0
   37.0980   23.0680   32.0480 H   0  0  0  0  0  0  0  0  0  0  0  0
   36.8920   27.3690   32.4530 H   0  0  0  0  0  0  0  0  0  0  0  0
   34.0380   25.2090   30.2830 H   0  0  0  0  0  0  0  0  0  0  0  0
   37.4710   23.2370   39.1880 H   0  0  0  0  0  0  0  0  0  0  0  0
   38.0680   23.4870   38.3310 C   0  0  0  0  0  0  0  0  0  0  0  0
   39.2950   23.1730   38.3790 O   0  0  0  0  0  0  0  0  0  0  0  0
   37.4860   24.1450   37.1970 N   0  0  0  0  0  0  0  0  0  0  0  0
   36.4530   24.3930   37.1910 H   0  0  0  0  0  0  0  0  0  0  0  0
  1  7  1  6  0  0  0
  1  6  1  0  0  0  0
  1  2  1  0  0  0  0
  2  8  1  0  0  0  0
  2  3  1  0  0  0  0
  3  4  1  0  0  0  0
  3 11  1  0  0  0  0
  4 12  1  1  0  0  0
  4 29  1  0  0  0  0
  5 13  1  0  0  0  0
  5  4  1  0  0  0  0
  6 15  1  0  0  0  0
  6  5  1  0  0  0  0
  9  2  1  0  0  0  0
 10  3  1  0  0  0  0
 14  5  1  0  0  0  0
 16  6  1  0  0  0  0
 17 23  1  0  0  0  0
 17 18  1  0  0  0  0
 18  1  1  0  0  0  0
 19 18  2  0  0  0  0
 19 24  1  0  0  0  0
 20 19  1  0  0  0  0
 21 22  1  0  0  0  0
 21 20  2  0  0  0  0
 22 17  2  0  0  0  0
 25 21  1  0  0  0  0
 27 28  2  0  0  0  0
 27 26  1  0  0  0  0
 29 27  1  0  0  0  0
 30 29  1  0  0  0  0
M  END
>  <minimizedAffinity>
-4.26931572

$$$$

 OpenBabel03272506523D

 30 31  0  0  1  0  0  0  0  0999 V2000
   39.0730   26.8380   35.2390 C   0  0  1  0  0  0  0  0  0  0  0  0
   39.7950   27.0730   33.9930 C   0  0  0  0  0  0  0  0  0  0  0  0
   38.9930   27.0570   32.7200 C   0  0  0  0  0  0  0  0  0  0  0  0
   37.6560   27.6860   32.8230 C   0  0  2  0  0  0  0  0  0  0  0  0
   36.8820   27.4100   34.0700 C   0  0  0  0  0  0  0  0  0  0  0  0
   37.7480   27.5550   35.2800 C   0  0  0  0  0  0  0  0  0  0  0  0
   39.6570   27.3270   36.0840 H   0  0  0  0  0  0  0  0  0  0  0  0
   40.1470   28.1570   34.0410 H   0  0  0  0  0  0  0  0  0  0  0  0
   40.7150   26.5310   33.8160 H   0  0  0  0  0  0  0  0  0  0  0  0
   38.8500   25.9900   32.4390 H   0  0  0  0  0  0  0  0  0  0  0  0
   39.5710   27.5480   31.9330 H   0  0  0  0  0  0  0  0  0  0  0  0
   37.7930   28.7860   32.7430 H   0  0  0  0  0  0  0  0  0  0  0  0
   36.0780   28.1380   34.1440 H   0  0  0  0  0  0  0  0  0  0  0  0
   36.4970   26.3660   34.0830 H   0  0  0  0  0  0  0  0  0  0  0  0
   38.0480   28.6520   35.2690 H   0  0  0  0  0  0  0  0  0  0  0  0
   37.1690   27.4490   36.1840 H   0  0  0  0  0  0  0  0  0  0  0  0
   39.8420   24.4200   35.1970 C   0  0  0  0  0  0  0  0  0  0  0  0
   38.9830   25.4300   35.6990 C   0  0  0  0  0  0  0  0  0  0  0  0
   38.0460   25.0590   36.6410 C   0  0  0  0  0  0  0  0  0  0  0  0
   37.9870   23.7580   37.0430 N   0  0  0  0  0  0  0  0  0  0  0  0
   38.8290   22.8160   36.5370 C   0  0  0  0  0  0  0  0  0  0  0  0
   39.7560   23.1610   35.6110 N   0  0  0  0  0  0  0  0  0  0  0  0
   40.5960   24.6410   34.4580 H   0  0  0  0  0  0  0  0  0  0  0  0
   37.3420   25.6970   37.1050 H   0  0  0  0  0  0  0  0  0  0  0  0
   38.8000   21.7820   36.8400 H   0  0  0  0  0  0  0  0  0  0  0  0
   35.9160   28.0160   29.8320 H   0  0  0  0  0  0  0  0  0  0  0  0
   36.5050   28.2780   30.6910 C   0  0  0  0  0  0  0  0  0  0  0  0
   36.8650   29.4890   30.7890 O   0  0  0  0  0  0  0  0  0  0  0  0
   36.8560   27.2900   31.6700 N   0  0  0  0  0  0  0  0  0  0  0  0
   36.5360   26.2820   31.5570 H   0  0  0  0  0  0  0  0  0  0  0  0
  1  6  1  0  0  0  0
  1 18  1  0  0  0  0
  1  7  1  1  0  0  0
  2  8  1  0  0  0  0
  2  1  1  0  0  0  0
  3  4  1  0  0  0  0
  3  2  1  0  0  0  0
  4 12  1  6  0  0  0
  4  5  1  0  0  0  0
  5 14  1  0  0  0  0
  5 13  1  0  0  0  0
  5  6  1  0  0  0  0
  6 16  1  0  0  0  0
  9  2  1  0  0  0  0
 10  3  1  0  0  0  0
 11  3  1  0  0  0  0
 15  6  1  0  0  0  0
 17 22  2  0  0  0  0
 17 18  1  0  0  0  0
 18 19  2  0  0  0  0
 19 20  1  0  0  0  0
 19 24  1  0  0  0  0
 21 25  1  0  0  0  0
 21 20  2  0  0  0  0
 22 21  1  0  0  0  0
 23 17  1  0  0  0  0
 26 27  1  0  0  0  0
 27 28  2  0  0  0  0
 27 29  1  0  0  0  0
 29  4  1  0  0  0  0
 30 29  1  0  0  0  0
M  END
>  <minimizedAffinity>
-4.24949551

$$$$

 OpenBabel03272506523D

 30 31  0  0  1  0  0  0  0  0999 V2000
   39.4800   24.8460   34.7070 C   0  0  1  0  0  0  0  0  0  0  0  0
   38.4970   24.5900   33.6590 C   0  0  0  0  0  0  0  0  0  0  0  0
   37.4060   25.6100   33.4740 C   0  0  0  0  0  0  0  0  0  0  0  0
   37.8430   27.0170   33.6220 C   0  0  2  0  0  0  0  0  0  0  0  0
   38.8080   27.3050   34.7260 C   0  0  0  0  0  0  0  0  0  0  0  0
   39.9060   26.2920   34.7540 C   0  0  0  0  0  0  0  0  0  0  0  0
   40.4400   24.3020   34.4330 H   0  0  0  0  0  0  0  0  0  0  0  0
   39.0690   24.6690   32.6750 H   0  0  0  0  0  0  0  0  0  0  0  0
   38.0500   23.6060   33.5980 H   0  0  0  0  0  0  0  0  0  0  0  0
   36.6350   25.4060   34.2500 H   0  0  0  0  0  0  0  0  0  0  0  0
   36.9530   25.4660   32.4900 H   0  0  0  0  0  0  0  0  0  0  0  0
   38.3170   27.3250   32.6660 H   0  0  0  0  0  0  0  0  0  0  0  0
   39.2550   28.2800   34.5460 H   0  0  0  0  0  0  0  0  0  0  0  0
   38.3100   27.2550   35.7200 H   0  0  0  0  0  0  0  0  0  0  0  0
   40.4350   26.4360   33.7570 H   0  0  0  0  0  0  0  0  0  0  0  0
   40.6520   26.5520   35.4880 H   0  0  0  0  0  0  0  0  0  0  0  0
   39.9770   23.2740   36.6350 C   0  0  0  0  0  0  0  0  0  0  0  0
   39.1800   24.2890   36.0490 C   0  0  0  0  0  0  0  0  0  0  0  0
   38.1010   24.7500   36.7750 C   0  0  0  0  0  0  0  0  0  0  0  0
   37.8510   24.2180   38.0050 N   0  0  0  0  0  0  0  0  0  0  0  0
   38.6390   23.2440   38.5350 C   0  0  0  0  0  0  0  0  0  0  0  0
   39.7040   22.7780   37.8380 N   0  0  0  0  0  0  0  0  0  0  0  0
   40.8350   22.8680   36.1240 H   0  0  0  0  0  0  0  0  0  0  0  0
   37.4200   25.5000   36.4710 H   0  0  0  0  0  0  0  0  0  0  0  0
   38.4610   22.8090   39.5040 H   0  0  0  0  0  0  0  0  0  0  0  0
   35.4040   29.3510   32.7970 H   0  0  0  0  0  0  0  0  0  0  0  0
   36.2650   28.7160   32.7050 C   0  0  0  0  0  0  0  0  0  0  0  0
   36.8940   28.7630   31.6060 O   0  0  0  0  0  0  0  0  0  0  0  0
   36.6670   27.8640   33.7860 N   0  0  0  0  0  0  0  0  0  0  0  0
   36.1160   27.8500   34.6950 H   0  0  0  0  0  0  0  0  0  0  0  0
  1  7  1  6  0  0  0
  1  6  1  0  0  0  0
  1 18  1  0  0  0  0
  2  1  1  0  0  0  0
  3  4  1  0  0  0  0
  3  2  1  0  0  0  0
  3 10  1  0  0  0  0
  4 12  1  6  0  0  0
  4 29  1  0  0  0  0
  4  5  1  0  0  0  0
  5  6  1  0  0  0  0
  5 14  1  0  0  0  0
  6 16  1  0  0  0  0
  8  2  1  0  0  0  0
  9  2  1  0  0  0  0
 11  3  1  0  0  0  0
 13  5  1  0  0  0  0
 15  6  1  0  0  0  0
 17 22  1  0  0  0  0
 18 17  2  0  0  0  0
 18 19  1  0  0  0  0
 19 20  2  0  0  0  0
 20 21  1  0  0  0  0
 21 25  1  0  0  0  0
 22 21  2  0  0  0  0
 23 17  1  0  0  0  0
 24 19  1  0  0  0  0
 27 26  1  0  0  0  0
 27 29  1  0  0  0  0
 28 27  2  0  0  0  0
 29 30  1  0  0  0  0
M  END
>  <minimizedAffinity>
-4.17377377

$$$$

 OpenBabel03272506523D

 30 31  0  0  1  0  0  0  0  0999 V2000
   38.9470   27.0480   34.8520 C   0  0  1  0  0  0  0  0  0  0  0  0
   38.1300   26.5050   35.9320 C   0  0  0  0  0  0  0  0  0  0  0  0
   38.1650   25.0160   36.1390 C   0  0  0  0  0  0  0  0  0  0  0  0
   39.4990   24.3970   35.9640 C   0  0  2  0  0  0  0  0  0  0  0  0
   40.3270   24.9050   34.8280 C   0  0  0  0  0  0  0  0  0  0  0  0
   40.3060   26.3990   34.7770 C   0  0  0  0  0  0  0  0  0  0  0  0
   39.1920   28.1310   35.1030 H   0  0  0  0  0  0  0  0  0  0  0  0
   38.5970   26.8930   36.8970 H   0  0  0  0  0  0  0  0  0  0  0  0
   37.1010   26.8310   36.0170 H   0  0  0  0  0  0  0  0  0  0  0  0
   37.4770   24.5660   35.3890 H   0  0  0  0  0  0  0  0  0  0  0  0
   37.7820   24.7900   37.1380 H   0  0  0  0  0  0  0  0  0  0  0  0
   40.0720   24.5590   36.9020 H   0  0  0  0  0  0  0  0  0  0  0  0
   41.3550   24.5890   34.9850 H   0  0  0  0  0  0  0  0  0  0  0  0
   39.9290   24.5530   33.8500 H   0  0  0  0  0  0  0  0  0  0  0  0
   40.7940   26.7110   35.7570 H   0  0  0  0  0  0  0  0  0  0  0  0
   40.9770   26.7680   34.0180 H   0  0  0  0  0  0  0  0  0  0  0  0
   39.0460   27.2640   32.3260 C   0  0  0  0  0  0  0  0  0  0  0  0
   38.2950   27.1770   33.5250 C   0  0  0  0  0  0  0  0  0  0  0  0
   36.9200   27.2160   33.4210 C   0  0  0  0  0  0  0  0  0  0  0  0
   36.3510   27.3350   32.1880 N   0  0  0  0  0  0  0  0  0  0  0  0
   37.1040   27.4170   31.0580 C   0  0  0  0  0  0  0  0  0  0  0  0
   38.4570   27.3800   31.1400 N   0  0  0  0  0  0  0  0  0  0  0  0
   40.1240   27.2400   32.3350 H   0  0  0  0  0  0  0  0  0  0  0  0
   36.2330   27.1610   34.2220 H   0  0  0  0  0  0  0  0  0  0  0  0
   36.6760   27.5110   30.0740 H   0  0  0  0  0  0  0  0  0  0  0  0
   39.9450   21.0190   36.6480 H   0  0  0  0  0  0  0  0  0  0  0  0
   40.0430   22.0860   36.7250 C   0  0  0  0  0  0  0  0  0  0  0  0
   40.8020   22.5250   37.6390 O   0  0  0  0  0  0  0  0  0  0  0  0
   39.3390   22.9540   35.8260 N   0  0  0  0  0  0  0  0  0  0  0  0
   38.7100   22.5520   35.0710 H   0  0  0  0  0  0  0  0  0  0  0  0
  1  7  1  1  0  0  0
  1  2  1  0  0  0  0
  2  9  1  0  0  0  0
  2  3  1  0  0  0  0
  2  8  1  0  0  0  0
  3 11  1  0  0  0  0
  4  3  1  0  0  0  0
  4 12  1  1  0  0  0
  5 13  1  0  0  0  0
  5  4  1  0  0  0  0
  6  5  1  0  0  0  0
  6  1  1  0  0  0  0
  6 15  1  0  0  0  0
 10  3  1  0  0  0  0
 14  5  1  0  0  0  0
 16  6  1  0  0  0  0
 17 23  1  0  0  0  0
 17 18  1  0  0  0  0
 18  1  1  0  0  0  0
 19 18  2  0  0  0  0
 19 24  1  0  0  0  0
 20 19  1  0  0  0  0
 21 22  1  0  0  0  0
 21 20  2  0  0  0  0
 22 17  2  0  0  0  0
 25 21  1  0  0  0  0
 26 27  1  0  0  0  0
 27 28  2  0  0  0  0
 29  4  1  0  0  0  0
 29 27  1  0  0  0  0
 30 29  1  0  0  0  0
M  END
>  <minimizedAffinity>
-4.11078262

$$$$

 OpenBabel03272506523D

 30 31  0  0  1  0  0  0  0  0999 V2000
   39.6910   27.0630   34.3350 C   0  0  1  0  0  0  0  0  0  0  0  0
   38.5770   27.3090   35.2440 C   0  0  0  0  0  0  0  0  0  0  0  0
   37.8390   26.1080   35.7700 C   0  0  0  0  0  0  0  0  0  0  0  0
   38.7000   24.9490   36.1000 C   0  0  2  0  0  0  0  0  0  0  0  0
   39.8130   24.6510   35.1490 C   0  0  0  0  0  0  0  0  0  0  0  0
   40.5440   25.8990   34.7730 C   0  0  0  0  0  0  0  0  0  0  0  0
   40.4050   27.9460   34.4030 H   0  0  0  0  0  0  0  0  0  0  0  0
   39.0420   27.7390   36.1930 H   0  0  0  0  0  0  0  0  0  0  0  0
   37.8450   28.0600   34.9760 H   0  0  0  0  0  0  0  0  0  0  0  0
   37.1260   25.7910   34.9770 H   0  0  0  0  0  0  0  0  0  0  0  0
   37.2660   26.4040   36.6520 H   0  0  0  0  0  0  0  0  0  0  0  0
   39.1460   25.1340   37.1000 H   0  0  0  0  0  0  0  0  0  0  0  0
   40.5170   23.9850   35.6420 H   0  0  0  0  0  0  0  0  0  0  0  0
   39.4270   24.2150   34.2000 H   0  0  0  0  0  0  0  0  0  0  0  0
   40.9870   26.2610   35.7560 H   0  0  0  0  0  0  0  0  0  0  0  0
   41.4030   25.6740   34.1630 H   0  0  0  0  0  0  0  0  0  0  0  0
   40.3160   26.6030   31.9190 C   0  0  0  0  0  0  0  0  0  0  0  0
   39.3720   27.0320   32.8860 C   0  0  0  0  0  0  0  0  0  0  0  0
   38.1310   27.4270   32.4330 C   0  0  0  0  0  0  0  0  0  0  0  0
   37.8670   27.3880   31.0970 N   0  0  0  0  0  0  0  0  0  0  0  0
   38.7990   26.9690   30.1980 C   0  0  0  0  0  0  0  0  0  0  0  0
   40.0250   26.5780   30.6230 N   0  0  0  0  0  0  0  0  0  0  0  0
   41.3050   26.2820   32.2040 H   0  0  0  0  0  0  0  0  0  0  0  0
   37.3280   27.7680   33.0320 H   0  0  0  0  0  0  0  0  0  0  0  0
   38.6140   26.9300   29.1370 H   0  0  0  0  0  0  0  0  0  0  0  0
   37.0270   22.3440   37.6820 H   0  0  0  0  0  0  0  0  0  0  0  0
   37.6380   23.2170   37.5470 C   0  0  0  0  0  0  0  0  0  0  0  0
   38.1380   23.7300   38.5920 O   0  0  0  0  0  0  0  0  0  0  0  0
   37.8640   23.7620   36.2400 N   0  0  0  0  0  0  0  0  0  0  0  0
   37.4280   23.3060   35.3840 H   0  0  0  0  0  0  0  0  0  0  0  0
  1  7  1  1  0  0  0
  1  6  1  0  0  0  0
  1  2  1  0  0  0  0
  2  3  1  0  0  0  0
  2  8  1  0  0  0  0
  3  4  1  0  0  0  0
  3 11  1  0  0  0  0
  4 29  1  0  0  0  0
  4 12  1  1  0  0  0
  5 13  1  0  0  0  0
  5  4  1  0  0  0  0
  6  5  1  0  0  0  0
  6 15  1  0  0  0  0
  9  2  1  0  0  0  0
 10  3  1  0  0  0  0
 14  5  1  0  0  0  0
 16  6  1  0  0  0  0
 17 23  1  0  0  0  0
 17 18  1  0  0  0  0
 18  1  1  0  0  0  0
 19 18  2  0  0  0  0
 19 24  1  0  0  0  0
 20 19  1  0  0  0  0
 21 22  1  0  0  0  0
 21 20  2  0  0  0  0
 22 17  2  0  0  0  0
 25 21  1  0  0  0  0
 27 26  1  0  0  0  0
 27 28  2  0  0  0  0
 29 27  1  0  0  0  0
 30 29  1  0  0  0  0
M  END
>  <minimizedAffinity>
-4.064888

$$$$

 OpenBabel03272506523D

 30 31  0  0  1  0  0  0  0  0999 V2000
   37.4350   27.3710   32.3860 C   0  0  1  0  0  0  0  0  0  0  0  0
   36.9900   28.5960   31.7320 C   0  0  0  0  0  0  0  0  0  0  0  0
   35.8940   29.3760   32.4040 C   0  0  0  0  0  0  0  0  0  0  0  0
   35.9870   29.4290   33.8800 C   0  0  2  0  0  0  0  0  0  0  0  0
   36.3890   28.1660   34.5700 C   0  0  0  0  0  0  0  0  0  0  0  0
   37.5510   27.5270   33.8810 C   0  0  0  0  0  0  0  0  0  0  0  0
   38.5070   27.1660   32.0640 H   0  0  0  0  0  0  0  0  0  0  0  0
   37.8720   29.3170   31.7950 H   0  0  0  0  0  0  0  0  0  0  0  0
   36.7800   28.5700   30.6700 H   0  0  0  0  0  0  0  0  0  0  0  0
   34.9330   28.8820   32.1370 H   0  0  0  0  0  0  0  0  0  0  0  0
   35.8840   30.3910   31.9980 H   0  0  0  0  0  0  0  0  0  0  0  0
   36.7290   30.2120   34.1440 H   0  0  0  0  0  0  0  0  0  0  0  0
   36.6930   28.4100   35.5850 H   0  0  0  0  0  0  0  0  0  0  0  0
   35.5650   27.4180   34.5530 H   0  0  0  0  0  0  0  0  0  0  0  0
   38.3880   28.2900   33.9950 H   0  0  0  0  0  0  0  0  0  0  0  0
   37.9010   26.6680   34.4310 H   0  0  0  0  0  0  0  0  0  0  0  0
   35.6080   26.1220   31.1440 C   0  0  0  0  0  0  0  0  0  0  0  0
   36.7470   26.1180   31.9890 C   0  0  0  0  0  0  0  0  0  0  0  0
   37.2020   24.8950   32.4370 C   0  0  0  0  0  0  0  0  0  0  0  0
   36.5480   23.7620   32.0550 N   0  0  0  0  0  0  0  0  0  0  0  0
   35.4580   23.8060   31.2430 C   0  0  0  0  0  0  0  0  0  0  0  0
   34.9950   24.9970   30.7920 N   0  0  0  0  0  0  0  0  0  0  0  0
   35.2000   27.0430   30.7580 H   0  0  0  0  0  0  0  0  0  0  0  0
   38.0350   24.7330   33.0680 H   0  0  0  0  0  0  0  0  0  0  0  0
   34.9250   22.9240   30.9280 H   0  0  0  0  0  0  0  0  0  0  0  0
   33.7750   31.2390   35.8580 H   0  0  0  0  0  0  0  0  0  0  0  0
   34.6990   30.8880   35.4400 C   0  0  0  0  0  0  0  0  0  0  0  0
   35.7630   31.4070   35.8920 O   0  0  0  0  0  0  0  0  0  0  0  0
   34.7090   29.8790   34.4210 N   0  0  0  0  0  0  0  0  0  0  0  0
   33.7980   29.4640   34.0650 H   0  0  0  0  0  0  0  0  0  0  0  0
  1  7  1  6  0  0  0
  1  6  1  0  0  0  0
  2  8  1  0  0  0  0
  2  1  1  0  0  0  0
  2  3  1  0  0  0  0
  3  4  1  0  0  0  0
  4 12  1  1  0  0  0
  4 29  1  0  0  0  0
  4  5  1  0  0  0  0
  5 13  1  0  0  0  0
  6 15  1  0  0  0  0
  6 16  1  0  0  0  0
  6  5  1  0  0  0  0
  9  2  1  0  0  0  0
 10  3  1  0  0  0  0
 11  3  1  0  0  0  0
 14  5  1  0  0  0  0
 17 18  1  0  0  0  0
 18  1  1  0  0  0  0
 18 19  2  0  0  0  0
 19 24  1  0  0  0  0
 20 19  1  0  0  0  0
 21 20  2  0  0  0  0
 22 17  2  0  0  0  0
 22 21  1  0  0  0  0
 23 17  1  0  0  0  0
 25 21  1  0  0  0  0
 27 26  1  0  0  0  0
 27 28  2  0  0  0  0
 29 27  1  0  0  0  0
 30 29  1  0  0  0  0
M  END
>  <minimizedAffinity>
-4.04802847

$$$$
