
     RDKit          3D

 24 25  0  0  0  0  0  0  0  0999 V2000
   37.3608   31.3678   49.2084 C   0  0  0  0  0  0  0  0  0  0  0  0
   37.7029   32.6589   49.6078 C   0  0  0  0  0  0  0  0  0  0  0  0
   38.5889   33.3243   48.7734 C   0  0  0  0  0  0  0  0  0  0  0  0
   39.0646   32.7167   47.6519 N   0  0  0  0  0  0  0  0  0  0  0  0
   38.7049   31.4543   47.2982 C   0  0  0  0  0  0  0  0  0  0  0  0
   37.8315   30.7747   48.1052 N   0  0  0  0  0  0  0  0  0  0  0  0
   36.3801   30.6120   50.0631 C   0  0  0  0  0  0  0  0  0  0  0  0
   36.2767   29.1739   50.0438 C   0  0  0  0  0  0  0  0  0  0  0  0
   37.0604   29.8076   51.1722 C   0  0  0  0  0  0  0  0  0  0  0  0
   39.1962   30.7817   46.0999 C   0  0  0  0  0  0  0  0  0  0  0  0
   37.3189   33.1328   50.5010 H   0  0  0  0  0  0  0  0  0  0  0  0
   38.9306   34.3255   48.9720 H   0  0  0  0  0  0  0  0  0  0  0  0
   35.5171   31.2342   50.3751 H   0  0  0  0  0  0  0  0  0  0  0  0
   36.9600   28.6075   49.3452 H   0  0  0  0  0  0  0  0  0  0  0  0
   35.3424   28.6451   50.2339 H   0  0  0  0  0  0  0  0  0  0  0  0
   36.5208   29.8343   52.1402 H   0  0  0  0  0  0  0  0  0  0  0  0
   38.1480   29.7756   51.1912 H   0  0  0  0  0  0  0  0  0  0  0  0
   39.3781   31.4738   45.2695 H   0  0  0  0  0  0  0  0  0  0  0  0
   38.5179   30.0127   45.7364 H   0  0  0  0  0  0  0  0  0  0  0  0
   42.2264   29.0818   45.9480 H   0  0  0  0  0  0  0  0  0  0  0  0
   41.3486   29.5927   45.5398 C   0  0  0  0  0  0  0  0  0  0  0  0
   41.2098   29.7219   44.2859 O   0  0  0  0  0  0  0  0  0  0  0  0
   40.4198   30.0770   46.4877 N   0  0  0  0  0  0  0  0  0  0  0  0
   40.5724   29.9490   47.5254 H   0  0  0  0  0  0  0  0  0  0  0  0
  1  2  2  0
  1  7  1  0
  3  2  1  0
  4  3  2  0
  5  4  1  0
  5  6  2  0
  6  1  1  0
  7  9  1  0
  8  7  1  0
  8  9  1  0
 10  5  1  0
  2 11  1  0
  3 12  1  0
  7 13  1  0
  8 14  1  0
  8 15  1  0
  9 16  1  0
  9 17  1  0
 10 18  1  0
 10 19  1  0
 20 21  1  0
 21 22  2  0
 21 23  1  0
 23 24  1  0
 10 23  1  0
M  ISO  8  11  14  12  14  13  13  14  13  15  13  16  13  17  13  18   8
M  ISO  2  19   8  20   1
M  END
>  <DihAtoms>  (1) 
4,9,22,20

>  <DihDeg>  (1) 
76.08015736652423

$$$$
