
 OpenBabel03272508033D

 31 33  0  0  0  0  0  0  0  0999 V2000
   38.9090   30.9000   45.7880 C   0  0  0  0  0  0  0  0  0  0  0  0
   40.0980   31.5280   46.0380 C   0  0  0  0  0  0  0  0  0  0  0  0
   40.9420   31.4680   44.9310 C   0  0  0  0  0  0  0  0  0  0  0  0
   40.2090   30.7890   44.0340 N   0  0  0  0  0  0  0  0  0  0  0  0
   39.0170   30.4500   44.5200 N   0  0  0  0  0  0  0  0  0  0  0  0
   40.3930   32.0260   46.9700 H   0  0  0  0  0  0  0  0  0  0  0  0
   41.9420   31.8490   44.7720 H   0  0  0  0  0  0  0  0  0  0  0  0
   37.7690   30.7450   46.6820 C   0  0  0  0  0  0  0  0  0  0  0  0
   38.0010   30.9710   48.0690 C   0  0  0  0  0  0  0  0  0  0  0  0
   36.9180   30.8230   48.9280 C   0  0  0  0  0  0  0  0  0  0  0  0
   35.7100   30.4730   48.3930 N   0  0  0  0  0  0  0  0  0  0  0  0
   35.5290   30.2670   47.0690 C   0  0  0  0  0  0  0  0  0  0  0  0
   36.5640   30.4060   46.2230 N   0  0  0  0  0  0  0  0  0  0  0  0
   38.9920   31.2470   48.4190 H   0  0  0  0  0  0  0  0  0  0  0  0
   34.5610   29.9910   46.6770 H   0  0  0  0  0  0  0  0  0  0  0  0
   37.1210   31.0500   50.3850 C   0  0  0  0  0  0  0  0  0  0  0  0
   36.6030   32.2980   50.6400 F   0  0  0  0  0  0  0  0  0  0  0  0
   36.4560   30.1150   51.1680 F   0  0  0  0  0  0  0  0  0  0  0  0
   38.4760   31.0590   50.7180 F   0  0  0  0  0  0  0  0  0  0  0  0
   40.5740   30.4160   42.6630 C   0  0  0  0  0  0  0  0  0  0  0  0
   40.1920   31.1910   41.5610 C   0  0  0  0  0  0  0  0  0  0  0  0
   40.5270   30.8350   40.3250 C   0  0  0  0  0  0  0  0  0  0  0  0
   41.2910   29.6400   40.1260 C   0  0  0  0  0  0  0  0  0  0  0  0
   41.4930   29.0520   41.9010 S   0  0  0  0  0  0  0  0  0  0  0  0
   39.6070   32.1170   41.6650 H   0  0  0  0  0  0  0  0  0  0  0  0
   40.3360   31.2810   39.3650 H   0  0  0  0  0  0  0  0  0  0  0  0
   43.3360   28.6500   37.6170 H   0  0  0  0  0  0  0  0  0  0  0  0
   43.0280   29.3240   38.4330 C   0  0  0  0  0  0  0  0  0  0  0  0
   43.6510   30.3450   38.7720 O   0  0  0  0  0  0  0  0  0  0  0  0
   41.8310   28.9270   39.0870 N   0  0  0  0  0  0  0  0  0  0  0  0
   41.2940   28.0960   38.8360 H   0  0  0  0  0  0  0  0  0  0  0  0
  1  2  1  0  0  0  0
  1  8  1  0  0  0  0
  2  6  1  0  0  0  0
  3  2  2  0  0  0  0
  4  5  1  0  0  0  0
  4  3  1  0  0  0  0
  5  1  2  0  0  0  0
  7  3  1  0  0  0  0
  8  9  1  0  0  0  0
  9 14  1  0  0  0  0
  9 10  2  0  0  0  0
 10 16  1  0  0  0  0
 11 10  1  0  0  0  0
 12 11  2  0  0  0  0
 13  8  2  0  0  0  0
 13 12  1  0  0  0  0
 15 12  1  0  0  0  0
 16 17  1  0  0  0  0
 16 19  1  0  0  0  0
 16 18  1  0  0  0  0
 20  4  1  0  0  0  0
 21 25  1  0  0  0  0
 21 20  2  0  0  0  0
 22 21  1  0  0  0  0
 23 22  2  0  0  0  0
 23 24  1  0  0  0  0
 24 20  1  0  0  0  0
 26 22  1  0  0  0  0
 27 28  1  0  0  0  0
 28 29  2  0  0  0  0
 28 30  1  0  0  0  0
 30 23  1  0  0  0  0
 31 30  1  0  0  0  0
M  END
>  <minimizedAffinity>
-6.10471916

>  <minimizedRMSD>
0.109080583

$$$$
