
 OpenBabel03272510293D

 24 25  0  0  0  0  0  0  0  0999 V2000
   37.2370   31.3720   49.1630 C   0  0  0  0  0  0  0  0  0  0  0  0
   37.9940   32.3880   49.7460 C   0  0  0  0  0  0  0  0  0  0  0  0
   38.7900   33.1110   48.8710 C   0  0  0  0  0  0  0  0  0  0  0  0
   38.8000   32.8130   47.5440 N   0  0  0  0  0  0  0  0  0  0  0  0
   38.0460   31.8120   47.0150 C   0  0  0  0  0  0  0  0  0  0  0  0
   37.2500   31.0820   47.8580 N   0  0  0  0  0  0  0  0  0  0  0  0
   37.9790   32.6170   50.8030 H   0  0  0  0  0  0  0  0  0  0  0  0
   39.4210   33.9200   49.1980 H   0  0  0  0  0  0  0  0  0  0  0  0
   36.3330   30.5740   50.0640 C   0  0  0  0  0  0  0  0  0  0  0  0
   35.9620   29.2090   49.7840 C   0  0  0  0  0  0  0  0  0  0  0  0
   37.0670   29.4460   50.7890 C   0  0  0  0  0  0  0  0  0  0  0  0
   35.6850   31.2150   50.6950 H   0  0  0  0  0  0  0  0  0  0  0  0
   36.3670   28.7380   48.8400 H   0  0  0  0  0  0  0  0  0  0  0  0
   35.0060   28.7810   50.0870 H   0  0  0  0  0  0  0  0  0  0  0  0
   36.7560   29.3140   51.8450 H   0  0  0  0  0  0  0  0  0  0  0  0
   38.1100   29.2630   50.5350 H   0  0  0  0  0  0  0  0  0  0  0  0
   38.0340   31.4750   45.5960 C   0  0  0  0  0  0  0  0  0  0  0  0
   38.3240   32.3170   44.9580 H   0  0  0  0  0  0  0  0  0  0  0  0
   37.0630   31.1270   45.2500 H   0  0  0  0  0  0  0  0  0  0  0  0
   39.7510   28.7850   44.2120 H   0  0  0  0  0  0  0  0  0  0  0  0
   39.0370   29.6160   44.2190 C   0  0  0  0  0  0  0  0  0  0  0  0
   38.3550   29.8800   43.1830 O   0  0  0  0  0  0  0  0  0  0  0  0
   38.9420   30.3380   45.4290 N   0  0  0  0  0  0  0  0  0  0  0  0
   39.5290   30.0860   46.2700 H   0  0  0  0  0  0  0  0  0  0  0  0
  1  2  1  0  0  0  0
  1  9  1  0  0  0  0
  2  7  1  0  0  0  0
  3  8  1  0  0  0  0
  3  2  2  0  0  0  0
  4  3  1  0  0  0  0
  5  4  2  0  0  0  0
  5  6  1  0  0  0  0
  6  1  2  0  0  0  0
  9 12  1  0  0  0  0
  9 11  1  0  0  0  0
 10  9  1  0  0  0  0
 10 14  1  0  0  0  0
 10 11  1  0  0  0  0
 11 15  1  0  0  0  0
 13 10  1  0  0  0  0
 16 11  1  0  0  0  0
 17  5  1  0  0  0  0
 18 17  1  0  0  0  0
 19 17  1  0  0  0  0
 20 21  1  0  0  0  0
 21 23  1  0  0  0  0
 22 21  2  0  0  0  0
 23 17  1  0  0  0  0
 23 24  1  0  0  0  0
M  END
>  <minimizedAffinity>
-4.35468102

>  <minimizedRMSD>
1.31991374

$$$$
