
 OpenBabel03272510323D

 24 25  0  0  0  0  0  0  0  0999 V2000
   36.1450   30.2690   48.4200 C   0  0  0  0  0  0  0  0  0  0  0  0
   35.0740   30.3780   47.5850 C   0  0  0  0  0  0  0  0  0  0  0  0
   34.0620   29.4420   47.5560 C   0  0  0  0  0  0  0  0  0  0  0  0
   34.1660   28.3610   48.4240 C   0  0  0  0  0  0  0  0  0  0  0  0
   35.2330   28.2160   49.2820 C   0  0  0  0  0  0  0  0  0  0  0  0
   36.2270   29.1810   49.2750 C   0  0  0  0  0  0  0  0  0  0  0  0
   34.9830   31.2260   46.8990 H   0  0  0  0  0  0  0  0  0  0  0  0
   33.1950   29.4900   46.9110 H   0  0  0  0  0  0  0  0  0  0  0  0
   33.4140   27.5790   48.4660 H   0  0  0  0  0  0  0  0  0  0  0  0
   35.3280   27.3700   49.9680 H   0  0  0  0  0  0  0  0  0  0  0  0
   38.1200   33.1540   49.4130 C   0  0  0  0  0  0  0  0  0  0  0  0
   39.0390   33.3190   48.3780 C   0  0  0  0  0  0  0  0  0  0  0  0
   38.9690   32.3940   47.2950 C   0  0  0  0  0  0  0  0  0  0  0  0
   38.0260   31.4340   47.3520 N   0  0  0  0  0  0  0  0  0  0  0  0
   37.1580   31.3100   48.3710 C   0  0  0  0  0  0  0  0  0  0  0  0
   37.2070   32.1770   49.4080 N   0  0  0  0  0  0  0  0  0  0  0  0
   38.1620   33.8540   50.2480 H   0  0  0  0  0  0  0  0  0  0  0  0
   39.7760   34.1200   48.4000 H   0  0  0  0  0  0  0  0  0  0  0  0
   39.6750   32.5090   46.4840 H   0  0  0  0  0  0  0  0  0  0  0  0
   37.5640   29.3020   52.3840 H   0  0  0  0  0  0  0  0  0  0  0  0
   36.9380   29.3140   51.4890 C   0  0  0  0  0  0  0  0  0  0  0  0
   35.7200   29.5800   51.6990 O   0  0  0  0  0  0  0  0  0  0  0  0
   37.3420   29.0690   50.1440 N   0  0  0  0  0  0  0  0  0  0  0  0
   38.3530   28.8530   50.0080 H   0  0  0  0  0  0  0  0  0  0  0  0
  1  6  1  0  0  0  0
  2  1  2  0  0  0  0
  3  2  1  0  0  0  0
  3  4  2  0  0  0  0
  4  9  1  0  0  0  0
  4  5  1  0  0  0  0
  5 10  1  0  0  0  0
  6  5  2  0  0  0  0
  6 23  1  0  0  0  0
  7  2  1  0  0  0  0
  8  3  1  0  0  0  0
 11 17  1  0  0  0  0
 12 18  1  0  0  0  0
 12 11  2  0  0  0  0
 13 14  2  0  0  0  0
 13 12  1  0  0  0  0
 14 15  1  0  0  0  0
 15  1  1  0  0  0  0
 15 16  2  0  0  0  0
 16 11  1  0  0  0  0
 19 13  1  0  0  0  0
 21 22  2  0  0  0  0
 21 20  1  0  0  0  0
 23 21  1  0  0  0  0
 24 23  1  0  0  0  0
M  END
>  <minimizedAffinity>
-5.15003777

>  <minimizedRMSD>
0.609545588

$$$$
