
 OpenBabel03262520483D

 44 47  0  0  1  0  0  0  0  0999 V2000
   38.8510   30.8920   46.3450 C   0  0  0  0  0  0  0  0  0  0  0  0
   37.7730   30.8940   46.0570 H   0  0  0  0  0  0  0  0  0  0  0  0
   39.2690   29.8610   46.4720 H   0  0  0  0  0  0  0  0  0  0  0  0
   37.9570   32.4830   48.0860 C   0  0  1  0  0  0  0  0  0  0  0  0
   39.3240   33.0300   47.7540 C   0  0  0  0  0  0  0  0  0  0  0  0
   39.0320   31.5870   47.6460 C   0  0  2  0  0  0  0  0  0  0  0  0
   37.1510   32.7420   47.3680 H   0  0  0  0  0  0  0  0  0  0  0  0
   39.4580   33.6010   46.8040 H   0  0  0  0  0  0  0  0  0  0  0  0
   39.9500   33.4330   48.5730 H   0  0  0  0  0  0  0  0  0  0  0  0
   39.4920   30.9850   48.4870 H   0  0  0  0  0  0  0  0  0  0  0  0
   37.5420   32.6070   49.5150 C   0  0  0  0  0  0  0  0  0  0  0  0
   36.8570   33.4970   49.6250 H   0  0  0  0  0  0  0  0  0  0  0  0
   38.4150   32.8260   50.1480 H   0  0  0  0  0  0  0  0  0  0  0  0
   36.7080   29.4890   51.4240 C   0  0  0  0  0  0  0  0  0  0  0  0
   37.3960   30.6530   50.9620 C   0  0  0  0  0  0  0  0  0  0  0  0
   36.8080   31.4050   49.9770 C   0  0  0  0  0  0  0  0  0  0  0  0
   35.6190   31.0150   49.4960 N   0  0  0  0  0  0  0  0  0  0  0  0
   34.9840   29.9230   49.9350 C   0  0  0  0  0  0  0  0  0  0  0  0
   35.5360   29.1730   50.8940 N   0  0  0  0  0  0  0  0  0  0  0  0
   37.2410   28.9570   52.1990 H   0  0  0  0  0  0  0  0  0  0  0  0
   38.3660   30.9450   51.3770 H   0  0  0  0  0  0  0  0  0  0  0  0
   34.0240   29.5850   49.5650 H   0  0  0  0  0  0  0  0  0  0  0  0
   39.5720   31.5480   45.1890 C   0  0  0  0  0  0  0  0  0  0  0  0
   38.9760   32.3690   44.7600 H   0  0  0  0  0  0  0  0  0  0  0  0
   40.5530   31.9360   45.5360 H   0  0  0  0  0  0  0  0  0  0  0  0
   38.8490   29.4760   44.0540 C   0  0  0  0  0  0  0  0  0  0  0  0
   39.7600   30.5200   44.1170 C   0  0  0  0  0  0  0  0  0  0  0  0
   40.7960   30.5770   43.1990 C   0  0  0  0  0  0  0  0  0  0  0  0
   40.9450   29.6230   42.2260 C   0  0  0  0  0  0  0  0  0  0  0  0
   41.8600   29.4790   41.2460 N   0  0  0  0  0  0  0  0  0  0  0  0
   41.5300   28.3620   40.5770 C   0  0  0  0  0  0  0  0  0  0  0  0
   40.3980   27.7470   41.0970 C   0  0  0  0  0  0  0  0  0  0  0  0
   40.0460   28.5810   42.1540 C   0  0  0  0  0  0  0  0  0  0  0  0
   39.0240   28.5220   43.0560 C   0  0  0  0  0  0  0  0  0  0  0  0
   38.0050   29.3250   44.7100 H   0  0  0  0  0  0  0  0  0  0  0  0
   41.4940   31.3960   43.2640 H   0  0  0  0  0  0  0  0  0  0  0  0
   42.6690   30.1030   41.0350 H   0  0  0  0  0  0  0  0  0  0  0  0
   42.0720   27.9660   39.7250 H   0  0  0  0  0  0  0  0  0  0  0  0
   39.9340   26.8510   40.7470 H   0  0  0  0  0  0  0  0  0  0  0  0
   36.3980   26.2590   42.7060 H   0  0  0  0  0  0  0  0  0  0  0  0
   36.7300   27.2980   42.7080 C   0  0  0  0  0  0  0  0  0  0  0  0
   35.9180   28.2130   42.5070 O   0  0  0  0  0  0  0  0  0  0  0  0
   38.1120   27.4280   42.9520 N   0  0  0  0  0  0  0  0  0  0  0  0
   38.7600   26.6260   43.1160 H   0  0  0  0  0  0  0  0  0  0  0  0
  1  3  1  0  0  0  0
  1  6  1  0  0  0  0
  2  1  1  0  0  0  0
  4  7  1  6  0  0  0
  4 11  1  0  0  0  0
  5  4  1  0  0  0  0
  5  9  1  0  0  0  0
  6  5  1  0  0  0  0
  6  4  1  0  0  0  0
  6 10  1  1  0  0  0
  8  5  1  0  0  0  0
 11 12  1  0  0  0  0
 11 16  1  0  0  0  0
 11 13  1  0  0  0  0
 14 20  1  0  0  0  0
 15 21  1  0  0  0  0
 15 14  1  0  0  0  0
 16 15  2  0  0  0  0
 17 18  2  0  0  0  0
 17 16  1  0  0  0  0
 18 19  1  0  0  0  0
 19 14  2  0  0  0  0
 22 18  1  0  0  0  0
 23 25  1  0  0  0  0
 23  1  1  0  0  0  0
 24 23  1  0  0  0  0
 26 27  1  0  0  0  0
 26 35  1  0  0  0  0
 27 23  1  0  0  0  0
 28 36  1  0  0  0  0
 28 27  2  0  0  0  0
 29 28  1  0  0  0  0
 30 29  1  0  0  0  0
 31 32  2  0  0  0  0
 31 30  1  0  0  0  0
 32 33  1  0  0  0  0
 33 29  2  0  0  0  0
 33 34  1  0  0  0  0
 34 26  2  0  0  0  0
 37 30  1  0  0  0  0
 38 31  1  0  0  0  0
 39 32  1  0  0  0  0
 40 41  1  0  0  0  0
 41 43  1  0  0  0  0
 42 41  2  0  0  0  0
 43 34  1  0  0  0  0
 43 44  1  0  0  0  0
M  END
>  <minimizedAffinity>
-5.78108788

>  <minimizedRMSD>
1.62542367

$$$$
