
 OpenBabel03272504143D

 27 28  0  0  0  0  0  0  0  0999 V2000
   38.3080   24.9870   33.1040 Cl  0  0  0  0  0  0  0  0  0  0  0  0
   37.3930   23.4950   32.8220 C   0  0  0  0  0  0  0  0  0  0  0  0
   37.4880   22.3930   33.6610 C   0  0  0  0  0  0  0  0  0  0  0  0
   36.7320   21.3230   33.3230 C   0  0  0  0  0  0  0  0  0  0  0  0
   35.9160   21.3010   32.2270 C   0  0  0  0  0  0  0  0  0  0  0  0
   35.8060   22.3910   31.3760 C   0  0  0  0  0  0  0  0  0  0  0  0
   36.5750   23.4880   31.7130 C   0  0  0  0  0  0  0  0  0  0  0  0
   36.7810   20.4440   33.9550 H   0  0  0  0  0  0  0  0  0  0  0  0
   35.3420   20.4070   32.0230 H   0  0  0  0  0  0  0  0  0  0  0  0
   35.1650   22.3810   30.5120 H   0  0  0  0  0  0  0  0  0  0  0  0
   38.8020   23.0800   37.1050 C   0  0  0  0  0  0  0  0  0  0  0  0
   37.9360   22.9990   36.0170 C   0  0  0  0  0  0  0  0  0  0  0  0
   38.3690   22.4830   34.7990 C   0  0  0  0  0  0  0  0  0  0  0  0
   39.6720   22.0720   34.7540 N   0  0  0  0  0  0  0  0  0  0  0  0
   40.4970   22.1540   35.8060 C   0  0  0  0  0  0  0  0  0  0  0  0
   40.0480   22.6570   36.9710 N   0  0  0  0  0  0  0  0  0  0  0  0
   36.9030   23.3400   36.0980 H   0  0  0  0  0  0  0  0  0  0  0  0
   41.5070   21.7970   35.6550 H   0  0  0  0  0  0  0  0  0  0  0  0
   38.2960   23.6440   38.4020 C   0  0  0  0  0  0  0  0  0  0  0  0
   37.8840   24.9460   38.2120 F   0  0  0  0  0  0  0  0  0  0  0  0
   37.3240   22.7940   38.8670 F   0  0  0  0  0  0  0  0  0  0  0  0
   39.3750   23.6730   39.2870 F   0  0  0  0  0  0  0  0  0  0  0  0
   35.8310   26.3000   29.8410 H   0  0  0  0  0  0  0  0  0  0  0  0
   35.4600   25.5910   30.5960 C   0  0  0  0  0  0  0  0  0  0  0  0
   34.3990   25.4370   31.2540 O   0  0  0  0  0  0  0  0  0  0  0  0
   36.4790   24.6320   30.8490 N   0  0  0  0  0  0  0  0  0  0  0  0
   37.4430   24.5780   30.4040 H   0  0  0  0  0  0  0  0  0  0  0  0
  2  1  1  0  0  0  0
  2  3  1  0  0  0  0
  3 13  1  0  0  0  0
  4  3  2  0  0  0  0
  4  8  1  0  0  0  0
  5  4  1  0  0  0  0
  6  7  1  0  0  0  0
  6  5  2  0  0  0  0
  7  2  2  0  0  0  0
  9  5  1  0  0  0  0
 10  6  1  0  0  0  0
 11 19  1  0  0  0  0
 12 17  1  0  0  0  0
 12 11  2  0  0  0  0
 13 12  1  0  0  0  0
 14 13  2  0  0  0  0
 14 15  1  0  0  0  0
 15 16  2  0  0  0  0
 16 11  1  0  0  0  0
 18 15  1  0  0  0  0
 19 21  1  0  0  0  0
 19 22  1  0  0  0  0
 20 19  1  0  0  0  0
 23 24  1  0  0  0  0
 24 26  1  0  0  0  0
 24 25  2  0  0  0  0
 26  7  1  0  0  0  0
 27 26  1  0  0  0  0
M  END
>  <minimizedAffinity>
-5.5384388

$$$$

 OpenBabel03272504143D

 27 28  0  0  0  0  0  0  0  0999 V2000
   37.4330   24.0290   32.4070 Cl  0  0  0  0  0  0  0  0  0  0  0  0
   37.1640   25.6870   32.9750 C   0  0  0  0  0  0  0  0  0  0  0  0
   37.6100   26.1320   34.2120 C   0  0  0  0  0  0  0  0  0  0  0  0
   37.3340   27.4220   34.5130 C   0  0  0  0  0  0  0  0  0  0  0  0
   36.6570   28.2580   33.6690 C   0  0  0  0  0  0  0  0  0  0  0  0
   36.2040   27.8330   32.4290 C   0  0  0  0  0  0  0  0  0  0  0  0
   36.4810   26.5170   32.1130 C   0  0  0  0  0  0  0  0  0  0  0  0
   37.6660   27.8050   35.4700 H   0  0  0  0  0  0  0  0  0  0  0  0
   36.4750   29.2770   33.9810 H   0  0  0  0  0  0  0  0  0  0  0  0
   35.6710   28.4850   31.7590 H   0  0  0  0  0  0  0  0  0  0  0  0
   38.6480   24.0870   37.1780 C   0  0  0  0  0  0  0  0  0  0  0  0
   37.9530   24.9930   36.3810 C   0  0  0  0  0  0  0  0  0  0  0  0
   38.3160   25.1980   35.0540 C   0  0  0  0  0  0  0  0  0  0  0  0
   39.3780   24.4630   34.6040 N   0  0  0  0  0  0  0  0  0  0  0  0
   40.0400   23.5930   35.3790 C   0  0  0  0  0  0  0  0  0  0  0  0
   39.6630   23.4170   36.6590 N   0  0  0  0  0  0  0  0  0  0  0  0
   37.1120   25.5600   36.7810 H   0  0  0  0  0  0  0  0  0  0  0  0
   40.8630   23.0660   34.9160 H   0  0  0  0  0  0  0  0  0  0  0  0
   38.2240   23.8940   38.6070 C   0  0  0  0  0  0  0  0  0  0  0  0
   39.3160   23.5380   39.3700 F   0  0  0  0  0  0  0  0  0  0  0  0
   37.5940   25.0460   39.0050 F   0  0  0  0  0  0  0  0  0  0  0  0
   37.3310   22.8220   38.6300 F   0  0  0  0  0  0  0  0  0  0  0  0
   34.9130   25.2490   29.3030 H   0  0  0  0  0  0  0  0  0  0  0  0
   34.8220   25.4370   30.3840 C   0  0  0  0  0  0  0  0  0  0  0  0
   33.9480   25.2460   31.2680 O   0  0  0  0  0  0  0  0  0  0  0  0
   36.0230   26.0510   30.8340 N   0  0  0  0  0  0  0  0  0  0  0  0
   36.8800   26.2980   30.2560 H   0  0  0  0  0  0  0  0  0  0  0  0
  1  2  1  0  0  0  0
  2  3  1  0  0  0  0
  3  4  2  0  0  0  0
  3 13  1  0  0  0  0
  4  8  1  0  0  0  0
  5  9  1  0  0  0  0
  5  4  1  0  0  0  0
  6  5  2  0  0  0  0
  7  6  1  0  0  0  0
  7  2  2  0  0  0  0
 10  6  1  0  0  0  0
 11 19  1  0  0  0  0
 12 17  1  0  0  0  0
 12 11  2  0  0  0  0
 13 12  1  0  0  0  0
 14 13  2  0  0  0  0
 14 15  1  0  0  0  0
 15 16  2  0  0  0  0
 16 11  1  0  0  0  0
 18 15  1  0  0  0  0
 19 22  1  0  0  0  0
 19 21  1  0  0  0  0
 19 20  1  0  0  0  0
 23 24  1  0  0  0  0
 24 26  1  0  0  0  0
 24 25  2  0  0  0  0
 26  7  1  0  0  0  0
 27 26  1  0  0  0  0
M  END
>  <minimizedAffinity>
-5.45602179

$$$$

 OpenBabel03272504143D

 27 28  0  0  0  0  0  0  0  0999 V2000
   38.0980   23.2700   33.5170 Cl  0  0  0  0  0  0  0  0  0  0  0  0
   37.7920   24.9720   33.9100 C   0  0  0  0  0  0  0  0  0  0  0  0
   37.9650   25.4840   35.1890 C   0  0  0  0  0  0  0  0  0  0  0  0
   37.6940   26.8010   35.3420 C   0  0  0  0  0  0  0  0  0  0  0  0
   37.2730   27.6020   34.3170 C   0  0  0  0  0  0  0  0  0  0  0  0
   37.0950   27.1100   33.0320 C   0  0  0  0  0  0  0  0  0  0  0  0
   37.3690   25.7660   32.8660 C   0  0  0  0  0  0  0  0  0  0  0  0
   37.8170   27.2350   36.3260 H   0  0  0  0  0  0  0  0  0  0  0  0
   37.0770   28.6460   34.5190 H   0  0  0  0  0  0  0  0  0  0  0  0
   36.7650   27.7340   32.2200 H   0  0  0  0  0  0  0  0  0  0  0  0
   40.0220   23.0200   37.1270 C   0  0  0  0  0  0  0  0  0  0  0  0
   39.6090   23.8860   36.1170 C   0  0  0  0  0  0  0  0  0  0  0  0
   38.4100   24.5840   36.2230 C   0  0  0  0  0  0  0  0  0  0  0  0
   37.6880   24.3610   37.3630 N   0  0  0  0  0  0  0  0  0  0  0  0
   38.0940   23.5260   38.3290 C   0  0  0  0  0  0  0  0  0  0  0  0
   39.2580   22.8660   38.1970 N   0  0  0  0  0  0  0  0  0  0  0  0
   40.2160   24.0330   35.2240 H   0  0  0  0  0  0  0  0  0  0  0  0
   37.4410   23.4300   39.1870 H   0  0  0  0  0  0  0  0  0  0  0  0
   41.3230   22.2850   36.9740 C   0  0  0  0  0  0  0  0  0  0  0  0
   42.3660   23.1880   36.9580 F   0  0  0  0  0  0  0  0  0  0  0  0
   41.3850   21.3500   37.9760 F   0  0  0  0  0  0  0  0  0  0  0  0
   41.2970   21.6580   35.7280 F   0  0  0  0  0  0  0  0  0  0  0  0
   36.4380   24.3280   29.8610 H   0  0  0  0  0  0  0  0  0  0  0  0
   36.1240   24.5590   30.8900 C   0  0  0  0  0  0  0  0  0  0  0  0
   35.0930   24.3760   31.5880 O   0  0  0  0  0  0  0  0  0  0  0  0
   37.1930   25.2310   31.5440 N   0  0  0  0  0  0  0  0  0  0  0  0
   38.1440   25.4820   31.1410 H   0  0  0  0  0  0  0  0  0  0  0  0
  1  2  1  0  0  0  0
  2  3  1  0  0  0  0
  3  4  2  0  0  0  0
  3 13  1  0  0  0  0
  4  8  1  0  0  0  0
  5  9  1  0  0  0  0
  5  4  1  0  0  0  0
  6  5  2  0  0  0  0
  7  6  1  0  0  0  0
  7  2  2  0  0  0  0
 10  6  1  0  0  0  0
 11 16  1  0  0  0  0
 12 13  1  0  0  0  0
 12 11  2  0  0  0  0
 13 14  2  0  0  0  0
 14 15  1  0  0  0  0
 15 18  1  0  0  0  0
 16 15  2  0  0  0  0
 17 12  1  0  0  0  0
 19 11  1  0  0  0  0
 19 21  1  0  0  0  0
 20 19  1  0  0  0  0
 22 19  1  0  0  0  0
 23 24  1  0  0  0  0
 24 26  1  0  0  0  0
 24 25  2  0  0  0  0
 26  7  1  0  0  0  0
 27 26  1  0  0  0  0
M  END
>  <minimizedAffinity>
-5.42777872

$$$$

 OpenBabel03272504143D

 27 28  0  0  0  0  0  0  0  0999 V2000
   37.8140   27.2820   33.7620 Cl  0  0  0  0  0  0  0  0  0  0  0  0
   37.0970   25.9830   32.7910 C   0  0  0  0  0  0  0  0  0  0  0  0
   37.4210   24.6460   32.9800 C   0  0  0  0  0  0  0  0  0  0  0  0
   36.7970   23.7640   32.1670 C   0  0  0  0  0  0  0  0  0  0  0  0
   35.8970   24.1390   31.2070 C   0  0  0  0  0  0  0  0  0  0  0  0
   35.5600   25.4690   31.0030 C   0  0  0  0  0  0  0  0  0  0  0  0
   36.1930   26.3770   31.8290 C   0  0  0  0  0  0  0  0  0  0  0  0
   37.0240   22.7120   32.2850 H   0  0  0  0  0  0  0  0  0  0  0  0
   35.4390   23.3730   30.5960 H   0  0  0  0  0  0  0  0  0  0  0  0
   34.8520   25.7700   30.2500 H   0  0  0  0  0  0  0  0  0  0  0  0
   38.9320   23.8410   36.3160 C   0  0  0  0  0  0  0  0  0  0  0  0
   37.9940   24.1540   35.3360 C   0  0  0  0  0  0  0  0  0  0  0  0
   38.3780   24.3210   34.0090 C   0  0  0  0  0  0  0  0  0  0  0  0
   39.7100   24.1580   33.7470 N   0  0  0  0  0  0  0  0  0  0  0  0
   40.6050   23.8560   34.6970 C   0  0  0  0  0  0  0  0  0  0  0  0
   40.2020   23.7010   35.9710 N   0  0  0  0  0  0  0  0  0  0  0  0
   36.9400   24.2770   35.5890 H   0  0  0  0  0  0  0  0  0  0  0  0
   41.6320   23.7500   34.3740 H   0  0  0  0  0  0  0  0  0  0  0  0
   38.4770   23.6700   37.7370 C   0  0  0  0  0  0  0  0  0  0  0  0
   37.3530   22.8720   37.7710 F   0  0  0  0  0  0  0  0  0  0  0  0
   39.5450   23.1930   38.4540 F   0  0  0  0  0  0  0  0  0  0  0  0
   38.1060   24.9310   38.2050 F   0  0  0  0  0  0  0  0  0  0  0  0
   35.7600   29.6940   30.9490 H   0  0  0  0  0  0  0  0  0  0  0  0
   36.2900   28.7580   30.7180 C   0  0  0  0  0  0  0  0  0  0  0  0
   37.1430   28.3820   29.8740 O   0  0  0  0  0  0  0  0  0  0  0  0
   35.8610   27.7620   31.6380 N   0  0  0  0  0  0  0  0  0  0  0  0
   35.1540   27.8670   32.4250 H   0  0  0  0  0  0  0  0  0  0  0  0
  2  3  1  0  0  0  0
  2  1  1  0  0  0  0
  3 13  1  0  0  0  0
  4  8  1  0  0  0  0
  4  3  2  0  0  0  0
  5  4  1  0  0  0  0
  6  5  2  0  0  0  0
  6  7  1  0  0  0  0
  7  2  2  0  0  0  0
  9  5  1  0  0  0  0
 10  6  1  0  0  0  0
 11 19  1  0  0  0  0
 12 17  1  0  0  0  0
 12 11  2  0  0  0  0
 13 12  1  0  0  0  0
 14 13  2  0  0  0  0
 14 15  1  0  0  0  0
 15 16  2  0  0  0  0
 16 11  1  0  0  0  0
 18 15  1  0  0  0  0
 19 20  1  0  0  0  0
 19 22  1  0  0  0  0
 19 21  1  0  0  0  0
 24 23  1  0  0  0  0
 24 26  1  0  0  0  0
 25 24  2  0  0  0  0
 26  7  1  0  0  0  0
 26 27  1  0  0  0  0
M  END
>  <minimizedAffinity>
-5.27568436

$$$$

 OpenBabel03272504143D

 27 28  0  0  0  0  0  0  0  0999 V2000
   40.2020   22.6480   34.4240 Cl  0  0  0  0  0  0  0  0  0  0  0  0
   39.3600   23.3910   35.7960 C   0  0  0  0  0  0  0  0  0  0  0  0
   38.5740   24.5280   35.6600 C   0  0  0  0  0  0  0  0  0  0  0  0
   37.9920   24.9840   36.7930 C   0  0  0  0  0  0  0  0  0  0  0  0
   38.1510   24.3830   38.0110 C   0  0  0  0  0  0  0  0  0  0  0  0
   38.9320   23.2470   38.1670 C   0  0  0  0  0  0  0  0  0  0  0  0
   39.5310   22.7730   37.0150 C   0  0  0  0  0  0  0  0  0  0  0  0
   37.3710   25.8690   36.7260 H   0  0  0  0  0  0  0  0  0  0  0  0
   37.6520   24.8080   38.8710 H   0  0  0  0  0  0  0  0  0  0  0  0
   39.0610   22.7680   39.1220 H   0  0  0  0  0  0  0  0  0  0  0  0
   37.4430   25.1920   32.1480 C   0  0  0  0  0  0  0  0  0  0  0  0
   37.5490   24.6160   33.4110 C   0  0  0  0  0  0  0  0  0  0  0  0
   38.4500   25.1120   34.3480 C   0  0  0  0  0  0  0  0  0  0  0  0
   39.2030   26.1800   33.9460 N   0  0  0  0  0  0  0  0  0  0  0  0
   39.0940   26.7280   32.7280 C   0  0  0  0  0  0  0  0  0  0  0  0
   38.2120   26.2260   31.8440 N   0  0  0  0  0  0  0  0  0  0  0  0
   36.9290   23.7630   33.6900 H   0  0  0  0  0  0  0  0  0  0  0  0
   39.7400   27.5710   32.5200 H   0  0  0  0  0  0  0  0  0  0  0  0
   36.4580   24.6270   31.1650 C   0  0  0  0  0  0  0  0  0  0  0  0
   35.6630   25.6390   30.6710 F   0  0  0  0  0  0  0  0  0  0  0  0
   37.1740   23.9410   30.2170 F   0  0  0  0  0  0  0  0  0  0  0  0
   35.6290   23.7530   31.8700 F   0  0  0  0  0  0  0  0  0  0  0  0
   41.9220   20.2890   37.2820 H   0  0  0  0  0  0  0  0  0  0  0  0
   41.7480   21.3670   37.1470 C   0  0  0  0  0  0  0  0  0  0  0  0
   42.4630   22.3910   36.9980 O   0  0  0  0  0  0  0  0  0  0  0  0
   40.3440   21.5970   37.1490 N   0  0  0  0  0  0  0  0  0  0  0  0
   39.5700   20.8770   37.2590 H   0  0  0  0  0  0  0  0  0  0  0  0
  1  2  1  0  0  0  0
  2  7  1  0  0  0  0
  3  2  2  0  0  0  0
  3  4  1  0  0  0  0
  4  5  2  0  0  0  0
  5  6  1  0  0  0  0
  5  9  1  0  0  0  0
  6 10  1  0  0  0  0
  7 26  1  0  0  0  0
  7  6  2  0  0  0  0
  8  4  1  0  0  0  0
 11 12  1  0  0  0  0
 12 17  1  0  0  0  0
 12 13  2  0  0  0  0
 13  3  1  0  0  0  0
 14 13  1  0  0  0  0
 15 14  2  0  0  0  0
 16 11  2  0  0  0  0
 16 15  1  0  0  0  0
 18 15  1  0  0  0  0
 19 22  1  0  0  0  0
 19 11  1  0  0  0  0
 20 19  1  0  0  0  0
 21 19  1  0  0  0  0
 24 26  1  0  0  0  0
 24 23  1  0  0  0  0
 25 24  2  0  0  0  0
 26 27  1  0  0  0  0
M  END
>  <minimizedAffinity>
-5.23992395

$$$$

 OpenBabel03272504143D

 27 28  0  0  0  0  0  0  0  0999 V2000
   39.3880   21.7610   32.3360 Cl  0  0  0  0  0  0  0  0  0  0  0  0
   37.8400   21.0370   32.8080 C   0  0  0  0  0  0  0  0  0  0  0  0
   37.0810   21.5230   33.8640 C   0  0  0  0  0  0  0  0  0  0  0  0
   35.9210   20.8720   34.1100 C   0  0  0  0  0  0  0  0  0  0  0  0
   35.4980   19.7960   33.3790 C   0  0  0  0  0  0  0  0  0  0  0  0
   36.2410   19.2960   32.3200 C   0  0  0  0  0  0  0  0  0  0  0  0
   37.4270   19.9550   32.0620 C   0  0  0  0  0  0  0  0  0  0  0  0
   35.3020   21.2220   34.9270 H   0  0  0  0  0  0  0  0  0  0  0  0
   34.5570   19.3290   33.6380 H   0  0  0  0  0  0  0  0  0  0  0  0
   35.9140   18.4500   31.7400 H   0  0  0  0  0  0  0  0  0  0  0  0
   38.2090   23.7450   36.6650 C   0  0  0  0  0  0  0  0  0  0  0  0
   37.7190   22.6370   35.9780 C   0  0  0  0  0  0  0  0  0  0  0  0
   37.5860   22.6600   34.5930 C   0  0  0  0  0  0  0  0  0  0  0  0
   37.9610   23.8200   33.9750 N   0  0  0  0  0  0  0  0  0  0  0  0
   38.4310   24.8810   34.6460 C   0  0  0  0  0  0  0  0  0  0  0  0
   38.5490   24.8280   35.9850 N   0  0  0  0  0  0  0  0  0  0  0  0
   37.4300   21.7310   36.5120 H   0  0  0  0  0  0  0  0  0  0  0  0
   38.6990   25.7450   34.0520 H   0  0  0  0  0  0  0  0  0  0  0  0
   38.3370   23.6810   38.1610 C   0  0  0  0  0  0  0  0  0  0  0  0
   39.5720   23.1690   38.4980 F   0  0  0  0  0  0  0  0  0  0  0  0
   38.0820   24.9380   38.6480 F   0  0  0  0  0  0  0  0  0  0  0  0
   37.3740   22.7800   38.6180 F   0  0  0  0  0  0  0  0  0  0  0  0
   38.8650   18.8240   29.1260 H   0  0  0  0  0  0  0  0  0  0  0  0
   37.9490   19.2170   29.5930 C   0  0  0  0  0  0  0  0  0  0  0  0
   36.7810   19.4890   29.2140 O   0  0  0  0  0  0  0  0  0  0  0  0
   38.2160   19.4560   30.9690 N   0  0  0  0  0  0  0  0  0  0  0  0
   39.1290   19.2950   31.4900 H   0  0  0  0  0  0  0  0  0  0  0  0
  1  2  1  0  0  0  0
  2  3  1  0  0  0  0
  3  4  2  0  0  0  0
  3 13  1  0  0  0  0
  4  8  1  0  0  0  0
  5  9  1  0  0  0  0
  5  4  1  0  0  0  0
  6  5  2  0  0  0  0
  7  6  1  0  0  0  0
  7  2  2  0  0  0  0
 10  6  1  0  0  0  0
 11 19  1  0  0  0  0
 12 17  1  0  0  0  0
 12 11  2  0  0  0  0
 13 12  1  0  0  0  0
 14 13  2  0  0  0  0
 14 15  1  0  0  0  0
 15 16  2  0  0  0  0
 16 11  1  0  0  0  0
 18 15  1  0  0  0  0
 19 20  1  0  0  0  0
 19 22  1  0  0  0  0
 19 21  1  0  0  0  0
 23 24  1  0  0  0  0
 24 26  1  0  0  0  0
 25 24  2  0  0  0  0
 26 27  1  0  0  0  0
 26  7  1  0  0  0  0
M  END
>  <minimizedAffinity>
-5.12867928

$$$$

 OpenBabel03272504143D

 27 28  0  0  0  0  0  0  0  0999 V2000
   36.1220   32.0640   35.5080 Cl  0  0  0  0  0  0  0  0  0  0  0  0
   34.5500   31.3070   35.8250 C   0  0  0  0  0  0  0  0  0  0  0  0
   34.0420   30.2850   35.0340 C   0  0  0  0  0  0  0  0  0  0  0  0
   32.8310   29.8020   35.3940 C   0  0  0  0  0  0  0  0  0  0  0  0
   32.1280   30.2730   36.4680 C   0  0  0  0  0  0  0  0  0  0  0  0
   32.6180   31.2920   37.2720 C   0  0  0  0  0  0  0  0  0  0  0  0
   33.8550   31.7920   36.9110 C   0  0  0  0  0  0  0  0  0  0  0  0
   32.4030   29.0050   34.8000 H   0  0  0  0  0  0  0  0  0  0  0  0
   31.1650   29.8350   36.6930 H   0  0  0  0  0  0  0  0  0  0  0  0
   32.0710   31.6670   38.1190 H   0  0  0  0  0  0  0  0  0  0  0  0
   36.5290   28.3960   32.9580 C   0  0  0  0  0  0  0  0  0  0  0  0
   35.7710   28.8160   34.0490 C   0  0  0  0  0  0  0  0  0  0  0  0
   34.8360   29.8370   33.9160 C   0  0  0  0  0  0  0  0  0  0  0  0
   34.7190   30.3820   32.6680 N   0  0  0  0  0  0  0  0  0  0  0  0
   35.4530   29.9720   31.6250 C   0  0  0  0  0  0  0  0  0  0  0  0
   36.3490   28.9810   31.7850 N   0  0  0  0  0  0  0  0  0  0  0  0
   35.8970   28.3530   35.0280 H   0  0  0  0  0  0  0  0  0  0  0  0
   35.2750   30.4750   30.6840 H   0  0  0  0  0  0  0  0  0  0  0  0
   37.5290   27.2910   33.1440 C   0  0  0  0  0  0  0  0  0  0  0  0
   38.2230   27.4860   34.3200 F   0  0  0  0  0  0  0  0  0  0  0  0
   36.8460   26.1040   33.0680 F   0  0  0  0  0  0  0  0  0  0  0  0
   38.4480   27.3870   32.0980 F   0  0  0  0  0  0  0  0  0  0  0  0
   34.8150   34.6730   38.5670 H   0  0  0  0  0  0  0  0  0  0  0  0
   34.1900   34.2560   37.7630 C   0  0  0  0  0  0  0  0  0  0  0  0
   33.3830   34.7110   36.9120 O   0  0  0  0  0  0  0  0  0  0  0  0
   34.3860   32.8480   37.7270 N   0  0  0  0  0  0  0  0  0  0  0  0
   35.0190   32.2660   38.3520 H   0  0  0  0  0  0  0  0  0  0  0  0
  1  2  1  0  0  0  0
  2  7  1  0  0  0  0
  3  4  1  0  0  0  0
  3  2  2  0  0  0  0
  4  5  2  0  0  0  0
  5  9  1  0  0  0  0
  5  6  1  0  0  0  0
  6 10  1  0  0  0  0
  7  6  2  0  0  0  0
  7 26  1  0  0  0  0
  8  4  1  0  0  0  0
 11 19  1  0  0  0  0
 11 12  1  0  0  0  0
 12 17  1  0  0  0  0
 13 12  2  0  0  0  0
 13  3  1  0  0  0  0
 14 13  1  0  0  0  0
 15 16  1  0  0  0  0
 15 14  2  0  0  0  0
 16 11  2  0  0  0  0
 18 15  1  0  0  0  0
 19 20  1  0  0  0  0
 21 19  1  0  0  0  0
 22 19  1  0  0  0  0
 24 23  1  0  0  0  0
 25 24  2  0  0  0  0
 26 24  1  0  0  0  0
 26 27  1  0  0  0  0
M  END
>  <minimizedAffinity>
-5.12529707

$$$$

 OpenBabel03272504143D

 27 28  0  0  0  0  0  0  0  0999 V2000
   32.5110   29.4110   34.7370 Cl  0  0  0  0  0  0  0  0  0  0  0  0
   33.5050   30.6100   35.5860 C   0  0  0  0  0  0  0  0  0  0  0  0
   34.8360   30.8380   35.2620 C   0  0  0  0  0  0  0  0  0  0  0  0
   35.4700   31.7830   35.9940 C   0  0  0  0  0  0  0  0  0  0  0  0
   34.8620   32.4850   36.9970 C   0  0  0  0  0  0  0  0  0  0  0  0
   33.5330   32.2730   37.3350 C   0  0  0  0  0  0  0  0  0  0  0  0
   32.8770   31.3090   36.5940 C   0  0  0  0  0  0  0  0  0  0  0  0
   36.5100   31.9880   35.7710 H   0  0  0  0  0  0  0  0  0  0  0  0
   35.4370   33.2260   37.5370 H   0  0  0  0  0  0  0  0  0  0  0  0
   33.0480   32.8230   38.1230 H   0  0  0  0  0  0  0  0  0  0  0  0
   36.5370   28.0770   33.3810 C   0  0  0  0  0  0  0  0  0  0  0  0
   35.9810   28.8120   34.4250 C   0  0  0  0  0  0  0  0  0  0  0  0
   35.4150   30.0620   34.1940 C   0  0  0  0  0  0  0  0  0  0  0  0
   35.4450   30.5020   32.9000 N   0  0  0  0  0  0  0  0  0  0  0  0
   35.9820   29.7870   31.9020 C   0  0  0  0  0  0  0  0  0  0  0  0
   36.5210   28.5810   32.1570 N   0  0  0  0  0  0  0  0  0  0  0  0
   35.9790   28.4230   35.4440 H   0  0  0  0  0  0  0  0  0  0  0  0
   35.9480   30.2350   30.9180 H   0  0  0  0  0  0  0  0  0  0  0  0
   37.1380   26.7320   33.6720 C   0  0  0  0  0  0  0  0  0  0  0  0
   36.8700   26.3770   34.9770 F   0  0  0  0  0  0  0  0  0  0  0  0
   36.6610   25.8570   32.7280 F   0  0  0  0  0  0  0  0  0  0  0  0
   38.5220   26.8640   33.5510 F   0  0  0  0  0  0  0  0  0  0  0  0
   29.4480   31.1280   37.0080 H   0  0  0  0  0  0  0  0  0  0  0  0
   30.2700   31.6190   36.4660 C   0  0  0  0  0  0  0  0  0  0  0  0
   30.3710   32.5090   35.5820 O   0  0  0  0  0  0  0  0  0  0  0  0
   31.5000   31.0700   36.9230 N   0  0  0  0  0  0  0  0  0  0  0  0
   31.6390   30.3160   37.6590 H   0  0  0  0  0  0  0  0  0  0  0  0
  1  2  1  0  0  0  0
  2  7  1  0  0  0  0
  3  2  2  0  0  0  0
  3  4  1  0  0  0  0
  4  5  2  0  0  0  0
  5  6  1  0  0  0  0
  5  9  1  0  0  0  0
  6 10  1  0  0  0  0
  7 26  1  0  0  0  0
  7  6  2  0  0  0  0
  8  4  1  0  0  0  0
 11 19  1  0  0  0  0
 11 12  1  0  0  0  0
 12 17  1  0  0  0  0
 13 12  2  0  0  0  0
 13  3  1  0  0  0  0
 14 13  1  0  0  0  0
 15 16  1  0  0  0  0
 15 14  2  0  0  0  0
 16 11  2  0  0  0  0
 18 15  1  0  0  0  0
 19 20  1  0  0  0  0
 21 19  1  0  0  0  0
 22 19  1  0  0  0  0
 24 26  1  0  0  0  0
 24 23  1  0  0  0  0
 25 24  2  0  0  0  0
 26 27  1  0  0  0  0
M  END
>  <minimizedAffinity>
-5.09135532

$$$$

 OpenBabel03272504143D

 27 28  0  0  0  0  0  0  0  0999 V2000
   36.6590   25.1830   32.4580 Cl  0  0  0  0  0  0  0  0  0  0  0  0
   38.3130   25.8010   32.6270 C   0  0  0  0  0  0  0  0  0  0  0  0
   39.1870   25.3340   33.5990 C   0  0  0  0  0  0  0  0  0  0  0  0
   40.4170   25.8970   33.6100 C   0  0  0  0  0  0  0  0  0  0  0  0
   40.8030   26.8690   32.7280 C   0  0  0  0  0  0  0  0  0  0  0  0
   39.9450   27.3480   31.7500 C   0  0  0  0  0  0  0  0  0  0  0  0
   38.6860   26.7790   31.7310 C   0  0  0  0  0  0  0  0  0  0  0  0
   41.1260   25.5580   34.3550 H   0  0  0  0  0  0  0  0  0  0  0  0
   41.8050   27.2690   32.8010 H   0  0  0  0  0  0  0  0  0  0  0  0
   40.2420   28.1120   31.0520 H   0  0  0  0  0  0  0  0  0  0  0  0
   38.2690   23.4830   36.7280 C   0  0  0  0  0  0  0  0  0  0  0  0
   38.7270   24.4860   35.8770 C   0  0  0  0  0  0  0  0  0  0  0  0
   38.7160   24.3090   34.4970 C   0  0  0  0  0  0  0  0  0  0  0  0
   38.2320   23.1100   34.0520 N   0  0  0  0  0  0  0  0  0  0  0  0
   37.7930   22.1520   34.8790 C   0  0  0  0  0  0  0  0  0  0  0  0
   37.8170   22.3530   36.2090 N   0  0  0  0  0  0  0  0  0  0  0  0
   39.1060   25.4280   36.2750 H   0  0  0  0  0  0  0  0  0  0  0  0
   37.4320   21.2440   34.4150 H   0  0  0  0  0  0  0  0  0  0  0  0
   38.2990   23.7130   38.2120 C   0  0  0  0  0  0  0  0  0  0  0  0
   39.5210   23.3220   38.7170 F   0  0  0  0  0  0  0  0  0  0  0  0
   37.9820   25.0300   38.4280 F   0  0  0  0  0  0  0  0  0  0  0  0
   37.3290   22.8840   38.7770 F   0  0  0  0  0  0  0  0  0  0  0  0
   36.3560   28.3170   29.6890 H   0  0  0  0  0  0  0  0  0  0  0  0
   36.8410   28.3270   30.6760 C   0  0  0  0  0  0  0  0  0  0  0  0
   36.7640   29.0270   31.7190 O   0  0  0  0  0  0  0  0  0  0  0  0
   37.7770   27.2580   30.7260 N   0  0  0  0  0  0  0  0  0  0  0  0
   37.9970   26.5520   29.9620 H   0  0  0  0  0  0  0  0  0  0  0  0
  1  2  1  0  0  0  0
  2  3  1  0  0  0  0
  3  4  2  0  0  0  0
  3 13  1  0  0  0  0
  4  8  1  0  0  0  0
  5  9  1  0  0  0  0
  5  4  1  0  0  0  0
  6  5  2  0  0  0  0
  7  6  1  0  0  0  0
  7  2  2  0  0  0  0
 10  6  1  0  0  0  0
 11 19  1  0  0  0  0
 12 17  1  0  0  0  0
 12 11  2  0  0  0  0
 13 12  1  0  0  0  0
 14 13  2  0  0  0  0
 14 15  1  0  0  0  0
 15 16  2  0  0  0  0
 16 11  1  0  0  0  0
 18 15  1  0  0  0  0
 19 21  1  0  0  0  0
 19 20  1  0  0  0  0
 19 22  1  0  0  0  0
 23 24  1  0  0  0  0
 24 26  1  0  0  0  0
 24 25  2  0  0  0  0
 26  7  1  0  0  0  0
 27 26  1  0  0  0  0
M  END
>  <minimizedAffinity>
-5.06688738

$$$$
