
 OpenBabel03272500543D

 24 25  0  0  0  0  0  0  0  0999 V2000
   39.8030   23.8500   35.8250 C   0  0  0  0  0  0  0  0  0  0  0  0
   41.1390   24.0180   35.4810 C   0  0  0  0  0  0  0  0  0  0  0  0
   42.1700   23.2500   35.9930 C   0  0  0  0  0  0  0  0  0  0  0  0
   41.8490   22.2360   36.9190 C   0  0  0  0  0  0  0  0  0  0  0  0
   40.5200   22.0870   37.2460 C   0  0  0  0  0  0  0  0  0  0  0  0
   39.5090   22.8530   36.7330 C   0  0  0  0  0  0  0  0  0  0  0  0
   41.4540   24.7780   34.7750 H   0  0  0  0  0  0  0  0  0  0  0  0
   43.2000   23.3990   35.7120 H   0  0  0  0  0  0  0  0  0  0  0  0
   42.5850   21.5970   37.3630 H   0  0  0  0  0  0  0  0  0  0  0  0
   40.1880   21.3310   37.9500 H   0  0  0  0  0  0  0  0  0  0  0  0
   38.6400   25.9890   35.8710 C   0  0  0  0  0  0  0  0  0  0  0  0
   38.8720   24.7590   35.1760 C   0  0  0  0  0  0  0  0  0  0  0  0
   38.1970   24.5710   33.9820 C   0  0  0  0  0  0  0  0  0  0  0  0
   37.3670   25.5300   33.5290 N   0  0  0  0  0  0  0  0  0  0  0  0
   37.1540   26.6860   34.1920 C   0  0  0  0  0  0  0  0  0  0  0  0
   37.7970   26.9120   35.3680 N   0  0  0  0  0  0  0  0  0  0  0  0
   39.1070   26.2500   36.8100 H   0  0  0  0  0  0  0  0  0  0  0  0
   38.4030   23.6300   33.4920 H   0  0  0  0  0  0  0  0  0  0  0  0
   36.4710   27.4200   33.7690 H   0  0  0  0  0  0  0  0  0  0  0  0
   36.8720   23.3340   38.8210 H   0  0  0  0  0  0  0  0  0  0  0  0
   37.8520   23.2990   38.3230 C   0  0  0  0  0  0  0  0  0  0  0  0
   38.7910   23.8450   38.9730 O   0  0  0  0  0  0  0  0  0  0  0  0
   38.1310   22.7100   37.0600 N   0  0  0  0  0  0  0  0  0  0  0  0
   37.3290   22.2690   36.5550 H   0  0  0  0  0  0  0  0  0  0  0  0
  1  6  1  0  0  0  0
  2  1  2  0  0  0  0
  2  3  1  0  0  0  0
  3  4  2  0  0  0  0
  4  5  1  0  0  0  0
  4  9  1  0  0  0  0
  5 10  1  0  0  0  0
  6 23  1  0  0  0  0
  6  5  2  0  0  0  0
  7  2  1  0  0  0  0
  8  3  1  0  0  0  0
 11 17  1  0  0  0  0
 12  1  1  0  0  0  0
 12 11  2  0  0  0  0
 13 12  1  0  0  0  0
 14 13  2  0  0  0  0
 14 15  1  0  0  0  0
 15 16  2  0  0  0  0
 16 11  1  0  0  0  0
 18 13  1  0  0  0  0
 19 15  1  0  0  0  0
 21 20  1  0  0  0  0
 21 22  2  0  0  0  0
 23 21  1  0  0  0  0
 24 23  1  0  0  0  0
M  END
>  <minimizedAffinity>
-4.49017763

$$$$

 OpenBabel03272500543D

 24 25  0  0  0  0  0  0  0  0999 V2000
   38.5310   25.4040   35.2740 C   0  0  0  0  0  0  0  0  0  0  0  0
   38.5050   26.6430   35.9020 C   0  0  0  0  0  0  0  0  0  0  0  0
   37.8130   27.7400   35.4180 C   0  0  0  0  0  0  0  0  0  0  0  0
   37.0890   27.5930   34.2160 C   0  0  0  0  0  0  0  0  0  0  0  0
   37.1280   26.3570   33.6110 C   0  0  0  0  0  0  0  0  0  0  0  0
   37.8170   25.2810   34.0990 C   0  0  0  0  0  0  0  0  0  0  0  0
   39.0390   26.8240   36.8290 H   0  0  0  0  0  0  0  0  0  0  0  0
   37.8070   28.6920   35.9230 H   0  0  0  0  0  0  0  0  0  0  0  0
   36.5270   28.3900   33.7740 H   0  0  0  0  0  0  0  0  0  0  0  0
   36.6000   26.1610   32.6840 H   0  0  0  0  0  0  0  0  0  0  0  0
   38.7040   23.8060   37.1040 C   0  0  0  0  0  0  0  0  0  0  0  0
   39.3170   24.3810   35.9440 C   0  0  0  0  0  0  0  0  0  0  0  0
   40.5700   23.9080   35.5910 C   0  0  0  0  0  0  0  0  0  0  0  0
   41.1510   22.9470   36.3350 N   0  0  0  0  0  0  0  0  0  0  0  0
   40.5660   22.4130   37.4270 C   0  0  0  0  0  0  0  0  0  0  0  0
   39.3360   22.8480   37.8080 N   0  0  0  0  0  0  0  0  0  0  0  0
   37.7310   24.0920   37.4780 H   0  0  0  0  0  0  0  0  0  0  0  0
   40.9930   24.3680   34.7100 H   0  0  0  0  0  0  0  0  0  0  0  0
   41.0920   21.6390   37.9840 H   0  0  0  0  0  0  0  0  0  0  0  0
   38.9900   23.1510   31.7260 H   0  0  0  0  0  0  0  0  0  0  0  0
   38.7590   24.0040   32.3790 C   0  0  0  0  0  0  0  0  0  0  0  0
   39.3690   25.0730   32.0820 O   0  0  0  0  0  0  0  0  0  0  0  0
   37.8670   23.9970   33.4850 N   0  0  0  0  0  0  0  0  0  0  0  0
   37.3830   23.0950   33.6990 H   0  0  0  0  0  0  0  0  0  0  0  0
  1  2  1  0  0  0  0
  1 12  1  0  0  0  0
  2  7  1  0  0  0  0
  3  2  2  0  0  0  0
  3  8  1  0  0  0  0
  4  3  1  0  0  0  0
  5  6  1  0  0  0  0
  5  4  2  0  0  0  0
  6  1  2  0  0  0  0
  9  4  1  0  0  0  0
 10  5  1  0  0  0  0
 11 17  1  0  0  0  0
 11 16  1  0  0  0  0
 12 11  2  0  0  0  0
 13 12  1  0  0  0  0
 13 14  2  0  0  0  0
 14 15  1  0  0  0  0
 15 16  2  0  0  0  0
 15 19  1  0  0  0  0
 18 13  1  0  0  0  0
 20 21  1  0  0  0  0
 21 23  1  0  0  0  0
 22 21  2  0  0  0  0
 23 24  1  0  0  0  0
 23  6  1  0  0  0  0
M  END
>  <minimizedAffinity>
-4.14868259

$$$$

 OpenBabel03272500543D

 24 25  0  0  0  0  0  0  0  0999 V2000
   34.9940   30.3630   34.8530 C   0  0  0  0  0  0  0  0  0  0  0  0
   35.7690   31.2270   35.6170 C   0  0  0  0  0  0  0  0  0  0  0  0
   35.2670   32.0240   36.6300 C   0  0  0  0  0  0  0  0  0  0  0  0
   33.8850   31.9550   36.9080 C   0  0  0  0  0  0  0  0  0  0  0  0
   33.1360   31.0930   36.1390 C   0  0  0  0  0  0  0  0  0  0  0  0
   33.6450   30.3110   35.1380 C   0  0  0  0  0  0  0  0  0  0  0  0
   36.8370   31.3280   35.4560 H   0  0  0  0  0  0  0  0  0  0  0  0
   35.8880   32.6870   37.2110 H   0  0  0  0  0  0  0  0  0  0  0  0
   33.4160   32.5360   37.6750 H   0  0  0  0  0  0  0  0  0  0  0  0
   32.0670   30.9810   36.2880 H   0  0  0  0  0  0  0  0  0  0  0  0
   36.2980   28.3860   34.2850 C   0  0  0  0  0  0  0  0  0  0  0  0
   35.7130   29.6130   33.8350 C   0  0  0  0  0  0  0  0  0  0  0  0
   35.8920   29.9470   32.5040 C   0  0  0  0  0  0  0  0  0  0  0  0
   36.5920   29.1240   31.7000 N   0  0  0  0  0  0  0  0  0  0  0  0
   37.1410   27.9710   32.1330 C   0  0  0  0  0  0  0  0  0  0  0  0
   36.9890   27.6040   33.4340 N   0  0  0  0  0  0  0  0  0  0  0  0
   36.2270   28.0190   35.2990 H   0  0  0  0  0  0  0  0  0  0  0  0
   35.4330   30.8800   32.2080 H   0  0  0  0  0  0  0  0  0  0  0  0
   37.6950   27.3510   31.4310 H   0  0  0  0  0  0  0  0  0  0  0  0
   31.5550   29.6750   32.5370 H   0  0  0  0  0  0  0  0  0  0  0  0
   32.2100   30.1170   33.3010 C   0  0  0  0  0  0  0  0  0  0  0  0
   32.3500   31.3720   33.2110 O   0  0  0  0  0  0  0  0  0  0  0  0
   32.8840   29.4150   34.3370 N   0  0  0  0  0  0  0  0  0  0  0  0
   32.7430   28.3790   34.3770 H   0  0  0  0  0  0  0  0  0  0  0  0
  1  6  2  0  0  0  0
  1  2  1  0  0  0  0
  2  3  2  0  0  0  0
  3  4  1  0  0  0  0
  3  8  1  0  0  0  0
  4  9  1  0  0  0  0
  5 10  1  0  0  0  0
  5  4  2  0  0  0  0
  6  5  1  0  0  0  0
  7  2  1  0  0  0  0
 11 17  1  0  0  0  0
 12 11  1  0  0  0  0
 12  1  1  0  0  0  0
 13 12  2  0  0  0  0
 14 15  2  0  0  0  0
 14 13  1  0  0  0  0
 15 16  1  0  0  0  0
 16 11  2  0  0  0  0
 18 13  1  0  0  0  0
 19 15  1  0  0  0  0
 20 21  1  0  0  0  0
 21 23  1  0  0  0  0
 22 21  2  0  0  0  0
 23 24  1  0  0  0  0
 23  6  1  0  0  0  0
M  END
>  <minimizedAffinity>
-4.13798094

$$$$

 OpenBabel03272500543D

 24 25  0  0  0  0  0  0  0  0999 V2000
   36.4570   27.9280   31.1820 C   0  0  0  0  0  0  0  0  0  0  0  0
   36.0930   28.4560   32.4150 C   0  0  0  0  0  0  0  0  0  0  0  0
   35.9270   29.8080   32.6570 C   0  0  0  0  0  0  0  0  0  0  0  0
   36.1380   30.7060   31.5890 C   0  0  0  0  0  0  0  0  0  0  0  0
   36.4980   30.1620   30.3770 C   0  0  0  0  0  0  0  0  0  0  0  0
   36.6600   28.8220   30.1510 C   0  0  0  0  0  0  0  0  0  0  0  0
   35.9150   27.8210   33.2760 H   0  0  0  0  0  0  0  0  0  0  0  0
   35.6440   30.1950   33.6220 H   0  0  0  0  0  0  0  0  0  0  0  0
   36.0310   31.7660   31.6910 H   0  0  0  0  0  0  0  0  0  0  0  0
   36.6790   30.7830   29.5060 H   0  0  0  0  0  0  0  0  0  0  0  0
   35.3400   25.7690   31.0340 C   0  0  0  0  0  0  0  0  0  0  0  0
   36.5790   26.4790   31.1340 C   0  0  0  0  0  0  0  0  0  0  0  0
   37.7390   25.7250   31.1740 C   0  0  0  0  0  0  0  0  0  0  0  0
   37.6610   24.3820   31.1180 N   0  0  0  0  0  0  0  0  0  0  0  0
   36.4890   23.7210   31.0250 C   0  0  0  0  0  0  0  0  0  0  0  0
   35.3250   24.4230   30.9820 N   0  0  0  0  0  0  0  0  0  0  0  0
   34.3710   26.2450   30.9950 H   0  0  0  0  0  0  0  0  0  0  0  0
   38.6490   26.3020   31.2490 H   0  0  0  0  0  0  0  0  0  0  0  0
   36.4960   22.6330   30.9830 H   0  0  0  0  0  0  0  0  0  0  0  0
   38.9750   28.0720   27.7800 H   0  0  0  0  0  0  0  0  0  0  0  0
   38.4210   28.4180   28.6640 C   0  0  0  0  0  0  0  0  0  0  0  0
   39.1260   29.0240   29.5230 O   0  0  0  0  0  0  0  0  0  0  0  0
   37.0300   28.2450   28.9040 N   0  0  0  0  0  0  0  0  0  0  0  0
   36.4820   27.7390   28.1710 H   0  0  0  0  0  0  0  0  0  0  0  0
  1  2  1  0  0  0  0
  2  3  2  0  0  0  0
  2  7  1  0  0  0  0
  3  8  1  0  0  0  0
  4  9  1  0  0  0  0
  4  3  1  0  0  0  0
  5  4  2  0  0  0  0
  6  5  1  0  0  0  0
  6  1  2  0  0  0  0
 10  5  1  0  0  0  0
 11 12  1  0  0  0  0
 12 13  2  0  0  0  0
 12  1  1  0  0  0  0
 13 18  1  0  0  0  0
 14 13  1  0  0  0  0
 15 14  2  0  0  0  0
 16 15  1  0  0  0  0
 16 11  2  0  0  0  0
 17 11  1  0  0  0  0
 19 15  1  0  0  0  0
 20 21  1  0  0  0  0
 21 23  1  0  0  0  0
 21 22  2  0  0  0  0
 23  6  1  0  0  0  0
 24 23  1  0  0  0  0
M  END
>  <minimizedAffinity>
-4.0811491

$$$$

 OpenBabel03272500543D

 24 25  0  0  0  0  0  0  0  0999 V2000
   34.5330   30.6240   35.2250 C   0  0  0  0  0  0  0  0  0  0  0  0
   33.1830   30.3060   35.3210 C   0  0  0  0  0  0  0  0  0  0  0  0
   32.3310   30.8350   36.2740 C   0  0  0  0  0  0  0  0  0  0  0  0
   32.8610   31.7540   37.2050 C   0  0  0  0  0  0  0  0  0  0  0  0
   34.2000   32.0550   37.0920 C   0  0  0  0  0  0  0  0  0  0  0  0
   35.0320   31.5240   36.1450 C   0  0  0  0  0  0  0  0  0  0  0  0
   32.7120   29.6080   34.6370 H   0  0  0  0  0  0  0  0  0  0  0  0
   31.2870   30.5740   36.3300 H   0  0  0  0  0  0  0  0  0  0  0  0
   32.2720   32.2100   37.9730 H   0  0  0  0  0  0  0  0  0  0  0  0
   34.6860   32.7510   37.7680 H   0  0  0  0  0  0  0  0  0  0  0  0
   35.2170   30.6300   32.8880 C   0  0  0  0  0  0  0  0  0  0  0  0
   35.2560   29.9600   34.1530 C   0  0  0  0  0  0  0  0  0  0  0  0
   35.9660   28.7730   34.2180 C   0  0  0  0  0  0  0  0  0  0  0  0
   36.5800   28.3040   33.1150 N   0  0  0  0  0  0  0  0  0  0  0  0
   36.5360   28.9420   31.9270 C   0  0  0  0  0  0  0  0  0  0  0  0
   35.8510   30.1110   31.8190 N   0  0  0  0  0  0  0  0  0  0  0  0
   34.6970   31.5600   32.7130 H   0  0  0  0  0  0  0  0  0  0  0  0
   35.9700   28.3030   35.1910 H   0  0  0  0  0  0  0  0  0  0  0  0
   37.0550   28.5080   31.0740 H   0  0  0  0  0  0  0  0  0  0  0  0
   37.5620   33.5510   35.1280 H   0  0  0  0  0  0  0  0  0  0  0  0
   36.5990   33.0740   35.3590 C   0  0  0  0  0  0  0  0  0  0  0  0
   35.5840   33.7320   34.9890 O   0  0  0  0  0  0  0  0  0  0  0  0
   36.4170   31.8260   36.0150 N   0  0  0  0  0  0  0  0  0  0  0  0
   37.2810   31.3120   36.3060 H   0  0  0  0  0  0  0  0  0  0  0  0
  1  2  2  0  0  0  0
  1  6  1  0  0  0  0
  2  3  1  0  0  0  0
  3  8  1  0  0  0  0
  3  4  2  0  0  0  0
  4  9  1  0  0  0  0
  5  4  1  0  0  0  0
  5 10  1  0  0  0  0
  6  5  2  0  0  0  0
  7  2  1  0  0  0  0
 11 12  1  0  0  0  0
 12 13  2  0  0  0  0
 12  1  1  0  0  0  0
 13 18  1  0  0  0  0
 14 13  1  0  0  0  0
 15 14  2  0  0  0  0
 16 15  1  0  0  0  0
 16 11  2  0  0  0  0
 17 11  1  0  0  0  0
 19 15  1  0  0  0  0
 20 21  1  0  0  0  0
 21 23  1  0  0  0  0
 22 21  2  0  0  0  0
 23  6  1  0  0  0  0
 23 24  1  0  0  0  0
M  END
>  <minimizedAffinity>
-4.07505226

$$$$

 OpenBabel03272500543D

 24 25  0  0  0  0  0  0  0  0999 V2000
   39.8140   24.4800   35.6020 C   0  0  0  0  0  0  0  0  0  0  0  0
   40.4050   25.6310   35.0950 C   0  0  0  0  0  0  0  0  0  0  0  0
   39.7380   26.8320   34.9280 C   0  0  0  0  0  0  0  0  0  0  0  0
   38.3770   26.8940   35.2960 C   0  0  0  0  0  0  0  0  0  0  0  0
   37.8120   25.7420   35.7950 C   0  0  0  0  0  0  0  0  0  0  0  0
   38.4830   24.5600   35.9540 C   0  0  0  0  0  0  0  0  0  0  0  0
   41.4470   25.6520   34.7940 H   0  0  0  0  0  0  0  0  0  0  0  0
   40.2170   27.7130   34.5330 H   0  0  0  0  0  0  0  0  0  0  0  0
   37.7880   27.7830   35.2000 H   0  0  0  0  0  0  0  0  0  0  0  0
   36.7710   25.7050   36.1010 H   0  0  0  0  0  0  0  0  0  0  0  0
   40.8930   22.6130   34.4700 C   0  0  0  0  0  0  0  0  0  0  0  0
   40.6870   23.3210   35.6970 C   0  0  0  0  0  0  0  0  0  0  0  0
   41.3290   22.8330   36.8230 C   0  0  0  0  0  0  0  0  0  0  0  0
   42.1060   21.7380   36.7230 N   0  0  0  0  0  0  0  0  0  0  0  0
   42.2940   21.0780   35.5620 C   0  0  0  0  0  0  0  0  0  0  0  0
   41.6830   21.5220   34.4320 N   0  0  0  0  0  0  0  0  0  0  0  0
   40.4470   22.8960   33.5270 H   0  0  0  0  0  0  0  0  0  0  0  0
   41.1450   23.3980   37.7260 H   0  0  0  0  0  0  0  0  0  0  0  0
   42.9350   20.1980   35.5510 H   0  0  0  0  0  0  0  0  0  0  0  0
   37.3440   22.6680   38.5360 H   0  0  0  0  0  0  0  0  0  0  0  0
   37.7580   23.4470   37.8800 C   0  0  0  0  0  0  0  0  0  0  0  0
   38.1190   24.5010   38.4800 O   0  0  0  0  0  0  0  0  0  0  0  0
   37.9120   23.3630   36.4700 N   0  0  0  0  0  0  0  0  0  0  0  0
   37.6020   22.4750   36.0110 H   0  0  0  0  0  0  0  0  0  0  0  0
  1 12  1  0  0  0  0
  1  6  1  0  0  0  0
  2  1  2  0  0  0  0
  3  2  1  0  0  0  0
  3  4  2  0  0  0  0
  4  5  1  0  0  0  0
  5  6  2  0  0  0  0
  5 10  1  0  0  0  0
  6 23  1  0  0  0  0
  7  2  1  0  0  0  0
  8  3  1  0  0  0  0
  9  4  1  0  0  0  0
 11 12  1  0  0  0  0
 12 13  2  0  0  0  0
 13 18  1  0  0  0  0
 14 13  1  0  0  0  0
 15 14  2  0  0  0  0
 16 11  2  0  0  0  0
 16 15  1  0  0  0  0
 17 11  1  0  0  0  0
 19 15  1  0  0  0  0
 21 22  2  0  0  0  0
 21 20  1  0  0  0  0
 23 21  1  0  0  0  0
 24 23  1  0  0  0  0
M  END
>  <minimizedAffinity>
-4.04350996

$$$$

 OpenBabel03272500543D

 24 25  0  0  0  0  0  0  0  0999 V2000
   38.4770   23.0140   35.9470 C   0  0  0  0  0  0  0  0  0  0  0  0
   37.5890   23.5660   36.8620 C   0  0  0  0  0  0  0  0  0  0  0  0
   37.8710   23.7360   38.2060 C   0  0  0  0  0  0  0  0  0  0  0  0
   39.1360   23.3260   38.6770 C   0  0  0  0  0  0  0  0  0  0  0  0
   40.0000   22.7810   37.7540 C   0  0  0  0  0  0  0  0  0  0  0  0
   39.7080   22.6180   36.4270 C   0  0  0  0  0  0  0  0  0  0  0  0
   36.6010   23.9020   36.5660 H   0  0  0  0  0  0  0  0  0  0  0  0
   37.1660   24.1670   38.8980 H   0  0  0  0  0  0  0  0  0  0  0  0
   39.4360   23.4220   39.7010 H   0  0  0  0  0  0  0  0  0  0  0  0
   40.9920   22.4400   38.0340 H   0  0  0  0  0  0  0  0  0  0  0  0
   38.1070   24.1240   33.8110 C   0  0  0  0  0  0  0  0  0  0  0  0
   37.9880   22.9220   34.5800 C   0  0  0  0  0  0  0  0  0  0  0  0
   37.4310   21.8220   33.9510 C   0  0  0  0  0  0  0  0  0  0  0  0
   37.0320   21.9210   32.6680 N   0  0  0  0  0  0  0  0  0  0  0  0
   37.1470   23.0580   31.9520 C   0  0  0  0  0  0  0  0  0  0  0  0
   37.6890   24.1620   32.5310 N   0  0  0  0  0  0  0  0  0  0  0  0
   38.5240   25.0460   34.1910 H   0  0  0  0  0  0  0  0  0  0  0  0
   37.3620   20.9380   34.5680 H   0  0  0  0  0  0  0  0  0  0  0  0
   36.8050   23.0700   30.9190 H   0  0  0  0  0  0  0  0  0  0  0  0
   42.3050   22.8780   34.2520 H   0  0  0  0  0  0  0  0  0  0  0  0
   41.5130   23.0350   34.9980 C   0  0  0  0  0  0  0  0  0  0  0  0
   41.4520   24.2120   35.4600 O   0  0  0  0  0  0  0  0  0  0  0  0
   40.5910   22.0580   35.4610 N   0  0  0  0  0  0  0  0  0  0  0  0
   40.6730   21.0980   35.0540 H   0  0  0  0  0  0  0  0  0  0  0  0
  1  6  2  0  0  0  0
  1  2  1  0  0  0  0
  2  3  2  0  0  0  0
  3  4  1  0  0  0  0
  3  8  1  0  0  0  0
  4  9  1  0  0  0  0
  5 10  1  0  0  0  0
  5  4  2  0  0  0  0
  6  5  1  0  0  0  0
  7  2  1  0  0  0  0
 11 17  1  0  0  0  0
 11 12  1  0  0  0  0
 12  1  1  0  0  0  0
 13 18  1  0  0  0  0
 13 12  2  0  0  0  0
 14 13  1  0  0  0  0
 15 16  1  0  0  0  0
 15 14  2  0  0  0  0
 16 11  2  0  0  0  0
 19 15  1  0  0  0  0
 20 21  1  0  0  0  0
 21 22  2  0  0  0  0
 21 23  1  0  0  0  0
 23  6  1  0  0  0  0
 24 23  1  0  0  0  0
M  END
>  <minimizedAffinity>
-4.00399876

$$$$

 OpenBabel03272500543D

 24 25  0  0  0  0  0  0  0  0999 V2000
   38.8230   24.5360   35.9990 C   0  0  0  0  0  0  0  0  0  0  0  0
   38.1130   25.0570   37.0750 C   0  0  0  0  0  0  0  0  0  0  0  0
   38.0680   24.4690   38.3270 C   0  0  0  0  0  0  0  0  0  0  0  0
   38.7840   23.2700   38.5260 C   0  0  0  0  0  0  0  0  0  0  0  0
   39.4790   22.7710   37.4470 C   0  0  0  0  0  0  0  0  0  0  0  0
   39.5160   23.3630   36.2140 C   0  0  0  0  0  0  0  0  0  0  0  0
   37.5430   25.9750   36.9900 H   0  0  0  0  0  0  0  0  0  0  0  0
   37.5100   24.8910   39.1480 H   0  0  0  0  0  0  0  0  0  0  0  0
   38.8020   22.7510   39.4620 H   0  0  0  0  0  0  0  0  0  0  0  0
   40.0550   21.8540   37.5160 H   0  0  0  0  0  0  0  0  0  0  0  0
   39.6990   26.3650   34.6510 C   0  0  0  0  0  0  0  0  0  0  0  0
   38.7430   25.3050   34.7680 C   0  0  0  0  0  0  0  0  0  0  0  0
   37.8610   25.1310   33.7150 C   0  0  0  0  0  0  0  0  0  0  0  0
   37.9350   25.9440   32.6440 N   0  0  0  0  0  0  0  0  0  0  0  0
   38.8390   26.9400   32.5430 C   0  0  0  0  0  0  0  0  0  0  0  0
   39.7240   27.1470   33.5540 N   0  0  0  0  0  0  0  0  0  0  0  0
   40.4370   26.5990   35.4050 H   0  0  0  0  0  0  0  0  0  0  0  0
   37.1590   24.3200   33.8450 H   0  0  0  0  0  0  0  0  0  0  0  0
   38.8450   27.5620   31.6500 H   0  0  0  0  0  0  0  0  0  0  0  0
   42.4040   22.8500   34.5000 H   0  0  0  0  0  0  0  0  0  0  0  0
   41.6200   23.1260   35.2190 C   0  0  0  0  0  0  0  0  0  0  0  0
   42.0410   23.7370   36.2450 O   0  0  0  0  0  0  0  0  0  0  0  0
   40.2300   22.8600   35.0900 N   0  0  0  0  0  0  0  0  0  0  0  0
   39.9230   22.3530   34.2280 H   0  0  0  0  0  0  0  0  0  0  0  0
  1  6  2  0  0  0  0
  1  2  1  0  0  0  0
  2  3  2  0  0  0  0
  3  4  1  0  0  0  0
  3  8  1  0  0  0  0
  4  9  1  0  0  0  0
  5 10  1  0  0  0  0
  5  4  2  0  0  0  0
  6  5  1  0  0  0  0
  7  2  1  0  0  0  0
 11 12  1  0  0  0  0
 11 17  1  0  0  0  0
 12  1  1  0  0  0  0
 13 18  1  0  0  0  0
 13 12  2  0  0  0  0
 14 13  1  0  0  0  0
 15 14  2  0  0  0  0
 15 16  1  0  0  0  0
 16 11  2  0  0  0  0
 19 15  1  0  0  0  0
 20 21  1  0  0  0  0
 21 22  2  0  0  0  0
 23 21  1  0  0  0  0
 23  6  1  0  0  0  0
 24 23  1  0  0  0  0
M  END
>  <minimizedAffinity>
-3.95693636

$$$$

 OpenBabel03272500543D

 24 25  0  0  0  0  0  0  0  0999 V2000
   38.5880   24.4560   34.6680 C   0  0  0  0  0  0  0  0  0  0  0  0
   37.9950   23.5590   33.7880 C   0  0  0  0  0  0  0  0  0  0  0  0
   37.7360   23.8390   32.4570 C   0  0  0  0  0  0  0  0  0  0  0  0
   38.0970   25.1100   31.9620 C   0  0  0  0  0  0  0  0  0  0  0  0
   38.6820   25.9830   32.8510 C   0  0  0  0  0  0  0  0  0  0  0  0
   38.9320   25.6940   34.1650 C   0  0  0  0  0  0  0  0  0  0  0  0
   37.6940   22.5660   34.1030 H   0  0  0  0  0  0  0  0  0  0  0  0
   37.2750   23.1270   31.7920 H   0  0  0  0  0  0  0  0  0  0  0  0
   37.9320   25.4070   30.9470 H   0  0  0  0  0  0  0  0  0  0  0  0
   38.9890   26.9800   32.5510 H   0  0  0  0  0  0  0  0  0  0  0  0
   37.6980   24.2600   36.9260 C   0  0  0  0  0  0  0  0  0  0  0  0
   38.7730   23.9690   36.0250 C   0  0  0  0  0  0  0  0  0  0  0  0
   39.8530   23.2690   36.5350 C   0  0  0  0  0  0  0  0  0  0  0  0
   39.8520   22.8950   37.8290 N   0  0  0  0  0  0  0  0  0  0  0  0
   38.8350   23.1740   38.6700 C   0  0  0  0  0  0  0  0  0  0  0  0
   37.7540   23.8590   38.2110 N   0  0  0  0  0  0  0  0  0  0  0  0
   36.8040   24.7990   36.6470 H   0  0  0  0  0  0  0  0  0  0  0  0
   40.6390   23.0720   35.8210 H   0  0  0  0  0  0  0  0  0  0  0  0
   38.8970   22.8420   39.7050 H   0  0  0  0  0  0  0  0  0  0  0  0
   38.7680   28.2880   36.3530 H   0  0  0  0  0  0  0  0  0  0  0  0
   38.5770   27.4930   35.6180 C   0  0  0  0  0  0  0  0  0  0  0  0
   37.3750   27.4160   35.2280 O   0  0  0  0  0  0  0  0  0  0  0  0
   39.5370   26.5860   35.0950 N   0  0  0  0  0  0  0  0  0  0  0  0
   40.5190   26.6810   35.4420 H   0  0  0  0  0  0  0  0  0  0  0  0
  1 12  1  0  0  0  0
  2  7  1  0  0  0  0
  2  1  2  0  0  0  0
  3  2  1  0  0  0  0
  4  3  2  0  0  0  0
  4  5  1  0  0  0  0
  5  6  2  0  0  0  0
  6  1  1  0  0  0  0
  6 23  1  0  0  0  0
  8  3  1  0  0  0  0
  9  4  1  0  0  0  0
 10  5  1  0  0  0  0
 11 16  1  0  0  0  0
 12 13  1  0  0  0  0
 12 11  2  0  0  0  0
 13 14  2  0  0  0  0
 14 15  1  0  0  0  0
 15 19  1  0  0  0  0
 16 15  2  0  0  0  0
 17 11  1  0  0  0  0
 18 13  1  0  0  0  0
 21 20  1  0  0  0  0
 22 21  2  0  0  0  0
 23 24  1  0  0  0  0
 23 21  1  0  0  0  0
M  END
>  <minimizedAffinity>
-3.9548552

$$$$
