
 OpenBabel03272509103D

 24 25  0  0  0  0  0  0  0  0999 V2000
   36.3050   29.6500   49.1710 C   0  0  0  0  0  0  0  0  0  0  0  0
   37.4550   30.2330   48.5990 C   0  0  0  0  0  0  0  0  0  0  0  0
   37.4390   30.6760   47.2930 C   0  0  0  0  0  0  0  0  0  0  0  0
   36.2860   30.5360   46.5780 N   0  0  0  0  0  0  0  0  0  0  0  0
   35.1870   29.9640   47.1710 C   0  0  0  0  0  0  0  0  0  0  0  0
   35.1890   29.5310   48.4300 N   0  0  0  0  0  0  0  0  0  0  0  0
   36.2440   29.2870   50.1680 H   0  0  0  0  0  0  0  0  0  0  0  0
   34.3500   29.9160   46.4930 H   0  0  0  0  0  0  0  0  0  0  0  0
   38.5860   31.2730   46.6570 C   0  0  0  0  0  0  0  0  0  0  0  0
   38.8780   32.5780   46.9370 C   0  0  0  0  0  0  0  0  0  0  0  0
   39.9840   33.1960   46.3330 C   0  0  0  0  0  0  0  0  0  0  0  0
   40.7560   32.4410   45.4550 C   0  0  0  0  0  0  0  0  0  0  0  0
   40.5060   31.1300   45.1410 C   0  0  0  0  0  0  0  0  0  0  0  0
   39.4020   30.6000   45.7760 C   0  0  0  0  0  0  0  0  0  0  0  0
   38.3720   33.2660   47.5750 H   0  0  0  0  0  0  0  0  0  0  0  0
   40.2890   34.2040   46.4890 H   0  0  0  0  0  0  0  0  0  0  0  0
   41.6270   32.9120   44.9730 H   0  0  0  0  0  0  0  0  0  0  0  0
   41.1060   30.5500   44.4590 H   0  0  0  0  0  0  0  0  0  0  0  0
   39.1500   29.5490   45.5630 H   0  0  0  0  0  0  0  0  0  0  0  0
   38.6000   30.4830   51.7760 H   0  0  0  0  0  0  0  0  0  0  0  0
   38.0410   30.4180   50.8300 C   0  0  0  0  0  0  0  0  0  0  0  0
   36.9720   30.5230   51.5150 O   0  0  0  0  0  0  0  0  0  0  0  0
   38.5340   30.2720   49.4830 N   0  0  0  0  0  0  0  0  0  0  0  0
   39.5700   30.2480   49.5660 H   0  0  0  0  0  0  0  0  0  0  0  0
  1  7  1  0  0  0  0
  2  1  1  0  0  0  0
  2 23  1  0  0  0  0
  3  2  2  0  0  0  0
  4  5  2  0  0  0  0
  4  3  1  0  0  0  0
  5  6  1  0  0  0  0
  6  1  2  0  0  0  0
  8  5  1  0  0  0  0
  9 10  1  0  0  0  0
  9  3  1  0  0  0  0
 10 15  1  0  0  0  0
 11 16  1  0  0  0  0
 11 10  2  0  0  0  0
 12 11  1  0  0  0  0
 13 12  2  0  0  0  0
 13 14  1  0  0  0  0
 14  9  2  0  0  0  0
 17 12  1  0  0  0  0
 18 13  1  0  0  0  0
 19 14  1  0  0  0  0
 21 22  2  0  0  0  0
 21 20  1  0  0  0  0
 23 24  1  0  0  0  0
 23 21  1  0  0  0  0
M  END
>  <minimizedAffinity>
-5.34138107

>  <minimizedRMSD>
2.06952691

$$$$
