
 OpenBabel03272510153D

 24 25  0  0  0  0  0  0  0  0999 V2000
   37.2610   29.3620   51.0540 Br  0  0  0  0  0  0  0  0  0  0  0  0
   35.9090   29.3520   49.6910 C   0  0  0  0  0  0  0  0  0  0  0  0
   35.9490   30.2710   48.6620 C   0  0  0  0  0  0  0  0  0  0  0  0
   34.9420   30.2030   47.7160 C   0  0  0  0  0  0  0  0  0  0  0  0
   33.9240   29.2650   47.7720 C   0  0  0  0  0  0  0  0  0  0  0  0
   33.9290   28.3730   48.8140 C   0  0  0  0  0  0  0  0  0  0  0  0
   34.9210   28.4190   49.7700 C   0  0  0  0  0  0  0  0  0  0  0  0
   35.0230   30.9500   46.9280 H   0  0  0  0  0  0  0  0  0  0  0  0
   33.1180   27.6590   48.8190 H   0  0  0  0  0  0  0  0  0  0  0  0
   34.8250   27.6720   50.5420 H   0  0  0  0  0  0  0  0  0  0  0  0
   37.9980   33.1850   49.4650 C   0  0  0  0  0  0  0  0  0  0  0  0
   39.0150   33.1680   48.4590 C   0  0  0  0  0  0  0  0  0  0  0  0
   38.9600   32.1450   47.5290 C   0  0  0  0  0  0  0  0  0  0  0  0
   37.9580   31.2160   47.6140 N   0  0  0  0  0  0  0  0  0  0  0  0
   37.0140   31.2700   48.5840 C   0  0  0  0  0  0  0  0  0  0  0  0
   37.0350   32.2520   49.5060 N   0  0  0  0  0  0  0  0  0  0  0  0
   38.0370   33.9860   50.1940 H   0  0  0  0  0  0  0  0  0  0  0  0
   39.7880   33.9250   48.4330 H   0  0  0  0  0  0  0  0  0  0  0  0
   39.7050   32.0700   46.7340 H   0  0  0  0  0  0  0  0  0  0  0  0
   31.3270   27.9690   45.8420 H   0  0  0  0  0  0  0  0  0  0  0  0
   32.1200   28.2550   46.5030 C   0  0  0  0  0  0  0  0  0  0  0  0
   31.9930   27.1490   47.0900 O   0  0  0  0  0  0  0  0  0  0  0  0
   32.9930   29.3600   46.7150 N   0  0  0  0  0  0  0  0  0  0  0  0
   32.7530   30.0720   45.9910 H   0  0  0  0  0  0  0  0  0  0  0  0
  2  7  1  0  0  0  0
  2  1  1  0  0  0  0
  3  2  2  0  0  0  0
  4  5  2  0  0  0  0
  4  3  1  0  0  0  0
  5  6  1  0  0  0  0
  6  9  1  0  0  0  0
  6  7  2  0  0  0  0
  7 10  1  0  0  0  0
  8  4  1  0  0  0  0
 11 16  1  0  0  0  0
 11 17  1  0  0  0  0
 12 11  2  0  0  0  0
 13 14  2  0  0  0  0
 13 12  1  0  0  0  0
 14 15  1  0  0  0  0
 15  3  1  0  0  0  0
 15 16  2  0  0  0  0
 18 12  1  0  0  0  0
 19 13  1  0  0  0  0
 20 21  1  0  0  0  0
 21 23  1  0  0  0  0
 21 22  2  0  0  0  0
 23  5  1  0  0  0  0
 24 23  1  0  0  0  0
M  END
>  <minimizedAffinity>
-5.44926262

>  <minimizedRMSD>
0.112217642

$$$$
