
 OpenBabel03272501013D

 24 25  0  0  0  0  0  0  0  0999 V2000
   40.0700   23.1120   34.8380 F   0  0  0  0  0  0  0  0  0  0  0  0
   39.4050   23.5690   35.9360 C   0  0  0  0  0  0  0  0  0  0  0  0
   38.6520   24.7300   35.9340 C   0  0  0  0  0  0  0  0  0  0  0  0
   38.0130   25.1100   37.1040 C   0  0  0  0  0  0  0  0  0  0  0  0
   38.0960   24.3770   38.2700 C   0  0  0  0  0  0  0  0  0  0  0  0
   38.8660   23.2020   38.2450 C   0  0  0  0  0  0  0  0  0  0  0  0
   39.5190   22.8000   37.0780 C   0  0  0  0  0  0  0  0  0  0  0  0
   37.4300   26.0210   37.0820 H   0  0  0  0  0  0  0  0  0  0  0  0
   37.5800   24.7080   39.1680 H   0  0  0  0  0  0  0  0  0  0  0  0
   38.9330   22.6220   39.1650 H   0  0  0  0  0  0  0  0  0  0  0  0
   39.6290   27.0660   33.3070 C   0  0  0  0  0  0  0  0  0  0  0  0
   38.5260   27.0470   32.4130 C   0  0  0  0  0  0  0  0  0  0  0  0
   37.4420   26.2140   32.7360 C   0  0  0  0  0  0  0  0  0  0  0  0
   37.5080   25.4770   33.8750 N   0  0  0  0  0  0  0  0  0  0  0  0
   38.5610   25.5100   34.7080 C   0  0  0  0  0  0  0  0  0  0  0  0
   39.6190   26.3100   34.4140 N   0  0  0  0  0  0  0  0  0  0  0  0
   40.4550   27.7200   33.0350 H   0  0  0  0  0  0  0  0  0  0  0  0
   38.4670   27.6310   31.5040 H   0  0  0  0  0  0  0  0  0  0  0  0
   36.5520   26.1240   32.1230 H   0  0  0  0  0  0  0  0  0  0  0  0
   42.1370   20.6600   37.0550 H   0  0  0  0  0  0  0  0  0  0  0  0
   41.7190   21.6450   37.0490 C   0  0  0  0  0  0  0  0  0  0  0  0
   42.3500   22.7390   37.0190 O   0  0  0  0  0  0  0  0  0  0  0  0
   40.2920   21.6070   37.0800 N   0  0  0  0  0  0  0  0  0  0  0  0
   39.6850   20.7700   37.1060 H   0  0  0  0  0  0  0  0  0  0  0  0
  1  2  1  0  0  0  0
  2  7  1  0  0  0  0
  3  2  2  0  0  0  0
  3  4  1  0  0  0  0
  4  5  2  0  0  0  0
  5  9  1  0  0  0  0
  6  5  1  0  0  0  0
  6 10  1  0  0  0  0
  7 23  1  0  0  0  0
  7  6  2  0  0  0  0
  8  4  1  0  0  0  0
 11 16  1  0  0  0  0
 12 13  1  0  0  0  0
 12 11  2  0  0  0  0
 13 14  2  0  0  0  0
 14 15  1  0  0  0  0
 15  3  1  0  0  0  0
 16 15  2  0  0  0  0
 17 11  1  0  0  0  0
 18 12  1  0  0  0  0
 19 13  1  0  0  0  0
 21 20  1  0  0  0  0
 21 23  1  0  0  0  0
 22 21  2  0  0  0  0
 23 24  1  0  0  0  0
M  END
>  <minimizedAffinity>
-4.64462233

$$$$

 OpenBabel03272501013D

 24 25  0  0  0  0  0  0  0  0999 V2000
   38.4590   23.5060   33.4410 F   0  0  0  0  0  0  0  0  0  0  0  0
   37.5240   22.5320   33.6190 C   0  0  0  0  0  0  0  0  0  0  0  0
   37.2870   21.9280   34.8400 C   0  0  0  0  0  0  0  0  0  0  0  0
   36.3110   20.9450   34.9180 C   0  0  0  0  0  0  0  0  0  0  0  0
   35.5680   20.5470   33.8270 C   0  0  0  0  0  0  0  0  0  0  0  0
   35.8280   21.1760   32.5990 C   0  0  0  0  0  0  0  0  0  0  0  0
   36.8050   22.1680   32.4970 C   0  0  0  0  0  0  0  0  0  0  0  0
   36.1420   20.4840   35.8820 H   0  0  0  0  0  0  0  0  0  0  0  0
   34.8110   19.7720   33.9280 H   0  0  0  0  0  0  0  0  0  0  0  0
   35.2410   20.8630   31.7350 H   0  0  0  0  0  0  0  0  0  0  0  0
   38.0400   23.4450   38.0720 C   0  0  0  0  0  0  0  0  0  0  0  0
   39.4260   23.1870   38.2490 C   0  0  0  0  0  0  0  0  0  0  0  0
   40.0910   22.4830   37.2330 C   0  0  0  0  0  0  0  0  0  0  0  0
   39.3800   22.0880   36.1450 N   0  0  0  0  0  0  0  0  0  0  0  0
   38.0690   22.3410   35.9970 C   0  0  0  0  0  0  0  0  0  0  0  0
   37.4070   23.0220   36.9690 N   0  0  0  0  0  0  0  0  0  0  0  0
   37.5490   23.9930   38.8730 H   0  0  0  0  0  0  0  0  0  0  0  0
   39.9990   23.4990   39.1120 H   0  0  0  0  0  0  0  0  0  0  0  0
   41.1470   22.2340   37.2670 H   0  0  0  0  0  0  0  0  0  0  0  0
   36.7080   24.3390   29.9060 H   0  0  0  0  0  0  0  0  0  0  0  0
   36.4110   24.0150   30.8820 C   0  0  0  0  0  0  0  0  0  0  0  0
   35.6080   24.5960   31.6650 O   0  0  0  0  0  0  0  0  0  0  0  0
   37.0480   22.7890   31.2420 N   0  0  0  0  0  0  0  0  0  0  0  0
   37.7170   22.2380   30.6770 H   0  0  0  0  0  0  0  0  0  0  0  0
  1  2  1  0  0  0  0
  2  3  1  0  0  0  0
  3  4  2  0  0  0  0
  3 15  1  0  0  0  0
  4  8  1  0  0  0  0
  5  9  1  0  0  0  0
  5  4  1  0  0  0  0
  6  5  2  0  0  0  0
  7  6  1  0  0  0  0
  7  2  2  0  0  0  0
 10  6  1  0  0  0  0
 11 12  1  0  0  0  0
 11 17  1  0  0  0  0
 12 18  1  0  0  0  0
 13 19  1  0  0  0  0
 13 12  2  0  0  0  0
 14 13  1  0  0  0  0
 15 14  2  0  0  0  0
 15 16  1  0  0  0  0
 16 11  2  0  0  0  0
 20 21  1  0  0  0  0
 21 23  1  0  0  0  0
 21 22  2  0  0  0  0
 23  7  1  0  0  0  0
 24 23  1  0  0  0  0
M  END
>  <minimizedAffinity>
-4.61448908

$$$$

 OpenBabel03272501013D

 24 25  0  0  0  0  0  0  0  0999 V2000
   37.1040   22.1010   36.4410 F   0  0  0  0  0  0  0  0  0  0  0  0
   38.3090   22.4180   35.8910 C   0  0  0  0  0  0  0  0  0  0  0  0
   38.5240   22.4810   34.5260 C   0  0  0  0  0  0  0  0  0  0  0  0
   39.7890   22.8140   34.0650 C   0  0  0  0  0  0  0  0  0  0  0  0
   40.8410   23.0860   34.9140 C   0  0  0  0  0  0  0  0  0  0  0  0
   40.5980   23.0160   36.2950 C   0  0  0  0  0  0  0  0  0  0  0  0
   39.3320   22.6830   36.7810 C   0  0  0  0  0  0  0  0  0  0  0  0
   39.9360   22.8560   32.9940 H   0  0  0  0  0  0  0  0  0  0  0  0
   41.8200   23.3430   34.5140 H   0  0  0  0  0  0  0  0  0  0  0  0
   41.4280   23.2310   36.9670 H   0  0  0  0  0  0  0  0  0  0  0  0
   36.1780   22.9290   31.7680 C   0  0  0  0  0  0  0  0  0  0  0  0
   35.3510   21.7770   31.8390 C   0  0  0  0  0  0  0  0  0  0  0  0
   35.6200   20.8460   32.8550 C   0  0  0  0  0  0  0  0  0  0  0  0
   36.6470   21.0960   33.7080 N   0  0  0  0  0  0  0  0  0  0  0  0
   37.4180   22.1930   33.6240 C   0  0  0  0  0  0  0  0  0  0  0  0
   37.1740   23.1050   32.6470 N   0  0  0  0  0  0  0  0  0  0  0  0
   35.9480   23.6350   30.9720 H   0  0  0  0  0  0  0  0  0  0  0  0
   34.5310   21.5710   31.1640 H   0  0  0  0  0  0  0  0  0  0  0  0
   35.0510   19.9330   32.9990 H   0  0  0  0  0  0  0  0  0  0  0  0
   38.3910   23.4730   39.9320 H   0  0  0  0  0  0  0  0  0  0  0  0
   38.4750   23.6870   38.8870 C   0  0  0  0  0  0  0  0  0  0  0  0
   38.0810   24.7280   38.2900 O   0  0  0  0  0  0  0  0  0  0  0  0
   39.1120   22.6200   38.1840 N   0  0  0  0  0  0  0  0  0  0  0  0
   39.4680   21.7310   38.5770 H   0  0  0  0  0  0  0  0  0  0  0  0
  2  1  1  0  0  0  0
  2  7  1  0  0  0  0
  3  2  2  0  0  0  0
  4  3  1  0  0  0  0
  4  5  2  0  0  0  0
  5  6  1  0  0  0  0
  6  7  2  0  0  0  0
  6 10  1  0  0  0  0
  7 23  1  0  0  0  0
  8  4  1  0  0  0  0
  9  5  1  0  0  0  0
 11 12  2  0  0  0  0
 11 16  1  0  0  0  0
 12 13  1  0  0  0  0
 13 19  1  0  0  0  0
 13 14  2  0  0  0  0
 15 14  1  0  0  0  0
 15  3  1  0  0  0  0
 16 15  2  0  0  0  0
 17 11  1  0  0  0  0
 18 12  1  0  0  0  0
 21 20  1  0  0  0  0
 22 21  2  0  0  0  0
 23 24  1  0  0  0  0
 23 21  1  0  0  0  0
M  END
>  <minimizedAffinity>
-4.6137414

$$$$

 OpenBabel03272501013D

 24 25  0  0  0  0  0  0  0  0999 V2000
   38.4110   23.5750   33.4280 F   0  0  0  0  0  0  0  0  0  0  0  0
   37.4960   22.5790   33.5910 C   0  0  0  0  0  0  0  0  0  0  0  0
   37.2710   21.9510   34.8030 C   0  0  0  0  0  0  0  0  0  0  0  0
   36.3150   20.9480   34.8650 C   0  0  0  0  0  0  0  0  0  0  0  0
   35.5790   20.5530   33.7670 C   0  0  0  0  0  0  0  0  0  0  0  0
   35.8260   21.2070   32.5490 C   0  0  0  0  0  0  0  0  0  0  0  0
   36.7830   22.2190   32.4640 C   0  0  0  0  0  0  0  0  0  0  0  0
   36.1550   20.4680   35.8210 H   0  0  0  0  0  0  0  0  0  0  0  0
   34.8380   19.7620   33.8560 H   0  0  0  0  0  0  0  0  0  0  0  0
   35.2460   20.8960   31.6810 H   0  0  0  0  0  0  0  0  0  0  0  0
   40.1510   22.3370   37.0090 C   0  0  0  0  0  0  0  0  0  0  0  0
   39.6350   23.0730   38.1090 C   0  0  0  0  0  0  0  0  0  0  0  0
   38.2780   23.4310   38.0730 C   0  0  0  0  0  0  0  0  0  0  0  0
   37.5380   23.0580   36.9960 N   0  0  0  0  0  0  0  0  0  0  0  0
   38.0450   22.3610   35.9660 C   0  0  0  0  0  0  0  0  0  0  0  0
   39.3560   22.0050   35.9820 N   0  0  0  0  0  0  0  0  0  0  0  0
   41.2050   22.0720   37.0620 H   0  0  0  0  0  0  0  0  0  0  0  0
   40.2190   23.3740   38.9690 H   0  0  0  0  0  0  0  0  0  0  0  0
   37.7840   23.9920   38.8590 H   0  0  0  0  0  0  0  0  0  0  0  0
   36.6220   24.4140   29.8950 H   0  0  0  0  0  0  0  0  0  0  0  0
   36.3280   24.0650   30.8640 C   0  0  0  0  0  0  0  0  0  0  0  0
   35.4900   24.6010   31.6420 O   0  0  0  0  0  0  0  0  0  0  0  0
   37.0150   22.8650   31.2180 N   0  0  0  0  0  0  0  0  0  0  0  0
   37.7140   22.3510   30.6560 H   0  0  0  0  0  0  0  0  0  0  0  0
  1  2  1  0  0  0  0
  2  3  1  0  0  0  0
  3  4  2  0  0  0  0
  3 15  1  0  0  0  0
  4  8  1  0  0  0  0
  5  9  1  0  0  0  0
  5  4  1  0  0  0  0
  6  5  2  0  0  0  0
  7  6  1  0  0  0  0
  7  2  2  0  0  0  0
 10  6  1  0  0  0  0
 11 17  1  0  0  0  0
 11 12  1  0  0  0  0
 12 18  1  0  0  0  0
 13 12  2  0  0  0  0
 13 19  1  0  0  0  0
 14 13  1  0  0  0  0
 15 16  1  0  0  0  0
 15 14  2  0  0  0  0
 16 11  2  0  0  0  0
 20 21  1  0  0  0  0
 21 23  1  0  0  0  0
 21 22  2  0  0  0  0
 23  7  1  0  0  0  0
 24 23  1  0  0  0  0
M  END
>  <minimizedAffinity>
-4.54699039

$$$$

 OpenBabel03272501013D

 24 25  0  0  0  0  0  0  0  0999 V2000
   38.2470   23.8260   33.2560 F   0  0  0  0  0  0  0  0  0  0  0  0
   37.8480   25.0610   33.6670 C   0  0  0  0  0  0  0  0  0  0  0  0
   37.9370   25.4860   34.9800 C   0  0  0  0  0  0  0  0  0  0  0  0
   37.5040   26.7650   35.2970 C   0  0  0  0  0  0  0  0  0  0  0  0
   36.9880   27.6310   34.3550 C   0  0  0  0  0  0  0  0  0  0  0  0
   36.9090   27.1760   33.0290 C   0  0  0  0  0  0  0  0  0  0  0  0
   37.3390   25.8930   32.6870 C   0  0  0  0  0  0  0  0  0  0  0  0
   37.5800   27.0770   36.3300 H   0  0  0  0  0  0  0  0  0  0  0  0
   36.6590   28.6270   34.6430 H   0  0  0  0  0  0  0  0  0  0  0  0
   36.5020   27.8580   32.2830 H   0  0  0  0  0  0  0  0  0  0  0  0
   40.2820   23.1960   36.5830 C   0  0  0  0  0  0  0  0  0  0  0  0
   39.6280   22.8370   37.7920 C   0  0  0  0  0  0  0  0  0  0  0  0
   38.3650   23.4000   38.0400 C   0  0  0  0  0  0  0  0  0  0  0  0
   37.8430   24.2510   37.1190 N   0  0  0  0  0  0  0  0  0  0  0  0
   38.4780   24.5770   35.9810 C   0  0  0  0  0  0  0  0  0  0  0  0
   39.7000   24.0430   35.7230 N   0  0  0  0  0  0  0  0  0  0  0  0
   41.2580   22.7460   36.4150 H   0  0  0  0  0  0  0  0  0  0  0  0
   40.0380   22.1610   38.5300 H   0  0  0  0  0  0  0  0  0  0  0  0
   37.7810   23.1930   38.9300 H   0  0  0  0  0  0  0  0  0  0  0  0
   36.2400   24.4300   29.8420 H   0  0  0  0  0  0  0  0  0  0  0  0
   36.1480   24.6690   30.8820 C   0  0  0  0  0  0  0  0  0  0  0  0
   35.2120   24.3300   31.6600 O   0  0  0  0  0  0  0  0  0  0  0  0
   37.2480   25.4570   31.3370 N   0  0  0  0  0  0  0  0  0  0  0  0
   38.0580   25.7850   30.7840 H   0  0  0  0  0  0  0  0  0  0  0  0
  1  2  1  0  0  0  0
  2  3  1  0  0  0  0
  3  4  2  0  0  0  0
  3 15  1  0  0  0  0
  4  8  1  0  0  0  0
  5  9  1  0  0  0  0
  5  4  1  0  0  0  0
  6  5  2  0  0  0  0
  7  6  1  0  0  0  0
  7  2  2  0  0  0  0
 10  6  1  0  0  0  0
 11 12  1  0  0  0  0
 12 13  2  0  0  0  0
 12 18  1  0  0  0  0
 13 19  1  0  0  0  0
 14 13  1  0  0  0  0
 15 14  2  0  0  0  0
 16 15  1  0  0  0  0
 16 11  2  0  0  0  0
 17 11  1  0  0  0  0
 20 21  1  0  0  0  0
 21 23  1  0  0  0  0
 21 22  2  0  0  0  0
 23  7  1  0  0  0  0
 24 23  1  0  0  0  0
M  END
>  <minimizedAffinity>
-4.53830004

$$$$

 OpenBabel03272501013D

 24 25  0  0  0  0  0  0  0  0999 V2000
   37.9050   24.0350   33.6460 F   0  0  0  0  0  0  0  0  0  0  0  0
   37.8690   25.2550   34.2500 C   0  0  0  0  0  0  0  0  0  0  0  0
   38.4820   25.5160   35.4630 C   0  0  0  0  0  0  0  0  0  0  0  0
   38.3890   26.7930   35.9950 C   0  0  0  0  0  0  0  0  0  0  0  0
   37.7100   27.8140   35.3630 C   0  0  0  0  0  0  0  0  0  0  0  0
   37.0970   27.5240   34.1340 C   0  0  0  0  0  0  0  0  0  0  0  0
   37.1780   26.2460   33.5790 C   0  0  0  0  0  0  0  0  0  0  0  0
   38.8740   26.9760   36.9440 H   0  0  0  0  0  0  0  0  0  0  0  0
   37.6590   28.8040   35.8130 H   0  0  0  0  0  0  0  0  0  0  0  0
   36.5600   28.3300   33.6330 H   0  0  0  0  0  0  0  0  0  0  0  0
   39.2330   22.9800   37.9760 C   0  0  0  0  0  0  0  0  0  0  0  0
   40.4500   22.4060   37.5210 C   0  0  0  0  0  0  0  0  0  0  0  0
   41.0030   22.9110   36.3330 C   0  0  0  0  0  0  0  0  0  0  0  0
   40.3500   23.9130   35.6890 N   0  0  0  0  0  0  0  0  0  0  0  0
   39.1990   24.4430   36.1370 C   0  0  0  0  0  0  0  0  0  0  0  0
   38.6480   23.9680   37.2840 N   0  0  0  0  0  0  0  0  0  0  0  0
   38.8270   22.5710   38.8990 H   0  0  0  0  0  0  0  0  0  0  0  0
   40.9760   21.6080   38.0290 H   0  0  0  0  0  0  0  0  0  0  0  0
   41.9270   22.5450   35.8980 H   0  0  0  0  0  0  0  0  0  0  0  0
   36.6230   25.8920   30.2620 H   0  0  0  0  0  0  0  0  0  0  0  0
   37.2460   26.1350   31.0980 C   0  0  0  0  0  0  0  0  0  0  0  0
   38.4500   26.5160   31.0630 O   0  0  0  0  0  0  0  0  0  0  0  0
   36.5480   25.9780   32.3330 N   0  0  0  0  0  0  0  0  0  0  0  0
   35.5690   25.6730   32.4680 H   0  0  0  0  0  0  0  0  0  0  0  0
  1  2  1  0  0  0  0
  2  3  1  0  0  0  0
  3  4  2  0  0  0  0
  3 15  1  0  0  0  0
  4  8  1  0  0  0  0
  5  9  1  0  0  0  0
  5  4  1  0  0  0  0
  6  5  2  0  0  0  0
  7  6  1  0  0  0  0
  7  2  2  0  0  0  0
 10  6  1  0  0  0  0
 11 17  1  0  0  0  0
 12 11  1  0  0  0  0
 12 18  1  0  0  0  0
 13 12  2  0  0  0  0
 14 15  2  0  0  0  0
 14 13  1  0  0  0  0
 15 16  1  0  0  0  0
 16 11  2  0  0  0  0
 19 13  1  0  0  0  0
 20 21  1  0  0  0  0
 21 23  1  0  0  0  0
 22 21  2  0  0  0  0
 23 24  1  0  0  0  0
 23  7  1  0  0  0  0
M  END
>  <minimizedAffinity>
-4.50877428

$$$$

 OpenBabel03272501013D

 24 25  0  0  0  0  0  0  0  0999 V2000
   35.0620   29.6250   31.6260 F   0  0  0  0  0  0  0  0  0  0  0  0
   35.8710   28.7330   32.2630 C   0  0  0  0  0  0  0  0  0  0  0  0
   35.9920   28.6720   33.6390 C   0  0  0  0  0  0  0  0  0  0  0  0
   36.8430   27.7250   34.1910 C   0  0  0  0  0  0  0  0  0  0  0  0
   37.5710   26.8420   33.4220 C   0  0  0  0  0  0  0  0  0  0  0  0
   37.4290   26.9240   32.0270 C   0  0  0  0  0  0  0  0  0  0  0  0
   36.5790   27.8690   31.4500 C   0  0  0  0  0  0  0  0  0  0  0  0
   36.9250   27.6950   35.2690 H   0  0  0  0  0  0  0  0  0  0  0  0
   38.2280   26.1130   33.8920 H   0  0  0  0  0  0  0  0  0  0  0  0
   38.0040   26.2270   31.4180 H   0  0  0  0  0  0  0  0  0  0  0  0
   35.3210   31.4610   35.8930 C   0  0  0  0  0  0  0  0  0  0  0  0
   33.9090   31.4370   36.0460 C   0  0  0  0  0  0  0  0  0  0  0  0
   33.1980   30.4410   35.3580 C   0  0  0  0  0  0  0  0  0  0  0  0
   33.8920   29.5630   34.5890 N   0  0  0  0  0  0  0  0  0  0  0  0
   35.2280   29.6030   34.4570 C   0  0  0  0  0  0  0  0  0  0  0  0
   35.9350   30.5590   35.1160 N   0  0  0  0  0  0  0  0  0  0  0  0
   35.8480   32.2420   36.4370 H   0  0  0  0  0  0  0  0  0  0  0  0
   33.3500   32.1330   36.6570 H   0  0  0  0  0  0  0  0  0  0  0  0
   32.1190   30.3330   35.4050 H   0  0  0  0  0  0  0  0  0  0  0  0
   37.0750   28.6880   28.2060 H   0  0  0  0  0  0  0  0  0  0  0  0
   37.3070   28.7630   29.2490 C   0  0  0  0  0  0  0  0  0  0  0  0
   38.2060   29.4750   29.7780 O   0  0  0  0  0  0  0  0  0  0  0  0
   36.4540   27.9310   30.0350 N   0  0  0  0  0  0  0  0  0  0  0  0
   35.6940   27.3150   29.7010 H   0  0  0  0  0  0  0  0  0  0  0  0
  1  2  1  0  0  0  0
  2  3  1  0  0  0  0
  3  4  2  0  0  0  0
  3 15  1  0  0  0  0
  4  8  1  0  0  0  0
  5  9  1  0  0  0  0
  5  4  1  0  0  0  0
  6  5  2  0  0  0  0
  7  6  1  0  0  0  0
  7  2  2  0  0  0  0
 10  6  1  0  0  0  0
 11 12  1  0  0  0  0
 11 17  1  0  0  0  0
 12 18  1  0  0  0  0
 13 19  1  0  0  0  0
 13 12  2  0  0  0  0
 14 13  1  0  0  0  0
 15 14  2  0  0  0  0
 15 16  1  0  0  0  0
 16 11  2  0  0  0  0
 20 21  1  0  0  0  0
 21 22  2  0  0  0  0
 21 23  1  0  0  0  0
 23  7  1  0  0  0  0
 24 23  1  0  0  0  0
M  END
>  <minimizedAffinity>
-4.36651134

$$$$

 OpenBabel03272501013D

 24 25  0  0  0  0  0  0  0  0999 V2000
   40.2090   24.2560   34.7530 F   0  0  0  0  0  0  0  0  0  0  0  0
   39.6410   23.9740   35.9590 C   0  0  0  0  0  0  0  0  0  0  0  0
   40.2460   23.1720   36.9090 C   0  0  0  0  0  0  0  0  0  0  0  0
   39.5850   22.9460   38.1080 C   0  0  0  0  0  0  0  0  0  0  0  0
   38.3500   23.4910   38.3900 C   0  0  0  0  0  0  0  0  0  0  0  0
   37.7580   24.3030   37.4090 C   0  0  0  0  0  0  0  0  0  0  0  0
   38.4040   24.5430   36.1960 C   0  0  0  0  0  0  0  0  0  0  0  0
   40.0740   22.3150   38.8370 H   0  0  0  0  0  0  0  0  0  0  0  0
   37.8630   23.2910   39.3420 H   0  0  0  0  0  0  0  0  0  0  0  0
   36.7820   24.7340   37.6300 H   0  0  0  0  0  0  0  0  0  0  0  0
   42.7670   20.6080   36.2920 C   0  0  0  0  0  0  0  0  0  0  0  0
   43.9560   21.3530   36.0730 C   0  0  0  0  0  0  0  0  0  0  0  0
   43.8700   22.7520   36.1430 C   0  0  0  0  0  0  0  0  0  0  0  0
   42.6630   23.3140   36.4130 N   0  0  0  0  0  0  0  0  0  0  0  0
   41.5490   22.5910   36.6180 C   0  0  0  0  0  0  0  0  0  0  0  0
   41.6120   21.2360   36.5550 N   0  0  0  0  0  0  0  0  0  0  0  0
   42.8620   19.5260   36.2330 H   0  0  0  0  0  0  0  0  0  0  0  0
   44.9210   20.9120   35.8570 H   0  0  0  0  0  0  0  0  0  0  0  0
   44.7150   23.4140   35.9910 H   0  0  0  0  0  0  0  0  0  0  0  0
   37.4760   27.2390   34.3760 H   0  0  0  0  0  0  0  0  0  0  0  0
   38.0230   26.7750   35.1710 C   0  0  0  0  0  0  0  0  0  0  0  0
   38.7970   27.3410   35.9930 O   0  0  0  0  0  0  0  0  0  0  0  0
   37.7830   25.3680   35.2190 N   0  0  0  0  0  0  0  0  0  0  0  0
   37.1720   24.8130   34.5960 H   0  0  0  0  0  0  0  0  0  0  0  0
  1  2  1  0  0  0  0
  2  7  2  0  0  0  0
  2  3  1  0  0  0  0
  3  4  2  0  0  0  0
  4  5  1  0  0  0  0
  4  8  1  0  0  0  0
  5  9  1  0  0  0  0
  6 10  1  0  0  0  0
  6  5  2  0  0  0  0
  7  6  1  0  0  0  0
 11 16  1  0  0  0  0
 12 13  1  0  0  0  0
 12 11  2  0  0  0  0
 13 14  2  0  0  0  0
 14 15  1  0  0  0  0
 15  3  1  0  0  0  0
 16 15  2  0  0  0  0
 17 11  1  0  0  0  0
 18 12  1  0  0  0  0
 19 13  1  0  0  0  0
 20 21  1  0  0  0  0
 21 23  1  0  0  0  0
 21 22  2  0  0  0  0
 23  7  1  0  0  0  0
 24 23  1  0  0  0  0
M  END
>  <minimizedAffinity>
-4.36543322

$$$$

 OpenBabel03272501013D

 24 25  0  0  0  0  0  0  0  0999 V2000
   36.1210   20.8110   35.3160 F   0  0  0  0  0  0  0  0  0  0  0  0
   36.7110   21.4160   34.2480 C   0  0  0  0  0  0  0  0  0  0  0  0
   37.7780   22.2880   34.3690 C   0  0  0  0  0  0  0  0  0  0  0  0
   38.3100   22.8530   33.2190 C   0  0  0  0  0  0  0  0  0  0  0  0
   37.8180   22.5790   31.9600 C   0  0  0  0  0  0  0  0  0  0  0  0
   36.7350   21.6900   31.8650 C   0  0  0  0  0  0  0  0  0  0  0  0
   36.1840   21.1100   33.0080 C   0  0  0  0  0  0  0  0  0  0  0  0
   39.1430   23.5330   33.3350 H   0  0  0  0  0  0  0  0  0  0  0  0
   38.2620   23.0420   31.0820 H   0  0  0  0  0  0  0  0  0  0  0  0
   36.3450   21.4730   30.8700 H   0  0  0  0  0  0  0  0  0  0  0  0
   40.1480   22.4150   37.1410 C   0  0  0  0  0  0  0  0  0  0  0  0
   39.4270   23.0790   38.1680 C   0  0  0  0  0  0  0  0  0  0  0  0
   38.1120   23.4800   37.8850 C   0  0  0  0  0  0  0  0  0  0  0  0
   37.6040   23.2140   36.6540 N   0  0  0  0  0  0  0  0  0  0  0  0
   38.3020   22.5840   35.6950 C   0  0  0  0  0  0  0  0  0  0  0  0
   39.5770   22.1870   35.9500 N   0  0  0  0  0  0  0  0  0  0  0  0
   41.1640   22.1140   37.3860 H   0  0  0  0  0  0  0  0  0  0  0  0
   39.8250   23.2950   39.1510 H   0  0  0  0  0  0  0  0  0  0  0  0
   37.4750   23.9940   38.5970 H   0  0  0  0  0  0  0  0  0  0  0  0
   34.3550   18.3080   32.5140 H   0  0  0  0  0  0  0  0  0  0  0  0
   35.2850   18.8360   32.5680 C   0  0  0  0  0  0  0  0  0  0  0  0
   36.4410   18.3580   32.3870 O   0  0  0  0  0  0  0  0  0  0  0  0
   35.0880   20.2140   32.8840 N   0  0  0  0  0  0  0  0  0  0  0  0
   34.1890   20.6990   33.0500 H   0  0  0  0  0  0  0  0  0  0  0  0
  2  3  1  0  0  0  0
  2  1  1  0  0  0  0
  3 15  1  0  0  0  0
  4  8  1  0  0  0  0
  4  3  2  0  0  0  0
  5  4  1  0  0  0  0
  6  5  2  0  0  0  0
  6  7  1  0  0  0  0
  7  2  2  0  0  0  0
  9  5  1  0  0  0  0
 10  6  1  0  0  0  0
 11 17  1  0  0  0  0
 11 12  1  0  0  0  0
 12 18  1  0  0  0  0
 13 12  2  0  0  0  0
 13 19  1  0  0  0  0
 14 13  1  0  0  0  0
 15 16  1  0  0  0  0
 15 14  2  0  0  0  0
 16 11  2  0  0  0  0
 20 21  1  0  0  0  0
 21 23  1  0  0  0  0
 22 21  2  0  0  0  0
 23  7  1  0  0  0  0
 23 24  1  0  0  0  0
M  END
>  <minimizedAffinity>
-4.34571362

$$$$
