REMARK  Name = 
REMARK  3 active torsions:
REMARK  status: ('A' for Active; 'I' for Inactive)
REMARK    1  A    between atoms: C_3  and  C_12
REMARK    2  A    between atoms: C_17  and  O_18
REMARK    3  A    between atoms: O_18  and  C_30
REMARK                            x       y       z     vdW  Elec       q    Type
REMARK                         _______ _______ _______ _____ _____    ______ ____
ROOT
ATOM      1 CL   UNL     1      38.433  33.295  49.704  0.00  0.00    +0.000 Cl
ATOM      2  C   UNL     1      38.686  32.423  48.221  0.00  0.00    +0.000 A 
ATOM      3  C   UNL     1      38.147  31.165  48.064  0.00  0.00    +0.000 A 
ATOM      4  C   UNL     1      38.383  30.524  46.855  0.00  0.00    +0.000 A 
ATOM      5  C   UNL     1      39.117  31.103  45.848  0.00  0.00    +0.000 A 
ATOM      6  C   UNL     1      39.639  32.364  46.046  0.00  0.00    +0.000 A 
ATOM      7 CL   UNL     1      40.554  33.027  44.719  0.00  0.00    +0.000 Cl
ATOM      8  C   UNL     1      39.428  33.035  47.233  0.00  0.00    +0.000 A 
ATOM      9  H   UNL     1      37.935  29.524  46.774  0.00  0.00    +0.000 HD
ATOM     10  H   UNL     1      39.258  30.548  44.940  0.00  0.00    +0.000 HD
ENDROOT
BRANCH   3  13
ATOM     11  C   UNL     1      37.265  29.669  51.414  0.00  0.00    +0.000 A 
ATOM     12  C   UNL     1      38.005  30.206  50.358  0.00  0.00    +0.000 A 
ATOM     13  C   UNL     1      37.382  30.607  49.161  0.00  0.00    +0.000 A 
ATOM     14  N   UNL     1      36.046  30.439  49.110  0.00  0.00    +0.000 NA
ATOM     15  C   UNL     1      35.352  29.918  50.141  0.00  0.00    +0.000 A 
ATOM     16  N   UNL     1      35.943  29.546  51.255  0.00  0.00    +0.000 NA
ATOM     17  C   UNL     1      33.649  28.597  49.199  0.00  0.00    +0.000 C 
ATOM     18  O   UNL     1      34.412  27.623  48.932  0.00  0.00    +0.000 OA
ATOM     19  N   UNL     1      33.954  29.852  49.816  0.00  0.00    +0.000 N 
ATOM     20  H   UNL     1      37.735  29.360  52.330  0.00  0.00    +0.000 HD
ATOM     21  H   UNL     1      39.077  30.309  50.476  0.00  0.00    +0.000 HD
ATOM     22  H   UNL     1      32.669  28.288  48.855  0.00  0.00    +0.000 HD
ATOM     23  H   UNL     1      33.193  30.512  49.946  0.00  0.00    +0.000 HD
ENDBRANCH   3  13
BRANCH   8  24
ATOM     24  O   UNL     1      39.975  34.319  47.404  0.00  0.00    +0.000 OA
BRANCH  24  30
ATOM     25  H   UNL     1      42.681  33.654  46.597  0.00  0.00    +0.000 HD
ATOM     26  N   UNL     1      42.275  34.559  46.921  0.00  0.00    +0.000 NA
ATOM     27  C   UNL     1      43.306  35.395  47.551  0.00  0.00    +0.000 C 
ATOM     28  C   UNL     1      42.421  36.414  48.239  0.00  0.00    +0.000 C 
ATOM     29  C   UNL     1      41.471  35.457  48.965  0.00  0.00    +0.000 C 
ATOM     30  C   UNL     1      41.279  34.370  47.959  0.00  0.00    +0.000 C 
ENDBRANCH  24  30
ENDBRANCH   8  24
TORSDOF 3
