
 OpenBabel03272509293D

 35 37  0  0  1  0  0  0  0  0999 V2000
   36.2330   30.6510   48.9220 C   0  0  2  0  0  0  0  0  0  0  0  0
   37.0950   31.4050   49.8830 C   0  0  0  0  0  0  0  0  0  0  0  0
   37.7830   30.5100   50.8920 C   0  0  0  0  0  0  0  0  0  0  0  0
   36.7670   29.6680   51.6550 C   0  0  0  0  0  0  0  0  0  0  0  0
   35.5910   29.2220   50.8240 C   0  0  0  0  0  0  0  0  0  0  0  0
   36.0250   29.2330   49.3460 C   0  0  1  0  0  0  0  0  0  0  0  0
   35.1960   31.0980   48.7980 H   0  0  0  0  0  0  0  0  0  0  0  0
   36.3580   32.0060   50.5170 H   0  0  0  0  0  0  0  0  0  0  0  0
   37.7630   32.1400   49.4760 H   0  0  0  0  0  0  0  0  0  0  0  0
   38.2730   31.1700   51.6290 H   0  0  0  0  0  0  0  0  0  0  0  0
   38.5120   29.8260   50.4550 H   0  0  0  0  0  0  0  0  0  0  0  0
   36.4200   30.2030   52.5720 H   0  0  0  0  0  0  0  0  0  0  0  0
   37.2630   28.7420   52.0120 H   0  0  0  0  0  0  0  0  0  0  0  0
   35.3120   28.1630   51.0390 H   0  0  0  0  0  0  0  0  0  0  0  0
   34.6870   29.8260   50.9750 H   0  0  0  0  0  0  0  0  0  0  0  0
   36.9470   28.7100   49.4130 H   0  0  0  0  0  0  0  0  0  0  0  0
   33.8350   28.1530   48.6550 C   0  0  0  0  0  0  0  0  0  0  0  0
   32.9680   28.5790   49.4770 O   0  0  0  0  0  0  0  0  0  0  0  0
   35.2100   28.4630   48.4790 N   0  0  0  0  0  0  0  0  0  0  0  0
   35.6220   28.0500   47.5800 H   0  0  0  0  0  0  0  0  0  0  0  0
   33.2330   27.1910   47.7810 N   0  0  0  0  0  0  0  0  0  0  0  0
   33.4770   26.8000   46.4140 C   0  0  0  0  0  2  0  0  0  0  0  0
   33.5750   25.2950   46.3690 C   0  0  0  0  0  2  0  0  0  0  0  0
   32.6490   24.9080   47.5000 C   0  0  0  0  0  2  0  0  0  0  0  0
   32.1520   26.2470   47.9370 C   0  0  0  0  0  3  0  0  0  0  0  0
   31.8440   26.2790   49.0010 H   0  0  0  0  0  0  0  0  0  0  0  0
   36.8130   30.6600   47.5550 C   0  0  0  0  0  0  0  0  0  0  0  0
   38.1900   30.8900   47.4830 C   0  0  0  0  0  0  0  0  0  0  0  0
   38.7700   30.9010   46.2100 C   0  0  0  0  0  0  0  0  0  0  0  0
   37.9590   30.6860   45.1170 N   0  0  0  0  0  0  0  0  0  0  0  0
   36.6140   30.4650   45.2400 C   0  0  0  0  0  0  0  0  0  0  0  0
   36.0630   30.4560   46.4640 N   0  0  0  0  0  0  0  0  0  0  0  0
   38.9410   31.0600   48.2290 H   0  0  0  0  0  0  0  0  0  0  0  0
   39.8070   31.0620   45.9900 H   0  0  0  0  0  0  0  0  0  0  0  0
   36.1070   30.3140   44.3150 H   0  0  0  0  0  0  0  0  0  0  0  0
  1  7  1  6  0  0  0
  1  6  1  0  0  0  0
  1  2  1  0  0  0  0
  2  8  1  0  0  0  0
  2  3  1  0  0  0  0
  3 10  1  0  0  0  0
  3  4  1  0  0  0  0
  4 13  1  0  0  0  0
  4 12  1  0  0  0  0
  5 15  1  0  0  0  0
  5 14  1  0  0  0  0
  5  4  1  0  0  0  0
  6 16  1  6  0  0  0
  6  5  1  0  0  0  0
  9  2  1  0  0  0  0
 11  3  1  0  0  0  0
 17 18  2  0  0  0  0
 19 17  1  0  0  0  0
 19  6  1  0  0  0  0
 20 19  1  0  0  0  0
 21 25  1  0  0  0  0
 21 17  1  0  0  0  0
 22 21  1  0  0  0  0
 23 22  1  0  0  0  0
 23 24  1  0  0  0  0
 24 25  1  0  0  0  0
 25 26  1  0  0  0  0
 27  1  1  0  0  0  0
 28 27  1  0  0  0  0
 28 33  1  0  0  0  0
 29 28  2  0  0  0  0
 30 31  2  0  0  0  0
 30 29  1  0  0  0  0
 31 32  1  0  0  0  0
 32 27  2  0  0  0  0
 34 29  1  0  0  0  0
 35 31  1  0  0  0  0
M  END
>  <minimizedAffinity>
-5.93548584

>  <minimizedRMSD>
0.920847356

$$$$
