
     RDKit          3D

 27 28  0  0  0  0  0  0  0  0999 V2000
   37.3911   30.1308   51.0951 C   0  0  0  0  0  0  0  0  0  0  0  0
   38.2277   30.8913   50.2564 C   0  0  0  0  0  0  0  0  0  0  0  0
   37.6922   31.4393   49.0929 C   0  0  0  0  0  0  0  0  0  0  0  0
   36.3644   31.2075   48.8216 N   0  0  0  0  0  0  0  0  0  0  0  0
   35.5872   30.4674   49.6561 C   0  0  0  0  0  0  0  0  0  0  0  0
   36.0983   29.9354   50.7813 N   0  0  0  0  0  0  0  0  0  0  0  0
   33.9120   28.8342   49.2021 C   0  0  0  0  0  0  0  0  0  0  0  0
   34.6941   27.8385   49.3193 O   0  0  0  0  0  0  0  0  0  0  0  0
   34.2064   30.2455   49.3425 N   0  0  0  0  0  0  0  0  0  0  0  0
   38.0577   29.6590   52.1978 O   0  0  0  0  0  0  0  0  0  0  0  0
   39.2591   31.0931   50.4313 H   0  0  0  0  0  0  0  0  0  0  0  0
   38.2523   32.0248   48.4059 H   0  0  0  0  0  0  0  0  0  0  0  0
   32.9252   28.4538   48.9660 H   0  0  0  0  0  0  0  0  0  0  0  0
   33.4200   30.8945   49.2056 H   0  0  0  0  0  0  0  0  0  0  0  0
   38.6668   27.6935   54.5160 H   0  0  0  0  0  0  0  0  0  0  0  0
   38.6482   28.6673   54.1734 N   0  0  0  0  0  0  0  0  0  0  0  0
   38.5699   29.6859   55.1723 C   0  0  0  0  0  0  0  0  0  0  0  0
   37.5125   30.6781   54.7208 C   0  0  0  0  0  0  0  0  0  0  0  0
   36.5541   29.7078   54.0156 C   0  0  0  0  0  0  0  0  0  0  0  0
   37.5515   28.8788   53.2313 C   0  0  1  0  0  0  0  0  0  0  0  0
   38.3059   29.2856   56.1836 H   0  0  0  0  0  0  0  0  0  0  0  0
   39.5452   30.2328   55.2459 H   0  0  0  0  0  0  0  0  0  0  0  0
   37.9603   31.3237   53.9530 H   0  0  0  0  0  0  0  0  0  0  0  0
   37.0420   31.2126   55.5521 H   0  0  0  0  0  0  0  0  0  0  0  0
   35.9863   29.1143   54.7642 H   0  0  0  0  0  0  0  0  0  0  0  0
   35.8893   30.2491   53.3262 H   0  0  0  0  0  0  0  0  0  0  0  0
   37.1461   27.8965   52.9164 H   0  0  0  0  0  0  0  0  0  0  0  0
  1 10  1  0
  2  1  2  0
  3  2  1  0
  4  3  2  0
  4  5  1  0
  5  6  2  0
  6  1  1  0
  7  8  2  0
  7  9  1  0
  9  5  1  0
  2 11  1  0
  3 12  1  0
  7 13  1  0
  9 14  1  0
 15 16  1  0
 16 17  1  0
 17 18  1  0
 18 19  1  0
 19 20  1  0
 20 16  1  0
 17 21  1  0
 17 22  1  0
 18 23  1  0
 18 24  1  0
 19 25  1  0
 19 26  1  0
 20 27  1  6
 10 20  1  0
M  ISO  4  11  14  12  14  13   6  15   5
M  END
>  <DihAtoms>  (1) 
0,9,19,18

>  <DihDeg>  (1) 
-127.50394662981131

$$$$
