
 OpenBabel03272501313D

 17 18  0  0  0  0  0  0  0  0999 V2000
   37.5690   27.8830   35.1640 C   0  0  0  0  0  0  0  0  0  0  0  0
   38.4340   26.9050   35.6580 C   0  0  0  0  0  0  0  0  0  0  0  0
   38.5410   25.7160   34.9140 C   0  0  0  0  0  0  0  0  0  0  0  0
   37.8080   25.5840   33.7700 N   0  0  0  0  0  0  0  0  0  0  0  0
   36.9920   26.5570   33.3410 C   0  0  0  0  0  0  0  0  0  0  0  0
   36.8750   27.6920   34.0300 N   0  0  0  0  0  0  0  0  0  0  0  0
   37.4440   28.8130   35.6880 H   0  0  0  0  0  0  0  0  0  0  0  0
   38.9730   27.0780   36.5560 H   0  0  0  0  0  0  0  0  0  0  0  0
   36.4290   26.4370   32.4480 H   0  0  0  0  0  0  0  0  0  0  0  0
   39.4330   24.6700   35.3940 C   0  0  0  0  0  0  0  0  0  0  0  0
   40.5380   24.3900   34.8890 O   0  0  0  0  0  0  0  0  0  0  0  0
   39.0940   23.8650   36.5170 N   0  0  0  0  0  0  0  0  0  0  0  0
   37.7070   23.9030   36.9400 C   0  0  0  0  0  2  0  0  0  0  0  0
   37.6230   23.3030   38.3110 C   0  0  0  0  0  2  0  0  0  0  0  0
   39.0750   23.2560   38.7440 C   0  0  0  0  0  2  0  0  0  0  0  0
   39.7640   22.9600   37.4230 C   0  0  0  0  0  3  0  0  0  0  0  0
   39.5960   21.9070   37.1450 H   0  0  0  0  0  0  0  0  0  0  0  0
  1  2  1  0  0  0  0
  1  7  1  0  0  0  0
  2  8  1  0  0  0  0
  3 10  1  0  0  0  0
  3  2  2  0  0  0  0
  4  3  1  0  0  0  0
  5  4  2  0  0  0  0
  5  6  1  0  0  0  0
  6  1  2  0  0  0  0
  9  5  1  0  0  0  0
 10 12  1  0  0  0  0
 11 10  2  0  0  0  0
 12 13  1  0  0  0  0
 12 16  1  0  0  0  0
 13 14  1  0  0  0  0
 14 15  1  0  0  0  0
 16 15  1  0  0  0  0
 17 16  1  0  0  0  0
M  END
>  <minimizedAffinity>
-3.95404482

$$$$

 OpenBabel03272501313D

 17 18  0  0  0  0  0  0  0  0999 V2000
   37.9520   24.1460   38.2710 C   0  0  0  0  0  0  0  0  0  0  0  0
   37.7320   24.3370   36.9060 C   0  0  0  0  0  0  0  0  0  0  0  0
   38.6230   23.7020   36.0230 C   0  0  0  0  0  0  0  0  0  0  0  0
   39.6380   22.9460   36.5370 N   0  0  0  0  0  0  0  0  0  0  0  0
   39.8020   22.7960   37.8580 C   0  0  0  0  0  0  0  0  0  0  0  0
   38.9690   23.3890   38.7150 N   0  0  0  0  0  0  0  0  0  0  0  0
   37.3050   24.6050   38.9950 H   0  0  0  0  0  0  0  0  0  0  0  0
   36.9210   24.9390   36.5780 H   0  0  0  0  0  0  0  0  0  0  0  0
   40.5970   22.2050   38.2420 H   0  0  0  0  0  0  0  0  0  0  0  0
   38.4300   23.8750   34.5890 C   0  0  0  0  0  0  0  0  0  0  0  0
   37.7810   23.0990   33.8610 O   0  0  0  0  0  0  0  0  0  0  0  0
   38.9870   24.9850   33.8960 N   0  0  0  0  0  0  0  0  0  0  0  0
   40.0140   25.7310   34.5960 C   0  0  0  0  0  2  0  0  0  0  0  0
   40.2090   27.0350   33.8820 C   0  0  0  0  0  2  0  0  0  0  0  0
   39.0000   27.0990   32.9700 C   0  0  0  0  0  2  0  0  0  0  0  0
   38.8230   25.6330   32.6150 C   0  0  0  0  0  3  0  0  0  0  0  0
   39.6050   25.3280   31.9010 H   0  0  0  0  0  0  0  0  0  0  0  0
  1  6  1  0  0  0  0
  1  7  1  0  0  0  0
  2  1  2  0  0  0  0
  3  4  2  0  0  0  0
  3  2  1  0  0  0  0
  4  5  1  0  0  0  0
  5  9  1  0  0  0  0
  5  6  2  0  0  0  0
  8  2  1  0  0  0  0
 10  3  1  0  0  0  0
 11 10  2  0  0  0  0
 12 10  1  0  0  0  0
 12 13  1  0  0  0  0
 14 13  1  0  0  0  0
 15 14  1  0  0  0  0
 16 15  1  0  0  0  0
 16 12  1  0  0  0  0
 17 16  1  0  0  0  0
M  END
>  <minimizedAffinity>
-3.86673379

$$$$

 OpenBabel03272501313D

 17 18  0  0  0  0  0  0  0  0999 V2000
   41.9560   21.8450   37.1110 C   0  0  0  0  0  0  0  0  0  0  0  0
   40.7290   22.5130   37.1300 C   0  0  0  0  0  0  0  0  0  0  0  0
   40.0550   22.6380   35.9020 C   0  0  0  0  0  0  0  0  0  0  0  0
   40.6240   22.1110   34.7780 N   0  0  0  0  0  0  0  0  0  0  0  0
   41.8050   21.4790   34.8180 C   0  0  0  0  0  0  0  0  0  0  0  0
   42.4620   21.3480   35.9710 N   0  0  0  0  0  0  0  0  0  0  0  0
   42.5180   21.7180   38.0170 H   0  0  0  0  0  0  0  0  0  0  0  0
   40.3480   22.8970   38.0430 H   0  0  0  0  0  0  0  0  0  0  0  0
   42.2330   21.0750   33.9330 H   0  0  0  0  0  0  0  0  0  0  0  0
   38.7720   23.3270   35.8760 C   0  0  0  0  0  0  0  0  0  0  0  0
   37.6710   22.7890   36.1060 O   0  0  0  0  0  0  0  0  0  0  0  0
   38.6830   24.7150   35.5780 N   0  0  0  0  0  0  0  0  0  0  0  0
   39.8570   25.3220   34.9810 C   0  0  0  0  0  2  0  0  0  0  0  0
   39.7100   26.8100   35.0780 C   0  0  0  0  0  2  0  0  0  0  0  0
   38.5670   26.9700   36.0590 C   0  0  0  0  0  2  0  0  0  0  0  0
   37.7050   25.7720   35.7010 C   0  0  0  0  0  3  0  0  0  0  0  0
   37.1870   25.9600   34.7470 H   0  0  0  0  0  0  0  0  0  0  0  0
  1  2  1  0  0  0  0
  1  7  1  0  0  0  0
  2  8  1  0  0  0  0
  3  2  2  0  0  0  0
  4  5  2  0  0  0  0
  4  3  1  0  0  0  0
  5  6  1  0  0  0  0
  6  1  2  0  0  0  0
  9  5  1  0  0  0  0
 10  3  1  0  0  0  0
 10 11  2  0  0  0  0
 12 16  1  0  0  0  0
 12 10  1  0  0  0  0
 13 14  1  0  0  0  0
 13 12  1  0  0  0  0
 14 15  1  0  0  0  0
 16 15  1  0  0  0  0
 17 16  1  0  0  0  0
M  END
>  <minimizedAffinity>
-3.67700887

$$$$

 OpenBabel03272501313D

 17 18  0  0  0  0  0  0  0  0999 V2000
   35.2980   24.8430   31.1680 C   0  0  0  0  0  0  0  0  0  0  0  0
   36.3410   25.6580   31.6130 C   0  0  0  0  0  0  0  0  0  0  0  0
   37.5510   25.0200   31.9410 C   0  0  0  0  0  0  0  0  0  0  0  0
   37.6410   23.6640   31.8090 N   0  0  0  0  0  0  0  0  0  0  0  0
   36.6070   22.9300   31.3750 C   0  0  0  0  0  0  0  0  0  0  0  0
   35.4510   23.5130   31.0590 N   0  0  0  0  0  0  0  0  0  0  0  0
   34.3500   25.2710   30.9020 H   0  0  0  0  0  0  0  0  0  0  0  0
   36.1990   26.7070   31.6910 H   0  0  0  0  0  0  0  0  0  0  0  0
   36.6950   21.8750   31.2790 H   0  0  0  0  0  0  0  0  0  0  0  0
   38.6650   25.8330   32.4090 C   0  0  0  0  0  0  0  0  0  0  0  0
   39.5180   26.3640   31.6710 O   0  0  0  0  0  0  0  0  0  0  0  0
   38.8630   26.0900   33.7950 N   0  0  0  0  0  0  0  0  0  0  0  0
   38.1260   25.2480   34.7170 C   0  0  0  0  0  2  0  0  0  0  0  0
   38.1770   25.8880   36.0720 C   0  0  0  0  0  2  0  0  0  0  0  0
   38.6810   27.2830   35.7630 C   0  0  0  0  0  2  0  0  0  0  0  0
   39.6310   27.0020   34.6110 C   0  0  0  0  0  3  0  0  0  0  0  0
   40.5490   26.5300   34.9950 H   0  0  0  0  0  0  0  0  0  0  0  0
  1  2  1  0  0  0  0
  2  8  1  0  0  0  0
  2  3  2  0  0  0  0
  3 10  1  0  0  0  0
  4  3  1  0  0  0  0
  5  4  2  0  0  0  0
  6  1  2  0  0  0  0
  6  5  1  0  0  0  0
  7  1  1  0  0  0  0
  9  5  1  0  0  0  0
 10 12  1  0  0  0  0
 11 10  2  0  0  0  0
 12 16  1  0  0  0  0
 12 13  1  0  0  0  0
 13 14  1  0  0  0  0
 15 14  1  0  0  0  0
 16 17  1  0  0  0  0
 16 15  1  0  0  0  0
M  END
>  <minimizedAffinity>
-3.61477828

$$$$

 OpenBabel03272501313D

 17 18  0  0  0  0  0  0  0  0999 V2000
   37.6390   26.5950   34.9020 C   0  0  0  0  0  0  0  0  0  0  0  0
   38.0560   25.7920   35.9650 C   0  0  0  0  0  0  0  0  0  0  0  0
   38.2850   24.4330   35.6850 C   0  0  0  0  0  0  0  0  0  0  0  0
   38.0900   23.9780   34.4120 N   0  0  0  0  0  0  0  0  0  0  0  0
   37.6880   24.7950   33.4280 C   0  0  0  0  0  0  0  0  0  0  0  0
   37.4660   26.0870   33.6700 N   0  0  0  0  0  0  0  0  0  0  0  0
   37.4480   27.6410   35.0530 H   0  0  0  0  0  0  0  0  0  0  0  0
   38.1870   26.2150   36.9300 H   0  0  0  0  0  0  0  0  0  0  0  0
   37.5410   24.4240   32.4430 H   0  0  0  0  0  0  0  0  0  0  0  0
   38.7220   23.5600   36.7660 C   0  0  0  0  0  0  0  0  0  0  0  0
   38.0030   23.1850   37.7120 O   0  0  0  0  0  0  0  0  0  0  0  0
   40.0510   23.0540   36.8170 N   0  0  0  0  0  0  0  0  0  0  0  0
   41.0200   23.7030   35.9550 C   0  0  0  0  0  2  0  0  0  0  0  0
   42.2320   22.8240   35.8750 C   0  0  0  0  0  2  0  0  0  0  0  0
   41.7340   21.5160   36.4560 C   0  0  0  0  0  2  0  0  0  0  0  0
   40.7700   22.0150   37.5180 C   0  0  0  0  0  3  0  0  0  0  0  0
   41.3370   22.4190   38.3730 H   0  0  0  0  0  0  0  0  0  0  0  0
  1  7  1  0  0  0  0
  1  2  1  0  0  0  0
  2  8  1  0  0  0  0
  3  2  2  0  0  0  0
  3 10  1  0  0  0  0
  4  3  1  0  0  0  0
  5  6  1  0  0  0  0
  5  4  2  0  0  0  0
  6  1  2  0  0  0  0
  9  5  1  0  0  0  0
 10 12  1  0  0  0  0
 10 11  2  0  0  0  0
 12 16  1  0  0  0  0
 13 12  1  0  0  0  0
 14 13  1  0  0  0  0
 14 15  1  0  0  0  0
 15 16  1  0  0  0  0
 16 17  1  0  0  0  0
M  END
>  <minimizedAffinity>
-3.60997128

$$$$

 OpenBabel03272501313D

 17 18  0  0  0  0  0  0  0  0999 V2000
   40.3010   27.1960   33.7900 C   0  0  0  0  0  0  0  0  0  0  0  0
   40.6440   26.2490   34.7580 C   0  0  0  0  0  0  0  0  0  0  0  0
   40.3680   24.9030   34.4570 C   0  0  0  0  0  0  0  0  0  0  0  0
   39.7910   24.5990   33.2570 N   0  0  0  0  0  0  0  0  0  0  0  0
   39.4820   25.5490   32.3640 C   0  0  0  0  0  0  0  0  0  0  0  0
   39.7350   26.8320   32.6280 N   0  0  0  0  0  0  0  0  0  0  0  0
   40.4870   28.2400   33.9620 H   0  0  0  0  0  0  0  0  0  0  0  0
   41.0910   26.5600   35.6690 H   0  0  0  0  0  0  0  0  0  0  0  0
   39.0330   25.2950   31.4360 H   0  0  0  0  0  0  0  0  0  0  0  0
   40.7110   23.8830   35.4380 C   0  0  0  0  0  0  0  0  0  0  0  0
   41.8030   23.2850   35.4910 O   0  0  0  0  0  0  0  0  0  0  0  0
   39.7870   23.4850   36.4450 N   0  0  0  0  0  0  0  0  0  0  0  0
   38.4070   23.8820   36.2450 C   0  0  0  0  0  2  0  0  0  0  0  0
   37.6790   23.6990   37.5430 C   0  0  0  0  0  2  0  0  0  0  0  0
   38.8090   23.5120   38.5350 C   0  0  0  0  0  2  0  0  0  0  0  0
   39.8180   22.7540   37.6910 C   0  0  0  0  0  3  0  0  0  0  0  0
   39.4820   21.7120   37.5600 H   0  0  0  0  0  0  0  0  0  0  0  0
  1  7  1  0  0  0  0
  1  2  1  0  0  0  0
  2  8  1  0  0  0  0
  3  2  2  0  0  0  0
  3 10  1  0  0  0  0
  4  3  1  0  0  0  0
  5  6  1  0  0  0  0
  5  4  2  0  0  0  0
  6  1  2  0  0  0  0
  9  5  1  0  0  0  0
 10 11  2  0  0  0  0
 10 12  1  0  0  0  0
 12 16  1  0  0  0  0
 13 12  1  0  0  0  0
 13 14  1  0  0  0  0
 14 15  1  0  0  0  0
 16 15  1  0  0  0  0
 17 16  1  0  0  0  0
M  END
>  <minimizedAffinity>
-3.5638504

$$$$

 OpenBabel03272501313D

 17 18  0  0  0  0  0  0  0  0999 V2000
   38.0190   23.7810   38.2130 C   0  0  0  0  0  0  0  0  0  0  0  0
   37.6570   24.1860   36.9260 C   0  0  0  0  0  0  0  0  0  0  0  0
   38.5420   23.8550   35.8840 C   0  0  0  0  0  0  0  0  0  0  0  0
   39.6850   23.1680   36.1780 N   0  0  0  0  0  0  0  0  0  0  0  0
   39.9820   22.8040   37.4330 C   0  0  0  0  0  0  0  0  0  0  0  0
   39.1580   23.1060   38.4380 N   0  0  0  0  0  0  0  0  0  0  0  0
   37.3850   24.0040   39.0510 H   0  0  0  0  0  0  0  0  0  0  0  0
   36.7510   24.7170   36.7720 H   0  0  0  0  0  0  0  0  0  0  0  0
   40.8760   22.2700   37.6450 H   0  0  0  0  0  0  0  0  0  0  0  0
   38.2030   24.2580   34.5260 C   0  0  0  0  0  0  0  0  0  0  0  0
   38.2040   25.4330   34.1110 O   0  0  0  0  0  0  0  0  0  0  0  0
   37.8340   23.3000   33.5400 N   0  0  0  0  0  0  0  0  0  0  0  0
   37.4880   21.9780   34.0250 C   0  0  0  0  0  2  0  0  0  0  0  0
   37.4870   21.0400   32.8550 C   0  0  0  0  0  2  0  0  0  0  0  0
   38.1830   21.8490   31.7790 C   0  0  0  0  0  2  0  0  0  0  0  0
   37.6930   23.2500   32.1030 C   0  0  0  0  0  3  0  0  0  0  0  0
   36.6400   23.3540   31.7930 H   0  0  0  0  0  0  0  0  0  0  0  0
  1  6  1  0  0  0  0
  1  7  1  0  0  0  0
  2  1  2  0  0  0  0
  3  4  2  0  0  0  0
  3  2  1  0  0  0  0
  4  5  1  0  0  0  0
  5  9  1  0  0  0  0
  5  6  2  0  0  0  0
  8  2  1  0  0  0  0
 10  3  1  0  0  0  0
 11 10  2  0  0  0  0
 12 13  1  0  0  0  0
 12 10  1  0  0  0  0
 14 13  1  0  0  0  0
 15 16  1  0  0  0  0
 15 14  1  0  0  0  0
 16 12  1  0  0  0  0
 17 16  1  0  0  0  0
M  END
>  <minimizedAffinity>
-3.52091694

$$$$

 OpenBabel03272501313D

 17 18  0  0  0  0  0  0  0  0999 V2000
   37.7070   23.8590   32.8080 C   0  0  0  0  0  0  0  0  0  0  0  0
   38.0740   23.2040   33.9850 C   0  0  0  0  0  0  0  0  0  0  0  0
   38.1960   23.9950   35.1410 C   0  0  0  0  0  0  0  0  0  0  0  0
   37.9540   25.3360   35.0540 N   0  0  0  0  0  0  0  0  0  0  0  0
   37.6050   25.9130   33.8960 C   0  0  0  0  0  0  0  0  0  0  0  0
   37.4820   25.1830   32.7870 N   0  0  0  0  0  0  0  0  0  0  0  0
   37.5980   23.3090   31.8920 H   0  0  0  0  0  0  0  0  0  0  0  0
   38.2460   22.1560   33.9780 H   0  0  0  0  0  0  0  0  0  0  0  0
   37.4200   26.9590   33.8460 H   0  0  0  0  0  0  0  0  0  0  0  0
   38.5760   23.3510   36.3910 C   0  0  0  0  0  0  0  0  0  0  0  0
   37.7830   23.0420   37.3020 O   0  0  0  0  0  0  0  0  0  0  0  0
   39.9310   23.0160   36.6690 N   0  0  0  0  0  0  0  0  0  0  0  0
   40.9340   23.6360   35.8240 C   0  0  0  0  0  2  0  0  0  0  0  0
   42.2250   22.9020   36.0230 C   0  0  0  0  0  2  0  0  0  0  0  0
   41.7880   21.6470   36.7510 C   0  0  0  0  0  2  0  0  0  0  0  0
   40.6530   22.1850   37.6060 C   0  0  0  0  0  3  0  0  0  0  0  0
   41.0660   22.7760   38.4390 H   0  0  0  0  0  0  0  0  0  0  0  0
  1  2  1  0  0  0  0
  2  3  2  0  0  0  0
  3 10  1  0  0  0  0
  4  3  1  0  0  0  0
  5  4  2  0  0  0  0
  6  1  2  0  0  0  0
  6  5  1  0  0  0  0
  7  1  1  0  0  0  0
  8  2  1  0  0  0  0
  9  5  1  0  0  0  0
 10 12  1  0  0  0  0
 10 11  2  0  0  0  0
 12 16  1  0  0  0  0
 13 14  1  0  0  0  0
 13 12  1  0  0  0  0
 14 15  1  0  0  0  0
 15 16  1  0  0  0  0
 16 17  1  0  0  0  0
M  END
>  <minimizedAffinity>
-3.50636649

$$$$

 OpenBabel03272501313D

 17 18  0  0  0  0  0  0  0  0999 V2000
   35.3050   24.0250   31.1760 C   0  0  0  0  0  0  0  0  0  0  0  0
   36.5630   23.9000   31.7710 C   0  0  0  0  0  0  0  0  0  0  0  0
   37.3060   25.0820   31.9420 C   0  0  0  0  0  0  0  0  0  0  0  0
   36.7690   26.2670   31.5260 N   0  0  0  0  0  0  0  0  0  0  0  0
   35.5560   26.3290   30.9610 C   0  0  0  0  0  0  0  0  0  0  0  0
   34.8330   25.2220   30.7890 N   0  0  0  0  0  0  0  0  0  0  0  0
   34.6910   23.1590   31.0190 H   0  0  0  0  0  0  0  0  0  0  0  0
   36.9150   22.9440   32.0700 H   0  0  0  0  0  0  0  0  0  0  0  0
   35.1540   27.2590   30.6420 H   0  0  0  0  0  0  0  0  0  0  0  0
   38.6220   24.9960   32.5590 C   0  0  0  0  0  0  0  0  0  0  0  0
   39.6310   24.5010   32.0180 O   0  0  0  0  0  0  0  0  0  0  0  0
   38.8590   25.4940   33.8710 N   0  0  0  0  0  0  0  0  0  0  0  0
   37.6840   25.7710   34.6750 C   0  0  0  0  0  2  0  0  0  0  0  0
   38.1100   26.6050   35.8460 C   0  0  0  0  0  2  0  0  0  0  0  0
   39.5030   27.0500   35.4490 C   0  0  0  0  0  2  0  0  0  0  0  0
   39.9970   25.8270   34.6960 C   0  0  0  0  0  3  0  0  0  0  0  0
   40.2320   25.0220   35.4100 H   0  0  0  0  0  0  0  0  0  0  0  0
  1  2  1  0  0  0  0
  2  3  2  0  0  0  0
  2  8  1  0  0  0  0
  3 10  1  0  0  0  0
  4  3  1  0  0  0  0
  5  4  2  0  0  0  0
  6  5  1  0  0  0  0
  6  1  2  0  0  0  0
  7  1  1  0  0  0  0
  9  5  1  0  0  0  0
 10 12  1  0  0  0  0
 11 10  2  0  0  0  0
 12 13  1  0  0  0  0
 12 16  1  0  0  0  0
 13 14  1  0  0  0  0
 15 14  1  0  0  0  0
 16 17  1  0  0  0  0
 16 15  1  0  0  0  0
M  END
>  <minimizedAffinity>
-3.50016618

$$$$
