
 OpenBabel03272509303D

 35 37  0  0  1  0  0  0  0  0999 V2000
   36.5660   30.8470   48.6600 C   0  0  2  0  0  0  0  0  0  0  0  0
   37.4080   31.6900   49.5620 C   0  0  0  0  0  0  0  0  0  0  0  0
   38.1210   30.8880   50.6300 C   0  0  0  0  0  0  0  0  0  0  0  0
   37.1290   30.0750   51.4530 C   0  0  0  0  0  0  0  0  0  0  0  0
   35.9660   29.5390   50.6590 C   0  0  0  0  0  0  0  0  0  0  0  0
   36.3980   29.4570   49.1830 C   0  0  1  0  0  0  0  0  0  0  0  0
   35.5170   31.2550   48.5070 H   0  0  0  0  0  0  0  0  0  0  0  0
   36.6550   32.3140   50.1540 H   0  0  0  0  0  0  0  0  0  0  0  0
   38.0550   32.4130   49.1020 H   0  0  0  0  0  0  0  0  0  0  0  0
   38.5940   31.6130   51.3160 H   0  0  0  0  0  0  0  0  0  0  0  0
   38.8690   30.1950   50.2400 H   0  0  0  0  0  0  0  0  0  0  0  0
   36.7690   30.6640   52.3310 H   0  0  0  0  0  0  0  0  0  0  0  0
   37.6520   29.1900   51.8740 H   0  0  0  0  0  0  0  0  0  0  0  0
   35.7170   28.4910   50.9500 H   0  0  0  0  0  0  0  0  0  0  0  0
   35.0460   30.1270   50.7700 H   0  0  0  0  0  0  0  0  0  0  0  0
   37.3340   28.9660   49.2840 H   0  0  0  0  0  0  0  0  0  0  0  0
   34.2100   28.7220   48.1290 C   0  0  0  0  0  0  0  0  0  0  0  0
   33.3750   29.6390   48.3970 O   0  0  0  0  0  0  0  0  0  0  0  0
   35.6040   28.6060   48.3750 N   0  0  0  0  0  0  0  0  0  0  0  0
   36.0510   27.7720   47.8710 H   0  0  0  0  0  0  0  0  0  0  0  0
   33.5420   27.6500   47.4540 N   0  0  0  0  0  0  0  0  0  0  0  0
   33.5740   26.2140   47.5940 C   0  0  0  0  0  2  0  0  0  0  0  0
   32.1520   25.7190   47.6720 C   0  0  0  0  0  2  0  0  0  0  0  0
   31.4370   26.7490   46.8270 C   0  0  0  0  0  2  0  0  0  0  0  0
   32.5800   27.5980   46.3770 C   0  0  0  0  0  3  0  0  0  0  0  0
   32.2940   28.6430   46.1500 H   0  0  0  0  0  0  0  0  0  0  0  0
   37.1450   30.7750   47.2940 C   0  0  0  0  0  0  0  0  0  0  0  0
   38.5320   30.9310   47.2140 C   0  0  0  0  0  0  0  0  0  0  0  0
   39.1110   30.8650   45.9420 C   0  0  0  0  0  0  0  0  0  0  0  0
   38.2880   30.6510   44.8570 N   0  0  0  0  0  0  0  0  0  0  0  0
   36.9340   30.5040   44.9870 C   0  0  0  0  0  0  0  0  0  0  0  0
   36.3840   30.5690   46.2100 N   0  0  0  0  0  0  0  0  0  0  0  0
   39.2910   31.0900   47.9540 H   0  0  0  0  0  0  0  0  0  0  0  0
   40.1540   30.9650   45.7170 H   0  0  0  0  0  0  0  0  0  0  0  0
   36.4180   30.3440   44.0680 H   0  0  0  0  0  0  0  0  0  0  0  0
  1  7  1  6  0  0  0
  1  6  1  0  0  0  0
  1  2  1  0  0  0  0
  2  8  1  0  0  0  0
  2  3  1  0  0  0  0
  3 10  1  0  0  0  0
  3  4  1  0  0  0  0
  4 13  1  0  0  0  0
  4 12  1  0  0  0  0
  5 15  1  0  0  0  0
  5 14  1  0  0  0  0
  5  4  1  0  0  0  0
  6 16  1  1  0  0  0
  6  5  1  0  0  0  0
  9  2  1  0  0  0  0
 11  3  1  0  0  0  0
 17 19  1  0  0  0  0
 17 18  2  0  0  0  0
 19  6  1  0  0  0  0
 20 19  1  0  0  0  0
 21 22  1  0  0  0  0
 21 17  1  0  0  0  0
 22 23  1  0  0  0  0
 24 23  1  0  0  0  0
 25 24  1  0  0  0  0
 25 21  1  0  0  0  0
 26 25  1  0  0  0  0
 27  1  1  0  0  0  0
 28 27  1  0  0  0  0
 28 33  1  0  0  0  0
 29 28  2  0  0  0  0
 30 31  2  0  0  0  0
 30 29  1  0  0  0  0
 31 32  1  0  0  0  0
 32 27  2  0  0  0  0
 34 29  1  0  0  0  0
 35 31  1  0  0  0  0
M  END
>  <minimizedAffinity>
-5.3624444

>  <minimizedRMSD>
1.22666872

$$$$
