
 OpenBabel03272508423D

 17 18  0  0  0  0  0  0  0  0999 V2000
   37.7270   30.1560   51.1900 C   0  0  0  0  0  0  0  0  0  0  0  0
   38.2740   31.1220   50.3290 C   0  0  0  0  0  0  0  0  0  0  0  0
   37.4800   31.6000   49.2900 C   0  0  0  0  0  0  0  0  0  0  0  0
   36.2230   31.0940   49.1800 N   0  0  0  0  0  0  0  0  0  0  0  0
   35.7320   30.1750   50.0150 C   0  0  0  0  0  0  0  0  0  0  0  0
   36.4850   29.7030   51.0250 N   0  0  0  0  0  0  0  0  0  0  0  0
   38.3300   29.7760   52.0040 H   0  0  0  0  0  0  0  0  0  0  0  0
   39.2820   31.4860   50.4690 H   0  0  0  0  0  0  0  0  0  0  0  0
   37.8750   32.3440   48.6110 H   0  0  0  0  0  0  0  0  0  0  0  0
   34.3680   29.6420   49.8750 C   0  0  0  0  0  0  0  0  0  0  0  0
   33.5200   29.7170   50.8180 O   0  0  0  0  0  0  0  0  0  0  0  0
   34.1210   29.0470   48.5900 N   0  0  0  0  0  0  0  0  0  0  0  0
   33.8910   29.6240   47.2770 C   0  0  0  0  0  0  0  0  0  0  0  0
   32.9730   28.5970   46.6460 C   0  0  0  0  0  0  0  0  0  0  0  0
   33.7210   27.3190   47.0320 C   0  0  0  0  0  0  0  0  0  0  0  0
   34.0670   27.5900   48.4580 C   0  0  0  0  0  0  0  0  0  0  0  0
   35.0150   27.1480   48.7910 H   0  0  0  0  0  0  0  0  0  0  0  0
  1  7  1  0  0  0  0
  2  8  1  0  0  0  0
  2  1  2  0  0  0  0
  3  2  1  0  0  0  0
  4  3  2  0  0  0  0
  4  5  1  0  0  0  0
  5  6  2  0  0  0  0
  6  1  1  0  0  0  0
  9  3  1  0  0  0  0
 10  5  1  0  0  0  0
 10 11  2  0  0  0  0
 12 10  1  0  0  0  0
 13 12  1  0  0  0  0
 14 15  1  0  0  0  0
 14 13  1  0  0  0  0
 15 16  1  0  0  0  0
 16 12  1  0  0  0  0
 16 17  1  0  0  0  0
M  END
>  <minimizedAffinity>
-4.1435318

>  <minimizedRMSD>
2.31952262

$$$$
