
     RDKit          3D

 49 52  0  0  0  0  0  0  0  0999 V2000
   37.7725   31.7503   47.6586 C   0  0  0  0  0  0  0  0  0  0  0  0
   37.9232   32.5330   48.8045 C   0  0  0  0  0  0  0  0  0  0  0  0
   38.9272   33.4843   48.8910 C   0  0  0  0  0  0  0  0  0  0  0  0
   39.7508   33.5986   47.7830 C   0  0  0  0  0  0  0  0  0  0  0  0
   39.5750   32.8199   46.6842 C   0  0  0  0  0  0  0  0  0  0  0  0
   38.6000   31.8922   46.5934 N   0  0  0  0  0  0  0  0  0  0  0  0
   36.7009   30.7839   47.6529 C   0  0  0  0  0  0  0  0  0  0  0  0
   36.2098   30.3832   46.6002 O   0  0  0  0  0  0  0  0  0  0  0  0
   37.0344   29.6270   49.8080 C   0  0  0  0  0  0  0  0  0  0  0  0
   36.1386   30.2268   48.8974 C   0  0  0  0  0  0  0  0  0  0  0  0
   34.7658   30.2784   49.1893 C   0  0  0  0  0  0  0  0  0  0  0  0
   34.3354   29.7353   50.3689 N   0  0  0  0  0  0  0  0  0  0  0  0
   35.2178   29.1613   51.2331 C   0  0  0  0  0  0  0  0  0  0  0  0
   36.5130   29.1139   50.9550 N   0  0  0  0  0  0  0  0  0  0  0  0
   40.6595   32.9760   45.2350 S   0  0  0  0  0  0  0  0  0  0  0  0
   39.5713   32.9344   43.7909 C   0  0  0  0  0  0  0  0  0  0  0  0
   38.7815   29.7909   42.3541 C   0  0  1  0  0  0  0  0  0  0  0  0
   38.8015   31.2934   42.0873 C   0  0  0  0  0  0  0  0  0  0  0  0
   39.9432   31.7156   42.9660 C   0  0  2  0  0  0  0  0  0  0  0  0
   40.3111   30.6524   43.7467 O   0  0  0  0  0  0  0  0  0  0  0  0
   39.2495   29.7484   43.7832 C   0  0  0  0  0  0  0  0  0  0  0  0
   37.4858   29.2858   42.2143 O   0  0  0  0  0  0  0  0  0  0  0  0
   37.2617   32.4164   49.6504 H   0  0  0  0  0  0  0  0  0  0  0  0
   39.0802   34.1071   49.7501 H   0  0  0  0  0  0  0  0  0  0  0  0
   40.5666   34.3142   47.7517 H   0  0  0  0  0  0  0  0  0  0  0  0
   38.0894   29.5641   49.6287 H   0  0  0  0  0  0  0  0  0  0  0  0
   34.1260   30.7387   48.4769 H   0  0  0  0  0  0  0  0  0  0  0  0
   34.7314   28.7778   52.1182 H   0  0  0  0  0  0  0  0  0  0  0  0
   39.7381   33.8546   43.1832 H   0  0  0  0  0  0  0  0  0  0  0  0
   38.4954   32.8510   44.0416 H   0  0  0  0  0  0  0  0  0  0  0  0
   39.4552   29.2458   41.6887 H   0  0  0  0  0  0  0  0  0  0  0  0
   38.9363   31.5479   41.0284 H   0  0  0  0  0  0  0  0  0  0  0  0
   37.8682   31.7039   42.5405 H   0  0  0  0  0  0  0  0  0  0  0  0
   40.8108   32.0158   42.3179 H   0  0  0  0  0  0  0  0  0  0  0  0
   38.4536   30.0267   44.4794 H   0  0  0  0  0  0  0  0  0  0  0  0
   39.7255   28.7636   44.0462 H   0  0  0  0  0  0  0  0  0  0  0  0
   39.1729   27.8634   40.3414 H   0  0  0  0  0  0  0  0  0  0  0  0
   38.5675   27.4806   41.1144 N   0  0  0  0  0  0  0  0  0  0  0  0
   38.0222   26.2061   40.6236 C   0  0  0  0  0  0  0  0  0  0  0  0
   36.9773   25.9874   41.7275 C   0  0  0  0  0  0  0  0  0  0  0  0
   36.2400   27.3216   41.5867 C   0  0  0  0  0  0  0  0  0  0  0  0
   37.3838   28.2656   41.3072 C   0  0  1  0  0  0  0  0  0  0  0  0
   38.7616   25.4117   40.5643 H   0  0  0  0  0  0  0  0  0  0  0  0
   37.4456   26.3830   39.6851 H   0  0  0  0  0  0  0  0  0  0  0  0
   36.3458   25.1191   41.5579 H   0  0  0  0  0  0  0  0  0  0  0  0
   37.5703   25.9780   42.6674 H   0  0  0  0  0  0  0  0  0  0  0  0
   35.6634   27.5715   42.4952 H   0  0  0  0  0  0  0  0  0  0  0  0
   35.5244   27.2161   40.7548 H   0  0  0  0  0  0  0  0  0  0  0  0
   37.1651   28.7364   40.3066 H   0  0  0  0  0  0  0  0  0  0  0  0
  1  2  2  0
  2  3  1  0
  4  3  2  0
  5  4  1  0
  6  5  2  0
  6  1  1  0
  7  1  1  0
  7 10  1  0
  8  7  2  0
  9 14  2  0
 10 11  2  0
 10  9  1  0
 11 12  1  0
 12 13  2  0
 14 13  1  0
 15  5  1  0
 16 15  1  0
 17 22  1  0
 17 21  1  0
 18 17  1  0
 18 19  1  0
 19 20  1  0
 19 16  1  0
 20 21  1  0
  2 23  1  0
  3 24  1  0
  4 25  1  0
  9 26  1  0
 11 27  1  0
 13 28  1  0
 16 29  1  0
 16 30  1  0
 17 31  1  6
 18 32  1  0
 18 33  1  0
 19 34  1  6
 21 35  1  0
 21 36  1  0
 37 38  1  0
 38 39  1  0
 39 40  1  0
 40 41  1  0
 41 42  1  0
 42 38  1  0
 39 43  1  0
 39 44  1  0
 40 45  1  0
 40 46  1  0
 41 47  1  0
 41 48  1  0
 42 49  1  6
 22 42  1  0
M  ISO  8  23  14  24  14  25  14  26  14  27  14  28  14  29   8  30   8
M  ISO  7  31  13  32  13  33  13  34  13  35  13  36  13  37   5
M  END
>  <DihAtoms>  (1) 
16,21,41,40

>  <DihDeg>  (1) 
-116.77277174701517

$$$$
