
 OpenBabel03272509303D

 35 37  0  0  1  0  0  0  0  0999 V2000
   36.3470   30.7010   48.9250 C   0  0  2  0  0  0  0  0  0  0  0  0
   37.2640   31.5100   49.7850 C   0  0  0  0  0  0  0  0  0  0  0  0
   38.0410   30.6710   50.7770 C   0  0  0  0  0  0  0  0  0  0  0  0
   37.0990   29.8490   51.6500 C   0  0  0  0  0  0  0  0  0  0  0  0
   35.8740   29.3490   50.9290 C   0  0  0  0  0  0  0  0  0  0  0  0
   36.1970   29.3000   49.4230 C   0  0  1  0  0  0  0  0  0  0  0  0
   35.2950   31.1260   48.8590 H   0  0  0  0  0  0  0  0  0  0  0  0
   36.5640   32.1270   50.4460 H   0  0  0  0  0  0  0  0  0  0  0  0
   37.8860   32.2360   49.2980 H   0  0  0  0  0  0  0  0  0  0  0  0
   38.5720   31.3710   51.4460 H   0  0  0  0  0  0  0  0  0  0  0  0
   38.7480   29.9790   50.3170 H   0  0  0  0  0  0  0  0  0  0  0  0
   36.8110   30.4190   52.5660 H   0  0  0  0  0  0  0  0  0  0  0  0
   37.6380   28.9470   52.0090 H   0  0  0  0  0  0  0  0  0  0  0  0
   35.6310   28.2960   51.2100 H   0  0  0  0  0  0  0  0  0  0  0  0
   34.9730   29.9450   51.1210 H   0  0  0  0  0  0  0  0  0  0  0  0
   37.1310   28.7950   49.4440 H   0  0  0  0  0  0  0  0  0  0  0  0
   33.9610   28.2180   48.9040 C   0  0  0  0  0  0  0  0  0  0  0  0
   33.1350   28.7300   49.7190 O   0  0  0  0  0  0  0  0  0  0  0  0
   35.3340   28.4810   48.6540 N   0  0  0  0  0  0  0  0  0  0  0  0
   35.7040   27.9840   47.7790 H   0  0  0  0  0  0  0  0  0  0  0  0
   33.3080   27.2010   48.1370 N   0  0  0  0  0  0  0  0  0  0  0  0
   31.9480   27.0120   47.6910 C   0  0  0  0  0  2  0  0  0  0  0  0
   31.9780   26.7010   46.2150 C   0  0  0  0  0  2  0  0  0  0  0  0
   33.3090   25.9940   46.0930 C   0  0  0  0  0  2  0  0  0  0  0  0
   33.7600   25.9780   47.5160 C   0  0  0  0  0  3  0  0  0  0  0  0
   34.8610   25.9450   47.6320 H   0  0  0  0  0  0  0  0  0  0  0  0
   36.8240   30.6580   47.5190 C   0  0  0  0  0  0  0  0  0  0  0  0
   38.1970   30.8530   47.3390 C   0  0  0  0  0  0  0  0  0  0  0  0
   38.6810   30.8140   46.0270 C   0  0  0  0  0  0  0  0  0  0  0  0
   37.7870   30.5880   45.0040 N   0  0  0  0  0  0  0  0  0  0  0  0
   36.4500   30.4030   45.2310 C   0  0  0  0  0  0  0  0  0  0  0  0
   35.9910   30.4410   46.4930 N   0  0  0  0  0  0  0  0  0  0  0  0
   39.0050   31.0260   48.0220 H   0  0  0  0  0  0  0  0  0  0  0  0
   39.7020   30.9450   45.7270 H   0  0  0  0  0  0  0  0  0  0  0  0
   35.8720   30.2380   44.3510 H   0  0  0  0  0  0  0  0  0  0  0  0
  1  7  1  1  0  0  0
  1  6  1  0  0  0  0
  1  2  1  0  0  0  0
  2  8  1  0  0  0  0
  2  3  1  0  0  0  0
  3 10  1  0  0  0  0
  3  4  1  0  0  0  0
  4 13  1  0  0  0  0
  4 12  1  0  0  0  0
  5 15  1  0  0  0  0
  5 14  1  0  0  0  0
  5  4  1  0  0  0  0
  6 16  1  6  0  0  0
  6  5  1  0  0  0  0
  9  2  1  0  0  0  0
 11  3  1  0  0  0  0
 17 18  2  0  0  0  0
 19 17  1  0  0  0  0
 19  6  1  0  0  0  0
 20 19  1  0  0  0  0
 21 17  1  0  0  0  0
 22 21  1  0  0  0  0
 23 22  1  0  0  0  0
 24 23  1  0  0  0  0
 24 25  1  0  0  0  0
 25 26  1  0  0  0  0
 25 21  1  0  0  0  0
 27  1  1  0  0  0  0
 28 27  1  0  0  0  0
 28 33  1  0  0  0  0
 29 28  2  0  0  0  0
 30 31  2  0  0  0  0
 30 29  1  0  0  0  0
 31 32  1  0  0  0  0
 32 27  2  0  0  0  0
 34 29  1  0  0  0  0
 35 31  1  0  0  0  0
M  END
>  <minimizedAffinity>
-5.98113775

>  <minimizedRMSD>
0.645172417

$$$$
