
 OpenBabel03272507403D

 38 41  0  0  0  0  0  0  0  0999 V2000
   38.1780   32.2060   47.2930 C   0  0  0  0  0  0  0  0  0  0  0  0
   37.8000   32.6450   48.5480 C   0  0  0  0  0  0  0  0  0  0  0  0
   38.5590   33.5770   49.2380 C   0  0  0  0  0  0  0  0  0  0  0  0
   39.7190   34.0780   48.6520 C   0  0  0  0  0  0  0  0  0  0  0  0
   40.1030   33.6420   47.3920 C   0  0  0  0  0  0  0  0  0  0  0  0
   39.3110   32.7130   46.7530 C   0  0  0  0  0  0  0  0  0  0  0  0
   38.3120   33.9530   50.2160 H   0  0  0  0  0  0  0  0  0  0  0  0
   40.3280   34.8060   49.1700 H   0  0  0  0  0  0  0  0  0  0  0  0
   41.0050   34.0590   46.9850 H   0  0  0  0  0  0  0  0  0  0  0  0
   39.7360   32.2540   45.3980 C   0  0  0  0  0  0  0  0  0  0  0  0
   40.5540   31.2240   45.0460 C   0  0  0  0  0  0  0  0  0  0  0  0
   40.6340   31.2100   43.6630 C   0  0  0  0  0  0  0  0  0  0  0  0
   39.8350   32.2660   43.2510 C   0  0  0  0  0  0  0  0  0  0  0  0
   39.3150   32.8670   44.3040 O   0  0  0  0  0  0  0  0  0  0  0  0
   41.0390   30.5560   45.7400 H   0  0  0  0  0  0  0  0  0  0  0  0
   41.1970   30.5270   43.0340 H   0  0  0  0  0  0  0  0  0  0  0  0
   39.6530   32.5670   42.2160 H   0  0  0  0  0  0  0  0  0  0  0  0
   36.6760   30.4730   46.1350 N   0  0  0  0  0  0  0  0  0  0  0  0
   37.3430   31.2510   46.6610 C   0  0  0  0  0  0  0  0  0  0  0  0
   36.6720   32.2300   49.2490 O   0  0  0  0  0  0  0  0  0  0  0  0
   36.6430   31.1780   50.1000 C   0  0  0  0  0  0  0  0  0  0  0  0
   35.5380   30.3410   49.8560 C   0  0  0  0  0  0  0  0  0  0  0  0
   35.3350   29.2100   50.6250 C   0  0  0  0  0  0  0  0  0  0  0  0
   36.2400   28.9510   51.6090 N   0  0  0  0  0  0  0  0  0  0  0  0
   37.3020   29.7740   51.8270 C   0  0  0  0  0  0  0  0  0  0  0  0
   37.4810   30.8490   51.0850 N   0  0  0  0  0  0  0  0  0  0  0  0
   34.5130   28.5280   50.4920 H   0  0  0  0  0  0  0  0  0  0  0  0
   37.9630   29.4820   52.6310 H   0  0  0  0  0  0  0  0  0  0  0  0
   34.1980   29.4420   48.0390 C   0  0  0  0  0  0  0  0  0  0  0  0
   34.6520   28.2340   47.8670 O   0  0  0  0  0  0  0  0  0  0  0  0
   34.5610   30.5380   48.8630 N   0  0  0  0  0  0  0  0  0  0  0  0
   34.0270   31.4010   48.6140 H   0  0  0  0  0  0  0  0  0  0  0  0
   33.1170   29.4460   47.1090 N   0  0  0  0  0  0  0  0  0  0  0  0
   32.9030   30.5710   46.2180 C   0  0  0  0  0  0  0  0  0  0  0  0
   32.8870   29.8460   44.8680 C   0  0  0  0  0  0  0  0  0  0  0  0
   31.9230   28.7190   45.1790 C   0  0  0  0  0  0  0  0  0  0  0  0
   31.9980   28.5900   46.6890 C   0  0  0  0  0  0  0  0  0  0  0  0
   32.1450   27.5450   47.0040 H   0  0  0  0  0  0  0  0  0  0  0  0
  1  2  1  0  0  0  0
  2  3  2  0  0  0  0
  2 20  1  0  0  0  0
  3  7  1  0  0  0  0
  4  8  1  0  0  0  0
  4  3  1  0  0  0  0
  5  4  2  0  0  0  0
  6  1  2  0  0  0  0
  6  5  1  0  0  0  0
  9  5  1  0  0  0  0
 10  6  1  0  0  0  0
 11 10  2  0  0  0  0
 11 15  1  0  0  0  0
 12 11  1  0  0  0  0
 13 12  2  0  0  0  0
 13 14  1  0  0  0  0
 14 10  1  0  0  0  0
 16 12  1  0  0  0  0
 17 13  1  0  0  0  0
 18 19  3  0  0  0  0
 19  1  1  0  0  0  0
 20 21  1  0  0  0  0
 21 26  1  0  0  0  0
 22 21  2  0  0  0  0
 22 23  1  0  0  0  0
 23 24  2  0  0  0  0
 24 25  1  0  0  0  0
 25 28  1  0  0  0  0
 26 25  2  0  0  0  0
 27 23  1  0  0  0  0
 29 31  1  0  0  0  0
 30 29  2  0  0  0  0
 31 22  1  0  0  0  0
 32 31  1  0  0  0  0
 33 29  1  0  0  0  0
 34 33  1  0  0  0  0
 35 36  1  0  0  0  0
 35 34  1  0  0  0  0
 36 37  1  0  0  0  0
 37 38  1  0  0  0  0
 37 33  1  0  0  0  0
M  END
>  <minimizedAffinity>
-6.21465254

>  <minimizedRMSD>
0.292680502

$$$$
