
     RDKit          3D

 27 28  0  0  0  0  0  0  0  0999 V2000
   37.3911   30.1308   51.0951 C   0  0  0  0  0  0  0  0  0  0  0  0
   38.2277   30.8913   50.2564 C   0  0  0  0  0  0  0  0  0  0  0  0
   37.6922   31.4393   49.0929 C   0  0  0  0  0  0  0  0  0  0  0  0
   36.3644   31.2075   48.8216 N   0  0  0  0  0  0  0  0  0  0  0  0
   35.5872   30.4674   49.6561 C   0  0  0  0  0  0  0  0  0  0  0  0
   36.0983   29.9354   50.7813 N   0  0  0  0  0  0  0  0  0  0  0  0
   33.9120   28.8342   49.2021 C   0  0  0  0  0  0  0  0  0  0  0  0
   34.6941   27.8385   49.3193 O   0  0  0  0  0  0  0  0  0  0  0  0
   34.2064   30.2455   49.3425 N   0  0  0  0  0  0  0  0  0  0  0  0
   38.0577   29.6590   52.1978 O   0  0  0  0  0  0  0  0  0  0  0  0
   39.2591   31.0931   50.4313 H   0  0  0  0  0  0  0  0  0  0  0  0
   38.2523   32.0248   48.4059 H   0  0  0  0  0  0  0  0  0  0  0  0
   32.9252   28.4538   48.9660 H   0  0  0  0  0  0  0  0  0  0  0  0
   33.4200   30.8945   49.2056 H   0  0  0  0  0  0  0  0  0  0  0  0
   35.5522   28.7016   53.7515 H   0  0  0  0  0  0  0  0  0  0  0  0
   36.1492   28.6193   52.9131 N   0  0  0  0  0  0  0  0  0  0  0  0
   36.0823   27.3769   52.2108 C   0  0  0  0  0  0  0  0  0  0  0  0
   37.5092   26.9542   51.9079 C   0  0  0  0  0  0  0  0  0  0  0  0
   38.1987   27.5100   53.1620 C   0  0  0  0  0  0  0  0  0  0  0  0
   37.5515   28.8788   53.2313 C   0  0  1  0  0  0  0  0  0  0  0  0
   35.5653   26.5734   52.7939 H   0  0  0  0  0  0  0  0  0  0  0  0
   35.5492   27.5115   51.2344 H   0  0  0  0  0  0  0  0  0  0  0  0
   37.8594   27.5386   51.0462 H   0  0  0  0  0  0  0  0  0  0  0  0
   37.6234   25.8705   51.8041 H   0  0  0  0  0  0  0  0  0  0  0  0
   37.9683   26.8733   54.0431 H   0  0  0  0  0  0  0  0  0  0  0  0
   39.2816   27.6132   52.9978 H   0  0  0  0  0  0  0  0  0  0  0  0
   37.6184   29.3395   54.2371 H   0  0  0  0  0  0  0  0  0  0  0  0
  1 10  1  0
  2  1  2  0
  3  2  1  0
  4  3  2  0
  4  5  1  0
  5  6  2  0
  6  1  1  0
  7  8  2  0
  7  9  1  0
  9  5  1  0
  2 11  1  0
  3 12  1  0
  7 13  1  0
  9 14  1  0
 15 16  1  0
 16 17  1  0
 17 18  1  0
 18 19  1  0
 19 20  1  0
 20 16  1  0
 17 21  1  0
 17 22  1  0
 18 23  1  0
 18 24  1  0
 19 25  1  0
 19 26  1  0
 20 27  1  1
 10 20  1  0
M  ISO  4  11  14  12  14  13   6  15   5
M  END
>  <DihAtoms>  (1) 
0,9,19,18

>  <DihDeg>  (1) 
-127.50394662981131

$$$$
