
 OpenBabel03262522153D

 42 45  0  0  1  0  0  0  0  0999 V2000
   40.6490   33.0300   45.2410 S   0  0  0  0  0  0  0  0  0  0  0  0
   37.7800   31.7640   47.6650 C   0  0  0  0  0  0  0  0  0  0  0  0
   37.9320   32.5340   48.8190 C   0  0  0  0  0  0  0  0  0  0  0  0
   38.9330   33.4880   48.9120 C   0  0  0  0  0  0  0  0  0  0  0  0
   39.7510   33.6200   47.8010 C   0  0  0  0  0  0  0  0  0  0  0  0
   39.5720   32.8530   46.6940 C   0  0  0  0  0  0  0  0  0  0  0  0
   38.6010   31.9220   46.5970 N   0  0  0  0  0  0  0  0  0  0  0  0
   37.2760   32.4050   49.6670 H   0  0  0  0  0  0  0  0  0  0  0  0
   39.0880   34.1020   49.7770 H   0  0  0  0  0  0  0  0  0  0  0  0
   40.5630   34.3380   47.7740 H   0  0  0  0  0  0  0  0  0  0  0  0
   36.7120   30.7930   47.6540 C   0  0  0  0  0  0  0  0  0  0  0  0
   36.2280   30.3900   46.5980 O   0  0  0  0  0  0  0  0  0  0  0  0
   37.0380   29.6340   49.8080 C   0  0  0  0  0  0  0  0  0  0  0  0
   36.1460   30.2340   48.8950 C   0  0  0  0  0  0  0  0  0  0  0  0
   34.7710   30.2830   49.1810 C   0  0  0  0  0  0  0  0  0  0  0  0
   34.3360   29.7380   50.3590 N   0  0  0  0  0  0  0  0  0  0  0  0
   35.2170   29.1640   51.2260 C   0  0  0  0  0  0  0  0  0  0  0  0
   36.5130   29.1190   50.9530 N   0  0  0  0  0  0  0  0  0  0  0  0
   38.0930   29.5720   49.6340 H   0  0  0  0  0  0  0  0  0  0  0  0
   34.1340   30.7440   48.4670 H   0  0  0  0  0  0  0  0  0  0  0  0
   34.7260   28.7790   52.1080 H   0  0  0  0  0  0  0  0  0  0  0  0
   39.5590   32.9430   43.8000 C   0  0  0  0  0  0  0  0  0  0  0  0
   39.7030   33.8590   43.1790 H   0  0  0  0  0  0  0  0  0  0  0  0
   38.4860   32.8380   44.0540 H   0  0  0  0  0  0  0  0  0  0  0  0
   38.8430   29.7630   42.4070 C   0  0  1  0  0  0  0  0  0  0  0  0
   38.8250   31.2610   42.1200 C   0  0  0  0  0  0  0  0  0  0  0  0
   39.9580   31.7230   42.9900 C   0  0  2  0  0  0  0  0  0  0  0  0
   40.3530   30.6790   43.7850 O   0  0  0  0  0  0  0  0  0  0  0  0
   39.3130   29.7500   43.8350 C   0  0  0  0  0  0  0  0  0  0  0  0
   39.5270   29.2250   41.7480 H   0  0  0  0  0  0  0  0  0  0  0  0
   38.9520   31.5050   41.0570 H   0  0  0  0  0  0  0  0  0  0  0  0
   37.8840   31.6560   42.5700 H   0  0  0  0  0  0  0  0  0  0  0  0
   40.8180   32.0350   42.3370 H   0  0  0  0  0  0  0  0  0  0  0  0
   38.5130   30.0200   44.5290 H   0  0  0  0  0  0  0  0  0  0  0  0
   39.8130   28.7820   44.1100 H   0  0  0  0  0  0  0  0  0  0  0  0
   37.5590   29.2250   42.2770 O   0  0  0  0  0  0  0  0  0  0  0  0
   35.6030   27.2820   41.3940 H   0  0  0  0  0  0  0  0  0  0  0  0
   36.3540   27.7700   40.8380 N   0  0  0  0  0  0  0  0  0  0  0  0
   36.8430   26.7930   39.8530 C   0  0  0  0  0  2  0  0  0  0  0  0
   38.0820   27.5710   39.3850 C   0  0  0  0  0  2  0  0  0  0  0  0
   38.7330   27.7730   40.7550 C   0  0  0  0  0  2  0  0  0  0  0  0
   37.5260   28.0220   41.6250 C   0  0  1  0  0  3  0  0  0  0  0  0
  1  6  1  0  0  0  0
  2  3  1  0  0  0  0
  3  4  2  0  0  0  0
  3  8  1  0  0  0  0
  4  9  1  0  0  0  0
  5  4  1  0  0  0  0
  6  5  2  0  0  0  0
  7  6  1  0  0  0  0
  7  2  2  0  0  0  0
 10  5  1  0  0  0  0
 11  2  1  0  0  0  0
 11 14  1  0  0  0  0
 12 11  2  0  0  0  0
 13 18  1  0  0  0  0
 14 15  1  0  0  0  0
 14 13  2  0  0  0  0
 15 16  2  0  0  0  0
 16 17  1  0  0  0  0
 17 21  1  0  0  0  0
 18 17  2  0  0  0  0
 19 13  1  0  0  0  0
 20 15  1  0  0  0  0
 22 24  1  0  0  0  0
 22  1  1  0  0  0  0
 23 22  1  0  0  0  0
 25 30  1  6  0  0  0
 25 29  1  0  0  0  0
 26 25  1  0  0  0  0
 26 32  1  0  0  0  0
 26 27  1  0  0  0  0
 27 33  1  6  0  0  0
 27 28  1  0  0  0  0
 27 22  1  0  0  0  0
 28 29  1  0  0  0  0
 29 35  1  0  0  0  0
 29 34  1  0  0  0  0
 31 26  1  0  0  0  0
 36 25  1  0  0  0  0
 38 37  1  0  0  0  0
 38 42  1  0  0  0  0
 39 38  1  0  0  0  0
 40 39  1  0  0  0  0
 40 41  1  0  0  0  0
 41 42  1  0  0  0  0
 42 36  1  6  0  0  0
M  END
>  <minimizedAffinity>
-5.08194494

>  <minimizedRMSD>
0.29829821

$$$$
