
 OpenBabel03262521303D

 28 30  0  0  1  0  0  0  0  0999 V2000
   38.4860   31.8040   48.4100 C   0  0  1  0  0  0  0  0  0  0  0  0
   38.0340   30.3740   48.5010 C   0  0  2  0  0  0  0  0  0  0  0  0
   38.0380   29.8290   47.2350 O   0  0  0  0  0  0  0  0  0  0  0  0
   38.9250   30.5920   46.4710 C   0  0  0  0  0  0  0  0  0  0  0  0
   38.5710   31.9990   46.9250 C   0  0  2  0  0  0  0  0  0  0  0  0
   39.5420   31.9240   48.7910 H   0  0  0  0  0  0  0  0  0  0  0  0
   38.7730   29.8250   49.1210 H   0  0  0  0  0  0  0  0  0  0  0  0
   39.9770   30.3310   46.6460 H   0  0  0  0  0  0  0  0  0  0  0  0
   38.6200   30.4700   45.4020 H   0  0  0  0  0  0  0  0  0  0  0  0
   37.5950   32.2550   46.4730 H   0  0  0  0  0  0  0  0  0  0  0  0
   35.3050   29.3800   50.9230 C   0  0  0  0  0  0  0  0  0  0  0  0
   36.6090   29.5210   50.3820 C   0  0  0  0  0  0  0  0  0  0  0  0
   36.7240   30.1800   49.1580 C   0  0  0  0  0  0  0  0  0  0  0  0
   35.5880   30.6600   48.5360 N   0  0  0  0  0  0  0  0  0  0  0  0
   34.3690   30.5000   49.0920 C   0  0  0  0  0  0  0  0  0  0  0  0
   34.2300   29.8680   50.2710 N   0  0  0  0  0  0  0  0  0  0  0  0
   35.1920   28.8730   51.8690 H   0  0  0  0  0  0  0  0  0  0  0  0
   37.4630   29.1410   50.8860 H   0  0  0  0  0  0  0  0  0  0  0  0
   33.5420   30.9050   48.5370 H   0  0  0  0  0  0  0  0  0  0  0  0
   37.7210   32.7030   49.0760 O   0  0  0  0  0  0  0  0  0  0  0  0
   38.0960   32.9810   49.9390 H   0  0  0  0  0  0  0  0  0  0  0  0
   39.5000   32.9330   46.5530 O   0  0  0  0  0  0  0  0  0  0  0  0
   40.8220   33.8890   43.8430 H   0  0  0  0  0  0  0  0  0  0  0  0
   40.5450   33.1010   44.4870 N   0  0  0  0  0  0  0  0  0  0  0  0
   40.2350   31.9110   43.7200 C   0  0  0  0  0  0  0  0  0  0  0  0
   38.8120   32.2290   43.2620 C   0  0  0  0  0  0  0  0  0  0  0  0
   38.2130   32.6150   44.6210 C   0  0  0  0  0  0  0  0  0  0  0  0
   39.3700   33.3850   45.2570 C   0  0  1  0  0  0  0  0  0  0  0  0
  1  2  1  0  0  0  0
  1  6  1  1  0  0  0
  1 20  1  0  0  0  0
  2  7  1  1  0  0  0
  2 13  1  0  0  0  0
  3  2  1  0  0  0  0
  4  8  1  0  0  0  0
  4  5  1  0  0  0  0
  4  3  1  0  0  0  0
  5 10  1  6  0  0  0
  5  1  1  0  0  0  0
  9  4  1  0  0  0  0
 11 17  1  0  0  0  0
 12 18  1  0  0  0  0
 12 11  1  0  0  0  0
 13 12  2  0  0  0  0
 14 15  2  0  0  0  0
 14 13  1  0  0  0  0
 15 16  1  0  0  0  0
 16 11  2  0  0  0  0
 19 15  1  0  0  0  0
 20 21  1  0  0  0  0
 22  5  1  0  0  0  0
 23 24  1  0  0  0  0
 24 28  1  0  0  0  0
 25 24  1  0  0  0  0
 26 25  1  0  0  0  0
 26 27  1  0  0  0  0
 27 28  1  0  0  0  0
 28 22  1  1  0  0  0
M  END
>  <minimizedAffinity>
-4.21414185

>  <minimizedRMSD>
2.37905931

$$$$
