
     RDKit          3D

 37 39  0  0  0  0  0  0  0  0999 V2000
   37.2649   29.6686   51.4136 C   0  0  0  0  0  0  0  0  0  0  0  0
   38.0055   30.2059   50.3576 C   0  0  0  0  0  0  0  0  0  0  0  0
   37.3818   30.6073   49.1609 C   0  0  0  0  0  0  0  0  0  0  0  0
   36.0458   30.4388   49.1097 N   0  0  0  0  0  0  0  0  0  0  0  0
   35.3517   29.9182   50.1407 C   0  0  0  0  0  0  0  0  0  0  0  0
   35.9426   29.5457   51.2555 N   0  0  0  0  0  0  0  0  0  0  0  0
   33.6486   28.5967   49.1986 C   0  0  0  0  0  0  0  0  0  0  0  0
   34.4122   27.6235   48.9316 O   0  0  0  0  0  0  0  0  0  0  0  0
   33.9538   29.8524   49.8162 N   0  0  0  0  0  0  0  0  0  0  0  0
   38.4329   33.2950   49.7038 Cl  0  0  0  0  0  0  0  0  0  0  0  0
   38.6860   32.4234   48.2207 C   0  0  0  0  0  0  0  0  0  0  0  0
   38.1473   31.1649   48.0637 C   0  0  0  0  0  0  0  0  0  0  0  0
   38.3825   30.5244   46.8554 C   0  0  0  0  0  0  0  0  0  0  0  0
   39.1173   31.1030   45.8481 C   0  0  0  0  0  0  0  0  0  0  0  0
   39.6390   32.3641   46.0456 C   0  0  0  0  0  0  0  0  0  0  0  0
   40.5539   33.0274   44.7194 Cl  0  0  0  0  0  0  0  0  0  0  0  0
   39.4284   33.0349   47.2330 C   0  0  0  0  0  0  0  0  0  0  0  0
   39.9750   34.3189   47.4038 O   0  0  0  0  0  0  0  0  0  0  0  0
   37.7346   29.3601   52.3299 H   0  0  0  0  0  0  0  0  0  0  0  0
   39.0768   30.3093   50.4764 H   0  0  0  0  0  0  0  0  0  0  0  0
   32.6687   28.2877   48.8552 H   0  0  0  0  0  0  0  0  0  0  0  0
   33.1933   30.5119   49.9458 H   0  0  0  0  0  0  0  0  0  0  0  0
   37.9350   29.5239   46.7736 H   0  0  0  0  0  0  0  0  0  0  0  0
   39.2583   30.5478   44.9396 H   0  0  0  0  0  0  0  0  0  0  0  0
   42.6805   33.6543   46.5966 H   0  0  0  0  0  0  0  0  0  0  0  0
   42.2750   34.5591   46.9213 N   0  0  0  0  0  0  0  0  0  0  0  0
   43.3059   35.3949   47.5514 C   0  0  0  0  0  0  0  0  0  0  0  0
   42.4212   36.4141   48.2395 C   0  0  0  0  0  0  0  0  0  0  0  0
   41.4705   35.4574   48.9652 C   0  0  0  0  0  0  0  0  0  0  0  0
   41.2795   34.3705   47.9595 C   0  0  1  0  0  0  0  0  0  0  0  0
   43.9672   35.8497   46.8022 H   0  0  0  0  0  0  0  0  0  0  0  0
   43.8391   34.8324   48.3565 H   0  0  0  0  0  0  0  0  0  0  0  0
   41.8541   36.9294   47.4344 H   0  0  0  0  0  0  0  0  0  0  0  0
   42.9732   37.0720   48.9127 H   0  0  0  0  0  0  0  0  0  0  0  0
   40.5716   35.9634   49.3130 H   0  0  0  0  0  0  0  0  0  0  0  0
   42.0344   35.1242   49.8742 H   0  0  0  0  0  0  0  0  0  0  0  0
   41.5337   33.3739   48.4249 H   0  0  0  0  0  0  0  0  0  0  0  0
  2  1  2  0
  3  2  1  0
  4  3  2  0
  4  5  1  0
  5  6  2  0
  6  1  1  0
  7  9  1  0
  8  7  2  0
  9  5  1  0
 11 10  1  0
 12 11  2  0
 12  3  1  0
 13 12  1  0
 14 15  1  0
 14 13  2  0
 15 17  2  0
 16 15  1  0
 17 18  1  0
 17 11  1  0
  1 19  1  0
  2 20  1  0
  7 21  1  0
  9 22  1  0
 13 23  1  0
 14 24  1  0
 25 26  1  0
 26 27  1  0
 27 28  1  0
 28 29  1  0
 29 30  1  0
 30 26  1  0
 27 31  1  0
 27 32  1  0
 28 33  1  0
 28 34  1  0
 29 35  1  0
 29 36  1  0
 30 37  1  1
 18 30  1  0
M  ISO  6  19  14  20  14  21   6  23  14  24  14  25   5
M  END
>  <DihAtoms>  (1) 
16,17,29,28

>  <DihDeg>  (1) 
-123.81600960096237

$$$$
