
 OpenBabel03272503253D

 29 31  0  0  1  0  0  0  0  0999 V2000
   38.3070   25.6700   33.0740 N   0  0  0  0  0  0  0  0  0  0  0  0
   39.4090   25.5380   34.0020 C   0  0  1  0  0  0  0  0  0  0  0  0
   40.3060   26.6900   33.5450 C   0  0  0  0  0  0  0  0  0  0  0  0
   39.6830   27.2590   32.2820 C   0  0  0  0  0  0  0  0  0  0  0  0
   38.2200   27.0480   32.6370 C   0  0  0  0  0  0  0  0  0  0  0  0
   39.9790   24.5980   33.8730 H   0  0  0  0  0  0  0  0  0  0  0  0
   40.2280   27.5070   34.3030 H   0  0  0  0  0  0  0  0  0  0  0  0
   41.3430   26.3600   33.3870 H   0  0  0  0  0  0  0  0  0  0  0  0
   39.9290   28.3110   32.1380 H   0  0  0  0  0  0  0  0  0  0  0  0
   39.9380   26.6750   31.3860 H   0  0  0  0  0  0  0  0  0  0  0  0
   37.9100   27.7550   33.4240 H   0  0  0  0  0  0  0  0  0  0  0  0
   37.6430   27.1620   31.7070 H   0  0  0  0  0  0  0  0  0  0  0  0
   37.4560   24.6000   32.6720 C   0  0  0  0  0  0  0  0  0  0  0  0
   36.3740   24.8680   31.8580 C   0  0  0  0  0  0  0  0  0  0  0  0
   35.5260   23.8620   31.4200 C   0  0  0  0  0  0  0  0  0  0  0  0
   35.8370   22.5990   31.8480 N   0  0  0  0  0  0  0  0  0  0  0  0
   36.8980   22.3430   32.6450 C   0  0  0  0  0  0  0  0  0  0  0  0
   37.7250   23.3520   33.0670 N   0  0  0  0  0  0  0  0  0  0  0  0
   36.1460   25.8610   31.5340 H   0  0  0  0  0  0  0  0  0  0  0  0
   34.6800   24.0710   30.7830 H   0  0  0  0  0  0  0  0  0  0  0  0
   37.0900   21.3350   32.9480 H   0  0  0  0  0  0  0  0  0  0  0  0
   39.0110   25.6280   35.4130 C   0  0  0  0  0  0  0  0  0  0  0  0
   38.9040   26.8290   35.7840 O   0  0  0  0  0  0  0  0  0  0  0  0
   38.7360   24.6100   36.4110 N   0  0  0  0  0  0  0  0  0  0  0  0
   37.9180   24.4690   37.6000 C   0  0  0  0  0  2  0  0  0  0  0  0
   38.4420   23.3540   38.4340 C   0  0  0  0  0  2  0  0  0  0  0  0
   39.6830   22.9090   37.7410 C   0  0  0  0  0  2  0  0  0  0  0  0
   39.4030   23.2980   36.3030 C   0  0  0  0  0  3  0  0  0  0  0  0
   38.7210   22.5260   35.8910 H   0  0  0  0  0  0  0  0  0  0  0  0
  1  2  1  0  0  0  0
  2  6  1  6  0  0  0
  2 22  1  0  0  0  0
  3  2  1  0  0  0  0
  3  7  1  0  0  0  0
  4  5  1  0  0  0  0
  4  3  1  0  0  0  0
  5  1  1  0  0  0  0
  5 11  1  0  0  0  0
  8  3  1  0  0  0  0
  9  4  1  0  0  0  0
 10  4  1  0  0  0  0
 12  5  1  0  0  0  0
 13 18  1  0  0  0  0
 13  1  1  0  0  0  0
 14 13  2  0  0  0  0
 15 16  2  0  0  0  0
 15 14  1  0  0  0  0
 16 17  1  0  0  0  0
 17 21  1  0  0  0  0
 17 18  2  0  0  0  0
 19 14  1  0  0  0  0
 20 15  1  0  0  0  0
 22 23  2  0  0  0  0
 22 24  1  0  0  0  0
 24 25  1  0  0  0  0
 25 26  1  0  0  0  0
 27 26  1  0  0  0  0
 28 24  1  0  0  0  0
 28 27  1  0  0  0  0
 29 28  1  0  0  0  0
M  END
>  <minimizedAffinity>
-4.90171289

$$$$

 OpenBabel03272503253D

 29 31  0  0  1  0  0  0  0  0999 V2000
   38.1040   23.0530   36.3250 N   0  0  0  0  0  0  0  0  0  0  0  0
   37.6620   24.3850   36.6790 C   0  0  1  0  0  0  0  0  0  0  0  0
   38.2620   24.5190   38.0800 C   0  0  0  0  0  0  0  0  0  0  0  0
   38.8500   23.1660   38.4400 C   0  0  0  0  0  0  0  0  0  0  0  0
   39.3160   22.7470   37.0550 C   0  0  0  0  0  0  0  0  0  0  0  0
   36.5620   24.4690   36.7760 H   0  0  0  0  0  0  0  0  0  0  0  0
   39.1380   25.2100   38.0140 H   0  0  0  0  0  0  0  0  0  0  0  0
   37.5140   24.8570   38.8120 H   0  0  0  0  0  0  0  0  0  0  0  0
   39.6750   23.2490   39.1490 H   0  0  0  0  0  0  0  0  0  0  0  0
   38.0910   22.4610   38.8080 H   0  0  0  0  0  0  0  0  0  0  0  0
   40.1930   23.3410   36.7480 H   0  0  0  0  0  0  0  0  0  0  0  0
   39.5240   21.6680   37.0970 H   0  0  0  0  0  0  0  0  0  0  0  0
   37.4360   22.1990   35.3990 C   0  0  0  0  0  0  0  0  0  0  0  0
   36.3760   21.4300   35.8340 C   0  0  0  0  0  0  0  0  0  0  0  0
   35.6770   20.5990   34.9730 C   0  0  0  0  0  0  0  0  0  0  0  0
   36.1110   20.5960   33.6740 N   0  0  0  0  0  0  0  0  0  0  0  0
   37.1500   21.3510   33.2530 C   0  0  0  0  0  0  0  0  0  0  0  0
   37.8280   22.1670   34.1220 N   0  0  0  0  0  0  0  0  0  0  0  0
   36.0520   21.4460   36.8530 H   0  0  0  0  0  0  0  0  0  0  0  0
   34.8470   19.9970   35.3130 H   0  0  0  0  0  0  0  0  0  0  0  0
   37.4430   21.3060   32.2250 H   0  0  0  0  0  0  0  0  0  0  0  0
   38.1090   25.4270   35.7460 C   0  0  0  0  0  0  0  0  0  0  0  0
   37.1330   26.0890   35.2970 O   0  0  0  0  0  0  0  0  0  0  0  0
   39.4280   25.8040   35.2730 N   0  0  0  0  0  0  0  0  0  0  0  0
   40.0930   27.0020   34.7960 C   0  0  0  0  0  2  0  0  0  0  0  0
   41.3060   26.6210   34.0220 C   0  0  0  0  0  2  0  0  0  0  0  0
   41.2700   25.1330   33.9630 C   0  0  0  0  0  2  0  0  0  0  0  0
   40.4910   24.7830   35.2150 C   0  0  0  0  0  3  0  0  0  0  0  0
   41.1960   24.8780   36.0660 H   0  0  0  0  0  0  0  0  0  0  0  0
  1  2  1  0  0  0  0
  1  5  1  0  0  0  0
  2  6  1  1  0  0  0
  2  3  1  0  0  0  0
  3  4  1  0  0  0  0
  3  8  1  0  0  0  0
  4 10  1  0  0  0  0
  4  9  1  0  0  0  0
  5 12  1  0  0  0  0
  5  4  1  0  0  0  0
  7  3  1  0  0  0  0
 11  5  1  0  0  0  0
 13 14  1  0  0  0  0
 13  1  1  0  0  0  0
 14 19  1  0  0  0  0
 15 20  1  0  0  0  0
 15 14  2  0  0  0  0
 16 15  1  0  0  0  0
 17 16  2  0  0  0  0
 17 18  1  0  0  0  0
 18 13  2  0  0  0  0
 21 17  1  0  0  0  0
 22  2  1  0  0  0  0
 23 22  2  0  0  0  0
 24 22  1  0  0  0  0
 25 24  1  0  0  0  0
 26 25  1  0  0  0  0
 27 26  1  0  0  0  0
 27 28  1  0  0  0  0
 28 24  1  0  0  0  0
 28 29  1  0  0  0  0
M  END
>  <minimizedAffinity>
-4.73600197

$$$$

 OpenBabel03272503253D

 29 31  0  0  1  0  0  0  0  0999 V2000
   39.9160   25.2270   34.7640 N   0  0  0  0  0  0  0  0  0  0  0  0
   39.0360   25.9650   33.8850 C   0  0  1  0  0  0  0  0  0  0  0  0
   40.0030   27.0130   33.3290 C   0  0  0  0  0  0  0  0  0  0  0  0
   41.3080   26.8560   34.0900 C   0  0  0  0  0  0  0  0  0  0  0  0
   41.2760   25.3470   34.2830 C   0  0  0  0  0  0  0  0  0  0  0  0
   38.2310   26.5030   34.4220 H   0  0  0  0  0  0  0  0  0  0  0  0
   40.2430   26.7330   32.2750 H   0  0  0  0  0  0  0  0  0  0  0  0
   39.5920   28.0290   33.4120 H   0  0  0  0  0  0  0  0  0  0  0  0
   42.1690   27.1820   33.5050 H   0  0  0  0  0  0  0  0  0  0  0  0
   41.2900   27.3580   35.0680 H   0  0  0  0  0  0  0  0  0  0  0  0
   41.4660   24.8340   33.3260 H   0  0  0  0  0  0  0  0  0  0  0  0
   42.0220   25.1060   35.0550 H   0  0  0  0  0  0  0  0  0  0  0  0
   39.4880   24.5020   35.9140 C   0  0  0  0  0  0  0  0  0  0  0  0
   38.3180   24.8710   36.5480 C   0  0  0  0  0  0  0  0  0  0  0  0
   37.8440   24.1880   37.6570 C   0  0  0  0  0  0  0  0  0  0  0  0
   38.6120   23.1330   38.0740 N   0  0  0  0  0  0  0  0  0  0  0  0
   39.7570   22.7770   37.4500 C   0  0  0  0  0  0  0  0  0  0  0  0
   40.2080   23.4660   36.3540 N   0  0  0  0  0  0  0  0  0  0  0  0
   37.7310   25.6970   36.2070 H   0  0  0  0  0  0  0  0  0  0  0  0
   36.9280   24.4750   38.1520 H   0  0  0  0  0  0  0  0  0  0  0  0
   40.3150   21.9440   37.8230 H   0  0  0  0  0  0  0  0  0  0  0  0
   38.4050   25.1400   32.8470 C   0  0  0  0  0  0  0  0  0  0  0  0
   39.2110   24.2830   32.3900 O   0  0  0  0  0  0  0  0  0  0  0  0
   37.0690   25.1470   32.2810 N   0  0  0  0  0  0  0  0  0  0  0  0
   36.1570   24.1960   31.6730 C   0  0  0  0  0  2  0  0  0  0  0  0
   35.1340   24.9270   30.8770 C   0  0  0  0  0  2  0  0  0  0  0  0
   35.5470   26.3570   30.9460 C   0  0  0  0  0  2  0  0  0  0  0  0
   36.3030   26.4080   32.2590 C   0  0  0  0  0  3  0  0  0  0  0  0
   35.5400   26.4370   33.0640 H   0  0  0  0  0  0  0  0  0  0  0  0
  1 13  1  0  0  0  0
  2  6  1  1  0  0  0
  2  1  1  0  0  0  0
  3  8  1  0  0  0  0
  3  2  1  0  0  0  0
  3  4  1  0  0  0  0
  4  5  1  0  0  0  0
  4 10  1  0  0  0  0
  5  1  1  0  0  0  0
  5 12  1  0  0  0  0
  7  3  1  0  0  0  0
  9  4  1  0  0  0  0
 11  5  1  0  0  0  0
 13 18  2  0  0  0  0
 13 14  1  0  0  0  0
 14 15  2  0  0  0  0
 15 16  1  0  0  0  0
 15 20  1  0  0  0  0
 17 21  1  0  0  0  0
 17 16  2  0  0  0  0
 18 17  1  0  0  0  0
 19 14  1  0  0  0  0
 22  2  1  0  0  0  0
 23 22  2  0  0  0  0
 24 22  1  0  0  0  0
 25 24  1  0  0  0  0
 26 27  1  0  0  0  0
 26 25  1  0  0  0  0
 27 28  1  0  0  0  0
 28 24  1  0  0  0  0
 28 29  1  0  0  0  0
M  END
>  <minimizedAffinity>
-4.6562295

$$$$

 OpenBabel03272503253D

 29 31  0  0  1  0  0  0  0  0999 V2000
   36.9950   25.4990   32.4070 N   0  0  0  0  0  0  0  0  0  0  0  0
   36.0260   24.5400   31.9230 C   0  0  1  0  0  0  0  0  0  0  0  0
   35.3390   25.3580   30.8270 C   0  0  0  0  0  0  0  0  0  0  0  0
   35.8900   26.7700   30.9200 C   0  0  0  0  0  0  0  0  0  0  0  0
   37.3110   26.4310   31.3440 C   0  0  0  0  0  0  0  0  0  0  0  0
   35.2580   24.2760   32.6750 H   0  0  0  0  0  0  0  0  0  0  0  0
   35.6900   24.9710   29.8390 H   0  0  0  0  0  0  0  0  0  0  0  0
   34.2440   25.3300   30.9250 H   0  0  0  0  0  0  0  0  0  0  0  0
   35.8550   27.2910   29.9630 H   0  0  0  0  0  0  0  0  0  0  0  0
   35.3980   27.3640   31.7040 H   0  0  0  0  0  0  0  0  0  0  0  0
   37.8670   25.9860   30.5020 H   0  0  0  0  0  0  0  0  0  0  0  0
   37.7670   27.3600   31.7160 H   0  0  0  0  0  0  0  0  0  0  0  0
   37.5380   25.5050   33.7240 C   0  0  0  0  0  0  0  0  0  0  0  0
   37.5020   26.6690   34.4650 C   0  0  0  0  0  0  0  0  0  0  0  0
   37.9970   26.7250   35.7590 C   0  0  0  0  0  0  0  0  0  0  0  0
   38.5180   25.5550   36.2420 N   0  0  0  0  0  0  0  0  0  0  0  0
   38.5510   24.4180   35.5130 C   0  0  0  0  0  0  0  0  0  0  0  0
   38.0560   24.3840   34.2350 N   0  0  0  0  0  0  0  0  0  0  0  0
   37.0910   27.5740   34.0700 H   0  0  0  0  0  0  0  0  0  0  0  0
   37.9680   27.6360   36.3380 H   0  0  0  0  0  0  0  0  0  0  0  0
   38.9720   23.5340   35.9460 H   0  0  0  0  0  0  0  0  0  0  0  0
   36.6220   23.2890   31.4350 C   0  0  0  0  0  0  0  0  0  0  0  0
   37.4160   23.5020   30.4770 O   0  0  0  0  0  0  0  0  0  0  0  0
   36.4550   21.9090   31.8500 N   0  0  0  0  0  0  0  0  0  0  0  0
   37.2400   20.6890   31.8550 C   0  0  0  0  0  2  0  0  0  0  0  0
   36.3330   19.5150   31.9780 C   0  0  0  0  0  2  0  0  0  0  0  0
   34.9590   20.0880   31.9310 C   0  0  0  0  0  2  0  0  0  0  0  0
   35.1790   21.4900   32.4620 C   0  0  0  0  0  3  0  0  0  0  0  0
   35.2630   21.4040   33.5640 H   0  0  0  0  0  0  0  0  0  0  0  0
  1 13  1  0  0  0  0
  2  1  1  0  0  0  0
  2  6  1  1  0  0  0
  3  4  1  0  0  0  0
  3  8  1  0  0  0  0
  3  2  1  0  0  0  0
  4  5  1  0  0  0  0
  4 10  1  0  0  0  0
  5 12  1  0  0  0  0
  5  1  1  0  0  0  0
  7  3  1  0  0  0  0
  9  4  1  0  0  0  0
 11  5  1  0  0  0  0
 13 18  2  0  0  0  0
 13 14  1  0  0  0  0
 14 15  2  0  0  0  0
 15 16  1  0  0  0  0
 15 20  1  0  0  0  0
 17 21  1  0  0  0  0
 17 16  2  0  0  0  0
 18 17  1  0  0  0  0
 19 14  1  0  0  0  0
 22 24  1  0  0  0  0
 22  2  1  0  0  0  0
 23 22  2  0  0  0  0
 24 25  1  0  0  0  0
 24 28  1  0  0  0  0
 25 26  1  0  0  0  0
 27 26  1  0  0  0  0
 27 28  1  0  0  0  0
 28 29  1  0  0  0  0
M  END
>  <minimizedAffinity>
-4.60525942

$$$$

 OpenBabel03272503253D

 29 31  0  0  1  0  0  0  0  0999 V2000
   36.8380   28.0790   32.1600 N   0  0  0  0  0  0  0  0  0  0  0  0
   37.3300   27.5600   33.4180 C   0  0  1  0  0  0  0  0  0  0  0  0
   36.4060   28.2820   34.4020 C   0  0  0  0  0  0  0  0  0  0  0  0
   35.5860   29.2720   33.5930 C   0  0  0  0  0  0  0  0  0  0  0  0
   35.4500   28.4600   32.3150 C   0  0  0  0  0  0  0  0  0  0  0  0
   38.3680   27.8710   33.6430 H   0  0  0  0  0  0  0  0  0  0  0  0
   35.6680   27.5370   34.7890 H   0  0  0  0  0  0  0  0  0  0  0  0
   36.9730   28.7700   35.2080 H   0  0  0  0  0  0  0  0  0  0  0  0
   34.6220   29.4850   34.0560 H   0  0  0  0  0  0  0  0  0  0  0  0
   36.1330   30.2030   33.3880 H   0  0  0  0  0  0  0  0  0  0  0  0
   34.7610   27.6130   32.4690 H   0  0  0  0  0  0  0  0  0  0  0  0
   35.1090   29.1510   31.5290 H   0  0  0  0  0  0  0  0  0  0  0  0
   37.6150   28.1850   30.9700 C   0  0  0  0  0  0  0  0  0  0  0  0
   37.0340   28.6940   29.8260 C   0  0  0  0  0  0  0  0  0  0  0  0
   37.7500   28.8380   28.6480 C   0  0  0  0  0  0  0  0  0  0  0  0
   39.0600   28.4450   28.7010 N   0  0  0  0  0  0  0  0  0  0  0  0
   39.6250   27.9470   29.8240 C   0  0  0  0  0  0  0  0  0  0  0  0
   38.8990   27.8120   30.9790 N   0  0  0  0  0  0  0  0  0  0  0  0
   36.0090   28.9960   29.8040 H   0  0  0  0  0  0  0  0  0  0  0  0
   37.2950   29.2370   27.7530 H   0  0  0  0  0  0  0  0  0  0  0  0
   40.6540   27.6550   29.8030 H   0  0  0  0  0  0  0  0  0  0  0  0
   37.2690   26.0970   33.5220 C   0  0  0  0  0  0  0  0  0  0  0  0
   36.5530   25.6020   32.6080 O   0  0  0  0  0  0  0  0  0  0  0  0
   37.8660   25.1650   34.4600 N   0  0  0  0  0  0  0  0  0  0  0  0
   38.3170   23.7860   34.4620 C   0  0  0  0  0  2  0  0  0  0  0  0
   38.3920   23.2890   35.8620 C   0  0  0  0  0  2  0  0  0  0  0  0
   37.8540   24.4030   36.6920 C   0  0  0  0  0  2  0  0  0  0  0  0
   38.1580   25.6160   35.8350 C   0  0  0  0  0  3  0  0  0  0  0  0
   39.2360   25.8400   35.9710 H   0  0  0  0  0  0  0  0  0  0  0  0
  1  5  1  0  0  0  0
  1  2  1  0  0  0  0
  2 22  1  0  0  0  0
  2  6  1  1  0  0  0
  2  3  1  0  0  0  0
  3  7  1  0  0  0  0
  3  8  1  0  0  0  0
  4  9  1  0  0  0  0
  4  3  1  0  0  0  0
  5 11  1  0  0  0  0
  5  4  1  0  0  0  0
 10  4  1  0  0  0  0
 12  5  1  0  0  0  0
 13 18  1  0  0  0  0
 13  1  1  0  0  0  0
 14 13  2  0  0  0  0
 15 16  2  0  0  0  0
 15 14  1  0  0  0  0
 16 17  1  0  0  0  0
 17 18  2  0  0  0  0
 19 14  1  0  0  0  0
 20 15  1  0  0  0  0
 21 17  1  0  0  0  0
 22 24  1  0  0  0  0
 23 22  2  0  0  0  0
 24 25  1  0  0  0  0
 24 28  1  0  0  0  0
 25 26  1  0  0  0  0
 26 27  1  0  0  0  0
 28 29  1  0  0  0  0
 28 27  1  0  0  0  0
M  END
>  <minimizedAffinity>
-4.56002235

$$$$

 OpenBabel03272503253D

 29 31  0  0  1  0  0  0  0  0999 V2000
   38.5070   25.7880   35.3440 N   0  0  0  0  0  0  0  0  0  0  0  0
   37.5170   25.6890   34.2930 C   0  0  1  0  0  0  0  0  0  0  0  0
   37.0220   27.1350   34.2330 C   0  0  0  0  0  0  0  0  0  0  0  0
   37.6770   27.8750   35.3860 C   0  0  0  0  0  0  0  0  0  0  0  0
   39.0110   27.1450   35.3930 C   0  0  0  0  0  0  0  0  0  0  0  0
   36.6540   25.0500   34.5640 H   0  0  0  0  0  0  0  0  0  0  0  0
   37.4400   27.6030   33.3080 H   0  0  0  0  0  0  0  0  0  0  0  0
   35.9240   27.1910   34.2720 H   0  0  0  0  0  0  0  0  0  0  0  0
   37.7870   28.9410   35.1830 H   0  0  0  0  0  0  0  0  0  0  0  0
   37.1570   27.7130   36.3410 H   0  0  0  0  0  0  0  0  0  0  0  0
   39.6130   27.4370   34.5170 H   0  0  0  0  0  0  0  0  0  0  0  0
   39.5020   27.3800   36.3480 H   0  0  0  0  0  0  0  0  0  0  0  0
   38.9070   24.7080   36.1820 C   0  0  0  0  0  0  0  0  0  0  0  0
   38.1820   24.4360   37.3250 C   0  0  0  0  0  0  0  0  0  0  0  0
   38.5130   23.3840   38.1650 C   0  0  0  0  0  0  0  0  0  0  0  0
   39.6000   22.6430   37.7830 N   0  0  0  0  0  0  0  0  0  0  0  0
   40.3060   22.9140   36.6630 C   0  0  0  0  0  0  0  0  0  0  0  0
   39.9610   23.9590   35.8450 N   0  0  0  0  0  0  0  0  0  0  0  0
   37.3360   25.0260   37.6080 H   0  0  0  0  0  0  0  0  0  0  0  0
   37.9460   23.1710   39.0590 H   0  0  0  0  0  0  0  0  0  0  0  0
   41.1470   22.2990   36.4170 H   0  0  0  0  0  0  0  0  0  0  0  0
   38.0530   25.1980   33.0170 C   0  0  0  0  0  0  0  0  0  0  0  0
   38.0110   23.9380   32.9560 O   0  0  0  0  0  0  0  0  0  0  0  0
   38.6020   25.8890   31.8650 N   0  0  0  0  0  0  0  0  0  0  0  0
   38.7110   25.6700   30.4350 C   0  0  0  0  0  2  0  0  0  0  0  0
   39.7980   26.5240   29.8830 C   0  0  0  0  0  2  0  0  0  0  0  0
   40.4090   27.1800   31.0730 C   0  0  0  0  0  2  0  0  0  0  0  0
   39.2560   27.1980   32.0560 C   0  0  0  0  0  3  0  0  0  0  0  0
   38.5930   28.0350   31.7530 H   0  0  0  0  0  0  0  0  0  0  0  0
  1  5  1  0  0  0  0
  1 13  1  0  0  0  0
  2  6  1  1  0  0  0
  2  1  1  0  0  0  0
  3  8  1  0  0  0  0
  3  2  1  0  0  0  0
  3  4  1  0  0  0  0
  4  5  1  0  0  0  0
  4 10  1  0  0  0  0
  5 12  1  0  0  0  0
  7  3  1  0  0  0  0
  9  4  1  0  0  0  0
 11  5  1  0  0  0  0
 13 14  1  0  0  0  0
 14 19  1  0  0  0  0
 14 15  2  0  0  0  0
 15 20  1  0  0  0  0
 16 15  1  0  0  0  0
 17 16  2  0  0  0  0
 18 13  2  0  0  0  0
 18 17  1  0  0  0  0
 21 17  1  0  0  0  0
 22  2  1  0  0  0  0
 23 22  2  0  0  0  0
 24 28  1  0  0  0  0
 24 22  1  0  0  0  0
 25 24  1  0  0  0  0
 26 25  1  0  0  0  0
 26 27  1  0  0  0  0
 27 28  1  0  0  0  0
 29 28  1  0  0  0  0
M  END
>  <minimizedAffinity>
-4.53874207

$$$$

 OpenBabel03272503253D

 29 31  0  0  1  0  0  0  0  0999 V2000
   37.8880   23.7600   32.5860 N   0  0  0  0  0  0  0  0  0  0  0  0
   39.0470   23.9040   33.4400 C   0  0  1  0  0  0  0  0  0  0  0  0
   39.9420   24.7770   32.5590 C   0  0  0  0  0  0  0  0  0  0  0  0
   39.2510   24.8990   31.2120 C   0  0  0  0  0  0  0  0  0  0  0  0
   37.8090   24.8990   31.6970 C   0  0  0  0  0  0  0  0  0  0  0  0
   39.5790   22.9500   33.6190 H   0  0  0  0  0  0  0  0  0  0  0  0
   39.9400   25.8100   32.9840 H   0  0  0  0  0  0  0  0  0  0  0  0
   40.9560   24.3600   32.4710 H   0  0  0  0  0  0  0  0  0  0  0  0
   39.5160   25.8210   30.6940 H   0  0  0  0  0  0  0  0  0  0  0  0
   39.4270   24.0260   30.5670 H   0  0  0  0  0  0  0  0  0  0  0  0
   37.5740   25.8520   32.2010 H   0  0  0  0  0  0  0  0  0  0  0  0
   37.1740   24.7110   30.8200 H   0  0  0  0  0  0  0  0  0  0  0  0
   36.9810   22.6610   32.6330 C   0  0  0  0  0  0  0  0  0  0  0  0
   36.1100   22.4590   31.5810 C   0  0  0  0  0  0  0  0  0  0  0  0
   35.2220   21.3940   31.5650 C   0  0  0  0  0  0  0  0  0  0  0  0
   35.2710   20.5680   32.6560 N   0  0  0  0  0  0  0  0  0  0  0  0
   36.1260   20.7710   33.6830 C   0  0  0  0  0  0  0  0  0  0  0  0
   36.9970   21.8300   33.6790 N   0  0  0  0  0  0  0  0  0  0  0  0
   36.0860   23.1160   30.7380 H   0  0  0  0  0  0  0  0  0  0  0  0
   34.5410   21.2360   30.7430 H   0  0  0  0  0  0  0  0  0  0  0  0
   36.1170   20.0900   34.5090 H   0  0  0  0  0  0  0  0  0  0  0  0
   38.7490   24.5010   34.7490 C   0  0  0  0  0  0  0  0  0  0  0  0
   38.6040   25.7520   34.6590 O   0  0  0  0  0  0  0  0  0  0  0  0
   38.6040   23.9200   36.0700 N   0  0  0  0  0  0  0  0  0  0  0  0
   37.8850   24.2110   37.2960 C   0  0  0  0  0  2  0  0  0  0  0  0
   38.5290   23.4970   38.4310 C   0  0  0  0  0  2  0  0  0  0  0  0
   39.7380   22.8570   37.8430 C   0  0  0  0  0  2  0  0  0  0  0  0
   39.3320   22.6780   36.3940 C   0  0  0  0  0  3  0  0  0  0  0  0
   38.6650   21.7920   36.3570 H   0  0  0  0  0  0  0  0  0  0  0  0
  1 13  1  0  0  0  0
  1  2  1  0  0  0  0
  2  6  1  1  0  0  0
  2 22  1  0  0  0  0
  3  7  1  0  0  0  0
  3  2  1  0  0  0  0
  4  5  1  0  0  0  0
  4  3  1  0  0  0  0
  5 11  1  0  0  0  0
  5  1  1  0  0  0  0
  8  3  1  0  0  0  0
  9  4  1  0  0  0  0
 10  4  1  0  0  0  0
 12  5  1  0  0  0  0
 13 18  1  0  0  0  0
 14 13  2  0  0  0  0
 15 14  1  0  0  0  0
 15 16  2  0  0  0  0
 16 17  1  0  0  0  0
 17 21  1  0  0  0  0
 18 17  2  0  0  0  0
 19 14  1  0  0  0  0
 20 15  1  0  0  0  0
 22 24  1  0  0  0  0
 23 22  2  0  0  0  0
 24 28  1  0  0  0  0
 24 25  1  0  0  0  0
 25 26  1  0  0  0  0
 27 26  1  0  0  0  0
 28 27  1  0  0  0  0
 29 28  1  0  0  0  0
M  END
>  <minimizedAffinity>
-4.48397636

$$$$

 OpenBabel03272503253D

 29 31  0  0  1  0  0  0  0  0999 V2000
   38.1500   24.1470   35.4320 N   0  0  0  0  0  0  0  0  0  0  0  0
   38.5380   22.8580   34.9010 C   0  0  1  0  0  0  0  0  0  0  0  0
   39.2130   22.2390   36.1260 C   0  0  0  0  0  0  0  0  0  0  0  0
   39.2830   23.3240   37.1870 C   0  0  0  0  0  0  0  0  0  0  0  0
   37.9800   24.0380   36.8650 C   0  0  0  0  0  0  0  0  0  0  0  0
   39.2960   22.9270   34.0980 H   0  0  0  0  0  0  0  0  0  0  0  0
   38.5240   21.4640   36.5430 H   0  0  0  0  0  0  0  0  0  0  0  0
   40.2050   21.8320   35.8800 H   0  0  0  0  0  0  0  0  0  0  0  0
   39.2940   22.9120   38.1970 H   0  0  0  0  0  0  0  0  0  0  0  0
   40.1310   24.0070   37.0360 H   0  0  0  0  0  0  0  0  0  0  0  0
   37.1180   23.4220   37.1740 H   0  0  0  0  0  0  0  0  0  0  0  0
   38.0130   25.0130   37.3720 H   0  0  0  0  0  0  0  0  0  0  0  0
   37.9680   25.3230   34.6470 C   0  0  0  0  0  0  0  0  0  0  0  0
   38.6050   25.4250   33.4260 C   0  0  0  0  0  0  0  0  0  0  0  0
   38.4470   26.5370   32.6130 C   0  0  0  0  0  0  0  0  0  0  0  0
   37.6230   27.5150   33.1030 N   0  0  0  0  0  0  0  0  0  0  0  0
   37.0030   27.4100   34.2990 C   0  0  0  0  0  0  0  0  0  0  0  0
   37.1720   26.3020   35.0880 N   0  0  0  0  0  0  0  0  0  0  0  0
   39.2450   24.6510   33.0600 H   0  0  0  0  0  0  0  0  0  0  0  0
   38.9440   26.6160   31.6580 H   0  0  0  0  0  0  0  0  0  0  0  0
   36.3710   28.2080   34.6290 H   0  0  0  0  0  0  0  0  0  0  0  0
   37.4130   22.0650   34.3870 C   0  0  0  0  0  0  0  0  0  0  0  0
   36.8670   21.3950   35.3060 O   0  0  0  0  0  0  0  0  0  0  0  0
   36.8520   21.9270   33.0560 N   0  0  0  0  0  0  0  0  0  0  0  0
   35.5620   21.6300   32.4620 C   0  0  0  0  0  2  0  0  0  0  0  0
   35.7540   21.1720   31.0600 C   0  0  0  0  0  2  0  0  0  0  0  0
   37.2310   21.1010   30.8800 C   0  0  0  0  0  2  0  0  0  0  0  0
   37.7240   22.1250   31.8820 C   0  0  0  0  0  3  0  0  0  0  0  0
   37.5690   23.1220   31.4210 H   0  0  0  0  0  0  0  0  0  0  0  0
  1  5  1  0  0  0  0
  2  6  1  6  0  0  0
  2  1  1  0  0  0  0
  2  3  1  0  0  0  0
  3  7  1  0  0  0  0
  3  4  1  0  0  0  0
  4  9  1  0  0  0  0
  5 11  1  0  0  0  0
  5  4  1  0  0  0  0
  5 12  1  0  0  0  0
  8  3  1  0  0  0  0
 10  4  1  0  0  0  0
 13 18  1  0  0  0  0
 13  1  1  0  0  0  0
 14 13  2  0  0  0  0
 15 16  2  0  0  0  0
 15 14  1  0  0  0  0
 16 17  1  0  0  0  0
 17 21  1  0  0  0  0
 17 18  2  0  0  0  0
 19 14  1  0  0  0  0
 20 15  1  0  0  0  0
 22  2  1  0  0  0  0
 22 23  2  0  0  0  0
 24 22  1  0  0  0  0
 25 24  1  0  0  0  0
 26 25  1  0  0  0  0
 27 26  1  0  0  0  0
 27 28  1  0  0  0  0
 28 24  1  0  0  0  0
 29 28  1  0  0  0  0
M  END
>  <minimizedAffinity>
-4.46452999

$$$$

 OpenBabel03272503253D

 29 31  0  0  1  0  0  0  0  0999 V2000
   38.0430   25.0060   33.2660 N   0  0  0  0  0  0  0  0  0  0  0  0
   36.9200   24.8580   32.3660 C   0  0  1  0  0  0  0  0  0  0  0  0
   36.9130   26.2310   31.6920 C   0  0  0  0  0  0  0  0  0  0  0  0
   37.9460   27.0810   32.4110 C   0  0  0  0  0  0  0  0  0  0  0  0
   38.9580   25.9890   32.7250 C   0  0  0  0  0  0  0  0  0  0  0  0
   35.9530   24.7360   32.8900 H   0  0  0  0  0  0  0  0  0  0  0  0
   37.3080   26.1060   30.6540 H   0  0  0  0  0  0  0  0  0  0  0  0
   35.9130   26.6870   31.7090 H   0  0  0  0  0  0  0  0  0  0  0  0
   38.3600   27.8590   31.7690 H   0  0  0  0  0  0  0  0  0  0  0  0
   37.5600   27.5130   33.3460 H   0  0  0  0  0  0  0  0  0  0  0  0
   39.4750   25.6690   31.8050 H   0  0  0  0  0  0  0  0  0  0  0  0
   39.6430   26.3940   33.4830 H   0  0  0  0  0  0  0  0  0  0  0  0
   38.2020   24.2870   34.4860 C   0  0  0  0  0  0  0  0  0  0  0  0
   37.9600   24.9280   35.6850 C   0  0  0  0  0  0  0  0  0  0  0  0
   38.0780   24.2700   36.9000 C   0  0  0  0  0  0  0  0  0  0  0  0
   38.4480   22.9540   36.8240 N   0  0  0  0  0  0  0  0  0  0  0  0
   38.6840   22.3310   35.6480 C   0  0  0  0  0  0  0  0  0  0  0  0
   38.5610   23.0000   34.4580 N   0  0  0  0  0  0  0  0  0  0  0  0
   37.6720   25.9570   35.7230 H   0  0  0  0  0  0  0  0  0  0  0  0
   37.8880   24.7710   37.8370 H   0  0  0  0  0  0  0  0  0  0  0  0
   38.9720   21.3000   35.6540 H   0  0  0  0  0  0  0  0  0  0  0  0
   37.0600   23.7410   31.4220 C   0  0  0  0  0  0  0  0  0  0  0  0
   37.5320   24.1300   30.3180 O   0  0  0  0  0  0  0  0  0  0  0  0
   36.7570   22.3270   31.5410 N   0  0  0  0  0  0  0  0  0  0  0  0
   37.2360   21.0770   30.9800 C   0  0  0  0  0  2  0  0  0  0  0  0
   36.1970   20.0260   31.1510 C   0  0  0  0  0  2  0  0  0  0  0  0
   35.0280   20.7360   31.7390 C   0  0  0  0  0  2  0  0  0  0  0  0
   35.6870   21.8950   32.4600 C   0  0  0  0  0  3  0  0  0  0  0  0
   36.1010   21.4870   33.4060 H   0  0  0  0  0  0  0  0  0  0  0  0
  1 13  1  0  0  0  0
  2  6  1  1  0  0  0
  2  1  1  0  0  0  0
  3  8  1  0  0  0  0
  3  2  1  0  0  0  0
  3  4  1  0  0  0  0
  4  5  1  0  0  0  0
  4 10  1  0  0  0  0
  5  1  1  0  0  0  0
  5 12  1  0  0  0  0
  7  3  1  0  0  0  0
  9  4  1  0  0  0  0
 11  5  1  0  0  0  0
 13 14  1  0  0  0  0
 14 19  1  0  0  0  0
 14 15  2  0  0  0  0
 15 20  1  0  0  0  0
 16 15  1  0  0  0  0
 17 21  1  0  0  0  0
 17 16  2  0  0  0  0
 18 13  2  0  0  0  0
 18 17  1  0  0  0  0
 22 24  1  0  0  0  0
 22  2  1  0  0  0  0
 23 22  2  0  0  0  0
 24 28  1  0  0  0  0
 25 26  1  0  0  0  0
 25 24  1  0  0  0  0
 26 27  1  0  0  0  0
 27 28  1  0  0  0  0
 28 29  1  0  0  0  0
M  END
>  <minimizedAffinity>
-4.45349836

$$$$
