
     RDKit          3D

 45 48  0  0  0  0  0  0  0  0999 V2000
   38.2617   32.2842   47.3929 C   0  0  0  0  0  0  0  0  0  0  0  0
   37.9115   32.7326   48.6522 C   0  0  0  0  0  0  0  0  0  0  0  0
   38.6715   33.6868   49.3080 C   0  0  0  0  0  0  0  0  0  0  0  0
   39.8071   34.2004   48.6842 C   0  0  0  0  0  0  0  0  0  0  0  0
   40.1638   33.7540   47.4197 C   0  0  0  0  0  0  0  0  0  0  0  0
   39.3707   32.8035   46.8148 C   0  0  0  0  0  0  0  0  0  0  0  0
   39.7668   32.3332   45.4553 C   0  0  0  0  0  0  0  0  0  0  0  0
   40.6185   31.3330   45.0943 C   0  0  0  0  0  0  0  0  0  0  0  0
   40.6481   31.2923   43.7099 C   0  0  0  0  0  0  0  0  0  0  0  0
   39.7863   32.3010   43.3064 C   0  0  0  0  0  0  0  0  0  0  0  0
   39.2776   32.9020   44.3651 O   0  0  0  0  0  0  0  0  0  0  0  0
   36.7599   30.5103   46.2988 N   0  0  0  0  0  0  0  0  0  0  0  0
   37.4268   31.3064   46.7962 C   0  0  0  0  0  0  0  0  0  0  0  0
   36.8096   32.3090   49.3891 O   0  0  0  0  0  0  0  0  0  0  0  0
   36.7905   31.2017   50.1678 C   0  0  0  0  0  0  0  0  0  0  0  0
   35.6355   30.4294   49.9450 C   0  0  0  0  0  0  0  0  0  0  0  0
   35.4343   29.2563   50.6486 C   0  0  0  0  0  0  0  0  0  0  0  0
   36.3890   28.8930   51.5489 N   0  0  0  0  0  0  0  0  0  0  0  0
   37.4993   29.6561   51.7484 C   0  0  0  0  0  0  0  0  0  0  0  0
   37.6762   30.7721   51.0693 N   0  0  0  0  0  0  0  0  0  0  0  0
   34.1490   29.7147   48.1606 C   0  0  0  0  0  0  0  0  0  0  0  0
   34.5440   28.5093   47.8696 O   0  0  0  0  0  0  0  0  0  0  0  0
   34.6053   30.7327   49.0369 N   0  0  0  0  0  0  0  0  0  0  0  0
   38.4457   34.0715   50.2881 H   0  0  0  0  0  0  0  0  0  0  0  0
   40.4170   34.9463   49.1756 H   0  0  0  0  0  0  0  0  0  0  0  0
   41.0473   34.1814   46.9832 H   0  0  0  0  0  0  0  0  0  0  0  0
   41.1576   30.7039   45.7828 H   0  0  0  0  0  0  0  0  0  0  0  0
   41.2185   30.6207   43.0741 H   0  0  0  0  0  0  0  0  0  0  0  0
   39.5529   32.5701   42.2723 H   0  0  0  0  0  0  0  0  0  0  0  0
   34.5756   28.6184   50.5284 H   0  0  0  0  0  0  0  0  0  0  0  0
   38.1984   29.2832   52.4841 H   0  0  0  0  0  0  0  0  0  0  0  0
   34.0896   31.6296   48.8889 H   0  0  0  0  0  0  0  0  0  0  0  0
   33.0111   29.8265   47.3083 N   0  0  0  0  0  0  0  0  0  0  0  0
   33.1366   30.3400   45.9570 C   0  0  0  0  0  0  0  0  0  0  0  0
   32.4971   29.1894   45.1712 C   0  0  0  0  0  0  0  0  0  0  0  0
   31.2237   28.9949   45.9689 C   0  0  0  0  0  0  0  0  0  0  0  0
   31.5640   29.5653   47.3330 C   0  0  1  0  0  0  0  0  0  0  0  0
   31.2893   28.8756   48.1457 H   0  0  0  0  0  0  0  0  0  0  0  0
   32.4660   31.2118   45.8224 H   0  0  0  0  0  0  0  0  0  0  0  0
   34.1571   30.5361   45.6323 H   0  0  0  0  0  0  0  0  0  0  0  0
   32.3259   29.4563   44.1147 H   0  0  0  0  0  0  0  0  0  0  0  0
   33.2076   28.3430   45.3067 H   0  0  0  0  0  0  0  0  0  0  0  0
   30.9047   27.9407   46.0211 H   0  0  0  0  0  0  0  0  0  0  0  0
   30.4414   29.6447   45.5151 H   0  0  0  0  0  0  0  0  0  0  0  0
   31.1159   30.5845   47.4688 H   0  0  0  0  0  0  0  0  0  0  0  0
  1  2  2  0
  2  3  1  0
  2 14  1  0
  4  3  2  0
  5  4  1  0
  6  1  1  0
  6  5  2  0
  7  6  1  0
  8  7  2  0
  9  8  1  0
 10  9  2  0
 10 11  1  0
 11  7  1  0
 12 13  3  0
 13  1  1  0
 14 15  1  0
 15 20  2  0
 16 15  1  0
 16 17  2  0
 17 18  1  0
 18 19  2  0
 20 19  1  0
 21 23  1  0
 22 21  2  0
 23 16  1  0
  3 24  1  0
  4 25  1  0
  5 26  1  0
  8 27  1  0
  9 28  1  0
 10 29  1  0
 17 30  1  0
 19 31  1  0
 23 32  1  0
 33 34  1  0
 34 35  1  0
 35 36  1  0
 36 37  1  0
 37 38  1  1
 37 33  1  0
 34 39  1  0
 34 40  1  0
 35 41  1  0
 35 42  1  0
 36 43  1  0
 36 44  1  0
 37 45  1  0
 21 33  1  0
M  ISO  8  24  14  25  14  26  14  27  14  28  14  29  14  30  14  31  14
M  ISO  1  38  13
M  END
>  <DihAtoms>  (1) 
22,20,32,33

>  <DihDeg>  (1) 
179.99944375092736

$$$$
