
 OpenBabel03262522143D

 42 45  0  0  1  0  0  0  0  0999 V2000
   40.5730   33.2070   45.2090 S   0  0  0  0  0  0  0  0  0  0  0  0
   37.7930   31.7980   47.6580 C   0  0  0  0  0  0  0  0  0  0  0  0
   37.9620   32.5290   48.8350 C   0  0  0  0  0  0  0  0  0  0  0  0
   38.9460   33.4990   48.9370 C   0  0  0  0  0  0  0  0  0  0  0  0
   39.7320   33.6860   47.8110 C   0  0  0  0  0  0  0  0  0  0  0  0
   39.5390   32.9560   46.6810 C   0  0  0  0  0  0  0  0  0  0  0  0
   38.5830   32.0100   46.5760 N   0  0  0  0  0  0  0  0  0  0  0  0
   37.3310   32.3560   49.6940 H   0  0  0  0  0  0  0  0  0  0  0  0
   39.1120   34.0840   49.8200 H   0  0  0  0  0  0  0  0  0  0  0  0
   40.5300   34.4220   47.7890 H   0  0  0  0  0  0  0  0  0  0  0  0
   36.7440   30.8070   47.6390 C   0  0  0  0  0  0  0  0  0  0  0  0
   36.2820   30.3890   46.5790 O   0  0  0  0  0  0  0  0  0  0  0  0
   37.0580   29.6370   49.7890 C   0  0  0  0  0  0  0  0  0  0  0  0
   36.1720   30.2450   48.8760 C   0  0  0  0  0  0  0  0  0  0  0  0
   34.7970   30.2990   49.1590 C   0  0  0  0  0  0  0  0  0  0  0  0
   34.3560   29.7510   50.3320 N   0  0  0  0  0  0  0  0  0  0  0  0
   35.2310   29.1690   51.1990 C   0  0  0  0  0  0  0  0  0  0  0  0
   36.5280   29.1190   50.9290 N   0  0  0  0  0  0  0  0  0  0  0  0
   38.1140   29.5710   49.6170 H   0  0  0  0  0  0  0  0  0  0  0  0
   34.1630   30.7670   48.4450 H   0  0  0  0  0  0  0  0  0  0  0  0
   34.7370   28.7820   52.0780 H   0  0  0  0  0  0  0  0  0  0  0  0
   39.4830   32.9620   43.7870 C   0  0  0  0  0  0  0  0  0  0  0  0
   39.5100   33.8760   43.1460 H   0  0  0  0  0  0  0  0  0  0  0  0
   38.4330   32.7370   44.0590 H   0  0  0  0  0  0  0  0  0  0  0  0
   39.0850   29.7390   42.3670 C   0  0  1  0  0  0  0  0  0  0  0  0
   38.9580   31.2310   42.0780 C   0  0  0  0  0  0  0  0  0  0  0  0
   40.0130   31.7810   42.9950 C   0  0  2  0  0  0  0  0  0  0  0  0
   40.4580   30.7700   43.8060 O   0  0  0  0  0  0  0  0  0  0  0  0
   39.4960   29.7600   43.8130 C   0  0  0  0  0  0  0  0  0  0  0  0
   39.8380   29.2600   41.7370 H   0  0  0  0  0  0  0  0  0  0  0  0
   39.1090   31.4880   41.0220 H   0  0  0  0  0  0  0  0  0  0  0  0
   37.9700   31.5470   42.4890 H   0  0  0  0  0  0  0  0  0  0  0  0
   40.8710   32.1630   42.3770 H   0  0  0  0  0  0  0  0  0  0  0  0
   38.6480   29.9610   44.4730 H   0  0  0  0  0  0  0  0  0  0  0  0
   40.0610   28.8340   44.1090 H   0  0  0  0  0  0  0  0  0  0  0  0
   37.8550   29.0990   42.1830 O   0  0  0  0  0  0  0  0  0  0  0  0
   39.1550   27.6960   40.0110 H   0  0  0  0  0  0  0  0  0  0  0  0
   39.1960   27.5020   41.0470 N   0  0  0  0  0  0  0  0  0  0  0  0
   39.2600   26.0410   41.1950 C   0  0  0  0  0  2  0  0  0  0  0  0
   39.0090   25.9740   42.7090 C   0  0  0  0  0  2  0  0  0  0  0  0
   37.6970   26.7610   42.7400 C   0  0  0  0  0  2  0  0  0  0  0  0
   37.9620   27.8230   41.7010 C   0  0  1  0  0  3  0  0  0  0  0  0
  1  6  1  0  0  0  0
  2  3  1  0  0  0  0
  3  4  2  0  0  0  0
  3  8  1  0  0  0  0
  4  9  1  0  0  0  0
  5  4  1  0  0  0  0
  6  5  2  0  0  0  0
  7  6  1  0  0  0  0
  7  2  2  0  0  0  0
 10  5  1  0  0  0  0
 11  2  1  0  0  0  0
 11 14  1  0  0  0  0
 12 11  2  0  0  0  0
 13 18  1  0  0  0  0
 14 15  1  0  0  0  0
 14 13  2  0  0  0  0
 15 16  2  0  0  0  0
 16 17  1  0  0  0  0
 17 21  1  0  0  0  0
 18 17  2  0  0  0  0
 19 13  1  0  0  0  0
 20 15  1  0  0  0  0
 22 24  1  0  0  0  0
 22  1  1  0  0  0  0
 23 22  1  0  0  0  0
 25 30  1  6  0  0  0
 25 29  1  0  0  0  0
 26 25  1  0  0  0  0
 26 32  1  0  0  0  0
 26 27  1  0  0  0  0
 27 33  1  6  0  0  0
 27 22  1  0  0  0  0
 27 28  1  0  0  0  0
 28 29  1  0  0  0  0
 29 35  1  0  0  0  0
 29 34  1  0  0  0  0
 31 26  1  0  0  0  0
 36 25  1  0  0  0  0
 37 38  1  0  0  0  0
 38 39  1  0  0  0  0
 38 42  1  0  0  0  0
 39 40  1  0  0  0  0
 40 41  1  0  0  0  0
 42 36  1  1  0  0  0
 42 41  1  0  0  0  0
M  END
>  <minimizedAffinity>
-5.39932442

>  <minimizedRMSD>
0.967616975

$$$$
