
 OpenBabel03262523303D

 30 33  0  0  0  0  0  0  0  0999 V2000
   38.3980   32.9740   49.4600 C   0  0  0  0  0  0  0  0  0  0  0  0
   38.9020   32.9300   48.1720 C   0  0  0  0  0  0  0  0  0  0  0  0
   38.7380   31.7790   47.4220 C   0  0  0  0  0  0  0  0  0  0  0  0
   38.0790   30.7110   47.9740 N   0  0  0  0  0  0  0  0  0  0  0  0
   37.5970   30.7890   49.2420 C   0  0  0  0  0  0  0  0  0  0  0  0
   37.7580   31.9110   49.9700 N   0  0  0  0  0  0  0  0  0  0  0  0
   38.5300   33.8780   50.0410 H   0  0  0  0  0  0  0  0  0  0  0  0
   39.4230   33.7680   47.7280 H   0  0  0  0  0  0  0  0  0  0  0  0
   39.6280   32.7720   45.3890 C   0  0  0  0  0  0  0  0  0  0  0  0
   39.2200   31.6140   46.0590 C   0  0  0  0  0  0  0  0  0  0  0  0
   39.2820   30.3730   45.4380 C   0  0  0  0  0  0  0  0  0  0  0  0
   39.7640   30.3400   44.1330 C   0  0  0  0  0  0  0  0  0  0  0  0
   39.9170   29.2670   43.3310 N   0  0  0  0  0  0  0  0  0  0  0  0
   40.4140   29.7320   42.1660 C   0  0  0  0  0  0  0  0  0  0  0  0
   40.5730   31.0530   42.2240 N   0  0  0  0  0  0  0  0  0  0  0  0
   40.1770   31.4700   43.4370 C   0  0  0  0  0  0  0  0  0  0  0  0
   40.1060   32.7000   44.0790 C   0  0  0  0  0  0  0  0  0  0  0  0
   39.6030   33.7500   45.8120 H   0  0  0  0  0  0  0  0  0  0  0  0
   38.9680   29.4850   45.9550 H   0  0  0  0  0  0  0  0  0  0  0  0
   39.6900   28.2610   43.5740 H   0  0  0  0  0  0  0  0  0  0  0  0
   40.6480   29.1010   41.3110 H   0  0  0  0  0  0  0  0  0  0  0  0
   40.4250   33.5790   43.5420 H   0  0  0  0  0  0  0  0  0  0  0  0
   36.9010   29.6120   49.7790 C   0  0  0  0  0  0  0  0  0  0  0  0
   37.4960   28.8930   50.6430 O   0  0  0  0  0  0  0  0  0  0  0  0
   35.5870   29.4070   49.2460 N   0  0  0  0  0  0  0  0  0  0  0  0
   34.8180   30.1570   48.2670 C   0  0  0  0  0  0  0  0  0  0  0  0
   34.1050   29.1280   47.4220 C   0  0  0  0  0  0  0  0  0  0  0  0
   33.9710   27.9320   48.3370 C   0  0  0  0  0  0  0  0  0  0  0  0
   34.6830   28.3080   49.6130 C   0  0  0  0  0  0  0  0  0  0  0  0
   35.3130   27.4880   50.0040 H   0  0  0  0  0  0  0  0  0  0  0  0
  1  6  1  0  0  0  0
  1  7  1  0  0  0  0
  2  1  2  0  0  0  0
  3  4  2  0  0  0  0
  3  2  1  0  0  0  0
  4  5  1  0  0  0  0
  5 23  1  0  0  0  0
  5  6  2  0  0  0  0
  8  2  1  0  0  0  0
  9 18  1  0  0  0  0
  9 10  1  0  0  0  0
 10  3  1  0  0  0  0
 11 19  1  0  0  0  0
 11 10  2  0  0  0  0
 12 11  1  0  0  0  0
 13 20  1  0  0  0  0
 13 12  1  0  0  0  0
 14 15  2  0  0  0  0
 14 13  1  0  0  0  0
 15 16  1  0  0  0  0
 16 17  1  0  0  0  0
 16 12  2  0  0  0  0
 17  9  2  0  0  0  0
 21 14  1  0  0  0  0
 22 17  1  0  0  0  0
 23 24  2  0  0  0  0
 25 29  1  0  0  0  0
 25 23  1  0  0  0  0
 26 25  1  0  0  0  0
 27 26  1  0  0  0  0
 27 28  1  0  0  0  0
 28 29  1  0  0  0  0
 29 30  1  0  0  0  0
M  END
>  <minimizedAffinity>
-7.07616997

>  <minimizedRMSD>
3.44209838

$$$$
