
 OpenBabel03272509303D

 35 37  0  0  1  0  0  0  0  0999 V2000
   36.5360   30.8690   48.8790 C   0  0  2  0  0  0  0  0  0  0  0  0
   37.3620   31.5860   49.8990 C   0  0  0  0  0  0  0  0  0  0  0  0
   37.9900   30.6560   50.9140 C   0  0  0  0  0  0  0  0  0  0  0  0
   36.9290   29.8080   51.6070 C   0  0  0  0  0  0  0  0  0  0  0  0
   35.7880   29.4000   50.7100 C   0  0  0  0  0  0  0  0  0  0  0  0
   36.2910   29.4430   49.2540 C   0  0  1  0  0  0  0  0  0  0  0  0
   35.5110   31.3320   48.7190 H   0  0  0  0  0  0  0  0  0  0  0  0
   36.6030   32.1800   50.5130 H   0  0  0  0  0  0  0  0  0  0  0  0
   38.0570   32.3220   49.5430 H   0  0  0  0  0  0  0  0  0  0  0  0
   38.4530   31.2900   51.6900 H   0  0  0  0  0  0  0  0  0  0  0  0
   38.7310   29.9730   50.4940 H   0  0  0  0  0  0  0  0  0  0  0  0
   36.5460   30.3240   52.5200 H   0  0  0  0  0  0  0  0  0  0  0  0
   37.3960   28.8660   51.9620 H   0  0  0  0  0  0  0  0  0  0  0  0
   35.4860   28.3390   50.8840 H   0  0  0  0  0  0  0  0  0  0  0  0
   34.8850   30.0120   50.8350 H   0  0  0  0  0  0  0  0  0  0  0  0
   37.2020   28.9060   49.3510 H   0  0  0  0  0  0  0  0  0  0  0  0
   34.1760   28.2500   48.5170 C   0  0  0  0  0  0  0  0  0  0  0  0
   33.3150   28.4910   49.4170 O   0  0  0  0  0  0  0  0  0  0  0  0
   35.5070   28.7070   48.3310 N   0  0  0  0  0  0  0  0  0  0  0  0
   35.9120   28.4430   47.3740 H   0  0  0  0  0  0  0  0  0  0  0  0
   33.6220   27.3450   47.5560 N   0  0  0  0  0  0  0  0  0  0  0  0
   33.1260   27.5050   46.2110 C   0  0  0  0  0  2  0  0  0  0  0  0
   33.7700   26.4510   45.3450 C   0  0  0  0  0  2  0  0  0  0  0  0
   33.9670   25.3330   46.3430 C   0  0  0  0  0  2  0  0  0  0  0  0
   33.3490   25.9260   47.5660 C   0  0  0  0  0  3  0  0  0  0  0  0
   33.7650   25.5250   48.5120 H   0  0  0  0  0  0  0  0  0  0  0  0
   37.1800   30.9050   47.5410 C   0  0  0  0  0  0  0  0  0  0  0  0
   38.5440   31.2080   47.5330 C   0  0  0  0  0  0  0  0  0  0  0  0
   39.1830   31.2470   46.2900 C   0  0  0  0  0  0  0  0  0  0  0  0
   38.4380   30.9860   45.1600 N   0  0  0  0  0  0  0  0  0  0  0  0
   37.1030   30.6930   45.2200 C   0  0  0  0  0  0  0  0  0  0  0  0
   36.4940   30.6580   46.4170 N   0  0  0  0  0  0  0  0  0  0  0  0
   39.2480   31.4210   48.3140 H   0  0  0  0  0  0  0  0  0  0  0  0
   40.2190   31.4640   46.1180 H   0  0  0  0  0  0  0  0  0  0  0  0
   36.6490   30.5120   44.2730 H   0  0  0  0  0  0  0  0  0  0  0  0
  1  7  1  6  0  0  0
  1  6  1  0  0  0  0
  1  2  1  0  0  0  0
  2  8  1  0  0  0  0
  2  3  1  0  0  0  0
  3  4  1  0  0  0  0
  3 10  1  0  0  0  0
  4 13  1  0  0  0  0
  4 12  1  0  0  0  0
  5 15  1  0  0  0  0
  5 14  1  0  0  0  0
  5  4  1  0  0  0  0
  6 16  1  1  0  0  0
  6  5  1  0  0  0  0
  9  2  1  0  0  0  0
 11  3  1  0  0  0  0
 17 18  2  0  0  0  0
 19 17  1  0  0  0  0
 19  6  1  0  0  0  0
 20 19  1  0  0  0  0
 21 25  1  0  0  0  0
 21 17  1  0  0  0  0
 22 21  1  0  0  0  0
 23 22  1  0  0  0  0
 23 24  1  0  0  0  0
 24 25  1  0  0  0  0
 25 26  1  0  0  0  0
 27  1  1  0  0  0  0
 28 27  1  0  0  0  0
 28 33  1  0  0  0  0
 29 28  2  0  0  0  0
 30 31  2  0  0  0  0
 30 29  1  0  0  0  0
 31 32  1  0  0  0  0
 32 27  2  0  0  0  0
 34 29  1  0  0  0  0
 35 31  1  0  0  0  0
M  END
>  <minimizedAffinity>
-5.94814396

>  <minimizedRMSD>
1.2448833

$$$$
