
 OpenBabel03262520103D

 33 35  0  0  1  0  0  0  0  0999 V2000
   37.4360   31.7870   48.4660 Br  0  0  0  0  0  0  0  0  0  0  0  0
   36.5490   30.9160   47.0050 C   0  0  0  0  0  0  0  0  0  0  0  0
   37.1680   30.8260   45.7770 C   0  0  0  0  0  0  0  0  0  0  0  0
   36.4860   30.1950   44.7710 C   0  0  0  0  0  0  0  0  0  0  0  0
   35.2180   29.6530   44.9430 C   0  0  0  0  0  0  0  0  0  0  0  0
   34.6430   29.7710   46.1940 C   0  0  0  0  0  0  0  0  0  0  0  0
   35.3160   30.4050   47.2210 C   0  0  0  0  0  0  0  0  0  0  0  0
   37.0040   30.1400   43.8170 H   0  0  0  0  0  0  0  0  0  0  0  0
   34.7800   29.1790   44.0760 H   0  0  0  0  0  0  0  0  0  0  0  0
   33.6640   29.3150   46.1930 H   0  0  0  0  0  0  0  0  0  0  0  0
   39.8100   33.1910   44.9060 C   0  0  0  0  0  0  0  0  0  0  0  0
   41.0050   32.4660   45.1120 C   0  0  0  0  0  0  0  0  0  0  0  0
   40.8790   31.1580   45.5520 C   0  0  0  0  0  0  0  0  0  0  0  0
   39.6310   30.6250   45.7680 N   0  0  0  0  0  0  0  0  0  0  0  0
   38.5060   31.3830   45.5500 C   0  0  0  0  0  0  0  0  0  0  0  0
   38.6210   32.6480   45.1240 N   0  0  0  0  0  0  0  0  0  0  0  0
   39.9570   34.2060   44.5640 H   0  0  0  0  0  0  0  0  0  0  0  0
   42.0060   32.8510   44.9530 H   0  0  0  0  0  0  0  0  0  0  0  0
   41.7010   30.4800   45.7520 H   0  0  0  0  0  0  0  0  0  0  0  0
   34.5810   30.4550   48.5030 C   0  0  0  0  0  0  0  0  0  0  0  0
   33.6420   31.0310   48.2740 H   0  0  0  0  0  0  0  0  0  0  0  0
   35.1220   31.0290   49.2670 H   0  0  0  0  0  0  0  0  0  0  0  0
   34.1570   29.1410   49.0340 C   0  0  0  0  0  0  0  0  0  0  0  0
   33.8180   29.3370   50.1000 H   0  0  0  0  0  0  0  0  0  0  0  0
   33.3140   28.6620   48.5610 H   0  0  0  0  0  0  0  0  0  0  0  0
   35.2710   28.2270   49.1230 N   0  0  0  0  0  0  0  0  0  0  0  0
   35.0640   27.2560   48.8780 H   0  0  0  0  0  0  0  0  0  0  0  0
   38.0580   28.3370   49.3820 H   0  0  0  0  0  0  0  0  0  0  0  0
   37.4410   28.9470   49.9330 N   0  0  0  0  0  0  0  0  0  0  0  0
   37.9430   29.1470   51.3010 C   0  0  0  0  0  2  0  0  0  0  0  0
   36.7540   29.7430   52.0360 C   0  0  0  0  0  2  0  0  0  0  0  0
   35.5670   29.5320   51.0880 C   0  0  0  0  0  2  0  0  0  0  0  0
   36.1440   28.4130   50.2220 C   0  0  1  0  0  3  0  0  0  0  0  0
  2  7  1  0  0  0  0
  2  1  1  0  0  0  0
  3  2  2  0  0  0  0
  4  5  2  0  0  0  0
  4  3  1  0  0  0  0
  5  6  1  0  0  0  0
  6  7  2  0  0  0  0
  7 20  1  0  0  0  0
  8  4  1  0  0  0  0
  9  5  1  0  0  0  0
 10  6  1  0  0  0  0
 11 12  2  0  0  0  0
 11 16  1  0  0  0  0
 12 13  1  0  0  0  0
 13 19  1  0  0  0  0
 13 14  2  0  0  0  0
 15 14  1  0  0  0  0
 15  3  1  0  0  0  0
 16 15  2  0  0  0  0
 17 11  1  0  0  0  0
 18 12  1  0  0  0  0
 20 23  1  0  0  0  0
 20 22  1  0  0  0  0
 21 20  1  0  0  0  0
 23 26  1  0  0  0  0
 23 24  1  0  0  0  0
 25 23  1  0  0  0  0
 27 26  1  0  0  0  0
 28 29  1  0  0  0  0
 29 33  1  0  0  0  0
 29 30  1  0  0  0  0
 30 31  1  0  0  0  0
 32 31  1  0  0  0  0
 33 26  1  6  0  0  0
 33 32  1  0  0  0  0
M  END
>  <minimizedAffinity>
-4.36325169

>  <minimizedRMSD>
0.856131971

$$$$
