
 OpenBabel03262520103D

 33 35  0  0  1  0  0  0  0  0999 V2000
   37.4320   31.7870   48.4590 Br  0  0  0  0  0  0  0  0  0  0  0  0
   36.5420   30.9140   47.0000 C   0  0  0  0  0  0  0  0  0  0  0  0
   37.1600   30.8230   45.7710 C   0  0  0  0  0  0  0  0  0  0  0  0
   36.4780   30.1900   44.7670 C   0  0  0  0  0  0  0  0  0  0  0  0
   35.2100   29.6480   44.9410 C   0  0  0  0  0  0  0  0  0  0  0  0
   34.6370   29.7660   46.1930 C   0  0  0  0  0  0  0  0  0  0  0  0
   35.3110   30.4010   47.2180 C   0  0  0  0  0  0  0  0  0  0  0  0
   36.9930   30.1360   43.8110 H   0  0  0  0  0  0  0  0  0  0  0  0
   34.7710   29.1720   44.0750 H   0  0  0  0  0  0  0  0  0  0  0  0
   33.6590   29.3090   46.1940 H   0  0  0  0  0  0  0  0  0  0  0  0
   39.7970   33.1860   44.8800 C   0  0  0  0  0  0  0  0  0  0  0  0
   40.9940   32.4670   45.0970 C   0  0  0  0  0  0  0  0  0  0  0  0
   40.8700   31.1640   45.5520 C   0  0  0  0  0  0  0  0  0  0  0  0
   39.6230   30.6300   45.7710 N   0  0  0  0  0  0  0  0  0  0  0  0
   38.4970   31.3810   45.5410 C   0  0  0  0  0  0  0  0  0  0  0  0
   38.6100   32.6420   45.1010 N   0  0  0  0  0  0  0  0  0  0  0  0
   39.9430   34.1970   44.5270 H   0  0  0  0  0  0  0  0  0  0  0  0
   41.9940   32.8530   44.9360 H   0  0  0  0  0  0  0  0  0  0  0  0
   41.6940   30.4900   45.7630 H   0  0  0  0  0  0  0  0  0  0  0  0
   34.5780   30.4520   48.5010 C   0  0  0  0  0  0  0  0  0  0  0  0
   33.6380   31.0280   48.2730 H   0  0  0  0  0  0  0  0  0  0  0  0
   35.1200   31.0270   49.2640 H   0  0  0  0  0  0  0  0  0  0  0  0
   34.1550   29.1380   49.0330 C   0  0  0  0  0  0  0  0  0  0  0  0
   33.8160   29.3350   50.0990 H   0  0  0  0  0  0  0  0  0  0  0  0
   33.3120   28.6580   48.5610 H   0  0  0  0  0  0  0  0  0  0  0  0
   35.2690   28.2250   49.1230 N   0  0  0  0  0  0  0  0  0  0  0  0
   35.0630   27.2540   48.8790 H   0  0  0  0  0  0  0  0  0  0  0  0
   38.0560   28.3390   49.3800 H   0  0  0  0  0  0  0  0  0  0  0  0
   37.4390   28.9480   49.9310 N   0  0  0  0  0  0  0  0  0  0  0  0
   37.9420   29.1510   51.2990 C   0  0  0  0  0  2  0  0  0  0  0  0
   36.7530   29.7450   52.0340 C   0  0  0  0  0  2  0  0  0  0  0  0
   35.5650   29.5310   51.0870 C   0  0  0  0  0  2  0  0  0  0  0  0
   36.1430   28.4130   50.2210 C   0  0  1  0  0  3  0  0  0  0  0  0
  2  7  1  0  0  0  0
  2  1  1  0  0  0  0
  3  2  2  0  0  0  0
  4  5  2  0  0  0  0
  4  3  1  0  0  0  0
  5  6  1  0  0  0  0
  6 10  1  0  0  0  0
  6  7  2  0  0  0  0
  7 20  1  0  0  0  0
  8  4  1  0  0  0  0
  9  5  1  0  0  0  0
 11 12  2  0  0  0  0
 11 16  1  0  0  0  0
 12 13  1  0  0  0  0
 13 19  1  0  0  0  0
 13 14  2  0  0  0  0
 15  3  1  0  0  0  0
 15 14  1  0  0  0  0
 16 15  2  0  0  0  0
 17 11  1  0  0  0  0
 18 12  1  0  0  0  0
 20 23  1  0  0  0  0
 20 22  1  0  0  0  0
 21 20  1  0  0  0  0
 23 26  1  0  0  0  0
 23 24  1  0  0  0  0
 25 23  1  0  0  0  0
 27 26  1  0  0  0  0
 28 29  1  0  0  0  0
 29 33  1  0  0  0  0
 29 30  1  0  0  0  0
 30 31  1  0  0  0  0
 32 31  1  0  0  0  0
 33 26  1  6  0  0  0
 33 32  1  0  0  0  0
M  END
>  <minimizedAffinity>
-4.35949516

>  <minimizedRMSD>
0.822182298

$$$$
