
     RDKit          3D

 40 42  0  0  0  0  0  0  0  0999 V2000
   38.0537   31.7559   48.9907 Br  0  0  0  0  0  0  0  0  0  0  0  0
   36.8492   31.0051   47.6997 C   0  0  0  0  0  0  0  0  0  0  0  0
   37.2082   30.9530   46.3700 C   0  0  0  0  0  0  0  0  0  0  0  0
   36.3084   30.4081   45.4939 C   0  0  0  0  0  0  0  0  0  0  0  0
   35.0705   29.9158   45.8921 C   0  0  0  0  0  0  0  0  0  0  0  0
   34.7606   29.9925   47.2369 C   0  0  0  0  0  0  0  0  0  0  0  0
   35.6571   30.5393   48.1351 C   0  0  0  0  0  0  0  0  0  0  0  0
   39.7246   33.2026   44.9793 C   0  0  0  0  0  0  0  0  0  0  0  0
   40.9211   32.4519   45.0196 C   0  0  0  0  0  0  0  0  0  0  0  0
   40.8387   31.1671   45.5318 C   0  0  0  0  0  0  0  0  0  0  0  0
   39.6313   30.6803   45.9706 N   0  0  0  0  0  0  0  0  0  0  0  0
   38.5027   31.4609   45.9046 C   0  0  0  0  0  0  0  0  0  0  0  0
   38.5759   32.7041   45.4103 N   0  0  0  0  0  0  0  0  0  0  0  0
   35.1943   30.5534   49.5388 C   0  0  0  0  0  0  0  0  0  0  0  0
   34.3183   29.4235   49.9206 C   0  0  0  0  0  0  0  0  0  0  0  0
   35.0605   28.1886   50.0048 N   0  0  0  0  0  0  0  0  0  0  0  0
   36.6225   30.3824   44.4539 H   0  0  0  0  0  0  0  0  0  0  0  0
   34.4449   29.5093   45.1097 H   0  0  0  0  0  0  0  0  0  0  0  0
   33.7780   29.5814   47.4115 H   0  0  0  0  0  0  0  0  0  0  0  0
   39.8378   34.1983   44.5728 H   0  0  0  0  0  0  0  0  0  0  0  0
   41.8909   32.7999   44.6839 H   0  0  0  0  0  0  0  0  0  0  0  0
   41.6666   30.4726   45.6268 H   0  0  0  0  0  0  0  0  0  0  0  0
   34.5750   31.4888   49.6283 H   0  0  0  0  0  0  0  0  0  0  0  0
   36.0257   30.6604   50.2484 H   0  0  0  0  0  0  0  0  0  0  0  0
   33.9626   29.6557   50.9751 H   0  0  0  0  0  0  0  0  0  0  0  0
   33.4125   29.2815   49.3522 H   0  0  0  0  0  0  0  0  0  0  0  0
   34.5249   27.3403   49.8091 H   0  0  0  0  0  0  0  0  0  0  0  0
   34.8303   27.8829   52.7789 H   0  0  0  0  0  0  0  0  0  0  0  0
   35.5745   27.4167   52.2461 N   0  0  0  0  0  0  0  0  0  0  0  0
   36.8445   27.3817   52.9881 C   0  0  0  0  0  0  0  0  0  0  0  0
   37.8677   27.0051   51.9296 C   0  0  0  0  0  0  0  0  0  0  0  0
   37.1264   27.1722   50.5968 C   0  0  0  0  0  0  0  0  0  0  0  0
   35.9999   28.0961   51.0587 C   0  0  1  0  0  0  0  0  0  0  0  0
   37.0725   28.4523   53.2459 H   0  0  0  0  0  0  0  0  0  0  0  0
   36.8189   26.7179   53.8499 H   0  0  0  0  0  0  0  0  0  0  0  0
   38.7312   27.7180   51.9003 H   0  0  0  0  0  0  0  0  0  0  0  0
   38.2122   25.9544   52.0390 H   0  0  0  0  0  0  0  0  0  0  0  0
   37.7449   27.5935   49.8067 H   0  0  0  0  0  0  0  0  0  0  0  0
   36.6606   26.1903   50.3647 H   0  0  0  0  0  0  0  0  0  0  0  0
   36.5084   29.0625   51.2685 H   0  0  0  0  0  0  0  0  0  0  0  0
  2  7  2  0
  2  1  1  0
  3  2  1  0
  4  5  1  0
  4  3  2  0
  5  6  2  0
  6  7  1  0
  7 14  1  0
  8  9  2  0
  8 13  1  0
  9 10  1  0
 10 11  2  0
 12 11  1  0
 12  3  1  0
 13 12  2  0
 14 15  1  0
 15 16  1  0
  4 17  1  0
  5 18  1  0
  6 19  1  0
  8 20  1  0
  9 21  1  0
 10 22  1  0
 14 23  1  0
 14 24  1  0
 15 25  1  0
 15 26  1  0
 16 27  1  0
 28 29  1  0
 29 30  1  0
 30 31  1  0
 31 32  1  0
 32 33  1  0
 33 29  1  0
 30 34  1  0
 30 35  1  0
 31 36  1  0
 31 37  1  0
 32 38  1  0
 32 39  1  0
 33 40  1  1
 16 33  1  0
M  ISO  8  17  14  18  14  19  14  20  14  21  14  22  14  23   8  24   8
M  ISO  4  25   8  26   8  27   5  28   5
M  END
>  <DihAtoms>  (1) 
14,15,32,31

>  <DihDeg>  (1) 
179.4416829653068

$$$$
