REMARK  Name = 
REMARK  5 active torsions:
REMARK  status: ('A' for Active; 'I' for Inactive)
REMARK    1  A    between atoms: C_3  and  C_12
REMARK    2  A    between atoms: C_7  and  C_14
REMARK    3  A    between atoms: C_14  and  C_15
REMARK    4  A    between atoms: C_15  and  N_16
REMARK    5  A    between atoms: N_16  and  C_33
REMARK                            x       y       z     vdW  Elec       q    Type
REMARK                         _______ _______ _______ _____ _____    ______ ____
ROOT
ATOM      1 BR   UNL     1      38.054  31.756  48.991  0.00  0.00    +0.000 Br
ATOM      2  C   UNL     1      36.849  31.005  47.700  0.00  0.00    +0.000 A 
ATOM      3  C   UNL     1      37.208  30.953  46.370  0.00  0.00    +0.000 A 
ATOM      4  C   UNL     1      36.308  30.408  45.494  0.00  0.00    +0.000 A 
ATOM      5  C   UNL     1      35.071  29.916  45.892  0.00  0.00    +0.000 A 
ATOM      6  C   UNL     1      34.761  29.992  47.237  0.00  0.00    +0.000 A 
ATOM      7  C   UNL     1      35.657  30.539  48.135  0.00  0.00    +0.000 A 
ATOM      8  H   UNL     1      36.623  30.382  44.454  0.00  0.00    +0.000 HD
ATOM      9  H   UNL     1      34.445  29.509  45.110  0.00  0.00    +0.000 HD
ATOM     10  H   UNL     1      33.778  29.581  47.411  0.00  0.00    +0.000 HD
ENDROOT
BRANCH   3  15
ATOM     11  C   UNL     1      39.725  33.203  44.979  0.00  0.00    +0.000 A 
ATOM     12  C   UNL     1      40.921  32.452  45.020  0.00  0.00    +0.000 A 
ATOM     13  C   UNL     1      40.839  31.167  45.532  0.00  0.00    +0.000 A 
ATOM     14  N   UNL     1      39.631  30.680  45.971  0.00  0.00    +0.000 NA
ATOM     15  C   UNL     1      38.503  31.461  45.905  0.00  0.00    +0.000 A 
ATOM     16  N   UNL     1      38.576  32.704  45.410  0.00  0.00    +0.000 NA
ATOM     17  H   UNL     1      39.838  34.198  44.573  0.00  0.00    +0.000 HD
ATOM     18  H   UNL     1      41.891  32.800  44.684  0.00  0.00    +0.000 HD
ATOM     19  H   UNL     1      41.667  30.473  45.627  0.00  0.00    +0.000 HD
ENDBRANCH   3  15
BRANCH   7  20
ATOM     20  C   UNL     1      35.194  30.553  49.539  0.00  0.00    +0.000 C 
ATOM     21  H   UNL     1      34.575  31.489  49.628  0.00  0.00    +0.000 HD
ATOM     22  H   UNL     1      36.026  30.660  50.248  0.00  0.00    +0.000 HD
BRANCH  20  23
ATOM     23  C   UNL     1      34.318  29.424  49.921  0.00  0.00    +0.000 C 
ATOM     24  H   UNL     1      33.963  29.656  50.975  0.00  0.00    +0.000 HD
ATOM     25  H   UNL     1      33.413  29.282  49.352  0.00  0.00    +0.000 HD
BRANCH  23  26
ATOM     26  N   UNL     1      35.060  28.189  50.005  0.00  0.00    +0.000 NA
ATOM     27  H   UNL     1      34.525  27.340  49.809  0.00  0.00    +0.000 HD
BRANCH  26  33
ATOM     28  H   UNL     1      34.830  27.883  52.779  0.00  0.00    +0.000 HD
ATOM     29  N   UNL     1      35.575  27.417  52.246  0.00  0.00    +0.000 NA
ATOM     30  C   UNL     1      36.844  27.382  52.988  0.00  0.00    +0.000 C 
ATOM     31  C   UNL     1      37.868  27.005  51.930  0.00  0.00    +0.000 C 
ATOM     32  C   UNL     1      37.126  27.172  50.597  0.00  0.00    +0.000 C 
ATOM     33  C   UNL     1      36.000  28.096  51.059  0.00  0.00    +0.000 C 
ENDBRANCH  26  33
ENDBRANCH  23  26
ENDBRANCH  20  23
ENDBRANCH   7  20
TORSDOF 5
