
 OpenBabel03262522503D

 30 33  0  0  0  0  0  0  0  0999 V2000
   36.0410   30.1390   48.8590 C   0  0  0  0  0  0  0  0  0  0  0  0
   36.0030   29.1390   49.7370 C   0  0  0  0  0  0  0  0  0  0  0  0
   34.9260   28.2800   49.7280 C   0  0  0  0  0  0  0  0  0  0  0  0
   33.9630   28.5260   48.7990 C   0  0  0  0  0  0  0  0  0  0  0  0
   34.6070   30.0000   47.9340 S   0  0  0  0  0  0  0  0  0  0  0  0
   36.8300   29.0110   50.4600 H   0  0  0  0  0  0  0  0  0  0  0  0
   34.7980   27.4340   50.4010 H   0  0  0  0  0  0  0  0  0  0  0  0
   32.7140   27.8030   48.5420 C   0  0  0  0  0  0  0  0  0  0  0  0
   32.6570   26.8660   47.5800 C   0  0  0  0  0  0  0  0  0  0  0  0
   31.4580   26.2270   47.3920 C   0  0  0  0  0  0  0  0  0  0  0  0
   30.3510   26.5150   48.1390 N   0  0  0  0  0  0  0  0  0  0  0  0
   30.5200   27.4730   49.0770 C   0  0  0  0  0  0  0  0  0  0  0  0
   31.6640   28.1520   49.3290 N   0  0  0  0  0  0  0  0  0  0  0  0
   33.5110   26.6000   46.9590 H   0  0  0  0  0  0  0  0  0  0  0  0
   31.3340   25.4620   46.6400 H   0  0  0  0  0  0  0  0  0  0  0  0
   29.3900   27.8060   49.8790 N   0  0  0  0  0  0  0  0  0  0  0  0
   28.7690   27.0910   50.9780 C   0  0  0  0  0  0  0  0  0  0  0  0
   27.2900   27.2200   50.8360 C   0  0  0  0  0  0  0  0  0  0  0  0
   27.1150   28.3960   49.9280 C   0  0  0  0  0  0  0  0  0  0  0  0
   28.5170   28.9610   49.8410 C   0  0  0  0  0  0  0  0  0  0  0  0
   28.7010   29.6450   50.6990 H   0  0  0  0  0  0  0  0  0  0  0  0
   38.0330   33.1440   49.4070 C   0  0  0  0  0  0  0  0  0  0  0  0
   38.9700   33.1150   48.3820 C   0  0  0  0  0  0  0  0  0  0  0  0
   38.9150   32.0420   47.4850 C   0  0  0  0  0  0  0  0  0  0  0  0
   37.9540   31.0750   47.6490 N   0  0  0  0  0  0  0  0  0  0  0  0
   37.0750   31.1730   48.6750 C   0  0  0  0  0  0  0  0  0  0  0  0
   37.0930   32.1720   49.5440 N   0  0  0  0  0  0  0  0  0  0  0  0
   38.0570   33.9660   50.1130 H   0  0  0  0  0  0  0  0  0  0  0  0
   39.7270   33.8570   48.2350 H   0  0  0  0  0  0  0  0  0  0  0  0
   39.5960   31.9230   46.6520 H   0  0  0  0  0  0  0  0  0  0  0  0
  1  2  2  0  0  0  0
  2  6  1  0  0  0  0
  3  2  1  0  0  0  0
  3  7  1  0  0  0  0
  4  3  2  0  0  0  0
  5  4  1  0  0  0  0
  5  1  1  0  0  0  0
  8  4  1  0  0  0  0
  8 13  1  0  0  0  0
  9  8  2  0  0  0  0
 10  9  1  0  0  0  0
 10 11  2  0  0  0  0
 11 12  1  0  0  0  0
 12 13  2  0  0  0  0
 12 16  1  0  0  0  0
 14  9  1  0  0  0  0
 15 10  1  0  0  0  0
 16 17  1  0  0  0  0
 18 17  1  0  0  0  0
 19 18  1  0  0  0  0
 20 16  1  0  0  0  0
 20 19  1  0  0  0  0
 20 21  1  0  0  0  0
 22 27  1  0  0  0  0
 22 28  1  0  0  0  0
 23 22  2  0  0  0  0
 24 25  2  0  0  0  0
 24 23  1  0  0  0  0
 25 26  1  0  0  0  0
 26  1  1  0  0  0  0
 26 27  2  0  0  0  0
 29 23  1  0  0  0  0
 30 24  1  0  0  0  0
M  END
>  <minimizedAffinity>
-7.07768202

>  <minimizedRMSD>
0.814611197

$$$$
