
 OpenBabel03272504253D

 39 42  0  0  0  0  0  0  0  0999 V2000
   35.4860   29.5340   48.4140 C   0  0  0  0  0  0  0  0  0  0  0  0
   35.2780   28.7000   49.4550 C   0  0  0  0  0  0  0  0  0  0  0  0
   34.4090   27.6850   49.3650 C   0  0  0  0  0  0  0  0  0  0  0  0
   33.7280   27.4960   48.2030 N   0  0  0  0  0  0  0  0  0  0  0  0
   33.9420   28.3220   47.1850 C   0  0  0  0  0  0  0  0  0  0  0  0
   34.8110   29.3430   47.2670 N   0  0  0  0  0  0  0  0  0  0  0  0
   35.8220   28.8540   50.3790 H   0  0  0  0  0  0  0  0  0  0  0  0
   34.2480   27.0220   50.2040 H   0  0  0  0  0  0  0  0  0  0  0  0
   37.3930   32.4580   49.5440 C   0  0  0  0  0  0  0  0  0  0  0  0
   38.2590   32.6940   48.4600 C   0  0  0  0  0  0  0  0  0  0  0  0
   38.1660   31.8390   47.3620 C   0  0  0  0  0  0  0  0  0  0  0  0
   37.2490   30.8400   47.4100 N   0  0  0  0  0  0  0  0  0  0  0  0
   36.4240   30.6390   48.4780 C   0  0  0  0  0  0  0  0  0  0  0  0
   36.5090   31.4520   49.5300 N   0  0  0  0  0  0  0  0  0  0  0  0
   37.4990   33.1360   50.3630 H   0  0  0  0  0  0  0  0  0  0  0  0
   38.9900   33.4810   48.4090 H   0  0  0  0  0  0  0  0  0  0  0  0
   38.9430   31.9200   46.1980 N   0  0  0  0  0  0  0  0  0  0  0  0
   39.0910   32.9800   45.2180 C   0  0  0  0  0  2  0  0  0  0  0  0
   40.5800   32.9320   44.9470 C   0  0  0  0  0  2  0  0  0  0  0  0
   40.8360   31.4510   44.8720 C   0  0  0  0  0  2  0  0  0  0  0  0
   39.8000   30.8300   45.7720 C   0  0  0  0  0  3  0  0  0  0  0  0
   40.2860   30.3830   46.6640 H   0  0  0  0  0  0  0  0  0  0  0  0
   31.8090   27.8020   46.0810 C   0  0  0  0  0  0  0  0  0  0  0  0
   33.1860   28.0190   45.9930 C   0  0  0  0  0  0  0  0  0  0  0  0
   33.9080   27.9370   44.8170 C   0  0  0  0  0  0  0  0  0  0  0  0
   33.2520   27.6230   43.6480 C   0  0  0  0  0  0  0  0  0  0  0  0
   31.8930   27.3920   43.6420 C   0  0  0  0  0  0  0  0  0  0  0  0
   31.2670   27.4950   44.8410 C   0  0  0  0  0  0  0  0  0  0  0  0
   34.9750   28.1140   44.7980 H   0  0  0  0  0  0  0  0  0  0  0  0
   33.8280   27.5610   42.7300 H   0  0  0  0  0  0  0  0  0  0  0  0
   31.3490   27.1420   42.7410 H   0  0  0  0  0  0  0  0  0  0  0  0
   30.1850   27.3080   44.8310 H   0  0  0  0  0  0  0  0  0  0  0  0
   30.9040   27.9150   47.4760 S   0  0  0  0  0  0  0  0  0  0  0  0
   30.0370   26.6340   47.2380 O   0  0  0  0  0  0  0  0  0  0  0  0
   30.0170   29.1240   47.3350 O   0  0  0  0  0  0  0  0  0  0  0  0
   30.6880   27.7010   49.0450 C   0  0  0  0  0  0  0  0  0  0  0  0
   30.1790   26.5250   49.6380 F   0  0  0  0  0  0  0  0  0  0  0  0
   29.4840   28.4260   49.4820 F   0  0  0  0  0  0  0  0  0  0  0  0
   31.3970   28.4720   50.0100 F   0  0  0  0  0  0  0  0  0  0  0  0
  1 13  1  0  0  0  0
  1  2  1  0  0  0  0
  2  7  1  0  0  0  0
  3  2  2  0  0  0  0
  3  8  1  0  0  0  0
  4  3  1  0  0  0  0
  5  6  1  0  0  0  0
  5  4  2  0  0  0  0
  6  1  2  0  0  0  0
  9 15  1  0  0  0  0
 10  9  2  0  0  0  0
 11 12  2  0  0  0  0
 11 10  1  0  0  0  0
 12 13  1  0  0  0  0
 13 14  2  0  0  0  0
 14  9  1  0  0  0  0
 16 10  1  0  0  0  0
 17 11  1  0  0  0  0
 18 17  1  0  0  0  0
 19 18  1  0  0  0  0
 20 19  1  0  0  0  0
 20 21  1  0  0  0  0
 21 17  1  0  0  0  0
 21 22  1  0  0  0  0
 23 33  1  0  0  0  0
 24 23  1  0  0  0  0
 24  5  1  0  0  0  0
 25 24  2  0  0  0  0
 26 25  1  0  0  0  0
 27 26  2  0  0  0  0
 27 28  1  0  0  0  0
 28 23  2  0  0  0  0
 29 25  1  0  0  0  0
 30 26  1  0  0  0  0
 31 27  1  0  0  0  0
 32 28  1  0  0  0  0
 33 36  1  0  0  0  0
 34 33  2  0  0  0  0
 35 33  2  0  0  0  0
 36 38  1  0  0  0  0
 36 37  1  0  0  0  0
 36 39  1  0  0  0  0
M  END
>  <minimizedAffinity>
-6.66733551

>  <minimizedRMSD>
0.656742871

$$$$
