
 OpenBabel03272504263D

 39 42  0  0  0  0  0  0  0  0999 V2000
   35.5970   29.6280   48.3970 C   0  0  0  0  0  0  0  0  0  0  0  0
   35.3760   28.7980   49.4390 C   0  0  0  0  0  0  0  0  0  0  0  0
   34.5320   27.7640   49.3330 C   0  0  0  0  0  0  0  0  0  0  0  0
   33.8880   27.5520   48.1530 N   0  0  0  0  0  0  0  0  0  0  0  0
   34.1140   28.3740   47.1350 C   0  0  0  0  0  0  0  0  0  0  0  0
   34.9590   29.4140   47.2320 N   0  0  0  0  0  0  0  0  0  0  0  0
   35.8910   28.9700   50.3760 H   0  0  0  0  0  0  0  0  0  0  0  0
   34.3610   27.1040   50.1720 H   0  0  0  0  0  0  0  0  0  0  0  0
   37.4880   32.5320   49.5990 C   0  0  0  0  0  0  0  0  0  0  0  0
   38.2890   32.8560   48.4880 C   0  0  0  0  0  0  0  0  0  0  0  0
   38.1580   32.0650   47.3470 C   0  0  0  0  0  0  0  0  0  0  0  0
   37.2700   31.0390   47.3830 N   0  0  0  0  0  0  0  0  0  0  0  0
   36.5090   30.7530   48.4780 C   0  0  0  0  0  0  0  0  0  0  0  0
   36.6300   31.5050   49.5710 N   0  0  0  0  0  0  0  0  0  0  0  0
   37.6210   33.1640   50.4510 H   0  0  0  0  0  0  0  0  0  0  0  0
   38.9960   33.6640   48.4460 H   0  0  0  0  0  0  0  0  0  0  0  0
   38.8690   32.2350   46.1510 N   0  0  0  0  0  0  0  0  0  0  0  0
   40.2930   32.2040   45.8720 C   0  0  0  0  0  2  0  0  0  0  0  0
   40.3240   31.4550   44.5550 C   0  0  0  0  0  2  0  0  0  0  0  0
   39.1680   32.0750   43.8160 C   0  0  0  0  0  2  0  0  0  0  0  0
   38.1990   32.4950   44.8920 C   0  0  0  0  0  3  0  0  0  0  0  0
   37.2780   31.8750   44.8380 H   0  0  0  0  0  0  0  0  0  0  0  0
   32.0240   27.8020   45.9750 C   0  0  0  0  0  0  0  0  0  0  0  0
   33.3990   28.0450   45.9240 C   0  0  0  0  0  0  0  0  0  0  0  0
   34.1560   27.9680   44.7700 C   0  0  0  0  0  0  0  0  0  0  0  0
   33.5400   27.6310   43.5850 C   0  0  0  0  0  0  0  0  0  0  0  0
   32.1870   27.3730   43.5420 C   0  0  0  0  0  0  0  0  0  0  0  0
   31.5250   27.4730   44.7220 C   0  0  0  0  0  0  0  0  0  0  0  0
   35.2190   28.1670   44.7800 H   0  0  0  0  0  0  0  0  0  0  0  0
   34.1430   27.5730   42.6860 H   0  0  0  0  0  0  0  0  0  0  0  0
   31.6740   27.1050   42.6290 H   0  0  0  0  0  0  0  0  0  0  0  0
   30.4470   27.2650   44.6830 H   0  0  0  0  0  0  0  0  0  0  0  0
   31.0770   27.9090   47.3420 S   0  0  0  0  0  0  0  0  0  0  0  0
   30.1740   26.6670   47.0390 O   0  0  0  0  0  0  0  0  0  0  0  0
   30.2390   29.1520   47.2080 O   0  0  0  0  0  0  0  0  0  0  0  0
   30.8020   27.6590   48.8960 C   0  0  0  0  0  0  0  0  0  0  0  0
   30.2840   26.4640   49.4430 F   0  0  0  0  0  0  0  0  0  0  0  0
   29.5710   28.3590   49.2990 F   0  0  0  0  0  0  0  0  0  0  0  0
   31.4610   28.4170   49.9050 F   0  0  0  0  0  0  0  0  0  0  0  0
  1 13  1  0  0  0  0
  1  2  1  0  0  0  0
  2  7  1  0  0  0  0
  3  2  2  0  0  0  0
  3  8  1  0  0  0  0
  4  3  1  0  0  0  0
  5  6  1  0  0  0  0
  5  4  2  0  0  0  0
  6  1  2  0  0  0  0
  9 15  1  0  0  0  0
 10  9  2  0  0  0  0
 11 12  2  0  0  0  0
 11 10  1  0  0  0  0
 12 13  1  0  0  0  0
 13 14  2  0  0  0  0
 14  9  1  0  0  0  0
 16 10  1  0  0  0  0
 17 11  1  0  0  0  0
 18 17  1  0  0  0  0
 19 18  1  0  0  0  0
 20 19  1  0  0  0  0
 20 21  1  0  0  0  0
 21 17  1  0  0  0  0
 22 21  1  0  0  0  0
 23 33  1  0  0  0  0
 24 23  1  0  0  0  0
 24  5  1  0  0  0  0
 25 29  1  0  0  0  0
 25 24  2  0  0  0  0
 26 25  1  0  0  0  0
 27 26  2  0  0  0  0
 27 28  1  0  0  0  0
 28 23  2  0  0  0  0
 30 26  1  0  0  0  0
 31 27  1  0  0  0  0
 32 28  1  0  0  0  0
 33 36  1  0  0  0  0
 34 33  2  0  0  0  0
 35 33  2  0  0  0  0
 36 38  1  0  0  0  0
 36 37  1  0  0  0  0
 36 39  1  0  0  0  0
M  END
>  <minimizedAffinity>
-6.46750069

>  <minimizedRMSD>
0.515653491

$$$$
