
 OpenBabel03272506083D

 41 44  0  0  0  0  0  0  0  0999 V2000
   33.3940   28.2560   48.2980 C   0  0  0  0  0  0  0  0  0  0  0  0
   33.4010   28.5890   46.9040 C   0  0  0  0  0  0  0  0  0  0  0  0
   31.6980   28.3250   46.4790 S   0  0  0  0  0  0  0  0  0  0  0  0
   31.1950   27.8060   48.2070 C   0  0  0  0  0  0  0  0  0  0  0  0
   32.2390   27.8960   48.7670 N   0  0  0  0  0  0  0  0  0  0  0  0
   29.9070   27.4000   48.7540 N   0  0  0  0  0  0  0  0  0  0  0  0
   29.0180   26.7460   47.8610 C   0  0  0  0  0  0  0  0  0  0  0  0
   27.5940   26.7210   48.3100 C   0  0  0  0  0  0  0  0  0  0  0  0
   27.3510   27.5290   49.5130 N   0  0  0  0  0  0  0  0  0  0  0  0
   28.3060   27.0530   50.5020 C   0  0  0  0  0  0  0  0  0  0  0  0
   29.6210   27.6840   50.1420 C   0  0  0  0  0  0  0  0  0  0  0  0
   34.2300   28.9030   46.3260 H   0  0  0  0  0  0  0  0  0  0  0  0
   29.0310   27.3360   46.8980 H   0  0  0  0  0  0  0  0  0  0  0  0
   29.3360   25.7210   47.5400 H   0  0  0  0  0  0  0  0  0  0  0  0
   26.8590   27.0300   47.5260 H   0  0  0  0  0  0  0  0  0  0  0  0
   27.3180   25.6780   48.5980 H   0  0  0  0  0  0  0  0  0  0  0  0
   27.6030   28.5140   49.2390 H   0  0  0  0  0  0  0  0  0  0  0  0
   27.9710   27.4750   51.4820 H   0  0  0  0  0  0  0  0  0  0  0  0
   28.3610   25.9440   50.5050 H   0  0  0  0  0  0  0  0  0  0  0  0
   30.4370   27.3970   50.8370 H   0  0  0  0  0  0  0  0  0  0  0  0
   29.4890   28.7870   50.2100 H   0  0  0  0  0  0  0  0  0  0  0  0
   34.6810   28.3440   49.0800 C   0  0  0  0  0  0  0  0  0  0  0  0
   34.7480   27.4430   49.7530 H   0  0  0  0  0  0  0  0  0  0  0  0
   35.5520   28.2270   48.3970 H   0  0  0  0  0  0  0  0  0  0  0  0
   34.7740   29.5930   49.8580 C   0  0  0  0  0  0  0  0  0  0  0  0
   33.8350   30.1810   49.8870 H   0  0  0  0  0  0  0  0  0  0  0  0
   35.0080   29.3570   50.9240 H   0  0  0  0  0  0  0  0  0  0  0  0
   37.5450   32.0690   49.6620 C   0  0  0  0  0  0  0  0  0  0  0  0
   37.9980   31.9330   48.3480 C   0  0  0  0  0  0  0  0  0  0  0  0
   37.3360   30.9900   47.5640 C   0  0  0  0  0  0  0  0  0  0  0  0
   36.3190   30.2600   48.0590 N   0  0  0  0  0  0  0  0  0  0  0  0
   35.9190   30.4380   49.3560 C   0  0  0  0  0  0  0  0  0  0  0  0
   36.5390   31.3360   50.1280 N   0  0  0  0  0  0  0  0  0  0  0  0
   38.0390   32.7920   50.2940 H   0  0  0  0  0  0  0  0  0  0  0  0
   38.8050   32.5350   48.0080 H   0  0  0  0  0  0  0  0  0  0  0  0
   37.7400   30.7980   46.2230 N   0  0  0  0  0  0  0  0  0  0  0  0
   36.9160   30.7520   45.0330 C   0  0  0  0  0  2  0  0  0  0  0  0
   37.6580   31.6920   44.1010 C   0  0  0  0  0  2  0  0  0  0  0  0
   39.1080   31.3970   44.4170 C   0  0  0  0  0  2  0  0  0  0  0  0
   39.0870   30.6000   45.7270 C   0  0  0  0  0  3  0  0  0  0  0  0
   39.8580   30.9140   46.4300 H   0  0  0  0  0  0  0  0  0  0  0  0
  1  5  1  0  0  0  0
  1 22  1  0  0  0  0
  2  1  2  0  0  0  0
  3  2  1  0  0  0  0
  3  4  1  0  0  0  0
  4  6  1  0  0  0  0
  4  5  2  0  0  0  0
  6 11  1  0  0  0  0
  7  8  1  0  0  0  0
  7  6  1  0  0  0  0
  8 16  1  0  0  0  0
  8  9  1  0  0  0  0
  9 10  1  0  0  0  0
 10 19  1  0  0  0  0
 10 18  1  0  0  0  0
 11 21  1  0  0  0  0
 11 10  1  0  0  0  0
 11 20  1  0  0  0  0
 12  2  1  0  0  0  0
 13  7  1  0  0  0  0
 14  7  1  0  0  0  0
 15  8  1  0  0  0  0
 17  9  1  0  0  0  0
 22 23  1  0  0  0  0
 22 25  1  0  0  0  0
 24 22  1  0  0  0  0
 25 26  1  0  0  0  0
 25 27  1  0  0  0  0
 28 33  1  0  0  0  0
 28 34  1  0  0  0  0
 29 28  2  0  0  0  0
 30 31  2  0  0  0  0
 30 29  1  0  0  0  0
 31 32  1  0  0  0  0
 32 25  1  0  0  0  0
 32 33  2  0  0  0  0
 35 29  1  0  0  0  0
 36 30  1  0  0  0  0
 37 36  1  0  0  0  0
 38 39  1  0  0  0  0
 38 37  1  0  0  0  0
 39 40  1  0  0  0  0
 40 36  1  0  0  0  0
 40 41  1  0  0  0  0
M  END
>  <minimizedAffinity>
-6.14086199

>  <minimizedRMSD>
0.972713768

$$$$
