
 OpenBabel03262520293D

 35 38  0  0  1  0  0  0  0  0999 V2000
   38.1330   23.9810   36.3460 C   0  0  1  0  0  0  0  0  0  0  0  0
   38.0450   23.3240   37.4060 N   0  0  0  0  0  0  0  0  0  0  0  0
   38.2250   23.4990   38.6340 C   0  0  0  0  0  0  0  0  0  0  0  0
   39.2910   22.6540   38.6220 N   0  0  0  0  0  0  0  0  0  0  0  0
   39.9770   22.6630   37.4300 C   0  0  0  0  0  0  0  0  0  0  0  0
   41.2380   22.0000   37.4970 C   0  0  0  0  0  0  0  0  0  0  0  0
   41.9860   22.0000   36.3690 C   0  0  0  0  0  0  0  0  0  0  0  0
   41.6280   22.5790   35.1910 C   0  0  0  0  0  0  0  0  0  0  0  0
   40.3930   23.1800   35.2640 C   0  0  0  0  0  0  0  0  0  0  0  0
   39.4300   23.3270   36.2770 C   0  0  0  0  0  0  0  0  0  0  0  0
   38.3970   25.0520   36.7080 H   0  0  0  0  0  0  0  0  0  0  0  0
   37.4010   22.4710   37.2720 H   0  0  0  0  0  0  0  0  0  0  0  0
   37.4310   23.1730   39.3420 H   0  0  0  0  0  0  0  0  0  0  0  0
   38.5260   24.5140   38.9970 H   0  0  0  0  0  0  0  0  0  0  0  0
   39.5040   22.0850   39.4750 H   0  0  0  0  0  0  0  0  0  0  0  0
   41.6260   21.5080   38.3630 H   0  0  0  0  0  0  0  0  0  0  0  0
   42.9600   21.5000   36.3840 H   0  0  0  0  0  0  0  0  0  0  0  0
   42.1700   22.6140   34.2760 H   0  0  0  0  0  0  0  0  0  0  0  0
   40.0700   23.6510   34.3230 H   0  0  0  0  0  0  0  0  0  0  0  0
   37.8980   24.6010   32.6730 C   0  0  0  0  0  0  0  0  0  0  0  0
   37.5720   25.9270   32.7700 C   0  0  0  0  0  0  0  0  0  0  0  0
   37.4590   26.4520   34.0500 C   0  0  0  0  0  0  0  0  0  0  0  0
   37.6780   25.6090   35.0920 N   0  0  0  0  0  0  0  0  0  0  0  0
   37.9960   24.3140   34.9630 C   0  0  0  0  0  0  0  0  0  0  0  0
   38.0820   23.9140   33.7420 N   0  0  0  0  0  0  0  0  0  0  0  0
   37.1450   27.8430   34.1750 N   0  0  0  0  0  0  0  0  0  0  0  0
   38.0110   24.1030   31.7250 H   0  0  0  0  0  0  0  0  0  0  0  0
   37.8660   28.5100   33.8570 H   0  0  0  0  0  0  0  0  0  0  0  0
   36.1840   28.0130   34.5900 H   0  0  0  0  0  0  0  0  0  0  0  0
   37.3570   26.7270   31.6070 N   0  0  0  0  0  0  0  0  0  0  0  0
   36.1400   27.0830   30.8940 C   0  0  0  0  0  2  0  0  0  0  0  0
   36.2150   28.5950   30.8960 C   0  0  0  0  0  2  0  0  0  0  0  0
   37.6920   28.8290   30.6560 C   0  0  0  0  0  2  0  0  0  0  0  0
   38.3330   27.4410   30.7710 C   0  0  0  0  0  3  0  0  0  0  0  0
   39.3210   27.5060   31.2230 H   0  0  0  0  0  0  0  0  0  0  0  0
  1 11  1  1  0  0  0
  1  2  1  0  0  0  0
  2  3  1  0  0  0  0
  3 14  1  0  0  0  0
  3 13  1  0  0  0  0
  4  3  1  0  0  0  0
  4 15  1  0  0  0  0
  5  6  1  0  0  0  0
  5  4  1  0  0  0  0
  6 16  1  0  0  0  0
  7 17  1  0  0  0  0
  7  6  2  0  0  0  0
  8  9  2  0  0  0  0
  8  7  1  0  0  0  0
  9 10  1  0  0  0  0
 10  1  1  0  0  0  0
 10  5  2  0  0  0  0
 12  2  1  0  0  0  0
 18  8  1  0  0  0  0
 19  9  1  0  0  0  0
 20 21  2  0  0  0  0
 20 25  1  0  0  0  0
 21 22  1  0  0  0  0
 22 26  1  0  0  0  0
 22 23  2  0  0  0  0
 24 23  1  0  0  0  0
 24  1  1  0  0  0  0
 25 24  2  0  0  0  0
 26 29  1  0  0  0  0
 27 20  1  0  0  0  0
 28 26  1  0  0  0  0
 30 21  1  0  0  0  0
 31 32  1  0  0  0  0
 31 30  1  0  0  0  0
 33 34  1  0  0  0  0
 33 32  1  0  0  0  0
 34 35  1  0  0  0  0
 34 30  1  0  0  0  0
M  END
>  <minimizedAffinity>
-6.04983616

$$$$

 OpenBabel03262520293D

 35 38  0  0  1  0  0  0  0  0999 V2000
   38.3970   24.7830   36.4740 C   0  0  1  0  0  0  0  0  0  0  0  0
   37.9720   23.8660   37.2100 N   0  0  0  0  0  0  0  0  0  0  0  0
   37.8650   23.6210   38.4340 C   0  0  0  0  0  0  0  0  0  0  0  0
   38.7900   22.6270   38.3400 N   0  0  0  0  0  0  0  0  0  0  0  0
   39.7430   22.8630   37.3780 C   0  0  0  0  0  0  0  0  0  0  0  0
   40.8580   21.9770   37.4550 C   0  0  0  0  0  0  0  0  0  0  0  0
   41.8540   22.1730   36.5610 C   0  0  0  0  0  0  0  0  0  0  0  0
   41.8710   23.1410   35.6050 C   0  0  0  0  0  0  0  0  0  0  0  0
   40.7390   23.9220   35.6390 C   0  0  0  0  0  0  0  0  0  0  0  0
   39.5820   23.9400   36.4370 C   0  0  0  0  0  0  0  0  0  0  0  0
   38.6930   25.6200   37.2220 H   0  0  0  0  0  0  0  0  0  0  0  0
   37.2810   23.2380   36.6720 H   0  0  0  0  0  0  0  0  0  0  0  0
   36.8870   23.2580   38.8220 H   0  0  0  0  0  0  0  0  0  0  0  0
   38.1890   24.3980   39.1710 H   0  0  0  0  0  0  0  0  0  0  0  0
   38.7150   21.7970   38.9720 H   0  0  0  0  0  0  0  0  0  0  0  0
   40.9580   21.1800   38.1600 H   0  0  0  0  0  0  0  0  0  0  0  0
   42.7260   21.5120   36.5920 H   0  0  0  0  0  0  0  0  0  0  0  0
   42.6200   23.3450   34.8780 H   0  0  0  0  0  0  0  0  0  0  0  0
   40.7170   24.7090   34.8710 H   0  0  0  0  0  0  0  0  0  0  0  0
   39.1800   26.9520   33.5390 C   0  0  0  0  0  0  0  0  0  0  0  0
   38.3380   26.3200   32.6630 C   0  0  0  0  0  0  0  0  0  0  0  0
   37.6180   25.2400   33.1540 C   0  0  0  0  0  0  0  0  0  0  0  0
   37.8120   24.9010   34.4550 N   0  0  0  0  0  0  0  0  0  0  0  0
   38.6460   25.5400   35.2870 C   0  0  0  0  0  0  0  0  0  0  0  0
   39.2680   26.5300   34.7490 N   0  0  0  0  0  0  0  0  0  0  0  0
   36.7120   24.5820   32.2640 N   0  0  0  0  0  0  0  0  0  0  0  0
   39.7780   27.8000   33.2540 H   0  0  0  0  0  0  0  0  0  0  0  0
   35.8860   25.1220   31.9620 H   0  0  0  0  0  0  0  0  0  0  0  0
   37.0150   23.5950   32.0220 H   0  0  0  0  0  0  0  0  0  0  0  0
   38.2110   26.7550   31.3090 N   0  0  0  0  0  0  0  0  0  0  0  0
   37.2720   27.6670   30.6730 C   0  0  0  0  0  2  0  0  0  0  0  0
   38.2070   28.6690   30.0290 C   0  0  0  0  0  2  0  0  0  0  0  0
   39.3190   27.7720   29.5270 C   0  0  0  0  0  2  0  0  0  0  0  0
   39.0180   26.3970   30.1330 C   0  0  0  0  0  3  0  0  0  0  0  0
   39.9390   25.8740   30.3860 H   0  0  0  0  0  0  0  0  0  0  0  0
  1  2  1  0  0  0  0
  1 11  1  1  0  0  0
  2  3  1  0  0  0  0
  3 13  1  0  0  0  0
  3 14  1  0  0  0  0
  4  3  1  0  0  0  0
  4 15  1  0  0  0  0
  5  6  1  0  0  0  0
  5  4  1  0  0  0  0
  6 16  1  0  0  0  0
  7 17  1  0  0  0  0
  7  6  2  0  0  0  0
  8  9  2  0  0  0  0
  8  7  1  0  0  0  0
  9 10  1  0  0  0  0
 10  1  1  0  0  0  0
 10  5  2  0  0  0  0
 12  2  1  0  0  0  0
 18  8  1  0  0  0  0
 19  9  1  0  0  0  0
 20 25  1  0  0  0  0
 21 22  1  0  0  0  0
 21 20  2  0  0  0  0
 22 23  2  0  0  0  0
 23 24  1  0  0  0  0
 24  1  1  0  0  0  0
 25 24  2  0  0  0  0
 26 22  1  0  0  0  0
 27 20  1  0  0  0  0
 28 26  1  0  0  0  0
 29 26  1  0  0  0  0
 30 21  1  0  0  0  0
 31 30  1  0  0  0  0
 32 31  1  0  0  0  0
 33 32  1  0  0  0  0
 33 34  1  0  0  0  0
 34 35  1  0  0  0  0
 34 30  1  0  0  0  0
M  END
>  <minimizedAffinity>
-5.81560087

$$$$

 OpenBabel03262520293D

 35 38  0  0  1  0  0  0  0  0999 V2000
   38.0060   27.3410   32.0460 C   0  0  1  0  0  0  0  0  0  0  0  0
   37.4660   27.5230   30.9330 N   0  0  0  0  0  0  0  0  0  0  0  0
   37.5870   28.2850   29.9460 C   0  0  0  0  0  0  0  0  0  0  0  0
   36.3890   28.8690   30.2200 N   0  0  0  0  0  0  0  0  0  0  0  0
   36.0950   28.8990   31.5630 C   0  0  0  0  0  0  0  0  0  0  0  0
   34.9890   29.7410   31.8820 C   0  0  0  0  0  0  0  0  0  0  0  0
   34.6640   29.8480   33.1920 C   0  0  0  0  0  0  0  0  0  0  0  0
   35.3070   29.2200   34.2130 C   0  0  0  0  0  0  0  0  0  0  0  0
   36.3490   28.4410   33.7670 C   0  0  0  0  0  0  0  0  0  0  0  0
   36.8910   28.1550   32.5030 C   0  0  0  0  0  0  0  0  0  0  0  0
   38.8950   28.0890   32.0440 H   0  0  0  0  0  0  0  0  0  0  0  0
   36.9350   26.6390   30.6210 H   0  0  0  0  0  0  0  0  0  0  0  0
   37.6210   27.8390   28.9270 H   0  0  0  0  0  0  0  0  0  0  0  0
   38.4090   29.0440   29.9480 H   0  0  0  0  0  0  0  0  0  0  0  0
   35.8050   29.2340   29.4320 H   0  0  0  0  0  0  0  0  0  0  0  0
   34.4070   30.2830   31.1690 H   0  0  0  0  0  0  0  0  0  0  0  0
   33.8200   30.4860   33.4730 H   0  0  0  0  0  0  0  0  0  0  0  0
   35.1000   29.2640   35.2550 H   0  0  0  0  0  0  0  0  0  0  0  0
   36.8840   27.9110   34.5700 H   0  0  0  0  0  0  0  0  0  0  0  0
   39.0060   25.9430   35.3590 C   0  0  0  0  0  0  0  0  0  0  0  0
   38.5850   24.6650   35.1100 C   0  0  0  0  0  0  0  0  0  0  0  0
   38.0080   24.4250   33.8710 C   0  0  0  0  0  0  0  0  0  0  0  0
   37.9090   25.4750   33.0150 N   0  0  0  0  0  0  0  0  0  0  0  0
   38.3300   26.7170   33.2900 C   0  0  0  0  0  0  0  0  0  0  0  0
   38.8540   26.8470   34.4590 N   0  0  0  0  0  0  0  0  0  0  0  0
   37.5850   23.0890   33.5790 N   0  0  0  0  0  0  0  0  0  0  0  0
   39.4670   26.2280   36.2890 H   0  0  0  0  0  0  0  0  0  0  0  0
   38.3290   22.3800   33.4820 H   0  0  0  0  0  0  0  0  0  0  0  0
   36.5320   22.9980   33.4990 H   0  0  0  0  0  0  0  0  0  0  0  0
   38.7320   23.6310   36.0840 N   0  0  0  0  0  0  0  0  0  0  0  0
   39.7310   22.5830   36.2340 C   0  0  0  0  0  2  0  0  0  0  0  0
   40.2250   22.8300   37.6440 C   0  0  0  0  0  2  0  0  0  0  0  0
   38.9380   23.1800   38.3620 C   0  0  0  0  0  2  0  0  0  0  0  0
   37.8930   23.3200   37.2510 C   0  0  0  0  0  3  0  0  0  0  0  0
   37.1760   24.1040   37.4870 H   0  0  0  0  0  0  0  0  0  0  0  0
  1 11  1  6  0  0  0
  1 10  1  0  0  0  0
  1 24  1  0  0  0  0
  2  1  1  0  0  0  0
  3 14  1  0  0  0  0
  3  4  1  0  0  0  0
  3  2  1  0  0  0  0
  4  5  1  0  0  0  0
  5  6  2  0  0  0  0
  5 10  1  0  0  0  0
  6  7  1  0  0  0  0
  7 17  1  0  0  0  0
  7  8  2  0  0  0  0
  8 18  1  0  0  0  0
  9  8  1  0  0  0  0
  9 19  1  0  0  0  0
 10  9  2  0  0  0  0
 12  2  1  0  0  0  0
 13  3  1  0  0  0  0
 15  4  1  0  0  0  0
 16  6  1  0  0  0  0
 20 27  1  0  0  0  0
 21 20  1  0  0  0  0
 21 30  1  0  0  0  0
 22 21  2  0  0  0  0
 23 24  2  0  0  0  0
 23 22  1  0  0  0  0
 24 25  1  0  0  0  0
 25 20  2  0  0  0  0
 26 22  1  0  0  0  0
 28 26  1  0  0  0  0
 29 26  1  0  0  0  0
 30 31  1  0  0  0  0
 30 34  1  0  0  0  0
 31 32  1  0  0  0  0
 32 33  1  0  0  0  0
 34 35  1  0  0  0  0
 34 33  1  0  0  0  0
M  END
>  <minimizedAffinity>
-5.73005915

$$$$

 OpenBabel03262520293D

 35 38  0  0  1  0  0  0  0  0999 V2000
   36.2160   20.5730   32.7460 C   0  0  1  0  0  0  0  0  0  0  0  0
   35.4200   19.7130   32.3110 N   0  0  0  0  0  0  0  0  0  0  0  0
   35.2010   18.4870   32.4440 C   0  0  0  0  0  0  0  0  0  0  0  0
   35.5900   18.2540   31.1620 N   0  0  0  0  0  0  0  0  0  0  0  0
   36.5600   19.1230   30.7230 C   0  0  0  0  0  0  0  0  0  0  0  0
   37.1650   18.7240   29.4950 C   0  0  0  0  0  0  0  0  0  0  0  0
   38.1560   19.5150   29.0190 C   0  0  0  0  0  0  0  0  0  0  0  0
   38.6110   20.6480   29.6200 C   0  0  0  0  0  0  0  0  0  0  0  0
   37.9420   20.9180   30.7910 C   0  0  0  0  0  0  0  0  0  0  0  0
   36.9040   20.2870   31.4970 C   0  0  0  0  0  0  0  0  0  0  0  0
   36.8430   19.9930   33.5320 H   0  0  0  0  0  0  0  0  0  0  0  0
   34.5280   20.1820   31.9280 H   0  0  0  0  0  0  0  0  0  0  0  0
   34.1590   18.1490   32.6420 H   0  0  0  0  0  0  0  0  0  0  0  0
   35.8270   17.9020   33.1630 H   0  0  0  0  0  0  0  0  0  0  0  0
   35.1470   17.4710   30.6270 H   0  0  0  0  0  0  0  0  0  0  0  0
   36.8940   17.8580   28.9310 H   0  0  0  0  0  0  0  0  0  0  0  0
   38.6430   19.2390   28.0790 H   0  0  0  0  0  0  0  0  0  0  0  0
   39.3810   21.3070   29.2980 H   0  0  0  0  0  0  0  0  0  0  0  0
   38.2800   21.8350   31.2960 H   0  0  0  0  0  0  0  0  0  0  0  0
   37.6740   23.9850   33.1510 C   0  0  0  0  0  0  0  0  0  0  0  0
   38.1860   23.7770   34.4040 C   0  0  0  0  0  0  0  0  0  0  0  0
   37.9730   22.5260   34.9670 C   0  0  0  0  0  0  0  0  0  0  0  0
   37.2770   21.6210   34.2320 N   0  0  0  0  0  0  0  0  0  0  0  0
   36.7880   21.8570   33.0070 C   0  0  0  0  0  0  0  0  0  0  0  0
   37.0340   23.0400   32.5620 N   0  0  0  0  0  0  0  0  0  0  0  0
   38.5230   22.2770   36.2640 N   0  0  0  0  0  0  0  0  0  0  0  0
   37.7880   24.9210   32.6290 H   0  0  0  0  0  0  0  0  0  0  0  0
   39.5530   22.2430   36.3320 H   0  0  0  0  0  0  0  0  0  0  0  0
   37.7800   22.1560   37.0110 H   0  0  0  0  0  0  0  0  0  0  0  0
   38.9010   24.8010   35.0940 N   0  0  0  0  0  0  0  0  0  0  0  0
   40.2960   25.2130   35.0320 C   0  0  0  0  0  2  0  0  0  0  0  0
   40.1660   26.6850   34.7050 C   0  0  0  0  0  2  0  0  0  0  0  0
   38.9800   27.0850   35.5570 C   0  0  0  0  0  2  0  0  0  0  0  0
   38.4200   25.7640   36.0960 C   0  0  0  0  0  3  0  0  0  0  0  0
   37.3350   25.8020   36.1700 H   0  0  0  0  0  0  0  0  0  0  0  0
  1 24  1  0  0  0  0
  1 11  1  1  0  0  0
  2  3  1  0  0  0  0
  2  1  1  0  0  0  0
  3 13  1  0  0  0  0
  3 14  1  0  0  0  0
  4  3  1  0  0  0  0
  5  4  1  0  0  0  0
  5 10  1  0  0  0  0
  6  5  2  0  0  0  0
  7  6  1  0  0  0  0
  7  8  2  0  0  0  0
  8  9  1  0  0  0  0
  9 19  1  0  0  0  0
  9 10  2  0  0  0  0
 10  1  1  0  0  0  0
 12  2  1  0  0  0  0
 15  4  1  0  0  0  0
 16  6  1  0  0  0  0
 17  7  1  0  0  0  0
 18  8  1  0  0  0  0
 20 21  1  0  0  0  0
 21 22  2  0  0  0  0
 21 30  1  0  0  0  0
 22 26  1  0  0  0  0
 23 22  1  0  0  0  0
 24 23  2  0  0  0  0
 25 24  1  0  0  0  0
 25 20  2  0  0  0  0
 26 28  1  0  0  0  0
 26 29  1  0  0  0  0
 27 20  1  0  0  0  0
 30 34  1  0  0  0  0
 31 30  1  0  0  0  0
 32 31  1  0  0  0  0
 32 33  1  0  0  0  0
 33 34  1  0  0  0  0
 34 35  1  0  0  0  0
M  END
>  <minimizedAffinity>
-5.72992182

$$$$

 OpenBabel03262520293D

 35 38  0  0  1  0  0  0  0  0999 V2000
   35.8800   28.5620   32.1150 C   0  0  1  0  0  0  0  0  0  0  0  0
   35.6480   29.7750   31.9180 N   0  0  0  0  0  0  0  0  0  0  0  0
   34.7830   30.4830   31.3510 C   0  0  0  0  0  0  0  0  0  0  0  0
   35.6850   30.8720   30.4100 N   0  0  0  0  0  0  0  0  0  0  0  0
   36.6270   29.9110   30.1310 C   0  0  0  0  0  0  0  0  0  0  0  0
   37.4000   30.1960   28.9670 C   0  0  0  0  0  0  0  0  0  0  0  0
   38.3250   29.2750   28.6100 C   0  0  0  0  0  0  0  0  0  0  0  0
   38.5680   28.1110   29.2720 C   0  0  0  0  0  0  0  0  0  0  0  0
   37.7580   27.9620   30.3730 C   0  0  0  0  0  0  0  0  0  0  0  0
   36.7430   28.7390   30.9580 C   0  0  0  0  0  0  0  0  0  0  0  0
   34.9490   28.0290   31.6700 H   0  0  0  0  0  0  0  0  0  0  0  0
   36.1730   30.3820   32.6360 H   0  0  0  0  0  0  0  0  0  0  0  0
   34.3490   31.3430   31.9080 H   0  0  0  0  0  0  0  0  0  0  0  0
   33.9020   29.9820   30.8760 H   0  0  0  0  0  0  0  0  0  0  0  0
   35.6030   31.8260   29.9870 H   0  0  0  0  0  0  0  0  0  0  0  0
   37.3030   31.0750   28.3670 H   0  0  0  0  0  0  0  0  0  0  0  0
   38.9370   29.4610   27.7220 H   0  0  0  0  0  0  0  0  0  0  0  0
   39.2760   27.3510   29.0420 H   0  0  0  0  0  0  0  0  0  0  0  0
   37.9360   27.0340   30.9360 H   0  0  0  0  0  0  0  0  0  0  0  0
   37.3310   25.3410   33.3200 C   0  0  0  0  0  0  0  0  0  0  0  0
   37.8530   25.8430   34.4820 C   0  0  0  0  0  0  0  0  0  0  0  0
   37.6670   27.1980   34.7190 C   0  0  0  0  0  0  0  0  0  0  0  0
   36.9890   27.9080   33.7810 N   0  0  0  0  0  0  0  0  0  0  0  0
   36.4910   27.3860   32.6510 C   0  0  0  0  0  0  0  0  0  0  0  0
   36.7070   26.1240   32.5160 N   0  0  0  0  0  0  0  0  0  0  0  0
   38.1800   27.7380   35.9410 N   0  0  0  0  0  0  0  0  0  0  0  0
   37.4220   24.3040   33.0480 H   0  0  0  0  0  0  0  0  0  0  0  0
   37.7270   27.4220   36.8120 H   0  0  0  0  0  0  0  0  0  0  0  0
   38.9830   28.4140   35.7880 H   0  0  0  0  0  0  0  0  0  0  0  0
   38.5560   25.0080   35.4030 N   0  0  0  0  0  0  0  0  0  0  0  0
   38.1310   24.3580   36.6330 C   0  0  0  0  0  2  0  0  0  0  0  0
   38.4760   22.9120   36.3500 C   0  0  0  0  0  2  0  0  0  0  0  0
   39.7990   23.0480   35.6250 C   0  0  0  0  0  2  0  0  0  0  0  0
   39.9530   24.5510   35.3700 C   0  0  0  0  0  3  0  0  0  0  0  0
   40.4440   24.7350   34.4160 H   0  0  0  0  0  0  0  0  0  0  0  0
  1 11  1  6  0  0  0
  1 24  1  0  0  0  0
  2  1  1  0  0  0  0
  2 12  1  0  0  0  0
  3 13  1  0  0  0  0
  3  2  1  0  0  0  0
  4  3  1  0  0  0  0
  5  4  1  0  0  0  0
  5 10  1  0  0  0  0
  6  5  2  0  0  0  0
  7  6  1  0  0  0  0
  7  8  2  0  0  0  0
  8  9  1  0  0  0  0
  9 19  1  0  0  0  0
  9 10  2  0  0  0  0
 10  1  1  0  0  0  0
 14  3  1  0  0  0  0
 15  4  1  0  0  0  0
 16  6  1  0  0  0  0
 17  7  1  0  0  0  0
 18  8  1  0  0  0  0
 20 21  1  0  0  0  0
 21 22  2  0  0  0  0
 21 30  1  0  0  0  0
 22 26  1  0  0  0  0
 23 22  1  0  0  0  0
 24 23  2  0  0  0  0
 25 24  1  0  0  0  0
 25 20  2  0  0  0  0
 26 28  1  0  0  0  0
 27 20  1  0  0  0  0
 29 26  1  0  0  0  0
 30 31  1  0  0  0  0
 32 31  1  0  0  0  0
 33 32  1  0  0  0  0
 34 30  1  0  0  0  0
 34 33  1  0  0  0  0
 35 34  1  0  0  0  0
M  END
>  <minimizedAffinity>
-5.56066656

$$$$

 OpenBabel03262520293D

 35 38  0  0  1  0  0  0  0  0999 V2000
   38.3630   23.8990   36.1600 C   0  0  1  0  0  0  0  0  0  0  0  0
   38.1890   23.3450   37.2680 N   0  0  0  0  0  0  0  0  0  0  0  0
   38.3600   23.6040   38.4810 C   0  0  0  0  0  0  0  0  0  0  0  0
   39.3370   22.6610   38.5680 N   0  0  0  0  0  0  0  0  0  0  0  0
   40.0450   22.5040   37.4000 C   0  0  0  0  0  0  0  0  0  0  0  0
   41.2320   21.7290   37.5560 C   0  0  0  0  0  0  0  0  0  0  0  0
   41.9990   21.5630   36.4530 C   0  0  0  0  0  0  0  0  0  0  0  0
   41.7250   22.0740   35.2230 C   0  0  0  0  0  0  0  0  0  0  0  0
   40.5540   22.7950   35.2110 C   0  0  0  0  0  0  0  0  0  0  0  0
   39.5900   23.1190   36.1810 C   0  0  0  0  0  0  0  0  0  0  0  0
   38.7230   24.9660   36.4420 H   0  0  0  0  0  0  0  0  0  0  0  0
   37.4660   22.5500   37.1840 H   0  0  0  0  0  0  0  0  0  0  0  0
   37.5230   23.4170   39.1910 H   0  0  0  0  0  0  0  0  0  0  0  0
   38.7530   24.6110   38.7690 H   0  0  0  0  0  0  0  0  0  0  0  0
   39.4750   22.1480   39.4700 H   0  0  0  0  0  0  0  0  0  0  0  0
   41.5520   21.2770   38.4700 H   0  0  0  0  0  0  0  0  0  0  0  0
   42.9180   20.9740   36.5370 H   0  0  0  0  0  0  0  0  0  0  0  0
   42.2850   21.9790   34.3240 H   0  0  0  0  0  0  0  0  0  0  0  0
   40.2980   23.2150   34.2270 H   0  0  0  0  0  0  0  0  0  0  0  0
   38.0810   24.2230   32.4520 C   0  0  0  0  0  0  0  0  0  0  0  0
   38.7390   25.4200   32.3610 C   0  0  0  0  0  0  0  0  0  0  0  0
   39.1890   25.9800   33.5490 C   0  0  0  0  0  0  0  0  0  0  0  0
   38.9360   25.2980   34.6960 N   0  0  0  0  0  0  0  0  0  0  0  0
   38.2870   24.1270   34.7510 C   0  0  0  0  0  0  0  0  0  0  0  0
   37.9100   23.6810   33.6040 N   0  0  0  0  0  0  0  0  0  0  0  0
   39.9040   27.2180   33.4740 N   0  0  0  0  0  0  0  0  0  0  0  0
   37.6970   23.7090   31.5880 H   0  0  0  0  0  0  0  0  0  0  0  0
   40.8300   27.1900   33.0200 H   0  0  0  0  0  0  0  0  0  0  0  0
   39.3730   28.0280   33.9070 H   0  0  0  0  0  0  0  0  0  0  0  0
   38.9490   26.0580   31.1010 N   0  0  0  0  0  0  0  0  0  0  0  0
   38.1600   27.0430   30.3760 C   0  0  0  0  0  2  0  0  0  0  0  0
   39.1730   28.1470   30.1590 C   0  0  0  0  0  2  0  0  0  0  0  0
   40.4270   27.3570   29.8500 C   0  0  0  0  0  2  0  0  0  0  0  0
   40.0570   25.9000   30.1470 C   0  0  0  0  0  3  0  0  0  0  0  0
   40.9060   25.3590   30.5590 H   0  0  0  0  0  0  0  0  0  0  0  0
  1 10  1  0  0  0  0
  1 11  1  1  0  0  0
  1  2  1  0  0  0  0
  2  3  1  0  0  0  0
  3  4  1  0  0  0  0
  3 14  1  0  0  0  0
  3 13  1  0  0  0  0
  4 15  1  0  0  0  0
  5  6  1  0  0  0  0
  5  4  1  0  0  0  0
  6 16  1  0  0  0  0
  7 17  1  0  0  0  0
  7  6  2  0  0  0  0
  8  7  1  0  0  0  0
  9  8  2  0  0  0  0
  9 10  1  0  0  0  0
 10  5  2  0  0  0  0
 12  2  1  0  0  0  0
 18  8  1  0  0  0  0
 19  9  1  0  0  0  0
 20 25  1  0  0  0  0
 21 20  2  0  0  0  0
 21 22  1  0  0  0  0
 22 23  2  0  0  0  0
 23 24  1  0  0  0  0
 24  1  1  0  0  0  0
 25 24  2  0  0  0  0
 26 22  1  0  0  0  0
 26 29  1  0  0  0  0
 27 20  1  0  0  0  0
 28 26  1  0  0  0  0
 30 21  1  0  0  0  0
 31 30  1  0  0  0  0
 32 31  1  0  0  0  0
 33 34  1  0  0  0  0
 33 32  1  0  0  0  0
 34 35  1  0  0  0  0
 34 30  1  0  0  0  0
M  END
>  <minimizedAffinity>
-5.53022528

$$$$

 OpenBabel03262520293D

 35 38  0  0  1  0  0  0  0  0999 V2000
   35.9600   21.4470   32.2440 C   0  0  1  0  0  0  0  0  0  0  0  0
   35.1850   20.5470   31.8540 N   0  0  0  0  0  0  0  0  0  0  0  0
   34.8670   19.3790   32.1780 C   0  0  0  0  0  0  0  0  0  0  0  0
   35.4330   18.8860   31.0440 N   0  0  0  0  0  0  0  0  0  0  0  0
   36.5150   19.6170   30.6150 C   0  0  0  0  0  0  0  0  0  0  0  0
   37.2750   18.9640   29.6010 C   0  0  0  0  0  0  0  0  0  0  0  0
   38.3770   19.6100   29.1540 C   0  0  0  0  0  0  0  0  0  0  0  0
   38.8080   20.8220   29.5970 C   0  0  0  0  0  0  0  0  0  0  0  0
   37.9860   21.3400   30.5700 C   0  0  0  0  0  0  0  0  0  0  0  0
   36.8120   20.8970   31.2030 C   0  0  0  0  0  0  0  0  0  0  0  0
   36.4180   21.0110   33.2180 H   0  0  0  0  0  0  0  0  0  0  0  0
   34.3960   20.9620   31.2480 H   0  0  0  0  0  0  0  0  0  0  0  0
   33.7870   19.1240   32.2620 H   0  0  0  0  0  0  0  0  0  0  0  0
   35.3350   18.9250   33.0870 H   0  0  0  0  0  0  0  0  0  0  0  0
   35.0270   18.0280   30.6000 H   0  0  0  0  0  0  0  0  0  0  0  0
   37.0370   18.0130   29.1730 H   0  0  0  0  0  0  0  0  0  0  0  0
   38.9840   19.1370   28.3760 H   0  0  0  0  0  0  0  0  0  0  0  0
   39.6610   21.3770   29.2880 H   0  0  0  0  0  0  0  0  0  0  0  0
   38.3030   22.3260   30.9430 H   0  0  0  0  0  0  0  0  0  0  0  0
   37.6990   24.7130   32.7400 C   0  0  0  0  0  0  0  0  0  0  0  0
   36.8770   25.4410   31.9230 C   0  0  0  0  0  0  0  0  0  0  0  0
   35.8470   24.7530   31.2960 C   0  0  0  0  0  0  0  0  0  0  0  0
   35.7450   23.4210   31.5440 N   0  0  0  0  0  0  0  0  0  0  0  0
   36.5680   22.7360   32.3490 C   0  0  0  0  0  0  0  0  0  0  0  0
   37.4900   23.4540   32.8900 N   0  0  0  0  0  0  0  0  0  0  0  0
   34.9590   25.4990   30.4590 N   0  0  0  0  0  0  0  0  0  0  0  0
   38.5240   25.1560   33.2710 H   0  0  0  0  0  0  0  0  0  0  0  0
   34.3480   26.1860   30.9290 H   0  0  0  0  0  0  0  0  0  0  0  0
   35.0460   25.2430   29.4330 H   0  0  0  0  0  0  0  0  0  0  0  0
   37.0750   26.8410   31.7260 N   0  0  0  0  0  0  0  0  0  0  0  0
   37.8770   27.5750   30.7600 C   0  0  0  0  0  2  0  0  0  0  0  0
   36.8430   28.4830   30.1290 C   0  0  0  0  0  2  0  0  0  0  0  0
   36.0070   28.8750   31.3300 C   0  0  0  0  0  2  0  0  0  0  0  0
   36.5070   27.9780   32.4670 C   0  0  0  0  0  3  0  0  0  0  0  0
   35.6890   27.6950   33.1270 H   0  0  0  0  0  0  0  0  0  0  0  0
  1 24  1  0  0  0  0
  1 11  1  1  0  0  0
  2  3  1  0  0  0  0
  2  1  1  0  0  0  0
  3 13  1  0  0  0  0
  3 14  1  0  0  0  0
  4  3  1  0  0  0  0
  5  4  1  0  0  0  0
  5 10  1  0  0  0  0
  6  5  2  0  0  0  0
  7  8  2  0  0  0  0
  7  6  1  0  0  0  0
  8  9  1  0  0  0  0
  9 19  1  0  0  0  0
  9 10  2  0  0  0  0
 10  1  1  0  0  0  0
 12  2  1  0  0  0  0
 15  4  1  0  0  0  0
 16  6  1  0  0  0  0
 17  7  1  0  0  0  0
 18  8  1  0  0  0  0
 20 25  1  0  0  0  0
 20 27  1  0  0  0  0
 21 20  2  0  0  0  0
 22 23  2  0  0  0  0
 22 21  1  0  0  0  0
 23 24  1  0  0  0  0
 24 25  2  0  0  0  0
 26 28  1  0  0  0  0
 26 22  1  0  0  0  0
 29 26  1  0  0  0  0
 30 21  1  0  0  0  0
 30 34  1  0  0  0  0
 31 30  1  0  0  0  0
 32 31  1  0  0  0  0
 32 33  1  0  0  0  0
 33 34  1  0  0  0  0
 34 35  1  0  0  0  0
M  END
>  <minimizedAffinity>
-5.52553606

$$$$

 OpenBabel03262520293D

 35 38  0  0  1  0  0  0  0  0999 V2000
   37.3900   27.0290   30.7440 C   0  0  1  0  0  0  0  0  0  0  0  0
   36.7630   27.8180   30.0040 N   0  0  0  0  0  0  0  0  0  0  0  0
   36.9860   28.8560   29.3390 C   0  0  0  0  0  0  0  0  0  0  0  0
   36.2040   29.5890   30.1770 N   0  0  0  0  0  0  0  0  0  0  0  0
   36.2170   29.1280   31.4720 C   0  0  0  0  0  0  0  0  0  0  0  0
   35.6310   30.0360   32.4020 C   0  0  0  0  0  0  0  0  0  0  0  0
   35.6390   29.6640   33.7040 C   0  0  0  0  0  0  0  0  0  0  0  0
   36.1600   28.5020   34.1840 C   0  0  0  0  0  0  0  0  0  0  0  0
   36.6900   27.7200   33.1830 C   0  0  0  0  0  0  0  0  0  0  0  0
   36.8120   27.8570   31.7900 C   0  0  0  0  0  0  0  0  0  0  0  0
   38.4860   27.4080   30.6830 H   0  0  0  0  0  0  0  0  0  0  0  0
   35.8700   27.3500   29.6230 H   0  0  0  0  0  0  0  0  0  0  0  0
   36.6360   28.8990   28.2830 H   0  0  0  0  0  0  0  0  0  0  0  0
   38.0270   29.2630   29.3070 H   0  0  0  0  0  0  0  0  0  0  0  0
   35.6760   30.4090   29.7980 H   0  0  0  0  0  0  0  0  0  0  0  0
   35.1900   30.9750   32.1470 H   0  0  0  0  0  0  0  0  0  0  0  0
   35.1980   30.3370   34.4450 H   0  0  0  0  0  0  0  0  0  0  0  0
   36.1980   28.1560   35.1880 H   0  0  0  0  0  0  0  0  0  0  0  0
   37.1110   26.7680   33.5380 H   0  0  0  0  0  0  0  0  0  0  0  0
   38.3760   24.1160   32.8600 C   0  0  0  0  0  0  0  0  0  0  0  0
   37.3720   23.2860   32.4400 C   0  0  0  0  0  0  0  0  0  0  0  0
   36.4800   23.8010   31.5100 C   0  0  0  0  0  0  0  0  0  0  0  0
   36.6770   25.0800   31.0990 N   0  0  0  0  0  0  0  0  0  0  0  0
   37.6710   25.8690   31.5300 C   0  0  0  0  0  0  0  0  0  0  0  0
   38.4510   25.3090   32.3880 N   0  0  0  0  0  0  0  0  0  0  0  0
   35.4390   22.9410   31.0380 N   0  0  0  0  0  0  0  0  0  0  0  0
   39.1180   23.8090   33.5770 H   0  0  0  0  0  0  0  0  0  0  0  0
   35.7300   22.1360   30.4610 H   0  0  0  0  0  0  0  0  0  0  0  0
   34.4740   23.2510   31.3500 H   0  0  0  0  0  0  0  0  0  0  0  0
   37.2510   21.9540   32.9410 N   0  0  0  0  0  0  0  0  0  0  0  0
   36.6310   21.4310   34.1490 C   0  0  0  0  0  2  0  0  0  0  0  0
   35.6680   20.4100   33.5800 C   0  0  0  0  0  2  0  0  0  0  0  0
   36.4890   19.8040   32.4620 C   0  0  0  0  0  2  0  0  0  0  0  0
   37.7340   20.6910   32.3630 C   0  0  0  0  0  3  0  0  0  0  0  0
   38.0620   20.7880   31.3300 H   0  0  0  0  0  0  0  0  0  0  0  0
  1 11  1  6  0  0  0
  1 24  1  0  0  0  0
  1 10  1  0  0  0  0
  2  1  1  0  0  0  0
  3  2  1  0  0  0  0
  3  4  1  0  0  0  0
  4  5  1  0  0  0  0
  5 10  2  0  0  0  0
  5  6  1  0  0  0  0
  6  7  2  0  0  0  0
  7  8  1  0  0  0  0
  7 17  1  0  0  0  0
  8 18  1  0  0  0  0
  9 19  1  0  0  0  0
  9  8  2  0  0  0  0
 10  9  1  0  0  0  0
 12  2  1  0  0  0  0
 13  3  1  0  0  0  0
 14  3  1  0  0  0  0
 15  4  1  0  0  0  0
 16  6  1  0  0  0  0
 20 27  1  0  0  0  0
 21 20  1  0  0  0  0
 21 30  1  0  0  0  0
 22 21  2  0  0  0  0
 23 22  1  0  0  0  0
 23 24  2  0  0  0  0
 24 25  1  0  0  0  0
 25 20  2  0  0  0  0
 26 29  1  0  0  0  0
 26 22  1  0  0  0  0
 28 26  1  0  0  0  0
 30 31  1  0  0  0  0
 32 31  1  0  0  0  0
 33 32  1  0  0  0  0
 34 33  1  0  0  0  0
 34 30  1  0  0  0  0
 35 34  1  0  0  0  0
M  END
>  <minimizedAffinity>
-5.50412941

$$$$

 OpenBabel03262520293D

 35 38  0  0  1  0  0  0  0  0999 V2000
   35.1370   31.0700   35.0790 C   0  0  1  0  0  0  0  0  0  0  0  0
   34.8170   32.0150   35.8320 N   0  0  0  0  0  0  0  0  0  0  0  0
   35.0110   32.3770   37.0160 C   0  0  0  0  0  0  0  0  0  0  0  0
   33.7020   32.1670   37.3190 N   0  0  0  0  0  0  0  0  0  0  0  0
   33.1340   31.1460   36.5940 C   0  0  0  0  0  0  0  0  0  0  0  0
   31.8600   30.7390   37.0900 C   0  0  0  0  0  0  0  0  0  0  0  0
   31.2560   29.7130   36.4470 C   0  0  0  0  0  0  0  0  0  0  0  0
   31.7680   29.0490   35.3750 C   0  0  0  0  0  0  0  0  0  0  0  0
   32.9960   29.5420   35.0000 C   0  0  0  0  0  0  0  0  0  0  0  0
   33.8300   30.5680   35.4750 C   0  0  0  0  0  0  0  0  0  0  0  0
   35.8680   30.4400   35.7250 H   0  0  0  0  0  0  0  0  0  0  0  0
   34.5190   32.8750   35.2550 H   0  0  0  0  0  0  0  0  0  0  0  0
   35.3310   33.4250   37.2080 H   0  0  0  0  0  0  0  0  0  0  0  0
   35.6760   31.7560   37.6680 H   0  0  0  0  0  0  0  0  0  0  0  0
   33.2420   32.7660   38.0450 H   0  0  0  0  0  0  0  0  0  0  0  0
   31.3560   31.1830   37.9210 H   0  0  0  0  0  0  0  0  0  0  0  0
   30.2780   29.3740   36.8010 H   0  0  0  0  0  0  0  0  0  0  0  0
   31.3450   28.2400   34.8310 H   0  0  0  0  0  0  0  0  0  0  0  0
   33.4340   29.0320   34.1280 H   0  0  0  0  0  0  0  0  0  0  0  0
   35.3610   29.2580   31.8230 C   0  0  0  0  0  0  0  0  0  0  0  0
   36.0270   28.1650   32.3110 C   0  0  0  0  0  0  0  0  0  0  0  0
   36.3300   28.1690   33.6650 C   0  0  0  0  0  0  0  0  0  0  0  0
   35.9450   29.2530   34.3880 N   0  0  0  0  0  0  0  0  0  0  0  0
   35.2950   30.3090   33.8790 C   0  0  0  0  0  0  0  0  0  0  0  0
   35.0520   30.2180   32.6180 N   0  0  0  0  0  0  0  0  0  0  0  0
   37.0010   27.0250   34.2010 N   0  0  0  0  0  0  0  0  0  0  0  0
   35.0800   29.3480   30.7880 H   0  0  0  0  0  0  0  0  0  0  0  0
   36.4660   26.1420   34.2220 H   0  0  0  0  0  0  0  0  0  0  0  0
   37.9910   27.2380   34.5180 H   0  0  0  0  0  0  0  0  0  0  0  0
   36.3910   27.0770   31.4610 N   0  0  0  0  0  0  0  0  0  0  0  0
   37.6290   26.7760   30.7570 C   0  0  0  0  0  2  0  0  0  0  0  0
   37.9420   25.3870   31.2700 C   0  0  0  0  0  2  0  0  0  0  0  0
   36.5660   24.7570   31.3120 C   0  0  0  0  0  2  0  0  0  0  0  0
   35.5970   25.9130   31.0420 C   0  0  0  0  0  3  0  0  0  0  0  0
   34.6780   25.7910   31.6120 H   0  0  0  0  0  0  0  0  0  0  0  0
  1 10  1  0  0  0  0
  1 11  1  1  0  0  0
  1  2  1  0  0  0  0
  2  3  1  0  0  0  0
  3 13  1  0  0  0  0
  3  4  1  0  0  0  0
  3 14  1  0  0  0  0
  4 15  1  0  0  0  0
  5  6  1  0  0  0  0
  5  4  1  0  0  0  0
  6 16  1  0  0  0  0
  7 17  1  0  0  0  0
  7  6  2  0  0  0  0
  8  7  1  0  0  0  0
  9  8  2  0  0  0  0
  9 10  1  0  0  0  0
 10  5  2  0  0  0  0
 12  2  1  0  0  0  0
 18  8  1  0  0  0  0
 19  9  1  0  0  0  0
 20 21  2  0  0  0  0
 20 25  1  0  0  0  0
 21 22  1  0  0  0  0
 22 26  1  0  0  0  0
 22 23  2  0  0  0  0
 24 23  1  0  0  0  0
 24  1  1  0  0  0  0
 25 24  2  0  0  0  0
 26 28  1  0  0  0  0
 26 29  1  0  0  0  0
 27 20  1  0  0  0  0
 30 21  1  0  0  0  0
 31 32  1  0  0  0  0
 31 30  1  0  0  0  0
 32 33  1  0  0  0  0
 34 33  1  0  0  0  0
 34 30  1  0  0  0  0
 34 35  1  0  0  0  0
M  END
>  <minimizedAffinity>
-5.3538332

$$$$
