
 OpenBabel03272503573D

 31 34  0  0  0  0  0  0  0  0999 V2000
   36.7820   28.1210   30.7760 C   0  0  0  0  0  0  0  0  0  0  0  0
   37.8120   27.4020   31.4080 C   0  0  0  0  0  0  0  0  0  0  0  0
   37.7280   27.3290   32.7960 C   0  0  0  0  0  0  0  0  0  0  0  0
   36.7120   27.9270   33.3920 N   0  0  0  0  0  0  0  0  0  0  0  0
   35.7340   28.6070   32.8300 C   0  0  0  0  0  0  0  0  0  0  0  0
   35.8400   28.6600   31.5090 N   0  0  0  0  0  0  0  0  0  0  0  0
   38.5900   26.9530   30.8470 H   0  0  0  0  0  0  0  0  0  0  0  0
   38.7070   26.6310   33.5490 N   0  0  0  0  0  0  0  0  0  0  0  0
   39.1050   26.9490   34.8870 C   0  0  0  0  0  2  0  0  0  0  0  0
   40.5910   26.6320   34.8870 C   0  0  0  0  0  2  0  0  0  0  0  0
   40.6160   25.3450   34.0700 C   0  0  0  0  0  2  0  0  0  0  0  0
   39.4650   25.4910   33.1030 C   0  0  0  0  0  3  0  0  0  0  0  0
   38.8800   24.5510   33.0530 H   0  0  0  0  0  0  0  0  0  0  0  0
   34.5660   29.3060   33.3500 C   0  0  0  0  0  0  0  0  0  0  0  0
   33.3130   29.1050   32.8670 N   0  0  0  0  0  0  0  0  0  0  0  0
   32.2480   29.7440   33.3520 C   0  0  0  0  0  0  0  0  0  0  0  0
   32.3040   30.6390   34.3540 N   0  0  0  0  0  0  0  0  0  0  0  0
   33.5230   30.8850   34.8810 C   0  0  0  0  0  0  0  0  0  0  0  0
   33.5850   31.7990   35.9060 C   0  0  0  0  0  0  0  0  0  0  0  0
   34.8100   32.0930   36.4870 C   0  0  0  0  0  0  0  0  0  0  0  0
   35.9170   31.4310   35.9840 C   0  0  0  0  0  0  0  0  0  0  0  0
   35.7870   30.5280   34.9580 C   0  0  0  0  0  0  0  0  0  0  0  0
   34.5980   30.2180   34.3660 C   0  0  0  0  0  0  0  0  0  0  0  0
   31.2330   29.5730   32.9510 H   0  0  0  0  0  0  0  0  0  0  0  0
   32.6820   32.2960   36.2670 H   0  0  0  0  0  0  0  0  0  0  0  0
   34.8390   32.8140   37.2910 H   0  0  0  0  0  0  0  0  0  0  0  0
   36.8440   31.7020   36.4760 H   0  0  0  0  0  0  0  0  0  0  0  0
   36.7400   30.1080   34.6830 H   0  0  0  0  0  0  0  0  0  0  0  0
   36.7470   28.2710   29.3360 N   0  0  0  0  0  0  0  0  0  0  0  0
   35.8330   28.0400   28.8710 H   0  0  0  0  0  0  0  0  0  0  0  0
   37.5450   28.5840   28.7430 H   0  0  0  0  0  0  0  0  0  0  0  0
  1  2  2  0  0  0  0
  1  6  1  0  0  0  0
  2  3  1  0  0  0  0
  3  4  2  0  0  0  0
  3  8  1  0  0  0  0
  5 14  1  0  0  0  0
  5  4  1  0  0  0  0
  6  5  2  0  0  0  0
  7  2  1  0  0  0  0
  8  9  1  0  0  0  0
 10  9  1  0  0  0  0
 11 10  1  0  0  0  0
 12  8  1  0  0  0  0
 12 11  1  0  0  0  0
 13 12  1  0  0  0  0
 14 23  1  0  0  0  0
 15 14  2  0  0  0  0
 15 16  1  0  0  0  0
 16 17  2  0  0  0  0
 17 18  1  0  0  0  0
 18 19  1  0  0  0  0
 19 25  1  0  0  0  0
 19 20  2  0  0  0  0
 20 26  1  0  0  0  0
 21 27  1  0  0  0  0
 21 20  1  0  0  0  0
 22 21  2  0  0  0  0
 23 18  2  0  0  0  0
 23 22  1  0  0  0  0
 24 16  1  0  0  0  0
 28 22  1  0  0  0  0
 29  1  1  0  0  0  0
 30 29  1  0  0  0  0
 31 29  1  0  0  0  0
M  END
>  <minimizedAffinity>
-6.27335262

$$$$

 OpenBabel03272503573D

 31 34  0  0  0  0  0  0  0  0999 V2000
   36.4150   23.2860   31.9590 C   0  0  0  0  0  0  0  0  0  0  0  0
   36.1440   24.6330   31.6570 C   0  0  0  0  0  0  0  0  0  0  0  0
   36.9200   25.5680   32.3360 C   0  0  0  0  0  0  0  0  0  0  0  0
   37.8270   25.1250   33.1890 N   0  0  0  0  0  0  0  0  0  0  0  0
   38.1050   23.8740   33.4930 C   0  0  0  0  0  0  0  0  0  0  0  0
   37.3510   23.0060   32.8320 N   0  0  0  0  0  0  0  0  0  0  0  0
   35.3950   24.8960   30.9560 H   0  0  0  0  0  0  0  0  0  0  0  0
   36.7420   26.9580   32.1180 N   0  0  0  0  0  0  0  0  0  0  0  0
   36.9750   27.9850   33.0870 C   0  0  0  0  0  2  0  0  0  0  0  0
   35.8910   29.0030   32.7760 C   0  0  0  0  0  2  0  0  0  0  0  0
   35.9020   28.9860   31.2520 C   0  0  0  0  0  2  0  0  0  0  0  0
   36.2990   27.5740   30.8950 C   0  0  0  0  0  3  0  0  0  0  0  0
   37.0600   27.5780   30.0880 H   0  0  0  0  0  0  0  0  0  0  0  0
   39.0630   23.2470   34.3950 C   0  0  0  0  0  0  0  0  0  0  0  0
   40.1350   22.5400   33.9540 N   0  0  0  0  0  0  0  0  0  0  0  0
   41.0090   21.9740   34.7850 C   0  0  0  0  0  0  0  0  0  0  0  0
   40.9220   22.0440   36.1250 N   0  0  0  0  0  0  0  0  0  0  0  0
   39.8770   22.7340   36.6300 C   0  0  0  0  0  0  0  0  0  0  0  0
   39.7830   22.8070   38.0000 C   0  0  0  0  0  0  0  0  0  0  0  0
   38.7310   23.5020   38.5770 C   0  0  0  0  0  0  0  0  0  0  0  0
   37.8210   24.0910   37.7150 C   0  0  0  0  0  0  0  0  0  0  0  0
   37.9720   23.9800   36.3550 C   0  0  0  0  0  0  0  0  0  0  0  0
   38.9940   23.3040   35.7580 C   0  0  0  0  0  0  0  0  0  0  0  0
   41.8790   21.4010   34.4150 H   0  0  0  0  0  0  0  0  0  0  0  0
   40.5270   22.3250   38.6380 H   0  0  0  0  0  0  0  0  0  0  0  0
   38.6740   23.5500   39.6550 H   0  0  0  0  0  0  0  0  0  0  0  0
   37.0220   24.6180   38.2240 H   0  0  0  0  0  0  0  0  0  0  0  0
   37.1790   24.4880   35.8310 H   0  0  0  0  0  0  0  0  0  0  0  0
   35.6830   22.2130   31.3200 N   0  0  0  0  0  0  0  0  0  0  0  0
   36.2650   21.4420   30.9040 H   0  0  0  0  0  0  0  0  0  0  0  0
   34.6450   22.1520   31.2470 H   0  0  0  0  0  0  0  0  0  0  0  0
  1  6  1  0  0  0  0
  2  1  2  0  0  0  0
  2  3  1  0  0  0  0
  3  4  2  0  0  0  0
  4  5  1  0  0  0  0
  5 14  1  0  0  0  0
  6  5  2  0  0  0  0
  7  2  1  0  0  0  0
  8  3  1  0  0  0  0
  8  9  1  0  0  0  0
 10  9  1  0  0  0  0
 11 10  1  0  0  0  0
 12 11  1  0  0  0  0
 12  8  1  0  0  0  0
 13 12  1  0  0  0  0
 14 23  1  0  0  0  0
 15 14  2  0  0  0  0
 15 16  1  0  0  0  0
 16 17  2  0  0  0  0
 17 18  1  0  0  0  0
 18 19  1  0  0  0  0
 19 20  2  0  0  0  0
 19 25  1  0  0  0  0
 20 26  1  0  0  0  0
 21 27  1  0  0  0  0
 21 20  1  0  0  0  0
 22 21  2  0  0  0  0
 23 22  1  0  0  0  0
 23 18  2  0  0  0  0
 24 16  1  0  0  0  0
 28 22  1  0  0  0  0
 29  1  1  0  0  0  0
 30 29  1  0  0  0  0
 31 29  1  0  0  0  0
M  END
>  <minimizedAffinity>
-6.1588254

$$$$

 OpenBabel03272503573D

 31 34  0  0  0  0  0  0  0  0999 V2000
   41.2670   26.9120   34.0020 C   0  0  0  0  0  0  0  0  0  0  0  0
   41.0600   25.8850   34.9390 C   0  0  0  0  0  0  0  0  0  0  0  0
   39.7730   25.3550   34.9760 C   0  0  0  0  0  0  0  0  0  0  0  0
   38.8710   25.8500   34.1450 N   0  0  0  0  0  0  0  0  0  0  0  0
   39.0340   26.8100   33.2580 C   0  0  0  0  0  0  0  0  0  0  0  0
   40.2680   27.2950   33.2470 N   0  0  0  0  0  0  0  0  0  0  0  0
   41.8450   25.5500   35.5670 H   0  0  0  0  0  0  0  0  0  0  0  0
   39.4380   24.3140   35.8790 N   0  0  0  0  0  0  0  0  0  0  0  0
   38.1450   24.0980   36.4520 C   0  0  0  0  0  2  0  0  0  0  0  0
   38.4680   23.5970   37.8490 C   0  0  0  0  0  2  0  0  0  0  0  0
   39.6490   22.6750   37.5630 C   0  0  0  0  0  2  0  0  0  0  0  0
   40.3340   23.3010   36.3720 C   0  0  0  0  0  3  0  0  0  0  0  0
   40.5950   22.5240   35.6240 H   0  0  0  0  0  0  0  0  0  0  0  0
   38.1480   27.4450   32.2900 C   0  0  0  0  0  0  0  0  0  0  0  0
   38.3650   27.3940   30.9510 N   0  0  0  0  0  0  0  0  0  0  0  0
   37.5470   27.9730   30.0720 C   0  0  0  0  0  0  0  0  0  0  0  0
   36.4410   28.6560   30.4140 N   0  0  0  0  0  0  0  0  0  0  0  0
   36.1660   28.7440   31.7340 C   0  0  0  0  0  0  0  0  0  0  0  0
   35.0360   29.4420   32.0890 C   0  0  0  0  0  0  0  0  0  0  0  0
   34.7030   29.5660   33.4300 C   0  0  0  0  0  0  0  0  0  0  0  0
   35.5510   28.9660   34.3440 C   0  0  0  0  0  0  0  0  0  0  0  0
   36.6650   28.2830   33.9240 C   0  0  0  0  0  0  0  0  0  0  0  0
   37.0200   28.1430   32.6150 C   0  0  0  0  0  0  0  0  0  0  0  0
   37.7330   27.9260   28.9830 H   0  0  0  0  0  0  0  0  0  0  0  0
   34.3990   29.8970   31.3290 H   0  0  0  0  0  0  0  0  0  0  0  0
   33.8110   30.1170   33.6900 H   0  0  0  0  0  0  0  0  0  0  0  0
   35.2400   29.0980   35.3740 H   0  0  0  0  0  0  0  0  0  0  0  0
   37.2180   27.8830   34.7590 H   0  0  0  0  0  0  0  0  0  0  0  0
   42.5610   27.5470   33.8600 N   0  0  0  0  0  0  0  0  0  0  0  0
   42.9330   27.6180   32.8790 H   0  0  0  0  0  0  0  0  0  0  0  0
   43.1340   27.9290   34.6410 H   0  0  0  0  0  0  0  0  0  0  0  0
  1  2  1  0  0  0  0
  2  3  2  0  0  0  0
  2  7  1  0  0  0  0
  3  8  1  0  0  0  0
  4  3  1  0  0  0  0
  5  4  2  0  0  0  0
  6  5  1  0  0  0  0
  6  1  2  0  0  0  0
  8 12  1  0  0  0  0
  8  9  1  0  0  0  0
  9 10  1  0  0  0  0
 11 10  1  0  0  0  0
 12 11  1  0  0  0  0
 13 12  1  0  0  0  0
 14 23  1  0  0  0  0
 14  5  1  0  0  0  0
 15 14  2  0  0  0  0
 16 17  2  0  0  0  0
 16 15  1  0  0  0  0
 17 18  1  0  0  0  0
 18 19  2  0  0  0  0
 18 23  1  0  0  0  0
 19 20  1  0  0  0  0
 20 26  1  0  0  0  0
 20 21  2  0  0  0  0
 21 27  1  0  0  0  0
 22 21  1  0  0  0  0
 22 28  1  0  0  0  0
 23 22  2  0  0  0  0
 24 16  1  0  0  0  0
 25 19  1  0  0  0  0
 29  1  1  0  0  0  0
 29 31  1  0  0  0  0
 30 29  1  0  0  0  0
M  END
>  <minimizedAffinity>
-6.1112771

$$$$

 OpenBabel03272503573D

 31 34  0  0  0  0  0  0  0  0999 V2000
   36.0750   25.1330   31.1500 C   0  0  0  0  0  0  0  0  0  0  0  0
   36.6150   25.8170   32.2550 C   0  0  0  0  0  0  0  0  0  0  0  0
   37.5080   25.0870   33.0340 C   0  0  0  0  0  0  0  0  0  0  0  0
   37.7700   23.8400   32.6820 N   0  0  0  0  0  0  0  0  0  0  0  0
   37.2820   23.1730   31.6570 C   0  0  0  0  0  0  0  0  0  0  0  0
   36.4340   23.8920   30.9330 N   0  0  0  0  0  0  0  0  0  0  0  0
   36.3470   26.8200   32.4610 H   0  0  0  0  0  0  0  0  0  0  0  0
   38.1200   25.6650   34.1760 N   0  0  0  0  0  0  0  0  0  0  0  0
   38.5310   24.9530   35.3470 C   0  0  0  0  0  2  0  0  0  0  0  0
   38.2480   25.9400   36.4660 C   0  0  0  0  0  2  0  0  0  0  0  0
   38.7070   27.2460   35.8270 C   0  0  0  0  0  2  0  0  0  0  0  0
   38.4340   27.0590   34.3530 C   0  0  0  0  0  3  0  0  0  0  0  0
   39.2980   27.4090   33.7520 H   0  0  0  0  0  0  0  0  0  0  0  0
   37.4780   21.8200   31.1520 C   0  0  0  0  0  0  0  0  0  0  0  0
   38.3320   21.5300   30.1380 N   0  0  0  0  0  0  0  0  0  0  0  0
   38.5110   20.2890   29.6850 C   0  0  0  0  0  0  0  0  0  0  0  0
   37.8730   19.2130   30.1780 N   0  0  0  0  0  0  0  0  0  0  0  0
   37.0070   19.4320   31.1910 C   0  0  0  0  0  0  0  0  0  0  0  0
   36.3520   18.3350   31.6990 C   0  0  0  0  0  0  0  0  0  0  0  0
   35.4500   18.4980   32.7400 C   0  0  0  0  0  0  0  0  0  0  0  0
   35.2640   19.7860   33.2110 C   0  0  0  0  0  0  0  0  0  0  0  0
   35.9490   20.8400   32.6600 C   0  0  0  0  0  0  0  0  0  0  0  0
   36.8420   20.7130   31.6370 C   0  0  0  0  0  0  0  0  0  0  0  0
   39.2090   20.0640   28.8580 H   0  0  0  0  0  0  0  0  0  0  0  0
   36.5340   17.3380   31.2920 H   0  0  0  0  0  0  0  0  0  0  0  0
   34.9460   17.6240   33.1260 H   0  0  0  0  0  0  0  0  0  0  0  0
   34.5480   19.8510   34.0230 H   0  0  0  0  0  0  0  0  0  0  0  0
   35.6860   21.7710   33.1360 H   0  0  0  0  0  0  0  0  0  0  0  0
   35.1360   25.7780   30.2560 N   0  0  0  0  0  0  0  0  0  0  0  0
   35.3510   25.7000   29.2300 H   0  0  0  0  0  0  0  0  0  0  0  0
   34.2840   26.2990   30.5510 H   0  0  0  0  0  0  0  0  0  0  0  0
  1  2  1  0  0  0  0
  2  7  1  0  0  0  0
  2  3  2  0  0  0  0
  3  8  1  0  0  0  0
  4  3  1  0  0  0  0
  5  4  2  0  0  0  0
  6  1  2  0  0  0  0
  6  5  1  0  0  0  0
  8 12  1  0  0  0  0
  8  9  1  0  0  0  0
  9 10  1  0  0  0  0
 11 10  1  0  0  0  0
 12 11  1  0  0  0  0
 13 12  1  0  0  0  0
 14 23  1  0  0  0  0
 14  5  1  0  0  0  0
 15 14  2  0  0  0  0
 16 15  1  0  0  0  0
 16 17  2  0  0  0  0
 17 18  1  0  0  0  0
 18 23  2  0  0  0  0
 18 19  1  0  0  0  0
 19 20  2  0  0  0  0
 20 26  1  0  0  0  0
 20 21  1  0  0  0  0
 21 27  1  0  0  0  0
 22 28  1  0  0  0  0
 22 21  2  0  0  0  0
 23 22  1  0  0  0  0
 24 16  1  0  0  0  0
 25 19  1  0  0  0  0
 29 31  1  0  0  0  0
 29  1  1  0  0  0  0
 30 29  1  0  0  0  0
M  END
>  <minimizedAffinity>
-6.07908154

$$$$

 OpenBabel03272503573D

 31 34  0  0  0  0  0  0  0  0999 V2000
   36.0080   29.2620   31.6030 C   0  0  0  0  0  0  0  0  0  0  0  0
   37.0640   28.4100   31.9750 C   0  0  0  0  0  0  0  0  0  0  0  0
   37.0520   27.9830   33.3000 C   0  0  0  0  0  0  0  0  0  0  0  0
   36.0740   28.4030   34.0830 N   0  0  0  0  0  0  0  0  0  0  0  0
   35.0730   29.1990   33.7660 C   0  0  0  0  0  0  0  0  0  0  0  0
   35.1100   29.5900   32.4990 N   0  0  0  0  0  0  0  0  0  0  0  0
   37.8080   28.1250   31.2780 H   0  0  0  0  0  0  0  0  0  0  0  0
   38.0640   27.1220   33.7970 N   0  0  0  0  0  0  0  0  0  0  0  0
   38.5340   27.0880   35.1480 C   0  0  0  0  0  2  0  0  0  0  0  0
   40.0150   26.7900   34.9890 C   0  0  0  0  0  2  0  0  0  0  0  0
   39.9870   25.7560   33.8690 C   0  0  0  0  0  2  0  0  0  0  0  0
   38.7880   26.1390   33.0350 C   0  0  0  0  0  3  0  0  0  0  0  0
   38.1940   25.2390   32.7750 H   0  0  0  0  0  0  0  0  0  0  0  0
   33.9390   29.7350   34.5090 C   0  0  0  0  0  0  0  0  0  0  0  0
   32.6790   29.2470   34.3800 N   0  0  0  0  0  0  0  0  0  0  0  0
   31.6480   29.7380   35.0670 C   0  0  0  0  0  0  0  0  0  0  0  0
   31.7480   30.7520   35.9460 N   0  0  0  0  0  0  0  0  0  0  0  0
   32.9770   31.2830   36.1220 C   0  0  0  0  0  0  0  0  0  0  0  0
   33.0850   32.3190   37.0190 C   0  0  0  0  0  0  0  0  0  0  0  0
   34.3220   32.9050   37.2420 C   0  0  0  0  0  0  0  0  0  0  0  0
   35.3940   32.3960   36.5280 C   0  0  0  0  0  0  0  0  0  0  0  0
   35.2190   31.3590   35.6470 C   0  0  0  0  0  0  0  0  0  0  0  0
   34.0170   30.7620   35.4050 C   0  0  0  0  0  0  0  0  0  0  0  0
   30.6260   29.3350   34.9540 H   0  0  0  0  0  0  0  0  0  0  0  0
   32.2080   32.6850   37.5580 H   0  0  0  0  0  0  0  0  0  0  0  0
   34.3870   33.7170   37.9510 H   0  0  0  0  0  0  0  0  0  0  0  0
   36.3330   32.8930   36.7440 H   0  0  0  0  0  0  0  0  0  0  0  0
   36.1490   31.0870   35.1720 H   0  0  0  0  0  0  0  0  0  0  0  0
   35.8990   29.7750   30.2540 N   0  0  0  0  0  0  0  0  0  0  0  0
   34.9600   29.6660   29.7940 H   0  0  0  0  0  0  0  0  0  0  0  0
   36.6670   30.2340   29.7200 H   0  0  0  0  0  0  0  0  0  0  0  0
  1  2  2  0  0  0  0
  1  6  1  0  0  0  0
  2  3  1  0  0  0  0
  3  8  1  0  0  0  0
  3  4  2  0  0  0  0
  5  4  1  0  0  0  0
  5 14  1  0  0  0  0
  6  5  2  0  0  0  0
  7  2  1  0  0  0  0
  8  9  1  0  0  0  0
 10  9  1  0  0  0  0
 11 10  1  0  0  0  0
 12  8  1  0  0  0  0
 12 11  1  0  0  0  0
 13 12  1  0  0  0  0
 14 23  1  0  0  0  0
 15 14  2  0  0  0  0
 15 16  1  0  0  0  0
 16 17  2  0  0  0  0
 17 18  1  0  0  0  0
 18 19  1  0  0  0  0
 19 20  2  0  0  0  0
 19 25  1  0  0  0  0
 20 26  1  0  0  0  0
 21 27  1  0  0  0  0
 21 20  1  0  0  0  0
 22 21  2  0  0  0  0
 23 22  1  0  0  0  0
 23 18  2  0  0  0  0
 24 16  1  0  0  0  0
 28 22  1  0  0  0  0
 29  1  1  0  0  0  0
 30 29  1  0  0  0  0
 31 29  1  0  0  0  0
M  END
>  <minimizedAffinity>
-6.01984978

$$$$

 OpenBabel03272503573D

 31 34  0  0  0  0  0  0  0  0999 V2000
   37.7870   24.9450   31.3880 C   0  0  0  0  0  0  0  0  0  0  0  0
   37.1400   26.1810   31.5720 C   0  0  0  0  0  0  0  0  0  0  0  0
   37.3330   26.7800   32.8140 C   0  0  0  0  0  0  0  0  0  0  0  0
   38.0900   26.1540   33.6980 N   0  0  0  0  0  0  0  0  0  0  0  0
   38.7080   25.0000   33.5570 C   0  0  0  0  0  0  0  0  0  0  0  0
   38.5070   24.4530   32.3660 N   0  0  0  0  0  0  0  0  0  0  0  0
   36.5500   26.6090   30.8040 H   0  0  0  0  0  0  0  0  0  0  0  0
   36.7320   28.0280   33.1220 N   0  0  0  0  0  0  0  0  0  0  0  0
   36.3310   28.4550   34.4280 C   0  0  0  0  0  2  0  0  0  0  0  0
   35.0720   29.2590   34.1530 C   0  0  0  0  0  2  0  0  0  0  0  0
   35.4740   30.0110   32.8890 C   0  0  0  0  0  2  0  0  0  0  0  0
   36.4250   29.0740   32.1820 C   0  0  0  0  0  3  0  0  0  0  0  0
   37.3130   29.6280   31.8150 H   0  0  0  0  0  0  0  0  0  0  0  0
   39.5640   24.2040   34.4280 C   0  0  0  0  0  0  0  0  0  0  0  0
   40.7410   23.6690   34.0130 N   0  0  0  0  0  0  0  0  0  0  0  0
   41.5210   22.9470   34.8160 C   0  0  0  0  0  0  0  0  0  0  0  0
   41.2290   22.6780   36.1010 N   0  0  0  0  0  0  0  0  0  0  0  0
   40.0700   23.1820   36.5780 C   0  0  0  0  0  0  0  0  0  0  0  0
   39.7670   22.9100   37.8910 C   0  0  0  0  0  0  0  0  0  0  0  0
   38.5900   23.4020   38.4370 C   0  0  0  0  0  0  0  0  0  0  0  0
   37.7780   24.1520   37.6030 C   0  0  0  0  0  0  0  0  0  0  0  0
   38.1390   24.3870   36.3000 C   0  0  0  0  0  0  0  0  0  0  0  0
   39.2880   23.9190   35.7340 C   0  0  0  0  0  0  0  0  0  0  0  0
   42.4770   22.5150   34.4680 H   0  0  0  0  0  0  0  0  0  0  0  0
   40.4410   22.3130   38.5080 H   0  0  0  0  0  0  0  0  0  0  0  0
   38.3690   23.1780   39.4700 H   0  0  0  0  0  0  0  0  0  0  0  0
   36.8740   24.5070   38.0850 H   0  0  0  0  0  0  0  0  0  0  0  0
   37.3980   24.9800   35.7890 H   0  0  0  0  0  0  0  0  0  0  0  0
   37.6720   24.2180   30.1420 N   0  0  0  0  0  0  0  0  0  0  0  0
   38.5760   23.8880   29.7170 H   0  0  0  0  0  0  0  0  0  0  0  0
   36.7790   24.0030   29.6500 H   0  0  0  0  0  0  0  0  0  0  0  0
  1  2  2  0  0  0  0
  1  6  1  0  0  0  0
  2  3  1  0  0  0  0
  3  8  1  0  0  0  0
  3  4  2  0  0  0  0
  5  4  1  0  0  0  0
  5 14  1  0  0  0  0
  6  5  2  0  0  0  0
  7  2  1  0  0  0  0
  8  9  1  0  0  0  0
 10  9  1  0  0  0  0
 11 10  1  0  0  0  0
 12 11  1  0  0  0  0
 12  8  1  0  0  0  0
 13 12  1  0  0  0  0
 14 23  1  0  0  0  0
 15 14  2  0  0  0  0
 15 16  1  0  0  0  0
 16 17  2  0  0  0  0
 17 18  1  0  0  0  0
 18 19  1  0  0  0  0
 19 20  2  0  0  0  0
 19 25  1  0  0  0  0
 20 26  1  0  0  0  0
 21 27  1  0  0  0  0
 21 20  1  0  0  0  0
 22 21  2  0  0  0  0
 23 22  1  0  0  0  0
 23 18  2  0  0  0  0
 24 16  1  0  0  0  0
 28 22  1  0  0  0  0
 29  1  1  0  0  0  0
 30 29  1  0  0  0  0
 31 29  1  0  0  0  0
M  END
>  <minimizedAffinity>
-5.96235085

$$$$

 OpenBabel03272503573D

 31 34  0  0  0  0  0  0  0  0999 V2000
   41.8550   26.6740   34.2900 C   0  0  0  0  0  0  0  0  0  0  0  0
   42.0440   25.3990   34.8540 C   0  0  0  0  0  0  0  0  0  0  0  0
   40.8800   24.6810   35.1180 C   0  0  0  0  0  0  0  0  0  0  0  0
   39.7200   25.2430   34.8250 N   0  0  0  0  0  0  0  0  0  0  0  0
   39.5110   26.4320   34.2990 C   0  0  0  0  0  0  0  0  0  0  0  0
   40.6360   27.0920   34.0580 N   0  0  0  0  0  0  0  0  0  0  0  0
   43.0150   25.0280   35.0550 H   0  0  0  0  0  0  0  0  0  0  0  0
   40.9380   23.3830   35.6870 N   0  0  0  0  0  0  0  0  0  0  0  0
   39.9410   22.8040   36.5340 C   0  0  0  0  0  2  0  0  0  0  0  0
   40.7590   21.9790   37.5120 C   0  0  0  0  0  2  0  0  0  0  0  0
   41.8110   21.3820   36.5830 C   0  0  0  0  0  2  0  0  0  0  0  0
   42.0010   22.4290   35.5110 C   0  0  0  0  0  3  0  0  0  0  0  0
   42.0250   21.9550   34.5090 H   0  0  0  0  0  0  0  0  0  0  0  0
   38.3100   27.1690   33.9240 C   0  0  0  0  0  0  0  0  0  0  0  0
   37.3990   27.6010   34.8330 N   0  0  0  0  0  0  0  0  0  0  0  0
   36.3070   28.2790   34.4840 C   0  0  0  0  0  0  0  0  0  0  0  0
   35.9980   28.6010   33.2150 N   0  0  0  0  0  0  0  0  0  0  0  0
   36.8650   28.2000   32.2600 C   0  0  0  0  0  0  0  0  0  0  0  0
   36.5550   28.5270   30.9610 C   0  0  0  0  0  0  0  0  0  0  0  0
   37.4070   28.1420   29.9360 C   0  0  0  0  0  0  0  0  0  0  0  0
   38.5420   27.4370   30.2980 C   0  0  0  0  0  0  0  0  0  0  0  0
   38.7950   27.1430   31.6150 C   0  0  0  0  0  0  0  0  0  0  0  0
   37.9770   27.5060   32.6440 C   0  0  0  0  0  0  0  0  0  0  0  0
   35.5710   28.6260   35.2320 H   0  0  0  0  0  0  0  0  0  0  0  0
   35.6460   29.0850   30.7270 H   0  0  0  0  0  0  0  0  0  0  0  0
   37.1470   28.4090   28.9220 H   0  0  0  0  0  0  0  0  0  0  0  0
   39.1680   27.1650   29.4560 H   0  0  0  0  0  0  0  0  0  0  0  0
   39.7120   26.5870   31.7230 H   0  0  0  0  0  0  0  0  0  0  0  0
   42.9820   27.5220   33.9630 N   0  0  0  0  0  0  0  0  0  0  0  0
   42.9820   27.9340   32.9950 H   0  0  0  0  0  0  0  0  0  0  0  0
   43.7720   27.7490   34.6030 H   0  0  0  0  0  0  0  0  0  0  0  0
  1  2  1  0  0  0  0
  2  7  1  0  0  0  0
  2  3  2  0  0  0  0
  3  8  1  0  0  0  0
  4  3  1  0  0  0  0
  5  4  2  0  0  0  0
  6  1  2  0  0  0  0
  6  5  1  0  0  0  0
  8  9  1  0  0  0  0
  9 10  1  0  0  0  0
 11 10  1  0  0  0  0
 12  8  1  0  0  0  0
 12 11  1  0  0  0  0
 13 12  1  0  0  0  0
 14  5  1  0  0  0  0
 14 15  1  0  0  0  0
 16 15  2  0  0  0  0
 16 24  1  0  0  0  0
 17 16  1  0  0  0  0
 18 23  1  0  0  0  0
 18 17  2  0  0  0  0
 19 18  1  0  0  0  0
 20 21  1  0  0  0  0
 20 19  2  0  0  0  0
 21 22  2  0  0  0  0
 22 28  1  0  0  0  0
 22 23  1  0  0  0  0
 23 14  2  0  0  0  0
 25 19  1  0  0  0  0
 26 20  1  0  0  0  0
 27 21  1  0  0  0  0
 29  1  1  0  0  0  0
 29 31  1  0  0  0  0
 30 29  1  0  0  0  0
M  END
>  <minimizedAffinity>
-5.87394619

$$$$

 OpenBabel03272503573D

 31 34  0  0  0  0  0  0  0  0999 V2000
   35.8510   30.2210   31.1910 C   0  0  0  0  0  0  0  0  0  0  0  0
   36.1750   28.8600   31.0440 C   0  0  0  0  0  0  0  0  0  0  0  0
   36.1760   28.1140   32.2190 C   0  0  0  0  0  0  0  0  0  0  0  0
   35.8800   28.7300   33.3510 N   0  0  0  0  0  0  0  0  0  0  0  0
   35.5740   30.0000   33.5200 C   0  0  0  0  0  0  0  0  0  0  0  0
   35.5810   30.6860   32.3850 N   0  0  0  0  0  0  0  0  0  0  0  0
   36.3990   28.4510   30.0940 H   0  0  0  0  0  0  0  0  0  0  0  0
   36.4860   26.7300   32.2030 N   0  0  0  0  0  0  0  0  0  0  0  0
   37.1000   26.0060   33.2740 C   0  0  0  0  0  2  0  0  0  0  0  0
   37.9790   25.0010   32.5490 C   0  0  0  0  0  2  0  0  0  0  0  0
   37.0640   24.5870   31.4010 C   0  0  0  0  0  2  0  0  0  0  0  0
   36.2390   25.8200   31.1160 C   0  0  0  0  0  3  0  0  0  0  0  0
   35.1720   25.5490   30.9850 H   0  0  0  0  0  0  0  0  0  0  0  0
   35.2290   30.8040   34.6860 C   0  0  0  0  0  0  0  0  0  0  0  0
   36.0310   31.7900   35.1630 N   0  0  0  0  0  0  0  0  0  0  0  0
   35.7050   32.5260   36.2260 C   0  0  0  0  0  0  0  0  0  0  0  0
   34.5670   32.3690   36.9250 N   0  0  0  0  0  0  0  0  0  0  0  0
   33.7230   31.4030   36.5020 C   0  0  0  0  0  0  0  0  0  0  0  0
   32.5580   31.2390   37.2140 C   0  0  0  0  0  0  0  0  0  0  0  0
   31.6530   30.2620   36.8270 C   0  0  0  0  0  0  0  0  0  0  0  0
   31.9890   29.4980   35.7230 C   0  0  0  0  0  0  0  0  0  0  0  0
   33.1700   29.7120   35.0560 C   0  0  0  0  0  0  0  0  0  0  0  0
   34.0800   30.6630   35.4110 C   0  0  0  0  0  0  0  0  0  0  0  0
   36.3650   33.3260   36.6060 H   0  0  0  0  0  0  0  0  0  0  0  0
   32.3380   31.8690   38.0780 H   0  0  0  0  0  0  0  0  0  0  0  0
   30.7420   30.1490   37.3980 H   0  0  0  0  0  0  0  0  0  0  0  0
   31.2440   28.7520   35.4690 H   0  0  0  0  0  0  0  0  0  0  0  0
   33.2800   29.0320   34.2270 H   0  0  0  0  0  0  0  0  0  0  0  0
   35.8110   31.1090   30.0470 N   0  0  0  0  0  0  0  0  0  0  0  0
   34.9460   31.6990   29.9540 H   0  0  0  0  0  0  0  0  0  0  0  0
   36.5600   31.2020   29.3290 H   0  0  0  0  0  0  0  0  0  0  0  0
  1  6  1  0  0  0  0
  2  1  2  0  0  0  0
  2  3  1  0  0  0  0
  3  4  2  0  0  0  0
  4  5  1  0  0  0  0
  5 14  1  0  0  0  0
  6  5  2  0  0  0  0
  7  2  1  0  0  0  0
  8  3  1  0  0  0  0
  8  9  1  0  0  0  0
 10  9  1  0  0  0  0
 11 10  1  0  0  0  0
 12 11  1  0  0  0  0
 12  8  1  0  0  0  0
 13 12  1  0  0  0  0
 14 15  2  0  0  0  0
 14 23  1  0  0  0  0
 15 16  1  0  0  0  0
 16 24  1  0  0  0  0
 16 17  2  0  0  0  0
 18 17  1  0  0  0  0
 18 19  1  0  0  0  0
 19 25  1  0  0  0  0
 20 19  2  0  0  0  0
 20 26  1  0  0  0  0
 21 20  1  0  0  0  0
 22 23  1  0  0  0  0
 22 21  2  0  0  0  0
 23 18  2  0  0  0  0
 27 21  1  0  0  0  0
 28 22  1  0  0  0  0
 29  1  1  0  0  0  0
 30 29  1  0  0  0  0
 31 29  1  0  0  0  0
M  END
>  <minimizedAffinity>
-5.83362627

$$$$

 OpenBabel03272503573D

 31 34  0  0  0  0  0  0  0  0999 V2000
   37.4530   24.1310   32.3770 C   0  0  0  0  0  0  0  0  0  0  0  0
   37.0940   25.4440   32.0220 C   0  0  0  0  0  0  0  0  0  0  0  0
   37.1360   26.3780   33.0530 C   0  0  0  0  0  0  0  0  0  0  0  0
   37.5000   25.9650   34.2550 N   0  0  0  0  0  0  0  0  0  0  0  0
   37.8410   24.7460   34.6190 C   0  0  0  0  0  0  0  0  0  0  0  0
   37.7920   23.8780   33.6170 N   0  0  0  0  0  0  0  0  0  0  0  0
   36.8150   25.6850   31.0290 H   0  0  0  0  0  0  0  0  0  0  0  0
   36.7960   27.7350   32.8210 N   0  0  0  0  0  0  0  0  0  0  0  0
   36.2220   28.6220   33.7860 C   0  0  0  0  0  2  0  0  0  0  0  0
   35.2870   29.4800   32.9500 C   0  0  0  0  0  2  0  0  0  0  0  0
   36.1350   29.7050   31.7020 C   0  0  0  0  0  2  0  0  0  0  0  0
   36.9700   28.4520   31.5850 C   0  0  0  0  0  3  0  0  0  0  0  0
   38.0240   28.7100   31.3550 H   0  0  0  0  0  0  0  0  0  0  0  0
   38.2610   24.1540   35.8830 C   0  0  0  0  0  0  0  0  0  0  0  0
   37.4550   24.1020   36.9740 N   0  0  0  0  0  0  0  0  0  0  0  0
   37.8440   23.5540   38.1250 C   0  0  0  0  0  0  0  0  0  0  0  0
   39.0550   23.0040   38.3220 N   0  0  0  0  0  0  0  0  0  0  0  0
   39.9070   23.0220   37.2730 C   0  0  0  0  0  0  0  0  0  0  0  0
   41.1470   22.4620   37.4690 C   0  0  0  0  0  0  0  0  0  0  0  0
   42.0640   22.4510   36.4290 C   0  0  0  0  0  0  0  0  0  0  0  0
   41.6620   23.0200   35.2330 C   0  0  0  0  0  0  0  0  0  0  0  0
   40.4080   23.5640   35.1030 C   0  0  0  0  0  0  0  0  0  0  0  0
   39.4840   23.5900   36.1050 C   0  0  0  0  0  0  0  0  0  0  0  0
   37.1800   23.5180   39.0080 H   0  0  0  0  0  0  0  0  0  0  0  0
   41.4170   22.0240   38.4330 H   0  0  0  0  0  0  0  0  0  0  0  0
   43.0330   22.0050   36.6010 H   0  0  0  0  0  0  0  0  0  0  0  0
   42.4200   22.9820   34.4590 H   0  0  0  0  0  0  0  0  0  0  0  0
   40.2570   23.9680   34.1150 H   0  0  0  0  0  0  0  0  0  0  0  0
   37.4550   23.0640   31.3980 N   0  0  0  0  0  0  0  0  0  0  0  0
   38.3260   22.4770   31.3600 H   0  0  0  0  0  0  0  0  0  0  0  0
   36.6730   22.8420   30.7470 H   0  0  0  0  0  0  0  0  0  0  0  0
  1  6  1  0  0  0  0
  2  1  2  0  0  0  0
  2  3  1  0  0  0  0
  3  4  2  0  0  0  0
  4  5  1  0  0  0  0
  5 14  1  0  0  0  0
  6  5  2  0  0  0  0
  7  2  1  0  0  0  0
  8  3  1  0  0  0  0
  8  9  1  0  0  0  0
 10  9  1  0  0  0  0
 11 10  1  0  0  0  0
 12 11  1  0  0  0  0
 12  8  1  0  0  0  0
 13 12  1  0  0  0  0
 14 23  2  0  0  0  0
 14 15  1  0  0  0  0
 15 16  2  0  0  0  0
 16 17  1  0  0  0  0
 16 24  1  0  0  0  0
 18 19  1  0  0  0  0
 18 17  2  0  0  0  0
 19 25  1  0  0  0  0
 20 26  1  0  0  0  0
 20 19  2  0  0  0  0
 21 20  1  0  0  0  0
 22 21  2  0  0  0  0
 22 23  1  0  0  0  0
 23 18  1  0  0  0  0
 27 21  1  0  0  0  0
 28 22  1  0  0  0  0
 29  1  1  0  0  0  0
 30 29  1  0  0  0  0
 31 29  1  0  0  0  0
M  END
>  <minimizedAffinity>
-5.82294798

$$$$
