
 OpenBabel03272504263D

 39 42  0  0  0  0  0  0  0  0999 V2000
   35.5800   29.5930   48.4330 C   0  0  0  0  0  0  0  0  0  0  0  0
   35.3500   28.7670   49.4760 C   0  0  0  0  0  0  0  0  0  0  0  0
   34.4950   27.7410   49.3710 C   0  0  0  0  0  0  0  0  0  0  0  0
   33.8510   27.5330   48.1910 N   0  0  0  0  0  0  0  0  0  0  0  0
   34.0860   28.3520   47.1720 C   0  0  0  0  0  0  0  0  0  0  0  0
   34.9400   29.3830   47.2680 N   0  0  0  0  0  0  0  0  0  0  0  0
   35.8650   28.9360   50.4140 H   0  0  0  0  0  0  0  0  0  0  0  0
   34.3170   27.0840   50.2110 H   0  0  0  0  0  0  0  0  0  0  0  0
   37.4370   32.5340   49.6000 C   0  0  0  0  0  0  0  0  0  0  0  0
   38.3110   32.7880   48.5270 C   0  0  0  0  0  0  0  0  0  0  0  0
   38.2410   31.9380   47.4230 C   0  0  0  0  0  0  0  0  0  0  0  0
   37.3360   30.9270   47.4560 N   0  0  0  0  0  0  0  0  0  0  0  0
   36.5020   30.7090   48.5130 C   0  0  0  0  0  0  0  0  0  0  0  0
   36.5650   31.5170   49.5700 N   0  0  0  0  0  0  0  0  0  0  0  0
   37.5250   33.2090   50.4240 H   0  0  0  0  0  0  0  0  0  0  0  0
   39.0330   33.5840   48.4880 H   0  0  0  0  0  0  0  0  0  0  0  0
   39.0290   32.0350   46.2680 N   0  0  0  0  0  0  0  0  0  0  0  0
   39.8640   33.1120   45.7670 C   0  0  0  0  0  2  0  0  0  0  0  0
   41.0630   32.3450   45.2500 C   0  0  0  0  0  2  0  0  0  0  0  0
   40.4130   31.1740   44.5630 C   0  0  0  0  0  2  0  0  0  0  0  0
   39.1260   30.9480   45.3130 C   0  0  0  0  0  3  0  0  0  0  0  0
   39.1700   29.9850   45.8650 H   0  0  0  0  0  0  0  0  0  0  0  0
   31.9930   27.7940   46.0110 C   0  0  0  0  0  0  0  0  0  0  0  0
   33.3690   28.0270   45.9610 C   0  0  0  0  0  0  0  0  0  0  0  0
   34.1260   27.9430   44.8070 C   0  0  0  0  0  0  0  0  0  0  0  0
   33.5080   27.6110   43.6220 C   0  0  0  0  0  0  0  0  0  0  0  0
   32.1530   27.3620   43.5790 C   0  0  0  0  0  0  0  0  0  0  0  0
   31.4920   27.4690   44.7580 C   0  0  0  0  0  0  0  0  0  0  0  0
   35.1910   28.1340   44.8180 H   0  0  0  0  0  0  0  0  0  0  0  0
   34.1110   27.5470   42.7230 H   0  0  0  0  0  0  0  0  0  0  0  0
   31.6390   27.0980   42.6650 H   0  0  0  0  0  0  0  0  0  0  0  0
   30.4120   27.2690   44.7190 H   0  0  0  0  0  0  0  0  0  0  0  0
   31.0460   27.9100   47.3770 S   0  0  0  0  0  0  0  0  0  0  0  0
   30.1460   26.6640   47.0840 O   0  0  0  0  0  0  0  0  0  0  0  0
   30.2040   29.1500   47.2340 O   0  0  0  0  0  0  0  0  0  0  0  0
   30.7710   27.6710   48.9330 C   0  0  0  0  0  0  0  0  0  0  0  0
   30.2490   26.4820   49.4890 F   0  0  0  0  0  0  0  0  0  0  0  0
   29.5440   28.3800   49.3330 F   0  0  0  0  0  0  0  0  0  0  0  0
   31.4350   28.4330   49.9370 F   0  0  0  0  0  0  0  0  0  0  0  0
  1 13  1  0  0  0  0
  1  2  1  0  0  0  0
  2  7  1  0  0  0  0
  3  2  2  0  0  0  0
  3  8  1  0  0  0  0
  4  3  1  0  0  0  0
  5  6  1  0  0  0  0
  5  4  2  0  0  0  0
  6  1  2  0  0  0  0
  9 15  1  0  0  0  0
 10  9  2  0  0  0  0
 11 12  2  0  0  0  0
 11 10  1  0  0  0  0
 12 13  1  0  0  0  0
 13 14  2  0  0  0  0
 14  9  1  0  0  0  0
 16 10  1  0  0  0  0
 17 11  1  0  0  0  0
 18 17  1  0  0  0  0
 19 18  1  0  0  0  0
 20 19  1  0  0  0  0
 20 21  1  0  0  0  0
 21 22  1  0  0  0  0
 21 17  1  0  0  0  0
 23 33  1  0  0  0  0
 24 23  1  0  0  0  0
 24  5  1  0  0  0  0
 25 29  1  0  0  0  0
 25 24  2  0  0  0  0
 26 25  1  0  0  0  0
 27 26  2  0  0  0  0
 27 28  1  0  0  0  0
 28 23  2  0  0  0  0
 30 26  1  0  0  0  0
 31 27  1  0  0  0  0
 32 28  1  0  0  0  0
 33 36  1  0  0  0  0
 34 33  2  0  0  0  0
 35 33  2  0  0  0  0
 36 38  1  0  0  0  0
 36 37  1  0  0  0  0
 36 39  1  0  0  0  0
M  END
>  <minimizedAffinity>
-6.6239748

>  <minimizedRMSD>
0.520715892

$$$$
