REMARK  Name = 
REMARK  4 active torsions:
REMARK  status: ('A' for Active; 'I' for Inactive)
REMARK    1  A    between atoms: C_1  and  C_24
REMARK    2  A    between atoms: C_5  and  C_8
REMARK    3  A    between atoms: C_7  and  S_13
REMARK    4  A    between atoms: S_13  and  C_16
REMARK                            x       y       z     vdW  Elec       q    Type
REMARK                         _______ _______ _______ _____ _____    ______ ____
ROOT
ATOM      1  C   UNL     1      35.685  29.813  48.499  0.00  0.00    +0.000 A 
ATOM      2  C   UNL     1      35.471  28.881  49.452  0.00  0.00    +0.000 A 
ATOM      3  C   UNL     1      34.674  27.829  49.224  0.00  0.00    +0.000 A 
ATOM      4  N   UNL     1      34.073  27.703  48.010  0.00  0.00    +0.000 NA
ATOM      5  C   UNL     1      34.292  28.626  47.080  0.00  0.00    +0.000 A 
ATOM      6  N   UNL     1      35.089  29.684  47.300  0.00  0.00    +0.000 NA
ATOM      7  H   UNL     1      35.951  28.985  50.417  0.00  0.00    +0.000 HD
ATOM      8  H   UNL     1      34.508  27.087  49.993  0.00  0.00    +0.000 HD
ENDROOT
BRANCH   1  13
ATOM      9  C   UNL     1      37.314  32.752  49.972  0.00  0.00    +0.000 A 
ATOM     10  C   UNL     1      38.249  33.110  48.983  0.00  0.00    +0.000 A 
ATOM     11  C   UNL     1      38.297  32.329  47.828  0.00  0.00    +0.000 A 
ATOM     12  N   UNL     1      37.441  31.280  47.734  0.00  0.00    +0.000 NA
ATOM     13  C   UNL     1      36.546  30.961  48.713  0.00  0.00    +0.000 A 
ATOM     14  N   UNL     1      36.496  31.703  49.818  0.00  0.00    +0.000 NA
ATOM     15  H   UNL     1      37.312  33.377  50.839  0.00  0.00    +0.000 HD
ATOM     16  H   UNL     1      38.933  33.937  49.044  0.00  0.00    +0.000 HD
ATOM     17  N   UNL     1      39.159  32.532  46.742  0.00  0.00    +0.000 N 
ATOM     18  C   UNL     1      39.314  31.807  45.495  0.00  0.00    +0.000 C 
ATOM     19  C   UNL     1      39.510  32.942  44.511  0.00  0.00    +0.000 C 
ATOM     20  C   UNL     1      40.441  33.853  45.266  0.00  0.00    +0.000 C 
ATOM     21  C   UNL     1      40.120  33.618  46.719  0.00  0.00    +0.000 C 
ATOM     22  H   UNL     1      39.652  34.525  47.158  0.00  0.00    +0.000 HD
ENDBRANCH   1  13
BRANCH   5  24
ATOM     23  C   UNL     1      32.263  28.077  45.807  0.00  0.00    +0.000 A 
ATOM     24  C   UNL     1      33.626  28.384  45.822  0.00  0.00    +0.000 A 
ATOM     25  C   UNL     1      34.416  28.451  44.690  0.00  0.00    +0.000 A 
ATOM     26  C   UNL     1      33.848  28.203  43.460  0.00  0.00    +0.000 A 
ATOM     27  C   UNL     1      32.510  27.891  43.351  0.00  0.00    +0.000 A 
ATOM     28  C   UNL     1      31.813  27.849  44.514  0.00  0.00    +0.000 A 
ATOM     29  H   UNL     1      35.468  28.694  44.752  0.00  0.00    +0.000 HD
ATOM     30  H   UNL     1      34.477  28.258  42.578  0.00  0.00    +0.000 HD
ATOM     31  H   UNL     1      32.035  27.690  42.401  0.00  0.00    +0.000 HD
ATOM     32  H   UNL     1      30.747  27.599  44.422  0.00  0.00    +0.000 HD
BRANCH  23  33
ATOM     33  S   UNL     1      31.276  28.011  47.148  0.00  0.00    +0.000 S 
ATOM     34  O   UNL     1      30.468  26.741  46.720  0.00  0.00    +0.000 OA
ATOM     35  O   UNL     1      30.358  29.203  47.086  0.00  0.00    +0.000 OA
BRANCH  33  36
ATOM     36  C   UNL     1      30.978  27.619  48.668  0.00  0.00    +0.000 C 
ATOM     37  F   UNL     1      30.540  26.349  49.105  0.00  0.00    +0.000 F 
ATOM     38  F   UNL     1      29.686  28.191  49.082  0.00  0.00    +0.000 F 
ATOM     39  F   UNL     1      31.548  28.343  49.754  0.00  0.00    +0.000 F 
ENDBRANCH  33  36
ENDBRANCH  23  33
ENDBRANCH   5  24
TORSDOF 4
