REMARK  Name = 
REMARK  2 active torsions:
REMARK  status: ('A' for Active; 'I' for Inactive)
REMARK    1  A    between atoms: N_1  and  C_16
REMARK    2  A    between atoms: C_4  and  C_8
REMARK                            x       y       z     vdW  Elec       q    Type
REMARK                         _______ _______ _______ _____ _____    ______ ____
ROOT
ATOM      1  N   UNL     1      32.712  28.209  47.431  0.00  0.00    +0.000 N 
ATOM      2  C   UNL     1      33.305  27.757  48.644  0.00  0.00    +0.000 C 
ATOM      3  C   UNL     1      34.473  28.521  49.140  0.00  0.00    +0.000 C 
ATOM      4  C   UNL     1      35.415  29.007  48.132  0.00  0.00    +0.000 C 
ATOM      5  C   UNL     1      34.715  29.411  46.822  0.00  0.00    +0.000 C 
ATOM      6  C   UNL     1      33.760  28.267  46.449  0.00  0.00    +0.000 C 
ATOM      7  H   UNL     1      33.602  26.685  48.494  0.00  0.00    +0.000 HD
ATOM      8  H   UNL     1      32.510  27.734  49.421  0.00  0.00    +0.000 HD
ATOM      9  H   UNL     1      33.971  29.447  49.579  0.00  0.00    +0.000 HD
ATOM     10  H   UNL     1      34.950  28.008  49.969  0.00  0.00    +0.000 HD
ATOM     11  H   UNL     1      36.106  28.188  47.791  0.00  0.00    +0.000 HD
ATOM     12  H   UNL     1      35.479  29.441  46.028  0.00  0.00    +0.000 HD
ATOM     13  H   UNL     1      34.169  30.345  46.992  0.00  0.00    +0.000 HD
ATOM     14  H   UNL     1      34.357  27.356  46.351  0.00  0.00    +0.000 HD
ATOM     15  H   UNL     1      33.325  28.592  45.465  0.00  0.00    +0.000 HD
ENDROOT
BRANCH   4  17
ATOM     16  C   UNL     1      35.939  30.743  49.784  0.00  0.00    +0.000 A 
ATOM     17  C   UNL     1      36.195  30.204  48.531  0.00  0.00    +0.000 A 
ATOM     18  C   UNL     1      37.097  30.729  47.644  0.00  0.00    +0.000 A 
ATOM     19  C   UNL     1      37.798  31.873  48.020  0.00  0.00    +0.000 A 
ATOM     20  C   UNL     1      37.541  32.410  49.267  0.00  0.00    +0.000 A 
ATOM     21  C   UNL     1      36.626  31.880  50.173  0.00  0.00    +0.000 A 
ATOM     22  O   UNL     1      38.331  33.551  49.472  0.00  0.00    +0.000 OA
ATOM     23  C   UNL     1      39.337  33.469  48.461  0.00  0.00    +0.000 C 
ATOM     24  O   UNL     1      38.764  32.688  47.440  0.00  0.00    +0.000 OA
ATOM     25  H   UNL     1      35.267  30.409  50.560  0.00  0.00    +0.000 HD
ATOM     26  H   UNL     1      37.272  30.293  46.691  0.00  0.00    +0.000 HD
ATOM     27  H   UNL     1      36.475  32.357  51.142  0.00  0.00    +0.000 HD
ATOM     28  H   UNL     1      39.644  34.446  48.071  0.00  0.00    +0.000 HD
ATOM     29  H   UNL     1      40.255  33.002  48.904  0.00  0.00    +0.000 HD
ENDBRANCH   4  17
BRANCH   1  30
ATOM     30  C   UNL     1      31.342  28.549  47.198  0.00  0.00    +0.000 A 
ATOM     31  C   UNL     1      30.863  29.358  46.172  0.00  0.00    +0.000 A 
ATOM     32  C   UNL     1      29.497  29.575  46.107  0.00  0.00    +0.000 A 
ATOM     33  N   UNL     1      28.696  28.991  47.039  0.00  0.00    +0.000 NA
ATOM     34  C   UNL     1      29.180  28.214  48.020  0.00  0.00    +0.000 A 
ATOM     35  N   UNL     1      30.498  28.002  48.089  0.00  0.00    +0.000 NA
ATOM     36  H   UNL     1      31.608  29.746  45.516  0.00  0.00    +0.000 HD
ATOM     37  H   UNL     1      29.141  30.199  45.313  0.00  0.00    +0.000 HD
ATOM     38  N   UNL     1      28.252  27.652  48.945  0.00  0.00    +0.000 N 
ATOM     39  C   UNL     1      27.850  26.256  48.929  0.00  0.00    +0.000 C 
ATOM     40  C   UNL     1      27.888  25.941  50.410  0.00  0.00    +0.000 C 
ATOM     41  C   UNL     1      27.714  27.262  51.130  0.00  0.00    +0.000 C 
ATOM     42  C   UNL     1      27.543  28.297  50.038  0.00  0.00    +0.000 C 
ATOM     43  H   UNL     1      28.028  29.268  50.275  0.00  0.00    +0.000 HD
ENDBRANCH   1  30
TORSDOF 2
