REMARK  Name = 
REMARK  3 active torsions:
REMARK  status: ('A' for Active; 'I' for Inactive)
REMARK    1  A    between atoms: C_1  and  C_7
REMARK    2  A    between atoms: C_1  and  C_9
REMARK    3  A    between atoms: C_12  and  N_19
REMARK                            x       y       z     vdW  Elec       q    Type
REMARK                         _______ _______ _______ _____ _____    ______ ____
ROOT
ATOM      1  C   UNL     1      36.520  30.886  49.432  0.00  0.00    +0.000 A 
ATOM      2  C   UNL     1      37.317  30.205  50.324  0.00  0.00    +0.000 A 
ATOM      3  C   UNL     1      38.436  31.022  50.417  0.00  0.00    +0.000 A 
ATOM      4  C   UNL     1      38.276  32.120  49.609  0.00  0.00    +0.000 A 
ATOM      5  O   UNL     1      37.116  32.016  49.026  0.00  0.00    +0.000 OA
ATOM      6  H   UNL     1      37.158  29.286  50.837  0.00  0.00    +0.000 HD
ATOM      7  H   UNL     1      39.308  30.798  51.052  0.00  0.00    +0.000 HD
ENDROOT
BRANCH   4   8
ATOM      8  N   UNL     1      39.245  33.157  49.474  0.00  0.00    +0.000 N 
ATOM      9  C   UNL     1      38.953  34.550  49.181  0.00  0.00    +0.000 C 
ATOM     10  C   UNL     1      40.027  34.837  48.155  0.00  0.00    +0.000 C 
ATOM     11  C   UNL     1      41.087  33.767  48.295  0.00  0.00    +0.000 C 
ATOM     12  C   UNL     1      40.694  33.083  49.588  0.00  0.00    +0.000 C 
ATOM     13  H   UNL     1      41.057  33.733  50.411  0.00  0.00    +0.000 HD
ENDBRANCH   4   8
BRANCH   1  14
ATOM     14  C   UNL     1      35.193  30.439  48.981  0.00  0.00    +0.000 C 
ATOM     15  O   UNL     1      34.331  30.197  49.861  0.00  0.00    +0.000 OA
BRANCH  14  20
ATOM     16  C   UNL     1      33.332  30.084  45.886  0.00  0.00    +0.000 A 
ATOM     17  C   UNL     1      34.315  30.003  44.908  0.00  0.00    +0.000 A 
ATOM     18  C   UNL     1      35.645  30.071  45.315  0.00  0.00    +0.000 A 
ATOM     19  N   UNL     1      35.893  30.211  46.634  0.00  0.00    +0.000 NA
ATOM     20  C   UNL     1      34.907  30.288  47.566  0.00  0.00    +0.000 A 
ATOM     21  N   UNL     1      33.630  30.223  47.176  0.00  0.00    +0.000 NA
ATOM     22  H   UNL     1      32.330  30.024  45.484  0.00  0.00    +0.000 HD
ATOM     23  H   UNL     1      34.090  29.890  43.855  0.00  0.00    +0.000 HD
ATOM     24  H   UNL     1      36.477  30.015  44.614  0.00  0.00    +0.000 HD
ENDBRANCH  14  20
ENDBRANCH   1  14
TORSDOF 3
