
     RDKit          3D

 31 33  0  0  0  0  0  0  0  0999 V2000
   35.1932   30.4390   48.9806 C   0  0  0  0  0  0  0  0  0  0  0  0
   34.3305   30.1969   49.8608 O   0  0  0  0  0  0  0  0  0  0  0  0
   33.3320   30.0845   45.8857 C   0  0  0  0  0  0  0  0  0  0  0  0
   34.3145   30.0029   44.9076 C   0  0  0  0  0  0  0  0  0  0  0  0
   35.6445   30.0708   45.3152 C   0  0  0  0  0  0  0  0  0  0  0  0
   35.8934   30.2114   46.6340 N   0  0  0  0  0  0  0  0  0  0  0  0
   34.9074   30.2882   47.5662 C   0  0  0  0  0  0  0  0  0  0  0  0
   33.6305   30.2232   47.1760 N   0  0  0  0  0  0  0  0  0  0  0  0
   36.5198   30.8859   49.4318 C   0  0  0  0  0  0  0  0  0  0  0  0
   37.3168   30.2052   50.3240 C   0  0  0  0  0  0  0  0  0  0  0  0
   38.4360   31.0223   50.4167 C   0  0  0  0  0  0  0  0  0  0  0  0
   38.2763   32.1198   49.6090 C   0  0  0  0  0  0  0  0  0  0  0  0
   37.1160   32.0159   49.0264 O   0  0  0  0  0  0  0  0  0  0  0  0
   32.3296   30.0237   45.4839 H   0  0  0  0  0  0  0  0  0  0  0  0
   34.0905   29.8901   43.8552 H   0  0  0  0  0  0  0  0  0  0  0  0
   36.4769   30.0148   44.6143 H   0  0  0  0  0  0  0  0  0  0  0  0
   37.1582   29.2860   50.8367 H   0  0  0  0  0  0  0  0  0  0  0  0
   39.3077   30.7984   51.0519 H   0  0  0  0  0  0  0  0  0  0  0  0
   39.2451   33.1567   49.4735 N   0  0  0  0  0  0  0  0  0  0  0  0
   39.7373   33.9963   50.5531 C   0  0  0  0  0  0  0  0  0  0  0  0
   39.7223   35.3452   49.8684 C   0  0  0  0  0  0  0  0  0  0  0  0
   39.6747   35.0973   48.3762 C   0  0  0  0  0  0  0  0  0  0  0  0
   39.9471   33.6108   48.2821 C   0  0  1  0  0  0  0  0  0  0  0  0
   41.0430   33.4831   48.3981 H   0  0  0  0  0  0  0  0  0  0  0  0
   40.8048   33.7104   50.7244 H   0  0  0  0  0  0  0  0  0  0  0  0
   39.1410   33.9448   51.4730 H   0  0  0  0  0  0  0  0  0  0  0  0
   38.8191   35.9118   50.2103 H   0  0  0  0  0  0  0  0  0  0  0  0
   40.6270   35.9439   50.0957 H   0  0  0  0  0  0  0  0  0  0  0  0
   40.4228   35.6958   47.8248 H   0  0  0  0  0  0  0  0  0  0  0  0
   38.6413   35.2814   48.0320 H   0  0  0  0  0  0  0  0  0  0  0  0
   39.5556   33.1652   47.3558 H   0  0  0  0  0  0  0  0  0  0  0  0
  1  9  1  0
  1  2  2  0
  3  8  2  0
  4  5  2  0
  4  3  1  0
  5  6  1  0
  6  7  2  0
  7  1  1  0
  8  7  1  0
  9 10  2  0
 10 11  1  0
 12 11  2  0
 13  9  1  0
 13 12  1  0
  3 14  1  0
  4 15  1  0
  5 16  1  0
 10 17  1  0
 11 18  1  0
 19 20  1  0
 20 21  1  0
 21 22  1  0
 22 23  1  0
 23 24  1  1
 23 19  1  0
 20 25  1  0
 20 26  1  0
 21 27  1  0
 21 28  1  0
 22 29  1  0
 22 30  1  0
 23 31  1  0
 12 19  1  0
M  ISO  6  14  14  15  14  16  14  17  14  18  14  24  13
M  END
>  <DihAtoms>  (1) 
10,11,18,19

>  <DihDeg>  (1) 
0.05877720050590005

$$$$
