
     RDKit          3D

 31 33  0  0  0  0  0  0  0  0999 V2000
   35.1932   30.4390   48.9806 C   0  0  0  0  0  0  0  0  0  0  0  0
   34.3305   30.1969   49.8608 O   0  0  0  0  0  0  0  0  0  0  0  0
   33.3320   30.0845   45.8857 C   0  0  0  0  0  0  0  0  0  0  0  0
   34.3145   30.0029   44.9076 C   0  0  0  0  0  0  0  0  0  0  0  0
   35.6445   30.0708   45.3152 C   0  0  0  0  0  0  0  0  0  0  0  0
   35.8934   30.2114   46.6340 N   0  0  0  0  0  0  0  0  0  0  0  0
   34.9074   30.2882   47.5662 C   0  0  0  0  0  0  0  0  0  0  0  0
   33.6305   30.2232   47.1760 N   0  0  0  0  0  0  0  0  0  0  0  0
   36.5198   30.8859   49.4318 C   0  0  0  0  0  0  0  0  0  0  0  0
   37.3168   30.2052   50.3240 C   0  0  0  0  0  0  0  0  0  0  0  0
   38.4360   31.0223   50.4167 C   0  0  0  0  0  0  0  0  0  0  0  0
   38.2763   32.1198   49.6090 C   0  0  0  0  0  0  0  0  0  0  0  0
   37.1160   32.0159   49.0264 O   0  0  0  0  0  0  0  0  0  0  0  0
   32.3296   30.0237   45.4839 H   0  0  0  0  0  0  0  0  0  0  0  0
   34.0905   29.8901   43.8552 H   0  0  0  0  0  0  0  0  0  0  0  0
   36.4769   30.0148   44.6143 H   0  0  0  0  0  0  0  0  0  0  0  0
   37.1582   29.2860   50.8367 H   0  0  0  0  0  0  0  0  0  0  0  0
   39.3077   30.7984   51.0519 H   0  0  0  0  0  0  0  0  0  0  0  0
   39.2451   33.1567   49.4735 N   0  0  0  0  0  0  0  0  0  0  0  0
   39.0283   34.5589   49.7892 C   0  0  0  0  0  0  0  0  0  0  0  0
   39.6932   35.2059   48.5942 C   0  0  0  0  0  0  0  0  0  0  0  0
   40.6057   34.1741   47.9674 C   0  0  0  0  0  0  0  0  0  0  0  0
   40.6220   33.0752   49.0090 C   0  0  1  0  0  0  0  0  0  0  0  0
   41.3252   33.4028   49.8020 H   0  0  0  0  0  0  0  0  0  0  0  0
   39.6480   34.7870   50.6917 H   0  0  0  0  0  0  0  0  0  0  0  0
   37.9748   34.8326   49.9290 H   0  0  0  0  0  0  0  0  0  0  0  0
   38.9000   35.5309   47.8738 H   0  0  0  0  0  0  0  0  0  0  0  0
   40.3027   36.0877   48.8765 H   0  0  0  0  0  0  0  0  0  0  0  0
   41.6163   34.5726   47.7634 H   0  0  0  0  0  0  0  0  0  0  0  0
   40.1087   33.7836   47.0614 H   0  0  0  0  0  0  0  0  0  0  0  0
   40.8759   32.0923   48.5854 H   0  0  0  0  0  0  0  0  0  0  0  0
  1  9  1  0
  1  2  2  0
  3  8  2  0
  4  5  2  0
  4  3  1  0
  5  6  1  0
  6  7  2  0
  7  1  1  0
  8  7  1  0
  9 10  2  0
 10 11  1  0
 12 11  2  0
 13  9  1  0
 13 12  1  0
  3 14  1  0
  4 15  1  0
  5 16  1  0
 10 17  1  0
 11 18  1  0
 19 20  1  0
 20 21  1  0
 21 22  1  0
 22 23  1  0
 23 24  1  1
 23 19  1  0
 20 25  1  0
 20 26  1  0
 21 27  1  0
 21 28  1  0
 22 29  1  0
 22 30  1  0
 23 31  1  0
 12 19  1  0
M  ISO  6  14  14  15  14  16  14  17  14  18  14  24  13
M  END
>  <DihAtoms>  (1) 
10,11,18,19

>  <DihDeg>  (1) 
0.05877720050590005

$$$$
