
 OpenBabel03272508433D

 24 26  0  0  0  0  0  0  0  0999 V2000
   34.2990   29.2230   48.2700 C   0  0  0  0  0  0  0  0  0  0  0  0
   34.6820   28.3230   49.2380 C   0  0  0  0  0  0  0  0  0  0  0  0
   35.7130   28.9930   49.8840 C   0  0  0  0  0  0  0  0  0  0  0  0
   35.9040   30.2210   49.3020 C   0  0  0  0  0  0  0  0  0  0  0  0
   35.0420   30.3370   48.3330 O   0  0  0  0  0  0  0  0  0  0  0  0
   34.3120   27.3530   49.4710 H   0  0  0  0  0  0  0  0  0  0  0  0
   36.2780   28.5760   50.7340 H   0  0  0  0  0  0  0  0  0  0  0  0
   36.8880   31.1600   49.7280 N   0  0  0  0  0  0  0  0  0  0  0  0
   36.6300   32.5400   50.1030 C   0  0  0  0  0  2  0  0  0  0  0  0
   37.7800   33.2260   49.3990 C   0  0  0  0  0  2  0  0  0  0  0  0
   38.8180   32.1710   49.0880 C   0  0  0  0  0  2  0  0  0  0  0  0
   38.3240   30.9800   49.8840 C   0  0  0  0  0  3  0  0  0  0  0  0
   38.6300   31.1560   50.9360 H   0  0  0  0  0  0  0  0  0  0  0  0
   33.2210   28.9980   47.2950 C   0  0  0  0  0  0  0  0  0  0  0  0
   32.4150   28.0630   47.5240 O   0  0  0  0  0  0  0  0  0  0  0  0
   33.9360   30.4440   44.0440 C   0  0  0  0  0  0  0  0  0  0  0  0
   32.9360   31.3910   43.8680 C   0  0  0  0  0  0  0  0  0  0  0  0
   31.9950   31.5400   44.8840 C   0  0  0  0  0  0  0  0  0  0  0  0
   32.1150   30.7540   45.9740 N   0  0  0  0  0  0  0  0  0  0  0  0
   33.1070   29.8350   46.1140 C   0  0  0  0  0  0  0  0  0  0  0  0
   34.0110   29.6920   45.1400 N   0  0  0  0  0  0  0  0  0  0  0  0
   34.6220   30.3940   43.2100 H   0  0  0  0  0  0  0  0  0  0  0  0
   32.8610   32.0110   42.9830 H   0  0  0  0  0  0  0  0  0  0  0  0
   31.1780   32.2590   44.8270 H   0  0  0  0  0  0  0  0  0  0  0  0
  1  5  1  0  0  0  0
  1  2  2  0  0  0  0
  2  6  1  0  0  0  0
  2  3  1  0  0  0  0
  3  7  1  0  0  0  0
  4  8  1  0  0  0  0
  4  3  2  0  0  0  0
  5  4  1  0  0  0  0
  8 12  1  0  0  0  0
  8  9  1  0  0  0  0
 10  9  1  0  0  0  0
 11 10  1  0  0  0  0
 11 12  1  0  0  0  0
 12 13  1  0  0  0  0
 14 15  2  0  0  0  0
 14  1  1  0  0  0  0
 16 21  1  0  0  0  0
 17 16  2  0  0  0  0
 17 18  1  0  0  0  0
 18 19  2  0  0  0  0
 19 20  1  0  0  0  0
 20 14  1  0  0  0  0
 21 20  2  0  0  0  0
 22 16  1  0  0  0  0
 23 17  1  0  0  0  0
 24 18  1  0  0  0  0
M  END
>  <minimizedAffinity>
-4.61561108

>  <minimizedRMSD>
3.06488824

$$$$
