
 OpenBabel03272508433D

 24 26  0  0  0  0  0  0  0  0999 V2000
   34.6690   28.5690   48.6930 C   0  0  0  0  0  0  0  0  0  0  0  0
   34.6490   28.7490   50.0570 C   0  0  0  0  0  0  0  0  0  0  0  0
   35.7610   29.5510   50.2740 C   0  0  0  0  0  0  0  0  0  0  0  0
   36.3840   29.8130   49.0790 C   0  0  0  0  0  0  0  0  0  0  0  0
   35.7090   29.2110   48.1420 O   0  0  0  0  0  0  0  0  0  0  0  0
   33.9740   28.3880   50.7960 H   0  0  0  0  0  0  0  0  0  0  0  0
   36.0750   29.9100   51.2670 H   0  0  0  0  0  0  0  0  0  0  0  0
   37.5600   30.6090   48.9510 N   0  0  0  0  0  0  0  0  0  0  0  0
   38.2850   31.2230   50.0490 C   0  0  0  0  0  2  0  0  0  0  0  0
   38.5500   32.5920   49.4610 C   0  0  0  0  0  2  0  0  0  0  0  0
   38.3740   32.4840   47.9620 C   0  0  0  0  0  2  0  0  0  0  0  0
   38.2890   30.9870   47.7490 C   0  0  0  0  0  3  0  0  0  0  0  0
   39.3290   30.6050   47.7830 H   0  0  0  0  0  0  0  0  0  0  0  0
   33.6840   27.7800   47.9360 C   0  0  0  0  0  0  0  0  0  0  0  0
   33.8600   26.5390   47.8720 O   0  0  0  0  0  0  0  0  0  0  0  0
   30.2710   28.5370   46.9630 C   0  0  0  0  0  0  0  0  0  0  0  0
   30.3970   29.6180   46.1010 C   0  0  0  0  0  0  0  0  0  0  0  0
   31.6780   30.1000   45.8440 C   0  0  0  0  0  0  0  0  0  0  0  0
   32.7150   29.4850   46.4510 N   0  0  0  0  0  0  0  0  0  0  0  0
   32.5570   28.4290   47.2910 C   0  0  0  0  0  0  0  0  0  0  0  0
   31.3280   27.9660   47.5380 N   0  0  0  0  0  0  0  0  0  0  0  0
   29.2450   28.2280   47.1070 H   0  0  0  0  0  0  0  0  0  0  0  0
   29.5490   30.0940   45.6250 H   0  0  0  0  0  0  0  0  0  0  0  0
   31.8660   30.9430   45.1810 H   0  0  0  0  0  0  0  0  0  0  0  0
  1  2  2  0  0  0  0
  2  3  1  0  0  0  0
  2  6  1  0  0  0  0
  3  7  1  0  0  0  0
  4  3  2  0  0  0  0
  5  1  1  0  0  0  0
  5  4  1  0  0  0  0
  8  4  1  0  0  0  0
  8  9  1  0  0  0  0
 10  9  1  0  0  0  0
 11 10  1  0  0  0  0
 12 13  1  0  0  0  0
 12 11  1  0  0  0  0
 12  8  1  0  0  0  0
 14  1  1  0  0  0  0
 15 14  2  0  0  0  0
 16 22  1  0  0  0  0
 16 21  1  0  0  0  0
 17 16  2  0  0  0  0
 18 17  1  0  0  0  0
 18 19  2  0  0  0  0
 19 20  1  0  0  0  0
 20 21  2  0  0  0  0
 20 14  1  0  0  0  0
 23 17  1  0  0  0  0
 24 18  1  0  0  0  0
M  END
>  <minimizedAffinity>
-5.07067347

>  <minimizedRMSD>
3.32628441

$$$$
