
 OpenBabel03272509353D

 44 48  0  0  1  0  0  0  0  0999 V2000
   36.3300   30.5840   44.5100 C   0  0  1  0  0  0  0  0  0  0  0  0
   37.2230   31.7460   44.7420 C   0  0  0  0  0  0  0  0  0  0  0  0
   37.9070   30.4700   44.6940 C   0  0  2  0  0  0  0  0  0  0  0  0
   36.0070   30.2190   43.5310 H   0  0  0  0  0  0  0  0  0  0  0  0
   37.0480   32.4930   43.9620 H   0  0  0  0  0  0  0  0  0  0  0  0
   37.0970   32.2350   45.7610 H   0  0  0  0  0  0  0  0  0  0  0  0
   38.0910   29.7400   45.4720 H   0  0  0  0  0  0  0  0  0  0  0  0
   38.7150   30.3330   43.4370 C   0  0  0  0  0  0  0  0  0  0  0  0
   39.1450   31.5970   43.0010 C   0  0  0  0  0  0  0  0  0  0  0  0
   39.9900   31.6980   41.9280 C   0  0  0  0  0  0  0  0  0  0  0  0
   40.4420   30.5630   41.2450 C   0  0  0  0  0  0  0  0  0  0  0  0
   39.9980   29.3310   41.7030 C   0  0  0  0  0  0  0  0  0  0  0  0
   40.3580   28.1460   41.1240 C   0  0  0  0  0  0  0  0  0  0  0  0
   39.9250   26.9190   41.5590 C   0  0  0  0  0  0  0  0  0  0  0  0
   39.0710   26.8710   42.6470 C   0  0  0  0  0  0  0  0  0  0  0  0
   38.7020   28.0610   43.2370 C   0  0  0  0  0  0  0  0  0  0  0  0
   39.1640   29.2700   42.7640 C   0  0  0  0  0  0  0  0  0  0  0  0
   39.0050   32.6140   43.2990 H   0  0  0  0  0  0  0  0  0  0  0  0
   40.4190   32.5690   41.4540 H   0  0  0  0  0  0  0  0  0  0  0  0
   41.1040   30.4960   40.3870 H   0  0  0  0  0  0  0  0  0  0  0  0
   41.0280   28.1440   40.2650 H   0  0  0  0  0  0  0  0  0  0  0  0
   40.2100   25.9820   41.1010 H   0  0  0  0  0  0  0  0  0  0  0  0
   38.6900   25.9470   43.0450 H   0  0  0  0  0  0  0  0  0  0  0  0
   38.0210   28.0020   44.1050 H   0  0  0  0  0  0  0  0  0  0  0  0
   33.7910   28.7860   46.6370 C   0  0  0  0  0  0  0  0  0  0  0  0
   34.4930   29.2710   45.4900 C   0  0  0  0  0  0  0  0  0  0  0  0
   35.5950   30.0560   45.6840 C   0  0  0  0  0  0  0  0  0  0  0  0
   35.9450   30.3190   46.9880 N   0  0  0  0  0  0  0  0  0  0  0  0
   35.2820   29.8620   48.0500 C   0  0  0  0  0  0  0  0  0  0  0  0
   34.1890   29.0840   47.8930 N   0  0  0  0  0  0  0  0  0  0  0  0
   32.9100   28.1590   46.4620 H   0  0  0  0  0  0  0  0  0  0  0  0
   34.1030   28.9820   44.5150 H   0  0  0  0  0  0  0  0  0  0  0  0
   35.8220   30.2300   49.4140 C   0  0  0  0  0  0  0  0  0  0  0  0
   35.4390   29.4260   50.0740 H   0  0  0  0  0  0  0  0  0  0  0  0
   35.3730   31.1920   49.6440 H   0  0  0  0  0  0  0  0  0  0  0  0
   37.3210   30.2330   49.3320 C   0  0  0  0  0  0  0  0  0  0  0  0
   37.6680   29.7220   50.2570 H   0  0  0  0  0  0  0  0  0  0  0  0
   37.6230   29.5500   48.5100 H   0  0  0  0  0  0  0  0  0  0  0  0
   38.0020   31.4310   49.2030 N   0  0  0  0  0  0  0  0  0  0  0  0
   37.3710   32.6120   49.6870 C   0  0  0  0  0  0  0  0  0  0  0  0
   38.3350   33.7050   49.3730 C   0  0  0  0  0  0  0  0  0  0  0  0
   39.2150   33.1480   48.2770 C   0  0  0  0  0  0  0  0  0  0  0  0
   38.7670   31.7190   48.0640 C   0  0  0  0  0  0  0  0  0  0  0  0
   39.5960   31.0440   47.8420 H   0  0  0  0  0  0  0  0  0  0  0  0
  1  4  1  6  0  0  0
  1  3  1  0  0  0  0
  1  2  1  0  0  0  0
  1 27  1  0  0  0  0
  2  6  1  0  0  0  0
  3  2  1  0  0  0  0
  3  7  1  1  0  0  0
  5  2  1  0  0  0  0
  8  3  1  0  0  0  0
  9 18  1  0  0  0  0
  9  8  1  0  0  0  0
 10  9  2  0  0  0  0
 11 12  2  0  0  0  0
 11 10  1  0  0  0  0
 12 17  1  0  0  0  0
 13 14  2  0  0  0  0
 13 12  1  0  0  0  0
 14 15  1  0  0  0  0
 15 23  1  0  0  0  0
 15 16  2  0  0  0  0
 16 24  1  0  0  0  0
 17 16  1  0  0  0  0
 17  8  2  0  0  0  0
 19 10  1  0  0  0  0
 20 11  1  0  0  0  0
 21 13  1  0  0  0  0
 22 14  1  0  0  0  0
 25 30  1  0  0  0  0
 26 27  1  0  0  0  0
 26 25  2  0  0  0  0
 27 28  2  0  0  0  0
 28 29  1  0  0  0  0
 29 33  1  0  0  0  0
 30 29  2  0  0  0  0
 31 25  1  0  0  0  0
 32 26  1  0  0  0  0
 33 35  1  0  0  0  0
 33 34  1  0  0  0  0
 36 33  1  0  0  0  0
 36 37  1  0  0  0  0
 38 36  1  0  0  0  0
 39 36  1  0  0  0  0
 39 40  1  0  0  0  0
 41 40  1  0  0  0  0
 42 41  1  0  0  0  0
 43 42  1  0  0  0  0
 43 39  1  0  0  0  0
 44 43  1  0  0  0  0
M  END
>  <minimizedAffinity>
-5.51939011

>  <minimizedRMSD>
2.66730618

$$$$
