
 OpenBabel03272500443D

 30 32  0  0  1  0  0  0  0  0999 V2000
   38.0080   27.6160   35.5040 C   0  0  0  0  0  0  0  0  0  0  0  0
   38.3740   26.5700   36.3890 C   0  0  0  0  0  0  0  0  0  0  0  0
   38.3240   25.2520   35.9350 C   0  0  0  0  0  0  0  0  0  0  0  0
   37.9200   25.0610   34.6550 N   0  0  0  0  0  0  0  0  0  0  0  0
   37.5760   26.0560   33.8290 C   0  0  0  0  0  0  0  0  0  0  0  0
   37.6210   27.3230   34.2580 N   0  0  0  0  0  0  0  0  0  0  0  0
   37.1560   25.7570   32.4760 N   0  0  0  0  0  0  0  0  0  0  0  0
   35.9710   26.4410   31.9530 C   0  0  2  0  0  0  0  0  0  0  0  0
   35.2280   25.6380   30.9370 C   0  0  0  0  0  0  0  0  0  0  0  0
   35.5600   24.1780   31.1790 C   0  0  0  0  0  0  0  0  0  0  0  0
   37.0120   23.9990   30.7690 C   0  0  0  0  0  0  0  0  0  0  0  0
   37.8880   24.8190   31.6830 C   0  0  0  0  0  0  0  0  0  0  0  0
   38.0190   28.6630   35.7770 H   0  0  0  0  0  0  0  0  0  0  0  0
   38.6810   26.8410   37.3890 H   0  0  0  0  0  0  0  0  0  0  0  0
   38.6030   24.4480   36.6040 H   0  0  0  0  0  0  0  0  0  0  0  0
   35.2830   26.5210   32.8470 H   0  0  0  0  0  0  0  0  0  0  0  0
   35.4890   25.9100   29.8910 H   0  0  0  0  0  0  0  0  0  0  0  0
   34.1290   25.7390   31.0580 H   0  0  0  0  0  0  0  0  0  0  0  0
   34.8920   23.4780   30.6570 H   0  0  0  0  0  0  0  0  0  0  0  0
   35.4980   24.0100   32.2790 H   0  0  0  0  0  0  0  0  0  0  0  0
   37.1320   24.2310   29.6970 H   0  0  0  0  0  0  0  0  0  0  0  0
   37.2270   22.9130   30.8630 H   0  0  0  0  0  0  0  0  0  0  0  0
   38.6980   25.2590   31.0670 H   0  0  0  0  0  0  0  0  0  0  0  0
   38.3920   24.1070   32.3800 H   0  0  0  0  0  0  0  0  0  0  0  0
   36.3240   27.7590   31.6070 N   0  0  2  0  0  0  0  0  0  0  0  0
   35.4030   28.7830   31.9520 C   0  0  0  0  0  2  0  0  0  0  0  0
   36.1080   30.0330   31.4670 C   0  0  0  0  0  2  0  0  0  0  0  0
   36.9430   29.5190   30.3130 C   0  0  0  0  0  2  0  0  0  0  0  0
   36.6970   28.0040   30.2590 C   0  0  0  0  0  3  0  0  0  0  0  0
   37.6720   27.5600   29.9530 H   0  0  0  0  0  0  0  0  0  0  0  0
  1 13  1  0  0  0  0
  1  2  1  0  0  0  0
  2 14  1  0  0  0  0
  3  2  2  0  0  0  0
  3 15  1  0  0  0  0
  4  3  1  0  0  0  0
  5  6  1  0  0  0  0
  5  4  2  0  0  0  0
  6  1  2  0  0  0  0
  7  5  1  0  0  0  0
  8  7  1  0  0  0  0
  8 16  1  1  0  0  0
  9 18  1  0  0  0  0
  9 10  1  0  0  0  0
  9  8  1  0  0  0  0
 10 20  1  0  0  0  0
 11 22  1  0  0  0  0
 11 10  1  0  0  0  0
 11 12  1  0  0  0  0
 12 24  1  0  0  0  0
 12  7  1  0  0  0  0
 17  9  1  0  0  0  0
 19 10  1  0  0  0  0
 21 11  1  0  0  0  0
 23 12  1  0  0  0  0
 25 26  1  6  0  0  0
 25  8  1  0  0  0  0
 27 26  1  0  0  0  0
 28 27  1  0  0  0  0
 29 28  1  0  0  0  0
 29 25  1  0  0  0  0
 30 29  1  0  0  0  0
M  END
>  <minimizedAffinity>
-4.84144592

$$$$

 OpenBabel03272500443D

 30 32  0  0  1  0  0  0  0  0999 V2000
   37.3240   22.6960   32.7920 C   0  0  0  0  0  0  0  0  0  0  0  0
   36.3020   22.1030   32.0080 C   0  0  0  0  0  0  0  0  0  0  0  0
   35.4690   22.9260   31.2490 C   0  0  0  0  0  0  0  0  0  0  0  0
   35.7000   24.2610   31.3170 N   0  0  0  0  0  0  0  0  0  0  0  0
   36.6680   24.8080   32.0620 C   0  0  0  0  0  0  0  0  0  0  0  0
   37.4700   24.0260   32.7920 N   0  0  0  0  0  0  0  0  0  0  0  0
   36.8410   26.2460   32.0730 N   0  0  0  0  0  0  0  0  0  0  0  0
   37.0440   26.9080   33.3640 C   0  0  2  0  0  0  0  0  0  0  0  0
   36.5320   28.3090   33.3950 C   0  0  0  0  0  0  0  0  0  0  0  0
   35.4620   28.4260   32.3280 C   0  0  0  0  0  0  0  0  0  0  0  0
   36.1820   28.3480   30.9920 C   0  0  0  0  0  0  0  0  0  0  0  0
   36.8140   26.9870   30.8510 C   0  0  0  0  0  0  0  0  0  0  0  0
   38.0110   22.1300   33.4080 H   0  0  0  0  0  0  0  0  0  0  0  0
   36.2100   21.0270   32.0300 H   0  0  0  0  0  0  0  0  0  0  0  0
   34.6870   22.4820   30.6470 H   0  0  0  0  0  0  0  0  0  0  0  0
   36.3900   26.3240   34.0780 H   0  0  0  0  0  0  0  0  0  0  0  0
   37.3250   29.0670   33.2100 H   0  0  0  0  0  0  0  0  0  0  0  0
   36.0440   28.5470   34.3630 H   0  0  0  0  0  0  0  0  0  0  0  0
   34.8440   29.3320   32.4150 H   0  0  0  0  0  0  0  0  0  0  0  0
   34.8170   27.5210   32.4150 H   0  0  0  0  0  0  0  0  0  0  0  0
   36.8900   29.1900   30.8970 H   0  0  0  0  0  0  0  0  0  0  0  0
   35.4090   28.5230   30.2140 H   0  0  0  0  0  0  0  0  0  0  0  0
   37.8020   27.1240   30.3640 H   0  0  0  0  0  0  0  0  0  0  0  0
   36.1950   26.4120   30.1200 H   0  0  0  0  0  0  0  0  0  0  0  0
   38.3730   26.6920   33.7800 N   0  0  2  0  0  0  0  0  0  0  0  0
   38.7080   27.1010   35.0970 C   0  0  0  0  0  2  0  0  0  0  0  0
   40.1650   26.6990   35.2030 C   0  0  0  0  0  2  0  0  0  0  0  0
   40.6410   26.7890   33.7680 C   0  0  0  0  0  2  0  0  0  0  0  0
   39.4080   27.1820   32.9410 C   0  0  0  0  0  3  0  0  0  0  0  0
   39.5220   26.6440   31.9720 H   0  0  0  0  0  0  0  0  0  0  0  0
  1  6  1  0  0  0  0
  1 13  1  0  0  0  0
  2 14  1  0  0  0  0
  2  1  2  0  0  0  0
  3  4  2  0  0  0  0
  3  2  1  0  0  0  0
  4  5  1  0  0  0  0
  5  7  1  0  0  0  0
  5  6  2  0  0  0  0
  7  8  1  0  0  0  0
  8  9  1  0  0  0  0
  8 25  1  0  0  0  0
  8 16  1  1  0  0  0
  9 18  1  0  0  0  0
 10 19  1  0  0  0  0
 10 20  1  0  0  0  0
 10  9  1  0  0  0  0
 11 10  1  0  0  0  0
 12 11  1  0  0  0  0
 12  7  1  0  0  0  0
 15  3  1  0  0  0  0
 17  9  1  0  0  0  0
 21 11  1  0  0  0  0
 22 11  1  0  0  0  0
 23 12  1  0  0  0  0
 24 12  1  0  0  0  0
 25 26  1  1  0  0  0
 26 27  1  0  0  0  0
 28 27  1  0  0  0  0
 29 28  1  0  0  0  0
 29 25  1  0  0  0  0
 30 29  1  0  0  0  0
M  END
>  <minimizedAffinity>
-4.52480364

$$$$

 OpenBabel03272500443D

 30 32  0  0  1  0  0  0  0  0999 V2000
   36.9240   21.4180   32.8340 C   0  0  0  0  0  0  0  0  0  0  0  0
   36.0560   21.7030   31.7490 C   0  0  0  0  0  0  0  0  0  0  0  0
   35.8980   23.0280   31.3390 C   0  0  0  0  0  0  0  0  0  0  0  0
   36.5990   23.9670   32.0220 N   0  0  0  0  0  0  0  0  0  0  0  0
   37.4140   23.6860   33.0450 C   0  0  0  0  0  0  0  0  0  0  0  0
   37.5700   22.4180   33.4440 N   0  0  0  0  0  0  0  0  0  0  0  0
   38.1230   24.7550   33.7170 N   0  0  0  0  0  0  0  0  0  0  0  0
   38.1490   24.7550   35.1810 C   0  0  2  0  0  0  0  0  0  0  0  0
   38.2440   26.1240   35.7690 C   0  0  0  0  0  0  0  0  0  0  0  0
   37.7020   27.0990   34.7430 C   0  0  0  0  0  0  0  0  0  0  0  0
   38.7170   27.1340   33.6120 C   0  0  0  0  0  0  0  0  0  0  0  0
   38.7750   25.7770   32.9590 C   0  0  0  0  0  0  0  0  0  0  0  0
   37.1010   20.4210   33.2130 H   0  0  0  0  0  0  0  0  0  0  0  0
   35.5490   20.8740   31.2790 H   0  0  0  0  0  0  0  0  0  0  0  0
   35.2390   23.2540   30.5120 H   0  0  0  0  0  0  0  0  0  0  0  0
   37.1290   24.3640   35.4740 H   0  0  0  0  0  0  0  0  0  0  0  0
   39.2850   26.4090   36.0400 H   0  0  0  0  0  0  0  0  0  0  0  0
   37.6100   26.2270   36.6740 H   0  0  0  0  0  0  0  0  0  0  0  0
   37.4960   28.1000   35.1470 H   0  0  0  0  0  0  0  0  0  0  0  0
   36.7640   26.6540   34.3380 H   0  0  0  0  0  0  0  0  0  0  0  0
   39.6880   27.4990   33.9890 H   0  0  0  0  0  0  0  0  0  0  0  0
   38.3630   27.9140   32.9040 H   0  0  0  0  0  0  0  0  0  0  0  0
   39.8360   25.5690   32.7100 H   0  0  0  0  0  0  0  0  0  0  0  0
   38.2470   25.8620   31.9780 H   0  0  0  0  0  0  0  0  0  0  0  0
   39.0810   23.7940   35.6170 N   0  0  2  0  0  0  0  0  0  0  0  0
   38.8940   23.2620   36.9200 C   0  0  0  0  0  2  0  0  0  0  0  0
   40.0310   22.2680   37.0340 C   0  0  0  0  0  2  0  0  0  0  0  0
   41.0890   22.8660   36.1300 C   0  0  0  0  0  2  0  0  0  0  0  0
   40.4580   24.1280   35.5240 C   0  0  0  0  0  3  0  0  0  0  0  0
   40.8580   24.1860   34.4860 H   0  0  0  0  0  0  0  0  0  0  0  0
  1 13  1  0  0  0  0
  1  6  1  0  0  0  0
  2  1  2  0  0  0  0
  3  2  1  0  0  0  0
  3  4  2  0  0  0  0
  4  5  1  0  0  0  0
  5  6  2  0  0  0  0
  5  7  1  0  0  0  0
  7  8  1  0  0  0  0
  8 16  1  1  0  0  0
  8 25  1  0  0  0  0
  8  9  1  0  0  0  0
  9 17  1  0  0  0  0
  9 18  1  0  0  0  0
 10 19  1  0  0  0  0
 10  9  1  0  0  0  0
 11 21  1  0  0  0  0
 11 10  1  0  0  0  0
 12 11  1  0  0  0  0
 12  7  1  0  0  0  0
 14  2  1  0  0  0  0
 15  3  1  0  0  0  0
 20 10  1  0  0  0  0
 22 11  1  0  0  0  0
 23 12  1  0  0  0  0
 24 12  1  0  0  0  0
 25 26  1  1  0  0  0
 26 27  1  0  0  0  0
 28 27  1  0  0  0  0
 29 25  1  0  0  0  0
 29 28  1  0  0  0  0
 30 29  1  0  0  0  0
M  END
>  <minimizedAffinity>
-4.46166611

$$$$

 OpenBabel03272500443D

 30 32  0  0  1  0  0  0  0  0999 V2000
   35.7930   20.6530   34.5720 C   0  0  0  0  0  0  0  0  0  0  0  0
   35.3690   20.2340   33.2850 C   0  0  0  0  0  0  0  0  0  0  0  0
   36.0160   20.7490   32.1600 C   0  0  0  0  0  0  0  0  0  0  0  0
   37.0220   21.6300   32.3830 N   0  0  0  0  0  0  0  0  0  0  0  0
   37.4120   22.0180   33.6020 C   0  0  0  0  0  0  0  0  0  0  0  0
   36.7970   21.5300   34.6850 N   0  0  0  0  0  0  0  0  0  0  0  0
   38.4980   22.9650   33.7440 N   0  0  0  0  0  0  0  0  0  0  0  0
   38.3330   24.0700   34.6910 C   0  0  2  0  0  0  0  0  0  0  0  0
   39.0860   25.2990   34.3010 C   0  0  0  0  0  0  0  0  0  0  0  0
   39.3020   25.2430   32.8020 C   0  0  0  0  0  0  0  0  0  0  0  0
   40.3050   24.1280   32.5570 C   0  0  0  0  0  0  0  0  0  0  0  0
   39.6930   22.8140   32.9750 C   0  0  0  0  0  0  0  0  0  0  0  0
   35.3450   20.3030   35.4930 H   0  0  0  0  0  0  0  0  0  0  0  0
   34.5560   19.5260   33.2290 H   0  0  0  0  0  0  0  0  0  0  0  0
   35.6990   20.4340   31.1750 H   0  0  0  0  0  0  0  0  0  0  0  0
   37.2380   24.3410   34.6100 H   0  0  0  0  0  0  0  0  0  0  0  0
   40.0680   25.3880   34.8150 H   0  0  0  0  0  0  0  0  0  0  0  0
   38.5020   26.2200   34.5060 H   0  0  0  0  0  0  0  0  0  0  0  0
   39.6280   26.1980   32.3640 H   0  0  0  0  0  0  0  0  0  0  0  0
   38.3340   24.9300   32.3470 H   0  0  0  0  0  0  0  0  0  0  0  0
   41.2590   24.3640   33.0580 H   0  0  0  0  0  0  0  0  0  0  0  0
   40.5290   24.1480   31.4690 H   0  0  0  0  0  0  0  0  0  0  0  0
   40.4890   22.2130   33.4590 H   0  0  0  0  0  0  0  0  0  0  0  0
   39.4280   22.2650   32.0390 H   0  0  0  0  0  0  0  0  0  0  0  0
   38.5220   23.5790   35.9980 N   0  0  2  0  0  0  0  0  0  0  0  0
   37.8730   24.2790   37.0480 C   0  0  0  0  0  2  0  0  0  0  0  0
   38.2680   23.4740   38.2690 C   0  0  0  0  0  2  0  0  0  0  0  0
   39.6100   22.8990   37.8710 C   0  0  0  0  0  2  0  0  0  0  0  0
   39.8580   23.3720   36.4310 C   0  0  0  0  0  3  0  0  0  0  0  0
   40.3890   22.5280   35.9330 H   0  0  0  0  0  0  0  0  0  0  0  0
  1  6  1  0  0  0  0
  1 13  1  0  0  0  0
  2  1  2  0  0  0  0
  3  4  2  0  0  0  0
  3  2  1  0  0  0  0
  4  5  1  0  0  0  0
  5  7  1  0  0  0  0
  5  6  2  0  0  0  0
  7  8  1  0  0  0  0
  8 16  1  6  0  0  0
  8 25  1  0  0  0  0
  9 18  1  0  0  0  0
  9  8  1  0  0  0  0
  9 17  1  0  0  0  0
 10  9  1  0  0  0  0
 11 10  1  0  0  0  0
 11 12  1  0  0  0  0
 11 21  1  0  0  0  0
 12 23  1  0  0  0  0
 12  7  1  0  0  0  0
 14  2  1  0  0  0  0
 15  3  1  0  0  0  0
 19 10  1  0  0  0  0
 20 10  1  0  0  0  0
 22 11  1  0  0  0  0
 24 12  1  0  0  0  0
 25 29  1  0  0  0  0
 25 26  1  1  0  0  0
 26 27  1  0  0  0  0
 28 27  1  0  0  0  0
 29 28  1  0  0  0  0
 30 29  1  0  0  0  0
M  END
>  <minimizedAffinity>
-4.45517588

$$$$

 OpenBabel03272500443D

 30 32  0  0  1  0  0  0  0  0999 V2000
   43.6170   25.3210   34.9720 C   0  0  0  0  0  0  0  0  0  0  0  0
   44.1030   26.3700   34.1500 C   0  0  0  0  0  0  0  0  0  0  0  0
   43.1920   27.2690   33.5930 C   0  0  0  0  0  0  0  0  0  0  0  0
   41.8820   27.0700   33.8820 N   0  0  0  0  0  0  0  0  0  0  0  0
   41.4360   26.0770   34.6590 C   0  0  0  0  0  0  0  0  0  0  0  0
   42.3030   25.2110   35.1970 N   0  0  0  0  0  0  0  0  0  0  0  0
   40.0170   25.9420   34.9130 N   0  0  0  0  0  0  0  0  0  0  0  0
   39.4200   24.6080   34.8200 C   0  0  2  0  0  0  0  0  0  0  0  0
   37.9870   24.6310   34.4050 C   0  0  0  0  0  0  0  0  0  0  0  0
   37.7510   25.9260   33.6540 C   0  0  0  0  0  0  0  0  0  0  0  0
   37.8320   27.0380   34.6860 C   0  0  0  0  0  0  0  0  0  0  0  0
   39.2310   27.0890   35.2470 C   0  0  0  0  0  0  0  0  0  0  0  0
   44.2550   24.5840   35.4420 H   0  0  0  0  0  0  0  0  0  0  0  0
   45.1690   26.4300   33.9890 H   0  0  0  0  0  0  0  0  0  0  0  0
   43.5540   28.0720   32.9650 H   0  0  0  0  0  0  0  0  0  0  0  0
   39.9800   24.1160   33.9690 H   0  0  0  0  0  0  0  0  0  0  0  0
   37.2840   24.5670   35.2650 H   0  0  0  0  0  0  0  0  0  0  0  0
   37.7500   23.8050   33.7020 H   0  0  0  0  0  0  0  0  0  0  0  0
   36.8050   25.9480   33.0920 H   0  0  0  0  0  0  0  0  0  0  0  0
   38.6080   26.0540   32.9530 H   0  0  0  0  0  0  0  0  0  0  0  0
   37.0430   26.9040   35.4460 H   0  0  0  0  0  0  0  0  0  0  0  0
   37.5720   27.9760   34.1500 H   0  0  0  0  0  0  0  0  0  0  0  0
   39.1500   27.3020   36.3320 H   0  0  0  0  0  0  0  0  0  0  0  0
   39.7300   27.9840   34.8010 H   0  0  0  0  0  0  0  0  0  0  0  0
   39.7500   23.8820   35.9810 N   0  0  2  0  0  0  0  0  0  0  0  0
   40.1860   22.5430   35.8000 C   0  0  0  0  0  2  0  0  0  0  0  0
   40.4710   22.0980   37.2200 C   0  0  0  0  0  2  0  0  0  0  0  0
   39.5100   22.9400   38.0330 C   0  0  0  0  0  2  0  0  0  0  0  0
   38.7870   23.8430   37.0230 C   0  0  0  0  0  3  0  0  0  0  0  0
   38.6310   24.8100   37.5550 H   0  0  0  0  0  0  0  0  0  0  0  0
  1  6  1  0  0  0  0
  1 13  1  0  0  0  0
  2  1  2  0  0  0  0
  3  4  2  0  0  0  0
  3  2  1  0  0  0  0
  4  5  1  0  0  0  0
  5  7  1  0  0  0  0
  5  6  2  0  0  0  0
  7 12  1  0  0  0  0
  8 16  1  6  0  0  0
  8  7  1  0  0  0  0
  8 25  1  0  0  0  0
  9  8  1  0  0  0  0
  9 17  1  0  0  0  0
 10  9  1  0  0  0  0
 10 11  1  0  0  0  0
 11 12  1  0  0  0  0
 11 21  1  0  0  0  0
 12 23  1  0  0  0  0
 14  2  1  0  0  0  0
 15  3  1  0  0  0  0
 18  9  1  0  0  0  0
 19 10  1  0  0  0  0
 20 10  1  0  0  0  0
 22 11  1  0  0  0  0
 24 12  1  0  0  0  0
 25 26  1  6  0  0  0
 25 29  1  0  0  0  0
 26 27  1  0  0  0  0
 27 28  1  0  0  0  0
 29 30  1  0  0  0  0
 29 28  1  0  0  0  0
M  END
>  <minimizedAffinity>
-4.44069338

$$$$

 OpenBabel03272500443D

 30 32  0  0  1  0  0  0  0  0999 V2000
   38.3150   25.3610   36.1100 C   0  0  0  0  0  0  0  0  0  0  0  0
   38.3980   24.2250   36.9560 C   0  0  0  0  0  0  0  0  0  0  0  0
   38.2250   22.9560   36.4020 C   0  0  0  0  0  0  0  0  0  0  0  0
   37.9850   22.8970   35.0680 N   0  0  0  0  0  0  0  0  0  0  0  0
   37.9090   23.9760   34.2810 C   0  0  0  0  0  0  0  0  0  0  0  0
   38.0730   25.1960   34.8040 N   0  0  0  0  0  0  0  0  0  0  0  0
   37.6490   23.8170   32.8650 N   0  0  0  0  0  0  0  0  0  0  0  0
   36.6610   24.7000   32.2400 C   0  0  2  0  0  0  0  0  0  0  0  0
   35.9640   24.0750   31.0780 C   0  0  0  0  0  0  0  0  0  0  0  0
   36.0460   22.5710   31.2530 C   0  0  0  0  0  0  0  0  0  0  0  0
   37.5010   22.1960   31.0290 C   0  0  0  0  0  0  0  0  0  0  0  0
   38.3450   22.8230   32.1100 C   0  0  0  0  0  0  0  0  0  0  0  0
   38.4370   26.3770   36.4580 H   0  0  0  0  0  0  0  0  0  0  0  0
   38.5940   24.3920   38.0040 H   0  0  0  0  0  0  0  0  0  0  0  0
   38.2870   22.0840   37.0400 H   0  0  0  0  0  0  0  0  0  0  0  0
   35.8700   24.8360   33.0380 H   0  0  0  0  0  0  0  0  0  0  0  0
   36.4090   24.3600   30.0990 H   0  0  0  0  0  0  0  0  0  0  0  0
   34.8850   24.3350   31.0580 H   0  0  0  0  0  0  0  0  0  0  0  0
   35.3660   22.0100   30.5960 H   0  0  0  0  0  0  0  0  0  0  0  0
   35.8040   22.3560   32.3190 H   0  0  0  0  0  0  0  0  0  0  0  0
   37.8050   22.4640   30.0030 H   0  0  0  0  0  0  0  0  0  0  0  0
   37.5430   21.0860   31.0690 H   0  0  0  0  0  0  0  0  0  0  0  0
   39.2890   23.1670   31.6410 H   0  0  0  0  0  0  0  0  0  0  0  0
   38.6370   22.0060   32.8130 H   0  0  0  0  0  0  0  0  0  0  0  0
   37.2450   25.9660   32.0440 N   0  0  2  0  0  0  0  0  0  0  0  0
   36.3850   27.0920   32.1350 C   0  0  0  0  0  2  0  0  0  0  0  0
   37.3360   28.2480   31.9040 C   0  0  0  0  0  2  0  0  0  0  0  0
   38.4050   27.6320   31.0270 C   0  0  0  0  0  2  0  0  0  0  0  0
   38.0150   26.1550   30.8660 C   0  0  0  0  0  3  0  0  0  0  0  0
   38.9810   25.5990   30.8420 H   0  0  0  0  0  0  0  0  0  0  0  0
  1 13  1  0  0  0  0
  1  2  1  0  0  0  0
  2 14  1  0  0  0  0
  3  2  2  0  0  0  0
  3 15  1  0  0  0  0
  4  3  1  0  0  0  0
  5  6  1  0  0  0  0
  5  4  2  0  0  0  0
  6  1  2  0  0  0  0
  7  5  1  0  0  0  0
  8  7  1  0  0  0  0
  8 16  1  1  0  0  0
  9 10  1  0  0  0  0
  9  8  1  0  0  0  0
 10 20  1  0  0  0  0
 11 22  1  0  0  0  0
 11 10  1  0  0  0  0
 11 12  1  0  0  0  0
 12 24  1  0  0  0  0
 12  7  1  0  0  0  0
 17  9  1  0  0  0  0
 18  9  1  0  0  0  0
 19 10  1  0  0  0  0
 21 11  1  0  0  0  0
 23 12  1  0  0  0  0
 25 26  1  6  0  0  0
 25  8  1  0  0  0  0
 27 26  1  0  0  0  0
 28 27  1  0  0  0  0
 29 28  1  0  0  0  0
 29 25  1  0  0  0  0
 30 29  1  0  0  0  0
M  END
>  <minimizedAffinity>
-4.42110443

$$$$

 OpenBabel03272500443D

 30 32  0  0  1  0  0  0  0  0999 V2000
   36.8440   26.0310   32.3390 C   0  0  0  0  0  0  0  0  0  0  0  0
   35.8940   26.5090   31.4010 C   0  0  0  0  0  0  0  0  0  0  0  0
   35.0860   25.5900   30.7300 C   0  0  0  0  0  0  0  0  0  0  0  0
   35.2720   24.2800   31.0280 N   0  0  0  0  0  0  0  0  0  0  0  0
   36.1730   23.8420   31.9150 C   0  0  0  0  0  0  0  0  0  0  0  0
   36.9510   24.7170   32.5620 N   0  0  0  0  0  0  0  0  0  0  0  0
   36.3010   22.4220   32.1690 N   0  0  0  0  0  0  0  0  0  0  0  0
   37.6480   21.8500   32.2320 C   0  0  2  0  0  0  0  0  0  0  0  0
   37.7020   20.4210   31.8030 C   0  0  0  0  0  0  0  0  0  0  0  0
   36.5120   20.1720   30.8980 C   0  0  0  0  0  0  0  0  0  0  0  0
   35.2820   20.2220   31.7890 C   0  0  0  0  0  0  0  0  0  0  0  0
   35.1370   21.6130   32.3540 C   0  0  0  0  0  0  0  0  0  0  0  0
   37.5070   26.6760   32.9010 H   0  0  0  0  0  0  0  0  0  0  0  0
   35.8340   27.5760   31.2440 H   0  0  0  0  0  0  0  0  0  0  0  0
   34.3580   25.9460   30.0130 H   0  0  0  0  0  0  0  0  0  0  0  0
   38.2290   22.4280   31.4530 H   0  0  0  0  0  0  0  0  0  0  0  0
   37.6740   19.7090   32.6580 H   0  0  0  0  0  0  0  0  0  0  0  0
   38.6100   20.2070   31.2020 H   0  0  0  0  0  0  0  0  0  0  0  0
   36.5750   19.2330   30.3290 H   0  0  0  0  0  0  0  0  0  0  0  0
   36.4530   21.0360   30.1960 H   0  0  0  0  0  0  0  0  0  0  0  0
   35.3370   19.4260   32.5520 H   0  0  0  0  0  0  0  0  0  0  0  0
   34.4200   19.9520   31.1410 H   0  0  0  0  0  0  0  0  0  0  0  0
   34.7960   21.5150   33.4040 H   0  0  0  0  0  0  0  0  0  0  0  0
   34.2940   22.1020   31.8080 H   0  0  0  0  0  0  0  0  0  0  0  0
   38.2220   22.1770   33.4760 N   0  0  2  0  0  0  0  0  0  0  0  0
   39.5950   21.8640   33.6520 C   0  0  0  0  0  2  0  0  0  0  0  0
   39.8680   22.3690   35.0540 C   0  0  0  0  0  2  0  0  0  0  0  0
   38.5180   22.2340   35.7260 C   0  0  0  0  0  2  0  0  0  0  0  0
   37.5610   21.7140   34.6430 C   0  0  0  0  0  3  0  0  0  0  0  0
   36.5830   22.2040   34.8560 H   0  0  0  0  0  0  0  0  0  0  0  0
  1  6  1  0  0  0  0
  1 13  1  0  0  0  0
  2  1  2  0  0  0  0
  3  4  2  0  0  0  0
  3  2  1  0  0  0  0
  4  5  1  0  0  0  0
  5  7  1  0  0  0  0
  5  6  2  0  0  0  0
  7  8  1  0  0  0  0
  7 12  1  0  0  0  0
  8 16  1  6  0  0  0
  8 25  1  0  0  0  0
  9  8  1  0  0  0  0
  9 17  1  0  0  0  0
 10 11  1  0  0  0  0
 10  9  1  0  0  0  0
 11 12  1  0  0  0  0
 11 21  1  0  0  0  0
 12 23  1  0  0  0  0
 14  2  1  0  0  0  0
 15  3  1  0  0  0  0
 18  9  1  0  0  0  0
 19 10  1  0  0  0  0
 20 10  1  0  0  0  0
 22 11  1  0  0  0  0
 24 12  1  0  0  0  0
 25 26  1  6  0  0  0
 25 29  1  0  0  0  0
 26 27  1  0  0  0  0
 27 28  1  0  0  0  0
 29 30  1  0  0  0  0
 29 28  1  0  0  0  0
M  END
>  <minimizedAffinity>
-4.40780592

$$$$

 OpenBabel03272500443D

 30 32  0  0  1  0  0  0  0  0999 V2000
   39.2930   20.8310   32.5890 C   0  0  0  0  0  0  0  0  0  0  0  0
   38.0530   20.9580   31.9130 C   0  0  0  0  0  0  0  0  0  0  0  0
   37.1060   21.8600   32.4010 C   0  0  0  0  0  0  0  0  0  0  0  0
   37.4460   22.5630   33.5100 N   0  0  0  0  0  0  0  0  0  0  0  0
   38.6190   22.4330   34.1390 C   0  0  0  0  0  0  0  0  0  0  0  0
   39.5320   21.5710   33.6780 N   0  0  0  0  0  0  0  0  0  0  0  0
   38.8950   23.2270   35.3190 N   0  0  0  0  0  0  0  0  0  0  0  0
   39.4950   22.5590   36.4770 C   0  0  2  0  0  0  0  0  0  0  0  0
   39.1160   23.1840   37.7790 C   0  0  0  0  0  0  0  0  0  0  0  0
   37.8050   23.9150   37.5680 C   0  0  0  0  0  0  0  0  0  0  0  0
   38.1210   25.1110   36.6870 C   0  0  0  0  0  0  0  0  0  0  0  0
   38.5870   24.6220   35.3390 C   0  0  0  0  0  0  0  0  0  0  0  0
   40.0790   20.1560   32.2760 H   0  0  0  0  0  0  0  0  0  0  0  0
   37.8920   20.3460   31.0370 H   0  0  0  0  0  0  0  0  0  0  0  0
   36.1580   21.9640   31.8900 H   0  0  0  0  0  0  0  0  0  0  0  0
   39.0220   21.5320   36.4780 H   0  0  0  0  0  0  0  0  0  0  0  0
   39.8820   23.8960   38.1580 H   0  0  0  0  0  0  0  0  0  0  0  0
   38.9340   22.4200   38.5630 H   0  0  0  0  0  0  0  0  0  0  0  0
   37.3040   24.2070   38.5030 H   0  0  0  0  0  0  0  0  0  0  0  0
   37.1440   23.2320   36.9840 H   0  0  0  0  0  0  0  0  0  0  0  0
   38.8350   25.7780   37.2000 H   0  0  0  0  0  0  0  0  0  0  0  0
   37.1780   25.6930   36.6080 H   0  0  0  0  0  0  0  0  0  0  0  0
   39.4090   25.2880   35.0060 H   0  0  0  0  0  0  0  0  0  0  0  0
   37.7490   24.7950   34.6200 H   0  0  0  0  0  0  0  0  0  0  0  0
   40.8670   22.3620   36.2250 N   0  0  2  0  0  0  0  0  0  0  0  0
   41.5320   21.3920   37.0200 C   0  0  0  0  0  2  0  0  0  0  0  0
   42.9420   21.4300   36.4680 C   0  0  0  0  0  2  0  0  0  0  0  0
   43.0680   22.8540   35.9690 C   0  0  0  0  0  2  0  0  0  0  0  0
   41.7030   23.5090   36.2240 C   0  0  0  0  0  3  0  0  0  0  0  0
   41.5470   24.2030   35.3660 H   0  0  0  0  0  0  0  0  0  0  0  0
  1  6  1  0  0  0  0
  2  3  1  0  0  0  0
  2  1  2  0  0  0  0
  3  4  2  0  0  0  0
  4  5  1  0  0  0  0
  5  7  1  0  0  0  0
  6  5  2  0  0  0  0
  7 12  1  0  0  0  0
  7  8  1  0  0  0  0
  8 16  1  1  0  0  0
  8  9  1  0  0  0  0
  9 17  1  0  0  0  0
  9 18  1  0  0  0  0
 10  9  1  0  0  0  0
 10 19  1  0  0  0  0
 11 21  1  0  0  0  0
 11 10  1  0  0  0  0
 12 11  1  0  0  0  0
 13  1  1  0  0  0  0
 14  2  1  0  0  0  0
 15  3  1  0  0  0  0
 20 10  1  0  0  0  0
 22 11  1  0  0  0  0
 23 12  1  0  0  0  0
 24 12  1  0  0  0  0
 25  8  1  0  0  0  0
 25 26  1  1  0  0  0
 27 26  1  0  0  0  0
 28 29  1  0  0  0  0
 28 27  1  0  0  0  0
 29 25  1  0  0  0  0
 30 29  1  0  0  0  0
M  END
>  <minimizedAffinity>
-4.33748102

$$$$

 OpenBabel03272500443D

 30 32  0  0  1  0  0  0  0  0999 V2000
   36.1750   23.1400   31.3460 C   0  0  0  0  0  0  0  0  0  0  0  0
   36.3160   21.7380   31.1880 C   0  0  0  0  0  0  0  0  0  0  0  0
   37.1050   21.0310   32.0970 C   0  0  0  0  0  0  0  0  0  0  0  0
   37.6940   21.7500   33.0850 N   0  0  0  0  0  0  0  0  0  0  0  0
   37.5530   23.0740   33.2230 C   0  0  0  0  0  0  0  0  0  0  0  0
   36.7990   23.7580   32.3560 N   0  0  0  0  0  0  0  0  0  0  0  0
   38.2200   23.7590   34.3100 N   0  0  0  0  0  0  0  0  0  0  0  0
   38.9180   25.0120   34.0130 C   0  0  2  0  0  0  0  0  0  0  0  0
   40.0840   25.2640   34.9110 C   0  0  0  0  0  0  0  0  0  0  0  0
   40.5450   23.9230   35.4460 C   0  0  0  0  0  0  0  0  0  0  0  0
   39.4640   23.4520   36.4040 C   0  0  0  0  0  0  0  0  0  0  0  0
   38.1890   23.2170   35.6330 C   0  0  0  0  0  0  0  0  0  0  0  0
   35.5830   23.7600   30.6860 H   0  0  0  0  0  0  0  0  0  0  0  0
   35.8000   21.2700   30.3630 H   0  0  0  0  0  0  0  0  0  0  0  0
   37.2170   19.9610   31.9840 H   0  0  0  0  0  0  0  0  0  0  0  0
   39.3530   24.8470   32.9820 H   0  0  0  0  0  0  0  0  0  0  0  0
   39.8400   25.9400   35.7610 H   0  0  0  0  0  0  0  0  0  0  0  0
   40.9420   25.6990   34.3570 H   0  0  0  0  0  0  0  0  0  0  0  0
   41.5370   23.9510   35.9200 H   0  0  0  0  0  0  0  0  0  0  0  0
   40.5590   23.2180   34.5830 H   0  0  0  0  0  0  0  0  0  0  0  0
   39.3630   24.1670   37.2390 H   0  0  0  0  0  0  0  0  0  0  0  0
   39.8440   22.5140   36.8620 H   0  0  0  0  0  0  0  0  0  0  0  0
   37.3460   23.5670   36.2630 H   0  0  0  0  0  0  0  0  0  0  0  0
   38.0600   22.1110   35.5430 H   0  0  0  0  0  0  0  0  0  0  0  0
   37.9660   26.0410   33.8810 N   0  0  2  0  0  0  0  0  0  0  0  0
   38.1860   26.9910   32.8490 C   0  0  0  0  0  2  0  0  0  0  0  0
   36.9830   27.9020   32.9820 C   0  0  0  0  0  2  0  0  0  0  0  0
   36.6460   27.7970   34.4550 C   0  0  0  0  0  2  0  0  0  0  0  0
   37.6470   26.7910   35.0430 C   0  0  0  0  0  3  0  0  0  0  0  0
   37.0770   26.2330   35.8210 H   0  0  0  0  0  0  0  0  0  0  0  0
  1  6  1  0  0  0  0
  2  1  2  0  0  0  0
  2  3  1  0  0  0  0
  3  4  2  0  0  0  0
  4  5  1  0  0  0  0
  5  7  1  0  0  0  0
  6  5  2  0  0  0  0
  7 12  1  0  0  0  0
  8 16  1  6  0  0  0
  8  7  1  0  0  0  0
  8  9  1  0  0  0  0
  9 10  1  0  0  0  0
  9 17  1  0  0  0  0
 10 19  1  0  0  0  0
 10 11  1  0  0  0  0
 11 22  1  0  0  0  0
 11 21  1  0  0  0  0
 12 23  1  0  0  0  0
 12 11  1  0  0  0  0
 13  1  1  0  0  0  0
 14  2  1  0  0  0  0
 15  3  1  0  0  0  0
 18  9  1  0  0  0  0
 20 10  1  0  0  0  0
 24 12  1  0  0  0  0
 25 26  1  6  0  0  0
 25  8  1  0  0  0  0
 25 29  1  0  0  0  0
 26 27  1  0  0  0  0
 27 28  1  0  0  0  0
 28 29  1  0  0  0  0
 29 30  1  0  0  0  0
M  END
>  <minimizedAffinity>
-4.31024599

$$$$
