
 OpenBabel03272508003D

 18 19  0  0  0  0  0  0  0  0999 V2000
   37.3050   31.1870   48.8160 C   0  0  0  0  0  0  0  0  0  0  0  0
   37.8980   32.3820   49.2720 C   0  0  0  0  0  0  0  0  0  0  0  0
   38.8790   32.9730   48.4650 C   0  0  0  0  0  0  0  0  0  0  0  0
   39.1950   32.3640   47.3010 N   0  0  0  0  0  0  0  0  0  0  0  0
   38.6130   31.2210   46.8840 C   0  0  0  0  0  0  0  0  0  0  0  0
   37.6670   30.6460   47.6600 N   0  0  0  0  0  0  0  0  0  0  0  0
   37.6310   32.8500   50.2050 H   0  0  0  0  0  0  0  0  0  0  0  0
   38.9530   30.8320   45.9310 H   0  0  0  0  0  0  0  0  0  0  0  0
   36.3150   30.6210   49.6670 N   0  0  0  0  0  0  0  0  0  0  0  0
   36.5800   29.9140   50.9040 C   0  0  0  0  0  0  0  0  0  0  0  0
   35.3320   29.1210   51.2200 C   0  0  0  0  0  0  0  0  0  0  0  0
   34.5810   29.1760   49.9200 C   0  0  0  0  0  0  0  0  0  0  0  0
   34.8730   30.6220   49.4970 C   0  0  0  0  0  0  0  0  0  0  0  0
   34.3690   31.3470   50.1590 H   0  0  0  0  0  0  0  0  0  0  0  0
   39.5260   34.2310   48.9120 C   0  0  0  0  0  0  0  0  0  0  0  0
   39.9700   33.9970   50.1900 F   0  0  0  0  0  0  0  0  0  0  0  0
   40.5840   34.6150   48.1400 F   0  0  0  0  0  0  0  0  0  0  0  0
   38.6080   35.2870   48.9840 F   0  0  0  0  0  0  0  0  0  0  0  0
  1  2  1  0  0  0  0
  1  9  1  0  0  0  0
  2  7  1  0  0  0  0
  3 15  1  0  0  0  0
  3  2  2  0  0  0  0
  4  3  1  0  0  0  0
  5  4  2  0  0  0  0
  5  6  1  0  0  0  0
  6  1  2  0  0  0  0
  8  5  1  0  0  0  0
  9 10  1  0  0  0  0
 10 11  1  0  0  0  0
 12 11  1  0  0  0  0
 13  9  1  0  0  0  0
 13 12  1  0  0  0  0
 13 14  1  0  0  0  0
 15 18  1  0  0  0  0
 15 16  1  0  0  0  0
 17 15  1  0  0  0  0
M  END
>  <minimizedAffinity>
-5.23550034

>  <minimizedRMSD>
3.79855227

$$$$
