
 OpenBabel03272510193D

 33 36  0  0  0  0  0  0  0  0999 V2000
   37.4040   29.2100   50.8860 Br  0  0  0  0  0  0  0  0  0  0  0  0
   36.0030   29.2710   49.5910 C   0  0  0  0  0  0  0  0  0  0  0  0
   36.0000   30.2520   48.5990 C   0  0  0  0  0  0  0  0  0  0  0  0
   34.9540   30.2300   47.7000 C   0  0  0  0  0  0  0  0  0  0  0  0
   33.9300   29.2980   47.7360 C   0  0  0  0  0  0  0  0  0  0  0  0
   33.9670   28.3550   48.7180 C   0  0  0  0  0  0  0  0  0  0  0  0
   35.0010   28.3530   49.6310 C   0  0  0  0  0  0  0  0  0  0  0  0
   34.8960   30.9730   46.8990 H   0  0  0  0  0  0  0  0  0  0  0  0
   33.2160   27.5830   48.8330 H   0  0  0  0  0  0  0  0  0  0  0  0
   35.0260   27.6000   50.4120 H   0  0  0  0  0  0  0  0  0  0  0  0
   32.8390   29.2940   46.7770 C   0  0  0  0  0  0  0  0  0  0  0  0
   31.9900   28.2180   46.5690 C   0  0  0  0  0  0  0  0  0  0  0  0
   30.9560   28.2410   45.6470 C   0  0  0  0  0  0  0  0  0  0  0  0
   30.7620   29.3440   44.9240 N   0  0  0  0  0  0  0  0  0  0  0  0
   31.5810   30.4070   45.1110 C   0  0  0  0  0  0  0  0  0  0  0  0
   32.5630   30.3490   46.0050 N   0  0  0  0  0  0  0  0  0  0  0  0
   32.1460   27.3120   47.1610 H   0  0  0  0  0  0  0  0  0  0  0  0
   30.3300   27.3640   45.5360 H   0  0  0  0  0  0  0  0  0  0  0  0
   31.3670   31.5810   44.3360 N   0  0  0  0  0  0  0  0  0  0  0  0
   31.6760   32.9490   44.7790 C   0  0  0  0  0  2  0  0  0  0  0  0
   30.8700   33.8450   43.8540 C   0  0  0  0  0  2  0  0  0  0  0  0
   31.0290   33.0570   42.5470 C   0  0  0  0  0  2  0  0  0  0  0  0
   30.8210   31.6530   42.9950 C   0  0  0  0  0  3  0  0  0  0  0  0
   31.3020   30.9680   42.2820 H   0  0  0  0  0  0  0  0  0  0  0  0
   37.9990   33.1750   49.4490 C   0  0  0  0  0  0  0  0  0  0  0  0
   39.0260   33.1650   48.4480 C   0  0  0  0  0  0  0  0  0  0  0  0
   39.0060   32.1480   47.5000 C   0  0  0  0  0  0  0  0  0  0  0  0
   38.0120   31.2080   47.5650 N   0  0  0  0  0  0  0  0  0  0  0  0
   37.0540   31.2460   48.5270 C   0  0  0  0  0  0  0  0  0  0  0  0
   37.0500   32.2310   49.4670 N   0  0  0  0  0  0  0  0  0  0  0  0
   37.9430   33.9280   50.2180 H   0  0  0  0  0  0  0  0  0  0  0  0
   39.7640   33.9570   48.4890 H   0  0  0  0  0  0  0  0  0  0  0  0
   39.7620   32.1300   46.7530 H   0  0  0  0  0  0  0  0  0  0  0  0
  2  7  1  0  0  0  0
  2  1  1  0  0  0  0
  3  2  2  0  0  0  0
  4  5  2  0  0  0  0
  4  3  1  0  0  0  0
  5  6  1  0  0  0  0
  6  9  1  0  0  0  0
  6  7  2  0  0  0  0
  7 10  1  0  0  0  0
  8  4  1  0  0  0  0
 11  5  1  0  0  0  0
 12 11  1  0  0  0  0
 12 17  1  0  0  0  0
 13 12  2  0  0  0  0
 14 15  2  0  0  0  0
 14 13  1  0  0  0  0
 15 16  1  0  0  0  0
 16 11  2  0  0  0  0
 18 13  1  0  0  0  0
 19 20  1  0  0  0  0
 19 15  1  0  0  0  0
 21 20  1  0  0  0  0
 22 23  1  0  0  0  0
 22 21  1  0  0  0  0
 23 19  1  0  0  0  0
 24 23  1  0  0  0  0
 25 30  1  0  0  0  0
 25 31  1  0  0  0  0
 26 32  1  0  0  0  0
 26 25  2  0  0  0  0
 27 28  2  0  0  0  0
 27 26  1  0  0  0  0
 28 29  1  0  0  0  0
 29  3  1  0  0  0  0
 29 30  2  0  0  0  0
 33 27  1  0  0  0  0
M  END
>  <minimizedAffinity>
-6.59020472

>  <minimizedRMSD>
0.323545188

$$$$
