
 OpenBabel03272510183D

 33 36  0  0  0  0  0  0  0  0999 V2000
   37.3140   29.2970   51.0180 Br  0  0  0  0  0  0  0  0  0  0  0  0
   35.9420   29.2970   49.6900 C   0  0  0  0  0  0  0  0  0  0  0  0
   35.9660   30.2260   48.6490 C   0  0  0  0  0  0  0  0  0  0  0  0
   34.9410   30.1610   47.7290 C   0  0  0  0  0  0  0  0  0  0  0  0
   33.9110   29.2360   47.7890 C   0  0  0  0  0  0  0  0  0  0  0  0
   33.9220   28.3440   48.8190 C   0  0  0  0  0  0  0  0  0  0  0  0
   34.9350   28.3860   49.7540 C   0  0  0  0  0  0  0  0  0  0  0  0
   34.9040   30.8620   46.8900 H   0  0  0  0  0  0  0  0  0  0  0  0
   33.1650   27.5820   48.9570 H   0  0  0  0  0  0  0  0  0  0  0  0
   34.9390   27.6730   50.5730 H   0  0  0  0  0  0  0  0  0  0  0  0
   32.8420   29.1860   46.8070 C   0  0  0  0  0  0  0  0  0  0  0  0
   32.1090   28.0470   46.5120 C   0  0  0  0  0  0  0  0  0  0  0  0
   31.0940   28.0280   45.5700 C   0  0  0  0  0  0  0  0  0  0  0  0
   30.8010   29.1510   44.9140 N   0  0  0  0  0  0  0  0  0  0  0  0
   31.5050   30.2760   45.1880 C   0  0  0  0  0  0  0  0  0  0  0  0
   32.4740   30.2570   46.0990 N   0  0  0  0  0  0  0  0  0  0  0  0
   32.3460   27.1250   47.0480 H   0  0  0  0  0  0  0  0  0  0  0  0
   30.5610   27.1020   45.3890 H   0  0  0  0  0  0  0  0  0  0  0  0
   31.1870   31.4710   44.4840 N   0  0  0  0  0  0  0  0  0  0  0  0
   31.8640   32.7630   44.6740 C   0  0  0  0  0  2  0  0  0  0  0  0
   30.9080   33.7880   44.0890 C   0  0  0  0  0  2  0  0  0  0  0  0
   30.3960   32.9900   42.8840 C   0  0  0  0  0  2  0  0  0  0  0  0
   30.1640   31.6410   43.4720 C   0  0  0  0  0  3  0  0  0  0  0  0
   30.1990   30.8850   42.6740 H   0  0  0  0  0  0  0  0  0  0  0  0
   37.9800   33.1610   49.4170 C   0  0  0  0  0  0  0  0  0  0  0  0
   39.0100   33.1150   48.4180 C   0  0  0  0  0  0  0  0  0  0  0  0
   38.9850   32.0700   47.5010 C   0  0  0  0  0  0  0  0  0  0  0  0
   37.9860   31.1380   47.5920 N   0  0  0  0  0  0  0  0  0  0  0  0
   37.0260   31.2110   48.5500 C   0  0  0  0  0  0  0  0  0  0  0  0
   37.0260   32.2240   49.4600 N   0  0  0  0  0  0  0  0  0  0  0  0
   37.9270   33.9360   50.1630 H   0  0  0  0  0  0  0  0  0  0  0  0
   39.7520   33.9030   48.4380 H   0  0  0  0  0  0  0  0  0  0  0  0
   39.7420   32.0260   46.7570 H   0  0  0  0  0  0  0  0  0  0  0  0
  2  7  1  0  0  0  0
  2  1  1  0  0  0  0
  3  2  2  0  0  0  0
  4  5  2  0  0  0  0
  4  3  1  0  0  0  0
  5  6  1  0  0  0  0
  6  9  1  0  0  0  0
  6  7  2  0  0  0  0
  7 10  1  0  0  0  0
  8  4  1  0  0  0  0
 11  5  1  0  0  0  0
 12 11  1  0  0  0  0
 12 17  1  0  0  0  0
 13 12  2  0  0  0  0
 14 15  2  0  0  0  0
 14 13  1  0  0  0  0
 15 16  1  0  0  0  0
 16 11  2  0  0  0  0
 18 13  1  0  0  0  0
 19 20  1  0  0  0  0
 19 15  1  0  0  0  0
 21 20  1  0  0  0  0
 22 23  1  0  0  0  0
 22 21  1  0  0  0  0
 23 19  1  0  0  0  0
 24 23  1  0  0  0  0
 25 30  1  0  0  0  0
 25 31  1  0  0  0  0
 26 32  1  0  0  0  0
 26 25  2  0  0  0  0
 27 28  2  0  0  0  0
 27 26  1  0  0  0  0
 28 29  1  0  0  0  0
 29  3  1  0  0  0  0
 29 30  2  0  0  0  0
 33 27  1  0  0  0  0
M  END
>  <minimizedAffinity>
-6.56549025

>  <minimizedRMSD>
0.152557656

$$$$
