
 OpenBabel03272506323D

 37 39  0  0  1  0  0  0  0  0999 V2000
   36.0510   30.6460   48.4690 C   0  0  1  0  0  0  0  0  0  0  0  0
   35.9650   31.6350   49.5260 C   0  0  0  0  0  0  0  0  0  0  0  0
   36.5100   31.2240   50.8830 C   0  0  0  0  0  0  0  0  0  0  0  0
   37.7390   30.3940   50.8530 C   0  0  0  0  0  0  0  0  0  0  0  0
   37.8810   29.4210   49.7470 C   0  0  0  0  0  0  0  0  0  0  0  0
   37.3800   29.9400   48.4490 C   0  0  2  0  0  0  0  0  0  0  0  0
   36.0530   31.1940   47.4710 H   0  0  0  0  0  0  0  0  0  0  0  0
   35.0220   32.1490   49.6840 H   0  0  0  0  0  0  0  0  0  0  0  0
   36.6660   32.4760   49.2170 H   0  0  0  0  0  0  0  0  0  0  0  0
   36.7690   32.1590   51.4510 H   0  0  0  0  0  0  0  0  0  0  0  0
   35.7060   30.7480   51.4870 H   0  0  0  0  0  0  0  0  0  0  0  0
   38.6570   31.0230   50.9210 H   0  0  0  0  0  0  0  0  0  0  0  0
   37.7520   29.8030   51.8090 H   0  0  0  0  0  0  0  0  0  0  0  0
   38.9560   29.1910   49.6190 H   0  0  0  0  0  0  0  0  0  0  0  0
   37.4020   28.4350   49.9440 H   0  0  0  0  0  0  0  0  0  0  0  0
   37.4680   29.1650   47.6950 H   0  0  0  0  0  0  0  0  0  0  0  0
   34.2590   29.0890   49.4220 C   0  0  0  0  0  0  0  0  0  0  0  0
   34.9090   29.7300   48.3270 C   0  0  0  0  0  0  0  0  0  0  0  0
   34.3940   29.4440   47.0690 C   0  0  0  0  0  0  0  0  0  0  0  0
   33.3300   28.5930   46.9490 N   0  0  0  0  0  0  0  0  0  0  0  0
   32.7560   28.0180   48.0180 C   0  0  0  0  0  0  0  0  0  0  0  0
   33.2320   28.2730   49.2560 N   0  0  0  0  0  0  0  0  0  0  0  0
   34.6610   29.3120   50.4240 H   0  0  0  0  0  0  0  0  0  0  0  0
   34.7700   29.8430   46.1700 H   0  0  0  0  0  0  0  0  0  0  0  0
   31.9010   27.3370   47.9030 H   0  0  0  0  0  0  0  0  0  0  0  0
   38.3860   31.0380   48.0140 C   0  0  0  0  0  0  0  0  0  0  0  0
   38.1340   32.0130   48.4270 H   0  0  0  0  0  0  0  0  0  0  0  0
   39.3930   30.7890   48.4510 H   0  0  0  0  0  0  0  0  0  0  0  0
   38.4940   31.0650   46.4950 C   0  0  0  0  0  0  0  0  0  0  0  0
   37.6080   30.5180   46.1010 H   0  0  0  0  0  0  0  0  0  0  0  0
   39.4480   30.5570   46.1980 H   0  0  0  0  0  0  0  0  0  0  0  0
   38.5490   32.4280   46.0400 N   0  0  0  0  0  0  0  0  0  0  0  0
   38.3560   32.4860   44.6090 C   0  0  0  0  0  0  0  0  0  0  0  0
   39.6700   32.8750   43.9690 C   0  0  0  0  0  0  0  0  0  0  0  0
   40.6770   32.6110   45.0520 C   0  0  0  0  0  0  0  0  0  0  0  0
   39.8640   32.9610   46.3020 C   0  0  0  0  0  0  0  0  0  0  0  0
   39.7620   34.0690   46.2940 H   0  0  0  0  0  0  0  0  0  0  0  0
  1  7  1  6  0  0  0
  1  2  1  0  0  0  0
  2  8  1  0  0  0  0
  2  3  1  0  0  0  0
  3 10  1  0  0  0  0
  3 11  1  0  0  0  0
  4  3  1  0  0  0  0
  4 12  1  0  0  0  0
  4 13  1  0  0  0  0
  5 15  1  0  0  0  0
  5  4  1  0  0  0  0
  6 16  1  6  0  0  0
  6  1  1  0  0  0  0
  6  5  1  0  0  0  0
  9  2  1  0  0  0  0
 14  5  1  0  0  0  0
 17 23  1  0  0  0  0
 18  1  1  0  0  0  0
 18 17  2  0  0  0  0
 19 18  1  0  0  0  0
 20 19  2  0  0  0  0
 20 21  1  0  0  0  0
 21 22  2  0  0  0  0
 22 17  1  0  0  0  0
 24 19  1  0  0  0  0
 25 21  1  0  0  0  0
 26 27  1  0  0  0  0
 26  6  1  0  0  0  0
 26 28  1  0  0  0  0
 29 26  1  0  0  0  0
 30 29  1  0  0  0  0
 31 29  1  0  0  0  0
 32 36  1  0  0  0  0
 32 29  1  0  0  0  0
 33 32  1  0  0  0  0
 34 33  1  0  0  0  0
 34 35  1  0  0  0  0
 35 36  1  0  0  0  0
 37 36  1  0  0  0  0
M  END
>  <minimizedAffinity>
-5.14572477

>  <minimizedRMSD>
3.37665915

$$$$
