
 OpenBabel03272510223D

 33 36  0  0  0  0  0  0  0  0999 V2000
   34.6080   32.0430   32.2570 Br  0  0  0  0  0  0  0  0  0  0  0  0
   35.4870   30.3770   32.5720 C   0  0  0  0  0  0  0  0  0  0  0  0
   35.4960   29.8150   33.8490 C   0  0  0  0  0  0  0  0  0  0  0  0
   36.1510   28.6090   33.9970 C   0  0  0  0  0  0  0  0  0  0  0  0
   36.7850   27.9470   32.9570 C   0  0  0  0  0  0  0  0  0  0  0  0
   36.7540   28.5270   31.7250 C   0  0  0  0  0  0  0  0  0  0  0  0
   36.1070   29.7320   31.5490 C   0  0  0  0  0  0  0  0  0  0  0  0
   36.1940   28.1170   34.9720 H   0  0  0  0  0  0  0  0  0  0  0  0
   37.2180   28.0920   30.8490 H   0  0  0  0  0  0  0  0  0  0  0  0
   36.0840   30.1910   30.5650 H   0  0  0  0  0  0  0  0  0  0  0  0
   37.4680   26.6780   33.1370 C   0  0  0  0  0  0  0  0  0  0  0  0
   37.9900   25.9220   32.0990 C   0  0  0  0  0  0  0  0  0  0  0  0
   38.6370   24.7140   32.2980 C   0  0  0  0  0  0  0  0  0  0  0  0
   38.7690   24.2500   33.5420 N   0  0  0  0  0  0  0  0  0  0  0  0
   38.2660   24.9730   34.5710 C   0  0  0  0  0  0  0  0  0  0  0  0
   37.6510   26.1300   34.3410 N   0  0  0  0  0  0  0  0  0  0  0  0
   37.8840   26.2990   31.0780 H   0  0  0  0  0  0  0  0  0  0  0  0
   39.0210   24.1740   31.4410 H   0  0  0  0  0  0  0  0  0  0  0  0
   38.4100   24.4730   35.8950 N   0  0  0  0  0  0  0  0  0  0  0  0
   39.5220   23.6300   36.3570 C   0  0  0  0  0  2  0  0  0  0  0  0
   39.0110   22.9850   37.6350 C   0  0  0  0  0  2  0  0  0  0  0  0
   38.2240   24.1690   38.2110 C   0  0  0  0  0  2  0  0  0  0  0  0
   37.5130   24.6910   37.0120 C   0  0  0  0  0  3  0  0  0  0  0  0
   37.2520   25.7480   37.1730 H   0  0  0  0  0  0  0  0  0  0  0  0
   35.0560   31.9460   36.7680 C   0  0  0  0  0  0  0  0  0  0  0  0
   33.6700   31.7630   37.0940 C   0  0  0  0  0  0  0  0  0  0  0  0
   32.9180   30.9080   36.2970 C   0  0  0  0  0  0  0  0  0  0  0  0
   33.5300   30.2810   35.2440 N   0  0  0  0  0  0  0  0  0  0  0  0
   34.8450   30.4760   34.9630 C   0  0  0  0  0  0  0  0  0  0  0  0
   35.6050   31.3080   35.7270 N   0  0  0  0  0  0  0  0  0  0  0  0
   35.7070   32.5910   37.3350 H   0  0  0  0  0  0  0  0  0  0  0  0
   33.2880   32.3080   37.9480 H   0  0  0  0  0  0  0  0  0  0  0  0
   31.8910   30.7650   36.5280 H   0  0  0  0  0  0  0  0  0  0  0  0
  1  2  1  0  0  0  0
  2  3  1  0  0  0  0
  3  4  2  0  0  0  0
  3 29  1  0  0  0  0
  4  8  1  0  0  0  0
  5 11  1  0  0  0  0
  5  4  1  0  0  0  0
  6  5  2  0  0  0  0
  7  6  1  0  0  0  0
  7  2  2  0  0  0  0
  9  6  1  0  0  0  0
 10  7  1  0  0  0  0
 11 16  1  0  0  0  0
 12 13  1  0  0  0  0
 12 11  2  0  0  0  0
 13 14  2  0  0  0  0
 14 15  1  0  0  0  0
 15 19  1  0  0  0  0
 16 15  2  0  0  0  0
 17 12  1  0  0  0  0
 18 13  1  0  0  0  0
 19 20  1  0  0  0  0
 19 23  1  0  0  0  0
 20 21  1  0  0  0  0
 21 22  1  0  0  0  0
 23 24  1  0  0  0  0
 23 22  1  0  0  0  0
 25 26  1  0  0  0  0
 25 31  1  0  0  0  0
 26 32  1  0  0  0  0
 27 33  1  0  0  0  0
 27 26  2  0  0  0  0
 28 27  1  0  0  0  0
 29 28  2  0  0  0  0
 29 30  1  0  0  0  0
 30 25  2  0  0  0  0
M  END
>  <minimizedAffinity>
-6.22459888

$$$$

 OpenBabel03272510223D

 33 36  0  0  0  0  0  0  0  0999 V2000
   34.5660   32.1140   32.3830 Br  0  0  0  0  0  0  0  0  0  0  0  0
   35.4400   30.4530   32.7350 C   0  0  0  0  0  0  0  0  0  0  0  0
   35.4210   29.9020   34.0160 C   0  0  0  0  0  0  0  0  0  0  0  0
   36.0750   28.7000   34.1910 C   0  0  0  0  0  0  0  0  0  0  0  0
   36.7350   28.0300   33.1740 C   0  0  0  0  0  0  0  0  0  0  0  0
   36.7320   28.5990   31.9360 C   0  0  0  0  0  0  0  0  0  0  0  0
   36.0860   29.8000   31.7320 C   0  0  0  0  0  0  0  0  0  0  0  0
   36.0950   28.2180   35.1720 H   0  0  0  0  0  0  0  0  0  0  0  0
   37.2180   28.1560   31.0750 H   0  0  0  0  0  0  0  0  0  0  0  0
   36.0860   30.2490   30.7440 H   0  0  0  0  0  0  0  0  0  0  0  0
   37.4170   26.7640   33.3810 C   0  0  0  0  0  0  0  0  0  0  0  0
   38.5840   26.6210   34.1160 C   0  0  0  0  0  0  0  0  0  0  0  0
   39.2130   25.4010   34.2990 C   0  0  0  0  0  0  0  0  0  0  0  0
   38.6790   24.3100   33.7480 N   0  0  0  0  0  0  0  0  0  0  0  0
   37.5390   24.4290   33.0250 C   0  0  0  0  0  0  0  0  0  0  0  0
   36.9620   25.6170   32.8710 N   0  0  0  0  0  0  0  0  0  0  0  0
   39.0240   27.5120   34.5700 H   0  0  0  0  0  0  0  0  0  0  0  0
   40.1230   25.3600   34.8850 H   0  0  0  0  0  0  0  0  0  0  0  0
   36.9740   23.2610   32.4400 N   0  0  0  0  0  0  0  0  0  0  0  0
   37.0920   21.9040   32.9930 C   0  0  0  0  0  2  0  0  0  0  0  0
   36.7630   20.9830   31.8290 C   0  0  0  0  0  2  0  0  0  0  0  0
   35.6460   21.8050   31.1730 C   0  0  0  0  0  2  0  0  0  0  0  0
   36.1970   23.1860   31.2190 C   0  0  0  0  0  3  0  0  0  0  0  0
   35.3710   23.9120   31.1730 H   0  0  0  0  0  0  0  0  0  0  0  0
   34.8970   32.0860   36.8820 C   0  0  0  0  0  0  0  0  0  0  0  0
   33.5130   31.8780   37.1970 C   0  0  0  0  0  0  0  0  0  0  0  0
   32.7900   30.9870   36.4120 C   0  0  0  0  0  0  0  0  0  0  0  0
   33.4290   30.3520   35.3800 N   0  0  0  0  0  0  0  0  0  0  0  0
   34.7410   30.5720   35.1090 C   0  0  0  0  0  0  0  0  0  0  0  0
   35.4730   31.4400   35.8620 N   0  0  0  0  0  0  0  0  0  0  0  0
   35.5260   32.7590   37.4420 H   0  0  0  0  0  0  0  0  0  0  0  0
   33.1080   32.4320   38.0350 H   0  0  0  0  0  0  0  0  0  0  0  0
   31.7640   30.8240   36.6350 H   0  0  0  0  0  0  0  0  0  0  0  0
  1  2  1  0  0  0  0
  2  3  1  0  0  0  0
  3  4  2  0  0  0  0
  3 29  1  0  0  0  0
  4  8  1  0  0  0  0
  5 11  1  0  0  0  0
  5  4  1  0  0  0  0
  6  5  2  0  0  0  0
  7  6  1  0  0  0  0
  7  2  2  0  0  0  0
  9  6  1  0  0  0  0
 10  7  1  0  0  0  0
 11 12  1  0  0  0  0
 12 13  2  0  0  0  0
 12 17  1  0  0  0  0
 13 18  1  0  0  0  0
 14 13  1  0  0  0  0
 15 14  2  0  0  0  0
 16 15  1  0  0  0  0
 16 11  2  0  0  0  0
 19 20  1  0  0  0  0
 19 15  1  0  0  0  0
 21 20  1  0  0  0  0
 22 23  1  0  0  0  0
 22 21  1  0  0  0  0
 23 19  1  0  0  0  0
 24 23  1  0  0  0  0
 25 26  1  0  0  0  0
 25 31  1  0  0  0  0
 26 32  1  0  0  0  0
 27 33  1  0  0  0  0
 27 26  2  0  0  0  0
 28 27  1  0  0  0  0
 29 28  2  0  0  0  0
 29 30  1  0  0  0  0
 30 25  2  0  0  0  0
M  END
>  <minimizedAffinity>
-6.12513781

$$$$

 OpenBabel03272510223D

 33 36  0  0  0  0  0  0  0  0999 V2000
   40.5570   24.3720   34.6050 Br  0  0  0  0  0  0  0  0  0  0  0  0
   39.1800   25.6570   34.2960 C   0  0  0  0  0  0  0  0  0  0  0  0
   38.0860   25.7410   35.1590 C   0  0  0  0  0  0  0  0  0  0  0  0
   37.1330   26.6950   34.8690 C   0  0  0  0  0  0  0  0  0  0  0  0
   37.2100   27.5550   33.7850 C   0  0  0  0  0  0  0  0  0  0  0  0
   38.2930   27.4430   32.9660 C   0  0  0  0  0  0  0  0  0  0  0  0
   39.2610   26.4980   33.2310 C   0  0  0  0  0  0  0  0  0  0  0  0
   36.2520   26.8110   35.5080 H   0  0  0  0  0  0  0  0  0  0  0  0
   38.4480   28.0660   32.0930 H   0  0  0  0  0  0  0  0  0  0  0  0
   40.1230   26.4130   32.5750 H   0  0  0  0  0  0  0  0  0  0  0  0
   36.1940   28.5530   33.5010 C   0  0  0  0  0  0  0  0  0  0  0  0
   35.5380   28.6700   32.2850 C   0  0  0  0  0  0  0  0  0  0  0  0
   34.5720   29.6320   32.0410 C   0  0  0  0  0  0  0  0  0  0  0  0
   34.2510   30.4860   33.0130 N   0  0  0  0  0  0  0  0  0  0  0  0
   34.8800   30.3880   34.2090 C   0  0  0  0  0  0  0  0  0  0  0  0
   35.8030   29.4520   34.4070 N   0  0  0  0  0  0  0  0  0  0  0  0
   35.7980   27.9710   31.4860 H   0  0  0  0  0  0  0  0  0  0  0  0
   34.0990   29.6670   31.0660 H   0  0  0  0  0  0  0  0  0  0  0  0
   34.5330   31.3030   35.2420 N   0  0  0  0  0  0  0  0  0  0  0  0
   33.2080   31.9180   35.4090 C   0  0  0  0  0  2  0  0  0  0  0  0
   33.4520   33.1220   36.3040 C   0  0  0  0  0  2  0  0  0  0  0  0
   34.5060   32.5210   37.2430 C   0  0  0  0  0  2  0  0  0  0  0  0
   35.3960   31.7930   36.2990 C   0  0  0  0  0  3  0  0  0  0  0  0
   35.9300   30.9980   36.8410 H   0  0  0  0  0  0  0  0  0  0  0  0
   37.4600   22.7170   37.0870 C   0  0  0  0  0  0  0  0  0  0  0  0
   37.7220   23.1340   38.4350 C   0  0  0  0  0  0  0  0  0  0  0  0
   38.1100   24.4530   38.6480 C   0  0  0  0  0  0  0  0  0  0  0  0
   38.2230   25.2880   37.5680 N   0  0  0  0  0  0  0  0  0  0  0  0
   37.9670   24.8600   36.3040 C   0  0  0  0  0  0  0  0  0  0  0  0
   37.5860   23.5740   36.0680 N   0  0  0  0  0  0  0  0  0  0  0  0
   37.1550   21.7140   36.8370 H   0  0  0  0  0  0  0  0  0  0  0  0
   37.6020   22.3920   39.2140 H   0  0  0  0  0  0  0  0  0  0  0  0
   38.3070   24.7730   39.6410 H   0  0  0  0  0  0  0  0  0  0  0  0
  2  1  1  0  0  0  0
  2  3  1  0  0  0  0
  3 29  1  0  0  0  0
  4  3  2  0  0  0  0
  4  8  1  0  0  0  0
  5  4  1  0  0  0  0
  6  7  1  0  0  0  0
  6  5  2  0  0  0  0
  7  2  2  0  0  0  0
  9  6  1  0  0  0  0
 10  7  1  0  0  0  0
 11  5  1  0  0  0  0
 11 16  1  0  0  0  0
 12 11  2  0  0  0  0
 13 12  1  0  0  0  0
 13 14  2  0  0  0  0
 14 15  1  0  0  0  0
 15 16  2  0  0  0  0
 15 19  1  0  0  0  0
 17 12  1  0  0  0  0
 18 13  1  0  0  0  0
 19 20  1  0  0  0  0
 19 23  1  0  0  0  0
 20 21  1  0  0  0  0
 21 22  1  0  0  0  0
 23 24  1  0  0  0  0
 23 22  1  0  0  0  0
 25 26  1  0  0  0  0
 26 27  2  0  0  0  0
 26 32  1  0  0  0  0
 27 33  1  0  0  0  0
 28 27  1  0  0  0  0
 29 28  2  0  0  0  0
 30 29  1  0  0  0  0
 30 25  2  0  0  0  0
 31 25  1  0  0  0  0
M  END
>  <minimizedAffinity>
-5.74031258

$$$$

 OpenBabel03272510223D

 33 36  0  0  0  0  0  0  0  0999 V2000
   41.0880   24.3000   34.1070 Br  0  0  0  0  0  0  0  0  0  0  0  0
   39.7560   25.5460   33.5430 C   0  0  0  0  0  0  0  0  0  0  0  0
   38.5260   25.6110   34.1990 C   0  0  0  0  0  0  0  0  0  0  0  0
   37.6160   26.5370   33.7330 C   0  0  0  0  0  0  0  0  0  0  0  0
   37.8630   27.3880   32.6680 C   0  0  0  0  0  0  0  0  0  0  0  0
   39.0760   27.2970   32.0540 C   0  0  0  0  0  0  0  0  0  0  0  0
   40.0040   26.3800   32.4980 C   0  0  0  0  0  0  0  0  0  0  0  0
   36.6350   26.6360   34.2050 H   0  0  0  0  0  0  0  0  0  0  0  0
   39.3670   27.9150   31.2130 H   0  0  0  0  0  0  0  0  0  0  0  0
   40.9690   26.3100   32.0050 H   0  0  0  0  0  0  0  0  0  0  0  0
   36.8890   28.3570   32.1950 C   0  0  0  0  0  0  0  0  0  0  0  0
   37.0400   29.1110   31.0420 C   0  0  0  0  0  0  0  0  0  0  0  0
   36.0940   30.0280   30.6140 C   0  0  0  0  0  0  0  0  0  0  0  0
   34.9870   30.1990   31.3380 N   0  0  0  0  0  0  0  0  0  0  0  0
   34.8210   29.4720   32.4690 C   0  0  0  0  0  0  0  0  0  0  0  0
   35.7500   28.6000   32.8490 N   0  0  0  0  0  0  0  0  0  0  0  0
   37.9450   28.9730   30.4460 H   0  0  0  0  0  0  0  0  0  0  0  0
   36.2750   30.5850   29.7020 H   0  0  0  0  0  0  0  0  0  0  0  0
   33.6380   29.6590   33.2360 N   0  0  0  0  0  0  0  0  0  0  0  0
   32.3330   30.0540   32.6850 C   0  0  0  0  0  2  0  0  0  0  0  0
   31.5490   30.5710   33.8800 C   0  0  0  0  0  2  0  0  0  0  0  0
   32.0330   29.5740   34.9410 C   0  0  0  0  0  2  0  0  0  0  0  0
   33.4940   29.5030   34.6700 C   0  0  0  0  0  3  0  0  0  0  0  0
   33.8920   28.5520   35.0560 H   0  0  0  0  0  0  0  0  0  0  0  0
   37.9480   24.5360   37.6300 C   0  0  0  0  0  0  0  0  0  0  0  0
   37.6690   23.1360   37.4850 C   0  0  0  0  0  0  0  0  0  0  0  0
   37.6860   22.5940   36.2050 C   0  0  0  0  0  0  0  0  0  0  0  0
   37.9680   23.4150   35.1460 N   0  0  0  0  0  0  0  0  0  0  0  0
   38.2280   24.7370   35.3180 C   0  0  0  0  0  0  0  0  0  0  0  0
   38.2180   25.2940   36.5610 N   0  0  0  0  0  0  0  0  0  0  0  0
   37.9550   25.0330   38.5860 H   0  0  0  0  0  0  0  0  0  0  0  0
   37.4580   22.5780   38.3900 H   0  0  0  0  0  0  0  0  0  0  0  0
   37.4810   21.5580   36.0860 H   0  0  0  0  0  0  0  0  0  0  0  0
  2  1  1  0  0  0  0
  2  3  1  0  0  0  0
  3 29  1  0  0  0  0
  4  3  2  0  0  0  0
  4  8  1  0  0  0  0
  5  4  1  0  0  0  0
  6  7  1  0  0  0  0
  6  5  2  0  0  0  0
  7  2  2  0  0  0  0
  9  6  1  0  0  0  0
 10  7  1  0  0  0  0
 11  5  1  0  0  0  0
 11 16  1  0  0  0  0
 12 11  2  0  0  0  0
 13 12  1  0  0  0  0
 13 14  2  0  0  0  0
 14 15  1  0  0  0  0
 15 16  2  0  0  0  0
 15 19  1  0  0  0  0
 17 12  1  0  0  0  0
 18 13  1  0  0  0  0
 19 23  1  0  0  0  0
 20 19  1  0  0  0  0
 20 21  1  0  0  0  0
 21 22  1  0  0  0  0
 23 22  1  0  0  0  0
 23 24  1  0  0  0  0
 25 31  1  0  0  0  0
 26 25  1  0  0  0  0
 26 32  1  0  0  0  0
 27 26  2  0  0  0  0
 28 29  2  0  0  0  0
 28 27  1  0  0  0  0
 29 30  1  0  0  0  0
 30 25  2  0  0  0  0
 33 27  1  0  0  0  0
M  END
>  <minimizedAffinity>
-5.65303373

$$$$

 OpenBabel03272510223D

 33 36  0  0  0  0  0  0  0  0999 V2000
   37.0420   22.7480   32.1410 Br  0  0  0  0  0  0  0  0  0  0  0  0
   36.7630   24.6370   32.1390 C   0  0  0  0  0  0  0  0  0  0  0  0
   37.4430   25.4520   33.0450 C   0  0  0  0  0  0  0  0  0  0  0  0
   37.1890   26.8060   32.9820 C   0  0  0  0  0  0  0  0  0  0  0  0
   36.3080   27.3810   32.0790 C   0  0  0  0  0  0  0  0  0  0  0  0
   35.6630   26.5530   31.2110 C   0  0  0  0  0  0  0  0  0  0  0  0
   35.8980   25.1950   31.2510 C   0  0  0  0  0  0  0  0  0  0  0  0
   37.6910   27.4970   33.6640 H   0  0  0  0  0  0  0  0  0  0  0  0
   34.9560   26.9020   30.4670 H   0  0  0  0  0  0  0  0  0  0  0  0
   35.3820   24.5390   30.5570 H   0  0  0  0  0  0  0  0  0  0  0  0
   36.0560   28.8110   32.0310 C   0  0  0  0  0  0  0  0  0  0  0  0
   36.0190   29.5540   30.8610 C   0  0  0  0  0  0  0  0  0  0  0  0
   35.7760   30.9180   30.8440 C   0  0  0  0  0  0  0  0  0  0  0  0
   35.5680   31.5510   31.9990 N   0  0  0  0  0  0  0  0  0  0  0  0
   35.6000   30.8430   33.1530 C   0  0  0  0  0  0  0  0  0  0  0  0
   35.8360   29.5340   33.1310 N   0  0  0  0  0  0  0  0  0  0  0  0
   36.1890   29.0390   29.9130 H   0  0  0  0  0  0  0  0  0  0  0  0
   35.7610   31.4380   29.8930 H   0  0  0  0  0  0  0  0  0  0  0  0
   35.3770   31.5250   34.3810 N   0  0  0  0  0  0  0  0  0  0  0  0
   34.5350   32.7200   34.5380 C   0  0  0  0  0  2  0  0  0  0  0  0
   34.9730   33.3310   35.8580 C   0  0  0  0  0  2  0  0  0  0  0  0
   35.2060   32.0440   36.6600 C   0  0  0  0  0  2  0  0  0  0  0  0
   35.9220   31.1830   35.6800 C   0  0  0  0  0  3  0  0  0  0  0  0
   35.7870   30.1260   35.9550 H   0  0  0  0  0  0  0  0  0  0  0  0
   38.7190   24.1300   36.1890 C   0  0  0  0  0  0  0  0  0  0  0  0
   40.0860   23.8230   35.8780 C   0  0  0  0  0  0  0  0  0  0  0  0
   40.5370   24.0790   34.5880 C   0  0  0  0  0  0  0  0  0  0  0  0
   39.6620   24.6100   33.6780 N   0  0  0  0  0  0  0  0  0  0  0  0
   38.3730   24.8900   34.0060 C   0  0  0  0  0  0  0  0  0  0  0  0
   37.9050   24.6490   35.2620 N   0  0  0  0  0  0  0  0  0  0  0  0
   38.2920   23.9630   37.1640 H   0  0  0  0  0  0  0  0  0  0  0  0
   40.6910   23.4060   36.6730 H   0  0  0  0  0  0  0  0  0  0  0  0
   41.5470   23.8560   34.3460 H   0  0  0  0  0  0  0  0  0  0  0  0
  2  1  1  0  0  0  0
  2  3  1  0  0  0  0
  3 29  1  0  0  0  0
  4  3  2  0  0  0  0
  4  8  1  0  0  0  0
  5  4  1  0  0  0  0
  6  7  1  0  0  0  0
  6  5  2  0  0  0  0
  7  2  2  0  0  0  0
  9  6  1  0  0  0  0
 10  7  1  0  0  0  0
 11  5  1  0  0  0  0
 11 16  1  0  0  0  0
 12 11  2  0  0  0  0
 13 12  1  0  0  0  0
 13 14  2  0  0  0  0
 14 15  1  0  0  0  0
 15 19  1  0  0  0  0
 16 15  2  0  0  0  0
 17 12  1  0  0  0  0
 18 13  1  0  0  0  0
 19 20  1  0  0  0  0
 19 23  1  0  0  0  0
 20 21  1  0  0  0  0
 21 22  1  0  0  0  0
 23 24  1  0  0  0  0
 23 22  1  0  0  0  0
 25 31  1  0  0  0  0
 26 25  1  0  0  0  0
 26 32  1  0  0  0  0
 27 26  2  0  0  0  0
 28 29  2  0  0  0  0
 28 27  1  0  0  0  0
 29 30  1  0  0  0  0
 30 25  2  0  0  0  0
 33 27  1  0  0  0  0
M  END
>  <minimizedAffinity>
-5.64313269

$$$$

 OpenBabel03272510223D

 33 36  0  0  0  0  0  0  0  0999 V2000
   35.7480   30.0560   31.4710 Br  0  0  0  0  0  0  0  0  0  0  0  0
   36.5430   28.7100   32.5670 C   0  0  0  0  0  0  0  0  0  0  0  0
   36.2320   28.6300   33.9250 C   0  0  0  0  0  0  0  0  0  0  0  0
   36.8470   27.6310   34.6500 C   0  0  0  0  0  0  0  0  0  0  0  0
   37.7390   26.7220   34.1030 C   0  0  0  0  0  0  0  0  0  0  0  0
   38.0160   26.8300   32.7740 C   0  0  0  0  0  0  0  0  0  0  0  0
   37.4170   27.8200   32.0250 C   0  0  0  0  0  0  0  0  0  0  0  0
   36.6450   27.5160   35.7190 H   0  0  0  0  0  0  0  0  0  0  0  0
   38.6980   26.1700   32.2510 H   0  0  0  0  0  0  0  0  0  0  0  0
   37.6410   27.9030   30.9660 H   0  0  0  0  0  0  0  0  0  0  0  0
   38.3730   25.6760   34.8870 C   0  0  0  0  0  0  0  0  0  0  0  0
   37.7090   24.8900   35.8160 C   0  0  0  0  0  0  0  0  0  0  0  0
   38.3390   23.8980   36.5500 C   0  0  0  0  0  0  0  0  0  0  0  0
   39.6410   23.6840   36.3610 N   0  0  0  0  0  0  0  0  0  0  0  0
   40.3090   24.4420   35.4580 C   0  0  0  0  0  0  0  0  0  0  0  0
   39.6710   25.3850   34.7710 N   0  0  0  0  0  0  0  0  0  0  0  0
   36.6410   25.0620   35.9730 H   0  0  0  0  0  0  0  0  0  0  0  0
   37.7590   23.3210   37.2600 H   0  0  0  0  0  0  0  0  0  0  0  0
   41.6980   24.2080   35.2610 N   0  0  0  0  0  0  0  0  0  0  0  0
   42.3630   22.9080   35.4290 C   0  0  0  0  0  2  0  0  0  0  0  0
   43.8380   23.2440   35.5770 C   0  0  0  0  0  2  0  0  0  0  0  0
   43.9290   24.3980   34.5700 C   0  0  0  0  0  2  0  0  0  0  0  0
   42.7000   25.1810   34.8690 C   0  0  0  0  0  3  0  0  0  0  0  0
   42.4200   25.7750   33.9860 H   0  0  0  0  0  0  0  0  0  0  0  0
   35.0250   31.5340   35.7610 C   0  0  0  0  0  0  0  0  0  0  0  0
   33.6000   31.3720   35.7180 C   0  0  0  0  0  0  0  0  0  0  0  0
   33.0870   30.2620   35.0550 C   0  0  0  0  0  0  0  0  0  0  0  0
   33.9600   29.3800   34.4770 N   0  0  0  0  0  0  0  0  0  0  0  0
   35.3050   29.5630   34.5360 C   0  0  0  0  0  0  0  0  0  0  0  0
   35.8330   30.6410   35.1790 N   0  0  0  0  0  0  0  0  0  0  0  0
   35.5020   32.3650   36.2540 H   0  0  0  0  0  0  0  0  0  0  0  0
   33.0010   32.1300   36.2080 H   0  0  0  0  0  0  0  0  0  0  0  0
   32.0330   30.1320   35.0170 H   0  0  0  0  0  0  0  0  0  0  0  0
  1  2  1  0  0  0  0
  2  3  1  0  0  0  0
  3 29  1  0  0  0  0
  3  4  2  0  0  0  0
  4  8  1  0  0  0  0
  5  4  1  0  0  0  0
  5 11  1  0  0  0  0
  6  5  2  0  0  0  0
  7  2  2  0  0  0  0
  7  6  1  0  0  0  0
  9  6  1  0  0  0  0
 10  7  1  0  0  0  0
 11 12  1  0  0  0  0
 12 17  1  0  0  0  0
 12 13  2  0  0  0  0
 13 18  1  0  0  0  0
 14 13  1  0  0  0  0
 15 14  2  0  0  0  0
 16 11  2  0  0  0  0
 16 15  1  0  0  0  0
 19 20  1  0  0  0  0
 19 15  1  0  0  0  0
 20 21  1  0  0  0  0
 22 23  1  0  0  0  0
 22 21  1  0  0  0  0
 23 19  1  0  0  0  0
 24 23  1  0  0  0  0
 25 31  1  0  0  0  0
 26 25  1  0  0  0  0
 26 32  1  0  0  0  0
 27 26  2  0  0  0  0
 28 29  2  0  0  0  0
 28 27  1  0  0  0  0
 29 30  1  0  0  0  0
 30 25  2  0  0  0  0
 33 27  1  0  0  0  0
M  END
>  <minimizedAffinity>
-5.58774471

$$$$

 OpenBabel03272510223D

 33 36  0  0  0  0  0  0  0  0999 V2000
   39.6580   23.2610   36.4070 Br  0  0  0  0  0  0  0  0  0  0  0  0
   38.7000   24.6780   35.5600 C   0  0  0  0  0  0  0  0  0  0  0  0
   38.1760   24.5090   34.2780 C   0  0  0  0  0  0  0  0  0  0  0  0
   37.4960   25.5780   33.7330 C   0  0  0  0  0  0  0  0  0  0  0  0
   37.3140   26.7860   34.3870 C   0  0  0  0  0  0  0  0  0  0  0  0
   37.8390   26.9140   35.6380 C   0  0  0  0  0  0  0  0  0  0  0  0
   38.5230   25.8610   36.2070 C   0  0  0  0  0  0  0  0  0  0  0  0
   37.0620   25.5080   32.7320 H   0  0  0  0  0  0  0  0  0  0  0  0
   37.7520   27.8150   36.2320 H   0  0  0  0  0  0  0  0  0  0  0  0
   38.9410   25.9670   37.2030 H   0  0  0  0  0  0  0  0  0  0  0  0
   36.5930   27.8990   33.7930 C   0  0  0  0  0  0  0  0  0  0  0  0
   36.2370   27.9690   32.4550 C   0  0  0  0  0  0  0  0  0  0  0  0
   35.5490   29.0430   31.9150 C   0  0  0  0  0  0  0  0  0  0  0  0
   35.2090   30.0580   32.7100 N   0  0  0  0  0  0  0  0  0  0  0  0
   35.5480   30.0090   34.0210 C   0  0  0  0  0  0  0  0  0  0  0  0
   36.2080   28.9610   34.5050 N   0  0  0  0  0  0  0  0  0  0  0  0
   36.5140   27.1390   31.8010 H   0  0  0  0  0  0  0  0  0  0  0  0
   35.3030   29.0330   30.8600 H   0  0  0  0  0  0  0  0  0  0  0  0
   35.1820   31.0950   34.8640 N   0  0  0  0  0  0  0  0  0  0  0  0
   33.9970   31.9450   34.6720 C   0  0  0  0  0  2  0  0  0  0  0  0
   34.2830   33.1950   35.4890 C   0  0  0  0  0  2  0  0  0  0  0  0
   34.9830   32.5480   36.6920 C   0  0  0  0  0  2  0  0  0  0  0  0
   35.8870   31.5610   36.0420 C   0  0  0  0  0  3  0  0  0  0  0  0
   36.1330   30.7630   36.7580 H   0  0  0  0  0  0  0  0  0  0  0  0
   37.4910   21.1360   33.0890 C   0  0  0  0  0  0  0  0  0  0  0  0
   38.6040   20.8670   32.2240 C   0  0  0  0  0  0  0  0  0  0  0  0
   39.5660   21.8590   32.0700 C   0  0  0  0  0  0  0  0  0  0  0  0
   39.4110   23.0380   32.7470 N   0  0  0  0  0  0  0  0  0  0  0  0
   38.3450   23.2600   33.5590 C   0  0  0  0  0  0  0  0  0  0  0  0
   37.3870   22.3070   33.7280 N   0  0  0  0  0  0  0  0  0  0  0  0
   36.7030   20.4210   33.2630 H   0  0  0  0  0  0  0  0  0  0  0  0
   38.6290   19.9000   31.7360 H   0  0  0  0  0  0  0  0  0  0  0  0
   40.3950   21.6710   31.4310 H   0  0  0  0  0  0  0  0  0  0  0  0
  2  7  1  0  0  0  0
  2  1  1  0  0  0  0
  3  2  2  0  0  0  0
  4  3  1  0  0  0  0
  4  5  2  0  0  0  0
  5  6  1  0  0  0  0
  6  7  2  0  0  0  0
  6  9  1  0  0  0  0
  7 10  1  0  0  0  0
  8  4  1  0  0  0  0
 11  5  1  0  0  0  0
 11 16  1  0  0  0  0
 12 11  2  0  0  0  0
 13 12  1  0  0  0  0
 13 14  2  0  0  0  0
 14 15  1  0  0  0  0
 15 16  2  0  0  0  0
 15 19  1  0  0  0  0
 17 12  1  0  0  0  0
 18 13  1  0  0  0  0
 19 23  1  0  0  0  0
 20 19  1  0  0  0  0
 20 21  1  0  0  0  0
 21 22  1  0  0  0  0
 23 22  1  0  0  0  0
 23 24  1  0  0  0  0
 25 31  1  0  0  0  0
 25 30  1  0  0  0  0
 26 25  2  0  0  0  0
 27 26  1  0  0  0  0
 27 28  2  0  0  0  0
 28 29  1  0  0  0  0
 29 30  2  0  0  0  0
 29  3  1  0  0  0  0
 32 26  1  0  0  0  0
 33 27  1  0  0  0  0
M  END
>  <minimizedAffinity>
-5.54568529

$$$$

 OpenBabel03272510223D

 33 36  0  0  0  0  0  0  0  0999 V2000
   35.0060   32.4060   32.2930 Br  0  0  0  0  0  0  0  0  0  0  0  0
   35.7180   30.6450   32.4880 C   0  0  0  0  0  0  0  0  0  0  0  0
   35.6250   29.9760   33.7090 C   0  0  0  0  0  0  0  0  0  0  0  0
   36.1630   28.7070   33.7700 C   0  0  0  0  0  0  0  0  0  0  0  0
   36.7760   28.0800   32.6970 C   0  0  0  0  0  0  0  0  0  0  0  0
   36.8470   28.7640   31.5210 C   0  0  0  0  0  0  0  0  0  0  0  0
   36.3180   30.0340   31.4310 C   0  0  0  0  0  0  0  0  0  0  0  0
   36.1220   28.1320   34.6990 H   0  0  0  0  0  0  0  0  0  0  0  0
   37.3050   28.3640   30.6250 H   0  0  0  0  0  0  0  0  0  0  0  0
   36.3760   30.5750   30.4920 H   0  0  0  0  0  0  0  0  0  0  0  0
   37.3350   26.7420   32.7860 C   0  0  0  0  0  0  0  0  0  0  0  0
   36.6620   25.5920   32.4010 C   0  0  0  0  0  0  0  0  0  0  0  0
   37.2190   24.3280   32.4960 C   0  0  0  0  0  0  0  0  0  0  0  0
   38.4570   24.2020   32.9760 N   0  0  0  0  0  0  0  0  0  0  0  0
   39.1310   25.3130   33.3570 C   0  0  0  0  0  0  0  0  0  0  0  0
   38.5650   26.5120   33.2520 N   0  0  0  0  0  0  0  0  0  0  0  0
   35.6480   25.6920   32.0070 H   0  0  0  0  0  0  0  0  0  0  0  0
   36.6370   23.4710   32.1780 H   0  0  0  0  0  0  0  0  0  0  0  0
   40.4510   25.1710   33.8680 N   0  0  0  0  0  0  0  0  0  0  0  0
   41.3920   24.1090   33.4830 C   0  0  0  0  0  2  0  0  0  0  0  0
   42.4310   24.0930   34.5920 C   0  0  0  0  0  2  0  0  0  0  0  0
   42.5330   25.6010   34.8560 C   0  0  0  0  0  2  0  0  0  0  0  0
   41.1060   26.0230   34.8420 C   0  0  0  0  0  3  0  0  0  0  0  0
   41.0450   27.0970   34.6050 H   0  0  0  0  0  0  0  0  0  0  0  0
   33.0270   30.9080   36.0830 C   0  0  0  0  0  0  0  0  0  0  0  0
   33.7270   31.7460   37.0150 C   0  0  0  0  0  0  0  0  0  0  0  0
   35.0820   31.9700   36.8020 C   0  0  0  0  0  0  0  0  0  0  0  0
   35.6840   31.3860   35.7190 N   0  0  0  0  0  0  0  0  0  0  0  0
   34.9920   30.5980   34.8560 C   0  0  0  0  0  0  0  0  0  0  0  0
   33.6630   30.3610   35.0410 N   0  0  0  0  0  0  0  0  0  0  0  0
   31.9760   30.6850   36.1770 H   0  0  0  0  0  0  0  0  0  0  0  0
   33.1540   32.1580   37.8360 H   0  0  0  0  0  0  0  0  0  0  0  0
   35.6110   32.5890   37.4850 H   0  0  0  0  0  0  0  0  0  0  0  0
  1  2  1  0  0  0  0
  2  3  1  0  0  0  0
  3  4  2  0  0  0  0
  3 29  1  0  0  0  0
  4  8  1  0  0  0  0
  5 11  1  0  0  0  0
  5  4  1  0  0  0  0
  6  5  2  0  0  0  0
  7  6  1  0  0  0  0
  7  2  2  0  0  0  0
  9  6  1  0  0  0  0
 10  7  1  0  0  0  0
 11 16  1  0  0  0  0
 12 13  1  0  0  0  0
 12 11  2  0  0  0  0
 13 14  2  0  0  0  0
 14 15  1  0  0  0  0
 15 19  1  0  0  0  0
 16 15  2  0  0  0  0
 17 12  1  0  0  0  0
 18 13  1  0  0  0  0
 19 23  1  0  0  0  0
 20 19  1  0  0  0  0
 20 21  1  0  0  0  0
 21 22  1  0  0  0  0
 23 22  1  0  0  0  0
 24 23  1  0  0  0  0
 25 31  1  0  0  0  0
 25 26  1  0  0  0  0
 26 32  1  0  0  0  0
 27 26  2  0  0  0  0
 27 33  1  0  0  0  0
 28 27  1  0  0  0  0
 29 30  1  0  0  0  0
 29 28  2  0  0  0  0
 30 25  2  0  0  0  0
M  END
>  <minimizedAffinity>
-5.46933746

$$$$

 OpenBabel03272510223D

 33 36  0  0  0  0  0  0  0  0999 V2000
   38.4340   27.1210   30.9130 Br  0  0  0  0  0  0  0  0  0  0  0  0
   37.2060   27.9880   32.0900 C   0  0  0  0  0  0  0  0  0  0  0  0
   37.2060   27.6930   33.4530 C   0  0  0  0  0  0  0  0  0  0  0  0
   36.2890   28.3610   34.2380 C   0  0  0  0  0  0  0  0  0  0  0  0
   35.3880   29.2910   33.7440 C   0  0  0  0  0  0  0  0  0  0  0  0
   35.4180   29.5520   32.4080 C   0  0  0  0  0  0  0  0  0  0  0  0
   36.3240   28.8990   31.5990 C   0  0  0  0  0  0  0  0  0  0  0  0
   36.2400   28.1740   35.3140 H   0  0  0  0  0  0  0  0  0  0  0  0
   34.7570   30.2610   31.9240 H   0  0  0  0  0  0  0  0  0  0  0  0
   36.3450   29.1110   30.5350 H   0  0  0  0  0  0  0  0  0  0  0  0
   34.4310   29.9820   34.5910 C   0  0  0  0  0  0  0  0  0  0  0  0
   33.2020   29.4600   34.9620 C   0  0  0  0  0  0  0  0  0  0  0  0
   32.3080   30.1420   35.7710 C   0  0  0  0  0  0  0  0  0  0  0  0
   32.6370   31.3540   36.2180 N   0  0  0  0  0  0  0  0  0  0  0  0
   33.8350   31.8830   35.8670 C   0  0  0  0  0  0  0  0  0  0  0  0
   34.6680   31.1990   35.0880 N   0  0  0  0  0  0  0  0  0  0  0  0
   32.9290   28.4670   34.5980 H   0  0  0  0  0  0  0  0  0  0  0  0
   31.3630   29.6750   36.0220 H   0  0  0  0  0  0  0  0  0  0  0  0
   34.1800   33.1760   36.3480 N   0  0  0  0  0  0  0  0  0  0  0  0
   33.7210   33.7490   37.6220 C   0  0  0  0  0  2  0  0  0  0  0  0
   33.9410   35.2450   37.4750 C   0  0  0  0  0  2  0  0  0  0  0  0
   35.2640   35.2240   36.6970 C   0  0  0  0  0  2  0  0  0  0  0  0
   35.0250   34.1540   35.6910 C   0  0  0  0  0  3  0  0  0  0  0  0
   35.9910   33.7490   35.3520 H   0  0  0  0  0  0  0  0  0  0  0  0
   40.2470   26.3380   34.9300 C   0  0  0  0  0  0  0  0  0  0  0  0
   39.9390   24.9440   35.0760 C   0  0  0  0  0  0  0  0  0  0  0  0
   38.6880   24.5030   34.6610 C   0  0  0  0  0  0  0  0  0  0  0  0
   37.8100   25.4130   34.1350 N   0  0  0  0  0  0  0  0  0  0  0  0
   38.1330   26.7260   34.0100 C   0  0  0  0  0  0  0  0  0  0  0  0
   39.3520   27.1850   34.4080 N   0  0  0  0  0  0  0  0  0  0  0  0
   41.1930   26.7600   35.2260 H   0  0  0  0  0  0  0  0  0  0  0  0
   40.7070   24.3110   35.5050 H   0  0  0  0  0  0  0  0  0  0  0  0
   38.4490   23.4730   34.7650 H   0  0  0  0  0  0  0  0  0  0  0  0
  1  2  1  0  0  0  0
  2  3  1  0  0  0  0
  3 29  1  0  0  0  0
  3  4  2  0  0  0  0
  4  8  1  0  0  0  0
  5  4  1  0  0  0  0
  5 11  1  0  0  0  0
  6  5  2  0  0  0  0
  7  2  2  0  0  0  0
  7  6  1  0  0  0  0
  9  6  1  0  0  0  0
 10  7  1  0  0  0  0
 11 12  2  0  0  0  0
 11 16  1  0  0  0  0
 12 13  1  0  0  0  0
 13 18  1  0  0  0  0
 13 14  2  0  0  0  0
 15 14  1  0  0  0  0
 15 19  1  0  0  0  0
 16 15  2  0  0  0  0
 17 12  1  0  0  0  0
 19 20  1  0  0  0  0
 21 20  1  0  0  0  0
 22 21  1  0  0  0  0
 23 19  1  0  0  0  0
 23 22  1  0  0  0  0
 24 23  1  0  0  0  0
 25 26  1  0  0  0  0
 25 31  1  0  0  0  0
 26 32  1  0  0  0  0
 27 33  1  0  0  0  0
 27 26  2  0  0  0  0
 28 27  1  0  0  0  0
 29 28  2  0  0  0  0
 29 30  1  0  0  0  0
 30 25  2  0  0  0  0
M  END
>  <minimizedAffinity>
-5.44801807

$$$$
