
 OpenBabel03272505013D

 25 27  0  0  0  0  0  0  0  0999 V2000
   37.9100   23.2390   33.7930 Cl  0  0  0  0  0  0  0  0  0  0  0  0
   36.9640   24.2060   32.6980 C   0  0  0  0  0  0  0  0  0  0  0  0
   36.1890   23.5660   31.7680 C   0  0  0  0  0  0  0  0  0  0  0  0
   35.4590   24.3980   30.9260 C   0  0  0  0  0  0  0  0  0  0  0  0
   35.5370   25.7830   31.0520 C   0  0  0  0  0  0  0  0  0  0  0  0
   36.3300   26.3690   32.0030 C   0  0  0  0  0  0  0  0  0  0  0  0
   37.0700   25.5470   32.8570 C   0  0  0  0  0  0  0  0  0  0  0  0
   34.8180   23.9910   30.1600 H   0  0  0  0  0  0  0  0  0  0  0  0
   34.9570   26.4040   30.3830 H   0  0  0  0  0  0  0  0  0  0  0  0
   36.3830   27.4370   32.0930 H   0  0  0  0  0  0  0  0  0  0  0  0
   36.9970   21.4010   30.8420 C   0  0  0  0  0  0  0  0  0  0  0  0
   36.0920   22.1220   31.6180 C   0  0  0  0  0  0  0  0  0  0  0  0
   35.0660   21.4050   32.2590 C   0  0  0  0  0  0  0  0  0  0  0  0
   35.0090   20.0580   32.0930 N   0  0  0  0  0  0  0  0  0  0  0  0
   35.9000   19.4010   31.3380 C   0  0  0  0  0  0  0  0  0  0  0  0
   36.9000   20.0660   30.7080 N   0  0  0  0  0  0  0  0  0  0  0  0
   37.7830   21.9460   30.3500 H   0  0  0  0  0  0  0  0  0  0  0  0
   34.3400   21.8960   32.8660 H   0  0  0  0  0  0  0  0  0  0  0  0
   35.8340   18.3180   31.2190 H   0  0  0  0  0  0  0  0  0  0  0  0
   37.8850   26.1850   33.8340 N   0  0  0  0  0  0  0  0  0  0  0  0
   37.5580   26.4380   35.2360 C   0  0  0  0  0  2  0  0  0  0  0  0
   38.6720   27.3700   35.6850 C   0  0  0  0  0  2  0  0  0  0  0  0
   39.8370   26.7600   34.9050 C   0  0  0  0  0  2  0  0  0  0  0  0
   39.2140   26.6920   33.5390 C   0  0  0  0  0  3  0  0  0  0  0  0
   39.7580   26.0630   32.8120 H   0  0  0  0  0  0  0  0  0  0  0  0
  2  7  1  0  0  0  0
  2  1  1  0  0  0  0
  3  2  2  0  0  0  0
  4  5  2  0  0  0  0
  4  3  1  0  0  0  0
  5  6  1  0  0  0  0
  6 10  1  0  0  0  0
  6  7  2  0  0  0  0
  7 20  1  0  0  0  0
  8  4  1  0  0  0  0
  9  5  1  0  0  0  0
 11 12  1  0  0  0  0
 12  3  1  0  0  0  0
 12 13  2  0  0  0  0
 13 18  1  0  0  0  0
 14 13  1  0  0  0  0
 15 14  2  0  0  0  0
 16 11  2  0  0  0  0
 16 15  1  0  0  0  0
 17 11  1  0  0  0  0
 19 15  1  0  0  0  0
 20 21  1  0  0  0  0
 21 22  1  0  0  0  0
 23 22  1  0  0  0  0
 24 20  1  0  0  0  0
 24 23  1  0  0  0  0
 25 24  1  0  0  0  0
M  END
>  <minimizedAffinity>
-5.10874081

$$$$

 OpenBabel03272505013D

 25 27  0  0  0  0  0  0  0  0999 V2000
   40.7130   24.6760   34.2780 Cl  0  0  0  0  0  0  0  0  0  0  0  0
   39.8090   24.1910   35.6840 C   0  0  0  0  0  0  0  0  0  0  0  0
   38.5620   24.7230   35.8700 C   0  0  0  0  0  0  0  0  0  0  0  0
   37.8930   24.2930   37.0120 C   0  0  0  0  0  0  0  0  0  0  0  0
   38.4880   23.3820   37.8810 C   0  0  0  0  0  0  0  0  0  0  0  0
   39.7410   22.8810   37.6430 C   0  0  0  0  0  0  0  0  0  0  0  0
   40.4240   23.3040   36.5010 C   0  0  0  0  0  0  0  0  0  0  0  0
   36.9050   24.6530   37.2480 H   0  0  0  0  0  0  0  0  0  0  0  0
   37.9450   23.0650   38.7610 H   0  0  0  0  0  0  0  0  0  0  0  0
   40.1900   22.1790   38.3200 H   0  0  0  0  0  0  0  0  0  0  0  0
   37.5010   25.3160   33.6970 C   0  0  0  0  0  0  0  0  0  0  0  0
   37.9210   25.6760   34.9760 C   0  0  0  0  0  0  0  0  0  0  0  0
   37.7050   27.0040   35.3840 C   0  0  0  0  0  0  0  0  0  0  0  0
   37.1040   27.8640   34.5210 N   0  0  0  0  0  0  0  0  0  0  0  0
   36.7150   27.4780   33.2970 C   0  0  0  0  0  0  0  0  0  0  0  0
   36.9090   26.2030   32.8770 N   0  0  0  0  0  0  0  0  0  0  0  0
   37.6640   24.3020   33.3810 H   0  0  0  0  0  0  0  0  0  0  0  0
   38.0030   27.3450   36.3500 H   0  0  0  0  0  0  0  0  0  0  0  0
   36.2340   28.1860   32.6210 H   0  0  0  0  0  0  0  0  0  0  0  0
   41.7240   22.7670   36.2820 N   0  0  0  0  0  0  0  0  0  0  0  0
   43.0080   23.3920   36.5940 C   0  0  0  0  0  2  0  0  0  0  0  0
   44.0100   22.4860   35.8960 C   0  0  0  0  0  2  0  0  0  0  0  0
   43.3380   21.1340   36.1450 C   0  0  0  0  0  2  0  0  0  0  0  0
   41.9450   21.4600   35.6860 C   0  0  0  0  0  3  0  0  0  0  0  0
   41.1760   20.7240   35.9790 H   0  0  0  0  0  0  0  0  0  0  0  0
  1  2  1  0  0  0  0
  2  3  2  0  0  0  0
  2  7  1  0  0  0  0
  3  4  1  0  0  0  0
  4  8  1  0  0  0  0
  4  5  2  0  0  0  0
  5  9  1  0  0  0  0
  6  5  1  0  0  0  0
  6 10  1  0  0  0  0
  7  6  2  0  0  0  0
 11 12  1  0  0  0  0
 12 13  2  0  0  0  0
 12  3  1  0  0  0  0
 13 18  1  0  0  0  0
 14 13  1  0  0  0  0
 15 14  2  0  0  0  0
 16 15  1  0  0  0  0
 16 11  2  0  0  0  0
 17 11  1  0  0  0  0
 19 15  1  0  0  0  0
 20  7  1  0  0  0  0
 20 21  1  0  0  0  0
 22 23  1  0  0  0  0
 22 21  1  0  0  0  0
 24 25  1  0  0  0  0
 24 23  1  0  0  0  0
 24 20  1  0  0  0  0
M  END
>  <minimizedAffinity>
-4.62645102

$$$$

 OpenBabel03272505013D

 25 27  0  0  0  0  0  0  0  0999 V2000
   38.4660   26.2410   35.0740 Cl  0  0  0  0  0  0  0  0  0  0  0  0
   38.0350   24.8580   34.1090 C   0  0  0  0  0  0  0  0  0  0  0  0
   37.6000   25.0690   32.8290 C   0  0  0  0  0  0  0  0  0  0  0  0
   37.2730   23.9220   32.1120 C   0  0  0  0  0  0  0  0  0  0  0  0
   37.3960   22.6620   32.6950 C   0  0  0  0  0  0  0  0  0  0  0  0
   37.8400   22.5120   33.9830 C   0  0  0  0  0  0  0  0  0  0  0  0
   38.1710   23.6540   34.7140 C   0  0  0  0  0  0  0  0  0  0  0  0
   36.9200   23.9800   31.0960 H   0  0  0  0  0  0  0  0  0  0  0  0
   37.1360   21.7880   32.1140 H   0  0  0  0  0  0  0  0  0  0  0  0
   37.9310   21.5360   34.4220 H   0  0  0  0  0  0  0  0  0  0  0  0
   36.2780   27.1030   32.2710 C   0  0  0  0  0  0  0  0  0  0  0  0
   37.4630   26.3740   32.2000 C   0  0  0  0  0  0  0  0  0  0  0  0
   38.5370   26.9420   31.4920 C   0  0  0  0  0  0  0  0  0  0  0  0
   38.3700   28.1620   30.9190 N   0  0  0  0  0  0  0  0  0  0  0  0
   37.2130   28.8320   31.0100 C   0  0  0  0  0  0  0  0  0  0  0  0
   36.1600   28.3090   31.6870 N   0  0  0  0  0  0  0  0  0  0  0  0
   35.4540   26.6730   32.8110 H   0  0  0  0  0  0  0  0  0  0  0  0
   39.4710   26.4360   31.3990 H   0  0  0  0  0  0  0  0  0  0  0  0
   37.1020   29.8110   30.5410 H   0  0  0  0  0  0  0  0  0  0  0  0
   38.6280   23.4650   36.0490 N   0  0  0  0  0  0  0  0  0  0  0  0
   37.8160   23.3740   37.2610 C   0  0  0  0  0  2  0  0  0  0  0  0
   38.8500   23.4530   38.3730 C   0  0  0  0  0  2  0  0  0  0  0  0
   39.9760   22.6470   37.7220 C   0  0  0  0  0  2  0  0  0  0  0  0
   40.0340   23.3340   36.3870 C   0  0  0  0  0  3  0  0  0  0  0  0
   40.6100   22.7950   35.6130 H   0  0  0  0  0  0  0  0  0  0  0  0
  2  7  1  0  0  0  0
  2  1  1  0  0  0  0
  3  2  2  0  0  0  0
  4  5  2  0  0  0  0
  4  3  1  0  0  0  0
  5  6  1  0  0  0  0
  6 10  1  0  0  0  0
  6  7  2  0  0  0  0
  7 20  1  0  0  0  0
  8  4  1  0  0  0  0
  9  5  1  0  0  0  0
 11 17  1  0  0  0  0
 12 11  1  0  0  0  0
 12  3  1  0  0  0  0
 13 12  2  0  0  0  0
 14 15  2  0  0  0  0
 14 13  1  0  0  0  0
 15 16  1  0  0  0  0
 16 11  2  0  0  0  0
 18 13  1  0  0  0  0
 19 15  1  0  0  0  0
 20 24  1  0  0  0  0
 20 21  1  0  0  0  0
 21 22  1  0  0  0  0
 23 22  1  0  0  0  0
 24 23  1  0  0  0  0
 25 24  1  0  0  0  0
M  END
>  <minimizedAffinity>
-4.48836327

$$$$

 OpenBabel03272505013D

 25 27  0  0  0  0  0  0  0  0999 V2000
   36.4720   27.9360   34.8240 Cl  0  0  0  0  0  0  0  0  0  0  0  0
   36.1610   28.7870   33.3390 C   0  0  0  0  0  0  0  0  0  0  0  0
   35.5090   29.9890   33.4030 C   0  0  0  0  0  0  0  0  0  0  0  0
   35.2930   30.6170   32.1800 C   0  0  0  0  0  0  0  0  0  0  0  0
   35.7260   30.0290   30.9940 C   0  0  0  0  0  0  0  0  0  0  0  0
   36.3750   28.8220   30.9910 C   0  0  0  0  0  0  0  0  0  0  0  0
   36.5990   28.1800   32.2110 C   0  0  0  0  0  0  0  0  0  0  0  0
   34.7880   31.5670   32.1230 H   0  0  0  0  0  0  0  0  0  0  0  0
   35.5440   30.5400   30.0580 H   0  0  0  0  0  0  0  0  0  0  0  0
   36.7050   28.3780   30.0710 H   0  0  0  0  0  0  0  0  0  0  0  0
   33.7390   30.4760   35.0840 C   0  0  0  0  0  0  0  0  0  0  0  0
   35.0470   30.6220   34.6290 C   0  0  0  0  0  0  0  0  0  0  0  0
   35.9210   31.4100   35.3990 C   0  0  0  0  0  0  0  0  0  0  0  0
   35.4530   31.9840   36.5370 N   0  0  0  0  0  0  0  0  0  0  0  0
   34.1850   31.8190   36.9410 C   0  0  0  0  0  0  0  0  0  0  0  0
   33.3200   31.0640   36.2190 N   0  0  0  0  0  0  0  0  0  0  0  0
   33.0670   29.8740   34.4990 H   0  0  0  0  0  0  0  0  0  0  0  0
   36.9360   31.5630   35.1070 H   0  0  0  0  0  0  0  0  0  0  0  0
   33.8310   32.2910   37.8590 H   0  0  0  0  0  0  0  0  0  0  0  0
   37.2750   26.9280   32.1750 N   0  0  0  0  0  0  0  0  0  0  0  0
   38.7180   26.6950   32.2140 C   0  0  0  0  0  2  0  0  0  0  0  0
   38.8370   25.2180   31.8720 C   0  0  0  0  0  2  0  0  0  0  0  0
   37.6020   24.6930   32.6080 C   0  0  0  0  0  2  0  0  0  0  0  0
   36.5740   25.6580   32.0900 C   0  0  0  0  0  3  0  0  0  0  0  0
   35.6190   25.6610   32.6450 H   0  0  0  0  0  0  0  0  0  0  0  0
  2  3  1  0  0  0  0
  2  1  1  0  0  0  0
  3 12  1  0  0  0  0
  4  3  2  0  0  0  0
  5  4  1  0  0  0  0
  6  5  2  0  0  0  0
  6  7  1  0  0  0  0
  7  2  2  0  0  0  0
  8  4  1  0  0  0  0
  9  5  1  0  0  0  0
 10  6  1  0  0  0  0
 11 16  1  0  0  0  0
 12 11  2  0  0  0  0
 12 13  1  0  0  0  0
 13 14  2  0  0  0  0
 14 15  1  0  0  0  0
 15 19  1  0  0  0  0
 16 15  2  0  0  0  0
 17 11  1  0  0  0  0
 18 13  1  0  0  0  0
 20  7  1  0  0  0  0
 20 21  1  0  0  0  0
 22 21  1  0  0  0  0
 22 23  1  0  0  0  0
 24 20  1  0  0  0  0
 24 23  1  0  0  0  0
 24 25  1  0  0  0  0
M  END
>  <minimizedAffinity>
-4.45970297

$$$$

 OpenBabel03272505013D

 25 27  0  0  0  0  0  0  0  0999 V2000
   38.3210   26.2320   34.7730 Cl  0  0  0  0  0  0  0  0  0  0  0  0
   37.9770   24.7450   33.9380 C   0  0  0  0  0  0  0  0  0  0  0  0
   38.0520   23.5730   34.6400 C   0  0  0  0  0  0  0  0  0  0  0  0
   37.7650   22.4220   33.9130 C   0  0  0  0  0  0  0  0  0  0  0  0
   37.4280   22.5000   32.5640 C   0  0  0  0  0  0  0  0  0  0  0  0
   37.3680   23.7040   31.9120 C   0  0  0  0  0  0  0  0  0  0  0  0
   37.6540   24.8680   32.6280 C   0  0  0  0  0  0  0  0  0  0  0  0
   37.7950   21.4480   34.3750 H   0  0  0  0  0  0  0  0  0  0  0  0
   37.2090   21.5890   32.0240 H   0  0  0  0  0  0  0  0  0  0  0  0
   37.1060   23.7530   30.8720 H   0  0  0  0  0  0  0  0  0  0  0  0
   39.6360   22.9730   36.4640 C   0  0  0  0  0  0  0  0  0  0  0  0
   38.4020   23.4670   36.0490 C   0  0  0  0  0  0  0  0  0  0  0  0
   37.4900   23.8640   37.0430 C   0  0  0  0  0  0  0  0  0  0  0  0
   37.8540   23.7490   38.3460 N   0  0  0  0  0  0  0  0  0  0  0  0
   39.0530   23.2690   38.7050 C   0  0  0  0  0  0  0  0  0  0  0  0
   39.9530   22.8780   37.7680 N   0  0  0  0  0  0  0  0  0  0  0  0
   40.3370   22.6680   35.7070 H   0  0  0  0  0  0  0  0  0  0  0  0
   36.5280   24.2500   36.7930 H   0  0  0  0  0  0  0  0  0  0  0  0
   39.3230   23.1850   39.7590 H   0  0  0  0  0  0  0  0  0  0  0  0
   37.5840   26.1020   31.9230 N   0  0  0  0  0  0  0  0  0  0  0  0
   38.6690   26.7910   31.2270 C   0  0  0  0  0  2  0  0  0  0  0  0
   38.0690   28.1530   30.9180 C   0  0  0  0  0  2  0  0  0  0  0  0
   36.6350   27.7260   30.6010 C   0  0  0  0  0  2  0  0  0  0  0  0
   36.3570   26.8710   31.8040 C   0  0  0  0  0  3  0  0  0  0  0  0
   35.4600   26.2310   31.7210 H   0  0  0  0  0  0  0  0  0  0  0  0
  2  3  1  0  0  0  0
  2  1  1  0  0  0  0
  3 12  1  0  0  0  0
  4  8  1  0  0  0  0
  4  3  2  0  0  0  0
  5  4  1  0  0  0  0
  6  5  2  0  0  0  0
  6  7  1  0  0  0  0
  7  2  2  0  0  0  0
  9  5  1  0  0  0  0
 10  6  1  0  0  0  0
 11 16  1  0  0  0  0
 12 11  2  0  0  0  0
 12 13  1  0  0  0  0
 13 14  2  0  0  0  0
 14 15  1  0  0  0  0
 15 19  1  0  0  0  0
 16 15  2  0  0  0  0
 17 11  1  0  0  0  0
 18 13  1  0  0  0  0
 20  7  1  0  0  0  0
 21 20  1  0  0  0  0
 22 21  1  0  0  0  0
 23 22  1  0  0  0  0
 23 24  1  0  0  0  0
 24 20  1  0  0  0  0
 25 24  1  0  0  0  0
M  END
>  <minimizedAffinity>
-4.45713234

$$$$

 OpenBabel03272505013D

 25 27  0  0  0  0  0  0  0  0999 V2000
   38.1650   27.1460   33.4710 Cl  0  0  0  0  0  0  0  0  0  0  0  0
   37.1820   26.0170   32.5820 C   0  0  0  0  0  0  0  0  0  0  0  0
   36.2230   26.5120   31.7400 C   0  0  0  0  0  0  0  0  0  0  0  0
   35.4740   25.5570   31.0610 C   0  0  0  0  0  0  0  0  0  0  0  0
   35.7150   24.1990   31.2520 C   0  0  0  0  0  0  0  0  0  0  0  0
   36.6910   23.7600   32.1080 C   0  0  0  0  0  0  0  0  0  0  0  0
   37.4510   24.7070   32.7980 C   0  0  0  0  0  0  0  0  0  0  0  0
   34.6940   25.8450   30.3740 H   0  0  0  0  0  0  0  0  0  0  0  0
   35.1180   23.4790   30.7090 H   0  0  0  0  0  0  0  0  0  0  0  0
   36.8690   22.7110   32.2480 H   0  0  0  0  0  0  0  0  0  0  0  0
   35.0700   28.6370   32.3340 C   0  0  0  0  0  0  0  0  0  0  0  0
   35.9530   27.9260   31.5250 C   0  0  0  0  0  0  0  0  0  0  0  0
   36.5850   28.6230   30.4800 C   0  0  0  0  0  0  0  0  0  0  0  0
   36.3070   29.9420   30.3110 N   0  0  0  0  0  0  0  0  0  0  0  0
   35.4490   30.5900   31.1130 C   0  0  0  0  0  0  0  0  0  0  0  0
   34.8260   29.9440   32.1290 N   0  0  0  0  0  0  0  0  0  0  0  0
   34.5850   28.1090   33.1350 H   0  0  0  0  0  0  0  0  0  0  0  0
   37.2720   28.1380   29.8240 H   0  0  0  0  0  0  0  0  0  0  0  0
   35.2410   31.6500   30.9580 H   0  0  0  0  0  0  0  0  0  0  0  0
   38.4560   24.2210   33.6810 N   0  0  0  0  0  0  0  0  0  0  0  0
   39.8570   23.9460   33.3670 C   0  0  0  0  0  2  0  0  0  0  0  0
   40.3460   23.2070   34.6020 C   0  0  0  0  0  2  0  0  0  0  0  0
   39.5740   23.9770   35.6750 C   0  0  0  0  0  2  0  0  0  0  0  0
   38.1960   23.9230   35.0780 C   0  0  0  0  0  3  0  0  0  0  0  0
   37.4660   24.6150   35.5330 H   0  0  0  0  0  0  0  0  0  0  0  0
  2  7  1  0  0  0  0
  2  1  1  0  0  0  0
  3  2  2  0  0  0  0
  4  5  2  0  0  0  0
  4  3  1  0  0  0  0
  5  6  1  0  0  0  0
  6 10  1  0  0  0  0
  6  7  2  0  0  0  0
  7 20  1  0  0  0  0
  8  4  1  0  0  0  0
  9  5  1  0  0  0  0
 11 17  1  0  0  0  0
 12  3  1  0  0  0  0
 12 11  2  0  0  0  0
 13 12  1  0  0  0  0
 14 13  2  0  0  0  0
 14 15  1  0  0  0  0
 15 16  2  0  0  0  0
 16 11  1  0  0  0  0
 18 13  1  0  0  0  0
 19 15  1  0  0  0  0
 20 24  1  0  0  0  0
 21 20  1  0  0  0  0
 21 22  1  0  0  0  0
 22 23  1  0  0  0  0
 24 25  1  0  0  0  0
 24 23  1  0  0  0  0
M  END
>  <minimizedAffinity>
-4.39758682

$$$$

 OpenBabel03272505013D

 25 27  0  0  0  0  0  0  0  0999 V2000
   38.0870   27.2250   33.3180 Cl  0  0  0  0  0  0  0  0  0  0  0  0
   37.0850   26.0830   32.4710 C   0  0  0  0  0  0  0  0  0  0  0  0
   37.3310   24.7480   32.6440 C   0  0  0  0  0  0  0  0  0  0  0  0
   36.4940   23.8890   31.9390 C   0  0  0  0  0  0  0  0  0  0  0  0
   35.4840   24.3950   31.1230 C   0  0  0  0  0  0  0  0  0  0  0  0
   35.2830   25.7430   30.9880 C   0  0  0  0  0  0  0  0  0  0  0  0
   36.1160   26.6170   31.6900 C   0  0  0  0  0  0  0  0  0  0  0  0
   36.6060   22.8200   32.0080 H   0  0  0  0  0  0  0  0  0  0  0  0
   34.8470   23.7040   30.5870 H   0  0  0  0  0  0  0  0  0  0  0  0
   34.5020   26.1220   30.3570 H   0  0  0  0  0  0  0  0  0  0  0  0
   38.1660   23.9230   34.8390 C   0  0  0  0  0  0  0  0  0  0  0  0
   38.3790   24.1970   33.4900 C   0  0  0  0  0  0  0  0  0  0  0  0
   39.6540   23.9240   32.9620 C   0  0  0  0  0  0  0  0  0  0  0  0
   40.6050   23.4110   33.7850 N   0  0  0  0  0  0  0  0  0  0  0  0
   40.3600   23.1610   35.0790 C   0  0  0  0  0  0  0  0  0  0  0  0
   39.1400   23.4140   35.6150 N   0  0  0  0  0  0  0  0  0  0  0  0
   37.1930   24.1300   35.2470 H   0  0  0  0  0  0  0  0  0  0  0  0
   39.8830   24.1110   31.9380 H   0  0  0  0  0  0  0  0  0  0  0  0
   41.1400   22.7480   35.7200 H   0  0  0  0  0  0  0  0  0  0  0  0
   35.8830   28.0120   31.5290 N   0  0  0  0  0  0  0  0  0  0  0  0
   35.0460   28.8750   32.3600 C   0  0  0  0  0  2  0  0  0  0  0  0
   34.9710   30.1610   31.5530 C   0  0  0  0  0  2  0  0  0  0  0  0
   36.3960   30.1900   30.9980 C   0  0  0  0  0  2  0  0  0  0  0  0
   36.4810   28.7910   30.4580 C   0  0  0  0  0  3  0  0  0  0  0  0
   37.5010   28.4520   30.2040 H   0  0  0  0  0  0  0  0  0  0  0  0
  2  3  1  0  0  0  0
  2  1  1  0  0  0  0
  3 12  1  0  0  0  0
  4  8  1  0  0  0  0
  4  3  2  0  0  0  0
  5  4  1  0  0  0  0
  6  5  2  0  0  0  0
  6  7  1  0  0  0  0
  7  2  2  0  0  0  0
  9  5  1  0  0  0  0
 10  6  1  0  0  0  0
 11 17  1  0  0  0  0
 11 16  1  0  0  0  0
 12 11  2  0  0  0  0
 13 12  1  0  0  0  0
 13 14  2  0  0  0  0
 14 15  1  0  0  0  0
 15 16  2  0  0  0  0
 15 19  1  0  0  0  0
 18 13  1  0  0  0  0
 20  7  1  0  0  0  0
 20 21  1  0  0  0  0
 22 21  1  0  0  0  0
 23 22  1  0  0  0  0
 24 23  1  0  0  0  0
 24 20  1  0  0  0  0
 25 24  1  0  0  0  0
M  END
>  <minimizedAffinity>
-4.36470509

$$$$

 OpenBabel03272505013D

 25 27  0  0  0  0  0  0  0  0999 V2000
   38.2580   22.4920   33.5140 Cl  0  0  0  0  0  0  0  0  0  0  0  0
   37.1960   23.5290   32.6060 C   0  0  0  0  0  0  0  0  0  0  0  0
   37.3970   24.8810   32.6700 C   0  0  0  0  0  0  0  0  0  0  0  0
   36.5140   25.6530   31.9210 C   0  0  0  0  0  0  0  0  0  0  0  0
   35.5070   25.0510   31.1700 C   0  0  0  0  0  0  0  0  0  0  0  0
   35.3540   23.6890   31.1430 C   0  0  0  0  0  0  0  0  0  0  0  0
   36.2330   22.9020   31.8900 C   0  0  0  0  0  0  0  0  0  0  0  0
   36.5880   26.7280   31.9050 H   0  0  0  0  0  0  0  0  0  0  0  0
   34.8360   25.6750   30.5970 H   0  0  0  0  0  0  0  0  0  0  0  0
   34.5750   23.2350   30.5600 H   0  0  0  0  0  0  0  0  0  0  0  0
   39.7200   25.7370   32.9350 C   0  0  0  0  0  0  0  0  0  0  0  0
   38.4410   25.5330   33.4480 C   0  0  0  0  0  0  0  0  0  0  0  0
   38.1840   25.9780   34.7570 C   0  0  0  0  0  0  0  0  0  0  0  0
   39.1840   26.5810   35.4500 N   0  0  0  0  0  0  0  0  0  0  0  0
   40.4030   26.7590   34.9200 C   0  0  0  0  0  0  0  0  0  0  0  0
   40.6790   26.3400   33.6600 N   0  0  0  0  0  0  0  0  0  0  0  0
   39.9210   25.3990   31.9340 H   0  0  0  0  0  0  0  0  0  0  0  0
   37.2260   25.8520   35.2090 H   0  0  0  0  0  0  0  0  0  0  0  0
   41.1910   27.2460   35.4960 H   0  0  0  0  0  0  0  0  0  0  0  0
   36.0480   21.4910   31.8430 N   0  0  0  0  0  0  0  0  0  0  0  0
   36.6890   20.5410   30.9370 C   0  0  0  0  0  2  0  0  0  0  0  0
   35.9070   19.2590   31.1730 C   0  0  0  0  0  2  0  0  0  0  0  0
   35.6780   19.3820   32.6800 C   0  0  0  0  0  2  0  0  0  0  0  0
   35.1470   20.7870   32.7380 C   0  0  0  0  0  3  0  0  0  0  0  0
   35.1190   21.2300   33.7490 H   0  0  0  0  0  0  0  0  0  0  0  0
  2  3  1  0  0  0  0
  2  1  1  0  0  0  0
  3 12  1  0  0  0  0
  4  3  2  0  0  0  0
  5  4  1  0  0  0  0
  6  5  2  0  0  0  0
  6  7  1  0  0  0  0
  7  2  2  0  0  0  0
  8  4  1  0  0  0  0
  9  5  1  0  0  0  0
 10  6  1  0  0  0  0
 11 12  2  0  0  0  0
 11 16  1  0  0  0  0
 12 13  1  0  0  0  0
 13 18  1  0  0  0  0
 13 14  2  0  0  0  0
 15 14  1  0  0  0  0
 15 19  1  0  0  0  0
 16 15  2  0  0  0  0
 17 11  1  0  0  0  0
 20  7  1  0  0  0  0
 20 24  1  0  0  0  0
 21 22  1  0  0  0  0
 21 20  1  0  0  0  0
 22 23  1  0  0  0  0
 23 24  1  0  0  0  0
 24 25  1  0  0  0  0
M  END
>  <minimizedAffinity>
-4.35785055

$$$$

 OpenBabel03272505013D

 25 27  0  0  0  0  0  0  0  0999 V2000
   36.6190   25.7330   32.2270 Cl  0  0  0  0  0  0  0  0  0  0  0  0
   37.3860   26.2870   33.6870 C   0  0  0  0  0  0  0  0  0  0  0  0
   37.0970   27.5470   34.1360 C   0  0  0  0  0  0  0  0  0  0  0  0
   37.7430   27.9270   35.3080 C   0  0  0  0  0  0  0  0  0  0  0  0
   38.6180   27.0540   35.9510 C   0  0  0  0  0  0  0  0  0  0  0  0
   38.8700   25.8020   35.4540 C   0  0  0  0  0  0  0  0  0  0  0  0
   38.2280   25.4060   34.2790 C   0  0  0  0  0  0  0  0  0  0  0  0
   37.5820   28.9000   35.7430 H   0  0  0  0  0  0  0  0  0  0  0  0
   39.1060   27.3760   36.8600 H   0  0  0  0  0  0  0  0  0  0  0  0
   39.5450   25.1370   35.9580 H   0  0  0  0  0  0  0  0  0  0  0  0
   36.3830   28.8940   32.1670 C   0  0  0  0  0  0  0  0  0  0  0  0
   36.1870   28.4760   33.4810 C   0  0  0  0  0  0  0  0  0  0  0  0
   35.0700   28.9840   34.1680 C   0  0  0  0  0  0  0  0  0  0  0  0
   34.2440   29.8490   33.5230 N   0  0  0  0  0  0  0  0  0  0  0  0
   34.4680   30.2270   32.2560 C   0  0  0  0  0  0  0  0  0  0  0  0
   35.5380   29.7520   31.5690 N   0  0  0  0  0  0  0  0  0  0  0  0
   37.2360   28.5070   31.6380 H   0  0  0  0  0  0  0  0  0  0  0  0
   34.8620   28.7050   35.1760 H   0  0  0  0  0  0  0  0  0  0  0  0
   33.7920   30.9220   31.7580 H   0  0  0  0  0  0  0  0  0  0  0  0
   38.5100   24.1000   33.7880 N   0  0  0  0  0  0  0  0  0  0  0  0
   39.4680   23.7300   32.7480 C   0  0  0  0  0  2  0  0  0  0  0  0
   39.1300   22.2730   32.4740 C   0  0  0  0  0  2  0  0  0  0  0  0
   38.8010   21.8220   33.8980 C   0  0  0  0  0  2  0  0  0  0  0  0
   37.8430   22.9120   34.2890 C   0  0  0  0  0  3  0  0  0  0  0  0
   37.6240   22.9700   35.3700 H   0  0  0  0  0  0  0  0  0  0  0  0
  1  2  1  0  0  0  0
  2  3  2  0  0  0  0
  2  7  1  0  0  0  0
  3  4  1  0  0  0  0
  4  8  1  0  0  0  0
  4  5  2  0  0  0  0
  5  9  1  0  0  0  0
  6  5  1  0  0  0  0
  6 10  1  0  0  0  0
  7  6  2  0  0  0  0
 11 12  1  0  0  0  0
 12  3  1  0  0  0  0
 12 13  2  0  0  0  0
 13 18  1  0  0  0  0
 14 13  1  0  0  0  0
 15 14  2  0  0  0  0
 16 11  2  0  0  0  0
 16 15  1  0  0  0  0
 17 11  1  0  0  0  0
 19 15  1  0  0  0  0
 20  7  1  0  0  0  0
 20 24  1  0  0  0  0
 21 20  1  0  0  0  0
 22 21  1  0  0  0  0
 22 23  1  0  0  0  0
 23 24  1  0  0  0  0
 24 25  1  0  0  0  0
M  END
>  <minimizedAffinity>
-4.31401634

$$$$
