
     RDKit          3D

 40 43  0  0  0  0  0  0  0  0999 V2000
   37.3177   29.3316   51.0267 Br  0  0  0  0  0  0  0  0  0  0  0  0
   35.9644   29.3279   49.6805 C   0  0  0  0  0  0  0  0  0  0  0  0
   35.9949   30.2621   48.6447 C   0  0  0  0  0  0  0  0  0  0  0  0
   34.9816   30.1945   47.7106 C   0  0  0  0  0  0  0  0  0  0  0  0
   33.9577   29.2615   47.7536 C   0  0  0  0  0  0  0  0  0  0  0  0
   33.9625   28.3661   48.7804 C   0  0  0  0  0  0  0  0  0  0  0  0
   34.9621   28.4097   49.7282 C   0  0  0  0  0  0  0  0  0  0  0  0
   37.9943   33.1922   49.4687 C   0  0  0  0  0  0  0  0  0  0  0  0
   39.0217   33.1716   48.4680 C   0  0  0  0  0  0  0  0  0  0  0  0
   39.0025   32.1464   47.5298 C   0  0  0  0  0  0  0  0  0  0  0  0
   38.0083   31.2066   47.6027 N   0  0  0  0  0  0  0  0  0  0  0  0
   37.0492   31.2548   48.5638 C   0  0  0  0  0  0  0  0  0  0  0  0
   37.0455   32.2495   49.4954 N   0  0  0  0  0  0  0  0  0  0  0  0
   32.9017   29.2101   46.7584 C   0  0  0  0  0  0  0  0  0  0  0  0
   32.2580   28.0458   46.3682 C   0  0  0  0  0  0  0  0  0  0  0  0
   31.2525   28.0248   45.4148 C   0  0  0  0  0  0  0  0  0  0  0  0
   30.8818   29.1711   44.8425 N   0  0  0  0  0  0  0  0  0  0  0  0
   31.4990   30.3200   45.2104 C   0  0  0  0  0  0  0  0  0  0  0  0
   32.4597   30.3016   46.1286 N   0  0  0  0  0  0  0  0  0  0  0  0
   34.9506   30.8992   46.8754 H   0  0  0  0  0  0  0  0  0  0  0  0
   33.2077   27.5976   48.9043 H   0  0  0  0  0  0  0  0  0  0  0  0
   34.9612   27.6942   50.5438 H   0  0  0  0  0  0  0  0  0  0  0  0
   37.9382   33.9516   50.2307 H   0  0  0  0  0  0  0  0  0  0  0  0
   39.7596   33.9638   48.5023 H   0  0  0  0  0  0  0  0  0  0  0  0
   39.7583   32.1207   46.7838 H   0  0  0  0  0  0  0  0  0  0  0  0
   32.5589   27.1050   46.8348 H   0  0  0  0  0  0  0  0  0  0  0  0
   30.7920   27.0795   45.1572 H   0  0  0  0  0  0  0  0  0  0  0  0
   31.0984   31.5393   44.5956 N   0  0  0  0  0  0  0  0  0  0  0  0
   31.1551   32.8617   45.2373 C   0  0  0  0  0  0  0  0  0  0  0  0
   30.2217   33.7307   44.4109 C   0  0  0  0  0  0  0  0  0  0  0  0
   30.5396   33.1774   43.0158 C   0  0  0  0  0  0  0  0  0  0  0  0
   30.5719   31.7085   43.2560 C   0  0  1  0  0  0  0  0  0  0  0  0
   31.1785   31.2248   42.4758 H   0  0  0  0  0  0  0  0  0  0  0  0
   32.1955   33.1998   45.1619 H   0  0  0  0  0  0  0  0  0  0  0  0
   30.7990   32.7529   46.2851 H   0  0  0  0  0  0  0  0  0  0  0  0
   29.1795   33.5814   44.7038 H   0  0  0  0  0  0  0  0  0  0  0  0
   30.5687   34.7768   44.5113 H   0  0  0  0  0  0  0  0  0  0  0  0
   31.5463   33.6017   42.7654 H   0  0  0  0  0  0  0  0  0  0  0  0
   29.7558   33.5141   42.3208 H   0  0  0  0  0  0  0  0  0  0  0  0
   29.5197   31.3378   43.1798 H   0  0  0  0  0  0  0  0  0  0  0  0
  2  7  2  0
  2  1  1  0
  3  2  1  0
  4  5  1  0
  4  3  2  0
  5  6  2  0
  6  7  1  0
  8 13  2  0
  9  8  1  0
 10 11  1  0
 10  9  2  0
 11 12  2  0
 12  3  1  0
 12 13  1  0
 14  5  1  0
 15 14  2  0
 16 15  1  0
 17 18  1  0
 17 16  2  0
 18 19  2  0
 19 14  1  0
  4 20  1  0
  6 21  1  0
  7 22  1  0
  8 23  1  0
  9 24  1  0
 10 25  1  0
 15 26  1  0
 16 27  1  0
 28 29  1  0
 29 30  1  0
 30 31  1  0
 31 32  1  0
 32 33  1  6
 32 28  1  0
 29 34  1  0
 29 35  1  0
 30 36  1  0
 30 37  1  0
 31 38  1  0
 31 39  1  0
 32 40  1  0
 18 28  1  0
M  ISO  8  20  14  21  14  22  14  23  14  24  14  25  14  26  14  27  14
M  ISO  1  33  13
M  END
>  <DihAtoms>  (1) 
16,17,27,28

>  <DihDeg>  (1) 
-179.96136180194807

$$$$
