
 OpenBabel03272509253D

 21 22  0  0  0  0  0  0  0  0999 V2000
   37.8650   25.7460   35.6580 C   0  0  0  0  0  0  0  0  0  0  0  0
   38.8380   26.1900   35.9650 H   0  0  0  0  0  0  0  0  0  0  0  0
   37.1410   25.6950   36.4830 H   0  0  0  0  0  0  0  0  0  0  0  0
   36.2380   28.4190   33.4860 C   0  0  0  0  0  0  0  0  0  0  0  0
   36.7860   27.8140   34.6130 C   0  0  0  0  0  0  0  0  0  0  0  0
   37.2430   26.5110   34.5270 C   0  0  0  0  0  0  0  0  0  0  0  0
   37.1400   25.8470   33.3260 N   0  0  0  0  0  0  0  0  0  0  0  0
   36.6010   26.4710   32.2600 C   0  0  0  0  0  0  0  0  0  0  0  0
   36.1510   27.7410   32.3220 N   0  0  0  0  0  0  0  0  0  0  0  0
   35.8760   29.4250   33.5200 H   0  0  0  0  0  0  0  0  0  0  0  0
   36.8610   28.3380   35.5340 H   0  0  0  0  0  0  0  0  0  0  0  0
   36.5820   25.8150   31.3760 H   0  0  0  0  0  0  0  0  0  0  0  0
   38.2240   24.3470   35.1600 C   0  0  0  0  0  0  0  0  0  0  0  0
   39.2330   24.2970   34.7410 H   0  0  0  0  0  0  0  0  0  0  0  0
   37.4540   24.0630   34.4150 H   0  0  0  0  0  0  0  0  0  0  0  0
   38.1020   23.4160   36.3000 N   0  0  0  0  0  0  0  0  0  0  0  0
   39.3080   22.6210   36.4190 C   0  0  0  0  0  2  0  0  0  0  0  0
   39.8550   22.8310   37.8110 C   0  0  0  0  0  2  0  0  0  0  0  0
   38.6640   23.4140   38.5660 C   0  0  0  0  0  2  0  0  0  0  0  0
   37.9720   24.2210   37.4810 C   0  0  0  0  0  3  0  0  0  0  0  0
   38.5330   25.1670   37.3240 H   0  0  0  0  0  0  0  0  0  0  0  0
  1  2  1  0  0  0  0
  1  3  1  0  0  0  0
  4 10  1  0  0  0  0
  4  5  1  0  0  0  0
  5 11  1  0  0  0  0
  6  5  2  0  0  0  0
  6  1  1  0  0  0  0
  7  6  1  0  0  0  0
  8  9  1  0  0  0  0
  8  7  2  0  0  0  0
  9  4  2  0  0  0  0
 12  8  1  0  0  0  0
 13  1  1  0  0  0  0
 13 16  1  0  0  0  0
 14 13  1  0  0  0  0
 15 13  1  0  0  0  0
 16 17  1  0  0  0  0
 16 20  1  0  0  0  0
 17 18  1  0  0  0  0
 18 19  1  0  0  0  0
 20 19  1  0  0  0  0
 21 20  1  0  0  0  0
M  END
>  <minimizedAffinity>
-3.99658847

$$$$

 OpenBabel03272509253D

 21 22  0  0  0  0  0  0  0  0999 V2000
   37.7680   22.0330   34.8990 C   0  0  0  0  0  0  0  0  0  0  0  0
   37.1760   22.0720   35.8400 H   0  0  0  0  0  0  0  0  0  0  0  0
   38.6290   21.3540   34.9650 H   0  0  0  0  0  0  0  0  0  0  0  0
   35.1200   20.4660   32.6540 C   0  0  0  0  0  0  0  0  0  0  0  0
   35.8330   20.7680   33.8110 C   0  0  0  0  0  0  0  0  0  0  0  0
   36.9220   21.6180   33.7320 C   0  0  0  0  0  0  0  0  0  0  0  0
   37.2700   22.1420   32.5080 N   0  0  0  0  0  0  0  0  0  0  0  0
   36.5520   21.8220   31.4140 C   0  0  0  0  0  0  0  0  0  0  0  0
   35.4870   20.9970   31.4680 N   0  0  0  0  0  0  0  0  0  0  0  0
   34.2730   19.8130   32.6830 H   0  0  0  0  0  0  0  0  0  0  0  0
   35.5530   20.3580   34.7490 H   0  0  0  0  0  0  0  0  0  0  0  0
   36.9520   22.3120   30.5120 H   0  0  0  0  0  0  0  0  0  0  0  0
   38.2260   23.4750   34.6790 C   0  0  0  0  0  0  0  0  0  0  0  0
   37.3960   24.1490   34.4500 H   0  0  0  0  0  0  0  0  0  0  0  0
   38.9770   23.4530   33.8630 H   0  0  0  0  0  0  0  0  0  0  0  0
   38.9180   23.9210   35.9050 N   0  0  0  0  0  0  0  0  0  0  0  0
   38.0360   24.7610   36.6910 C   0  0  0  0  0  2  0  0  0  0  0  0
   37.9210   24.1400   38.0630 C   0  0  0  0  0  2  0  0  0  0  0  0
   39.1130   23.1900   38.1130 C   0  0  0  0  0  2  0  0  0  0  0  0
   39.2170   22.7420   36.6660 C   0  0  0  0  0  3  0  0  0  0  0  0
   38.4270   21.9870   36.4660 H   0  0  0  0  0  0  0  0  0  0  0  0
  1  3  1  0  0  0  0
  1  2  1  0  0  0  0
  4 10  1  0  0  0  0
  4  5  1  0  0  0  0
  5 11  1  0  0  0  0
  6  5  2  0  0  0  0
  6  1  1  0  0  0  0
  7  6  1  0  0  0  0
  8  9  1  0  0  0  0
  8  7  2  0  0  0  0
  9  4  2  0  0  0  0
 12  8  1  0  0  0  0
 13  1  1  0  0  0  0
 13 16  1  0  0  0  0
 14 13  1  0  0  0  0
 15 13  1  0  0  0  0
 16 20  1  0  0  0  0
 16 17  1  0  0  0  0
 17 18  1  0  0  0  0
 18 19  1  0  0  0  0
 20 19  1  0  0  0  0
 21 20  1  0  0  0  0
M  END
>  <minimizedAffinity>
-3.7980783

$$$$

 OpenBabel03272509253D

 21 22  0  0  0  0  0  0  0  0999 V2000
   37.9460   22.2510   34.6260 C   0  0  0  0  0  0  0  0  0  0  0  0
   38.5830   21.4770   34.1440 H   0  0  0  0  0  0  0  0  0  0  0  0
   36.8890   21.9580   34.6840 H   0  0  0  0  0  0  0  0  0  0  0  0
   40.0460   22.7350   37.7660 C   0  0  0  0  0  0  0  0  0  0  0  0
   39.7200   22.3810   36.4610 C   0  0  0  0  0  0  0  0  0  0  0  0
   38.4270   22.5780   36.0090 C   0  0  0  0  0  0  0  0  0  0  0  0
   37.4980   23.1200   36.8670 N   0  0  0  0  0  0  0  0  0  0  0  0
   37.8570   23.4480   38.1230 C   0  0  0  0  0  0  0  0  0  0  0  0
   39.1110   23.2650   38.5830 N   0  0  0  0  0  0  0  0  0  0  0  0
   41.0370   22.5960   38.1450 H   0  0  0  0  0  0  0  0  0  0  0  0
   40.4470   21.9640   35.8090 H   0  0  0  0  0  0  0  0  0  0  0  0
   37.0090   23.8640   38.6890 H   0  0  0  0  0  0  0  0  0  0  0  0
   38.1200   23.4890   33.7450 C   0  0  0  0  0  0  0  0  0  0  0  0
   39.1620   23.8190   33.6870 H   0  0  0  0  0  0  0  0  0  0  0  0
   37.4610   24.2760   34.1630 H   0  0  0  0  0  0  0  0  0  0  0  0
   37.6160   23.1580   32.3970 N   0  0  0  0  0  0  0  0  0  0  0  0
   36.8760   21.9120   32.4390 C   0  0  0  0  0  2  0  0  0  0  0  0
   35.4900   22.1890   31.9070 C   0  0  0  0  0  2  0  0  0  0  0  0
   35.6600   23.5170   31.1740 C   0  0  0  0  0  2  0  0  0  0  0  0
   36.7130   24.2080   32.0220 C   0  0  0  0  0  3  0  0  0  0  0  0
   36.2310   24.6010   32.9430 H   0  0  0  0  0  0  0  0  0  0  0  0
  1  3  1  0  0  0  0
  1  6  1  0  0  0  0
  2  1  1  0  0  0  0
  4 10  1  0  0  0  0
  4  9  1  0  0  0  0
  5  4  2  0  0  0  0
  6  5  1  0  0  0  0
  6  7  2  0  0  0  0
  7  8  1  0  0  0  0
  8  9  2  0  0  0  0
  8 12  1  0  0  0  0
 11  5  1  0  0  0  0
 13 15  1  0  0  0  0
 13  1  1  0  0  0  0
 14 13  1  0  0  0  0
 16 17  1  0  0  0  0
 16 13  1  0  0  0  0
 18 17  1  0  0  0  0
 19 18  1  0  0  0  0
 19 20  1  0  0  0  0
 20 16  1  0  0  0  0
 20 21  1  0  0  0  0
M  END
>  <minimizedAffinity>
-3.77798915

$$$$

 OpenBabel03272509253D

 21 22  0  0  0  0  0  0  0  0999 V2000
   37.6050   25.6630   35.6700 C   0  0  0  0  0  0  0  0  0  0  0  0
   36.6160   25.2730   35.3410 H   0  0  0  0  0  0  0  0  0  0  0  0
   37.5250   26.5930   36.2490 H   0  0  0  0  0  0  0  0  0  0  0  0
   38.7910   23.3390   38.4460 C   0  0  0  0  0  0  0  0  0  0  0  0
   38.0280   24.3010   37.7920 C   0  0  0  0  0  0  0  0  0  0  0  0
   38.3490   24.6520   36.4920 C   0  0  0  0  0  0  0  0  0  0  0  0
   39.4190   24.0380   35.8830 N   0  0  0  0  0  0  0  0  0  0  0  0
   40.1320   23.1120   36.5540 C   0  0  0  0  0  0  0  0  0  0  0  0
   39.8350   22.7550   37.8190 N   0  0  0  0  0  0  0  0  0  0  0  0
   38.5680   23.0470   39.4510 H   0  0  0  0  0  0  0  0  0  0  0  0
   37.2040   24.7670   38.2730 H   0  0  0  0  0  0  0  0  0  0  0  0
   40.9560   22.7150   35.9400 H   0  0  0  0  0  0  0  0  0  0  0  0
   38.3740   25.8940   34.3700 C   0  0  0  0  0  0  0  0  0  0  0  0
   38.1170   25.1660   33.5950 H   0  0  0  0  0  0  0  0  0  0  0  0
   39.4520   25.8620   34.6250 H   0  0  0  0  0  0  0  0  0  0  0  0
   38.0700   27.2610   33.9030 N   0  0  0  0  0  0  0  0  0  0  0  0
   37.7570   27.2410   32.4880 C   0  0  0  0  0  2  0  0  0  0  0  0
   36.3840   27.8470   32.3180 C   0  0  0  0  0  2  0  0  0  0  0  0
   36.1680   28.5870   33.6340 C   0  0  0  0  0  2  0  0  0  0  0  0
   36.9050   27.6960   34.6180 C   0  0  0  0  0  3  0  0  0  0  0  0
   36.2760   26.8060   34.8370 H   0  0  0  0  0  0  0  0  0  0  0  0
  1  3  1  0  0  0  0
  1  6  1  0  0  0  0
  2  1  1  0  0  0  0
  4 10  1  0  0  0  0
  5 11  1  0  0  0  0
  5  4  2  0  0  0  0
  6  5  1  0  0  0  0
  7  6  2  0  0  0  0
  7  8  1  0  0  0  0
  8  9  2  0  0  0  0
  9  4  1  0  0  0  0
 12  8  1  0  0  0  0
 13 15  1  0  0  0  0
 13  1  1  0  0  0  0
 14 13  1  0  0  0  0
 16 13  1  0  0  0  0
 16 20  1  0  0  0  0
 17 16  1  0  0  0  0
 18 17  1  0  0  0  0
 18 19  1  0  0  0  0
 19 20  1  0  0  0  0
 20 21  1  0  0  0  0
M  END
>  <minimizedAffinity>
-3.72028399

$$$$

 OpenBabel03272509253D

 21 22  0  0  0  0  0  0  0  0999 V2000
   38.3150   23.4050   33.6130 C   0  0  0  0  0  0  0  0  0  0  0  0
   37.9320   22.4370   34.0040 H   0  0  0  0  0  0  0  0  0  0  0  0
   39.2550   23.2980   33.0550 H   0  0  0  0  0  0  0  0  0  0  0  0
   35.5460   24.1520   31.1050 C   0  0  0  0  0  0  0  0  0  0  0  0
   36.4440   23.4150   31.8710 C   0  0  0  0  0  0  0  0  0  0  0  0
   37.3080   24.0770   32.7250 C   0  0  0  0  0  0  0  0  0  0  0  0
   37.2560   25.4500   32.7910 N   0  0  0  0  0  0  0  0  0  0  0  0
   36.3710   26.1240   32.0310 C   0  0  0  0  0  0  0  0  0  0  0  0
   35.5190   25.4990   31.1940 N   0  0  0  0  0  0  0  0  0  0  0  0
   34.8650   23.6690   30.4360 H   0  0  0  0  0  0  0  0  0  0  0  0
   36.4730   22.3550   31.8110 H   0  0  0  0  0  0  0  0  0  0  0  0
   36.4500   27.2120   32.1890 H   0  0  0  0  0  0  0  0  0  0  0  0
   38.5150   24.2670   34.8590 C   0  0  0  0  0  0  0  0  0  0  0  0
   37.9080   25.1760   34.8430 H   0  0  0  0  0  0  0  0  0  0  0  0
   39.5980   24.4950   34.9210 H   0  0  0  0  0  0  0  0  0  0  0  0
   38.1670   23.4460   36.0360 N   0  0  0  0  0  0  0  0  0  0  0  0
   39.2820   22.5880   36.3860 C   0  0  0  0  0  2  0  0  0  0  0  0
   39.6460   22.8800   37.8230 C   0  0  0  0  0  2  0  0  0  0  0  0
   38.4100   23.5990   38.3530 C   0  0  0  0  0  2  0  0  0  0  0  0
   37.9360   24.3540   37.1230 C   0  0  0  0  0  3  0  0  0  0  0  0
   38.5830   25.2450   36.9780 H   0  0  0  0  0  0  0  0  0  0  0  0
  1  2  1  0  0  0  0
  1 13  1  0  0  0  0
  3  1  1  0  0  0  0
  4  9  2  0  0  0  0
  4  5  1  0  0  0  0
  5  6  2  0  0  0  0
  6  7  1  0  0  0  0
  6  1  1  0  0  0  0
  8 12  1  0  0  0  0
  8  7  2  0  0  0  0
  9  8  1  0  0  0  0
 10  4  1  0  0  0  0
 11  5  1  0  0  0  0
 13 15  1  0  0  0  0
 13 16  1  0  0  0  0
 14 13  1  0  0  0  0
 16 17  1  0  0  0  0
 16 20  1  0  0  0  0
 17 18  1  0  0  0  0
 18 19  1  0  0  0  0
 20 19  1  0  0  0  0
 21 20  1  0  0  0  0
M  END
>  <minimizedAffinity>
-3.68381667

$$$$

 OpenBabel03272509253D

 21 22  0  0  0  0  0  0  0  0999 V2000
   38.1100   22.3090   33.8630 C   0  0  0  0  0  0  0  0  0  0  0  0
   39.0280   21.6910   33.7520 H   0  0  0  0  0  0  0  0  0  0  0  0
   38.2620   23.3550   33.5620 H   0  0  0  0  0  0  0  0  0  0  0  0
   35.5600   21.5200   31.1460 C   0  0  0  0  0  0  0  0  0  0  0  0
   36.6400   22.1260   31.7800 C   0  0  0  0  0  0  0  0  0  0  0  0
   36.9680   21.7460   33.0700 C   0  0  0  0  0  0  0  0  0  0  0  0
   36.2140   20.7760   33.6900 N   0  0  0  0  0  0  0  0  0  0  0  0
   35.1760   20.2170   33.0380 C   0  0  0  0  0  0  0  0  0  0  0  0
   34.8400   20.5710   31.7820 N   0  0  0  0  0  0  0  0  0  0  0  0
   35.2810   21.7920   30.1490 H   0  0  0  0  0  0  0  0  0  0  0  0
   37.2140   22.8730   31.2900 H   0  0  0  0  0  0  0  0  0  0  0  0
   34.6680   19.4630   33.6610 H   0  0  0  0  0  0  0  0  0  0  0  0
   37.7650   22.2140   35.3490 C   0  0  0  0  0  0  0  0  0  0  0  0
   37.8270   21.1900   35.7290 H   0  0  0  0  0  0  0  0  0  0  0  0
   36.7480   22.6370   35.4700 H   0  0  0  0  0  0  0  0  0  0  0  0
   38.6990   23.0870   36.0870 N   0  0  0  0  0  0  0  0  0  0  0  0
   38.0430   23.6310   37.2590 C   0  0  0  0  0  2  0  0  0  0  0  0
   38.8710   23.2470   38.4620 C   0  0  0  0  0  2  0  0  0  0  0  0
   40.2130   22.8590   37.8490 C   0  0  0  0  0  2  0  0  0  0  0  0
   39.7870   22.2590   36.5210 C   0  0  0  0  0  3  0  0  0  0  0  0
   39.3980   21.2330   36.6990 H   0  0  0  0  0  0  0  0  0  0  0  0
  1 13  1  0  0  0  0
  2  1  1  0  0  0  0
  3  1  1  0  0  0  0
  4  5  2  0  0  0  0
  4  9  1  0  0  0  0
  5  6  1  0  0  0  0
  6  7  2  0  0  0  0
  6  1  1  0  0  0  0
  8 12  1  0  0  0  0
  8  7  1  0  0  0  0
  9  8  2  0  0  0  0
 10  4  1  0  0  0  0
 11  5  1  0  0  0  0
 13 15  1  0  0  0  0
 13 14  1  0  0  0  0
 13 16  1  0  0  0  0
 16 20  1  0  0  0  0
 16 17  1  0  0  0  0
 17 18  1  0  0  0  0
 19 18  1  0  0  0  0
 20 21  1  0  0  0  0
 20 19  1  0  0  0  0
M  END
>  <minimizedAffinity>
-3.64441466

$$$$

 OpenBabel03272509253D

 21 22  0  0  0  0  0  0  0  0999 V2000
   38.5760   24.6660   34.6580 C   0  0  0  0  0  0  0  0  0  0  0  0
   39.5080   24.5770   34.0570 H   0  0  0  0  0  0  0  0  0  0  0  0
   37.7210   24.1540   34.1970 H   0  0  0  0  0  0  0  0  0  0  0  0
   39.8380   22.8280   37.7470 C   0  0  0  0  0  0  0  0  0  0  0  0
   39.7640   23.2490   36.4220 C   0  0  0  0  0  0  0  0  0  0  0  0
   38.7630   24.1260   36.0460 C   0  0  0  0  0  0  0  0  0  0  0  0
   37.8650   24.5580   36.9950 N   0  0  0  0  0  0  0  0  0  0  0  0
   37.9730   24.1240   38.2660 C   0  0  0  0  0  0  0  0  0  0  0  0
   38.9410   23.2710   38.6540 N   0  0  0  0  0  0  0  0  0  0  0  0
   40.6010   22.1500   38.0690 H   0  0  0  0  0  0  0  0  0  0  0  0
   40.4640   22.9080   35.7000 H   0  0  0  0  0  0  0  0  0  0  0  0
   37.1840   24.5520   38.9060 H   0  0  0  0  0  0  0  0  0  0  0  0
   38.3250   26.1710   34.7510 C   0  0  0  0  0  0  0  0  0  0  0  0
   39.1110   26.7580   34.2680 H   0  0  0  0  0  0  0  0  0  0  0  0
   38.2320   26.4150   35.8290 H   0  0  0  0  0  0  0  0  0  0  0  0
   37.0210   26.4510   34.1190 N   0  0  0  0  0  0  0  0  0  0  0  0
   36.7290   27.8690   34.1980 C   0  0  0  0  0  2  0  0  0  0  0  0
   36.5020   28.3640   32.7890 C   0  0  0  0  0  2  0  0  0  0  0  0
   36.2500   27.0790   32.0070 C   0  0  0  0  0  2  0  0  0  0  0  0
   37.1430   26.0900   32.7360 C   0  0  0  0  0  3  0  0  0  0  0  0
   38.1950   26.2570   32.4220 H   0  0  0  0  0  0  0  0  0  0  0  0
  1 13  1  0  0  0  0
  1  6  1  0  0  0  0
  2  1  1  0  0  0  0
  3  1  1  0  0  0  0
  4 10  1  0  0  0  0
  4  9  1  0  0  0  0
  5  4  2  0  0  0  0
  6  5  1  0  0  0  0
  6  7  2  0  0  0  0
  7  8  1  0  0  0  0
  8  9  2  0  0  0  0
  8 12  1  0  0  0  0
 11  5  1  0  0  0  0
 13 15  1  0  0  0  0
 14 13  1  0  0  0  0
 16 17  1  0  0  0  0
 16 13  1  0  0  0  0
 18 17  1  0  0  0  0
 19 20  1  0  0  0  0
 19 18  1  0  0  0  0
 20 16  1  0  0  0  0
 21 20  1  0  0  0  0
M  END
>  <minimizedAffinity>
-3.63602233

$$$$

 OpenBabel03272509253D

 21 22  0  0  0  0  0  0  0  0999 V2000
   38.6740   23.7810   33.6010 C   0  0  0  0  0  0  0  0  0  0  0  0
   39.0520   22.7460   33.4440 H   0  0  0  0  0  0  0  0  0  0  0  0
   39.4400   24.5470   33.4210 H   0  0  0  0  0  0  0  0  0  0  0  0
   35.9620   25.4840   31.5390 C   0  0  0  0  0  0  0  0  0  0  0  0
   37.0700   25.3430   32.3690 C   0  0  0  0  0  0  0  0  0  0  0  0
   37.4920   24.0740   32.7250 C   0  0  0  0  0  0  0  0  0  0  0  0
   36.8000   22.9850   32.2490 N   0  0  0  0  0  0  0  0  0  0  0  0
   35.7310   23.1680   31.4490 C   0  0  0  0  0  0  0  0  0  0  0  0
   35.3040   24.3940   31.0880 N   0  0  0  0  0  0  0  0  0  0  0  0
   35.6110   26.4520   31.2460 H   0  0  0  0  0  0  0  0  0  0  0  0
   37.5960   26.1920   32.7290 H   0  0  0  0  0  0  0  0  0  0  0  0
   35.2810   22.2070   31.1520 H   0  0  0  0  0  0  0  0  0  0  0  0
   38.2160   23.8010   35.0590 C   0  0  0  0  0  0  0  0  0  0  0  0
   38.4010   22.8510   35.5700 H   0  0  0  0  0  0  0  0  0  0  0  0
   37.1390   24.0630   35.0540 H   0  0  0  0  0  0  0  0  0  0  0  0
   38.9350   24.8940   35.7440 N   0  0  0  0  0  0  0  0  0  0  0  0
   39.9940   25.3960   34.8920 C   0  0  0  0  0  2  0  0  0  0  0  0
   39.7640   26.8770   34.7050 C   0  0  0  0  0  2  0  0  0  0  0  0
   38.8030   27.2220   35.8390 C   0  0  0  0  0  2  0  0  0  0  0  0
   37.9850   25.9490   35.9540 C   0  0  0  0  0  3  0  0  0  0  0  0
   37.2430   25.9220   35.1270 H   0  0  0  0  0  0  0  0  0  0  0  0
  1 13  1  0  0  0  0
  2  1  1  0  0  0  0
  3  1  1  0  0  0  0
  4  5  1  0  0  0  0
  5  6  2  0  0  0  0
  5 11  1  0  0  0  0
  6  1  1  0  0  0  0
  7  6  1  0  0  0  0
  8  7  2  0  0  0  0
  9  8  1  0  0  0  0
  9  4  2  0  0  0  0
 10  4  1  0  0  0  0
 12  8  1  0  0  0  0
 13 14  1  0  0  0  0
 13 16  1  0  0  0  0
 15 13  1  0  0  0  0
 16 20  1  0  0  0  0
 17 16  1  0  0  0  0
 18 17  1  0  0  0  0
 18 19  1  0  0  0  0
 19 20  1  0  0  0  0
 21 20  1  0  0  0  0
M  END
>  <minimizedAffinity>
-3.56619215

$$$$

 OpenBabel03272509253D

 21 22  0  0  0  0  0  0  0  0999 V2000
   38.8750   25.5410   35.3620 C   0  0  0  0  0  0  0  0  0  0  0  0
   38.9690   25.4430   36.4670 H   0  0  0  0  0  0  0  0  0  0  0  0
   38.0730   26.2290   35.0620 H   0  0  0  0  0  0  0  0  0  0  0  0
   41.5270   27.4300   33.3860 C   0  0  0  0  0  0  0  0  0  0  0  0
   40.2750   27.0930   33.8920 C   0  0  0  0  0  0  0  0  0  0  0  0
   40.1590   26.0050   34.7400 C   0  0  0  0  0  0  0  0  0  0  0  0
   41.2870   25.2860   35.0580 N   0  0  0  0  0  0  0  0  0  0  0  0
   42.4790   25.6480   34.5440 C   0  0  0  0  0  0  0  0  0  0  0  0
   42.6160   26.7040   33.7180 N   0  0  0  0  0  0  0  0  0  0  0  0
   41.6500   28.2660   32.7280 H   0  0  0  0  0  0  0  0  0  0  0  0
   39.4120   27.6570   33.6390 H   0  0  0  0  0  0  0  0  0  0  0  0
   43.2850   24.9770   34.8850 H   0  0  0  0  0  0  0  0  0  0  0  0
   38.5860   24.1210   34.8780 C   0  0  0  0  0  0  0  0  0  0  0  0
   39.4130   23.6970   34.3010 H   0  0  0  0  0  0  0  0  0  0  0  0
   37.6510   24.1680   34.2850 H   0  0  0  0  0  0  0  0  0  0  0  0
   38.3150   23.2850   36.0650 N   0  0  0  0  0  0  0  0  0  0  0  0
   39.4760   22.4710   36.3700 C   0  0  0  0  0  2  0  0  0  0  0  0
   39.8820   22.7750   37.7920 C   0  0  0  0  0  2  0  0  0  0  0  0
   38.6400   23.4450   38.3710 C   0  0  0  0  0  2  0  0  0  0  0  0
   38.0910   24.1810   37.1620 C   0  0  0  0  0  3  0  0  0  0  0  0
   38.6960   25.0980   36.9950 H   0  0  0  0  0  0  0  0  0  0  0  0
  1  2  1  0  0  0  0
  3  1  1  0  0  0  0
  4  9  2  0  0  0  0
  4  5  1  0  0  0  0
  5  6  2  0  0  0  0
  6  7  1  0  0  0  0
  6  1  1  0  0  0  0
  8 12  1  0  0  0  0
  8  7  2  0  0  0  0
  9  8  1  0  0  0  0
 10  4  1  0  0  0  0
 11  5  1  0  0  0  0
 13  1  1  0  0  0  0
 13 16  1  0  0  0  0
 14 13  1  0  0  0  0
 15 13  1  0  0  0  0
 16 17  1  0  0  0  0
 16 20  1  0  0  0  0
 17 18  1  0  0  0  0
 18 19  1  0  0  0  0
 20 19  1  0  0  0  0
 21 20  1  0  0  0  0
M  END
>  <minimizedAffinity>
-3.52703786

$$$$
