
 OpenBabel03272508313D

 42 46  0  0  1  0  0  0  0  0999 V2000
   38.5450   30.1980   42.3390 N   0  0  0  0  0  0  0  0  0  0  0  0
   38.6550   30.4550   40.9180 C   0  0  0  0  0  0  0  0  0  0  0  0
   40.0270   30.2160   40.3980 C   0  0  0  0  0  0  0  0  0  0  0  0
   40.7470   29.3150   41.2630 N   0  0  0  0  0  0  0  0  0  0  0  0
   40.9760   30.0270   42.5160 C   0  0  0  0  0  0  0  0  0  0  0  0
   39.6770   29.9740   43.2580 C   0  0  1  0  0  0  0  0  0  0  0  0
   38.3980   31.5310   40.7670 H   0  0  0  0  0  0  0  0  0  0  0  0
   37.8770   29.9020   40.3460 H   0  0  0  0  0  0  0  0  0  0  0  0
   39.9160   29.7680   39.3790 H   0  0  0  0  0  0  0  0  0  0  0  0
   40.5960   31.1590   40.3520 H   0  0  0  0  0  0  0  0  0  0  0  0
   40.2740   28.4050   41.4060 H   0  0  0  0  0  0  0  0  0  0  0  0
   41.1590   31.1050   42.2280 H   0  0  0  0  0  0  0  0  0  0  0  0
   41.7920   29.6080   43.0980 H   0  0  0  0  0  0  0  0  0  0  0  0
   39.5270   28.9390   43.6420 H   0  0  0  0  0  0  0  0  0  0  0  0
   40.0560   32.2280   44.3550 C   0  0  0  0  0  0  0  0  0  0  0  0
   39.6440   30.8920   44.4150 C   0  0  0  0  0  0  0  0  0  0  0  0
   39.1270   30.3770   45.5880 C   0  0  0  0  0  0  0  0  0  0  0  0
   39.0310   31.2200   46.6710 C   0  0  0  0  0  0  0  0  0  0  0  0
   39.4520   32.5690   46.5970 C   0  0  0  0  0  0  0  0  0  0  0  0
   39.9830   33.1060   45.4170 C   0  0  0  0  0  0  0  0  0  0  0  0
   39.2470   33.2000   47.8390 O   0  0  0  0  0  0  0  0  0  0  0  0
   38.3490   32.3840   48.5460 C   0  0  0  0  0  0  0  0  0  0  0  0
   38.5680   31.0890   47.9840 O   0  0  0  0  0  0  0  0  0  0  0  0
   40.4600   32.6040   43.4270 H   0  0  0  0  0  0  0  0  0  0  0  0
   38.8300   29.4120   45.9160 H   0  0  0  0  0  0  0  0  0  0  0  0
   40.3070   34.1320   45.3560 H   0  0  0  0  0  0  0  0  0  0  0  0
   38.4800   32.3970   49.6270 H   0  0  0  0  0  0  0  0  0  0  0  0
   37.2980   32.6420   48.2300 H   0  0  0  0  0  0  0  0  0  0  0  0
   36.6820   28.9220   43.3440 C   0  0  0  0  0  0  0  0  0  0  0  0
   37.2350   30.1490   42.9140 C   0  0  0  0  0  0  0  0  0  0  0  0
   36.4680   31.2820   43.0870 C   0  0  0  0  0  0  0  0  0  0  0  0
   35.2260   31.1660   43.6630 N   0  0  0  0  0  0  0  0  0  0  0  0
   34.7480   29.9790   44.0560 C   0  0  0  0  0  0  0  0  0  0  0  0
   35.4570   28.8510   43.9060 N   0  0  0  0  0  0  0  0  0  0  0  0
   37.2620   28.0160   43.2180 H   0  0  0  0  0  0  0  0  0  0  0  0
   36.8720   32.2140   42.7650 H   0  0  0  0  0  0  0  0  0  0  0  0
   33.4600   29.9050   44.6480 N   0  0  0  0  0  0  0  0  0  0  0  0
   32.6420   30.9770   45.1790 C   0  0  0  0  0  0  0  0  0  0  0  0
   31.2350   30.6060   44.7020 C   0  0  0  0  0  0  0  0  0  0  0  0
   31.3280   29.1630   44.2320 C   0  0  0  0  0  0  0  0  0  0  0  0
   32.6440   28.7250   44.8640 C   0  0  0  0  0  0  0  0  0  0  0  0
   33.0610   27.8130   44.4180 H   0  0  0  0  0  0  0  0  0  0  0  0
  1 30  1  0  0  0  0
  1  6  1  0  0  0  0
  2  1  1  0  0  0  0
  3  2  1  0  0  0  0
  3  4  1  0  0  0  0
  4 11  1  0  0  0  0
  4  5  1  0  0  0  0
  5 13  1  0  0  0  0
  5  6  1  0  0  0  0
  6 14  1  1  0  0  0
  6 16  1  0  0  0  0
  7  2  1  0  0  0  0
  8  2  1  0  0  0  0
  9  3  1  0  0  0  0
 10  3  1  0  0  0  0
 12  5  1  0  0  0  0
 15 16  2  0  0  0  0
 15 20  1  0  0  0  0
 16 17  1  0  0  0  0
 17 25  1  0  0  0  0
 17 18  2  0  0  0  0
 18 23  1  0  0  0  0
 19 18  1  0  0  0  0
 19 21  1  0  0  0  0
 20 19  2  0  0  0  0
 21 22  1  0  0  0  0
 22 27  1  0  0  0  0
 23 22  1  0  0  0  0
 24 15  1  0  0  0  0
 26 20  1  0  0  0  0
 28 22  1  0  0  0  0
 29 34  1  0  0  0  0
 30 31  1  0  0  0  0
 30 29  2  0  0  0  0
 31 32  2  0  0  0  0
 32 33  1  0  0  0  0
 33 37  1  0  0  0  0
 34 33  2  0  0  0  0
 35 29  1  0  0  0  0
 36 31  1  0  0  0  0
 37 41  1  0  0  0  0
 37 38  1  0  0  0  0
 39 38  1  0  0  0  0
 40 39  1  0  0  0  0
 40 41  1  0  0  0  0
 42 41  1  0  0  0  0
M  END
>  <minimizedAffinity>
-5.17387438

>  <minimizedRMSD>
5.54771137

$$$$
