
 OpenBabel03272510183D

 33 36  0  0  0  0  0  0  0  0999 V2000
   37.4350   29.1680   50.8190 Br  0  0  0  0  0  0  0  0  0  0  0  0
   36.0150   29.2720   49.5470 C   0  0  0  0  0  0  0  0  0  0  0  0
   36.0030   30.2810   48.5830 C   0  0  0  0  0  0  0  0  0  0  0  0
   34.9440   30.2900   47.7000 C   0  0  0  0  0  0  0  0  0  0  0  0
   33.9140   29.3620   47.7250 C   0  0  0  0  0  0  0  0  0  0  0  0
   33.9610   28.3920   48.6800 C   0  0  0  0  0  0  0  0  0  0  0  0
   35.0080   28.3590   49.5770 C   0  0  0  0  0  0  0  0  0  0  0  0
   34.8780   31.0550   46.9210 H   0  0  0  0  0  0  0  0  0  0  0  0
   33.2070   27.6220   48.7850 H   0  0  0  0  0  0  0  0  0  0  0  0
   35.0410   27.5840   50.3360 H   0  0  0  0  0  0  0  0  0  0  0  0
   32.8090   29.3910   46.7830 C   0  0  0  0  0  0  0  0  0  0  0  0
   31.9450   28.3300   46.5660 C   0  0  0  0  0  0  0  0  0  0  0  0
   30.8980   28.3840   45.6610 C   0  0  0  0  0  0  0  0  0  0  0  0
   30.7050   29.5050   44.9640 N   0  0  0  0  0  0  0  0  0  0  0  0
   31.5390   30.5540   45.1610 C   0  0  0  0  0  0  0  0  0  0  0  0
   32.5340   30.4660   46.0390 N   0  0  0  0  0  0  0  0  0  0  0  0
   32.0990   27.4100   47.1360 H   0  0  0  0  0  0  0  0  0  0  0  0
   30.2600   27.5170   45.5410 H   0  0  0  0  0  0  0  0  0  0  0  0
   31.3280   31.7460   44.4140 N   0  0  0  0  0  0  0  0  0  0  0  0
   30.7480   31.7990   43.0630 C   0  0  0  0  0  2  0  0  0  0  0  0
   31.1530   33.1610   42.5240 C   0  0  0  0  0  2  0  0  0  0  0  0
   31.0110   33.9880   43.8080 C   0  0  0  0  0  2  0  0  0  0  0  0
   31.6350   33.1010   44.8280 C   0  0  0  0  0  3  0  0  0  0  0  0
   31.2460   33.3610   45.8230 H   0  0  0  0  0  0  0  0  0  0  0  0
   38.0150   33.1850   49.4680 C   0  0  0  0  0  0  0  0  0  0  0  0
   39.0420   33.1810   48.4670 C   0  0  0  0  0  0  0  0  0  0  0  0
   39.0180   32.1750   47.5070 C   0  0  0  0  0  0  0  0  0  0  0  0
   38.0200   31.2390   47.5610 N   0  0  0  0  0  0  0  0  0  0  0  0
   37.0610   31.2710   48.5230 C   0  0  0  0  0  0  0  0  0  0  0  0
   37.0620   32.2450   49.4750 N   0  0  0  0  0  0  0  0  0  0  0  0
   37.9620   33.9290   50.2460 H   0  0  0  0  0  0  0  0  0  0  0  0
   39.7840   33.9690   48.5170 H   0  0  0  0  0  0  0  0  0  0  0  0
   39.7740   32.1630   46.7610 H   0  0  0  0  0  0  0  0  0  0  0  0
  2  7  1  0  0  0  0
  2  1  1  0  0  0  0
  3  2  2  0  0  0  0
  4  5  2  0  0  0  0
  4  3  1  0  0  0  0
  5  6  1  0  0  0  0
  6  9  1  0  0  0  0
  6  7  2  0  0  0  0
  7 10  1  0  0  0  0
  8  4  1  0  0  0  0
 11  5  1  0  0  0  0
 12 11  1  0  0  0  0
 12 17  1  0  0  0  0
 13 12  2  0  0  0  0
 14 15  2  0  0  0  0
 14 13  1  0  0  0  0
 15 16  1  0  0  0  0
 16 11  2  0  0  0  0
 18 13  1  0  0  0  0
 19 23  1  0  0  0  0
 19 15  1  0  0  0  0
 20 19  1  0  0  0  0
 21 20  1  0  0  0  0
 21 22  1  0  0  0  0
 22 23  1  0  0  0  0
 23 24  1  0  0  0  0
 25 30  1  0  0  0  0
 25 31  1  0  0  0  0
 26 32  1  0  0  0  0
 26 25  2  0  0  0  0
 27 28  2  0  0  0  0
 27 26  1  0  0  0  0
 28 29  1  0  0  0  0
 29  3  1  0  0  0  0
 29 30  2  0  0  0  0
 33 27  1  0  0  0  0
M  END
>  <minimizedAffinity>
-6.63721895

>  <minimizedRMSD>
0.327843696

$$$$
