REMARK  Name = 
REMARK  2 active torsions:
REMARK  status: ('A' for Active; 'I' for Inactive)
REMARK    1  A    between atoms: C_3  and  C_12
REMARK    2  A    between atoms: C_5  and  C_14
REMARK                            x       y       z     vdW  Elec       q    Type
REMARK                         _______ _______ _______ _____ _____    ______ ____
ROOT
ATOM      1 BR   UNL     1      37.318  29.332  51.027  0.00  0.00    +0.000 Br
ATOM      2  C   UNL     1      35.964  29.328  49.681  0.00  0.00    +0.000 A 
ATOM      3  C   UNL     1      35.995  30.262  48.645  0.00  0.00    +0.000 A 
ATOM      4  C   UNL     1      34.982  30.195  47.711  0.00  0.00    +0.000 A 
ATOM      5  C   UNL     1      33.958  29.262  47.754  0.00  0.00    +0.000 A 
ATOM      6  C   UNL     1      33.962  28.366  48.780  0.00  0.00    +0.000 A 
ATOM      7  C   UNL     1      34.962  28.410  49.728  0.00  0.00    +0.000 A 
ATOM      8  H   UNL     1      34.951  30.899  46.875  0.00  0.00    +0.000 HD
ATOM      9  H   UNL     1      33.208  27.598  48.904  0.00  0.00    +0.000 HD
ATOM     10  H   UNL     1      34.961  27.694  50.544  0.00  0.00    +0.000 HD
ENDROOT
BRANCH   5  11
ATOM     11  C   UNL     1      32.902  29.210  46.758  0.00  0.00    +0.000 A 
ATOM     12  C   UNL     1      32.258  28.046  46.368  0.00  0.00    +0.000 A 
ATOM     13  C   UNL     1      31.253  28.025  45.415  0.00  0.00    +0.000 A 
ATOM     14  N   UNL     1      30.882  29.171  44.843  0.00  0.00    +0.000 NA
ATOM     15  C   UNL     1      31.499  30.320  45.210  0.00  0.00    +0.000 A 
ATOM     16  N   UNL     1      32.460  30.302  46.129  0.00  0.00    +0.000 NA
ATOM     17  H   UNL     1      32.559  27.105  46.835  0.00  0.00    +0.000 HD
ATOM     18  H   UNL     1      30.792  27.079  45.157  0.00  0.00    +0.000 HD
ATOM     19  N   UNL     1      31.098  31.539  44.596  0.00  0.00    +0.000 N 
ATOM     20  C   UNL     1      31.862  32.795  44.645  0.00  0.00    +0.000 C 
ATOM     21  C   UNL     1      30.854  33.873  44.281  0.00  0.00    +0.000 C 
ATOM     22  C   UNL     1      30.062  33.117  43.207  0.00  0.00    +0.000 C 
ATOM     23  C   UNL     1      29.894  31.772  43.823  0.00  0.00    +0.000 C 
ATOM     24  H   UNL     1      29.723  31.027  43.032  0.00  0.00    +0.000 HD
ENDBRANCH   5  11
BRANCH   3  29
ATOM     25  C   UNL     1      37.994  33.192  49.469  0.00  0.00    +0.000 A 
ATOM     26  C   UNL     1      39.022  33.172  48.468  0.00  0.00    +0.000 A 
ATOM     27  C   UNL     1      39.002  32.146  47.530  0.00  0.00    +0.000 A 
ATOM     28  N   UNL     1      38.008  31.207  47.603  0.00  0.00    +0.000 NA
ATOM     29  C   UNL     1      37.049  31.255  48.564  0.00  0.00    +0.000 A 
ATOM     30  N   UNL     1      37.045  32.249  49.495  0.00  0.00    +0.000 NA
ATOM     31  H   UNL     1      37.938  33.952  50.231  0.00  0.00    +0.000 HD
ATOM     32  H   UNL     1      39.760  33.964  48.502  0.00  0.00    +0.000 HD
ATOM     33  H   UNL     1      39.758  32.121  46.784  0.00  0.00    +0.000 HD
ENDBRANCH   3  29
TORSDOF 2
