
 OpenBabel03272510033D

 18 19  0  0  0  0  0  0  0  0999 V2000
   38.5320   22.7090   34.9020 C   0  0  0  0  0  0  0  0  0  0  0  0
   38.3210   23.9040   34.2140 C   0  0  0  0  0  0  0  0  0  0  0  0
   38.0850   25.0510   34.9610 C   0  0  0  0  0  0  0  0  0  0  0  0
   38.0730   24.9470   36.3180 N   0  0  0  0  0  0  0  0  0  0  0  0
   38.2790   23.7800   36.9500 C   0  0  0  0  0  0  0  0  0  0  0  0
   38.5090   22.6640   36.2390 N   0  0  0  0  0  0  0  0  0  0  0  0
   38.7170   21.8100   34.3060 H   0  0  0  0  0  0  0  0  0  0  0  0
   38.3290   23.9950   33.1340 H   0  0  0  0  0  0  0  0  0  0  0  0
   37.8550   26.3240   34.4220 N   0  0  0  0  0  0  0  0  0  0  0  0
   36.9320   27.3890   34.7600 C   0  0  0  0  0  2  0  0  0  0  0  0
   36.5620   28.0910   33.4610 C   0  0  0  0  0  2  0  0  0  0  0  0
   37.3180   27.2470   32.4360 C   0  0  0  0  0  2  0  0  0  0  0  0
   38.5540   26.9360   33.2900 C   0  0  0  0  0  3  0  0  0  0  0  0
   39.0150   27.9040   33.6220 H   0  0  0  0  0  0  0  0  0  0  0  0
   38.2470   23.7680   38.4380 C   0  0  0  0  0  0  0  0  0  0  0  0
   37.8670   24.9750   38.9760 F   0  0  0  0  0  0  0  0  0  0  0  0
   37.3540   22.8220   38.9170 F   0  0  0  0  0  0  0  0  0  0  0  0
   39.4740   23.4370   38.9830 F   0  0  0  0  0  0  0  0  0  0  0  0
  1  6  1  0  0  0  0
  2  1  2  0  0  0  0
  2  3  1  0  0  0  0
  3  4  2  0  0  0  0
  4  5  1  0  0  0  0
  5 15  1  0  0  0  0
  6  5  2  0  0  0  0
  7  1  1  0  0  0  0
  8  2  1  0  0  0  0
  9 10  1  0  0  0  0
  9  3  1  0  0  0  0
 11 10  1  0  0  0  0
 12 13  1  0  0  0  0
 12 11  1  0  0  0  0
 13 14  1  0  0  0  0
 13  9  1  0  0  0  0
 15 17  1  0  0  0  0
 15 16  1  0  0  0  0
 15 18  1  0  0  0  0
M  END
>  <minimizedAffinity>
-4.77328539

$$$$

 OpenBabel03272510033D

 18 19  0  0  0  0  0  0  0  0999 V2000
   40.2510   22.7240   35.2060 C   0  0  0  0  0  0  0  0  0  0  0  0
   39.2790   22.1570   34.3830 C   0  0  0  0  0  0  0  0  0  0  0  0
   37.9800   22.0760   34.8690 C   0  0  0  0  0  0  0  0  0  0  0  0
   37.7280   22.5530   36.1200 N   0  0  0  0  0  0  0  0  0  0  0  0
   38.6880   23.0930   36.8880 C   0  0  0  0  0  0  0  0  0  0  0  0
   39.9480   23.1770   36.4280 N   0  0  0  0  0  0  0  0  0  0  0  0
   41.2710   22.7830   34.8150 H   0  0  0  0  0  0  0  0  0  0  0  0
   39.4710   21.7750   33.3860 H   0  0  0  0  0  0  0  0  0  0  0  0
   36.8940   21.5360   34.1680 N   0  0  0  0  0  0  0  0  0  0  0  0
   35.7710   20.7100   34.5670 C   0  0  0  0  0  2  0  0  0  0  0  0
   35.4360   19.8080   33.3860 C   0  0  0  0  0  2  0  0  0  0  0  0
   36.5270   20.1990   32.3900 C   0  0  0  0  0  2  0  0  0  0  0  0
   36.6080   21.6900   32.7400 C   0  0  0  0  0  3  0  0  0  0  0  0
   35.5910   22.1450   32.6160 H   0  0  0  0  0  0  0  0  0  0  0  0
   38.3150   23.5870   38.2420 C   0  0  0  0  0  0  0  0  0  0  0  0
   37.9250   24.9060   38.2420 F   0  0  0  0  0  0  0  0  0  0  0  0
   37.2590   22.8610   38.7720 F   0  0  0  0  0  0  0  0  0  0  0  0
   39.3520   23.4590   39.1470 F   0  0  0  0  0  0  0  0  0  0  0  0
  1  6  1  0  0  0  0
  2  3  1  0  0  0  0
  2  1  2  0  0  0  0
  3  4  2  0  0  0  0
  4  5  1  0  0  0  0
  5 15  1  0  0  0  0
  6  5  2  0  0  0  0
  7  1  1  0  0  0  0
  8  2  1  0  0  0  0
  9 10  1  0  0  0  0
  9  3  1  0  0  0  0
 11 10  1  0  0  0  0
 12 13  1  0  0  0  0
 12 11  1  0  0  0  0
 13  9  1  0  0  0  0
 14 13  1  0  0  0  0
 15 16  1  0  0  0  0
 15 17  1  0  0  0  0
 15 18  1  0  0  0  0
M  END
>  <minimizedAffinity>
-4.6798563

$$$$

 OpenBabel03272510033D

 18 19  0  0  0  0  0  0  0  0999 V2000
   37.7740   22.3560   35.0140 C   0  0  0  0  0  0  0  0  0  0  0  0
   38.1540   23.4550   34.2440 C   0  0  0  0  0  0  0  0  0  0  0  0
   38.5430   24.6110   34.9090 C   0  0  0  0  0  0  0  0  0  0  0  0
   38.5310   24.6090   36.2700 N   0  0  0  0  0  0  0  0  0  0  0  0
   38.1590   23.5320   36.9830 C   0  0  0  0  0  0  0  0  0  0  0  0
   37.7810   22.4080   36.3510 N   0  0  0  0  0  0  0  0  0  0  0  0
   37.4690   21.4490   34.4820 H   0  0  0  0  0  0  0  0  0  0  0  0
   38.1660   23.4650   33.1600 H   0  0  0  0  0  0  0  0  0  0  0  0
   38.9520   25.7960   34.2820 N   0  0  0  0  0  0  0  0  0  0  0  0
   38.8990   26.2570   32.9090 C   0  0  0  0  0  2  0  0  0  0  0  0
   40.1250   27.1320   32.6830 C   0  0  0  0  0  2  0  0  0  0  0  0
   40.8330   27.0130   34.0320 C   0  0  0  0  0  2  0  0  0  0  0  0
   39.5840   26.9520   34.9200 C   0  0  0  0  0  3  0  0  0  0  0  0
   38.9610   27.8650   34.7280 H   0  0  0  0  0  0  0  0  0  0  0  0
   38.1790   23.6270   38.4680 C   0  0  0  0  0  0  0  0  0  0  0  0
   37.7710   24.8550   38.9320 F   0  0  0  0  0  0  0  0  0  0  0  0
   37.3430   22.6850   39.0460 F   0  0  0  0  0  0  0  0  0  0  0  0
   39.4380   23.3830   38.9880 F   0  0  0  0  0  0  0  0  0  0  0  0
  1  6  1  0  0  0  0
  2  3  1  0  0  0  0
  2  1  2  0  0  0  0
  3  4  2  0  0  0  0
  4  5  1  0  0  0  0
  5 15  1  0  0  0  0
  6  5  2  0  0  0  0
  7  1  1  0  0  0  0
  8  2  1  0  0  0  0
  9  3  1  0  0  0  0
  9 13  1  0  0  0  0
 10  9  1  0  0  0  0
 11 10  1  0  0  0  0
 11 12  1  0  0  0  0
 12 13  1  0  0  0  0
 14 13  1  0  0  0  0
 15 16  1  0  0  0  0
 15 18  1  0  0  0  0
 15 17  1  0  0  0  0
M  END
>  <minimizedAffinity>
-4.63248634

$$$$

 OpenBabel03272510033D

 18 19  0  0  0  0  0  0  0  0999 V2000
   38.0810   22.3210   34.8820 C   0  0  0  0  0  0  0  0  0  0  0  0
   38.1290   23.4780   34.1050 C   0  0  0  0  0  0  0  0  0  0  0  0
   38.2120   24.6990   34.7610 C   0  0  0  0  0  0  0  0  0  0  0  0
   38.2430   24.7000   36.1230 N   0  0  0  0  0  0  0  0  0  0  0  0
   38.1950   23.5670   36.8420 C   0  0  0  0  0  0  0  0  0  0  0  0
   38.1150   22.3800   36.2190 N   0  0  0  0  0  0  0  0  0  0  0  0
   38.0150   21.3630   34.3570 H   0  0  0  0  0  0  0  0  0  0  0  0
   38.1040   23.4850   33.0210 H   0  0  0  0  0  0  0  0  0  0  0  0
   38.2680   25.9470   34.1270 N   0  0  0  0  0  0  0  0  0  0  0  0
   37.4190   26.5980   33.1480 C   0  0  0  0  0  2  0  0  0  0  0  0
   38.3200   27.4580   32.2730 C   0  0  0  0  0  2  0  0  0  0  0  0
   39.6980   27.1300   32.8460 C   0  0  0  0  0  2  0  0  0  0  0  0
   39.2860   26.9830   34.3160 C   0  0  0  0  0  3  0  0  0  0  0  0
   38.7870   27.9320   34.6470 H   0  0  0  0  0  0  0  0  0  0  0  0
   38.2350   23.6710   38.3260 C   0  0  0  0  0  0  0  0  0  0  0  0
   39.4750   23.3900   38.8510 F   0  0  0  0  0  0  0  0  0  0  0  0
   37.9030   24.9470   38.7530 F   0  0  0  0  0  0  0  0  0  0  0  0
   37.3250   22.8230   38.9320 F   0  0  0  0  0  0  0  0  0  0  0  0
  1  6  1  0  0  0  0
  2  3  1  0  0  0  0
  2  1  2  0  0  0  0
  3  4  2  0  0  0  0
  4  5  1  0  0  0  0
  5 15  1  0  0  0  0
  6  5  2  0  0  0  0
  7  1  1  0  0  0  0
  8  2  1  0  0  0  0
  9 13  1  0  0  0  0
  9  3  1  0  0  0  0
 10  9  1  0  0  0  0
 11 12  1  0  0  0  0
 11 10  1  0  0  0  0
 12 13  1  0  0  0  0
 13 14  1  0  0  0  0
 15 17  1  0  0  0  0
 15 16  1  0  0  0  0
 15 18  1  0  0  0  0
M  END
>  <minimizedAffinity>
-4.63138723

$$$$

 OpenBabel03272510033D

 18 19  0  0  0  0  0  0  0  0999 V2000
   37.9170   27.6180   35.4440 C   0  0  0  0  0  0  0  0  0  0  0  0
   37.3900   27.4300   34.1660 C   0  0  0  0  0  0  0  0  0  0  0  0
   37.2560   26.1280   33.7030 C   0  0  0  0  0  0  0  0  0  0  0  0
   37.6450   25.1090   34.5180 N   0  0  0  0  0  0  0  0  0  0  0  0
   38.1490   25.3230   35.7440 C   0  0  0  0  0  0  0  0  0  0  0  0
   38.2830   26.5790   36.2040 N   0  0  0  0  0  0  0  0  0  0  0  0
   38.0190   28.6470   35.8020 H   0  0  0  0  0  0  0  0  0  0  0  0
   37.0790   28.2360   33.5110 H   0  0  0  0  0  0  0  0  0  0  0  0
   36.7470   25.7730   32.4460 N   0  0  0  0  0  0  0  0  0  0  0  0
   35.8440   26.4330   31.5230 C   0  0  0  0  0  2  0  0  0  0  0  0
   35.0510   25.3430   30.8160 C   0  0  0  0  0  2  0  0  0  0  0  0
   35.5770   24.0880   31.5110 C   0  0  0  0  0  2  0  0  0  0  0  0
   37.0290   24.5450   31.7010 C   0  0  0  0  0  3  0  0  0  0  0  0
   37.4550   24.8140   30.6980 H   0  0  0  0  0  0  0  0  0  0  0  0
   38.5450   24.1440   36.5610 C   0  0  0  0  0  0  0  0  0  0  0  0
   37.8190   23.0150   36.2610 F   0  0  0  0  0  0  0  0  0  0  0  0
   39.8790   23.8210   36.3690 F   0  0  0  0  0  0  0  0  0  0  0  0
   38.4060   24.3800   37.9170 F   0  0  0  0  0  0  0  0  0  0  0  0
  1  7  1  0  0  0  0
  1  6  1  0  0  0  0
  2  1  2  0  0  0  0
  3  2  1  0  0  0  0
  3  4  2  0  0  0  0
  4  5  1  0  0  0  0
  5  6  2  0  0  0  0
  5 15  1  0  0  0  0
  8  2  1  0  0  0  0
  9  3  1  0  0  0  0
 10  9  1  0  0  0  0
 11 12  1  0  0  0  0
 11 10  1  0  0  0  0
 12 13  1  0  0  0  0
 13  9  1  0  0  0  0
 14 13  1  0  0  0  0
 15 18  1  0  0  0  0
 16 15  1  0  0  0  0
 17 15  1  0  0  0  0
M  END
>  <minimizedAffinity>
-4.52247572

$$$$

 OpenBabel03272510033D

 18 19  0  0  0  0  0  0  0  0999 V2000
   39.2950   21.5660   32.9520 C   0  0  0  0  0  0  0  0  0  0  0  0
   39.6790   22.2780   34.0890 C   0  0  0  0  0  0  0  0  0  0  0  0
   38.7390   22.4520   35.0960 C   0  0  0  0  0  0  0  0  0  0  0  0
   37.4970   21.9220   34.9190 N   0  0  0  0  0  0  0  0  0  0  0  0
   37.1590   21.2420   33.8110 C   0  0  0  0  0  0  0  0  0  0  0  0
   38.0600   21.0660   32.8310 N   0  0  0  0  0  0  0  0  0  0  0  0
   40.0430   21.4340   32.1640 H   0  0  0  0  0  0  0  0  0  0  0  0
   40.6660   22.7030   34.2370 H   0  0  0  0  0  0  0  0  0  0  0  0
   38.9680   23.1400   36.2950 N   0  0  0  0  0  0  0  0  0  0  0  0
   39.7390   22.8280   37.4830 C   0  0  0  0  0  2  0  0  0  0  0  0
   39.0090   23.4470   38.6670 C   0  0  0  0  0  2  0  0  0  0  0  0
   37.7730   24.0320   37.9860 C   0  0  0  0  0  2  0  0  0  0  0  0
   38.4360   24.4520   36.6690 C   0  0  0  0  0  3  0  0  0  0  0  0
   39.2900   25.1430   36.8990 H   0  0  0  0  0  0  0  0  0  0  0  0
   35.7770   20.7000   33.7100 C   0  0  0  0  0  0  0  0  0  0  0  0
   35.1400   20.6240   34.9270 F   0  0  0  0  0  0  0  0  0  0  0  0
   34.9820   21.4890   32.8940 F   0  0  0  0  0  0  0  0  0  0  0  0
   35.7530   19.4350   33.1500 F   0  0  0  0  0  0  0  0  0  0  0  0
  1  2  1  0  0  0  0
  2  8  1  0  0  0  0
  2  3  2  0  0  0  0
  3  9  1  0  0  0  0
  4  3  1  0  0  0  0
  5  4  2  0  0  0  0
  6  1  2  0  0  0  0
  6  5  1  0  0  0  0
  7  1  1  0  0  0  0
  9 13  1  0  0  0  0
  9 10  1  0  0  0  0
 10 11  1  0  0  0  0
 12 11  1  0  0  0  0
 13 14  1  0  0  0  0
 13 12  1  0  0  0  0
 15  5  1  0  0  0  0
 15 16  1  0  0  0  0
 17 15  1  0  0  0  0
 18 15  1  0  0  0  0
M  END
>  <minimizedAffinity>
-4.51541996

$$$$

 OpenBabel03272510033D

 18 19  0  0  0  0  0  0  0  0999 V2000
   37.7640   22.2650   34.8970 C   0  0  0  0  0  0  0  0  0  0  0  0
   38.5820   23.1000   34.1360 C   0  0  0  0  0  0  0  0  0  0  0  0
   39.2710   24.1110   34.7930 C   0  0  0  0  0  0  0  0  0  0  0  0
   39.1110   24.2320   36.1400 N   0  0  0  0  0  0  0  0  0  0  0  0
   38.3150   23.4110   36.8450 C   0  0  0  0  0  0  0  0  0  0  0  0
   37.6440   22.4290   36.2200 N   0  0  0  0  0  0  0  0  0  0  0  0
   37.2250   21.4710   34.3720 H   0  0  0  0  0  0  0  0  0  0  0  0
   38.7150   23.0100   33.0630 H   0  0  0  0  0  0  0  0  0  0  0  0
   40.1290   25.0290   34.1740 N   0  0  0  0  0  0  0  0  0  0  0  0
   41.4390   25.5470   34.5180 C   0  0  0  0  0  2  0  0  0  0  0  0
   41.4970   26.9850   34.0200 C   0  0  0  0  0  2  0  0  0  0  0  0
   40.0860   27.1690   33.4630 C   0  0  0  0  0  2  0  0  0  0  0  0
   39.8870   25.7480   32.9210 C   0  0  0  0  0  3  0  0  0  0  0  0
   40.7150   25.5190   32.2000 H   0  0  0  0  0  0  0  0  0  0  0  0
   38.2050   23.6230   38.3140 C   0  0  0  0  0  0  0  0  0  0  0  0
   37.2710   22.8050   38.9050 F   0  0  0  0  0  0  0  0  0  0  0  0
   39.4100   23.3760   38.9520 F   0  0  0  0  0  0  0  0  0  0  0  0
   37.8730   24.9290   38.6280 F   0  0  0  0  0  0  0  0  0  0  0  0
  1  6  1  0  0  0  0
  2  3  1  0  0  0  0
  2  1  2  0  0  0  0
  3  4  2  0  0  0  0
  4  5  1  0  0  0  0
  5 15  1  0  0  0  0
  6  5  2  0  0  0  0
  7  1  1  0  0  0  0
  8  2  1  0  0  0  0
  9 10  1  0  0  0  0
  9  3  1  0  0  0  0
 11 10  1  0  0  0  0
 12 11  1  0  0  0  0
 13 12  1  0  0  0  0
 13  9  1  0  0  0  0
 14 13  1  0  0  0  0
 15 18  1  0  0  0  0
 15 16  1  0  0  0  0
 15 17  1  0  0  0  0
M  END
>  <minimizedAffinity>
-4.45280075

$$$$

 OpenBabel03272510033D

 18 19  0  0  0  0  0  0  0  0999 V2000
   38.4290   26.2290   35.2720 C   0  0  0  0  0  0  0  0  0  0  0  0
   38.1920   25.3810   34.1900 C   0  0  0  0  0  0  0  0  0  0  0  0
   37.9550   24.0380   34.4560 C   0  0  0  0  0  0  0  0  0  0  0  0
   37.9670   23.6250   35.7530 N   0  0  0  0  0  0  0  0  0  0  0  0
   38.1990   24.4680   36.7730 C   0  0  0  0  0  0  0  0  0  0  0  0
   38.4290   25.7690   36.5280 N   0  0  0  0  0  0  0  0  0  0  0  0
   38.6150   27.2850   35.0530 H   0  0  0  0  0  0  0  0  0  0  0  0
   38.1810   25.7020   33.1540 H   0  0  0  0  0  0  0  0  0  0  0  0
   37.7020   23.0620   33.4830 N   0  0  0  0  0  0  0  0  0  0  0  0
   37.2610   23.1310   32.1040 C   0  0  0  0  0  2  0  0  0  0  0  0
   36.4140   21.8930   31.8410 C   0  0  0  0  0  2  0  0  0  0  0  0
   36.4070   21.2350   33.2200 C   0  0  0  0  0  2  0  0  0  0  0  0
   37.8330   21.6120   33.6410 C   0  0  0  0  0  3  0  0  0  0  0  0
   38.5510   21.2220   32.8720 H   0  0  0  0  0  0  0  0  0  0  0  0
   38.1910   23.9210   38.1570 C   0  0  0  0  0  0  0  0  0  0  0  0
   37.2550   22.9300   38.3360 F   0  0  0  0  0  0  0  0  0  0  0  0
   39.4190   23.3710   38.4900 F   0  0  0  0  0  0  0  0  0  0  0  0
   37.9470   24.9000   39.1020 F   0  0  0  0  0  0  0  0  0  0  0  0
  1  6  1  0  0  0  0
  2  3  1  0  0  0  0
  2  1  2  0  0  0  0
  3  4  2  0  0  0  0
  4  5  1  0  0  0  0
  5 15  1  0  0  0  0
  6  5  2  0  0  0  0
  7  1  1  0  0  0  0
  8  2  1  0  0  0  0
  9 13  1  0  0  0  0
  9  3  1  0  0  0  0
 10  9  1  0  0  0  0
 11 10  1  0  0  0  0
 11 12  1  0  0  0  0
 12 13  1  0  0  0  0
 14 13  1  0  0  0  0
 15 16  1  0  0  0  0
 15 17  1  0  0  0  0
 15 18  1  0  0  0  0
M  END
>  <minimizedAffinity>
-4.33514357

$$$$

 OpenBabel03272510033D

 18 19  0  0  0  0  0  0  0  0999 V2000
   35.7320   25.8600   31.0430 C   0  0  0  0  0  0  0  0  0  0  0  0
   36.5190   26.3520   32.0840 C   0  0  0  0  0  0  0  0  0  0  0  0
   37.1080   25.4350   32.9450 C   0  0  0  0  0  0  0  0  0  0  0  0
   36.8850   24.1100   32.7270 N   0  0  0  0  0  0  0  0  0  0  0  0
   36.1210   23.6680   31.7140 C   0  0  0  0  0  0  0  0  0  0  0  0
   35.5460   24.5450   30.8750 N   0  0  0  0  0  0  0  0  0  0  0  0
   35.2710   26.5900   30.3700 H   0  0  0  0  0  0  0  0  0  0  0  0
   36.7010   27.4060   32.2650 H   0  0  0  0  0  0  0  0  0  0  0  0
   37.9230   25.7680   34.0350 N   0  0  0  0  0  0  0  0  0  0  0  0
   37.6540   26.3850   35.3190 C   0  0  0  0  0  2  0  0  0  0  0  0
   38.8830   27.2030   35.6900 C   0  0  0  0  0  2  0  0  0  0  0  0
   39.7610   27.0050   34.4540 C   0  0  0  0  0  2  0  0  0  0  0  0
   39.3670   25.5540   34.1470 C   0  0  0  0  0  3  0  0  0  0  0  0
   39.5760   24.9250   35.0510 H   0  0  0  0  0  0  0  0  0  0  0  0
   35.9370   22.1990   31.5570 C   0  0  0  0  0  0  0  0  0  0  0  0
   35.3530   21.6120   32.6560 F   0  0  0  0  0  0  0  0  0  0  0  0
   35.1270   21.9040   30.4720 F   0  0  0  0  0  0  0  0  0  0  0  0
   37.1340   21.5460   31.3240 F   0  0  0  0  0  0  0  0  0  0  0  0
  1  2  1  0  0  0  0
  2  8  1  0  0  0  0
  2  3  2  0  0  0  0
  3  9  1  0  0  0  0
  4  3  1  0  0  0  0
  5  4  2  0  0  0  0
  6  1  2  0  0  0  0
  6  5  1  0  0  0  0
  7  1  1  0  0  0  0
  9 13  1  0  0  0  0
  9 10  1  0  0  0  0
 10 11  1  0  0  0  0
 12 11  1  0  0  0  0
 13 12  1  0  0  0  0
 13 14  1  0  0  0  0
 15  5  1  0  0  0  0
 15 16  1  0  0  0  0
 17 15  1  0  0  0  0
 18 15  1  0  0  0  0
M  END
>  <minimizedAffinity>
-4.21349955

$$$$
