
     RDKit          3D

 34 36  0  0  0  0  0  0  0  0999 V2000
   34.9395   28.7891   48.6920 C   0  0  0  0  0  0  0  0  0  0  0  0
   34.5919   27.8445   49.4977 O   0  0  0  0  0  0  0  0  0  0  0  0
   33.0207   30.5853   46.1828 C   0  0  0  0  0  0  0  0  0  0  0  0
   32.8282   29.6490   45.1788 C   0  0  0  0  0  0  0  0  0  0  0  0
   33.3524   28.3831   45.3513 C   0  0  0  0  0  0  0  0  0  0  0  0
   34.0456   28.0678   46.4908 N   0  0  0  0  0  0  0  0  0  0  0  0
   34.2133   29.0030   47.4439 C   0  0  0  0  0  0  0  0  0  0  0  0
   33.7002   30.2167   47.2591 N   0  0  0  0  0  0  0  0  0  0  0  0
   36.0701   29.5629   49.1527 C   0  0  0  0  0  0  0  0  0  0  0  0
   36.2788   29.6838   50.5231 C   0  0  0  0  0  0  0  0  0  0  0  0
   37.3653   30.4291   51.0261 C   0  0  0  0  0  0  0  0  0  0  0  0
   38.2482   31.0574   50.1549 C   0  0  0  0  0  0  0  0  0  0  0  0
   38.0219   30.9240   48.7979 C   0  0  0  0  0  0  0  0  0  0  0  0
   36.9521   30.1895   48.3239 C   0  0  0  0  0  0  0  0  0  0  0  0
   32.5955   31.5492   46.0020 H   0  0  0  0  0  0  0  0  0  0  0  0
   32.2860   29.8801   44.2766 H   0  0  0  0  0  0  0  0  0  0  0  0
   33.2046   27.6510   44.5723 H   0  0  0  0  0  0  0  0  0  0  0  0
   35.5905   29.1943   51.1961 H   0  0  0  0  0  0  0  0  0  0  0  0
   37.4324   30.4567   52.1026 H   0  0  0  0  0  0  0  0  0  0  0  0
   39.0515   31.6066   50.6343 H   0  0  0  0  0  0  0  0  0  0  0  0
   38.7503   31.4405   48.1884 H   0  0  0  0  0  0  0  0  0  0  0  0
   36.8981   30.1568   46.9105 N   0  0  0  0  0  0  0  0  0  0  0  0
   36.5281   29.3479   45.7685 C   0  0  0  0  0  0  0  0  0  0  0  0
   37.8431   29.2454   45.0270 C   0  0  0  0  0  0  0  0  0  0  0  0
   38.2819   30.6946   45.0613 C   0  0  0  0  0  0  0  0  0  0  0  0
   37.3477   31.2722   46.0976 C   0  0  1  0  0  0  0  0  0  0  0  0
   36.5559   31.8851   45.6757 H   0  0  0  0  0  0  0  0  0  0  0  0
   35.8370   29.8887   45.0735 H   0  0  0  0  0  0  0  0  0  0  0  0
   36.1286   28.3601   46.0589 H   0  0  0  0  0  0  0  0  0  0  0  0
   37.6138   28.9022   44.0035 H   0  0  0  0  0  0  0  0  0  0  0  0
   38.5774   28.6100   45.5545 H   0  0  0  0  0  0  0  0  0  0  0  0
   38.1091   31.1820   44.0685 H   0  0  0  0  0  0  0  0  0  0  0  0
   39.3413   30.7208   45.3447 H   0  0  0  0  0  0  0  0  0  0  0  0
   37.9969   31.9899   46.6800 H   0  0  0  0  0  0  0  0  0  0  0  0
  1  9  1  0
  1  2  2  0
  3  8  2  0
  4  5  2  0
  4  3  1  0
  5  6  1  0
  6  7  2  0
  7  1  1  0
  8  7  1  0
  9 10  2  0
 10 11  1  0
 12 11  2  0
 13 12  1  0
 14 13  2  0
 14  9  1  0
  3 15  1  0
  4 16  1  0
  5 17  1  0
 10 18  1  0
 11 19  1  0
 12 20  1  0
 13 21  1  0
 22 23  1  0
 23 24  1  0
 24 25  1  0
 25 26  1  0
 26 27  1  6
 26 22  1  0
 23 28  1  0
 23 29  1  0
 24 30  1  0
 24 31  1  0
 25 32  1  0
 25 33  1  0
 26 34  1  0
 14 22  1  0
M  ISO  8  15  14  16  14  17  14  18  14  19  14  20  14  21  14  27  13
M  END
>  <DihAtoms>  (1) 
12,13,21,22

>  <DihDeg>  (1) 
117.1459315547704

$$$$
