
 OpenBabel03272506283D

 39 42  0  0  0  0  0  0  0  0999 V2000
   39.5180   24.2620   35.2070 C   0  0  0  0  0  0  0  0  0  0  0  0
   40.8230   23.8030   35.2290 C   0  0  0  0  0  0  0  0  0  0  0  0
   41.9470   24.6200   35.0850 C   0  0  0  0  0  0  0  0  0  0  0  0
   41.7410   26.0050   34.9060 C   0  0  0  0  0  0  0  0  0  0  0  0
   40.4340   26.4400   34.8870 C   0  0  0  0  0  0  0  0  0  0  0  0
   39.3440   25.6330   35.0280 C   0  0  0  0  0  0  0  0  0  0  0  0
   41.0220   22.7280   35.3670 H   0  0  0  0  0  0  0  0  0  0  0  0
   42.9290   24.1410   35.1200 H   0  0  0  0  0  0  0  0  0  0  0  0
   42.6720   26.5390   34.8060 H   0  0  0  0  0  0  0  0  0  0  0  0
   40.4970   27.4870   34.7340 H   0  0  0  0  0  0  0  0  0  0  0  0
   38.0480   22.6260   34.2050 C   0  0  0  0  0  0  0  0  0  0  0  0
   38.4860   23.2770   35.3680 C   0  0  0  0  0  0  0  0  0  0  0  0
   37.8930   22.9240   36.5870 C   0  0  0  0  0  0  0  0  0  0  0  0
   36.9230   21.9700   36.5880 N   0  0  0  0  0  0  0  0  0  0  0  0
   36.5140   21.3520   35.4420 C   0  0  0  0  0  0  0  0  0  0  0  0
   37.0810   21.6840   34.2520 N   0  0  0  0  0  0  0  0  0  0  0  0
   38.4870   22.8760   33.2500 H   0  0  0  0  0  0  0  0  0  0  0  0
   35.7330   20.6130   35.5960 H   0  0  0  0  0  0  0  0  0  0  0  0
   38.2520   23.5270   37.8950 C   0  0  0  0  0  0  0  0  0  0  0  0
   39.5910   23.2120   38.2060 F   0  0  0  0  0  0  0  0  0  0  0  0
   38.0920   24.8620   37.9960 F   0  0  0  0  0  0  0  0  0  0  0  0
   37.5270   22.9100   38.9160 F   0  0  0  0  0  0  0  0  0  0  0  0
   37.6880   26.2110   35.0080 S   0  0  0  0  0  0  0  0  0  0  0  0
   36.3350   28.9810   34.6050 Cl  0  0  0  0  0  0  0  0  0  0  0  0
   36.5050   27.8670   33.2660 C   0  0  0  0  0  0  0  0  0  0  0  0
   37.0900   26.6150   33.3900 C   0  0  0  0  0  0  0  0  0  0  0  0
   37.1900   25.7880   32.3080 C   0  0  0  0  0  0  0  0  0  0  0  0
   36.7090   26.2110   31.0920 C   0  0  0  0  0  0  0  0  0  0  0  0
   36.1190   27.4700   30.9560 C   0  0  0  0  0  0  0  0  0  0  0  0
   36.0100   28.3140   32.0430 C   0  0  0  0  0  0  0  0  0  0  0  0
   37.5820   24.8060   32.3050 H   0  0  0  0  0  0  0  0  0  0  0  0
   36.7490   25.6240   30.1850 H   0  0  0  0  0  0  0  0  0  0  0  0
   35.7390   27.8120   30.0130 H   0  0  0  0  0  0  0  0  0  0  0  0
   35.4060   29.5980   31.9070 N   0  0  0  0  0  0  0  0  0  0  0  0
   34.0450   30.0150   32.1840 C   0  0  0  0  0  2  0  0  0  0  0  0
   34.1200   31.5260   32.1220 C   0  0  0  0  0  2  0  0  0  0  0  0
   35.1140   31.7390   30.9950 C   0  0  0  0  0  2  0  0  0  0  0  0
   36.1880   30.7450   31.4210 C   0  0  0  0  0  3  0  0  0  0  0  0
   36.7070   31.1600   32.3270 H   0  0  0  0  0  0  0  0  0  0  0  0
  1  2  1  0  0  0  0
  1 12  1  0  0  0  0
  2  7  1  0  0  0  0
  3  8  1  0  0  0  0
  3  2  2  0  0  0  0
  4  3  1  0  0  0  0
  5  4  2  0  0  0  0
  5  6  1  0  0  0  0
  6  1  2  0  0  0  0
  9  4  1  0  0  0  0
 10  5  1  0  0  0  0
 11 16  2  0  0  0  0
 11 12  1  0  0  0  0
 12 13  2  0  0  0  0
 13 14  1  0  0  0  0
 13 19  1  0  0  0  0
 15 18  1  0  0  0  0
 15 14  2  0  0  0  0
 16 15  1  0  0  0  0
 17 11  1  0  0  0  0
 19 21  1  0  0  0  0
 19 20  1  0  0  0  0
 19 22  1  0  0  0  0
 23  6  1  0  0  0  0
 25 26  1  0  0  0  0
 25 24  1  0  0  0  0
 26 23  1  0  0  0  0
 27 26  2  0  0  0  0
 28 27  1  0  0  0  0
 29 28  2  0  0  0  0
 29 30  1  0  0  0  0
 30 25  2  0  0  0  0
 31 27  1  0  0  0  0
 32 28  1  0  0  0  0
 33 29  1  0  0  0  0
 34 30  1  0  0  0  0
 34 35  1  0  0  0  0
 36 35  1  0  0  0  0
 37 38  1  0  0  0  0
 37 36  1  0  0  0  0
 38 34  1  0  0  0  0
 38 39  1  0  0  0  0
M  END
>  <minimizedAffinity>
-6.12103558

$$$$

 OpenBabel03272506283D

 39 42  0  0  0  0  0  0  0  0999 V2000
   39.1630   26.0210   34.8180 C   0  0  0  0  0  0  0  0  0  0  0  0
   38.8870   26.9470   35.8090 C   0  0  0  0  0  0  0  0  0  0  0  0
   37.8570   27.8880   35.7420 C   0  0  0  0  0  0  0  0  0  0  0  0
   37.0430   27.8980   34.5890 C   0  0  0  0  0  0  0  0  0  0  0  0
   37.3350   26.9680   33.6150 C   0  0  0  0  0  0  0  0  0  0  0  0
   38.3440   26.0540   33.6920 C   0  0  0  0  0  0  0  0  0  0  0  0
   39.5020   26.9680   36.7230 H   0  0  0  0  0  0  0  0  0  0  0  0
   37.7370   28.5690   36.5890 H   0  0  0  0  0  0  0  0  0  0  0  0
   36.2830   28.6600   34.6420 H   0  0  0  0  0  0  0  0  0  0  0  0
   36.6290   27.1470   32.8460 H   0  0  0  0  0  0  0  0  0  0  0  0
   41.5240   25.5480   34.6020 C   0  0  0  0  0  0  0  0  0  0  0  0
   40.2640   25.1310   35.0570 C   0  0  0  0  0  0  0  0  0  0  0  0
   40.1710   23.8910   35.7040 C   0  0  0  0  0  0  0  0  0  0  0  0
   41.3020   23.1520   35.8600 N   0  0  0  0  0  0  0  0  0  0  0  0
   42.5160   23.5800   35.4070 C   0  0  0  0  0  0  0  0  0  0  0  0
   42.6210   24.7810   34.7780 N   0  0  0  0  0  0  0  0  0  0  0  0
   41.6260   26.5000   34.1000 H   0  0  0  0  0  0  0  0  0  0  0  0
   43.3280   22.8850   35.6020 H   0  0  0  0  0  0  0  0  0  0  0  0
   38.9080   23.3200   36.2350 C   0  0  0  0  0  0  0  0  0  0  0  0
   38.5780   23.9600   37.4480 F   0  0  0  0  0  0  0  0  0  0  0  0
   37.8400   23.3790   35.4160 F   0  0  0  0  0  0  0  0  0  0  0  0
   39.1120   21.9920   36.6130 F   0  0  0  0  0  0  0  0  0  0  0  0
   38.6930   24.8740   32.4420 S   0  0  0  0  0  0  0  0  0  0  0  0
   38.6270   21.7890   32.8280 Cl  0  0  0  0  0  0  0  0  0  0  0  0
   37.2870   22.6240   32.0740 C   0  0  0  0  0  0  0  0  0  0  0  0
   37.2660   23.9960   31.8660 C   0  0  0  0  0  0  0  0  0  0  0  0
   36.1920   24.5890   31.2670 C   0  0  0  0  0  0  0  0  0  0  0  0
   35.1270   23.8130   30.8760 C   0  0  0  0  0  0  0  0  0  0  0  0
   35.1370   22.4310   31.0820 C   0  0  0  0  0  0  0  0  0  0  0  0
   36.2180   21.8190   31.6840 C   0  0  0  0  0  0  0  0  0  0  0  0
   36.0940   25.6150   31.0310 H   0  0  0  0  0  0  0  0  0  0  0  0
   34.2370   24.1990   30.3980 H   0  0  0  0  0  0  0  0  0  0  0  0
   34.3130   21.8140   30.7800 H   0  0  0  0  0  0  0  0  0  0  0  0
   36.2310   20.4090   31.8910 N   0  0  0  0  0  0  0  0  0  0  0  0
   36.7680   19.3540   31.0540 C   0  0  0  0  0  2  0  0  0  0  0  0
   36.7330   18.1380   31.9530 C   0  0  0  0  0  2  0  0  0  0  0  0
   35.4460   18.3630   32.7270 C   0  0  0  0  0  2  0  0  0  0  0  0
   35.6380   19.8270   33.1050 C   0  0  0  0  0  3  0  0  0  0  0  0
   36.4430   19.8820   33.8870 H   0  0  0  0  0  0  0  0  0  0  0  0
  1 12  1  0  0  0  0
  1  2  1  0  0  0  0
  2  7  1  0  0  0  0
  3  2  2  0  0  0  0
  3  8  1  0  0  0  0
  4  9  1  0  0  0  0
  4  3  1  0  0  0  0
  5  6  1  0  0  0  0
  5  4  2  0  0  0  0
  6  1  2  0  0  0  0
 10  5  1  0  0  0  0
 11 16  2  0  0  0  0
 11 12  1  0  0  0  0
 12 13  2  0  0  0  0
 13 14  1  0  0  0  0
 13 19  1  0  0  0  0
 15 18  1  0  0  0  0
 15 14  2  0  0  0  0
 16 15  1  0  0  0  0
 17 11  1  0  0  0  0
 19 22  1  0  0  0  0
 19 20  1  0  0  0  0
 21 19  1  0  0  0  0
 23  6  1  0  0  0  0
 25 24  1  0  0  0  0
 26 25  1  0  0  0  0
 26 23  1  0  0  0  0
 27 26  2  0  0  0  0
 28 29  2  0  0  0  0
 28 27  1  0  0  0  0
 29 30  1  0  0  0  0
 30 34  1  0  0  0  0
 30 25  2  0  0  0  0
 31 27  1  0  0  0  0
 32 28  1  0  0  0  0
 33 29  1  0  0  0  0
 34 38  1  0  0  0  0
 35 34  1  0  0  0  0
 35 36  1  0  0  0  0
 36 37  1  0  0  0  0
 37 38  1  0  0  0  0
 38 39  1  0  0  0  0
M  END
>  <minimizedAffinity>
-6.03478813

$$$$

 OpenBabel03272506283D

 39 42  0  0  0  0  0  0  0  0999 V2000
   38.1010   23.5880   33.0570 C   0  0  0  0  0  0  0  0  0  0  0  0
   37.4520   22.3740   32.9080 C   0  0  0  0  0  0  0  0  0  0  0  0
   36.2670   22.1990   32.1890 C   0  0  0  0  0  0  0  0  0  0  0  0
   35.6920   23.3330   31.5740 C   0  0  0  0  0  0  0  0  0  0  0  0
   36.3550   24.5290   31.7350 C   0  0  0  0  0  0  0  0  0  0  0  0
   37.5110   24.6880   32.4390 C   0  0  0  0  0  0  0  0  0  0  0  0
   37.8720   21.4690   33.3740 H   0  0  0  0  0  0  0  0  0  0  0  0
   35.8470   21.1910   32.1420 H   0  0  0  0  0  0  0  0  0  0  0  0
   34.7840   23.0850   31.0480 H   0  0  0  0  0  0  0  0  0  0  0  0
   35.7650   25.2400   31.2160 H   0  0  0  0  0  0  0  0  0  0  0  0
   40.5090   23.3890   33.1320 C   0  0  0  0  0  0  0  0  0  0  0  0
   39.3090   23.5800   33.8330 C   0  0  0  0  0  0  0  0  0  0  0  0
   39.3740   23.7460   35.2230 C   0  0  0  0  0  0  0  0  0  0  0  0
   40.5930   23.7150   35.8260 N   0  0  0  0  0  0  0  0  0  0  0  0
   41.7460   23.5270   35.1210 C   0  0  0  0  0  0  0  0  0  0  0  0
   41.6980   23.3650   33.7720 N   0  0  0  0  0  0  0  0  0  0  0  0
   40.4900   23.2580   32.0590 H   0  0  0  0  0  0  0  0  0  0  0  0
   42.6410   23.5250   35.7360 H   0  0  0  0  0  0  0  0  0  0  0  0
   38.1910   23.9550   36.0950 C   0  0  0  0  0  0  0  0  0  0  0  0
   38.6120   24.0940   37.4330 F   0  0  0  0  0  0  0  0  0  0  0  0
   37.4030   25.0030   35.7830 F   0  0  0  0  0  0  0  0  0  0  0  0
   37.4110   22.7970   36.1180 F   0  0  0  0  0  0  0  0  0  0  0  0
   38.3420   26.2220   32.6250 S   0  0  0  0  0  0  0  0  0  0  0  0
   36.6070   27.7350   34.7160 Cl  0  0  0  0  0  0  0  0  0  0  0  0
   36.6560   28.2600   33.0470 C   0  0  0  0  0  0  0  0  0  0  0  0
   37.4020   27.6170   32.0700 C   0  0  0  0  0  0  0  0  0  0  0  0
   37.3950   28.0730   30.7830 C   0  0  0  0  0  0  0  0  0  0  0  0
   36.6440   29.1790   30.4650 C   0  0  0  0  0  0  0  0  0  0  0  0
   35.8890   29.8340   31.4420 C   0  0  0  0  0  0  0  0  0  0  0  0
   35.8850   29.3810   32.7460 C   0  0  0  0  0  0  0  0  0  0  0  0
   37.8970   27.6360   29.9620 H   0  0  0  0  0  0  0  0  0  0  0  0
   36.5820   29.6080   29.4750 H   0  0  0  0  0  0  0  0  0  0  0  0
   35.2970   30.6980   31.2070 H   0  0  0  0  0  0  0  0  0  0  0  0
   35.1130   30.0470   33.7430 N   0  0  0  0  0  0  0  0  0  0  0  0
   35.5150   31.0540   34.7050 C   0  0  0  0  0  2  0  0  0  0  0  0
   34.1990   31.5560   35.2590 C   0  0  0  0  0  2  0  0  0  0  0  0
   33.3740   30.2820   35.2980 C   0  0  0  0  0  2  0  0  0  0  0  0
   33.6830   29.7450   33.9050 C   0  0  0  0  0  3  0  0  0  0  0  0
   33.1530   30.3940   33.1570 H   0  0  0  0  0  0  0  0  0  0  0  0
  1 12  1  0  0  0  0
  2  1  1  0  0  0  0
  2  7  1  0  0  0  0
  3  2  2  0  0  0  0
  4  5  2  0  0  0  0
  4  3  1  0  0  0  0
  5  6  1  0  0  0  0
  6 23  1  0  0  0  0
  6  1  2  0  0  0  0
  8  3  1  0  0  0  0
  9  4  1  0  0  0  0
 10  5  1  0  0  0  0
 11 16  2  0  0  0  0
 11 12  1  0  0  0  0
 12 13  2  0  0  0  0
 13 14  1  0  0  0  0
 13 19  1  0  0  0  0
 15 18  1  0  0  0  0
 15 14  2  0  0  0  0
 16 15  1  0  0  0  0
 17 11  1  0  0  0  0
 19 22  1  0  0  0  0
 19 20  1  0  0  0  0
 21 19  1  0  0  0  0
 25 24  1  0  0  0  0
 26 23  1  0  0  0  0
 26 25  2  0  0  0  0
 27 26  1  0  0  0  0
 28 27  2  0  0  0  0
 28 29  1  0  0  0  0
 29 30  2  0  0  0  0
 30 25  1  0  0  0  0
 30 34  1  0  0  0  0
 31 27  1  0  0  0  0
 32 28  1  0  0  0  0
 33 29  1  0  0  0  0
 34 38  1  0  0  0  0
 34 35  1  0  0  0  0
 35 36  1  0  0  0  0
 36 37  1  0  0  0  0
 38 37  1  0  0  0  0
 39 38  1  0  0  0  0
M  END
>  <minimizedAffinity>
-5.85097313

$$$$

 OpenBabel03272506283D

 39 42  0  0  0  0  0  0  0  0999 V2000
   37.8250   22.3330   33.5360 C   0  0  0  0  0  0  0  0  0  0  0  0
   36.9500   21.2610   33.5410 C   0  0  0  0  0  0  0  0  0  0  0  0
   35.7870   21.1910   32.7700 C   0  0  0  0  0  0  0  0  0  0  0  0
   35.4820   22.2850   31.9300 C   0  0  0  0  0  0  0  0  0  0  0  0
   36.3670   23.3400   31.9410 C   0  0  0  0  0  0  0  0  0  0  0  0
   37.5000   23.3980   32.6980 C   0  0  0  0  0  0  0  0  0  0  0  0
   37.1560   20.3910   34.1840 H   0  0  0  0  0  0  0  0  0  0  0  0
   35.1730   20.2910   32.8590 H   0  0  0  0  0  0  0  0  0  0  0  0
   34.5670   22.1260   31.3830 H   0  0  0  0  0  0  0  0  0  0  0  0
   35.9580   24.0470   31.2650 H   0  0  0  0  0  0  0  0  0  0  0  0
   40.1740   21.8280   33.8000 C   0  0  0  0  0  0  0  0  0  0  0  0
   38.9700   22.2330   34.3960 C   0  0  0  0  0  0  0  0  0  0  0  0
   38.9720   22.5060   35.7710 C   0  0  0  0  0  0  0  0  0  0  0  0
   40.1360   22.3660   36.4610 N   0  0  0  0  0  0  0  0  0  0  0  0
   41.2930   21.9690   35.8570 C   0  0  0  0  0  0  0  0  0  0  0  0
   41.3070   21.7020   34.5240 N   0  0  0  0  0  0  0  0  0  0  0  0
   40.2030   21.6110   32.7420 H   0  0  0  0  0  0  0  0  0  0  0  0
   42.1400   21.9020   36.5340 H   0  0  0  0  0  0  0  0  0  0  0  0
   37.7770   22.9400   36.5360 C   0  0  0  0  0  0  0  0  0  0  0  0
   38.1110   23.0620   37.9000 F   0  0  0  0  0  0  0  0  0  0  0  0
   37.2010   24.0900   36.1330 F   0  0  0  0  0  0  0  0  0  0  0  0
   36.8150   21.9290   36.5260 F   0  0  0  0  0  0  0  0  0  0  0  0
   38.6160   24.7510   32.6910 S   0  0  0  0  0  0  0  0  0  0  0  0
   36.6880   26.7370   31.2740 Cl  0  0  0  0  0  0  0  0  0  0  0  0
   37.1810   27.0000   32.9320 C   0  0  0  0  0  0  0  0  0  0  0  0
   38.0470   26.1540   33.6110 C   0  0  0  0  0  0  0  0  0  0  0  0
   38.3980   26.4150   34.9040 C   0  0  0  0  0  0  0  0  0  0  0  0
   37.8810   27.5240   35.5300 C   0  0  0  0  0  0  0  0  0  0  0  0
   37.0070   28.3820   34.8560 C   0  0  0  0  0  0  0  0  0  0  0  0
   36.6470   28.1300   33.5470 C   0  0  0  0  0  0  0  0  0  0  0  0
   39.0740   25.8570   35.4940 H   0  0  0  0  0  0  0  0  0  0  0  0
   38.1020   27.8050   36.5500 H   0  0  0  0  0  0  0  0  0  0  0  0
   36.5980   29.2520   35.3320 H   0  0  0  0  0  0  0  0  0  0  0  0
   35.7590   29.0070   32.8580 N   0  0  0  0  0  0  0  0  0  0  0  0
   34.3100   29.0130   32.8180 C   0  0  0  0  0  2  0  0  0  0  0  0
   33.9800   30.3410   32.1720 C   0  0  0  0  0  2  0  0  0  0  0  0
   35.0960   30.4720   31.1500 C   0  0  0  0  0  2  0  0  0  0  0  0
   36.2830   30.1060   32.0340 C   0  0  0  0  0  3  0  0  0  0  0  0
   36.4620   30.9560   32.7470 H   0  0  0  0  0  0  0  0  0  0  0  0
  1  2  1  0  0  0  0
  1 12  1  0  0  0  0
  2  7  1  0  0  0  0
  3  8  1  0  0  0  0
  3  2  2  0  0  0  0
  4  5  2  0  0  0  0
  4  3  1  0  0  0  0
  5  6  1  0  0  0  0
  6  1  2  0  0  0  0
  9  4  1  0  0  0  0
 10  5  1  0  0  0  0
 11 12  2  0  0  0  0
 11 16  1  0  0  0  0
 12 13  1  0  0  0  0
 13 14  2  0  0  0  0
 13 19  1  0  0  0  0
 15 14  1  0  0  0  0
 15 18  1  0  0  0  0
 16 15  2  0  0  0  0
 17 11  1  0  0  0  0
 19 20  1  0  0  0  0
 21 19  1  0  0  0  0
 22 19  1  0  0  0  0
 23  6  1  0  0  0  0
 23 26  1  0  0  0  0
 24 25  1  0  0  0  0
 25 30  2  0  0  0  0
 25 26  1  0  0  0  0
 26 27  2  0  0  0  0
 27 31  1  0  0  0  0
 27 28  1  0  0  0  0
 28 32  1  0  0  0  0
 29 33  1  0  0  0  0
 29 28  2  0  0  0  0
 30 29  1  0  0  0  0
 34 30  1  0  0  0  0
 35 34  1  0  0  0  0
 36 35  1  0  0  0  0
 37 38  1  0  0  0  0
 37 36  1  0  0  0  0
 38 39  1  0  0  0  0
 38 34  1  0  0  0  0
M  END
>  <minimizedAffinity>
-5.84550285

$$$$

 OpenBabel03272506283D

 39 42  0  0  0  0  0  0  0  0999 V2000
   39.4520   24.7090   34.4070 C   0  0  0  0  0  0  0  0  0  0  0  0
   40.7990   24.4760   34.6220 C   0  0  0  0  0  0  0  0  0  0  0  0
   41.7800   25.4700   34.6180 C   0  0  0  0  0  0  0  0  0  0  0  0
   41.3730   26.8010   34.3770 C   0  0  0  0  0  0  0  0  0  0  0  0
   40.0280   27.0100   34.1660 C   0  0  0  0  0  0  0  0  0  0  0  0
   39.0790   26.0310   34.1730 C   0  0  0  0  0  0  0  0  0  0  0  0
   41.1520   23.4500   34.8140 H   0  0  0  0  0  0  0  0  0  0  0  0
   42.8130   25.1640   34.8010 H   0  0  0  0  0  0  0  0  0  0  0  0
   42.2070   27.4840   34.3960 H   0  0  0  0  0  0  0  0  0  0  0  0
   39.9370   28.0520   33.9970 H   0  0  0  0  0  0  0  0  0  0  0  0
   38.2990   22.9480   33.2190 C   0  0  0  0  0  0  0  0  0  0  0  0
   38.5860   23.5640   34.4460 C   0  0  0  0  0  0  0  0  0  0  0  0
   38.0150   23.0250   35.6070 C   0  0  0  0  0  0  0  0  0  0  0  0
   37.2120   21.9340   35.4910 N   0  0  0  0  0  0  0  0  0  0  0  0
   36.9470   21.3540   34.2850 C   0  0  0  0  0  0  0  0  0  0  0  0
   37.4940   21.8650   33.1500 N   0  0  0  0  0  0  0  0  0  0  0  0
   38.7250   23.3410   32.3070 H   0  0  0  0  0  0  0  0  0  0  0  0
   36.2890   20.4910   34.3470 H   0  0  0  0  0  0  0  0  0  0  0  0
   38.2280   23.5700   36.9710 C   0  0  0  0  0  0  0  0  0  0  0  0
   37.3640   22.9200   37.8760 F   0  0  0  0  0  0  0  0  0  0  0  0
   39.4850   23.4940   37.4500 F   0  0  0  0  0  0  0  0  0  0  0  0
   37.8080   24.9010   37.0190 F   0  0  0  0  0  0  0  0  0  0  0  0
   37.3700   26.3220   33.9060 S   0  0  0  0  0  0  0  0  0  0  0  0
   35.9040   29.0050   34.4730 Cl  0  0  0  0  0  0  0  0  0  0  0  0
   36.3840   28.5750   32.8460 C   0  0  0  0  0  0  0  0  0  0  0  0
   37.0300   27.3870   32.5330 C   0  0  0  0  0  0  0  0  0  0  0  0
   37.3750   27.1070   31.2420 C   0  0  0  0  0  0  0  0  0  0  0  0
   37.0800   28.0160   30.2540 C   0  0  0  0  0  0  0  0  0  0  0  0
   36.4300   29.2150   30.5590 C   0  0  0  0  0  0  0  0  0  0  0  0
   36.0740   29.5090   31.8600 C   0  0  0  0  0  0  0  0  0  0  0  0
   37.8340   26.2200   30.8950 H   0  0  0  0  0  0  0  0  0  0  0  0
   37.3180   27.8770   29.2090 H   0  0  0  0  0  0  0  0  0  0  0  0
   36.1920   29.9330   29.7970 H   0  0  0  0  0  0  0  0  0  0  0  0
   35.4080   30.7310   32.1710 N   0  0  0  0  0  0  0  0  0  0  0  0
   35.9600   32.0070   32.5810 C   0  0  0  0  0  2  0  0  0  0  0  0
   34.7840   32.9530   32.4670 C   0  0  0  0  0  2  0  0  0  0  0  0
   33.6330   32.0700   32.9180 C   0  0  0  0  0  2  0  0  0  0  0  0
   33.9420   30.8240   32.0960 C   0  0  0  0  0  3  0  0  0  0  0  0
   33.7100   31.0490   31.0210 H   0  0  0  0  0  0  0  0  0  0  0  0
  1 12  1  0  0  0  0
  1  2  1  0  0  0  0
  2  7  1  0  0  0  0
  3  2  2  0  0  0  0
  3  8  1  0  0  0  0
  4  9  1  0  0  0  0
  4  3  1  0  0  0  0
  5  6  1  0  0  0  0
  5  4  2  0  0  0  0
  6  1  2  0  0  0  0
 10  5  1  0  0  0  0
 11 12  1  0  0  0  0
 12 13  2  0  0  0  0
 13 19  1  0  0  0  0
 14 13  1  0  0  0  0
 15 18  1  0  0  0  0
 15 14  2  0  0  0  0
 16 11  2  0  0  0  0
 16 15  1  0  0  0  0
 17 11  1  0  0  0  0
 19 22  1  0  0  0  0
 19 21  1  0  0  0  0
 19 20  1  0  0  0  0
 23  6  1  0  0  0  0
 25 24  1  0  0  0  0
 26 25  1  0  0  0  0
 26 23  1  0  0  0  0
 27 26  2  0  0  0  0
 28 29  2  0  0  0  0
 28 27  1  0  0  0  0
 29 30  1  0  0  0  0
 30 34  1  0  0  0  0
 30 25  2  0  0  0  0
 31 27  1  0  0  0  0
 32 28  1  0  0  0  0
 33 29  1  0  0  0  0
 34 35  1  0  0  0  0
 36 35  1  0  0  0  0
 36 37  1  0  0  0  0
 38 34  1  0  0  0  0
 38 37  1  0  0  0  0
 39 38  1  0  0  0  0
M  END
>  <minimizedAffinity>
-5.80995369

$$$$

 OpenBabel03272506283D

 39 42  0  0  0  0  0  0  0  0999 V2000
   37.5320   26.1480   32.3690 C   0  0  0  0  0  0  0  0  0  0  0  0
   37.2470   24.8050   32.1950 C   0  0  0  0  0  0  0  0  0  0  0  0
   36.0900   24.3190   31.5800 C   0  0  0  0  0  0  0  0  0  0  0  0
   35.1490   25.2580   31.1050 C   0  0  0  0  0  0  0  0  0  0  0  0
   35.4530   26.5890   31.2890 C   0  0  0  0  0  0  0  0  0  0  0  0
   36.5850   27.0520   31.8910 C   0  0  0  0  0  0  0  0  0  0  0  0
   37.9590   24.0440   32.5530 H   0  0  0  0  0  0  0  0  0  0  0  0
   35.9760   23.2360   31.5000 H   0  0  0  0  0  0  0  0  0  0  0  0
   34.2980   24.7770   30.6510 H   0  0  0  0  0  0  0  0  0  0  0  0
   34.6290   27.1160   30.8800 H   0  0  0  0  0  0  0  0  0  0  0  0
   39.8460   26.8240   32.2030 C   0  0  0  0  0  0  0  0  0  0  0  0
   38.7690   26.4630   33.0260 C   0  0  0  0  0  0  0  0  0  0  0  0
   38.9750   26.4360   34.4120 C   0  0  0  0  0  0  0  0  0  0  0  0
   40.2060   26.7590   34.8930 N   0  0  0  0  0  0  0  0  0  0  0  0
   41.2380   27.1060   34.0710 C   0  0  0  0  0  0  0  0  0  0  0  0
   41.0520   27.1370   32.7250 N   0  0  0  0  0  0  0  0  0  0  0  0
   39.7170   26.8540   31.1300 H   0  0  0  0  0  0  0  0  0  0  0  0
   42.1590   27.3370   34.5970 H   0  0  0  0  0  0  0  0  0  0  0  0
   37.9320   26.0730   35.4030 C   0  0  0  0  0  0  0  0  0  0  0  0
   37.7580   24.6740   35.4100 F   0  0  0  0  0  0  0  0  0  0  0  0
   38.1490   26.4830   36.6690 F   0  0  0  0  0  0  0  0  0  0  0  0
   36.6910   26.5540   34.9810 F   0  0  0  0  0  0  0  0  0  0  0  0
   36.9540   28.7520   32.1090 S   0  0  0  0  0  0  0  0  0  0  0  0
   35.9740   29.5280   34.9560 Cl  0  0  0  0  0  0  0  0  0  0  0  0
   35.1360   30.1080   33.5330 C   0  0  0  0  0  0  0  0  0  0  0  0
   35.5210   29.7850   32.2400 C   0  0  0  0  0  0  0  0  0  0  0  0
   34.8230   30.2660   31.1700 C   0  0  0  0  0  0  0  0  0  0  0  0
   33.7340   31.0770   31.3860 C   0  0  0  0  0  0  0  0  0  0  0  0
   33.3390   31.4090   32.6850 C   0  0  0  0  0  0  0  0  0  0  0  0
   34.0350   30.9270   33.7750 C   0  0  0  0  0  0  0  0  0  0  0  0
   35.0100   30.0510   30.1520 H   0  0  0  0  0  0  0  0  0  0  0  0
   33.1270   31.5020   30.6000 H   0  0  0  0  0  0  0  0  0  0  0  0
   32.4900   32.0400   32.8680 H   0  0  0  0  0  0  0  0  0  0  0  0
   33.6300   31.2620   35.1000 N   0  0  0  0  0  0  0  0  0  0  0  0
   32.6490   30.6260   35.9570 C   0  0  0  0  0  2  0  0  0  0  0  0
   32.8990   31.2590   37.3090 C   0  0  0  0  0  2  0  0  0  0  0  0
   33.2420   32.6870   36.9230 C   0  0  0  0  0  2  0  0  0  0  0  0
   34.2340   32.4070   35.8000 C   0  0  0  0  0  3  0  0  0  0  0  0
   35.1790   32.0120   36.2600 H   0  0  0  0  0  0  0  0  0  0  0  0
  1 12  1  0  0  0  0
  2  1  1  0  0  0  0
  2  7  1  0  0  0  0
  3  2  2  0  0  0  0
  4  5  2  0  0  0  0
  4  3  1  0  0  0  0
  5  6  1  0  0  0  0
  6 23  1  0  0  0  0
  6  1  2  0  0  0  0
  8  3  1  0  0  0  0
  9  4  1  0  0  0  0
 10  5  1  0  0  0  0
 11 16  2  0  0  0  0
 11 12  1  0  0  0  0
 12 13  2  0  0  0  0
 13 14  1  0  0  0  0
 13 19  1  0  0  0  0
 15 18  1  0  0  0  0
 15 14  2  0  0  0  0
 16 15  1  0  0  0  0
 17 11  1  0  0  0  0
 19 20  1  0  0  0  0
 19 21  1  0  0  0  0
 22 19  1  0  0  0  0
 23 26  1  0  0  0  0
 25 30  1  0  0  0  0
 25 24  1  0  0  0  0
 26 25  2  0  0  0  0
 27 28  2  0  0  0  0
 27 26  1  0  0  0  0
 28 29  1  0  0  0  0
 29 33  1  0  0  0  0
 29 30  2  0  0  0  0
 30 34  1  0  0  0  0
 31 27  1  0  0  0  0
 32 28  1  0  0  0  0
 34 38  1  0  0  0  0
 34 35  1  0  0  0  0
 35 36  1  0  0  0  0
 37 36  1  0  0  0  0
 38 39  1  0  0  0  0
 38 37  1  0  0  0  0
M  END
>  <minimizedAffinity>
-5.75529718

$$$$

 OpenBabel03272506283D

 39 42  0  0  0  0  0  0  0  0999 V2000
   37.5610   27.7300   31.9050 C   0  0  0  0  0  0  0  0  0  0  0  0
   38.1830   27.7970   30.6700 C   0  0  0  0  0  0  0  0  0  0  0  0
   37.9520   28.8030   29.7280 C   0  0  0  0  0  0  0  0  0  0  0  0
   37.0250   29.8170   30.0540 C   0  0  0  0  0  0  0  0  0  0  0  0
   36.4190   29.7300   31.2880 C   0  0  0  0  0  0  0  0  0  0  0  0
   36.6520   28.7440   32.2000 C   0  0  0  0  0  0  0  0  0  0  0  0
   38.9120   27.0230   30.3820 H   0  0  0  0  0  0  0  0  0  0  0  0
   38.5030   28.7500   28.7860 H   0  0  0  0  0  0  0  0  0  0  0  0
   36.9250   30.5380   29.2590 H   0  0  0  0  0  0  0  0  0  0  0  0
   35.7660   30.5630   31.3300 H   0  0  0  0  0  0  0  0  0  0  0  0
   38.9210   26.8520   33.7000 C   0  0  0  0  0  0  0  0  0  0  0  0
   37.9200   26.6220   32.7460 C   0  0  0  0  0  0  0  0  0  0  0  0
   37.3490   25.3440   32.6810 C   0  0  0  0  0  0  0  0  0  0  0  0
   37.7900   24.3890   33.5430 N   0  0  0  0  0  0  0  0  0  0  0  0
   38.7660   24.6390   34.4620 C   0  0  0  0  0  0  0  0  0  0  0  0
   39.3290   25.8740   34.5370 N   0  0  0  0  0  0  0  0  0  0  0  0
   39.3800   27.8280   33.7750 H   0  0  0  0  0  0  0  0  0  0  0  0
   39.0160   23.7820   35.0820 H   0  0  0  0  0  0  0  0  0  0  0  0
   36.2830   24.9540   31.7230 C   0  0  0  0  0  0  0  0  0  0  0  0
   35.7840   23.6820   32.0690 F   0  0  0  0  0  0  0  0  0  0  0  0
   35.2450   25.8060   31.6130 F   0  0  0  0  0  0  0  0  0  0  0  0
   36.8360   24.7540   30.4570 F   0  0  0  0  0  0  0  0  0  0  0  0
   35.8730   28.6570   33.7690 S   0  0  0  0  0  0  0  0  0  0  0  0
   36.0050   31.1460   35.6290 Cl  0  0  0  0  0  0  0  0  0  0  0  0
   34.5450   30.7700   34.7410 C   0  0  0  0  0  0  0  0  0  0  0  0
   34.4240   29.6680   33.9070 C   0  0  0  0  0  0  0  0  0  0  0  0
   33.2560   29.4250   33.2440 C   0  0  0  0  0  0  0  0  0  0  0  0
   32.1980   30.2880   33.4090 C   0  0  0  0  0  0  0  0  0  0  0  0
   32.3090   31.4010   34.2460 C   0  0  0  0  0  0  0  0  0  0  0  0
   33.4840   31.6550   34.9240 C   0  0  0  0  0  0  0  0  0  0  0  0
   33.0510   28.5990   32.6180 H   0  0  0  0  0  0  0  0  0  0  0  0
   31.2400   30.1740   32.9220 H   0  0  0  0  0  0  0  0  0  0  0  0
   31.4900   32.0810   34.3850 H   0  0  0  0  0  0  0  0  0  0  0  0
   33.5970   32.7890   35.7810 N   0  0  0  0  0  0  0  0  0  0  0  0
   34.0620   34.1300   35.4860 C   0  0  0  0  0  2  0  0  0  0  0  0
   33.6620   34.9200   36.7130 C   0  0  0  0  0  2  0  0  0  0  0  0
   33.8950   33.9070   37.8210 C   0  0  0  0  0  2  0  0  0  0  0  0
   33.2090   32.6970   37.1960 C   0  0  0  0  0  3  0  0  0  0  0  0
   32.1010   32.8760   37.2160 H   0  0  0  0  0  0  0  0  0  0  0  0
  1  6  1  0  0  0  0
  1 12  1  0  0  0  0
  2  1  2  0  0  0  0
  3  4  2  0  0  0  0
  3  2  1  0  0  0  0
  4  5  1  0  0  0  0
  5 10  1  0  0  0  0
  5  6  2  0  0  0  0
  6 23  1  0  0  0  0
  7  2  1  0  0  0  0
  8  3  1  0  0  0  0
  9  4  1  0  0  0  0
 11 17  1  0  0  0  0
 11 16  1  0  0  0  0
 12 11  2  0  0  0  0
 13 12  1  0  0  0  0
 13 14  2  0  0  0  0
 14 15  1  0  0  0  0
 15 16  2  0  0  0  0
 15 18  1  0  0  0  0
 19 20  1  0  0  0  0
 19 13  1  0  0  0  0
 21 19  1  0  0  0  0
 22 19  1  0  0  0  0
 23 26  1  0  0  0  0
 25 30  1  0  0  0  0
 25 24  1  0  0  0  0
 26 25  2  0  0  0  0
 27 28  2  0  0  0  0
 27 26  1  0  0  0  0
 28 29  1  0  0  0  0
 29 33  1  0  0  0  0
 29 30  2  0  0  0  0
 30 34  1  0  0  0  0
 31 27  1  0  0  0  0
 32 28  1  0  0  0  0
 34 38  1  0  0  0  0
 35 34  1  0  0  0  0
 35 36  1  0  0  0  0
 36 37  1  0  0  0  0
 38 39  1  0  0  0  0
 38 37  1  0  0  0  0
M  END
>  <minimizedAffinity>
-5.70730782

$$$$

 OpenBabel03272506283D

 39 42  0  0  0  0  0  0  0  0999 V2000
   39.3900   25.9870   32.1410 C   0  0  0  0  0  0  0  0  0  0  0  0
   40.7230   25.8750   31.7840 C   0  0  0  0  0  0  0  0  0  0  0  0
   41.3230   26.5970   30.7490 C   0  0  0  0  0  0  0  0  0  0  0  0
   40.5200   27.4990   30.0190 C   0  0  0  0  0  0  0  0  0  0  0  0
   39.1970   27.5940   30.3910 C   0  0  0  0  0  0  0  0  0  0  0  0
   38.6220   26.8850   31.4030 C   0  0  0  0  0  0  0  0  0  0  0  0
   41.3790   25.1810   32.3330 H   0  0  0  0  0  0  0  0  0  0  0  0
   42.3850   26.4230   30.5610 H   0  0  0  0  0  0  0  0  0  0  0  0
   41.0820   28.0010   29.2470 H   0  0  0  0  0  0  0  0  0  0  0  0
   38.7760   28.3030   29.7250 H   0  0  0  0  0  0  0  0  0  0  0  0
   38.4580   23.8900   32.9010 C   0  0  0  0  0  0  0  0  0  0  0  0
   38.9450   25.1640   33.2300 C   0  0  0  0  0  0  0  0  0  0  0  0
   38.9610   25.5370   34.5810 C   0  0  0  0  0  0  0  0  0  0  0  0
   38.5060   24.6520   35.5070 N   0  0  0  0  0  0  0  0  0  0  0  0
   38.0360   23.4190   35.1610 C   0  0  0  0  0  0  0  0  0  0  0  0
   38.0150   23.0420   33.8540 N   0  0  0  0  0  0  0  0  0  0  0  0
   38.4330   23.5740   31.8680 H   0  0  0  0  0  0  0  0  0  0  0  0
   37.7060   22.8210   36.0060 H   0  0  0  0  0  0  0  0  0  0  0  0
   39.4460   26.8500   35.0770 C   0  0  0  0  0  0  0  0  0  0  0  0
   40.8480   26.8110   35.2160 F   0  0  0  0  0  0  0  0  0  0  0  0
   39.1200   27.9230   34.3300 F   0  0  0  0  0  0  0  0  0  0  0  0
   38.9950   27.0580   36.3820 F   0  0  0  0  0  0  0  0  0  0  0  0
   36.9360   27.0270   31.8640 S   0  0  0  0  0  0  0  0  0  0  0  0
   36.0920   28.2350   34.6030 Cl  0  0  0  0  0  0  0  0  0  0  0  0
   35.9860   29.1840   33.1360 C   0  0  0  0  0  0  0  0  0  0  0  0
   36.3370   28.6950   31.8870 C   0  0  0  0  0  0  0  0  0  0  0  0
   36.2270   29.4840   30.7780 C   0  0  0  0  0  0  0  0  0  0  0  0
   35.7690   30.7730   30.9130 C   0  0  0  0  0  0  0  0  0  0  0  0
   35.4130   31.2760   32.1670 C   0  0  0  0  0  0  0  0  0  0  0  0
   35.5170   30.4870   33.2950 C   0  0  0  0  0  0  0  0  0  0  0  0
   36.4330   29.1960   29.7820 H   0  0  0  0  0  0  0  0  0  0  0  0
   35.6530   31.4650   30.0910 H   0  0  0  0  0  0  0  0  0  0  0  0
   35.0520   32.2800   32.2860 H   0  0  0  0  0  0  0  0  0  0  0  0
   35.1510   30.9990   34.5740 N   0  0  0  0  0  0  0  0  0  0  0  0
   35.9920   31.4250   35.6760 C   0  0  0  0  0  2  0  0  0  0  0  0
   35.0260   32.1250   36.6060 C   0  0  0  0  0  2  0  0  0  0  0  0
   33.7800   31.2710   36.4570 C   0  0  0  0  0  2  0  0  0  0  0  0
   33.7360   31.1630   34.9370 C   0  0  0  0  0  3  0  0  0  0  0  0
   33.4340   32.1630   34.5250 H   0  0  0  0  0  0  0  0  0  0  0  0
  1 12  1  0  0  0  0
  2  1  1  0  0  0  0
  2  7  1  0  0  0  0
  3  2  2  0  0  0  0
  4  5  2  0  0  0  0
  4  3  1  0  0  0  0
  5  6  1  0  0  0  0
  6 23  1  0  0  0  0
  6  1  2  0  0  0  0
  8  3  1  0  0  0  0
  9  4  1  0  0  0  0
 10  5  1  0  0  0  0
 11 12  2  0  0  0  0
 11 16  1  0  0  0  0
 12 13  1  0  0  0  0
 13 19  1  0  0  0  0
 13 14  2  0  0  0  0
 15 14  1  0  0  0  0
 15 18  1  0  0  0  0
 16 15  2  0  0  0  0
 17 11  1  0  0  0  0
 19 20  1  0  0  0  0
 19 22  1  0  0  0  0
 21 19  1  0  0  0  0
 23 26  1  0  0  0  0
 25 30  1  0  0  0  0
 25 24  1  0  0  0  0
 26 25  2  0  0  0  0
 27 28  2  0  0  0  0
 27 26  1  0  0  0  0
 28 29  1  0  0  0  0
 29 33  1  0  0  0  0
 29 30  2  0  0  0  0
 30 34  1  0  0  0  0
 31 27  1  0  0  0  0
 32 28  1  0  0  0  0
 34 38  1  0  0  0  0
 34 35  1  0  0  0  0
 35 36  1  0  0  0  0
 37 36  1  0  0  0  0
 38 37  1  0  0  0  0
 39 38  1  0  0  0  0
M  END
>  <minimizedAffinity>
-5.63285398

$$$$

 OpenBabel03272506283D

 39 42  0  0  0  0  0  0  0  0999 V2000
   37.9680   22.9070   34.6350 C   0  0  0  0  0  0  0  0  0  0  0  0
   37.4840   21.6730   34.2350 C   0  0  0  0  0  0  0  0  0  0  0  0
   37.0180   21.3910   32.9480 C   0  0  0  0  0  0  0  0  0  0  0  0
   37.0410   22.4310   31.9930 C   0  0  0  0  0  0  0  0  0  0  0  0
   37.5270   23.6490   32.4140 C   0  0  0  0  0  0  0  0  0  0  0  0
   37.9790   23.9130   33.6720 C   0  0  0  0  0  0  0  0  0  0  0  0
   37.4520   20.8390   34.9540 H   0  0  0  0  0  0  0  0  0  0  0  0
   36.6590   20.3780   32.7500 H   0  0  0  0  0  0  0  0  0  0  0  0
   36.6600   22.1050   31.0390 H   0  0  0  0  0  0  0  0  0  0  0  0
   37.4490   24.2810   31.5660 H   0  0  0  0  0  0  0  0  0  0  0  0
   37.4220   23.3250   36.9530 C   0  0  0  0  0  0  0  0  0  0  0  0
   38.4040   23.0150   36.0000 C   0  0  0  0  0  0  0  0  0  0  0  0
   39.7220   22.8350   36.4410 C   0  0  0  0  0  0  0  0  0  0  0  0
   39.9880   22.9700   37.7680 N   0  0  0  0  0  0  0  0  0  0  0  0
   39.0150   23.2730   38.6750 C   0  0  0  0  0  0  0  0  0  0  0  0
   37.7320   23.4490   38.2610 N   0  0  0  0  0  0  0  0  0  0  0  0
   36.3970   23.4680   36.6420 H   0  0  0  0  0  0  0  0  0  0  0  0
   39.3750   23.3490   39.6970 H   0  0  0  0  0  0  0  0  0  0  0  0
   40.8620   22.5070   35.5490 C   0  0  0  0  0  0  0  0  0  0  0  0
   41.9960   22.2050   36.3310 F   0  0  0  0  0  0  0  0  0  0  0  0
   40.6620   21.4970   34.6790 F   0  0  0  0  0  0  0  0  0  0  0  0
   41.2490   23.6440   34.8380 F   0  0  0  0  0  0  0  0  0  0  0  0
   38.6000   25.4720   34.1830 S   0  0  0  0  0  0  0  0  0  0  0  0
   39.6790   26.3440   31.4000 Cl  0  0  0  0  0  0  0  0  0  0  0  0
   38.3370   27.1870   32.1430 C   0  0  0  0  0  0  0  0  0  0  0  0
   37.8210   26.8490   33.3860 C   0  0  0  0  0  0  0  0  0  0  0  0
   36.7760   27.5490   33.9140 C   0  0  0  0  0  0  0  0  0  0  0  0
   36.2330   28.5900   33.2000 C   0  0  0  0  0  0  0  0  0  0  0  0
   36.7440   28.9380   31.9460 C   0  0  0  0  0  0  0  0  0  0  0  0
   37.8040   28.2400   31.4020 C   0  0  0  0  0  0  0  0  0  0  0  0
   36.3360   27.3960   34.8640 H   0  0  0  0  0  0  0  0  0  0  0  0
   35.4040   29.1950   33.5400 H   0  0  0  0  0  0  0  0  0  0  0  0
   36.3310   29.7500   31.3780 H   0  0  0  0  0  0  0  0  0  0  0  0
   38.3280   28.5960   30.1250 N   0  0  0  0  0  0  0  0  0  0  0  0
   39.6920   28.8890   29.7330 C   0  0  0  0  0  2  0  0  0  0  0  0
   39.6300   28.8990   28.2210 C   0  0  0  0  0  2  0  0  0  0  0  0
   38.2690   29.5250   27.9720 C   0  0  0  0  0  2  0  0  0  0  0  0
   37.4390   28.7100   28.9580 C   0  0  0  0  0  3  0  0  0  0  0  0
   37.3410   27.6680   28.5530 H   0  0  0  0  0  0  0  0  0  0  0  0
  1 12  1  0  0  0  0
  2  1  1  0  0  0  0
  2  7  1  0  0  0  0
  3  2  2  0  0  0  0
  4  5  2  0  0  0  0
  4  3  1  0  0  0  0
  5  6  1  0  0  0  0
  6 23  1  0  0  0  0
  6  1  2  0  0  0  0
  8  3  1  0  0  0  0
  9  4  1  0  0  0  0
 10  5  1  0  0  0  0
 11 16  1  0  0  0  0
 12 13  1  0  0  0  0
 12 11  2  0  0  0  0
 13 14  2  0  0  0  0
 14 15  1  0  0  0  0
 15 18  1  0  0  0  0
 16 15  2  0  0  0  0
 17 11  1  0  0  0  0
 19 20  1  0  0  0  0
 19 13  1  0  0  0  0
 21 19  1  0  0  0  0
 22 19  1  0  0  0  0
 24 25  1  0  0  0  0
 25 26  1  0  0  0  0
 26 27  2  0  0  0  0
 26 23  1  0  0  0  0
 27 31  1  0  0  0  0
 28 32  1  0  0  0  0
 28 27  1  0  0  0  0
 29 28  2  0  0  0  0
 30 29  1  0  0  0  0
 30 25  2  0  0  0  0
 33 29  1  0  0  0  0
 34 30  1  0  0  0  0
 35 34  1  0  0  0  0
 36 35  1  0  0  0  0
 37 36  1  0  0  0  0
 37 38  1  0  0  0  0
 38 34  1  0  0  0  0
 39 38  1  0  0  0  0
M  END
>  <minimizedAffinity>
-5.60448933

$$$$
