
 OpenBabel03262521113D

 28 30  0  0  0  0  0  0  0  0999 V2000
   35.6310   29.9260   46.2440 O   0  0  0  0  0  0  0  0  0  0  0  0
   34.3290   29.6270   46.9860 P   0  0  1  0  0  0  0  0  0  0  0  0
   34.1410   27.9700   47.2820 O   0  0  0  0  0  0  0  0  0  0  0  0
   33.4510   27.9060   48.0000 H   0  0  0  0  0  0  0  0  0  0  0  0
   34.2640   30.4250   48.5030 O   0  0  0  0  0  0  0  0  0  0  0  0
   35.3120   30.3410   49.4220 C   0  0  0  0  0  0  0  0  0  0  0  0
   35.4430   29.3960   50.4390 C   0  0  0  0  0  0  0  0  0  0  0  0
   36.5490   29.4700   51.2530 C   0  0  0  0  0  0  0  0  0  0  0  0
   37.4770   30.4410   51.0550 N   0  0  0  0  0  0  0  0  0  0  0  0
   37.3160   31.3590   50.0380 C   0  0  0  0  0  0  0  0  0  0  0  0
   36.2310   31.3070   49.2220 N   0  0  0  0  0  0  0  0  0  0  0  0
   34.6420   28.6690   50.5020 H   0  0  0  0  0  0  0  0  0  0  0  0
   36.6400   28.7310   52.0390 H   0  0  0  0  0  0  0  0  0  0  0  0
   38.0690   32.1270   49.8980 H   0  0  0  0  0  0  0  0  0  0  0  0
   33.0880   30.1990   45.9870 O   0  0  0  0  0  0  0  0  0  0  0  0
   31.7960   29.7110   46.2270 C   0  0  0  0  0  0  0  0  0  0  0  0
   30.6140   29.9920   45.5860 C   0  0  0  0  0  0  0  0  0  0  0  0
   29.6450   29.2850   46.1700 N   0  0  0  0  0  0  0  0  0  0  0  0
   30.1580   28.5450   47.1790 C   0  0  0  0  0  0  0  0  0  0  0  0
   31.4830   28.8190   47.1990 N   0  0  0  0  0  0  0  0  0  0  0  0
   30.5860   30.6900   44.7520 H   0  0  0  0  0  0  0  0  0  0  0  0
   28.6400   29.3260   45.8600 H   0  0  0  0  0  0  0  0  0  0  0  0
   29.3850   27.6850   47.9970 N   0  0  0  0  0  0  0  0  0  0  0  0
   29.3680   27.4790   49.4360 C   0  0  0  0  0  0  0  0  0  0  0  0
   28.0450   26.8480   49.7480 C   0  0  0  0  0  0  0  0  0  0  0  0
   27.2450   27.0440   48.4530 C   0  0  0  0  0  0  0  0  0  0  0  0
   28.3710   26.7740   47.4470 C   0  0  0  0  0  0  0  0  0  0  0  0
   28.0850   27.0250   46.4210 H   0  0  0  0  0  0  0  0  0  0  0  0
  2  1  2  6  0  0  0
  2  3  1  0  0  0  0
  2  5  1  0  0  0  0
  3  4  1  0  0  0  0
  5  6  1  0  0  0  0
  6  7  1  0  0  0  0
  7 12  1  0  0  0  0
  7  8  2  0  0  0  0
  8 13  1  0  0  0  0
  9  8  1  0  0  0  0
 10  9  2  0  0  0  0
 11  6  2  0  0  0  0
 11 10  1  0  0  0  0
 14 10  1  0  0  0  0
 15 16  1  0  0  0  0
 15  2  1  0  0  0  0
 16 20  1  0  0  0  0
 17 18  1  0  0  0  0
 17 16  2  0  0  0  0
 18 19  1  0  0  0  0
 19 20  2  0  0  0  0
 19 23  1  0  0  0  0
 21 17  1  0  0  0  0
 22 18  1  0  0  0  0
 23 24  1  0  0  0  0
 24 25  1  0  0  0  0
 26 25  1  0  0  0  0
 27 23  1  0  0  0  0
 27 26  1  0  0  0  0
 28 27  1  0  0  0  0
M  END
>  <minimizedAffinity>
-4.88948917

>  <minimizedRMSD>
1.31345701

$$$$
