
 OpenBabel03272502293D

 20 21  0  0  0  0  0  0  0  0999 V2000
   35.6710   30.0560   34.2600 C   0  0  0  0  0  3  0  0  0  0  0  0
   35.8770   28.7590   34.2450 C   0  0  0  0  0  3  0  0  0  0  0  0
   34.8280   32.3330   37.0410 C   0  0  0  0  0  0  0  0  0  0  0  0
   35.5910   31.6720   36.0550 C   0  0  0  0  0  0  0  0  0  0  0  0
   34.9330   30.7450   35.2650 C   0  0  0  0  0  0  0  0  0  0  0  0
   33.6020   30.4920   35.4440 N   0  0  0  0  0  0  0  0  0  0  0  0
   32.9100   31.1410   36.3940 C   0  0  0  0  0  0  0  0  0  0  0  0
   33.5050   32.0550   37.1910 N   0  0  0  0  0  0  0  0  0  0  0  0
   35.2380   33.0650   37.7030 H   0  0  0  0  0  0  0  0  0  0  0  0
   36.6250   31.9370   35.9920 H   0  0  0  0  0  0  0  0  0  0  0  0
   31.8610   30.8660   36.4540 H   0  0  0  0  0  0  0  0  0  0  0  0
   36.6460   28.0770   33.1780 C   0  0  0  0  0  0  0  0  0  0  0  0
   36.0140   27.7750   32.3180 H   0  0  0  0  0  0  0  0  0  0  0  0
   37.3770   28.8290   32.7850 H   0  0  0  0  0  0  0  0  0  0  0  0
   37.4270   26.9660   33.6550 N   0  0  0  0  0  0  0  0  0  0  0  0
   38.8350   27.1010   33.3620 C   0  0  0  0  0  2  0  0  0  0  0  0
   39.5680   26.7100   34.6490 C   0  0  0  0  0  2  0  0  0  0  0  0
   38.6330   27.3600   35.6710 C   0  0  0  0  0  2  0  0  0  0  0  0
   37.2890   26.9580   35.1030 C   0  0  0  0  0  3  0  0  0  0  0  0
   36.5110   27.6640   35.4630 H   0  0  0  0  0  0  0  0  0  0  0  0
  1  5  1  0  0  0  0
  2  1  2  0  0  0  0
  3  8  1  0  0  0  0
  3  9  1  0  0  0  0
  4  3  2  0  0  0  0
  5  6  2  0  0  0  0
  5  4  1  0  0  0  0
  6  7  1  0  0  0  0
  7 11  1  0  0  0  0
  7  8  2  0  0  0  0
 10  4  1  0  0  0  0
 12 15  1  0  0  0  0
 12  2  1  0  0  0  0
 13 12  1  0  0  0  0
 14 12  1  0  0  0  0
 15 19  1  0  0  0  0
 16 15  1  0  0  0  0
 16 17  1  0  0  0  0
 17 18  1  0  0  0  0
 19 20  1  0  0  0  0
 19 18  1  0  0  0  0
M  END
>  <minimizedAffinity>
-4.16222858

$$$$

 OpenBabel03272502293D

 20 21  0  0  0  0  0  0  0  0999 V2000
   38.0480   23.1110   34.7740 C   0  0  0  0  0  3  0  0  0  0  0  0
   37.5770   22.0240   34.2090 C   0  0  0  0  0  3  0  0  0  0  0  0
   40.0080   22.7950   37.8860 C   0  0  0  0  0  0  0  0  0  0  0  0
   39.6590   22.6820   36.5240 C   0  0  0  0  0  0  0  0  0  0  0  0
   38.4370   23.2090   36.1410 C   0  0  0  0  0  0  0  0  0  0  0  0
   37.6160   23.8090   37.0540 N   0  0  0  0  0  0  0  0  0  0  0  0
   37.9840   23.8970   38.3420 C   0  0  0  0  0  0  0  0  0  0  0  0
   39.1650   23.3990   38.7670 N   0  0  0  0  0  0  0  0  0  0  0  0
   40.9260   22.4230   38.2860 H   0  0  0  0  0  0  0  0  0  0  0  0
   40.3660   22.1950   35.8860 H   0  0  0  0  0  0  0  0  0  0  0  0
   37.2610   24.3900   38.9840 H   0  0  0  0  0  0  0  0  0  0  0  0
   37.1780   21.9630   32.7840 C   0  0  0  0  0  0  0  0  0  0  0  0
   37.3490   22.9180   32.2480 H   0  0  0  0  0  0  0  0  0  0  0  0
   37.8470   21.2040   32.2990 H   0  0  0  0  0  0  0  0  0  0  0  0
   35.8310   21.4970   32.5840 N   0  0  0  0  0  0  0  0  0  0  0  0
   35.6770   20.7180   31.3780 C   0  0  0  0  0  2  0  0  0  0  0  0
   34.8370   19.4990   31.7730 C   0  0  0  0  0  2  0  0  0  0  0  0
   35.4500   19.2130   33.1450 C   0  0  0  0  0  2  0  0  0  0  0  0
   35.5300   20.6170   33.7030 C   0  0  0  0  0  3  0  0  0  0  0  0
   36.3070   20.6540   34.4970 H   0  0  0  0  0  0  0  0  0  0  0  0
  1  5  1  0  0  0  0
  2  1  2  0  0  0  0
  3  9  1  0  0  0  0
  3  8  1  0  0  0  0
  4  3  2  0  0  0  0
  5  4  1  0  0  0  0
  5  6  2  0  0  0  0
  6  7  1  0  0  0  0
  7  8  2  0  0  0  0
  7 11  1  0  0  0  0
 10  4  1  0  0  0  0
 12  2  1  0  0  0  0
 13 12  1  0  0  0  0
 14 12  1  0  0  0  0
 15 12  1  0  0  0  0
 15 19  1  0  0  0  0
 16 17  1  0  0  0  0
 16 15  1  0  0  0  0
 17 18  1  0  0  0  0
 18 19  1  0  0  0  0
 19 20  1  0  0  0  0
M  END
>  <minimizedAffinity>
-4.13150978

$$$$

 OpenBabel03272502293D

 20 21  0  0  0  0  0  0  0  0999 V2000
   37.3580   27.6040   34.9550 C   0  0  0  0  0  3  0  0  0  0  0  0
   37.3910   26.3180   35.2150 C   0  0  0  0  0  3  0  0  0  0  0  0
   34.8880   29.8090   33.3220 C   0  0  0  0  0  0  0  0  0  0  0  0
   35.6910   29.2400   34.3320 C   0  0  0  0  0  0  0  0  0  0  0  0
   36.5340   28.2070   33.9610 C   0  0  0  0  0  0  0  0  0  0  0  0
   36.5750   27.7680   32.6670 N   0  0  0  0  0  0  0  0  0  0  0  0
   35.7950   28.3350   31.7340 C   0  0  0  0  0  0  0  0  0  0  0  0
   34.9560   29.3460   32.0450 N   0  0  0  0  0  0  0  0  0  0  0  0
   34.2050   30.6110   33.5010 H   0  0  0  0  0  0  0  0  0  0  0  0
   35.5880   29.6510   35.3150 H   0  0  0  0  0  0  0  0  0  0  0  0
   35.9030   27.9130   30.7400 H   0  0  0  0  0  0  0  0  0  0  0  0
   38.2680   25.7280   36.2550 C   0  0  0  0  0  0  0  0  0  0  0  0
   39.2940   26.1480   36.2410 H   0  0  0  0  0  0  0  0  0  0  0  0
   37.8220   26.0130   37.2430 H   0  0  0  0  0  0  0  0  0  0  0  0
   38.3020   24.2900   36.2280 N   0  0  0  0  0  0  0  0  0  0  0  0
   39.6350   23.7610   36.0580 C   0  0  0  0  0  2  0  0  0  0  0  0
   39.7620   22.6180   37.0700 C   0  0  0  0  0  2  0  0  0  0  0  0
   39.0180   23.2500   38.2480 C   0  0  0  0  0  2  0  0  0  0  0  0
   37.8260   23.8430   37.5280 C   0  0  0  0  0  3  0  0  0  0  0  0
   37.4020   24.6700   38.1370 H   0  0  0  0  0  0  0  0  0  0  0  0
  1  2  2  0  0  0  0
  2 12  1  0  0  0  0
  3  9  1  0  0  0  0
  3  4  1  0  0  0  0
  4 10  1  0  0  0  0
  5  4  2  0  0  0  0
  5  1  1  0  0  0  0
  6  5  1  0  0  0  0
  7  8  1  0  0  0  0
  7  6  2  0  0  0  0
  8  3  2  0  0  0  0
 11  7  1  0  0  0  0
 12 14  1  0  0  0  0
 13 12  1  0  0  0  0
 15 12  1  0  0  0  0
 15 19  1  0  0  0  0
 16 15  1  0  0  0  0
 16 17  1  0  0  0  0
 17 18  1  0  0  0  0
 19 20  1  0  0  0  0
 19 18  1  0  0  0  0
M  END
>  <minimizedAffinity>
-4.06535387

$$$$

 OpenBabel03272502293D

 20 21  0  0  0  0  0  0  0  0999 V2000
   37.7910   25.4290   35.4640 C   0  0  0  0  0  3  0  0  0  0  0  0
   38.0340   25.5390   34.1790 C   0  0  0  0  0  3  0  0  0  0  0  0
   38.6730   23.4680   38.4650 C   0  0  0  0  0  0  0  0  0  0  0  0
   37.9810   24.3670   37.6270 C   0  0  0  0  0  0  0  0  0  0  0  0
   38.4620   24.5270   36.3390 C   0  0  0  0  0  0  0  0  0  0  0  0
   39.5620   23.8360   35.9130 N   0  0  0  0  0  0  0  0  0  0  0  0
   40.1930   22.9890   36.7410 C   0  0  0  0  0  0  0  0  0  0  0  0
   39.7630   22.7980   38.0060 N   0  0  0  0  0  0  0  0  0  0  0  0
   38.3840   23.2720   39.4750 H   0  0  0  0  0  0  0  0  0  0  0  0
   37.1320   24.8620   38.0510 H   0  0  0  0  0  0  0  0  0  0  0  0
   41.0550   22.4920   36.3050 H   0  0  0  0  0  0  0  0  0  0  0  0
   37.3100   26.4870   33.2990 C   0  0  0  0  0  0  0  0  0  0  0  0
   36.2830   26.7070   33.6570 H   0  0  0  0  0  0  0  0  0  0  0  0
   37.8750   27.4540   33.3430 H   0  0  0  0  0  0  0  0  0  0  0  0
   37.2970   26.0900   31.9160 N   0  0  0  0  0  0  0  0  0  0  0  0
   37.9150   24.8040   31.6930 C   0  0  0  0  0  2  0  0  0  0  0  0
   36.9760   24.0500   30.7460 C   0  0  0  0  0  2  0  0  0  0  0  0
   35.6320   24.4910   31.3300 C   0  0  0  0  0  2  0  0  0  0  0  0
   35.8990   25.9660   31.5370 C   0  0  0  0  0  3  0  0  0  0  0  0
   35.2080   26.3590   32.3130 H   0  0  0  0  0  0  0  0  0  0  0  0
  1  5  1  0  0  0  0
  2  1  2  0  0  0  0
  3  9  1  0  0  0  0
  4 10  1  0  0  0  0
  4  3  2  0  0  0  0
  5  4  1  0  0  0  0
  6  5  2  0  0  0  0
  6  7  1  0  0  0  0
  7  8  2  0  0  0  0
  8  3  1  0  0  0  0
 11  7  1  0  0  0  0
 12 14  1  0  0  0  0
 12 13  1  0  0  0  0
 12  2  1  0  0  0  0
 15 12  1  0  0  0  0
 16 15  1  0  0  0  0
 17 18  1  0  0  0  0
 17 16  1  0  0  0  0
 18 19  1  0  0  0  0
 19 15  1  0  0  0  0
 19 20  1  0  0  0  0
M  END
>  <minimizedAffinity>
-3.93817234

$$$$

 OpenBabel03272502293D

 20 21  0  0  0  0  0  0  0  0999 V2000
   38.3210   24.7810   33.5360 C   0  0  0  0  0  3  0  0  0  0  0  0
   38.0850   24.0910   34.6270 C   0  0  0  0  0  3  0  0  0  0  0  0
   36.4680   27.8930   32.8200 C   0  0  0  0  0  0  0  0  0  0  0  0
   37.3870   27.0070   33.4210 C   0  0  0  0  0  0  0  0  0  0  0  0
   37.4080   25.7050   32.9510 C   0  0  0  0  0  0  0  0  0  0  0  0
   36.5680   25.3100   31.9480 N   0  0  0  0  0  0  0  0  0  0  0  0
   35.7070   26.1830   31.4010 C   0  0  0  0  0  0  0  0  0  0  0  0
   35.6480   27.4640   31.8240 N   0  0  0  0  0  0  0  0  0  0  0  0
   36.3710   28.9170   33.1070 H   0  0  0  0  0  0  0  0  0  0  0  0
   38.0020   27.4090   34.1990 H   0  0  0  0  0  0  0  0  0  0  0  0
   35.0860   25.7680   30.6140 H   0  0  0  0  0  0  0  0  0  0  0  0
   39.0590   23.1330   35.2020 C   0  0  0  0  0  0  0  0  0  0  0  0
   39.2980   22.2970   34.5140 H   0  0  0  0  0  0  0  0  0  0  0  0
   40.0130   23.7030   35.3510 H   0  0  0  0  0  0  0  0  0  0  0  0
   38.6800   22.6370   36.4980 N   0  0  0  0  0  0  0  0  0  0  0  0
   39.6940   22.8540   37.5040 C   0  0  0  0  0  2  0  0  0  0  0  0
   38.9530   23.3790   38.7380 C   0  0  0  0  0  2  0  0  0  0  0  0
   37.9390   24.2910   38.0450 C   0  0  0  0  0  2  0  0  0  0  0  0
   37.5070   23.3970   36.9020 C   0  0  0  0  0  3  0  0  0  0  0  0
   37.0980   24.0220   36.0800 H   0  0  0  0  0  0  0  0  0  0  0  0
  1  2  2  0  0  0  0
  2 12  1  0  0  0  0
  3  9  1  0  0  0  0
  3  4  1  0  0  0  0
  4 10  1  0  0  0  0
  5  4  2  0  0  0  0
  5  1  1  0  0  0  0
  6  5  1  0  0  0  0
  7  8  1  0  0  0  0
  7  6  2  0  0  0  0
  8  3  2  0  0  0  0
 11  7  1  0  0  0  0
 12 14  1  0  0  0  0
 12 15  1  0  0  0  0
 13 12  1  0  0  0  0
 15 19  1  0  0  0  0
 15 16  1  0  0  0  0
 16 17  1  0  0  0  0
 18 17  1  0  0  0  0
 19 18  1  0  0  0  0
 20 19  1  0  0  0  0
M  END
>  <minimizedAffinity>
-3.9031105

$$$$

 OpenBabel03272502293D

 20 21  0  0  0  0  0  0  0  0999 V2000
   37.7030   25.4710   35.5170 C   0  0  0  0  0  3  0  0  0  0  0  0
   37.9660   25.5900   34.2360 C   0  0  0  0  0  3  0  0  0  0  0  0
   40.1100   23.0010   36.8330 C   0  0  0  0  0  0  0  0  0  0  0  0
   39.4760   23.8830   35.9320 C   0  0  0  0  0  0  0  0  0  0  0  0
   38.3720   24.5740   36.3990 C   0  0  0  0  0  0  0  0  0  0  0  0
   37.9270   24.4010   37.6800 N   0  0  0  0  0  0  0  0  0  0  0  0
   38.5580   23.5530   38.5070 C   0  0  0  0  0  0  0  0  0  0  0  0
   39.6400   22.8550   38.1010 N   0  0  0  0  0  0  0  0  0  0  0  0
   40.9690   22.4210   36.5750 H   0  0  0  0  0  0  0  0  0  0  0  0
   39.8970   23.9500   34.9510 H   0  0  0  0  0  0  0  0  0  0  0  0
   38.1250   23.4880   39.5010 H   0  0  0  0  0  0  0  0  0  0  0  0
   37.2430   26.5320   33.3490 C   0  0  0  0  0  0  0  0  0  0  0  0
   36.2090   26.7400   33.6930 H   0  0  0  0  0  0  0  0  0  0  0  0
   37.7960   27.5050   33.4020 H   0  0  0  0  0  0  0  0  0  0  0  0
   37.2530   26.1380   31.9650 N   0  0  0  0  0  0  0  0  0  0  0  0
   37.7960   24.8160   31.7590 C   0  0  0  0  0  2  0  0  0  0  0  0
   36.8450   24.1230   30.7780 C   0  0  0  0  0  2  0  0  0  0  0  0
   35.5120   24.6470   31.3160 C   0  0  0  0  0  2  0  0  0  0  0  0
   35.8640   26.1030   31.5370 C   0  0  0  0  0  3  0  0  0  0  0  0
   35.1720   26.5380   32.2890 H   0  0  0  0  0  0  0  0  0  0  0  0
  1  5  1  0  0  0  0
  2  1  2  0  0  0  0
  3  8  1  0  0  0  0
  4  5  1  0  0  0  0
  4  3  2  0  0  0  0
  5  6  2  0  0  0  0
  6  7  1  0  0  0  0
  7 11  1  0  0  0  0
  8  7  2  0  0  0  0
  9  3  1  0  0  0  0
 10  4  1  0  0  0  0
 12 14  1  0  0  0  0
 12 13  1  0  0  0  0
 12  2  1  0  0  0  0
 15 12  1  0  0  0  0
 16 15  1  0  0  0  0
 17 18  1  0  0  0  0
 17 16  1  0  0  0  0
 18 19  1  0  0  0  0
 19 15  1  0  0  0  0
 19 20  1  0  0  0  0
M  END
>  <minimizedAffinity>
-3.86861753

$$$$

 OpenBabel03272502293D

 20 21  0  0  0  0  0  0  0  0999 V2000
   37.5710   25.7010   35.9040 C   0  0  0  0  0  3  0  0  0  0  0  0
   38.0030   26.4860   34.9460 C   0  0  0  0  0  3  0  0  0  0  0  0
   38.8350   23.3140   38.4210 C   0  0  0  0  0  0  0  0  0  0  0  0
   38.0390   24.3170   37.8300 C   0  0  0  0  0  0  0  0  0  0  0  0
   38.3510   24.6880   36.5330 C   0  0  0  0  0  0  0  0  0  0  0  0
   39.3890   24.0990   35.8680 N   0  0  0  0  0  0  0  0  0  0  0  0
   40.1240   23.1470   36.4640 C   0  0  0  0  0  0  0  0  0  0  0  0
   39.8600   22.7490   37.7280 N   0  0  0  0  0  0  0  0  0  0  0  0
   38.6790   22.9540   39.4150 H   0  0  0  0  0  0  0  0  0  0  0  0
   37.2500   24.7190   38.4310 H   0  0  0  0  0  0  0  0  0  0  0  0
   40.9240   22.7450   35.8500 H   0  0  0  0  0  0  0  0  0  0  0  0
   37.1590   27.5250   34.3110 C   0  0  0  0  0  0  0  0  0  0  0  0
   36.2970   27.8240   34.9430 H   0  0  0  0  0  0  0  0  0  0  0  0
   37.8040   28.4360   34.2050 H   0  0  0  0  0  0  0  0  0  0  0  0
   36.7250   27.1810   32.9830 N   0  0  0  0  0  0  0  0  0  0  0  0
   36.1510   28.2980   32.2700 C   0  0  0  0  0  2  0  0  0  0  0  0
   36.7580   28.2520   30.8640 C   0  0  0  0  0  2  0  0  0  0  0  0
   38.1890   27.8520   31.2280 C   0  0  0  0  0  2  0  0  0  0  0  0
   37.9160   26.7740   32.2550 C   0  0  0  0  0  3  0  0  0  0  0  0
   38.8030   26.6600   32.9140 H   0  0  0  0  0  0  0  0  0  0  0  0
  1  5  1  0  0  0  0
  2  1  2  0  0  0  0
  3  9  1  0  0  0  0
  4  3  1  0  0  0  0
  4 10  1  0  0  0  0
  5  4  2  0  0  0  0
  6  7  2  0  0  0  0
  6  5  1  0  0  0  0
  7  8  1  0  0  0  0
  8  3  2  0  0  0  0
 11  7  1  0  0  0  0
 12 13  1  0  0  0  0
 12  2  1  0  0  0  0
 14 12  1  0  0  0  0
 15 12  1  0  0  0  0
 16 15  1  0  0  0  0
 17 18  1  0  0  0  0
 17 16  1  0  0  0  0
 18 19  1  0  0  0  0
 19 20  1  0  0  0  0
 19 15  1  0  0  0  0
M  END
>  <minimizedAffinity>
-3.8633213

$$$$

 OpenBabel03272502293D

 20 21  0  0  0  0  0  0  0  0999 V2000
   38.1710   24.6280   33.3870 C   0  0  0  0  0  3  0  0  0  0  0  0
   38.4120   25.2660   34.5080 C   0  0  0  0  0  3  0  0  0  0  0  0
   35.3680   24.2290   31.0170 C   0  0  0  0  0  0  0  0  0  0  0  0
   36.4210   23.8890   31.8920 C   0  0  0  0  0  0  0  0  0  0  0  0
   37.0980   24.9320   32.4990 C   0  0  0  0  0  0  0  0  0  0  0  0
   36.7510   26.2310   32.2510 N   0  0  0  0  0  0  0  0  0  0  0  0
   35.7420   26.5130   31.4120 C   0  0  0  0  0  0  0  0  0  0  0  0
   35.0500   25.5320   30.7950 N   0  0  0  0  0  0  0  0  0  0  0  0
   34.7820   23.5010   30.4990 H   0  0  0  0  0  0  0  0  0  0  0  0
   36.6200   22.8450   32.0220 H   0  0  0  0  0  0  0  0  0  0  0  0
   35.5470   27.5740   31.2840 H   0  0  0  0  0  0  0  0  0  0  0  0
   39.5350   24.9160   35.4100 C   0  0  0  0  0  0  0  0  0  0  0  0
   40.5190   25.2500   35.0210 H   0  0  0  0  0  0  0  0  0  0  0  0
   39.3640   25.4800   36.3630 H   0  0  0  0  0  0  0  0  0  0  0  0
   39.5720   23.5230   35.7670 N   0  0  0  0  0  0  0  0  0  0  0  0
   40.8640   23.0990   36.2540 C   0  0  0  0  0  2  0  0  0  0  0  0
   40.5830   22.2470   37.4960 C   0  0  0  0  0  2  0  0  0  0  0  0
   39.4400   23.0650   38.1010 C   0  0  0  0  0  2  0  0  0  0  0  0
   38.6260   23.3530   36.8590 C   0  0  0  0  0  3  0  0  0  0  0  0
   38.0020   24.2560   37.0290 H   0  0  0  0  0  0  0  0  0  0  0  0
  1  2  2  0  0  0  0
  2 12  1  0  0  0  0
  3  4  1  0  0  0  0
  4 10  1  0  0  0  0
  4  5  2  0  0  0  0
  5  1  1  0  0  0  0
  6  5  1  0  0  0  0
  7  6  2  0  0  0  0
  8  3  2  0  0  0  0
  8  7  1  0  0  0  0
  9  3  1  0  0  0  0
 11  7  1  0  0  0  0
 12 15  1  0  0  0  0
 12 14  1  0  0  0  0
 13 12  1  0  0  0  0
 15 16  1  0  0  0  0
 15 19  1  0  0  0  0
 16 17  1  0  0  0  0
 17 18  1  0  0  0  0
 19 20  1  0  0  0  0
 19 18  1  0  0  0  0
M  END
>  <minimizedAffinity>
-3.82469678

$$$$

 OpenBabel03272502293D

 20 21  0  0  0  0  0  0  0  0999 V2000
   37.5880   25.6480   35.8630 C   0  0  0  0  0  3  0  0  0  0  0  0
   38.0490   26.5430   35.0210 C   0  0  0  0  0  3  0  0  0  0  0  0
   40.2070   23.1190   36.4690 C   0  0  0  0  0  0  0  0  0  0  0  0
   39.4440   24.1020   35.8050 C   0  0  0  0  0  0  0  0  0  0  0  0
   38.3840   24.6550   36.5020 C   0  0  0  0  0  0  0  0  0  0  0  0
   38.1020   24.2560   37.7790 N   0  0  0  0  0  0  0  0  0  0  0  0
   38.8520   23.3180   38.3770 C   0  0  0  0  0  0  0  0  0  0  0  0
   39.8970   22.7470   37.7400 N   0  0  0  0  0  0  0  0  0  0  0  0
   41.0460   22.6300   36.0220 H   0  0  0  0  0  0  0  0  0  0  0  0
   39.7420   24.3460   34.8070 H   0  0  0  0  0  0  0  0  0  0  0  0
   38.5440   23.0730   39.3890 H   0  0  0  0  0  0  0  0  0  0  0  0
   37.1870   27.5590   34.3700 C   0  0  0  0  0  0  0  0  0  0  0  0
   36.3370   27.8740   35.0090 H   0  0  0  0  0  0  0  0  0  0  0  0
   37.8260   28.4680   34.2220 H   0  0  0  0  0  0  0  0  0  0  0  0
   36.7290   27.1700   33.0630 N   0  0  0  0  0  0  0  0  0  0  0  0
   36.0250   28.2270   32.3750 C   0  0  0  0  0  2  0  0  0  0  0  0
   36.5720   28.2300   30.9430 C   0  0  0  0  0  2  0  0  0  0  0  0
   38.0480   27.9630   31.2440 C   0  0  0  0  0  2  0  0  0  0  0  0
   37.9190   26.8690   32.2830 C   0  0  0  0  0  3  0  0  0  0  0  0
   38.8410   26.8400   32.9020 H   0  0  0  0  0  0  0  0  0  0  0  0
  1  5  1  0  0  0  0
  2  1  2  0  0  0  0
  3  8  1  0  0  0  0
  4  3  2  0  0  0  0
  4  5  1  0  0  0  0
  5  6  2  0  0  0  0
  6  7  1  0  0  0  0
  7 11  1  0  0  0  0
  8  7  2  0  0  0  0
  9  3  1  0  0  0  0
 10  4  1  0  0  0  0
 12 13  1  0  0  0  0
 12  2  1  0  0  0  0
 14 12  1  0  0  0  0
 15 12  1  0  0  0  0
 16 15  1  0  0  0  0
 17 18  1  0  0  0  0
 17 16  1  0  0  0  0
 18 19  1  0  0  0  0
 19 20  1  0  0  0  0
 19 15  1  0  0  0  0
M  END
>  <minimizedAffinity>
-3.81934881

$$$$
