
 OpenBabel03272510063D

 27 29  0  0  0  0  0  0  0  0999 V2000
   38.3280   32.4150   47.5750 C   0  0  0  0  0  0  0  0  0  0  0  0
   38.1310   31.9080   46.2850 C   0  0  0  0  0  0  0  0  0  0  0  0
   37.1810   30.9020   46.1100 C   0  0  0  0  0  0  0  0  0  0  0  0
   36.4880   30.4560   47.1920 N   0  0  0  0  0  0  0  0  0  0  0  0
   36.7020   30.9670   48.4270 C   0  0  0  0  0  0  0  0  0  0  0  0
   37.6150   31.9430   48.6280 N   0  0  0  0  0  0  0  0  0  0  0  0
   35.9350   30.4480   49.5190 N   0  0  0  0  0  0  0  0  0  0  0  0
   34.4740   30.5280   49.5760 C   0  0  0  0  0  0  0  0  0  0  0  0
   34.1020   29.6600   50.7170 C   0  0  0  0  0  0  0  0  0  0  0  0
   35.3590   28.9230   51.1390 C   0  0  0  0  0  0  0  0  0  0  0  0
   36.4930   29.7840   50.6930 C   0  0  0  0  0  0  0  0  0  0  0  0
   39.0600   33.1970   47.7380 H   0  0  0  0  0  0  0  0  0  0  0  0
   36.9920   30.4780   45.1320 H   0  0  0  0  0  0  0  0  0  0  0  0
   34.1350   31.5760   49.8000 H   0  0  0  0  0  0  0  0  0  0  0  0
   34.0780   30.2420   48.5920 H   0  0  0  0  0  0  0  0  0  0  0  0
   33.6170   30.1750   51.5700 H   0  0  0  0  0  0  0  0  0  0  0  0
   33.3810   28.8890   50.3600 H   0  0  0  0  0  0  0  0  0  0  0  0
   35.3690   28.9070   52.2650 H   0  0  0  0  0  0  0  0  0  0  0  0
   35.3980   27.8770   50.8020 H   0  0  0  0  0  0  0  0  0  0  0  0
   37.2890   29.0970   50.3190 H   0  0  0  0  0  0  0  0  0  0  0  0
   36.8950   30.4760   51.4360 H   0  0  0  0  0  0  0  0  0  0  0  0
   38.8760   32.4080   45.2030 N   0  0  0  0  0  0  0  0  0  0  0  0
   38.7890   31.9230   43.8470 C   0  0  0  0  0  0  0  0  0  0  0  0
   39.3530   33.0420   43.0100 C   0  0  0  0  0  0  0  0  0  0  0  0
   40.4170   33.6250   43.9110 C   0  0  0  0  0  0  0  0  0  0  0  0
   39.8430   33.4820   45.2830 C   0  0  0  0  0  0  0  0  0  0  0  0
   39.2630   34.4030   45.5450 H   0  0  0  0  0  0  0  0  0  0  0  0
  1 12  1  0  0  0  0
  1  6  1  0  0  0  0
  2  1  2  0  0  0  0
  3  2  1  0  0  0  0
  3  4  2  0  0  0  0
  4  5  1  0  0  0  0
  5  6  2  0  0  0  0
  5  7  1  0  0  0  0
  7  8  1  0  0  0  0
  7 11  1  0  0  0  0
  8 14  1  0  0  0  0
  8  9  1  0  0  0  0
  9 10  1  0  0  0  0
  9 16  1  0  0  0  0
 10 18  1  0  0  0  0
 11 10  1  0  0  0  0
 11 21  1  0  0  0  0
 13  3  1  0  0  0  0
 15  8  1  0  0  0  0
 17  9  1  0  0  0  0
 19 10  1  0  0  0  0
 20 11  1  0  0  0  0
 22 26  1  0  0  0  0
 22  2  1  0  0  0  0
 23 22  1  0  0  0  0
 24 23  1  0  0  0  0
 24 25  1  0  0  0  0
 25 26  1  0  0  0  0
 26 27  1  0  0  0  0
M  END
>  <minimizedAffinity>
-4.53049278

>  <minimizedRMSD>
2.92698741

$$$$
