
 OpenBabel03272504003D

 21 22  0  0  0  0  0  0  0  0999 V2000
   37.4150   30.6980   46.5000 C   0  0  0  0  0  0  0  0  0  0  0  0
   36.6140   31.1350   45.8280 H   0  0  0  0  0  0  0  0  0  0  0  0
   37.0840   29.6600   46.6440 H   0  0  0  0  0  0  0  0  0  0  0  0
   38.6360   30.8160   45.6940 C   0  0  0  0  0  0  0  0  0  0  0  0
   39.8340   31.3810   46.1160 C   0  0  0  0  0  0  0  0  0  0  0  0
   40.9190   31.4430   45.2580 C   0  0  0  0  0  0  0  0  0  0  0  0
   40.7470   30.9300   44.0000 N   0  0  0  0  0  0  0  0  0  0  0  0
   39.5810   30.3820   43.5990 C   0  0  0  0  0  0  0  0  0  0  0  0
   38.5600   30.3380   44.4500 N   0  0  0  0  0  0  0  0  0  0  0  0
   39.8610   31.7570   47.1330 H   0  0  0  0  0  0  0  0  0  0  0  0
   41.8170   31.8820   45.6200 H   0  0  0  0  0  0  0  0  0  0  0  0
   39.5310   29.9980   42.5880 H   0  0  0  0  0  0  0  0  0  0  0  0
   37.5000   31.4150   47.7990 C   0  0  0  0  0  0  0  0  0  0  0  0
   37.2080   32.4880   47.6100 H   0  0  0  0  0  0  0  0  0  0  0  0
   38.5950   31.4430   48.0620 H   0  0  0  0  0  0  0  0  0  0  0  0
   36.7970   30.9180   48.8820 N   0  0  0  0  0  0  0  0  0  0  0  0
   36.5030   29.5590   49.0290 C   0  0  0  0  0  0  0  0  0  0  0  0
   36.9000   29.1970   50.4640 C   0  0  0  0  0  0  0  0  0  0  0  0
   37.4790   30.4710   51.0200 C   0  0  0  0  0  0  0  0  0  0  0  0
   36.8820   31.5490   50.1470 C   0  0  0  0  0  0  0  0  0  0  0  0
   37.4020   32.5040   50.1780 H   0  0  0  0  0  0  0  0  0  0  0  0
  1  3  1  0  0  0  0
  1 13  1  0  0  0  0
  2  1  1  0  0  0  0
  4  5  1  0  0  0  0
  4  1  1  0  0  0  0
  5 10  1  0  0  0  0
  6 11  1  0  0  0  0
  6  5  2  0  0  0  0
  7  6  1  0  0  0  0
  8  7  2  0  0  0  0
  8  9  1  0  0  0  0
  9  4  2  0  0  0  0
 12  8  1  0  0  0  0
 13 15  1  0  0  0  0
 13 16  1  0  0  0  0
 14 13  1  0  0  0  0
 16 17  1  0  0  0  0
 16 20  1  0  0  0  0
 17 18  1  0  0  0  0
 18 19  1  0  0  0  0
 20 21  1  0  0  0  0
 20 19  1  0  0  0  0
M  END
>  <minimizedAffinity>
-4.31317043

>  <minimizedRMSD>
3.87839913

$$$$
