REMARK  Name = 
REMARK  1 active torsions:
REMARK  status: ('A' for Active; 'I' for Inactive)
REMARK    1  A    between atoms: C_2  and  N_22
REMARK                            x       y       z     vdW  Elec       q    Type
REMARK                         _______ _______ _______ _____ _____    ______ ____
ROOT
ATOM      1  C   UNL     1      38.095  33.148  49.485  0.00  0.00    +0.000 A 
ATOM      2  C   UNL     1      38.940  33.061  48.372  0.00  0.00    +0.000 A 
ATOM      3  C   UNL     1      38.709  32.042  47.447  0.00  0.00    +0.000 A 
ATOM      4  N   UNL     1      37.680  31.180  47.661  0.00  0.00    +0.000 NA
ATOM      5  C   UNL     1      36.880  31.291  48.748  0.00  0.00    +0.000 A 
ATOM      6  N   UNL     1      37.078  32.267  49.661  0.00  0.00    +0.000 NA
ATOM      7  N   UNL     1      35.816  30.346  48.907  0.00  0.00    +0.000 N 
ATOM      8  C   UNL     1      34.729  30.199  47.937  0.00  0.00    +0.000 C 
ATOM      9  C   UNL     1      34.024  28.967  48.359  0.00  0.00    +0.000 C 
ATOM     10  C   UNL     1      34.875  28.316  49.432  0.00  0.00    +0.000 C 
ATOM     11  C   UNL     1      35.676  29.424  50.030  0.00  0.00    +0.000 C 
ATOM     12  H   UNL     1      38.253  33.930  50.218  0.00  0.00    +0.000 HD
ATOM     13  H   UNL     1      39.335  31.934  46.570  0.00  0.00    +0.000 HD
ATOM     14  H   UNL     1      34.011  31.061  48.001  0.00  0.00    +0.000 HD
ATOM     15  H   UNL     1      35.169  30.193  46.930  0.00  0.00    +0.000 HD
ATOM     16  H   UNL     1      32.975  29.107  48.690  0.00  0.00    +0.000 HD
ATOM     17  H   UNL     1      33.993  28.260  47.499  0.00  0.00    +0.000 HD
ATOM     18  H   UNL     1      34.172  27.940  50.227  0.00  0.00    +0.000 HD
ATOM     19  H   UNL     1      35.454  27.451  49.080  0.00  0.00    +0.000 HD
ATOM     20  H   UNL     1      36.694  29.012  50.230  0.00  0.00    +0.000 HD
ATOM     21  H   UNL     1      35.263  29.889  50.928  0.00  0.00    +0.000 HD
ENDROOT
BRANCH   2  22
ATOM     22  N   UNL     1      39.989  33.981  48.202  0.00  0.00    +0.000 N 
ATOM     23  C   UNL     1      41.388  33.633  48.123  0.00  0.00    +0.000 C 
ATOM     24  C   UNL     1      42.035  34.822  47.459  0.00  0.00    +0.000 C 
ATOM     25  C   UNL     1      41.208  35.977  47.974  0.00  0.00    +0.000 C 
ATOM     26  C   UNL     1      39.828  35.413  48.080  0.00  0.00    +0.000 C 
ATOM     27  H   UNL     1      39.278  35.584  47.119  0.00  0.00    +0.000 HD
ENDBRANCH   2  22
TORSDOF 1
