
 OpenBabel03272503113D

 42 46  0  0  0  0  0  0  0  0999 V2000
   38.0690   26.2640   35.0370 C   0  0  0  0  0  0  0  0  0  0  0  0
   38.8930   26.6900   35.8840 O   0  0  0  0  0  0  0  0  0  0  0  0
   37.7740   24.8620   35.1200 N   0  0  0  0  0  0  0  0  0  0  0  0
   37.1040   24.4700   34.4410 H   0  0  0  0  0  0  0  0  0  0  0  0
   36.5060   28.0080   34.5620 C   0  0  0  0  0  0  0  0  0  0  0  0
   37.4930   27.1650   34.0750 C   0  0  0  0  0  0  0  0  0  0  0  0
   37.9010   27.1830   32.7590 C   0  0  0  0  0  0  0  0  0  0  0  0
   37.3060   28.0770   31.8850 C   0  0  0  0  0  0  0  0  0  0  0  0
   37.4910   28.3190   30.5780 N   0  0  0  0  0  0  0  0  0  0  0  0
   36.6490   29.2880   30.2320 C   0  0  0  0  0  0  0  0  0  0  0  0
   35.9400   29.6550   31.3000 N   0  0  0  0  0  0  0  0  0  0  0  0
   36.3290   28.9110   32.3650 C   0  0  0  0  0  0  0  0  0  0  0  0
   35.8990   28.9130   33.6840 C   0  0  0  0  0  0  0  0  0  0  0  0
   36.1530   28.0290   35.5840 H   0  0  0  0  0  0  0  0  0  0  0  0
   38.6760   26.5100   32.4170 H   0  0  0  0  0  0  0  0  0  0  0  0
   38.1790   27.8330   29.9310 H   0  0  0  0  0  0  0  0  0  0  0  0
   36.5550   29.7090   29.2400 H   0  0  0  0  0  0  0  0  0  0  0  0
   34.8770   29.8130   34.0990 N   0  0  0  0  0  0  0  0  0  0  0  0
   33.4590   29.7970   33.9300 C   0  0  0  0  0  2  0  0  0  0  0  0
   32.9030   30.6560   35.0430 C   0  0  0  0  0  2  0  0  0  0  0  0
   33.9780   31.6690   35.2600 C   0  0  0  0  0  2  0  0  0  0  0  0
   35.2700   31.0030   34.8450 C   0  0  0  0  0  3  0  0  0  0  0  0
   35.8390   30.6220   35.7230 H   0  0  0  0  0  0  0  0  0  0  0  0
   40.2570   23.8240   34.6830 F   0  0  0  0  0  0  0  0  0  0  0  0
   39.7340   23.6660   35.9250 C   0  0  0  0  0  0  0  0  0  0  0  0
   40.4530   23.0110   36.8850 C   0  0  0  0  0  0  0  0  0  0  0  0
   39.8690   22.8900   38.1080 C   0  0  0  0  0  0  0  0  0  0  0  0
   38.6210   23.3840   38.4100 C   0  0  0  0  0  0  0  0  0  0  0  0
   37.9220   24.0410   37.4150 C   0  0  0  0  0  0  0  0  0  0  0  0
   38.4770   24.1840   36.1700 C   0  0  0  0  0  0  0  0  0  0  0  0
   40.4280   22.3660   38.8950 H   0  0  0  0  0  0  0  0  0  0  0  0
   38.1750   23.2750   39.3920 H   0  0  0  0  0  0  0  0  0  0  0  0
   36.9250   24.4650   37.5670 H   0  0  0  0  0  0  0  0  0  0  0  0
   44.1700   22.7560   36.2280 C   0  0  0  0  0  0  0  0  0  0  0  0
   42.9120   23.2770   36.5720 C   0  0  0  0  0  0  0  0  0  0  0  0
   41.7820   22.4950   36.5310 C   0  0  0  0  0  0  0  0  0  0  0  0
   41.9410   21.1910   36.1420 N   0  0  0  0  0  0  0  0  0  0  0  0
   43.1430   20.6980   35.8140 C   0  0  0  0  0  0  0  0  0  0  0  0
   44.2320   21.4540   35.8540 N   0  0  0  0  0  0  0  0  0  0  0  0
   45.0590   23.3700   36.2580 H   0  0  0  0  0  0  0  0  0  0  0  0
   42.8200   24.3060   36.8740 H   0  0  0  0  0  0  0  0  0  0  0  0
   43.0800   19.6590   35.5340 H   0  0  0  0  0  0  0  0  0  0  0  0
  1  3  1  0  0  0  0
  1  2  2  0  0  0  0
  3 30  1  0  0  0  0
  4  3  1  0  0  0  0
  5 14  1  0  0  0  0
  6  5  1  0  0  0  0
  6  1  1  0  0  0  0
  7  6  2  0  0  0  0
  8 12  2  0  0  0  0
  8  7  1  0  0  0  0
  9  8  1  0  0  0  0
 10  9  1  0  0  0  0
 10 11  2  0  0  0  0
 11 12  1  0  0  0  0
 12 13  1  0  0  0  0
 13 18  1  0  0  0  0
 13  5  2  0  0  0  0
 15  7  1  0  0  0  0
 16  9  1  0  0  0  0
 17 10  1  0  0  0  0
 18 22  1  0  0  0  0
 19 18  1  0  0  0  0
 19 20  1  0  0  0  0
 20 21  1  0  0  0  0
 22 21  1  0  0  0  0
 22 23  1  0  0  0  0
 24 25  1  0  0  0  0
 25 30  2  0  0  0  0
 25 26  1  0  0  0  0
 26 27  2  0  0  0  0
 27 28  1  0  0  0  0
 27 31  1  0  0  0  0
 28 32  1  0  0  0  0
 29 33  1  0  0  0  0
 29 28  2  0  0  0  0
 30 29  1  0  0  0  0
 34 40  1  0  0  0  0
 34 35  1  0  0  0  0
 35 41  1  0  0  0  0
 36 35  2  0  0  0  0
 36 26  1  0  0  0  0
 37 36  1  0  0  0  0
 38 39  1  0  0  0  0
 38 37  2  0  0  0  0
 39 34  2  0  0  0  0
 42 38  1  0  0  0  0
M  END
>  <minimizedAffinity>
-6.82217169

$$$$

 OpenBabel03272503113D

 42 46  0  0  0  0  0  0  0  0999 V2000
   37.9160   26.4560   35.0430 C   0  0  0  0  0  0  0  0  0  0  0  0
   38.6140   26.8740   36.0000 O   0  0  0  0  0  0  0  0  0  0  0  0
   37.7490   25.0320   34.9810 N   0  0  0  0  0  0  0  0  0  0  0  0
   37.1850   24.6470   34.2090 H   0  0  0  0  0  0  0  0  0  0  0  0
   37.8740   27.3420   32.8240 C   0  0  0  0  0  0  0  0  0  0  0  0
   37.3480   27.3880   34.1060 C   0  0  0  0  0  0  0  0  0  0  0  0
   36.3470   28.2650   34.4660 C   0  0  0  0  0  0  0  0  0  0  0  0
   35.8440   29.1350   33.5140 C   0  0  0  0  0  0  0  0  0  0  0  0
   34.8910   30.0790   33.5700 N   0  0  0  0  0  0  0  0  0  0  0  0
   34.8060   30.6260   32.3600 C   0  0  0  0  0  0  0  0  0  0  0  0
   35.6890   30.0410   31.5510 N   0  0  0  0  0  0  0  0  0  0  0  0
   36.3640   29.0920   32.2460 C   0  0  0  0  0  0  0  0  0  0  0  0
   37.3710   28.2200   31.8570 C   0  0  0  0  0  0  0  0  0  0  0  0
   38.6580   26.6740   32.4950 H   0  0  0  0  0  0  0  0  0  0  0  0
   35.9620   28.2690   35.4770 H   0  0  0  0  0  0  0  0  0  0  0  0
   34.3090   30.3470   34.4160 H   0  0  0  0  0  0  0  0  0  0  0  0
   34.1270   31.4200   32.0820 H   0  0  0  0  0  0  0  0  0  0  0  0
   37.8540   28.2420   30.5180 N   0  0  0  0  0  0  0  0  0  0  0  0
   37.2300   28.5860   29.2800 C   0  0  0  0  0  2  0  0  0  0  0  0
   38.3560   28.9680   28.3450 C   0  0  0  0  0  2  0  0  0  0  0  0
   39.4900   28.1160   28.8120 C   0  0  0  0  0  2  0  0  0  0  0  0
   39.2400   27.8560   30.2800 C   0  0  0  0  0  3  0  0  0  0  0  0
   39.8470   28.5290   30.9280 H   0  0  0  0  0  0  0  0  0  0  0  0
   40.2510   24.0140   34.6090 F   0  0  0  0  0  0  0  0  0  0  0  0
   39.6810   23.8190   35.8250 C   0  0  0  0  0  0  0  0  0  0  0  0
   40.3650   23.1370   36.7930 C   0  0  0  0  0  0  0  0  0  0  0  0
   39.7350   22.9780   37.9880 C   0  0  0  0  0  0  0  0  0  0  0  0
   38.4740   23.4610   38.2560 C   0  0  0  0  0  0  0  0  0  0  0  0
   37.8110   24.1450   37.2550 C   0  0  0  0  0  0  0  0  0  0  0  0
   38.4140   24.3260   36.0370 C   0  0  0  0  0  0  0  0  0  0  0  0
   40.2650   22.4330   38.7810 H   0  0  0  0  0  0  0  0  0  0  0  0
   37.9910   23.3210   39.2170 H   0  0  0  0  0  0  0  0  0  0  0  0
   36.8080   24.5620   37.3810 H   0  0  0  0  0  0  0  0  0  0  0  0
   44.0860   22.9450   36.1350 C   0  0  0  0  0  0  0  0  0  0  0  0
   42.8130   23.4530   36.4420 C   0  0  0  0  0  0  0  0  0  0  0  0
   41.7080   22.6340   36.4750 C   0  0  0  0  0  0  0  0  0  0  0  0
   41.9080   21.3090   36.1970 N   0  0  0  0  0  0  0  0  0  0  0  0
   43.1230   20.8270   35.9050 C   0  0  0  0  0  0  0  0  0  0  0  0
   44.1880   21.6180   35.8730 N   0  0  0  0  0  0  0  0  0  0  0  0
   44.9550   23.5860   36.1070 H   0  0  0  0  0  0  0  0  0  0  0  0
   42.6890   24.5010   36.6560 H   0  0  0  0  0  0  0  0  0  0  0  0
   43.0930   19.7660   35.7140 H   0  0  0  0  0  0  0  0  0  0  0  0
  1  2  2  0  0  0  0
  3  1  1  0  0  0  0
  3 30  1  0  0  0  0
  4  3  1  0  0  0  0
  5  6  1  0  0  0  0
  6  7  2  0  0  0  0
  6  1  1  0  0  0  0
  7 15  1  0  0  0  0
  8  9  1  0  0  0  0
  8  7  1  0  0  0  0
  9 16  1  0  0  0  0
 10  9  1  0  0  0  0
 11 12  1  0  0  0  0
 11 10  2  0  0  0  0
 12  8  2  0  0  0  0
 13 12  1  0  0  0  0
 13  5  2  0  0  0  0
 14  5  1  0  0  0  0
 17 10  1  0  0  0  0
 18 13  1  0  0  0  0
 19 18  1  0  0  0  0
 20 21  1  0  0  0  0
 20 19  1  0  0  0  0
 21 22  1  0  0  0  0
 22 18  1  0  0  0  0
 22 23  1  0  0  0  0
 24 25  1  0  0  0  0
 25 30  2  0  0  0  0
 25 26  1  0  0  0  0
 26 27  2  0  0  0  0
 27 28  1  0  0  0  0
 27 31  1  0  0  0  0
 28 32  1  0  0  0  0
 29 33  1  0  0  0  0
 29 28  2  0  0  0  0
 30 29  1  0  0  0  0
 34 35  1  0  0  0  0
 35 36  2  0  0  0  0
 35 41  1  0  0  0  0
 36 26  1  0  0  0  0
 37 36  1  0  0  0  0
 38 37  2  0  0  0  0
 39 38  1  0  0  0  0
 39 34  2  0  0  0  0
 40 34  1  0  0  0  0
 42 38  1  0  0  0  0
M  END
>  <minimizedAffinity>
-6.66098833

$$$$

 OpenBabel03272503113D

 42 46  0  0  0  0  0  0  0  0999 V2000
   36.8840   27.2380   31.8190 C   0  0  0  0  0  0  0  0  0  0  0  0
   37.6190   26.7720   32.7260 O   0  0  0  0  0  0  0  0  0  0  0  0
   36.6820   26.3750   30.6900 N   0  0  0  0  0  0  0  0  0  0  0  0
   36.0880   26.7200   29.9210 H   0  0  0  0  0  0  0  0  0  0  0  0
   36.0420   28.9490   33.2580 C   0  0  0  0  0  0  0  0  0  0  0  0
   36.3120   28.5500   31.9580 C   0  0  0  0  0  0  0  0  0  0  0  0
   36.0520   29.3510   30.8670 C   0  0  0  0  0  0  0  0  0  0  0  0
   35.5010   30.6040   31.0720 C   0  0  0  0  0  0  0  0  0  0  0  0
   35.1470   31.5830   30.2240 N   0  0  0  0  0  0  0  0  0  0  0  0
   34.6630   32.5830   30.9560 C   0  0  0  0  0  0  0  0  0  0  0  0
   34.7080   32.2460   32.2440 N   0  0  0  0  0  0  0  0  0  0  0  0
   35.2330   31.0000   32.3570 C   0  0  0  0  0  0  0  0  0  0  0  0
   35.4840   30.2150   33.4730 C   0  0  0  0  0  0  0  0  0  0  0  0
   36.2280   28.3570   34.1440 H   0  0  0  0  0  0  0  0  0  0  0  0
   36.2780   29.0030   29.8680 H   0  0  0  0  0  0  0  0  0  0  0  0
   35.2330   31.5710   29.1660 H   0  0  0  0  0  0  0  0  0  0  0  0
   34.2920   33.5190   30.5620 H   0  0  0  0  0  0  0  0  0  0  0  0
   35.1740   30.7040   34.7730 N   0  0  0  0  0  0  0  0  0  0  0  0
   35.9840   31.2810   35.7980 C   0  0  0  0  0  2  0  0  0  0  0  0
   35.0440   32.1020   36.6510 C   0  0  0  0  0  2  0  0  0  0  0  0
   33.7550   31.3550   36.5520 C   0  0  0  0  0  2  0  0  0  0  0  0
   33.7870   30.6430   35.2190 C   0  0  0  0  0  3  0  0  0  0  0  0
   33.2060   31.1910   34.4430 H   0  0  0  0  0  0  0  0  0  0  0  0
   35.4010   24.1910   31.7020 F   0  0  0  0  0  0  0  0  0  0  0  0
   36.6900   24.0230   31.3130 C   0  0  0  0  0  0  0  0  0  0  0  0
   37.2820   22.7980   31.4390 C   0  0  0  0  0  0  0  0  0  0  0  0
   38.5750   22.7000   31.0300 C   0  0  0  0  0  0  0  0  0  0  0  0
   39.2920   23.7530   30.5090 C   0  0  0  0  0  0  0  0  0  0  0  0
   38.6630   24.9780   30.3950 C   0  0  0  0  0  0  0  0  0  0  0  0
   37.3600   25.1160   30.7960 C   0  0  0  0  0  0  0  0  0  0  0  0
   39.0720   21.7250   31.1220 H   0  0  0  0  0  0  0  0  0  0  0  0
   40.3240   23.6520   30.1890 H   0  0  0  0  0  0  0  0  0  0  0  0
   39.1560   25.8670   29.9920 H   0  0  0  0  0  0  0  0  0  0  0  0
   35.0650   19.7500   31.7720 C   0  0  0  0  0  0  0  0  0  0  0  0
   35.8150   20.7960   31.2090 C   0  0  0  0  0  0  0  0  0  0  0  0
   36.4900   21.6950   32.0000 C   0  0  0  0  0  0  0  0  0  0  0  0
   36.3990   21.5220   33.3550 N   0  0  0  0  0  0  0  0  0  0  0  0
   35.6830   20.5230   33.8890 C   0  0  0  0  0  0  0  0  0  0  0  0
   35.0310   19.6580   33.1240 N   0  0  0  0  0  0  0  0  0  0  0  0
   34.5330   19.0430   31.1520 H   0  0  0  0  0  0  0  0  0  0  0  0
   35.8670   20.9040   30.1390 H   0  0  0  0  0  0  0  0  0  0  0  0
   35.7220   20.5410   34.9670 H   0  0  0  0  0  0  0  0  0  0  0  0
  1  6  1  0  0  0  0
  1  2  2  0  0  0  0
  3 30  1  0  0  0  0
  3  1  1  0  0  0  0
  4  3  1  0  0  0  0
  5 13  1  0  0  0  0
  5 14  1  0  0  0  0
  6  5  2  0  0  0  0
  7  8  2  0  0  0  0
  7  6  1  0  0  0  0
  8 12  1  0  0  0  0
  9 10  1  0  0  0  0
  9  8  1  0  0  0  0
 10 11  2  0  0  0  0
 11 12  1  0  0  0  0
 12 13  2  0  0  0  0
 13 18  1  0  0  0  0
 15  7  1  0  0  0  0
 16  9  1  0  0  0  0
 17 10  1  0  0  0  0
 18 22  1  0  0  0  0
 18 19  1  0  0  0  0
 19 20  1  0  0  0  0
 21 20  1  0  0  0  0
 22 21  1  0  0  0  0
 23 22  1  0  0  0  0
 25 26  1  0  0  0  0
 25 24  1  0  0  0  0
 26 36  1  0  0  0  0
 27 31  1  0  0  0  0
 27 26  2  0  0  0  0
 28 27  1  0  0  0  0
 29 28  2  0  0  0  0
 29 30  1  0  0  0  0
 30 25  2  0  0  0  0
 32 28  1  0  0  0  0
 33 29  1  0  0  0  0
 34 39  1  0  0  0  0
 35 34  2  0  0  0  0
 35 36  1  0  0  0  0
 36 37  2  0  0  0  0
 37 38  1  0  0  0  0
 38 42  1  0  0  0  0
 39 38  2  0  0  0  0
 40 34  1  0  0  0  0
 41 35  1  0  0  0  0
M  END
>  <minimizedAffinity>
-6.61881638

$$$$

 OpenBabel03272503113D

 42 46  0  0  0  0  0  0  0  0999 V2000
   37.4100   26.4870   34.3920 C   0  0  0  0  0  0  0  0  0  0  0  0
   37.3810   25.4120   33.7430 O   0  0  0  0  0  0  0  0  0  0  0  0
   38.0400   26.4100   35.6790 N   0  0  0  0  0  0  0  0  0  0  0  0
   38.0820   27.2700   36.2460 H   0  0  0  0  0  0  0  0  0  0  0  0
   36.2560   28.5500   34.7440 C   0  0  0  0  0  0  0  0  0  0  0  0
   36.8360   27.6810   33.8320 C   0  0  0  0  0  0  0  0  0  0  0  0
   36.8650   27.9380   32.4780 C   0  0  0  0  0  0  0  0  0  0  0  0
   36.2940   29.1080   32.0060 C   0  0  0  0  0  0  0  0  0  0  0  0
   36.1740   29.6160   30.7690 N   0  0  0  0  0  0  0  0  0  0  0  0
   35.5350   30.7770   30.8810 C   0  0  0  0  0  0  0  0  0  0  0  0
   35.2540   31.0020   32.1640 N   0  0  0  0  0  0  0  0  0  0  0  0
   35.7200   29.9670   32.9060 C   0  0  0  0  0  0  0  0  0  0  0  0
   35.6760   29.7330   34.2730 C   0  0  0  0  0  0  0  0  0  0  0  0
   36.2080   28.3910   35.8130 H   0  0  0  0  0  0  0  0  0  0  0  0
   37.3290   27.2360   31.7980 H   0  0  0  0  0  0  0  0  0  0  0  0
   36.5200   29.1810   29.8650 H   0  0  0  0  0  0  0  0  0  0  0  0
   35.2830   31.4320   30.0570 H   0  0  0  0  0  0  0  0  0  0  0  0
   35.0580   30.6800   35.1380 N   0  0  0  0  0  0  0  0  0  0  0  0
   33.6890   30.9640   35.4260 C   0  0  0  0  0  2  0  0  0  0  0  0
   33.6830   31.6200   36.7890 C   0  0  0  0  0  2  0  0  0  0  0  0
   34.9910   32.3390   36.8260 C   0  0  0  0  0  2  0  0  0  0  0  0
   35.9180   31.5650   35.9160 C   0  0  0  0  0  3  0  0  0  0  0  0
   36.5920   30.8890   36.4890 H   0  0  0  0  0  0  0  0  0  0  0  0
   40.5750   25.6780   34.9920 F   0  0  0  0  0  0  0  0  0  0  0  0
   39.8230   24.7560   35.6430 C   0  0  0  0  0  0  0  0  0  0  0  0
   40.3510   23.5270   35.9240 C   0  0  0  0  0  0  0  0  0  0  0  0
   39.5430   22.6500   36.5790 C   0  0  0  0  0  0  0  0  0  0  0  0
   38.2530   22.9410   36.9600 C   0  0  0  0  0  0  0  0  0  0  0  0
   37.7510   24.1930   36.6610 C   0  0  0  0  0  0  0  0  0  0  0  0
   38.5350   25.1040   36.0020 C   0  0  0  0  0  0  0  0  0  0  0  0
   39.9460   21.6560   36.8150 H   0  0  0  0  0  0  0  0  0  0  0  0
   37.6270   22.2260   37.4820 H   0  0  0  0  0  0  0  0  0  0  0  0
   36.7380   24.5090   36.9270 H   0  0  0  0  0  0  0  0  0  0  0  0
   44.1010   23.0280   35.9440 C   0  0  0  0  0  0  0  0  0  0  0  0
   42.7930   23.3000   36.3740 C   0  0  0  0  0  0  0  0  0  0  0  0
   41.7310   23.2470   35.5020 C   0  0  0  0  0  0  0  0  0  0  0  0
   42.0090   22.9180   34.2030 N   0  0  0  0  0  0  0  0  0  0  0  0
   43.2580   22.6590   33.7950 C   0  0  0  0  0  0  0  0  0  0  0  0
   44.2820   22.7100   34.6380 N   0  0  0  0  0  0  0  0  0  0  0  0
   44.9380   23.0700   36.6270 H   0  0  0  0  0  0  0  0  0  0  0  0
   42.6070   23.5560   37.4040 H   0  0  0  0  0  0  0  0  0  0  0  0
   43.2900   22.4180   32.7450 H   0  0  0  0  0  0  0  0  0  0  0  0
  1  3  1  0  0  0  0
  2  1  2  0  0  0  0
  3 30  1  0  0  0  0
  3  4  1  0  0  0  0
  5 14  1  0  0  0  0
  6  1  1  0  0  0  0
  6  5  2  0  0  0  0
  7  6  1  0  0  0  0
  8  7  2  0  0  0  0
  8 12  1  0  0  0  0
  9 10  1  0  0  0  0
  9  8  1  0  0  0  0
 10 11  2  0  0  0  0
 11 12  1  0  0  0  0
 12 13  2  0  0  0  0
 13  5  1  0  0  0  0
 13 18  1  0  0  0  0
 15  7  1  0  0  0  0
 16  9  1  0  0  0  0
 17 10  1  0  0  0  0
 18 19  1  0  0  0  0
 18 22  1  0  0  0  0
 19 20  1  0  0  0  0
 20 21  1  0  0  0  0
 22 23  1  0  0  0  0
 22 21  1  0  0  0  0
 24 25  1  0  0  0  0
 25 26  2  0  0  0  0
 25 30  1  0  0  0  0
 26 27  1  0  0  0  0
 27 31  1  0  0  0  0
 27 28  2  0  0  0  0
 28 32  1  0  0  0  0
 29 33  1  0  0  0  0
 29 28  1  0  0  0  0
 30 29  2  0  0  0  0
 34 35  1  0  0  0  0
 34 40  1  0  0  0  0
 35 41  1  0  0  0  0
 36 26  1  0  0  0  0
 36 35  2  0  0  0  0
 37 36  1  0  0  0  0
 38 37  2  0  0  0  0
 38 39  1  0  0  0  0
 39 34  2  0  0  0  0
 42 38  1  0  0  0  0
M  END
>  <minimizedAffinity>
-6.59395027

$$$$

 OpenBabel03272503113D

 42 46  0  0  0  0  0  0  0  0999 V2000
   37.1810   26.7670   32.9000 C   0  0  0  0  0  0  0  0  0  0  0  0
   38.0080   27.5980   33.3530 O   0  0  0  0  0  0  0  0  0  0  0  0
   36.0540   27.3340   32.2160 N   0  0  0  0  0  0  0  0  0  0  0  0
   35.3500   26.6880   31.8310 H   0  0  0  0  0  0  0  0  0  0  0  0
   37.9670   24.9950   34.2960 C   0  0  0  0  0  0  0  0  0  0  0  0
   37.4020   25.3580   33.0840 C   0  0  0  0  0  0  0  0  0  0  0  0
   37.0710   24.4360   32.1140 C   0  0  0  0  0  0  0  0  0  0  0  0
   37.3100   23.0940   32.3550 C   0  0  0  0  0  0  0  0  0  0  0  0
   37.0980   21.9940   31.6170 N   0  0  0  0  0  0  0  0  0  0  0  0
   37.5140   20.9530   32.3320 C   0  0  0  0  0  0  0  0  0  0  0  0
   37.9830   21.3830   33.5020 N   0  0  0  0  0  0  0  0  0  0  0  0
   37.8700   22.7340   33.5540 C   0  0  0  0  0  0  0  0  0  0  0  0
   38.2130   23.6400   34.5470 C   0  0  0  0  0  0  0  0  0  0  0  0
   38.2440   25.6810   35.0860 H   0  0  0  0  0  0  0  0  0  0  0  0
   36.6300   24.7600   31.1800 H   0  0  0  0  0  0  0  0  0  0  0  0
   36.6770   21.9520   30.6430 H   0  0  0  0  0  0  0  0  0  0  0  0
   37.4770   19.9210   32.0100 H   0  0  0  0  0  0  0  0  0  0  0  0
   38.7910   23.1790   35.7630 N   0  0  0  0  0  0  0  0  0  0  0  0
   39.9150   22.3420   36.0330 C   0  0  0  0  0  2  0  0  0  0  0  0
   40.3600   22.6890   37.4360 C   0  0  0  0  0  2  0  0  0  0  0  0
   39.0850   23.0770   38.1100 C   0  0  0  0  0  2  0  0  0  0  0  0
   38.1780   23.5980   37.0180 C   0  0  0  0  0  3  0  0  0  0  0  0
   38.1710   24.7120   36.9830 H   0  0  0  0  0  0  0  0  0  0  0  0
   35.0740   28.8070   34.2910 F   0  0  0  0  0  0  0  0  0  0  0  0
   35.5670   29.4920   33.2280 C   0  0  0  0  0  0  0  0  0  0  0  0
   35.5550   30.8590   33.2380 C   0  0  0  0  0  0  0  0  0  0  0  0
   36.0650   31.4820   32.1420 C   0  0  0  0  0  0  0  0  0  0  0  0
   36.5780   30.8120   31.0540 C   0  0  0  0  0  0  0  0  0  0  0  0
   36.5740   29.4310   31.0770 C   0  0  0  0  0  0  0  0  0  0  0  0
   36.0700   28.7680   32.1650 C   0  0  0  0  0  0  0  0  0  0  0  0
   36.0650   32.5800   32.1270 H   0  0  0  0  0  0  0  0  0  0  0  0
   36.9790   31.3310   30.1900 H   0  0  0  0  0  0  0  0  0  0  0  0
   36.9620   28.8200   30.2570 H   0  0  0  0  0  0  0  0  0  0  0  0
   35.1730   32.4020   36.6720 C   0  0  0  0  0  0  0  0  0  0  0  0
   35.7290   31.7440   35.5620 C   0  0  0  0  0  0  0  0  0  0  0  0
   35.0000   31.5430   34.4140 C   0  0  0  0  0  0  0  0  0  0  0  0
   33.7140   32.0130   34.4040 N   0  0  0  0  0  0  0  0  0  0  0  0
   33.1860   32.6400   35.4640 C   0  0  0  0  0  0  0  0  0  0  0  0
   33.8920   32.8330   36.5710 N   0  0  0  0  0  0  0  0  0  0  0  0
   35.7440   32.5600   37.5750 H   0  0  0  0  0  0  0  0  0  0  0  0
   36.7440   31.3870   35.6020 H   0  0  0  0  0  0  0  0  0  0  0  0
   32.1670   32.9400   35.2790 H   0  0  0  0  0  0  0  0  0  0  0  0
  1  6  1  0  0  0  0
  1  2  2  0  0  0  0
  3  1  1  0  0  0  0
  4  3  1  0  0  0  0
  5 13  1  0  0  0  0
  5 14  1  0  0  0  0
  6  5  2  0  0  0  0
  7  8  2  0  0  0  0
  7  6  1  0  0  0  0
  8 12  1  0  0  0  0
  9 10  1  0  0  0  0
  9  8  1  0  0  0  0
 10 11  2  0  0  0  0
 11 12  1  0  0  0  0
 12 13  2  0  0  0  0
 13 18  1  0  0  0  0
 15  7  1  0  0  0  0
 16  9  1  0  0  0  0
 17 10  1  0  0  0  0
 18 19  1  0  0  0  0
 18 22  1  0  0  0  0
 19 20  1  0  0  0  0
 20 21  1  0  0  0  0
 22 21  1  0  0  0  0
 23 22  1  0  0  0  0
 25 26  1  0  0  0  0
 25 24  1  0  0  0  0
 26 36  1  0  0  0  0
 27 26  2  0  0  0  0
 28 29  2  0  0  0  0
 28 27  1  0  0  0  0
 29 30  1  0  0  0  0
 30  3  1  0  0  0  0
 30 25  2  0  0  0  0
 31 27  1  0  0  0  0
 32 28  1  0  0  0  0
 33 29  1  0  0  0  0
 34 40  1  0  0  0  0
 35 41  1  0  0  0  0
 35 34  2  0  0  0  0
 36 35  1  0  0  0  0
 37 36  2  0  0  0  0
 37 38  1  0  0  0  0
 38 39  2  0  0  0  0
 39 34  1  0  0  0  0
 42 38  1  0  0  0  0
M  END
>  <minimizedAffinity>
-6.56309891

$$$$

 OpenBabel03272503113D

 42 46  0  0  0  0  0  0  0  0999 V2000
   37.0640   26.9850   33.5920 C   0  0  0  0  0  0  0  0  0  0  0  0
   36.9000   26.4830   34.7330 O   0  0  0  0  0  0  0  0  0  0  0  0
   37.8820   26.2190   32.6970 N   0  0  0  0  0  0  0  0  0  0  0  0
   38.0450   26.5960   31.7520 H   0  0  0  0  0  0  0  0  0  0  0  0
   35.9480   28.9620   34.3380 C   0  0  0  0  0  0  0  0  0  0  0  0
   36.4490   28.2430   33.2640 C   0  0  0  0  0  0  0  0  0  0  0  0
   36.3670   28.6970   31.9650 C   0  0  0  0  0  0  0  0  0  0  0  0
   35.7620   29.9170   31.7180 C   0  0  0  0  0  0  0  0  0  0  0  0
   35.5410   30.6010   30.5840 N   0  0  0  0  0  0  0  0  0  0  0  0
   34.9160   31.7270   30.9180 C   0  0  0  0  0  0  0  0  0  0  0  0
   34.7420   31.7580   32.2390 N   0  0  0  0  0  0  0  0  0  0  0  0
   35.2660   30.6290   32.7800 C   0  0  0  0  0  0  0  0  0  0  0  0
   35.3340   30.1970   34.0960 C   0  0  0  0  0  0  0  0  0  0  0  0
   35.9890   28.6480   35.3720 H   0  0  0  0  0  0  0  0  0  0  0  0
   36.7710   28.1070   31.1530 H   0  0  0  0  0  0  0  0  0  0  0  0
   35.8100   30.3070   29.6010 H   0  0  0  0  0  0  0  0  0  0  0  0
   34.5990   32.4930   30.2240 H   0  0  0  0  0  0  0  0  0  0  0  0
   34.7920   31.0000   35.1390 N   0  0  0  0  0  0  0  0  0  0  0  0
   33.4560   31.1910   35.6050 C   0  0  0  0  0  2  0  0  0  0  0  0
   33.5840   31.6650   37.0360 C   0  0  0  0  0  2  0  0  0  0  0  0
   34.8710   32.4240   37.0280 C   0  0  0  0  0  2  0  0  0  0  0  0
   35.7110   31.8100   35.9310 C   0  0  0  0  0  3  0  0  0  0  0  0
   36.4600   31.0920   36.3360 H   0  0  0  0  0  0  0  0  0  0  0  0
   36.6190   23.8530   32.2050 F   0  0  0  0  0  0  0  0  0  0  0  0
   37.7160   23.8110   33.0020 C   0  0  0  0  0  0  0  0  0  0  0  0
   38.1360   22.6150   33.5150 C   0  0  0  0  0  0  0  0  0  0  0  0
   39.2420   22.6460   34.3060 C   0  0  0  0  0  0  0  0  0  0  0  0
   39.9370   23.7960   34.6030 C   0  0  0  0  0  0  0  0  0  0  0  0
   39.4840   24.9870   34.0680 C   0  0  0  0  0  0  0  0  0  0  0  0
   38.3740   24.9970   33.2650 C   0  0  0  0  0  0  0  0  0  0  0  0
   39.5980   21.6970   34.7300 H   0  0  0  0  0  0  0  0  0  0  0  0
   40.8170   23.7960   35.2360 H   0  0  0  0  0  0  0  0  0  0  0  0
   39.9750   25.9480   34.2510 H   0  0  0  0  0  0  0  0  0  0  0  0
   37.0240   19.3800   31.9000 C   0  0  0  0  0  0  0  0  0  0  0  0
   37.7740   20.5290   32.2000 C   0  0  0  0  0  0  0  0  0  0  0  0
   37.3730   21.4060   33.1800 C   0  0  0  0  0  0  0  0  0  0  0  0
   36.2150   21.1050   33.8470 N   0  0  0  0  0  0  0  0  0  0  0  0
   35.5030   20.0080   33.5590 C   0  0  0  0  0  0  0  0  0  0  0  0
   35.8910   19.1640   32.6130 N   0  0  0  0  0  0  0  0  0  0  0  0
   37.3370   18.6900   31.1290 H   0  0  0  0  0  0  0  0  0  0  0  0
   38.6800   20.7370   31.6570 H   0  0  0  0  0  0  0  0  0  0  0  0
   34.6250   19.9330   34.1810 H   0  0  0  0  0  0  0  0  0  0  0  0
  1  2  2  0  0  0  0
  3 30  1  0  0  0  0
  3  1  1  0  0  0  0
  4  3  1  0  0  0  0
  5 14  1  0  0  0  0
  6  1  1  0  0  0  0
  6  5  2  0  0  0  0
  7  6  1  0  0  0  0
  8  7  2  0  0  0  0
  8 12  1  0  0  0  0
  9 10  1  0  0  0  0
  9  8  1  0  0  0  0
 10 11  2  0  0  0  0
 11 12  1  0  0  0  0
 12 13  2  0  0  0  0
 13  5  1  0  0  0  0
 13 18  1  0  0  0  0
 15  7  1  0  0  0  0
 16  9  1  0  0  0  0
 17 10  1  0  0  0  0
 18 19  1  0  0  0  0
 18 22  1  0  0  0  0
 19 20  1  0  0  0  0
 21 20  1  0  0  0  0
 22 23  1  0  0  0  0
 22 21  1  0  0  0  0
 24 25  1  0  0  0  0
 25 30  2  0  0  0  0
 25 26  1  0  0  0  0
 26 27  2  0  0  0  0
 27 28  1  0  0  0  0
 27 31  1  0  0  0  0
 28 32  1  0  0  0  0
 29 33  1  0  0  0  0
 29 28  2  0  0  0  0
 30 29  1  0  0  0  0
 34 35  2  0  0  0  0
 34 39  1  0  0  0  0
 35 36  1  0  0  0  0
 36 26  1  0  0  0  0
 36 37  2  0  0  0  0
 38 37  1  0  0  0  0
 38 42  1  0  0  0  0
 39 38  2  0  0  0  0
 40 34  1  0  0  0  0
 41 35  1  0  0  0  0
M  END
>  <minimizedAffinity>
-6.42044544

$$$$

 OpenBabel03272503113D

 42 46  0  0  0  0  0  0  0  0999 V2000
   36.5290   25.8010   32.1230 C   0  0  0  0  0  0  0  0  0  0  0  0
   35.4340   26.1530   31.6180 O   0  0  0  0  0  0  0  0  0  0  0  0
   37.3520   26.8700   32.6110 N   0  0  0  0  0  0  0  0  0  0  0  0
   38.2610   26.6250   33.0300 H   0  0  0  0  0  0  0  0  0  0  0  0
   37.8540   24.0740   33.1100 C   0  0  0  0  0  0  0  0  0  0  0  0
   36.8790   24.4070   32.1810 C   0  0  0  0  0  0  0  0  0  0  0  0
   36.2810   23.4710   31.3660 C   0  0  0  0  0  0  0  0  0  0  0  0
   36.6640   22.1450   31.4740 C   0  0  0  0  0  0  0  0  0  0  0  0
   36.2680   21.0360   30.8290 N   0  0  0  0  0  0  0  0  0  0  0  0
   36.9670   20.0200   31.3260 C   0  0  0  0  0  0  0  0  0  0  0  0
   37.7920   20.4730   32.2690 N   0  0  0  0  0  0  0  0  0  0  0  0
   37.6280   21.8140   32.3910 C   0  0  0  0  0  0  0  0  0  0  0  0
   38.2470   22.7360   33.2240 C   0  0  0  0  0  0  0  0  0  0  0  0
   38.3510   24.7720   33.7690 H   0  0  0  0  0  0  0  0  0  0  0  0
   35.5230   23.7700   30.6540 H   0  0  0  0  0  0  0  0  0  0  0  0
   35.5350   20.9730   30.0630 H   0  0  0  0  0  0  0  0  0  0  0  0
   36.8770   18.9890   31.0110 H   0  0  0  0  0  0  0  0  0  0  0  0
   39.2400   22.3060   34.1480 N   0  0  0  0  0  0  0  0  0  0  0  0
   40.5790   21.8410   33.9700 C   0  0  0  0  0  2  0  0  0  0  0  0
   41.2810   22.0970   35.2850 C   0  0  0  0  0  2  0  0  0  0  0  0
   40.1860   21.9500   36.2890 C   0  0  0  0  0  2  0  0  0  0  0  0
   38.9070   22.3130   35.5680 C   0  0  0  0  0  3  0  0  0  0  0  0
   38.5890   23.3570   35.7890 H   0  0  0  0  0  0  0  0  0  0  0  0
   36.1730   28.1550   34.7070 F   0  0  0  0  0  0  0  0  0  0  0  0
   36.1800   28.8010   33.5140 C   0  0  0  0  0  0  0  0  0  0  0  0
   35.6120   30.0400   33.4110 C   0  0  0  0  0  0  0  0  0  0  0  0
   35.6550   30.6310   32.1870 C   0  0  0  0  0  0  0  0  0  0  0  0
   36.2300   30.0510   31.0790 C   0  0  0  0  0  0  0  0  0  0  0  0
   36.7960   28.7980   31.2190 C   0  0  0  0  0  0  0  0  0  0  0  0
   36.7730   28.1700   32.4370 C   0  0  0  0  0  0  0  0  0  0  0  0
   35.2040   31.6270   32.0790 H   0  0  0  0  0  0  0  0  0  0  0  0
   36.2520   30.5410   30.1120 H   0  0  0  0  0  0  0  0  0  0  0  0
   37.2740   28.2640   30.3930 H   0  0  0  0  0  0  0  0  0  0  0  0
   35.1240   31.9280   36.6530 C   0  0  0  0  0  0  0  0  0  0  0  0
   35.7300   31.3740   35.5140 C   0  0  0  0  0  0  0  0  0  0  0  0
   35.0050   30.6320   34.6110 C   0  0  0  0  0  0  0  0  0  0  0  0
   33.6730   30.4610   34.8740 N   0  0  0  0  0  0  0  0  0  0  0  0
   33.0980   30.9910   35.9620 C   0  0  0  0  0  0  0  0  0  0  0  0
   33.7990   31.7060   36.8320 N   0  0  0  0  0  0  0  0  0  0  0  0
   35.6920   32.5100   37.3640 H   0  0  0  0  0  0  0  0  0  0  0  0
   36.7810   31.5270   35.3350 H   0  0  0  0  0  0  0  0  0  0  0  0
   32.0460   30.7560   36.0080 H   0  0  0  0  0  0  0  0  0  0  0  0
  1  6  1  0  0  0  0
  1  3  1  0  0  0  0
  2  1  2  0  0  0  0
  3  4  1  0  0  0  0
  5 13  1  0  0  0  0
  5 14  1  0  0  0  0
  6  5  2  0  0  0  0
  7  8  2  0  0  0  0
  7  6  1  0  0  0  0
  8 12  1  0  0  0  0
  9 10  1  0  0  0  0
  9  8  1  0  0  0  0
 10 11  2  0  0  0  0
 11 12  1  0  0  0  0
 12 13  2  0  0  0  0
 13 18  1  0  0  0  0
 15  7  1  0  0  0  0
 16  9  1  0  0  0  0
 17 10  1  0  0  0  0
 18 22  1  0  0  0  0
 19 18  1  0  0  0  0
 19 20  1  0  0  0  0
 20 21  1  0  0  0  0
 22 23  1  0  0  0  0
 22 21  1  0  0  0  0
 25 24  1  0  0  0  0
 26 25  1  0  0  0  0
 26 36  1  0  0  0  0
 27 26  2  0  0  0  0
 28 29  2  0  0  0  0
 28 27  1  0  0  0  0
 29 30  1  0  0  0  0
 30  3  1  0  0  0  0
 30 25  2  0  0  0  0
 31 27  1  0  0  0  0
 32 28  1  0  0  0  0
 33 29  1  0  0  0  0
 34 39  1  0  0  0  0
 34 40  1  0  0  0  0
 35 34  2  0  0  0  0
 36 37  2  0  0  0  0
 36 35  1  0  0  0  0
 37 38  1  0  0  0  0
 38 42  1  0  0  0  0
 38 39  2  0  0  0  0
 41 35  1  0  0  0  0
M  END
>  <minimizedAffinity>
-6.41334295

$$$$

 OpenBabel03272503113D

 42 46  0  0  0  0  0  0  0  0999 V2000
   37.0800   27.4600   32.6340 C   0  0  0  0  0  0  0  0  0  0  0  0
   38.3240   27.5400   32.4800 O   0  0  0  0  0  0  0  0  0  0  0  0
   36.5660   26.1290   32.7850 N   0  0  0  0  0  0  0  0  0  0  0  0
   35.5490   26.0170   32.9110 H   0  0  0  0  0  0  0  0  0  0  0  0
   35.9610   29.1430   33.9080 C   0  0  0  0  0  0  0  0  0  0  0  0
   36.2780   28.6530   32.6510 C   0  0  0  0  0  0  0  0  0  0  0  0
   35.8560   29.2630   31.4890 C   0  0  0  0  0  0  0  0  0  0  0  0
   35.0860   30.4110   31.5760 C   0  0  0  0  0  0  0  0  0  0  0  0
   34.5420   31.2050   30.6400 N   0  0  0  0  0  0  0  0  0  0  0  0
   33.8950   32.1780   31.2760 C   0  0  0  0  0  0  0  0  0  0  0  0
   34.0230   32.0040   32.5910 N   0  0  0  0  0  0  0  0  0  0  0  0
   34.7720   30.8960   32.8190 C   0  0  0  0  0  0  0  0  0  0  0  0
   35.1820   30.3020   34.0040 C   0  0  0  0  0  0  0  0  0  0  0  0
   36.2680   28.7000   34.8460 H   0  0  0  0  0  0  0  0  0  0  0  0
   36.1240   28.8510   30.5260 H   0  0  0  0  0  0  0  0  0  0  0  0
   34.6110   31.0870   29.5870 H   0  0  0  0  0  0  0  0  0  0  0  0
   33.3500   32.9800   30.7970 H   0  0  0  0  0  0  0  0  0  0  0  0
   34.8100   30.8730   35.2540 N   0  0  0  0  0  0  0  0  0  0  0  0
   35.5280   31.6730   36.1940 C   0  0  0  0  0  2  0  0  0  0  0  0
   34.4780   32.4260   36.9800 C   0  0  0  0  0  2  0  0  0  0  0  0
   33.3200   31.4820   36.9890 C   0  0  0  0  0  2  0  0  0  0  0  0
   33.4530   30.6470   35.7370 C   0  0  0  0  0  3  0  0  0  0  0  0
   32.7870   31.0140   34.9220 H   0  0  0  0  0  0  0  0  0  0  0  0
   37.7840   25.2710   35.0690 F   0  0  0  0  0  0  0  0  0  0  0  0
   38.1780   24.6920   33.9070 C   0  0  0  0  0  0  0  0  0  0  0  0
   39.1450   23.7260   33.9240 C   0  0  0  0  0  0  0  0  0  0  0  0
   39.4920   23.1890   32.7230 C   0  0  0  0  0  0  0  0  0  0  0  0
   38.9260   23.5660   31.5270 C   0  0  0  0  0  0  0  0  0  0  0  0
   37.9510   24.5460   31.5460 C   0  0  0  0  0  0  0  0  0  0  0  0
   37.5740   25.1100   32.7360 C   0  0  0  0  0  0  0  0  0  0  0  0
   40.2670   22.4110   32.7120 H   0  0  0  0  0  0  0  0  0  0  0  0
   39.2190   23.1240   30.5810 H   0  0  0  0  0  0  0  0  0  0  0  0
   37.4500   24.9050   30.6430 H   0  0  0  0  0  0  0  0  0  0  0  0
   41.6170   22.8630   36.6550 C   0  0  0  0  0  0  0  0  0  0  0  0
   41.0850   23.2270   35.4070 C   0  0  0  0  0  0  0  0  0  0  0  0
   39.7290   23.3470   35.2170 C   0  0  0  0  0  0  0  0  0  0  0  0
   38.9260   23.0960   36.2970 N   0  0  0  0  0  0  0  0  0  0  0  0
   39.4350   22.7480   37.4870 C   0  0  0  0  0  0  0  0  0  0  0  0
   40.7450   22.6330   37.6670 N   0  0  0  0  0  0  0  0  0  0  0  0
   42.6830   22.7680   36.8050 H   0  0  0  0  0  0  0  0  0  0  0  0
   41.7440   23.4190   34.5770 H   0  0  0  0  0  0  0  0  0  0  0  0
   38.6590   22.5890   38.2180 H   0  0  0  0  0  0  0  0  0  0  0  0
  1  6  1  0  0  0  0
  1  3  1  0  0  0  0
  2  1  2  0  0  0  0
  3  4  1  0  0  0  0
  5 13  1  0  0  0  0
  5 14  1  0  0  0  0
  6  5  2  0  0  0  0
  7  8  2  0  0  0  0
  7  6  1  0  0  0  0
  8 12  1  0  0  0  0
  9 10  1  0  0  0  0
  9  8  1  0  0  0  0
 10 11  2  0  0  0  0
 11 12  1  0  0  0  0
 12 13  2  0  0  0  0
 13 18  1  0  0  0  0
 15  7  1  0  0  0  0
 16  9  1  0  0  0  0
 17 10  1  0  0  0  0
 18 22  1  0  0  0  0
 18 19  1  0  0  0  0
 19 20  1  0  0  0  0
 20 21  1  0  0  0  0
 22 21  1  0  0  0  0
 23 22  1  0  0  0  0
 25 26  1  0  0  0  0
 25 24  1  0  0  0  0
 26 36  1  0  0  0  0
 27 26  2  0  0  0  0
 28 29  2  0  0  0  0
 28 27  1  0  0  0  0
 29 30  1  0  0  0  0
 30  3  1  0  0  0  0
 30 25  2  0  0  0  0
 31 27  1  0  0  0  0
 32 28  1  0  0  0  0
 33 29  1  0  0  0  0
 34 40  1  0  0  0  0
 34 39  1  0  0  0  0
 35 34  2  0  0  0  0
 36 35  1  0  0  0  0
 36 37  2  0  0  0  0
 37 38  1  0  0  0  0
 38 39  2  0  0  0  0
 38 42  1  0  0  0  0
 41 35  1  0  0  0  0
M  END
>  <minimizedAffinity>
-6.35545874

$$$$

 OpenBabel03272503113D

 42 46  0  0  0  0  0  0  0  0999 V2000
   37.1300   27.3890   34.0290 C   0  0  0  0  0  0  0  0  0  0  0  0
   37.2380   26.4030   33.2580 O   0  0  0  0  0  0  0  0  0  0  0  0
   37.8530   27.2840   35.2640 N   0  0  0  0  0  0  0  0  0  0  0  0
   37.7900   28.0700   35.9280 H   0  0  0  0  0  0  0  0  0  0  0  0
   35.7620   29.2330   34.6930 C   0  0  0  0  0  0  0  0  0  0  0  0
   36.3250   28.5180   33.6470 C   0  0  0  0  0  0  0  0  0  0  0  0
   36.1310   28.8600   32.3260 C   0  0  0  0  0  0  0  0  0  0  0  0
   35.3440   29.9590   32.0270 C   0  0  0  0  0  0  0  0  0  0  0  0
   34.9850   30.5210   30.8610 N   0  0  0  0  0  0  0  0  0  0  0  0
   34.2130   31.5650   31.1480 C   0  0  0  0  0  0  0  0  0  0  0  0
   34.0830   31.6660   32.4700 N   0  0  0  0  0  0  0  0  0  0  0  0
   34.7860   30.6670   33.0600 C   0  0  0  0  0  0  0  0  0  0  0  0
   34.9640   30.3440   34.3980 C   0  0  0  0  0  0  0  0  0  0  0  0
   35.8850   29.0030   35.7430 H   0  0  0  0  0  0  0  0  0  0  0  0
   36.5890   28.2780   31.5370 H   0  0  0  0  0  0  0  0  0  0  0  0
   35.2600   30.1980   29.8880 H   0  0  0  0  0  0  0  0  0  0  0  0
   33.7620   32.2250   30.4200 H   0  0  0  0  0  0  0  0  0  0  0  0
   34.3470   31.1340   35.4090 N   0  0  0  0  0  0  0  0  0  0  0  0
   33.0040   31.1970   35.8890 C   0  0  0  0  0  2  0  0  0  0  0  0
   33.0940   31.7550   37.2910 C   0  0  0  0  0  2  0  0  0  0  0  0
   34.2860   32.6520   37.2240 C   0  0  0  0  0  2  0  0  0  0  0  0
   35.1770   32.0820   36.1440 C   0  0  0  0  0  3  0  0  0  0  0  0
   36.0070   31.4750   36.5710 H   0  0  0  0  0  0  0  0  0  0  0  0
   40.4420   27.1090   34.4280 F   0  0  0  0  0  0  0  0  0  0  0  0
   39.8950   25.9930   34.9710 C   0  0  0  0  0  0  0  0  0  0  0  0
   40.6420   24.8530   35.0770 C   0  0  0  0  0  0  0  0  0  0  0  0
   40.0300   23.7720   35.6310 C   0  0  0  0  0  0  0  0  0  0  0  0
   38.7280   23.7780   36.0780 C   0  0  0  0  0  0  0  0  0  0  0  0
   38.0020   24.9470   35.9560 C   0  0  0  0  0  0  0  0  0  0  0  0
   38.5840   26.0570   35.4030 C   0  0  0  0  0  0  0  0  0  0  0  0
   40.6110   22.8450   35.7260 H   0  0  0  0  0  0  0  0  0  0  0  0
   38.2610   22.9030   36.5170 H   0  0  0  0  0  0  0  0  0  0  0  0
   36.9630   25.0400   36.2840 H   0  0  0  0  0  0  0  0  0  0  0  0
   44.4140   25.1060   34.9340 C   0  0  0  0  0  0  0  0  0  0  0  0
   43.0990   25.0860   35.4270 C   0  0  0  0  0  0  0  0  0  0  0  0
   42.0280   24.8800   34.5900 C   0  0  0  0  0  0  0  0  0  0  0  0
   42.3030   24.6950   33.2620 N   0  0  0  0  0  0  0  0  0  0  0  0
   43.5580   24.7150   32.7950 C   0  0  0  0  0  0  0  0  0  0  0  0
   44.5900   24.9150   33.6040 N   0  0  0  0  0  0  0  0  0  0  0  0
   45.2570   25.2700   35.5900 H   0  0  0  0  0  0  0  0  0  0  0  0
   42.9160   25.2340   36.4780 H   0  0  0  0  0  0  0  0  0  0  0  0
   43.5860   24.5530   31.7290 H   0  0  0  0  0  0  0  0  0  0  0  0
  1  3  1  0  0  0  0
  2  1  2  0  0  0  0
  3 30  1  0  0  0  0
  3  4  1  0  0  0  0
  5 14  1  0  0  0  0
  6  1  1  0  0  0  0
  6  5  2  0  0  0  0
  7  6  1  0  0  0  0
  8  7  2  0  0  0  0
  8 12  1  0  0  0  0
  9 10  1  0  0  0  0
  9  8  1  0  0  0  0
 10 11  2  0  0  0  0
 11 12  1  0  0  0  0
 12 13  2  0  0  0  0
 13  5  1  0  0  0  0
 13 18  1  0  0  0  0
 15  7  1  0  0  0  0
 16  9  1  0  0  0  0
 17 10  1  0  0  0  0
 18 19  1  0  0  0  0
 18 22  1  0  0  0  0
 19 20  1  0  0  0  0
 21 20  1  0  0  0  0
 22 23  1  0  0  0  0
 22 21  1  0  0  0  0
 24 25  1  0  0  0  0
 25 26  2  0  0  0  0
 25 30  1  0  0  0  0
 26 27  1  0  0  0  0
 27 31  1  0  0  0  0
 27 28  2  0  0  0  0
 28 32  1  0  0  0  0
 29 28  1  0  0  0  0
 29 33  1  0  0  0  0
 30 29  2  0  0  0  0
 34 35  1  0  0  0  0
 34 40  1  0  0  0  0
 35 41  1  0  0  0  0
 36 26  1  0  0  0  0
 36 35  2  0  0  0  0
 37 36  1  0  0  0  0
 38 37  2  0  0  0  0
 38 39  1  0  0  0  0
 39 34  2  0  0  0  0
 42 38  1  0  0  0  0
M  END
>  <minimizedAffinity>
-6.32359934

$$$$
