
 OpenBabel03272510053D

 27 29  0  0  0  0  0  0  0  0999 V2000
   36.3480   31.1360   49.3020 C   0  0  0  0  0  0  0  0  0  0  0  0
   37.1280   31.4870   48.1940 C   0  0  0  0  0  0  0  0  0  0  0  0
   36.8370   30.8870   46.9670 C   0  0  0  0  0  0  0  0  0  0  0  0
   35.8160   29.9930   46.8980 N   0  0  0  0  0  0  0  0  0  0  0  0
   35.0800   29.6750   47.9890 C   0  0  0  0  0  0  0  0  0  0  0  0
   35.3360   30.2380   49.1900 N   0  0  0  0  0  0  0  0  0  0  0  0
   34.0200   28.7230   47.8390 N   0  0  0  0  0  0  0  0  0  0  0  0
   32.8790   28.9360   46.9470 C   0  0  0  0  0  0  0  0  0  0  0  0
   32.1910   27.6250   46.9120 C   0  0  0  0  0  0  0  0  0  0  0  0
   33.0970   26.6310   47.6130 C   0  0  0  0  0  0  0  0  0  0  0  0
   33.9380   27.4450   48.5380 C   0  0  0  0  0  0  0  0  0  0  0  0
   36.5530   31.5870   50.2660 H   0  0  0  0  0  0  0  0  0  0  0  0
   37.4120   31.1260   46.0810 H   0  0  0  0  0  0  0  0  0  0  0  0
   32.1720   29.6990   47.3700 H   0  0  0  0  0  0  0  0  0  0  0  0
   33.2610   29.3150   45.9890 H   0  0  0  0  0  0  0  0  0  0  0  0
   31.1630   27.6140   47.3290 H   0  0  0  0  0  0  0  0  0  0  0  0
   32.1060   27.2930   45.8530 H   0  0  0  0  0  0  0  0  0  0  0  0
   32.4380   25.9730   48.2450 H   0  0  0  0  0  0  0  0  0  0  0  0
   33.6490   25.9710   46.9290 H   0  0  0  0  0  0  0  0  0  0  0  0
   34.9630   27.0030   48.5120 H   0  0  0  0  0  0  0  0  0  0  0  0
   33.5800   27.5310   49.5670 H   0  0  0  0  0  0  0  0  0  0  0  0
   38.1720   32.4190   48.3250 N   0  0  0  0  0  0  0  0  0  0  0  0
   39.2900   32.5390   47.4200 C   0  0  0  0  0  2  0  0  0  0  0  0
   39.8270   33.9260   47.6660 C   0  0  0  0  0  2  0  0  0  0  0  0
   39.5700   34.1210   49.1420 C   0  0  0  0  0  2  0  0  0  0  0  0
   38.2840   33.3980   49.3830 C   0  0  0  0  0  3  0  0  0  0  0  0
   37.4250   34.1040   49.2470 H   0  0  0  0  0  0  0  0  0  0  0  0
  1 12  1  0  0  0  0
  2 22  1  0  0  0  0
  2  1  2  0  0  0  0
  3  2  1  0  0  0  0
  4  3  2  0  0  0  0
  4  5  1  0  0  0  0
  5  6  2  0  0  0  0
  6  1  1  0  0  0  0
  7  5  1  0  0  0  0
  7 11  1  0  0  0  0
  8 14  1  0  0  0  0
  8  7  1  0  0  0  0
  9  8  1  0  0  0  0
  9 16  1  0  0  0  0
  9 10  1  0  0  0  0
 10 18  1  0  0  0  0
 10 11  1  0  0  0  0
 11 21  1  0  0  0  0
 13  3  1  0  0  0  0
 15  8  1  0  0  0  0
 17  9  1  0  0  0  0
 19 10  1  0  0  0  0
 20 11  1  0  0  0  0
 22 26  1  0  0  0  0
 23 24  1  0  0  0  0
 23 22  1  0  0  0  0
 24 25  1  0  0  0  0
 25 26  1  0  0  0  0
 27 26  1  0  0  0  0
M  END
>  <minimizedAffinity>
-4.47607183

>  <minimizedRMSD>
2.61239791

$$$$
