
 OpenBabel03272510323D

 25 27  0  0  0  0  0  0  0  0999 V2000
   35.8190   30.0300   47.8990 C   0  0  0  0  0  0  0  0  0  0  0  0
   35.1090   30.1300   46.7270 C   0  0  0  0  0  0  0  0  0  0  0  0
   34.0600   29.2650   46.4480 C   0  0  0  0  0  0  0  0  0  0  0  0
   33.7520   28.2940   47.3950 C   0  0  0  0  0  0  0  0  0  0  0  0
   34.4490   28.1730   48.5760 C   0  0  0  0  0  0  0  0  0  0  0  0
   35.4880   29.0510   48.8200 C   0  0  0  0  0  0  0  0  0  0  0  0
   35.3210   30.8730   45.9680 H   0  0  0  0  0  0  0  0  0  0  0  0
   33.5120   29.3470   45.5370 H   0  0  0  0  0  0  0  0  0  0  0  0
   32.9320   27.6000   47.2030 H   0  0  0  0  0  0  0  0  0  0  0  0
   34.2240   27.4220   49.3260 H   0  0  0  0  0  0  0  0  0  0  0  0
   37.6650   32.8290   49.2890 C   0  0  0  0  0  0  0  0  0  0  0  0
   38.8670   32.8580   48.5840 C   0  0  0  0  0  0  0  0  0  0  0  0
   39.0290   31.8690   47.6000 C   0  0  0  0  0  0  0  0  0  0  0  0
   38.0470   30.9550   47.3770 N   0  0  0  0  0  0  0  0  0  0  0  0
   36.8980   30.9820   48.0990 C   0  0  0  0  0  0  0  0  0  0  0  0
   36.7050   31.9270   49.0640 N   0  0  0  0  0  0  0  0  0  0  0  0
   37.4600   33.5590   50.0670 H   0  0  0  0  0  0  0  0  0  0  0  0
   39.6040   33.5980   48.7990 H   0  0  0  0  0  0  0  0  0  0  0  0
   39.9530   31.8610   47.0310 H   0  0  0  0  0  0  0  0  0  0  0  0
   36.2610   28.9980   50.0140 N   0  0  0  0  0  0  0  0  0  0  0  0
   35.7810   29.1900   51.3870 C   0  0  0  0  0  2  0  0  0  0  0  0
   36.7480   30.2910   51.8410 C   0  0  0  0  0  2  0  0  0  0  0  0
   38.0680   29.6400   51.4350 C   0  0  0  0  0  2  0  0  0  0  0  0
   37.6560   28.7640   50.2920 C   0  0  0  0  0  3  0  0  0  0  0  0
   37.7400   27.7090   50.6190 H   0  0  0  0  0  0  0  0  0  0  0  0
  1 15  1  0  0  0  0
  1  6  1  0  0  0  0
  2  1  2  0  0  0  0
  3  2  1  0  0  0  0
  3  4  2  0  0  0  0
  4  5  1  0  0  0  0
  5  6  2  0  0  0  0
  5 10  1  0  0  0  0
  6 20  1  0  0  0  0
  7  2  1  0  0  0  0
  8  3  1  0  0  0  0
  9  4  1  0  0  0  0
 11 17  1  0  0  0  0
 12 18  1  0  0  0  0
 12 11  2  0  0  0  0
 13 12  1  0  0  0  0
 14 13  2  0  0  0  0
 14 15  1  0  0  0  0
 15 16  2  0  0  0  0
 16 11  1  0  0  0  0
 19 13  1  0  0  0  0
 20 24  1  0  0  0  0
 20 21  1  0  0  0  0
 21 22  1  0  0  0  0
 23 22  1  0  0  0  0
 24 25  1  0  0  0  0
 24 23  1  0  0  0  0
M  END
>  <minimizedAffinity>
-4.47623205

>  <minimizedRMSD>
1.02652287

$$$$
