
 OpenBabel03272510323D

 25 27  0  0  0  0  0  0  0  0999 V2000
   35.7290   29.9330   47.9030 C   0  0  0  0  0  0  0  0  0  0  0  0
   34.9800   30.0070   46.7540 C   0  0  0  0  0  0  0  0  0  0  0  0
   33.8930   29.1680   46.5510 C   0  0  0  0  0  0  0  0  0  0  0  0
   33.5880   28.2510   47.5520 C   0  0  0  0  0  0  0  0  0  0  0  0
   34.3240   28.1570   48.7110 C   0  0  0  0  0  0  0  0  0  0  0  0
   35.3990   29.0080   48.8780 C   0  0  0  0  0  0  0  0  0  0  0  0
   35.1880   30.7080   45.9550 H   0  0  0  0  0  0  0  0  0  0  0  0
   33.3140   29.2290   45.6580 H   0  0  0  0  0  0  0  0  0  0  0  0
   32.7380   27.5780   47.4200 H   0  0  0  0  0  0  0  0  0  0  0  0
   34.1010   27.4480   49.5020 H   0  0  0  0  0  0  0  0  0  0  0  0
   37.7120   32.7330   49.0890 C   0  0  0  0  0  0  0  0  0  0  0  0
   38.8930   32.6800   48.3500 C   0  0  0  0  0  0  0  0  0  0  0  0
   38.9900   31.6360   47.4160 C   0  0  0  0  0  0  0  0  0  0  0  0
   37.9710   30.7470   47.2700 N   0  0  0  0  0  0  0  0  0  0  0  0
   36.8460   30.8540   48.0210 C   0  0  0  0  0  0  0  0  0  0  0  0
   36.7150   31.8560   48.9400 N   0  0  0  0  0  0  0  0  0  0  0  0
   37.5560   33.5090   49.8330 H   0  0  0  0  0  0  0  0  0  0  0  0
   39.6610   33.4030   48.5040 H   0  0  0  0  0  0  0  0  0  0  0  0
   39.8960   31.5640   46.8220 H   0  0  0  0  0  0  0  0  0  0  0  0
   36.2140   28.9800   50.0460 N   0  0  0  0  0  0  0  0  0  0  0  0
   35.7900   29.2290   51.4280 C   0  0  0  0  0  2  0  0  0  0  0  0
   36.7960   30.3230   51.8060 C   0  0  0  0  0  2  0  0  0  0  0  0
   38.0860   29.6300   51.3750 C   0  0  0  0  0  2  0  0  0  0  0  0
   37.6140   28.7250   50.2790 C   0  0  0  0  0  3  0  0  0  0  0  0
   37.6880   27.6810   50.6410 H   0  0  0  0  0  0  0  0  0  0  0  0
  1 15  1  0  0  0  0
  1  6  1  0  0  0  0
  2  1  2  0  0  0  0
  3  2  1  0  0  0  0
  3  4  2  0  0  0  0
  4  5  1  0  0  0  0
  5  6  2  0  0  0  0
  5 10  1  0  0  0  0
  6 20  1  0  0  0  0
  7  2  1  0  0  0  0
  8  3  1  0  0  0  0
  9  4  1  0  0  0  0
 11 17  1  0  0  0  0
 12 18  1  0  0  0  0
 12 11  2  0  0  0  0
 13 12  1  0  0  0  0
 14 13  2  0  0  0  0
 14 15  1  0  0  0  0
 15 16  2  0  0  0  0
 16 11  1  0  0  0  0
 19 13  1  0  0  0  0
 20 24  1  0  0  0  0
 20 21  1  0  0  0  0
 21 22  1  0  0  0  0
 23 22  1  0  0  0  0
 24 25  1  0  0  0  0
 24 23  1  0  0  0  0
M  END
>  <minimizedAffinity>
-4.42427349

>  <minimizedRMSD>
1.08736467

$$$$
