
 OpenBabel03272503383D

 16 17  0  0  0  0  0  0  0  0999 V2000
   39.6440   22.7840   37.7640 C   0  0  0  0  0  0  0  0  0  0  0  0
   39.6930   23.2550   36.4430 C   0  0  0  0  0  0  0  0  0  0  0  0
   38.8450   24.3130   36.1100 C   0  0  0  0  0  0  0  0  0  0  0  0
   38.0290   24.8200   37.0670 N   0  0  0  0  0  0  0  0  0  0  0  0
   38.0030   24.3450   38.3370 C   0  0  0  0  0  0  0  0  0  0  0  0
   38.8060   23.3350   38.6760 N   0  0  0  0  0  0  0  0  0  0  0  0
   40.3180   22.8810   35.6740 H   0  0  0  0  0  0  0  0  0  0  0  0
   37.3390   24.7740   39.0770 H   0  0  0  0  0  0  0  0  0  0  0  0
   38.8230   24.8540   34.8080 N   0  0  0  0  0  0  0  0  0  0  0  0
   39.9390   24.9050   33.8790 C   0  0  0  0  0  2  0  0  0  0  0  0
   39.2900   24.5360   32.5560 C   0  0  0  0  0  2  0  0  0  0  0  0
   37.8060   24.7520   32.7510 C   0  0  0  0  0  2  0  0  0  0  0  0
   37.7590   25.4670   34.0860 C   0  0  0  0  0  3  0  0  0  0  0  0
   36.7670   25.3750   34.5680 H   0  0  0  0  0  0  0  0  0  0  0  0
   40.5360   21.7360   37.9610 O   0  0  0  0  0  0  0  0  0  0  0  0
   41.4780   21.8640   38.3250 H   0  0  0  0  0  0  0  0  0  0  0  0
  1 15  1  0  0  0  0
  1  6  1  0  0  0  0
  2  1  2  0  0  0  0
  3  2  1  0  0  0  0
  3  4  2  0  0  0  0
  4  5  1  0  0  0  0
  5  6  2  0  0  0  0
  5  8  1  0  0  0  0
  7  2  1  0  0  0  0
  9  3  1  0  0  0  0
 10  9  1  0  0  0  0
 11 12  1  0  0  0  0
 11 10  1  0  0  0  0
 12 13  1  0  0  0  0
 13 14  1  0  0  0  0
 13  9  1  0  0  0  0
 15 16  1  0  0  0  0
M  END
>  <minimizedAffinity>
-4.17288303

$$$$

 OpenBabel03272503383D

 16 17  0  0  0  0  0  0  0  0999 V2000
   39.4810   22.8470   37.8060 C   0  0  0  0  0  0  0  0  0  0  0  0
   38.9920   23.7490   36.8490 C   0  0  0  0  0  0  0  0  0  0  0  0
   39.7880   23.9820   35.7250 C   0  0  0  0  0  0  0  0  0  0  0  0
   40.9740   23.3340   35.6220 N   0  0  0  0  0  0  0  0  0  0  0  0
   41.4220   22.4660   36.5640 C   0  0  0  0  0  0  0  0  0  0  0  0
   40.6760   22.2300   37.6450 N   0  0  0  0  0  0  0  0  0  0  0  0
   38.0700   24.2700   36.9010 H   0  0  0  0  0  0  0  0  0  0  0  0
   42.3740   21.9660   36.4500 H   0  0  0  0  0  0  0  0  0  0  0  0
   39.3820   24.8710   34.7090 N   0  0  0  0  0  0  0  0  0  0  0  0
   38.0130   25.1630   34.3200 C   0  0  0  0  0  2  0  0  0  0  0  0
   38.0380   26.6690   34.1140 C   0  0  0  0  0  2  0  0  0  0  0  0
   39.4960   27.0390   33.9580 C   0  0  0  0  0  2  0  0  0  0  0  0
   40.1590   25.6820   33.8340 C   0  0  0  0  0  3  0  0  0  0  0  0
   41.2350   25.7250   34.0860 H   0  0  0  0  0  0  0  0  0  0  0  0
   38.5930   22.7060   38.8680 O   0  0  0  0  0  0  0  0  0  0  0  0
   37.8950   21.9670   38.9190 H   0  0  0  0  0  0  0  0  0  0  0  0
  1 15  1  0  0  0  0
  2  7  1  0  0  0  0
  2  1  2  0  0  0  0
  3  2  1  0  0  0  0
  4  3  2  0  0  0  0
  4  5  1  0  0  0  0
  5  6  2  0  0  0  0
  6  1  1  0  0  0  0
  8  5  1  0  0  0  0
  9  3  1  0  0  0  0
 10  9  1  0  0  0  0
 11 10  1  0  0  0  0
 12 11  1  0  0  0  0
 13 12  1  0  0  0  0
 13 14  1  0  0  0  0
 13  9  1  0  0  0  0
 15 16  1  0  0  0  0
M  END
>  <minimizedAffinity>
-3.98941636

$$$$

 OpenBabel03272503383D

 16 17  0  0  0  0  0  0  0  0999 V2000
   38.2290   26.8070   35.4990 C   0  0  0  0  0  0  0  0  0  0  0  0
   37.5600   27.5100   34.4850 C   0  0  0  0  0  0  0  0  0  0  0  0
   37.1300   26.7770   33.3770 C   0  0  0  0  0  0  0  0  0  0  0  0
   37.3790   25.4450   33.3410 N   0  0  0  0  0  0  0  0  0  0  0  0
   38.0270   24.7910   34.3370 C   0  0  0  0  0  0  0  0  0  0  0  0
   38.4460   25.4730   35.4040 N   0  0  0  0  0  0  0  0  0  0  0  0
   37.3510   28.5490   34.4840 H   0  0  0  0  0  0  0  0  0  0  0  0
   38.2090   23.7260   34.2750 H   0  0  0  0  0  0  0  0  0  0  0  0
   36.4500   27.3950   32.3070 N   0  0  0  0  0  0  0  0  0  0  0  0
   35.5910   28.5630   32.3950 C   0  0  0  0  0  2  0  0  0  0  0  0
   35.9890   29.3650   31.1680 C   0  0  0  0  0  2  0  0  0  0  0  0
   36.6970   28.3910   30.2520 C   0  0  0  0  0  2  0  0  0  0  0  0
   36.4200   27.0610   30.9230 C   0  0  0  0  0  3  0  0  0  0  0  0
   37.1520   26.2870   30.6240 H   0  0  0  0  0  0  0  0  0  0  0  0
   38.6000   27.6520   36.5400 O   0  0  0  0  0  0  0  0  0  0  0  0
   38.0360   27.7900   37.3760 H   0  0  0  0  0  0  0  0  0  0  0  0
  1 15  1  0  0  0  0
  2  1  2  0  0  0  0
  3  2  1  0  0  0  0
  4  3  2  0  0  0  0
  4  5  1  0  0  0  0
  5  6  2  0  0  0  0
  6  1  1  0  0  0  0
  7  2  1  0  0  0  0
  8  5  1  0  0  0  0
  9 10  1  0  0  0  0
  9  3  1  0  0  0  0
 11 10  1  0  0  0  0
 12 13  1  0  0  0  0
 12 11  1  0  0  0  0
 13  9  1  0  0  0  0
 14 13  1  0  0  0  0
 15 16  1  0  0  0  0
M  END
>  <minimizedAffinity>
-3.95341134

$$$$

 OpenBabel03272503383D

 16 17  0  0  0  0  0  0  0  0999 V2000
   39.5340   26.9140   34.1770 C   0  0  0  0  0  0  0  0  0  0  0  0
   39.6890   25.7910   35.0040 C   0  0  0  0  0  0  0  0  0  0  0  0
   38.5350   25.2620   35.5860 C   0  0  0  0  0  0  0  0  0  0  0  0
   37.3440   25.8540   35.3240 N   0  0  0  0  0  0  0  0  0  0  0  0
   37.2240   26.9390   34.5190 C   0  0  0  0  0  0  0  0  0  0  0  0
   38.3150   27.4600   33.9540 N   0  0  0  0  0  0  0  0  0  0  0  0
   40.6050   25.3070   35.2280 H   0  0  0  0  0  0  0  0  0  0  0  0
   36.2570   27.3870   34.3320 H   0  0  0  0  0  0  0  0  0  0  0  0
   38.5900   24.1350   36.4320 N   0  0  0  0  0  0  0  0  0  0  0  0
   39.5560   23.0520   36.3600 C   0  0  0  0  0  2  0  0  0  0  0  0
   39.8870   22.8010   37.8210 C   0  0  0  0  0  2  0  0  0  0  0  0
   38.7630   23.4330   38.6120 C   0  0  0  0  0  2  0  0  0  0  0  0
   37.7590   23.7680   37.5280 C   0  0  0  0  0  3  0  0  0  0  0  0
   37.0530   24.5580   37.8500 H   0  0  0  0  0  0  0  0  0  0  0  0
   40.7570   27.3360   33.6640 O   0  0  0  0  0  0  0  0  0  0  0  0
   41.1110   27.0480   32.7540 H   0  0  0  0  0  0  0  0  0  0  0  0
  1  2  1  0  0  0  0
  2  7  1  0  0  0  0
  2  3  2  0  0  0  0
  3  9  1  0  0  0  0
  4  3  1  0  0  0  0
  5  4  2  0  0  0  0
  6  1  2  0  0  0  0
  6  5  1  0  0  0  0
  8  5  1  0  0  0  0
  9 13  1  0  0  0  0
 10  9  1  0  0  0  0
 10 11  1  0  0  0  0
 11 12  1  0  0  0  0
 13 14  1  0  0  0  0
 13 12  1  0  0  0  0
 15  1  1  0  0  0  0
 16 15  1  0  0  0  0
M  END
>  <minimizedAffinity>
-3.93859363

$$$$

 OpenBabel03272503383D

 16 17  0  0  0  0  0  0  0  0999 V2000
   36.4450   28.4970   30.6560 C   0  0  0  0  0  0  0  0  0  0  0  0
   37.0220   27.6820   31.6420 C   0  0  0  0  0  0  0  0  0  0  0  0
   36.7780   28.0220   32.9750 C   0  0  0  0  0  0  0  0  0  0  0  0
   36.0080   29.1070   33.2400 N   0  0  0  0  0  0  0  0  0  0  0  0
   35.4630   29.8770   32.2650 C   0  0  0  0  0  0  0  0  0  0  0  0
   35.6850   29.5680   30.9860 N   0  0  0  0  0  0  0  0  0  0  0  0
   37.6270   26.8300   31.4670 H   0  0  0  0  0  0  0  0  0  0  0  0
   34.8540   30.7360   32.5120 H   0  0  0  0  0  0  0  0  0  0  0  0
   37.3140   27.2640   34.0360 N   0  0  0  0  0  0  0  0  0  0  0  0
   37.6050   25.8410   34.0140 C   0  0  0  0  0  2  0  0  0  0  0  0
   38.9420   25.7610   34.7300 C   0  0  0  0  0  2  0  0  0  0  0  0
   39.0790   27.0610   35.4920 C   0  0  0  0  0  2  0  0  0  0  0  0
   37.6960   27.6630   35.3480 C   0  0  0  0  0  3  0  0  0  0  0  0
   37.7040   28.7580   35.5090 H   0  0  0  0  0  0  0  0  0  0  0  0
   36.7660   28.0480   29.3790 O   0  0  0  0  0  0  0  0  0  0  0  0
   36.1660   27.4290   28.8380 H   0  0  0  0  0  0  0  0  0  0  0  0
  1  6  2  0  0  0  0
  1  2  1  0  0  0  0
  2  3  2  0  0  0  0
  3  4  1  0  0  0  0
  3  9  1  0  0  0  0
  5  8  1  0  0  0  0
  5  4  2  0  0  0  0
  6  5  1  0  0  0  0
  7  2  1  0  0  0  0
  9 13  1  0  0  0  0
 10  9  1  0  0  0  0
 10 11  1  0  0  0  0
 11 12  1  0  0  0  0
 13 12  1  0  0  0  0
 13 14  1  0  0  0  0
 15  1  1  0  0  0  0
 16 15  1  0  0  0  0
M  END
>  <minimizedAffinity>
-3.93829489

$$$$

 OpenBabel03272503383D

 16 17  0  0  0  0  0  0  0  0999 V2000
   35.9420   24.7830   31.2160 C   0  0  0  0  0  0  0  0  0  0  0  0
   36.6700   25.5100   32.1700 C   0  0  0  0  0  0  0  0  0  0  0  0
   37.4630   24.7830   33.0600 C   0  0  0  0  0  0  0  0  0  0  0  0
   37.4870   23.4310   32.9550 N   0  0  0  0  0  0  0  0  0  0  0  0
   36.7720   22.7540   32.0220 C   0  0  0  0  0  0  0  0  0  0  0  0
   36.0080   23.4310   31.1630 N   0  0  0  0  0  0  0  0  0  0  0  0
   36.6720   26.5650   32.2770 H   0  0  0  0  0  0  0  0  0  0  0  0
   36.8140   21.6740   31.9670 H   0  0  0  0  0  0  0  0  0  0  0  0
   38.2310   25.4240   34.0530 N   0  0  0  0  0  0  0  0  0  0  0  0
   38.8120   26.7530   33.9660 C   0  0  0  0  0  2  0  0  0  0  0  0
   38.5470   27.3260   35.3480 C   0  0  0  0  0  2  0  0  0  0  0  0
   38.2540   26.1380   36.2370 C   0  0  0  0  0  2  0  0  0  0  0  0
   38.6260   24.9720   35.3440 C   0  0  0  0  0  3  0  0  0  0  0  0
   38.1370   24.0330   35.6680 H   0  0  0  0  0  0  0  0  0  0  0  0
   35.1980   25.6260   30.3970 O   0  0  0  0  0  0  0  0  0  0  0  0
   35.5290   25.9640   29.4960 H   0  0  0  0  0  0  0  0  0  0  0  0
  1  2  1  0  0  0  0
  2  7  1  0  0  0  0
  2  3  2  0  0  0  0
  3  9  1  0  0  0  0
  4  3  1  0  0  0  0
  5  4  2  0  0  0  0
  6  1  2  0  0  0  0
  6  5  1  0  0  0  0
  8  5  1  0  0  0  0
  9 13  1  0  0  0  0
 10  9  1  0  0  0  0
 10 11  1  0  0  0  0
 11 12  1  0  0  0  0
 13 14  1  0  0  0  0
 13 12  1  0  0  0  0
 15  1  1  0  0  0  0
 16 15  1  0  0  0  0
M  END
>  <minimizedAffinity>
-3.81940222

$$$$

 OpenBabel03272503383D

 16 17  0  0  0  0  0  0  0  0999 V2000
   38.7680   23.0640   37.7150 C   0  0  0  0  0  0  0  0  0  0  0  0
   40.1200   22.8830   37.3840 C   0  0  0  0  0  0  0  0  0  0  0  0
   40.5210   23.2660   36.1020 C   0  0  0  0  0  0  0  0  0  0  0  0
   39.5950   23.7830   35.2570 N   0  0  0  0  0  0  0  0  0  0  0  0
   38.2940   23.9470   35.6050 C   0  0  0  0  0  0  0  0  0  0  0  0
   37.8910   23.5870   36.8250 N   0  0  0  0  0  0  0  0  0  0  0  0
   40.8660   22.4820   38.0200 H   0  0  0  0  0  0  0  0  0  0  0  0
   37.5810   24.3640   34.9050 H   0  0  0  0  0  0  0  0  0  0  0  0
   41.8580   23.1230   35.6780 N   0  0  0  0  0  0  0  0  0  0  0  0
   43.0390   23.1860   36.5210 C   0  0  0  0  0  2  0  0  0  0  0  0
   43.8960   22.0540   35.9820 C   0  0  0  0  0  2  0  0  0  0  0  0
   43.3490   21.7410   34.6070 C   0  0  0  0  0  2  0  0  0  0  0  0
   42.3890   22.8910   34.3770 C   0  0  0  0  0  3  0  0  0  0  0  0
   41.6290   22.6450   33.6110 H   0  0  0  0  0  0  0  0  0  0  0  0
   38.5050   22.6440   39.0150 O   0  0  0  0  0  0  0  0  0  0  0  0
   38.5080   23.2720   39.8160 H   0  0  0  0  0  0  0  0  0  0  0  0
  1 15  1  0  0  0  0
  2  1  1  0  0  0  0
  2  7  1  0  0  0  0
  3  2  2  0  0  0  0
  4  5  2  0  0  0  0
  4  3  1  0  0  0  0
  5  6  1  0  0  0  0
  6  1  2  0  0  0  0
  8  5  1  0  0  0  0
  9  3  1  0  0  0  0
  9 10  1  0  0  0  0
 11 10  1  0  0  0  0
 12 11  1  0  0  0  0
 13 12  1  0  0  0  0
 13  9  1  0  0  0  0
 14 13  1  0  0  0  0
 15 16  1  0  0  0  0
M  END
>  <minimizedAffinity>
-3.66448116

$$$$

 OpenBabel03272503383D

 16 17  0  0  0  0  0  0  0  0999 V2000
   38.5540   23.1570   36.0630 C   0  0  0  0  0  0  0  0  0  0  0  0
   38.2430   23.2530   34.6990 C   0  0  0  0  0  0  0  0  0  0  0  0
   37.8870   24.5120   34.2110 C   0  0  0  0  0  0  0  0  0  0  0  0
   37.8610   25.5600   35.0710 N   0  0  0  0  0  0  0  0  0  0  0  0
   38.1680   25.4380   36.3870 C   0  0  0  0  0  0  0  0  0  0  0  0
   38.5100   24.2430   36.8720 N   0  0  0  0  0  0  0  0  0  0  0  0
   38.2540   22.4540   34.0020 H   0  0  0  0  0  0  0  0  0  0  0  0
   38.1370   26.2960   37.0450 H   0  0  0  0  0  0  0  0  0  0  0  0
   37.5570   24.7080   32.8540 N   0  0  0  0  0  0  0  0  0  0  0  0
   38.0770   23.9550   31.7260 C   0  0  0  0  0  2  0  0  0  0  0  0
   36.8430   23.7500   30.8630 C   0  0  0  0  0  2  0  0  0  0  0  0
   35.8380   24.7770   31.3330 C   0  0  0  0  0  2  0  0  0  0  0  0
   36.6730   25.6470   32.2500 C   0  0  0  0  0  3  0  0  0  0  0  0
   36.0460   26.2110   32.9670 H   0  0  0  0  0  0  0  0  0  0  0  0
   38.8910   21.8540   36.4150 O   0  0  0  0  0  0  0  0  0  0  0  0
   39.8500   21.5140   36.4470 H   0  0  0  0  0  0  0  0  0  0  0  0
  1 15  1  0  0  0  0
  1  6  1  0  0  0  0
  2  1  2  0  0  0  0
  3  2  1  0  0  0  0
  3  4  2  0  0  0  0
  4  5  1  0  0  0  0
  5  6  2  0  0  0  0
  5  8  1  0  0  0  0
  7  2  1  0  0  0  0
  9  3  1  0  0  0  0
 10  9  1  0  0  0  0
 11 12  1  0  0  0  0
 11 10  1  0  0  0  0
 12 13  1  0  0  0  0
 13  9  1  0  0  0  0
 13 14  1  0  0  0  0
 15 16  1  0  0  0  0
M  END
>  <minimizedAffinity>
-3.63218689

$$$$

 OpenBabel03272503383D

 16 17  0  0  0  0  0  0  0  0999 V2000
   36.3540   21.1670   34.1660 C   0  0  0  0  0  0  0  0  0  0  0  0
   37.2450   21.5950   35.1620 C   0  0  0  0  0  0  0  0  0  0  0  0
   38.2340   22.5070   34.7860 C   0  0  0  0  0  0  0  0  0  0  0  0
   38.2790   22.9230   33.4960 N   0  0  0  0  0  0  0  0  0  0  0  0
   37.4030   22.4920   32.5540 C   0  0  0  0  0  0  0  0  0  0  0  0
   36.4510   21.6210   32.8940 N   0  0  0  0  0  0  0  0  0  0  0  0
   37.2360   21.2890   36.1770 H   0  0  0  0  0  0  0  0  0  0  0  0
   37.4680   22.8450   31.5330 H   0  0  0  0  0  0  0  0  0  0  0  0
   39.1750   22.9950   35.7150 N   0  0  0  0  0  0  0  0  0  0  0  0
   38.9610   23.1750   37.1410 C   0  0  0  0  0  2  0  0  0  0  0  0
   40.2630   22.6710   37.7410 C   0  0  0  0  0  2  0  0  0  0  0  0
   41.2670   22.6770   36.6100 C   0  0  0  0  0  2  0  0  0  0  0  0
   40.5200   23.4220   35.5230 C   0  0  0  0  0  3  0  0  0  0  0  0
   40.9290   23.2040   34.5180 H   0  0  0  0  0  0  0  0  0  0  0  0
   35.4240   20.2660   34.6740 O   0  0  0  0  0  0  0  0  0  0  0  0
   34.5020   20.5410   35.0050 H   0  0  0  0  0  0  0  0  0  0  0  0
  1 15  1  0  0  0  0
  1  2  1  0  0  0  0
  2  7  1  0  0  0  0
  3  2  2  0  0  0  0
  3  9  1  0  0  0  0
  4  3  1  0  0  0  0
  5  6  1  0  0  0  0
  5  4  2  0  0  0  0
  6  1  2  0  0  0  0
  8  5  1  0  0  0  0
  9 10  1  0  0  0  0
 10 11  1  0  0  0  0
 12 11  1  0  0  0  0
 13  9  1  0  0  0  0
 13 12  1  0  0  0  0
 14 13  1  0  0  0  0
 15 16  1  0  0  0  0
M  END
>  <minimizedAffinity>
-3.62561011

$$$$
