
 OpenBabel03272507033D

 28 31  0  0  0  0  0  0  0  0999 V2000
   36.0110   29.3140   49.6600 C   0  0  0  0  0  0  0  0  0  0  0  0
   35.9470   30.3230   48.6990 C   0  0  0  0  0  0  0  0  0  0  0  0
   34.9180   30.3670   47.7930 C   0  0  0  0  0  0  0  0  0  0  0  0
   33.9140   29.4020   47.8130 C   0  0  0  0  0  0  0  0  0  0  0  0
   32.8110   29.2030   47.0610 N   0  0  0  0  0  0  0  0  0  0  0  0
   32.2520   28.0790   47.5990 C   0  0  0  0  0  0  0  0  0  0  0  0
   32.9750   27.6190   48.6200 N   0  0  0  0  0  0  0  0  0  0  0  0
   34.0330   28.4250   48.7900 C   0  0  0  0  0  0  0  0  0  0  0  0
   35.0330   28.3350   49.7130 C   0  0  0  0  0  0  0  0  0  0  0  0
   36.8270   29.2790   50.3780 H   0  0  0  0  0  0  0  0  0  0  0  0
   34.8190   31.1290   47.0270 H   0  0  0  0  0  0  0  0  0  0  0  0
   32.5170   29.8010   46.2770 H   0  0  0  0  0  0  0  0  0  0  0  0
   31.3240   27.6300   47.2200 H   0  0  0  0  0  0  0  0  0  0  0  0
   35.0580   27.5370   50.4500 H   0  0  0  0  0  0  0  0  0  0  0  0
   38.0900   33.1640   49.6270 C   0  0  0  0  0  0  0  0  0  0  0  0
   38.9870   33.2440   48.5420 C   0  0  0  0  0  0  0  0  0  0  0  0
   38.8170   32.2970   47.5110 C   0  0  0  0  0  0  0  0  0  0  0  0
   37.8280   31.3890   47.6180 N   0  0  0  0  0  0  0  0  0  0  0  0
   36.9910   31.3410   48.6660 C   0  0  0  0  0  0  0  0  0  0  0  0
   37.1250   32.2220   49.6580 N   0  0  0  0  0  0  0  0  0  0  0  0
   38.1740   33.8610   50.4400 H   0  0  0  0  0  0  0  0  0  0  0  0
   39.7680   33.9890   48.4950 H   0  0  0  0  0  0  0  0  0  0  0  0
   39.6570   32.2910   46.3890 N   0  0  0  0  0  0  0  0  0  0  0  0
   40.3160   31.1800   45.7150 C   0  0  0  0  0  0  0  0  0  0  0  0
   40.1800   31.4820   44.2270 C   0  0  0  0  0  0  0  0  0  0  0  0
   39.9720   32.9730   44.1550 C   0  0  0  0  0  0  0  0  0  0  0  0
   40.0970   33.4160   45.5900 C   0  0  0  0  0  0  0  0  0  0  0  0
   39.5110   34.3450   45.7730 H   0  0  0  0  0  0  0  0  0  0  0  0
  1  9  1  0  0  0  0
  1 10  1  0  0  0  0
  2  1  2  0  0  0  0
  3  4  2  0  0  0  0
  3  2  1  0  0  0  0
  4  8  1  0  0  0  0
  5  6  1  0  0  0  0
  5  4  1  0  0  0  0
  6  7  2  0  0  0  0
  7  8  1  0  0  0  0
  8  9  2  0  0  0  0
  9 14  1  0  0  0  0
 11  3  1  0  0  0  0
 12  5  1  0  0  0  0
 13  6  1  0  0  0  0
 15 20  1  0  0  0  0
 15 21  1  0  0  0  0
 16 15  2  0  0  0  0
 17 18  2  0  0  0  0
 17 16  1  0  0  0  0
 18 19  1  0  0  0  0
 19  2  1  0  0  0  0
 19 20  2  0  0  0  0
 22 16  1  0  0  0  0
 23 17  1  0  0  0  0
 24 23  1  0  0  0  0
 25 24  1  0  0  0  0
 26 25  1  0  0  0  0
 26 27  1  0  0  0  0
 27 28  1  0  0  0  0
 27 23  1  0  0  0  0
M  END
>  <minimizedAffinity>
-7.25433969

>  <minimizedRMSD>
2.16481853

$$$$
