
 OpenBabel03272506543D

 17 18  0  0  0  0  0  0  0  0999 V2000
   38.1590   33.2820   49.4230 C   0  0  0  0  0  0  0  0  0  0  0  0
   38.9990   33.3140   48.2920 C   0  0  0  0  0  0  0  0  0  0  0  0
   38.9680   32.1740   47.4590 C   0  0  0  0  0  0  0  0  0  0  0  0
   38.1460   31.1280   47.7830 N   0  0  0  0  0  0  0  0  0  0  0  0
   37.3750   31.1700   48.8750 C   0  0  0  0  0  0  0  0  0  0  0  0
   37.3520   32.2220   49.7150 N   0  0  0  0  0  0  0  0  0  0  0  0
   38.1660   34.1450   50.0760 H   0  0  0  0  0  0  0  0  0  0  0  0
   39.6050   32.1950   46.6000 H   0  0  0  0  0  0  0  0  0  0  0  0
   36.5530   30.0380   49.1330 N   0  0  0  0  0  0  0  0  0  0  0  0
   35.5190   29.5250   48.2500 C   0  0  0  0  0  0  0  0  0  0  0  0
   34.3820   29.2720   49.2430 C   0  0  0  0  0  0  0  0  0  0  0  0
   35.0380   29.1850   50.6160 C   0  0  0  0  0  0  0  0  0  0  0  0
   36.4990   29.1240   50.2600 C   0  0  0  0  0  0  0  0  0  0  0  0
   36.6690   28.0990   49.8480 H   0  0  0  0  0  0  0  0  0  0  0  0
   39.8190   34.4470   48.0380 N   0  0  0  0  0  0  0  0  0  0  0  0
   40.4070   34.9310   48.7490 H   0  0  0  0  0  0  0  0  0  0  0  0
   39.7760   34.7670   47.0270 H   0  0  0  0  0  0  0  0  0  0  0  0
  1  6  1  0  0  0  0
  1  7  1  0  0  0  0
  2  1  2  0  0  0  0
  3  4  2  0  0  0  0
  3  2  1  0  0  0  0
  4  5  1  0  0  0  0
  5  9  1  0  0  0  0
  5  6  2  0  0  0  0
  8  3  1  0  0  0  0
  9 13  1  0  0  0  0
 10  9  1  0  0  0  0
 10 11  1  0  0  0  0
 11 12  1  0  0  0  0
 13 12  1  0  0  0  0
 14 13  1  0  0  0  0
 15  2  1  0  0  0  0
 15 16  1  0  0  0  0
 17 15  1  0  0  0  0
M  END
>  <minimizedAffinity>
-4.88202477

>  <minimizedRMSD>
3.74068618

$$$$
