
 OpenBabel03272504383D

 33 35  0  0  0  0  0  0  0  0999 V2000
   37.6600   21.8320   34.2360 Cl  0  0  0  0  0  0  0  0  0  0  0  0
   37.9300   23.4780   33.7050 C   0  0  0  0  0  0  0  0  0  0  0  0
   38.3120   24.4180   34.6110 C   0  0  0  0  0  0  0  0  0  0  0  0
   38.5290   25.7110   34.2170 C   0  0  0  0  0  0  0  0  0  0  0  0
   38.3530   26.0390   32.8950 C   0  0  0  0  0  0  0  0  0  0  0  0
   37.9660   25.0740   31.9890 C   0  0  0  0  0  0  0  0  0  0  0  0
   37.7410   23.7630   32.3660 C   0  0  0  0  0  0  0  0  0  0  0  0
   38.8320   26.4660   34.9250 H   0  0  0  0  0  0  0  0  0  0  0  0
   38.5290   27.0700   32.5950 H   0  0  0  0  0  0  0  0  0  0  0  0
   37.8320   25.3400   30.9650 H   0  0  0  0  0  0  0  0  0  0  0  0
   37.9800   24.2440   38.2880 C   0  0  0  0  0  0  0  0  0  0  0  0
   38.9710   23.2920   38.6130 C   0  0  0  0  0  0  0  0  0  0  0  0
   39.7040   22.7520   37.5690 C   0  0  0  0  0  0  0  0  0  0  0  0
   39.4450   23.1560   36.3050 N   0  0  0  0  0  0  0  0  0  0  0  0
   38.4980   24.0640   36.0170 C   0  0  0  0  0  0  0  0  0  0  0  0
   37.7800   24.5950   37.0080 N   0  0  0  0  0  0  0  0  0  0  0  0
   37.3870   24.6890   39.0750 H   0  0  0  0  0  0  0  0  0  0  0  0
   39.1230   23.0170   39.6480 H   0  0  0  0  0  0  0  0  0  0  0  0
   40.6960   21.7950   37.9250 N   0  0  0  0  0  0  0  0  0  0  0  0
   41.5450   22.1870   38.4300 H   0  0  0  0  0  0  0  0  0  0  0  0
   40.7590   20.7650   37.7880 H   0  0  0  0  0  0  0  0  0  0  0  0
   37.3230   22.6830   31.4360 C   0  0  0  0  0  0  0  0  0  0  0  0
   37.8090   22.8810   30.4750 H   0  0  0  0  0  0  0  0  0  0  0  0
   37.8420   21.7600   31.8280 H   0  0  0  0  0  0  0  0  0  0  0  0
   35.8830   22.4050   31.4230 C   0  0  0  0  0  0  0  0  0  0  0  0
   35.4020   23.0800   30.6700 H   0  0  0  0  0  0  0  0  0  0  0  0
   35.4540   22.6770   32.3920 H   0  0  0  0  0  0  0  0  0  0  0  0
   35.5010   21.0630   31.1190 N   0  0  0  0  0  0  0  0  0  0  0  0
   36.6270   20.1910   30.9470 C   0  0  0  0  0  2  0  0  0  0  0  0
   36.5370   19.0970   31.9590 C   0  0  0  0  0  2  0  0  0  0  0  0
   35.4310   19.5330   32.8920 C   0  0  0  0  0  2  0  0  0  0  0  0
   34.6010   20.4330   32.0190 C   0  0  0  0  0  3  0  0  0  0  0  0
   33.9170   21.0750   32.5640 H   0  0  0  0  0  0  0  0  0  0  0  0
  2  1  1  0  0  0  0
  2  3  1  0  0  0  0
  3 15  1  0  0  0  0
  4  3  2  0  0  0  0
  4  8  1  0  0  0  0
  5  4  1  0  0  0  0
  6  7  1  0  0  0  0
  6  5  2  0  0  0  0
  7  2  2  0  0  0  0
  9  5  1  0  0  0  0
 10  6  1  0  0  0  0
 11 12  1  0  0  0  0
 11 17  1  0  0  0  0
 12 18  1  0  0  0  0
 13 19  1  0  0  0  0
 13 12  2  0  0  0  0
 14 13  1  0  0  0  0
 15 14  2  0  0  0  0
 15 16  1  0  0  0  0
 16 11  2  0  0  0  0
 19 20  1  0  0  0  0
 21 19  1  0  0  0  0
 22 24  1  0  0  0  0
 22  7  1  0  0  0  0
 23 22  1  0  0  0  0
 25 22  1  0  0  0  0
 25 27  1  0  0  0  0
 26 25  1  0  0  0  0
 28 25  1  0  0  0  0
 28 32  1  0  0  0  0
 29 28  1  0  0  0  0
 29 30  1  0  0  0  0
 30 31  1  0  0  0  0
 32 33  1  0  0  0  0
 32 31  1  0  0  0  0
M  END
>  <minimizedAffinity>
-5.68098211

$$$$

 OpenBabel03272504383D

 33 35  0  0  0  0  0  0  0  0999 V2000
   38.7860   26.8970   35.2480 Cl  0  0  0  0  0  0  0  0  0  0  0  0
   38.3620   25.6420   34.1040 C   0  0  0  0  0  0  0  0  0  0  0  0
   38.2250   24.3610   34.5390 C   0  0  0  0  0  0  0  0  0  0  0  0
   37.8940   23.3640   33.6610 C   0  0  0  0  0  0  0  0  0  0  0  0
   37.7040   23.6810   32.3390 C   0  0  0  0  0  0  0  0  0  0  0  0
   37.8460   24.9850   31.9140 C   0  0  0  0  0  0  0  0  0  0  0  0
   38.1810   26.0070   32.7830 C   0  0  0  0  0  0  0  0  0  0  0  0
   37.7820   22.3430   33.9920 H   0  0  0  0  0  0  0  0  0  0  0  0
   37.4410   22.8790   31.6510 H   0  0  0  0  0  0  0  0  0  0  0  0
   37.6970   25.2210   30.8840 H   0  0  0  0  0  0  0  0  0  0  0  0
   37.9290   24.2300   38.2210 C   0  0  0  0  0  0  0  0  0  0  0  0
   38.9330   23.2920   38.5490 C   0  0  0  0  0  0  0  0  0  0  0  0
   39.6630   22.7480   37.5040 C   0  0  0  0  0  0  0  0  0  0  0  0
   39.3870   23.1320   36.2380 N   0  0  0  0  0  0  0  0  0  0  0  0
   38.4280   24.0270   35.9480 C   0  0  0  0  0  0  0  0  0  0  0  0
   37.7140   24.5630   36.9390 N   0  0  0  0  0  0  0  0  0  0  0  0
   37.3380   24.6780   39.0080 H   0  0  0  0  0  0  0  0  0  0  0  0
   39.0980   23.0330   39.5850 H   0  0  0  0  0  0  0  0  0  0  0  0
   40.6680   21.8050   37.8630 N   0  0  0  0  0  0  0  0  0  0  0  0
   41.5180   22.2130   38.3550 H   0  0  0  0  0  0  0  0  0  0  0  0
   40.7410   20.7750   37.7380 H   0  0  0  0  0  0  0  0  0  0  0  0
   38.3480   27.4280   32.3840 C   0  0  0  0  0  0  0  0  0  0  0  0
   37.5940   28.0050   32.9290 H   0  0  0  0  0  0  0  0  0  0  0  0
   39.3290   27.7350   32.8490 H   0  0  0  0  0  0  0  0  0  0  0  0
   38.4590   27.6520   30.9390 C   0  0  0  0  0  0  0  0  0  0  0  0
   38.7860   26.6930   30.4590 H   0  0  0  0  0  0  0  0  0  0  0  0
   39.2550   28.3760   30.7450 H   0  0  0  0  0  0  0  0  0  0  0  0
   37.2740   28.0930   30.2750 N   0  0  0  0  0  0  0  0  0  0  0  0
   36.4040   28.8430   31.1330 C   0  0  0  0  0  2  0  0  0  0  0  0
   36.2280   30.2080   30.5530 C   0  0  0  0  0  2  0  0  0  0  0  0
   37.2540   30.2850   29.4460 C   0  0  0  0  0  2  0  0  0  0  0  0
   37.4490   28.8390   29.0790 C   0  0  0  0  0  3  0  0  0  0  0  0
   38.3450   28.6430   28.5010 H   0  0  0  0  0  0  0  0  0  0  0  0
  2  3  1  0  0  0  0
  2  1  1  0  0  0  0
  3 15  1  0  0  0  0
  4  8  1  0  0  0  0
  4  3  2  0  0  0  0
  5  4  1  0  0  0  0
  6  5  2  0  0  0  0
  6  7  1  0  0  0  0
  7  2  2  0  0  0  0
  9  5  1  0  0  0  0
 10  6  1  0  0  0  0
 11 12  1  0  0  0  0
 11 17  1  0  0  0  0
 12 18  1  0  0  0  0
 13 19  1  0  0  0  0
 13 12  2  0  0  0  0
 14 13  1  0  0  0  0
 15 14  2  0  0  0  0
 15 16  1  0  0  0  0
 16 11  2  0  0  0  0
 19 20  1  0  0  0  0
 21 19  1  0  0  0  0
 22  7  1  0  0  0  0
 22 24  1  0  0  0  0
 22 23  1  0  0  0  0
 25 22  1  0  0  0  0
 26 25  1  0  0  0  0
 27 25  1  0  0  0  0
 28 25  1  0  0  0  0
 28 29  1  0  0  0  0
 30 29  1  0  0  0  0
 31 30  1  0  0  0  0
 32 31  1  0  0  0  0
 32 28  1  0  0  0  0
 33 32  1  0  0  0  0
M  END
>  <minimizedAffinity>
-5.54634476

$$$$

 OpenBabel03272504383D

 33 35  0  0  0  0  0  0  0  0999 V2000
   38.2980   26.6230   33.1570 Cl  0  0  0  0  0  0  0  0  0  0  0  0
   37.1850   25.5150   32.3860 C   0  0  0  0  0  0  0  0  0  0  0  0
   36.1730   26.0070   31.6230 C   0  0  0  0  0  0  0  0  0  0  0  0
   35.2910   25.1580   31.0100 C   0  0  0  0  0  0  0  0  0  0  0  0
   35.4470   23.8050   31.1820 C   0  0  0  0  0  0  0  0  0  0  0  0
   36.4790   23.3210   31.9580 C   0  0  0  0  0  0  0  0  0  0  0  0
   37.3800   24.1610   32.5850 C   0  0  0  0  0  0  0  0  0  0  0  0
   34.4830   25.5350   30.4030 H   0  0  0  0  0  0  0  0  0  0  0  0
   34.7390   23.1400   30.6900 H   0  0  0  0  0  0  0  0  0  0  0  0
   36.5910   22.2680   32.0850 H   0  0  0  0  0  0  0  0  0  0  0  0
   35.1220   29.5270   32.0360 C   0  0  0  0  0  0  0  0  0  0  0  0
   35.8090   30.1500   30.9710 C   0  0  0  0  0  0  0  0  0  0  0  0
   36.5970   29.3470   30.1630 C   0  0  0  0  0  0  0  0  0  0  0  0
   36.6720   28.0230   30.4240 N   0  0  0  0  0  0  0  0  0  0  0  0
   36.0100   27.4500   31.4430 C   0  0  0  0  0  0  0  0  0  0  0  0
   35.2460   28.2050   32.2330 N   0  0  0  0  0  0  0  0  0  0  0  0
   34.4960   30.1200   32.6890 H   0  0  0  0  0  0  0  0  0  0  0  0
   35.7010   31.2160   30.8220 H   0  0  0  0  0  0  0  0  0  0  0  0
   37.2780   30.0010   29.0980 N   0  0  0  0  0  0  0  0  0  0  0  0
   36.6590   30.3380   28.3020 H   0  0  0  0  0  0  0  0  0  0  0  0
   38.2830   30.2220   28.9360 H   0  0  0  0  0  0  0  0  0  0  0  0
   38.5090   23.6980   33.4330 C   0  0  0  0  0  0  0  0  0  0  0  0
   39.0610   22.9520   32.8520 H   0  0  0  0  0  0  0  0  0  0  0  0
   39.2040   24.5870   33.4830 H   0  0  0  0  0  0  0  0  0  0  0  0
   38.1420   23.3500   34.8090 C   0  0  0  0  0  0  0  0  0  0  0  0
   38.3640   22.2630   34.9680 H   0  0  0  0  0  0  0  0  0  0  0  0
   37.0620   23.4610   34.9350 H   0  0  0  0  0  0  0  0  0  0  0  0
   38.7970   24.0870   35.8430 N   0  0  0  0  0  0  0  0  0  0  0  0
   37.8770   24.7890   36.6910 C   0  0  0  0  0  2  0  0  0  0  0  0
   38.0510   24.2960   38.0890 C   0  0  0  0  0  2  0  0  0  0  0  0
   38.9450   23.0840   37.9550 C   0  0  0  0  0  2  0  0  0  0  0  0
   39.6890   23.3650   36.6790 C   0  0  0  0  0  3  0  0  0  0  0  0
   40.1770   22.4980   36.2480 H   0  0  0  0  0  0  0  0  0  0  0  0
  2  7  1  0  0  0  0
  2  1  1  0  0  0  0
  3  2  2  0  0  0  0
  4  5  2  0  0  0  0
  4  3  1  0  0  0  0
  5  6  1  0  0  0  0
  6 10  1  0  0  0  0
  6  7  2  0  0  0  0
  7 22  1  0  0  0  0
  8  4  1  0  0  0  0
  9  5  1  0  0  0  0
 11 16  1  0  0  0  0
 11 17  1  0  0  0  0
 12 11  2  0  0  0  0
 13 14  2  0  0  0  0
 13 12  1  0  0  0  0
 14 15  1  0  0  0  0
 15  3  1  0  0  0  0
 15 16  2  0  0  0  0
 18 12  1  0  0  0  0
 19 13  1  0  0  0  0
 20 19  1  0  0  0  0
 21 19  1  0  0  0  0
 22 24  1  0  0  0  0
 22 25  1  0  0  0  0
 23 22  1  0  0  0  0
 25 27  1  0  0  0  0
 25 26  1  0  0  0  0
 25 28  1  0  0  0  0
 28 32  1  0  0  0  0
 28 29  1  0  0  0  0
 29 30  1  0  0  0  0
 31 30  1  0  0  0  0
 32 31  1  0  0  0  0
 33 32  1  0  0  0  0
M  END
>  <minimizedAffinity>
-5.31338978

$$$$

 OpenBabel03272504383D

 33 35  0  0  0  0  0  0  0  0999 V2000
   39.0190   26.6780   35.2310 Cl  0  0  0  0  0  0  0  0  0  0  0  0
   38.2490   25.5900   34.0980 C   0  0  0  0  0  0  0  0  0  0  0  0
   38.4170   24.2480   34.2410 C   0  0  0  0  0  0  0  0  0  0  0  0
   37.8230   23.3790   33.3660 C   0  0  0  0  0  0  0  0  0  0  0  0
   37.0580   23.8860   32.3450 C   0  0  0  0  0  0  0  0  0  0  0  0
   36.8960   25.2490   32.2140 C   0  0  0  0  0  0  0  0  0  0  0  0
   37.4880   26.1440   33.0860 C   0  0  0  0  0  0  0  0  0  0  0  0
   37.9490   22.3120   33.4680 H   0  0  0  0  0  0  0  0  0  0  0  0
   36.5910   23.1840   31.6560 H   0  0  0  0  0  0  0  0  0  0  0  0
   36.3000   25.6320   31.4170 H   0  0  0  0  0  0  0  0  0  0  0  0
   41.2480   22.9440   36.2280 C   0  0  0  0  0  0  0  0  0  0  0  0
   40.6280   22.7080   37.4750 C   0  0  0  0  0  0  0  0  0  0  0  0
   39.2790   23.0030   37.5830 C   0  0  0  0  0  0  0  0  0  0  0  0
   38.6240   23.4950   36.5070 N   0  0  0  0  0  0  0  0  0  0  0  0
   39.2330   23.7120   35.3300 C   0  0  0  0  0  0  0  0  0  0  0  0
   40.5320   23.4350   35.2040 N   0  0  0  0  0  0  0  0  0  0  0  0
   42.3000   22.7260   36.1030 H   0  0  0  0  0  0  0  0  0  0  0  0
   41.2150   22.3110   38.2920 H   0  0  0  0  0  0  0  0  0  0  0  0
   38.6800   22.7560   38.8510 N   0  0  0  0  0  0  0  0  0  0  0  0
   38.5620   21.7300   39.1050 H   0  0  0  0  0  0  0  0  0  0  0  0
   38.3260   23.3900   39.5970 H   0  0  0  0  0  0  0  0  0  0  0  0
   37.3500   27.6200   32.9940 C   0  0  0  0  0  0  0  0  0  0  0  0
   37.4420   28.0150   34.0110 H   0  0  0  0  0  0  0  0  0  0  0  0
   38.2940   27.9580   32.4750 H   0  0  0  0  0  0  0  0  0  0  0  0
   36.2160   28.0840   32.1870 C   0  0  0  0  0  0  0  0  0  0  0  0
   35.7400   27.1910   31.7060 H   0  0  0  0  0  0  0  0  0  0  0  0
   36.5860   28.7080   31.3680 H   0  0  0  0  0  0  0  0  0  0  0  0
   35.1990   28.8050   32.8820 N   0  0  0  0  0  0  0  0  0  0  0  0
   35.5350   29.0560   34.2530 C   0  0  0  0  0  2  0  0  0  0  0  0
   35.5570   30.5320   34.4730 C   0  0  0  0  0  2  0  0  0  0  0  0
   35.4670   31.1240   33.0850 C   0  0  0  0  0  2  0  0  0  0  0  0
   34.7790   30.0350   32.3090 C   0  0  0  0  0  3  0  0  0  0  0  0
   34.8650   30.1330   31.2320 H   0  0  0  0  0  0  0  0  0  0  0  0
  2  3  1  0  0  0  0
  2  1  1  0  0  0  0
  3 15  1  0  0  0  0
  4  8  1  0  0  0  0
  4  3  2  0  0  0  0
  5  4  1  0  0  0  0
  6  5  2  0  0  0  0
  6  7  1  0  0  0  0
  7  2  2  0  0  0  0
  9  5  1  0  0  0  0
 10  6  1  0  0  0  0
 11 12  1  0  0  0  0
 12 13  2  0  0  0  0
 12 18  1  0  0  0  0
 13 19  1  0  0  0  0
 14 13  1  0  0  0  0
 15 14  2  0  0  0  0
 16 15  1  0  0  0  0
 16 11  2  0  0  0  0
 17 11  1  0  0  0  0
 19 20  1  0  0  0  0
 19 21  1  0  0  0  0
 22  7  1  0  0  0  0
 22 23  1  0  0  0  0
 24 22  1  0  0  0  0
 25 28  1  0  0  0  0
 25 22  1  0  0  0  0
 26 25  1  0  0  0  0
 27 25  1  0  0  0  0
 28 29  1  0  0  0  0
 29 30  1  0  0  0  0
 31 30  1  0  0  0  0
 32 28  1  0  0  0  0
 32 31  1  0  0  0  0
 33 32  1  0  0  0  0
M  END
>  <minimizedAffinity>
-5.28761435

$$$$

 OpenBabel03272504383D

 33 35  0  0  0  0  0  0  0  0999 V2000
   37.7290   24.1610   33.3870 Cl  0  0  0  0  0  0  0  0  0  0  0  0
   38.9910   25.3650   33.5290 C   0  0  0  0  0  0  0  0  0  0  0  0
   39.5940   25.5630   34.7310 C   0  0  0  0  0  0  0  0  0  0  0  0
   40.5830   26.4990   34.8640 C   0  0  0  0  0  0  0  0  0  0  0  0
   40.9530   27.2330   33.7640 C   0  0  0  0  0  0  0  0  0  0  0  0
   40.3320   27.0210   32.5510 C   0  0  0  0  0  0  0  0  0  0  0  0
   39.3300   26.0800   32.3960 C   0  0  0  0  0  0  0  0  0  0  0  0
   41.0700   26.6670   35.8120 H   0  0  0  0  0  0  0  0  0  0  0  0
   41.7400   27.9750   33.8830 H   0  0  0  0  0  0  0  0  0  0  0  0
   40.6260   27.5970   31.7030 H   0  0  0  0  0  0  0  0  0  0  0  0
   37.8040   24.3260   37.7190 C   0  0  0  0  0  0  0  0  0  0  0  0
   38.5860   23.2030   38.0690 C   0  0  0  0  0  0  0  0  0  0  0  0
   39.6840   22.9180   37.2730 C   0  0  0  0  0  0  0  0  0  0  0  0
   39.9550   23.7150   36.2150 N   0  0  0  0  0  0  0  0  0  0  0  0
   39.1980   24.7790   35.9010 C   0  0  0  0  0  0  0  0  0  0  0  0
   38.1360   25.0710   36.6530 N   0  0  0  0  0  0  0  0  0  0  0  0
   36.9390   24.5820   38.3160 H   0  0  0  0  0  0  0  0  0  0  0  0
   38.3080   22.6120   38.9300 H   0  0  0  0  0  0  0  0  0  0  0  0
   40.4540   21.7810   37.6480 N   0  0  0  0  0  0  0  0  0  0  0  0
   41.0230   21.8920   38.5400 H   0  0  0  0  0  0  0  0  0  0  0  0
   40.5760   20.8420   37.2170 H   0  0  0  0  0  0  0  0  0  0  0  0
   38.6260   25.8080   31.1160 C   0  0  0  0  0  0  0  0  0  0  0  0
   39.0650   24.8960   30.6970 H   0  0  0  0  0  0  0  0  0  0  0  0
   37.5860   25.5020   31.4290 H   0  0  0  0  0  0  0  0  0  0  0  0
   38.4940   26.9670   30.2280 C   0  0  0  0  0  0  0  0  0  0  0  0
   38.6570   26.6230   29.1740 H   0  0  0  0  0  0  0  0  0  0  0  0
   39.2960   27.6800   30.4410 H   0  0  0  0  0  0  0  0  0  0  0  0
   37.2470   27.6610   30.2760 N   0  0  0  0  0  0  0  0  0  0  0  0
   36.2090   26.8940   30.9020 C   0  0  0  0  0  2  0  0  0  0  0  0
   35.7160   27.6480   32.0930 C   0  0  0  0  0  2  0  0  0  0  0  0
   36.7080   28.7750   32.2660 C   0  0  0  0  0  2  0  0  0  0  0  0
   37.2520   28.9490   30.8750 C   0  0  0  0  0  3  0  0  0  0  0  0
   38.1780   29.5130   30.8260 H   0  0  0  0  0  0  0  0  0  0  0  0
  1  2  1  0  0  0  0
  2  3  1  0  0  0  0
  3  4  2  0  0  0  0
  3 15  1  0  0  0  0
  4  8  1  0  0  0  0
  5  9  1  0  0  0  0
  5  4  1  0  0  0  0
  6  5  2  0  0  0  0
  7  6  1  0  0  0  0
  7  2  2  0  0  0  0
 10  6  1  0  0  0  0
 11 12  1  0  0  0  0
 11 17  1  0  0  0  0
 12 18  1  0  0  0  0
 13 19  1  0  0  0  0
 13 12  2  0  0  0  0
 14 13  1  0  0  0  0
 15 14  2  0  0  0  0
 15 16  1  0  0  0  0
 16 11  2  0  0  0  0
 19 20  1  0  0  0  0
 21 19  1  0  0  0  0
 22 24  1  0  0  0  0
 22  7  1  0  0  0  0
 23 22  1  0  0  0  0
 25 28  1  0  0  0  0
 25 27  1  0  0  0  0
 25 22  1  0  0  0  0
 26 25  1  0  0  0  0
 28 32  1  0  0  0  0
 28 29  1  0  0  0  0
 29 30  1  0  0  0  0
 30 31  1  0  0  0  0
 32 31  1  0  0  0  0
 33 32  1  0  0  0  0
M  END
>  <minimizedAffinity>
-5.25325489

$$$$

 OpenBabel03272504383D

 33 35  0  0  0  0  0  0  0  0999 V2000
   36.4620   27.9700   34.6790 Cl  0  0  0  0  0  0  0  0  0  0  0  0
   36.2020   28.8210   33.1730 C   0  0  0  0  0  0  0  0  0  0  0  0
   35.2680   29.8080   33.1150 C   0  0  0  0  0  0  0  0  0  0  0  0
   35.0490   30.4860   31.9470 C   0  0  0  0  0  0  0  0  0  0  0  0
   35.7870   30.1520   30.8380 C   0  0  0  0  0  0  0  0  0  0  0  0
   36.7300   29.1490   30.9120 C   0  0  0  0  0  0  0  0  0  0  0  0
   36.9670   28.4510   32.0820 C   0  0  0  0  0  0  0  0  0  0  0  0
   34.3110   31.2710   31.8870 H   0  0  0  0  0  0  0  0  0  0  0  0
   35.6020   30.6990   29.9150 H   0  0  0  0  0  0  0  0  0  0  0  0
   37.2980   28.8980   30.0450 H   0  0  0  0  0  0  0  0  0  0  0  0
   32.5680   30.0430   35.6280 C   0  0  0  0  0  0  0  0  0  0  0  0
   33.1420   30.9200   36.5740 C   0  0  0  0  0  0  0  0  0  0  0  0
   34.4200   31.3900   36.3160 C   0  0  0  0  0  0  0  0  0  0  0  0
   35.0500   30.9950   35.1860 N   0  0  0  0  0  0  0  0  0  0  0  0
   34.4840   30.1600   34.2980 C   0  0  0  0  0  0  0  0  0  0  0  0
   33.2550   29.6970   34.5290 N   0  0  0  0  0  0  0  0  0  0  0  0
   31.5720   29.6550   35.7940 H   0  0  0  0  0  0  0  0  0  0  0  0
   32.5780   31.1930   37.4550 H   0  0  0  0  0  0  0  0  0  0  0  0
   34.9750   32.2720   37.2860 N   0  0  0  0  0  0  0  0  0  0  0  0
   34.5360   33.2390   37.3230 H   0  0  0  0  0  0  0  0  0  0  0  0
   35.7400   32.1580   37.9810 H   0  0  0  0  0  0  0  0  0  0  0  0
   37.9690   27.3630   32.2220 C   0  0  0  0  0  0  0  0  0  0  0  0
   38.9520   27.8070   32.0330 H   0  0  0  0  0  0  0  0  0  0  0  0
   37.9730   27.1270   33.3260 H   0  0  0  0  0  0  0  0  0  0  0  0
   37.6360   26.1250   31.5090 C   0  0  0  0  0  0  0  0  0  0  0  0
   38.5900   25.5830   31.2820 H   0  0  0  0  0  0  0  0  0  0  0  0
   37.1900   26.3730   30.5420 H   0  0  0  0  0  0  0  0  0  0  0  0
   36.7670   25.2190   32.1900 N   0  0  0  0  0  0  0  0  0  0  0  0
   35.6420   24.8240   31.3930 C   0  0  0  0  0  2  0  0  0  0  0  0
   35.6790   23.3420   31.2220 C   0  0  0  0  0  2  0  0  0  0  0  0
   37.0350   22.9330   31.7520 C   0  0  0  0  0  2  0  0  0  0  0  0
   37.3560   24.0400   32.7180 C   0  0  0  0  0  3  0  0  0  0  0  0
   38.4020   24.0940   33.0010 H   0  0  0  0  0  0  0  0  0  0  0  0
  2  1  1  0  0  0  0
  3  2  1  0  0  0  0
  3 15  1  0  0  0  0
  4  3  2  0  0  0  0
  5  6  2  0  0  0  0
  5  4  1  0  0  0  0
  6  7  1  0  0  0  0
  7 22  1  0  0  0  0
  7  2  2  0  0  0  0
  8  4  1  0  0  0  0
  9  5  1  0  0  0  0
 10  6  1  0  0  0  0
 11 17  1  0  0  0  0
 11 12  1  0  0  0  0
 12 18  1  0  0  0  0
 13 12  2  0  0  0  0
 13 19  1  0  0  0  0
 14 13  1  0  0  0  0
 15 16  1  0  0  0  0
 15 14  2  0  0  0  0
 16 11  2  0  0  0  0
 19 20  1  0  0  0  0
 19 21  1  0  0  0  0
 22 24  1  0  0  0  0
 23 22  1  0  0  0  0
 25 28  1  0  0  0  0
 25 22  1  0  0  0  0
 26 25  1  0  0  0  0
 27 25  1  0  0  0  0
 28 32  1  0  0  0  0
 29 28  1  0  0  0  0
 30 29  1  0  0  0  0
 30 31  1  0  0  0  0
 31 32  1  0  0  0  0
 32 33  1  0  0  0  0
M  END
>  <minimizedAffinity>
-5.16727448

$$$$

 OpenBabel03272504383D

 33 35  0  0  0  0  0  0  0  0999 V2000
   37.9510   27.5500   35.7820 Cl  0  0  0  0  0  0  0  0  0  0  0  0
   37.3180   27.1390   34.2030 C   0  0  0  0  0  0  0  0  0  0  0  0
   37.7150   25.9840   33.6040 C   0  0  0  0  0  0  0  0  0  0  0  0
   37.2320   25.6440   32.3690 C   0  0  0  0  0  0  0  0  0  0  0  0
   36.3440   26.4880   31.7490 C   0  0  0  0  0  0  0  0  0  0  0  0
   35.9510   27.6550   32.3690 C   0  0  0  0  0  0  0  0  0  0  0  0
   36.4270   28.0180   33.6160 C   0  0  0  0  0  0  0  0  0  0  0  0
   37.5380   24.7310   31.8820 H   0  0  0  0  0  0  0  0  0  0  0  0
   35.9670   26.2050   30.7670 H   0  0  0  0  0  0  0  0  0  0  0  0
   35.2610   28.3030   31.8790 H   0  0  0  0  0  0  0  0  0  0  0  0
   40.8200   24.4010   34.8310 C   0  0  0  0  0  0  0  0  0  0  0  0
   40.3060   23.3150   35.5730 C   0  0  0  0  0  0  0  0  0  0  0  0
   38.9290   23.1710   35.6230 C   0  0  0  0  0  0  0  0  0  0  0  0
   38.1500   24.0620   34.9680 N   0  0  0  0  0  0  0  0  0  0  0  0
   38.6610   25.0880   34.2670 C   0  0  0  0  0  0  0  0  0  0  0  0
   39.9840   25.2440   34.2070 N   0  0  0  0  0  0  0  0  0  0  0  0
   41.8900   24.5460   34.7680 H   0  0  0  0  0  0  0  0  0  0  0  0
   40.9910   22.6410   36.0710 H   0  0  0  0  0  0  0  0  0  0  0  0
   38.4380   22.0690   36.3780 N   0  0  0  0  0  0  0  0  0  0  0  0
   38.6060   21.1120   35.9460 H   0  0  0  0  0  0  0  0  0  0  0  0
   37.9360   22.0080   37.2880 H   0  0  0  0  0  0  0  0  0  0  0  0
   36.0400   29.2610   34.3320 C   0  0  0  0  0  0  0  0  0  0  0  0
   36.5270   29.2300   35.3130 H   0  0  0  0  0  0  0  0  0  0  0  0
   36.5790   30.0820   33.7760 H   0  0  0  0  0  0  0  0  0  0  0  0
   34.6080   29.5720   34.2950 C   0  0  0  0  0  0  0  0  0  0  0  0
   34.0790   28.8730   34.9940 H   0  0  0  0  0  0  0  0  0  0  0  0
   34.2160   29.3570   33.2970 H   0  0  0  0  0  0  0  0  0  0  0  0
   34.2420   30.9070   34.6480 N   0  0  0  0  0  0  0  0  0  0  0  0
   33.3590   30.9610   35.7760 C   0  0  0  0  0  2  0  0  0  0  0  0
   34.0190   31.7520   36.8570 C   0  0  0  0  0  2  0  0  0  0  0  0
   35.4420   31.9330   36.3800 C   0  0  0  0  0  2  0  0  0  0  0  0
   35.3030   31.8200   34.8860 C   0  0  0  0  0  3  0  0  0  0  0  0
   36.2370   31.6400   34.3640 H   0  0  0  0  0  0  0  0  0  0  0  0
  2  1  1  0  0  0  0
  3  2  2  0  0  0  0
  3 15  1  0  0  0  0
  4  3  1  0  0  0  0
  5  4  2  0  0  0  0
  5  6  1  0  0  0  0
  6  7  2  0  0  0  0
  7  2  1  0  0  0  0
  7 22  1  0  0  0  0
  8  4  1  0  0  0  0
  9  5  1  0  0  0  0
 10  6  1  0  0  0  0
 11 12  1  0  0  0  0
 12 13  2  0  0  0  0
 12 18  1  0  0  0  0
 13 19  1  0  0  0  0
 14 13  1  0  0  0  0
 15 14  2  0  0  0  0
 16 15  1  0  0  0  0
 16 11  2  0  0  0  0
 17 11  1  0  0  0  0
 19 21  1  0  0  0  0
 20 19  1  0  0  0  0
 22 23  1  0  0  0  0
 24 22  1  0  0  0  0
 25 22  1  0  0  0  0
 25 28  1  0  0  0  0
 25 26  1  0  0  0  0
 27 25  1  0  0  0  0
 28 32  1  0  0  0  0
 28 29  1  0  0  0  0
 29 30  1  0  0  0  0
 31 30  1  0  0  0  0
 32 31  1  0  0  0  0
 33 32  1  0  0  0  0
M  END
>  <minimizedAffinity>
-5.09810638

$$$$

 OpenBabel03272504383D

 33 35  0  0  0  0  0  0  0  0999 V2000
   37.5690   27.8750   35.4830 Cl  0  0  0  0  0  0  0  0  0  0  0  0
   37.3490   27.8330   33.7470 C   0  0  0  0  0  0  0  0  0  0  0  0
   38.2700   27.1990   32.9720 C   0  0  0  0  0  0  0  0  0  0  0  0
   38.1170   27.1540   31.6130 C   0  0  0  0  0  0  0  0  0  0  0  0
   37.0210   27.7590   31.0490 C   0  0  0  0  0  0  0  0  0  0  0  0
   36.0960   28.3970   31.8480 C   0  0  0  0  0  0  0  0  0  0  0  0
   36.2310   28.4550   33.2230 C   0  0  0  0  0  0  0  0  0  0  0  0
   38.8400   26.6560   30.9860 H   0  0  0  0  0  0  0  0  0  0  0  0
   36.9110   27.7160   29.9670 H   0  0  0  0  0  0  0  0  0  0  0  0
   35.2480   28.8640   31.4000 H   0  0  0  0  0  0  0  0  0  0  0  0
   40.4970   24.7780   34.6570 C   0  0  0  0  0  0  0  0  0  0  0  0
   41.7180   25.4880   34.6750 C   0  0  0  0  0  0  0  0  0  0  0  0
   41.7290   26.7540   34.1130 C   0  0  0  0  0  0  0  0  0  0  0  0
   40.5880   27.2480   33.5830 N   0  0  0  0  0  0  0  0  0  0  0  0
   39.4360   26.5570   33.5770 C   0  0  0  0  0  0  0  0  0  0  0  0
   39.4050   25.3350   34.1120 N   0  0  0  0  0  0  0  0  0  0  0  0
   40.4480   23.7870   35.0860 H   0  0  0  0  0  0  0  0  0  0  0  0
   42.5910   25.0290   35.1180 H   0  0  0  0  0  0  0  0  0  0  0  0
   42.9720   27.4470   34.1450 N   0  0  0  0  0  0  0  0  0  0  0  0
   43.2830   27.7780   35.1060 H   0  0  0  0  0  0  0  0  0  0  0  0
   43.6550   27.6990   33.4010 H   0  0  0  0  0  0  0  0  0  0  0  0
   35.2690   29.1270   34.1330 C   0  0  0  0  0  0  0  0  0  0  0  0
   34.4350   28.4340   34.2860 H   0  0  0  0  0  0  0  0  0  0  0  0
   35.7990   29.1530   35.1300 H   0  0  0  0  0  0  0  0  0  0  0  0
   34.9450   30.5110   33.7730 C   0  0  0  0  0  0  0  0  0  0  0  0
   33.8510   30.6740   33.9570 H   0  0  0  0  0  0  0  0  0  0  0  0
   35.0960   30.6500   32.6990 H   0  0  0  0  0  0  0  0  0  0  0  0
   35.6650   31.5300   34.4670 N   0  0  0  0  0  0  0  0  0  0  0  0
   34.9710   32.7850   34.4850 C   0  0  0  0  0  2  0  0  0  0  0  0
   34.7190   33.1670   35.9060 C   0  0  0  0  0  2  0  0  0  0  0  0
   35.0800   31.9330   36.7000 C   0  0  0  0  0  2  0  0  0  0  0  0
   36.0630   31.2390   35.7990 C   0  0  0  0  0  3  0  0  0  0  0  0
   36.2360   30.1970   36.0470 H   0  0  0  0  0  0  0  0  0  0  0  0
  2  1  1  0  0  0  0
  3 15  1  0  0  0  0
  3  2  2  0  0  0  0
  4  3  1  0  0  0  0
  5  4  2  0  0  0  0
  5  6  1  0  0  0  0
  6  7  2  0  0  0  0
  7  2  1  0  0  0  0
  7 22  1  0  0  0  0
  8  4  1  0  0  0  0
  9  5  1  0  0  0  0
 10  6  1  0  0  0  0
 11 12  1  0  0  0  0
 11 17  1  0  0  0  0
 12 18  1  0  0  0  0
 13 19  1  0  0  0  0
 13 12  2  0  0  0  0
 14 13  1  0  0  0  0
 15 14  2  0  0  0  0
 15 16  1  0  0  0  0
 16 11  2  0  0  0  0
 19 20  1  0  0  0  0
 21 19  1  0  0  0  0
 22 23  1  0  0  0  0
 22 24  1  0  0  0  0
 25 26  1  0  0  0  0
 25 22  1  0  0  0  0
 25 28  1  0  0  0  0
 27 25  1  0  0  0  0
 28 29  1  0  0  0  0
 28 32  1  0  0  0  0
 29 30  1  0  0  0  0
 30 31  1  0  0  0  0
 32 33  1  0  0  0  0
 32 31  1  0  0  0  0
M  END
>  <minimizedAffinity>
-5.00781679

$$$$

 OpenBabel03272504383D

 33 35  0  0  0  0  0  0  0  0999 V2000
   36.5420   28.7350   34.8710 Cl  0  0  0  0  0  0  0  0  0  0  0  0
   36.6410   27.4940   33.6410 C   0  0  0  0  0  0  0  0  0  0  0  0
   36.0800   27.7150   32.4220 C   0  0  0  0  0  0  0  0  0  0  0  0
   36.1460   26.7580   31.4450 C   0  0  0  0  0  0  0  0  0  0  0  0
   36.7870   25.5750   31.7200 C   0  0  0  0  0  0  0  0  0  0  0  0
   37.3510   25.3660   32.9600 C   0  0  0  0  0  0  0  0  0  0  0  0
   37.2960   26.3190   33.9610 C   0  0  0  0  0  0  0  0  0  0  0  0
   35.7050   26.9200   30.4740 H   0  0  0  0  0  0  0  0  0  0  0  0
   36.8330   24.8230   30.9350 H   0  0  0  0  0  0  0  0  0  0  0  0
   37.8470   24.4440   33.1630 H   0  0  0  0  0  0  0  0  0  0  0  0
   35.3580   31.1890   31.3880 C   0  0  0  0  0  0  0  0  0  0  0  0
   33.9720   31.2760   31.6470 C   0  0  0  0  0  0  0  0  0  0  0  0
   33.3480   30.1500   32.1590 C   0  0  0  0  0  0  0  0  0  0  0  0
   34.0800   29.0370   32.3870 N   0  0  0  0  0  0  0  0  0  0  0  0
   35.3980   28.9770   32.1340 C   0  0  0  0  0  0  0  0  0  0  0  0
   36.0180   30.0490   31.6400 N   0  0  0  0  0  0  0  0  0  0  0  0
   35.8820   32.0470   30.9880 H   0  0  0  0  0  0  0  0  0  0  0  0
   33.4510   32.2010   31.4410 H   0  0  0  0  0  0  0  0  0  0  0  0
   31.9510   30.2650   32.4110 N   0  0  0  0  0  0  0  0  0  0  0  0
   31.6870   30.8880   33.2310 H   0  0  0  0  0  0  0  0  0  0  0  0
   31.1170   29.8530   31.9440 H   0  0  0  0  0  0  0  0  0  0  0  0
   37.8840   26.1510   35.3140 C   0  0  0  0  0  0  0  0  0  0  0  0
   38.1510   27.1500   35.6740 H   0  0  0  0  0  0  0  0  0  0  0  0
   37.0120   25.8410   35.9610 H   0  0  0  0  0  0  0  0  0  0  0  0
   38.9010   25.0990   35.4160 C   0  0  0  0  0  0  0  0  0  0  0  0
   39.7880   25.5190   35.9570 H   0  0  0  0  0  0  0  0  0  0  0  0
   39.2530   24.8370   34.4140 H   0  0  0  0  0  0  0  0  0  0  0  0
   38.5050   23.9010   36.0850 N   0  0  0  0  0  0  0  0  0  0  0  0
   39.6030   23.2310   36.7190 C   0  0  0  0  0  2  0  0  0  0  0  0
   39.3220   23.1430   38.1830 C   0  0  0  0  0  2  0  0  0  0  0  0
   38.1170   24.0300   38.3920 C   0  0  0  0  0  2  0  0  0  0  0  0
   37.4600   24.0140   37.0390 C   0  0  0  0  0  3  0  0  0  0  0  0
   36.7350   24.8070   36.8860 H   0  0  0  0  0  0  0  0  0  0  0  0
  2  7  1  0  0  0  0
  2  1  1  0  0  0  0
  3  2  2  0  0  0  0
  4  5  2  0  0  0  0
  4  3  1  0  0  0  0
  5  6  1  0  0  0  0
  6 10  1  0  0  0  0
  6  7  2  0  0  0  0
  7 22  1  0  0  0  0
  8  4  1  0  0  0  0
  9  5  1  0  0  0  0
 11 16  2  0  0  0  0
 11 12  1  0  0  0  0
 12 13  2  0  0  0  0
 13 14  1  0  0  0  0
 13 19  1  0  0  0  0
 15 14  2  0  0  0  0
 15  3  1  0  0  0  0
 16 15  1  0  0  0  0
 17 11  1  0  0  0  0
 18 12  1  0  0  0  0
 19 20  1  0  0  0  0
 21 19  1  0  0  0  0
 22 25  1  0  0  0  0
 22 23  1  0  0  0  0
 22 24  1  0  0  0  0
 25 26  1  0  0  0  0
 25 28  1  0  0  0  0
 27 25  1  0  0  0  0
 28 29  1  0  0  0  0
 28 32  1  0  0  0  0
 29 30  1  0  0  0  0
 30 31  1  0  0  0  0
 32 31  1  0  0  0  0
 33 32  1  0  0  0  0
M  END
>  <minimizedAffinity>
-4.9587183

$$$$
