
 OpenBabel03272510323D

 25 27  0  0  0  0  0  0  0  0999 V2000
   36.5930   30.5850   46.3810 C   0  0  0  0  0  0  0  0  0  0  0  0
   35.8610   30.1530   45.3020 C   0  0  0  0  0  0  0  0  0  0  0  0
   34.5780   29.6470   45.4620 C   0  0  0  0  0  0  0  0  0  0  0  0
   34.0590   29.5940   46.7520 C   0  0  0  0  0  0  0  0  0  0  0  0
   34.7740   30.0210   47.8480 C   0  0  0  0  0  0  0  0  0  0  0  0
   36.0480   30.5170   47.6510 C   0  0  0  0  0  0  0  0  0  0  0  0
   36.2320   30.1800   44.2850 H   0  0  0  0  0  0  0  0  0  0  0  0
   34.0130   29.3130   44.6220 H   0  0  0  0  0  0  0  0  0  0  0  0
   33.0530   29.2020   46.9090 H   0  0  0  0  0  0  0  0  0  0  0  0
   34.3860   29.9860   48.8620 H   0  0  0  0  0  0  0  0  0  0  0  0
   39.2500   32.9790   45.7570 C   0  0  0  0  0  0  0  0  0  0  0  0
   40.4000   32.2100   45.5940 C   0  0  0  0  0  0  0  0  0  0  0  0
   40.2350   30.8200   45.7070 C   0  0  0  0  0  0  0  0  0  0  0  0
   39.0080   30.2920   45.9620 N   0  0  0  0  0  0  0  0  0  0  0  0
   37.9250   31.0980   46.1100 C   0  0  0  0  0  0  0  0  0  0  0  0
   38.0470   32.4540   46.0070 N   0  0  0  0  0  0  0  0  0  0  0  0
   39.2900   34.0620   45.6850 H   0  0  0  0  0  0  0  0  0  0  0  0
   41.3400   32.6750   45.3950 H   0  0  0  0  0  0  0  0  0  0  0  0
   41.1100   30.1890   45.5860 H   0  0  0  0  0  0  0  0  0  0  0  0
   36.8570   30.9800   48.7280 N   0  0  0  0  0  0  0  0  0  0  0  0
   36.5330   32.0460   49.6820 C   0  0  0  0  0  2  0  0  0  0  0  0
   37.7800   32.9210   49.5120 C   0  0  0  0  0  2  0  0  0  0  0  0
   38.8560   31.8540   49.6920 C   0  0  0  0  0  2  0  0  0  0  0  0
   38.1570   30.6140   49.2290 C   0  0  0  0  0  3  0  0  0  0  0  0
   37.9850   29.9660   50.1120 H   0  0  0  0  0  0  0  0  0  0  0  0
  1  6  1  0  0  0  0
  2  3  1  0  0  0  0
  2  1  2  0  0  0  0
  3  4  2  0  0  0  0
  4  9  1  0  0  0  0
  4  5  1  0  0  0  0
  5 10  1  0  0  0  0
  6  5  2  0  0  0  0
  6 20  1  0  0  0  0
  7  2  1  0  0  0  0
  8  3  1  0  0  0  0
 11 16  1  0  0  0  0
 12 13  1  0  0  0  0
 12 11  2  0  0  0  0
 13 14  2  0  0  0  0
 14 15  1  0  0  0  0
 15  1  1  0  0  0  0
 16 15  2  0  0  0  0
 17 11  1  0  0  0  0
 18 12  1  0  0  0  0
 19 13  1  0  0  0  0
 20 24  1  0  0  0  0
 20 21  1  0  0  0  0
 22 21  1  0  0  0  0
 22 23  1  0  0  0  0
 24 23  1  0  0  0  0
 24 25  1  0  0  0  0
M  END
>  <minimizedAffinity>
-4.77185965

>  <minimizedRMSD>
2.83249855

$$$$
