
 OpenBabel03272509363D

 27 29  0  0  1  0  0  0  0  0999 V2000
   35.0590   29.9700   47.4200 C   0  0  0  0  0  0  0  0  0  0  0  0
   34.4100   29.7510   48.6310 C   0  0  0  0  0  0  0  0  0  0  0  0
   35.0080   30.1260   49.8510 C   0  0  0  0  0  0  0  0  0  0  0  0
   36.2630   30.7240   49.8620 C   0  0  0  0  0  0  0  0  0  0  0  0
   36.8900   30.9330   48.6480 C   0  0  0  0  0  0  0  0  0  0  0  0
   36.2870   30.5580   47.4620 C   0  0  0  0  0  0  0  0  0  0  0  0
   33.4350   29.2850   48.6170 H   0  0  0  0  0  0  0  0  0  0  0  0
   34.4170   29.9090   50.7280 H   0  0  0  0  0  0  0  0  0  0  0  0
   36.6410   30.9780   50.8460 H   0  0  0  0  0  0  0  0  0  0  0  0
   37.8600   31.4030   48.7400 H   0  0  0  0  0  0  0  0  0  0  0  0
   37.0900   30.8400   46.3310 N   0  0  0  0  0  0  0  0  0  0  0  0
   37.4340   30.3960   44.9980 C   0  0  0  0  0  2  0  0  0  0  0  0
   38.9230   30.1590   45.1280 C   0  0  0  0  0  2  0  0  0  0  0  0
   39.3340   31.4310   45.8410 C   0  0  0  0  0  2  0  0  0  0  0  0
   37.9990   31.9710   46.2960 C   0  0  0  0  0  3  0  0  0  0  0  0
   37.6530   32.8220   45.7140 H   0  0  0  0  0  0  0  0  0  0  0  0
   34.3990   29.5680   46.1990 C   0  0  1  0  0  3  0  0  0  0  0  0
   34.5350   28.3160   45.9220 O   0  0  0  0  0  1  0  0  0  0  0  0
   31.6900   31.7540   45.1570 C   0  0  0  0  0  0  0  0  0  0  0  0
   32.0350   32.1180   43.8640 C   0  0  0  0  0  0  0  0  0  0  0  0
   33.2040   31.6140   43.3290 C   0  0  0  0  0  0  0  0  0  0  0  0
   33.9990   30.7740   44.0660 N   0  0  0  0  0  0  0  0  0  0  0  0
   33.6310   30.4420   45.3180 C   0  0  0  0  0  0  0  0  0  0  0  0
   32.5010   30.9390   45.8150 N   0  0  0  0  0  0  0  0  0  0  0  0
   30.7770   32.1700   45.5240 H   0  0  0  0  0  0  0  0  0  0  0  0
   31.4220   32.7770   43.2720 H   0  0  0  0  0  0  0  0  0  0  0  0
   33.4770   31.8940   42.3240 H   0  0  0  0  0  0  0  0  0  0  0  0
  1  6  2  0  0  0  0
  1  2  1  0  0  0  0
  2  3  2  0  0  0  0
  3  4  1  0  0  0  0
  3  8  1  0  0  0  0
  4  9  1  0  0  0  0
  5 10  1  0  0  0  0
  5  4  2  0  0  0  0
  6  5  1  0  0  0  0
  7  2  1  0  0  0  0
 11  6  1  0  0  0  0
 12 13  1  0  0  0  0
 12 11  1  0  0  0  0
 13 14  1  0  0  0  0
 14 15  1  0  0  0  0
 15 11  1  0  0  0  0
 16 15  1  0  0  0  0
 17 18  1  1  0  0  0
 17  1  1  0  0  0  0
 19 25  1  0  0  0  0
 19 24  1  0  0  0  0
 20 19  2  0  0  0  0
 21 20  1  0  0  0  0
 21 22  2  0  0  0  0
 22 23  1  0  0  0  0
 23 24  2  0  0  0  0
 23 17  1  0  0  0  0
 26 20  1  0  0  0  0
 27 21  1  0  0  0  0
M  END
>  <minimizedAffinity>
-4.5938592

>  <minimizedRMSD>
2.35218835

$$$$
