REMARK  Name = 
REMARK  3 active torsions:
REMARK  status: ('A' for Active; 'I' for Inactive)
REMARK    1  A    between atoms: C_1  and  C_7
REMARK    2  A    between atoms: C_1  and  C_9
REMARK    3  A    between atoms: C_14  and  N_22
REMARK                            x       y       z     vdW  Elec       q    Type
REMARK                         _______ _______ _______ _____ _____    ______ ____
ROOT
ATOM      1  C   UNL     1      36.070  29.563  49.153  0.00  0.00    +0.000 A 
ATOM      2  C   UNL     1      36.279  29.684  50.523  0.00  0.00    +0.000 A 
ATOM      3  C   UNL     1      37.365  30.429  51.026  0.00  0.00    +0.000 A 
ATOM      4  C   UNL     1      38.248  31.057  50.155  0.00  0.00    +0.000 A 
ATOM      5  C   UNL     1      38.022  30.924  48.798  0.00  0.00    +0.000 A 
ATOM      6  C   UNL     1      36.952  30.189  48.324  0.00  0.00    +0.000 A 
ATOM      7  H   UNL     1      35.590  29.194  51.196  0.00  0.00    +0.000 HD
ATOM      8  H   UNL     1      37.432  30.457  52.103  0.00  0.00    +0.000 HD
ATOM      9  H   UNL     1      39.051  31.607  50.634  0.00  0.00    +0.000 HD
ATOM     10  H   UNL     1      38.750  31.441  48.188  0.00  0.00    +0.000 HD
ENDROOT
BRANCH   6  11
ATOM     11  N   UNL     1      36.898  30.157  46.910  0.00  0.00    +0.000 N 
ATOM     12  C   UNL     1      36.528  29.348  45.769  0.00  0.00    +0.000 C 
ATOM     13  C   UNL     1      37.843  29.245  45.027  0.00  0.00    +0.000 C 
ATOM     14  C   UNL     1      38.282  30.695  45.061  0.00  0.00    +0.000 C 
ATOM     15  C   UNL     1      37.348  31.272  46.098  0.00  0.00    +0.000 C 
ATOM     16  H   UNL     1      36.556  31.885  45.676  0.00  0.00    +0.000 HD
ENDBRANCH   6  11
BRANCH   1  17
ATOM     17  C   UNL     1      34.940  28.789  48.692  0.00  0.00    +0.000 C 
ATOM     18  O   UNL     1      34.592  27.845  49.498  0.00  0.00    +0.000 OA
BRANCH  17  23
ATOM     19  C   UNL     1      33.021  30.585  46.183  0.00  0.00    +0.000 A 
ATOM     20  C   UNL     1      32.828  29.649  45.179  0.00  0.00    +0.000 A 
ATOM     21  C   UNL     1      33.352  28.383  45.351  0.00  0.00    +0.000 A 
ATOM     22  N   UNL     1      34.046  28.068  46.491  0.00  0.00    +0.000 NA
ATOM     23  C   UNL     1      34.213  29.003  47.444  0.00  0.00    +0.000 A 
ATOM     24  N   UNL     1      33.700  30.217  47.259  0.00  0.00    +0.000 NA
ATOM     25  H   UNL     1      32.596  31.549  46.002  0.00  0.00    +0.000 HD
ATOM     26  H   UNL     1      32.286  29.880  44.277  0.00  0.00    +0.000 HD
ATOM     27  H   UNL     1      33.205  27.651  44.572  0.00  0.00    +0.000 HD
ENDBRANCH  17  23
ENDBRANCH   1  17
TORSDOF 3
