
 OpenBabel03272510243D

 29 32  0  0  1  0  0  0  0  0999 V2000
   36.2040   30.1850   46.9250 C   0  0  0  0  0  0  0  0  0  0  0  0
   37.0490   30.7420   47.8630 C   0  0  0  0  0  0  0  0  0  0  0  0
   38.0390   31.6490   47.4930 C   0  0  0  0  0  0  0  0  0  0  0  0
   38.1140   31.9510   46.1260 C   0  0  0  0  0  0  0  0  0  0  0  0
   38.9930   32.8060   45.5220 N   0  0  0  0  0  0  0  0  0  0  0  0
   38.7000   32.7850   44.2130 C   0  0  0  0  0  0  0  0  0  0  0  0
   37.6880   31.9620   43.9890 N   0  0  0  0  0  0  0  0  0  0  0  0
   37.2940   31.4220   45.1630 C   0  0  0  0  0  0  0  0  0  0  0  0
   36.3180   30.5190   45.5740 C   0  0  0  0  0  0  0  0  0  0  0  0
   35.4250   29.4780   47.1760 H   0  0  0  0  0  0  0  0  0  0  0  0
   38.6890   32.0750   48.2190 H   0  0  0  0  0  0  0  0  0  0  0  0
   39.7400   33.3560   46.0150 H   0  0  0  0  0  0  0  0  0  0  0  0
   35.6700   30.1000   44.8140 H   0  0  0  0  0  0  0  0  0  0  0  0
   37.4530   30.1420   51.5460 C   0  0  0  0  0  0  0  0  0  0  0  0
   37.7600   30.5820   50.2650 C   0  0  0  0  0  0  0  0  0  0  0  0
   36.8660   30.3430   49.2470 C   0  0  0  0  0  0  0  0  0  0  0  0
   35.7290   29.6830   49.5800 N   0  0  0  0  0  0  0  0  0  0  0  0
   35.4330   29.2580   50.8260 C   0  0  0  0  0  0  0  0  0  0  0  0
   36.3010   29.4940   51.7920 N   0  0  0  0  0  0  0  0  0  0  0  0
   38.1960   30.3600   52.3000 H   0  0  0  0  0  0  0  0  0  0  0  0
   38.6720   31.1080   50.0140 H   0  0  0  0  0  0  0  0  0  0  0  0
   34.5070   28.7350   51.0250 H   0  0  0  0  0  0  0  0  0  0  0  0
   39.4300   33.5650   43.3080 O   0  0  0  0  0  0  0  0  0  0  0  0
   40.3540   31.3360   41.9290 H   0  0  0  0  0  0  0  0  0  0  0  0
   39.4500   31.7930   41.7040 N   0  0  0  0  0  0  0  0  0  0  0  0
   39.0180   31.6370   40.3470 C   0  0  0  0  0  2  0  0  0  0  0  0
   38.2850   32.9040   39.9390 C   0  0  0  0  0  2  0  0  0  0  0  0
   38.0630   33.5810   41.2980 C   0  0  0  0  0  2  0  0  0  0  0  0
   39.3970   33.1990   41.9530 C   0  0  1  0  0  3  0  0  0  0  0  0
  1 10  1  0  0  0  0
  1  2  1  0  0  0  0
  2 16  1  0  0  0  0
  3  2  2  0  0  0  0
  3 11  1  0  0  0  0
  4  3  1  0  0  0  0
  5 12  1  0  0  0  0
  5  4  1  0  0  0  0
  6  5  1  0  0  0  0
  7  6  2  0  0  0  0
  7  8  1  0  0  0  0
  8  9  1  0  0  0  0
  8  4  2  0  0  0  0
  9  1  2  0  0  0  0
 13  9  1  0  0  0  0
 14 19  1  0  0  0  0
 14 20  1  0  0  0  0
 15 14  2  0  0  0  0
 16 17  2  0  0  0  0
 16 15  1  0  0  0  0
 17 18  1  0  0  0  0
 18 22  1  0  0  0  0
 18 19  2  0  0  0  0
 21 15  1  0  0  0  0
 23  6  1  0  0  0  0
 25 24  1  0  0  0  0
 25 29  1  0  0  0  0
 26 25  1  0  0  0  0
 27 26  1  0  0  0  0
 27 28  1  0  0  0  0
 28 29  1  0  0  0  0
 29 23  1  1  0  0  0
M  END
>  <minimizedAffinity>
-5.3939929

>  <minimizedRMSD>
1.23347354

$$$$
