
 OpenBabel03272510153D

 25 27  0  0  0  0  0  0  0  0999 V2000
   37.3120   29.3200   51.0460 Br  0  0  0  0  0  0  0  0  0  0  0  0
   35.9400   29.3210   49.7030 C   0  0  0  0  0  0  0  0  0  0  0  0
   35.9670   30.2370   48.6740 C   0  0  0  0  0  0  0  0  0  0  0  0
   34.9450   30.1800   47.7410 C   0  0  0  0  0  0  0  0  0  0  0  0
   33.9280   29.2600   47.8030 C   0  0  0  0  0  0  0  0  0  0  0  0
   33.9290   28.3640   48.8350 C   0  0  0  0  0  0  0  0  0  0  0  0
   34.9460   28.3980   49.7900 C   0  0  0  0  0  0  0  0  0  0  0  0
   35.0030   30.9160   46.9510 H   0  0  0  0  0  0  0  0  0  0  0  0
   33.1310   27.6520   48.8720 H   0  0  0  0  0  0  0  0  0  0  0  0
   34.9280   27.6780   50.6010 H   0  0  0  0  0  0  0  0  0  0  0  0
   37.9840   33.1810   49.4340 C   0  0  0  0  0  0  0  0  0  0  0  0
   39.0180   33.1450   48.4470 C   0  0  0  0  0  0  0  0  0  0  0  0
   38.9940   32.0890   47.5320 C   0  0  0  0  0  0  0  0  0  0  0  0
   37.9960   31.1620   47.6270 N   0  0  0  0  0  0  0  0  0  0  0  0
   37.0360   31.2340   48.5760 C   0  0  0  0  0  0  0  0  0  0  0  0
   37.0350   32.2410   49.4720 N   0  0  0  0  0  0  0  0  0  0  0  0
   38.0390   34.0170   50.1260 H   0  0  0  0  0  0  0  0  0  0  0  0
   39.8000   33.8920   48.3930 H   0  0  0  0  0  0  0  0  0  0  0  0
   39.7370   31.9830   46.7520 H   0  0  0  0  0  0  0  0  0  0  0  0
   32.9070   29.2500   46.8150 N   0  0  0  0  0  0  0  0  0  0  0  0
   32.5210   30.3440   45.9480 C   0  0  0  0  0  2  0  0  0  0  0  0
   31.7340   29.6650   44.8180 C   0  0  0  0  0  2  0  0  0  0  0  0
   30.9500   28.6300   45.6370 C   0  0  0  0  0  2  0  0  0  0  0  0
   32.0590   28.0910   46.5090 C   0  0  0  0  0  3  0  0  0  0  0  0
   32.6340   27.3560   45.8850 H   0  0  0  0  0  0  0  0  0  0  0  0
  2  7  1  0  0  0  0
  2  1  1  0  0  0  0
  3  2  2  0  0  0  0
  4  5  2  0  0  0  0
  4  3  1  0  0  0  0
  5  6  1  0  0  0  0
  6  9  1  0  0  0  0
  6  7  2  0  0  0  0
  7 10  1  0  0  0  0
  8  4  1  0  0  0  0
 11 16  1  0  0  0  0
 11 17  1  0  0  0  0
 12 11  2  0  0  0  0
 13 14  2  0  0  0  0
 13 12  1  0  0  0  0
 14 15  1  0  0  0  0
 15  3  1  0  0  0  0
 15 16  2  0  0  0  0
 18 12  1  0  0  0  0
 19 13  1  0  0  0  0
 20  5  1  0  0  0  0
 21 20  1  0  0  0  0
 22 23  1  0  0  0  0
 22 21  1  0  0  0  0
 23 24  1  0  0  0  0
 24 20  1  0  0  0  0
 25 24  1  0  0  0  0
M  END
>  <minimizedAffinity>
-5.72152662

>  <minimizedRMSD>
0.35102582

$$$$
