
 OpenBabel03272509113D

 25 27  0  0  0  0  0  0  0  0999 V2000
   34.9330   30.1440   47.5930 C   0  0  0  0  0  0  0  0  0  0  0  0
   36.2230   30.7420   47.4110 C   0  0  0  0  0  0  0  0  0  0  0  0
   36.7670   30.6780   46.1270 C   0  0  0  0  0  0  0  0  0  0  0  0
   36.0670   30.0660   45.1260 N   0  0  0  0  0  0  0  0  0  0  0  0
   34.8560   29.5150   45.3410 C   0  0  0  0  0  0  0  0  0  0  0  0
   34.2950   29.5540   46.5640 N   0  0  0  0  0  0  0  0  0  0  0  0
   34.4500   30.1580   48.5710 H   0  0  0  0  0  0  0  0  0  0  0  0
   34.4260   29.0670   44.4550 H   0  0  0  0  0  0  0  0  0  0  0  0
   38.0600   31.2450   45.8230 C   0  0  0  0  0  0  0  0  0  0  0  0
   38.1180   32.4550   45.1930 C   0  0  0  0  0  0  0  0  0  0  0  0
   39.3090   33.0780   44.8670 C   0  0  0  0  0  0  0  0  0  0  0  0
   40.4840   32.4070   45.2130 C   0  0  0  0  0  0  0  0  0  0  0  0
   40.5010   31.1660   45.8580 C   0  0  0  0  0  0  0  0  0  0  0  0
   39.2490   30.6150   46.1470 C   0  0  0  0  0  0  0  0  0  0  0  0
   37.3020   33.0700   44.8560 H   0  0  0  0  0  0  0  0  0  0  0  0
   39.4370   34.0190   44.3790 H   0  0  0  0  0  0  0  0  0  0  0  0
   41.4730   32.8120   45.0010 H   0  0  0  0  0  0  0  0  0  0  0  0
   41.4330   30.6820   46.1060 H   0  0  0  0  0  0  0  0  0  0  0  0
   39.2370   29.6660   46.6400 H   0  0  0  0  0  0  0  0  0  0  0  0
   36.7960   31.2900   48.5750 N   0  0  0  0  0  0  0  0  0  0  0  0
   37.5760   32.4790   48.9470 C   0  0  0  0  0  0  0  0  0  0  0  0
   38.7470   31.8690   49.7080 C   0  0  0  0  0  0  0  0  0  0  0  0
   38.1330   30.6740   50.4230 C   0  0  0  0  0  0  0  0  0  0  0  0
   36.7210   30.6110   49.8740 C   0  0  0  0  0  0  0  0  0  0  0  0
   36.0840   31.1720   50.5740 H   0  0  0  0  0  0  0  0  0  0  0  0
  1  7  1  0  0  0  0
  2  1  1  0  0  0  0
  2 20  1  0  0  0  0
  3  2  2  0  0  0  0
  4  5  2  0  0  0  0
  4  3  1  0  0  0  0
  5  6  1  0  0  0  0
  6  1  2  0  0  0  0
  8  5  1  0  0  0  0
  9  3  1  0  0  0  0
  9 14  1  0  0  0  0
 10  9  2  0  0  0  0
 11 10  1  0  0  0  0
 11 12  2  0  0  0  0
 12 13  1  0  0  0  0
 13 18  1  0  0  0  0
 13 14  2  0  0  0  0
 14 19  1  0  0  0  0
 15 10  1  0  0  0  0
 16 11  1  0  0  0  0
 17 12  1  0  0  0  0
 20 21  1  0  0  0  0
 20 24  1  0  0  0  0
 21 22  1  0  0  0  0
 22 23  1  0  0  0  0
 24 23  1  0  0  0  0
 24 25  1  0  0  0  0
M  END
>  <minimizedAffinity>
-5.31126642

>  <minimizedRMSD>
3.29317808

$$$$
