
     RDKit          3D

 32 34  0  0  0  0  0  0  0  0999 V2000
   37.9794   33.1670   49.4419 C   0  0  0  0  0  0  0  0  0  0  0  0
   39.0170   33.1618   48.4594 C   0  0  0  0  0  0  0  0  0  0  0  0
   39.0092   32.1233   47.5236 C   0  0  0  0  0  0  0  0  0  0  0  0
   38.0232   31.1820   47.5979 N   0  0  0  0  0  0  0  0  0  0  0  0
   37.0586   31.2236   48.5447 C   0  0  0  0  0  0  0  0  0  0  0  0
   37.0423   32.2144   49.4599 N   0  0  0  0  0  0  0  0  0  0  0  0
   37.2686   29.3596   51.0595 Br  0  0  0  0  0  0  0  0  0  0  0  0
   35.9502   29.3141   49.6646 C   0  0  0  0  0  0  0  0  0  0  0  0
   36.0022   30.2122   48.6213 C   0  0  0  0  0  0  0  0  0  0  0  0
   35.0183   30.1213   47.6499 C   0  0  0  0  0  0  0  0  0  0  0  0
   34.0137   29.1857   47.6911 C   0  0  0  0  0  0  0  0  0  0  0  0
   33.9886   28.3086   48.7384 C   0  0  0  0  0  0  0  0  0  0  0  0
   34.9668   28.3772   49.7307 C   0  0  0  0  0  0  0  0  0  0  0  0
   38.0208   33.9898   50.1503 H   0  0  0  0  0  0  0  0  0  0  0  0
   39.7888   33.9200   48.4207 H   0  0  0  0  0  0  0  0  0  0  0  0
   39.7559   32.0414   46.7454 H   0  0  0  0  0  0  0  0  0  0  0  0
   35.0951   30.8440   46.8487 H   0  0  0  0  0  0  0  0  0  0  0  0
   33.2013   27.5856   48.7582 H   0  0  0  0  0  0  0  0  0  0  0  0
   34.9295   27.6716   50.5544 H   0  0  0  0  0  0  0  0  0  0  0  0
   33.0320   29.1425   46.6639 N   0  0  0  0  0  0  0  0  0  0  0  0
   32.3137   27.9779   46.1904 C   0  0  0  0  0  0  0  0  0  0  0  0
   31.1070   28.5625   45.4442 C   0  0  0  0  0  0  0  0  0  0  0  0
   31.7864   29.7479   44.7450 C   0  0  0  0  0  0  0  0  0  0  0  0
   32.5807   30.3116   45.8997 C   0  0  1  0  0  0  0  0  0  0  0  0
   31.8677   30.9170   46.5187 H   0  0  0  0  0  0  0  0  0  0  0  0
   31.9144   27.3328   46.9781 H   0  0  0  0  0  0  0  0  0  0  0  0
   32.9148   27.3770   45.4792 H   0  0  0  0  0  0  0  0  0  0  0  0
   30.6505   27.8587   44.7498 H   0  0  0  0  0  0  0  0  0  0  0  0
   30.4009   28.9931   46.1853 H   0  0  0  0  0  0  0  0  0  0  0  0
   31.0404   30.4734   44.3840 H   0  0  0  0  0  0  0  0  0  0  0  0
   32.4369   29.3325   43.9514 H   0  0  0  0  0  0  0  0  0  0  0  0
   33.4294   30.9501   45.5856 H   0  0  0  0  0  0  0  0  0  0  0  0
  1  6  2  0
  2  1  1  0
  3  4  1  0
  3  2  2  0
  4  5  2  0
  5  9  1  0
  5  6  1  0
  8 13  2  0
  8  7  1  0
  9  8  1  0
 10 11  1  0
 10  9  2  0
 11 12  2  0
 12 13  1  0
  1 14  1  0
  2 15  1  0
  3 16  1  0
 10 17  1  0
 12 18  1  0
 13 19  1  0
 20 21  1  0
 21 22  1  0
 22 23  1  0
 23 24  1  0
 24 25  1  1
 24 20  1  0
 21 26  1  0
 21 27  1  0
 22 28  1  0
 22 29  1  0
 23 30  1  0
 23 31  1  0
 24 32  1  0
 11 20  1  0
M  ISO  7  14  14  15  14  16  14  17  14  18  14  19  14  25  13
M  END
>  <DihAtoms>  (1) 
9,10,19,20

>  <DihDeg>  (1) 
0.06234209676278611

$$$$
