
 OpenBabel03272509063D

 30 32  0  0  0  0  0  0  0  0999 V2000
   36.8460   24.7460   32.0220 C   0  0  0  0  0  3  0  0  0  0  0  0
   36.4500   23.5230   32.0730 C   0  0  0  0  0  3  0  0  0  0  0  0
   38.5150   27.0910   34.2760 C   0  0  0  0  0  0  0  0  0  0  0  0
   38.8150   26.2570   35.3770 C   0  0  0  0  0  0  0  0  0  0  0  0
   38.4320   24.9070   35.3040 C   0  0  0  0  0  0  0  0  0  0  0  0
   37.7880   24.4630   34.1720 N   0  0  0  0  0  0  0  0  0  0  0  0
   37.5350   25.3190   33.1600 C   0  0  0  0  0  0  0  0  0  0  0  0
   37.8890   26.6120   33.2040 N   0  0  0  0  0  0  0  0  0  0  0  0
   38.8400   28.1150   34.4080 H   0  0  0  0  0  0  0  0  0  0  0  0
   39.3180   26.6410   36.2390 H   0  0  0  0  0  0  0  0  0  0  0  0
   38.6990   24.0050   36.3670 N   0  0  0  0  0  0  0  0  0  0  0  0
   37.8230   23.7450   37.4890 C   0  0  0  0  0  2  0  0  0  0  0  0
   38.7600   23.3990   38.6190 C   0  0  0  0  0  2  0  0  0  0  0  0
   40.0030   22.8830   37.9740 C   0  0  0  0  0  2  0  0  0  0  0  0
   39.8930   23.1990   36.5010 C   0  0  0  0  0  3  0  0  0  0  0  0
   39.7790   22.2510   35.9350 H   0  0  0  0  0  0  0  0  0  0  0  0
   35.7300   22.7200   31.0730 C   0  0  0  0  0  0  0  0  0  0  0  0
   36.1140   22.9140   30.0540 H   0  0  0  0  0  0  0  0  0  0  0  0
   34.6440   22.9700   31.0630 H   0  0  0  0  0  0  0  0  0  0  0  0
   35.8070   21.2550   31.3190 C   0  0  0  0  0  0  0  0  0  0  0  0
   36.3670   20.3160   30.4910 C   0  0  0  0  0  0  0  0  0  0  0  0
   36.3740   18.9800   30.8430 C   0  0  0  0  0  0  0  0  0  0  0  0
   35.8150   18.5520   32.0480 C   0  0  0  0  0  0  0  0  0  0  0  0
   35.2540   19.4690   32.8860 C   0  0  0  0  0  0  0  0  0  0  0  0
   35.2470   20.8060   32.5280 C   0  0  0  0  0  0  0  0  0  0  0  0
   36.7910   20.6950   29.5630 H   0  0  0  0  0  0  0  0  0  0  0  0
   36.8460   18.3300   30.1070 H   0  0  0  0  0  0  0  0  0  0  0  0
   35.8530   17.4900   32.2670 H   0  0  0  0  0  0  0  0  0  0  0  0
   34.8130   19.1430   33.8290 H   0  0  0  0  0  0  0  0  0  0  0  0
   34.7840   21.4720   33.2460 H   0  0  0  0  0  0  0  0  0  0  0  0
  1  2  2  0  0  0  0
  1  7  1  0  0  0  0
  3  9  1  0  0  0  0
  3  4  1  0  0  0  0
  4 10  1  0  0  0  0
  5  4  2  0  0  0  0
  5 11  1  0  0  0  0
  6  5  1  0  0  0  0
  7  8  1  0  0  0  0
  7  6  2  0  0  0  0
  8  3  2  0  0  0  0
 11 15  1  0  0  0  0
 11 12  1  0  0  0  0
 12 13  1  0  0  0  0
 14 13  1  0  0  0  0
 15 14  1  0  0  0  0
 16 15  1  0  0  0  0
 17 20  1  0  0  0  0
 17  2  1  0  0  0  0
 18 17  1  0  0  0  0
 19 17  1  0  0  0  0
 20 25  1  0  0  0  0
 21 22  1  0  0  0  0
 21 20  2  0  0  0  0
 22 23  2  0  0  0  0
 23 28  1  0  0  0  0
 23 24  1  0  0  0  0
 24 29  1  0  0  0  0
 25 24  2  0  0  0  0
 25 30  1  0  0  0  0
 26 21  1  0  0  0  0
 27 22  1  0  0  0  0
M  END
>  <minimizedAffinity>
-5.80083799

$$$$

 OpenBabel03272509063D

 30 32  0  0  0  0  0  0  0  0999 V2000
   36.9380   28.1080   34.7340 C   0  0  0  0  0  3  0  0  0  0  0  0
   36.2100   28.4930   33.7440 C   0  0  0  0  0  3  0  0  0  0  0  0
   38.2830   24.9180   35.9090 C   0  0  0  0  0  0  0  0  0  0  0  0
   38.2110   24.1330   34.7360 C   0  0  0  0  0  0  0  0  0  0  0  0
   37.7000   24.7330   33.5720 C   0  0  0  0  0  0  0  0  0  0  0  0
   37.2980   26.0480   33.6290 N   0  0  0  0  0  0  0  0  0  0  0  0
   37.3970   26.7350   34.7870 C   0  0  0  0  0  0  0  0  0  0  0  0
   37.8800   26.1860   35.9110 N   0  0  0  0  0  0  0  0  0  0  0  0
   38.6860   24.3860   36.7610 H   0  0  0  0  0  0  0  0  0  0  0  0
   38.5350   23.1140   34.7330 H   0  0  0  0  0  0  0  0  0  0  0  0
   37.5970   24.0130   32.3540 N   0  0  0  0  0  0  0  0  0  0  0  0
   36.4530   23.2320   31.9340 C   0  0  0  0  0  2  0  0  0  0  0  0
   37.0450   22.1350   31.0850 C   0  0  0  0  0  2  0  0  0  0  0  0
   38.3360   22.6720   30.5660 C   0  0  0  0  0  2  0  0  0  0  0  0
   38.6200   23.9420   31.3340 C   0  0  0  0  0  3  0  0  0  0  0  0
   38.5340   24.8080   30.6460 H   0  0  0  0  0  0  0  0  0  0  0  0
   35.6160   29.8090   33.4640 C   0  0  0  0  0  0  0  0  0  0  0  0
   34.7820   29.7240   32.7430 H   0  0  0  0  0  0  0  0  0  0  0  0
   36.3660   30.5010   33.0140 H   0  0  0  0  0  0  0  0  0  0  0  0
   35.1040   30.5000   34.6770 C   0  0  0  0  0  0  0  0  0  0  0  0
   35.8150   31.3280   35.5080 C   0  0  0  0  0  0  0  0  0  0  0  0
   35.2130   31.9110   36.6060 C   0  0  0  0  0  0  0  0  0  0  0  0
   33.8700   31.6740   36.8990 C   0  0  0  0  0  0  0  0  0  0  0  0
   33.1430   30.8550   36.0870 C   0  0  0  0  0  0  0  0  0  0  0  0
   33.7510   30.2720   34.9870 C   0  0  0  0  0  0  0  0  0  0  0  0
   36.8580   31.4850   35.2410 H   0  0  0  0  0  0  0  0  0  0  0  0
   35.8770   32.5480   37.1890 H   0  0  0  0  0  0  0  0  0  0  0  0
   33.4550   32.1620   37.7750 H   0  0  0  0  0  0  0  0  0  0  0  0
   32.0940   30.6630   36.3080 H   0  0  0  0  0  0  0  0  0  0  0  0
   33.1090   29.6350   34.3920 H   0  0  0  0  0  0  0  0  0  0  0  0
  1  7  1  0  0  0  0
  2  1  2  0  0  0  0
  3  8  1  0  0  0  0
  3  9  1  0  0  0  0
  4  3  2  0  0  0  0
  5  6  2  0  0  0  0
  5  4  1  0  0  0  0
  6  7  1  0  0  0  0
  7  8  2  0  0  0  0
 10  4  1  0  0  0  0
 11  5  1  0  0  0  0
 12 11  1  0  0  0  0
 13 12  1  0  0  0  0
 14 13  1  0  0  0  0
 14 15  1  0  0  0  0
 15 11  1  0  0  0  0
 16 15  1  0  0  0  0
 17  2  1  0  0  0  0
 17 20  1  0  0  0  0
 18 17  1  0  0  0  0
 19 17  1  0  0  0  0
 20 25  2  0  0  0  0
 20 21  1  0  0  0  0
 21 22  2  0  0  0  0
 22 23  1  0  0  0  0
 22 27  1  0  0  0  0
 23 28  1  0  0  0  0
 24 29  1  0  0  0  0
 24 23  2  0  0  0  0
 25 24  1  0  0  0  0
 26 21  1  0  0  0  0
 30 25  1  0  0  0  0
M  END
>  <minimizedAffinity>
-5.30752468

$$$$

 OpenBabel03272509063D

 30 32  0  0  0  0  0  0  0  0999 V2000
   37.7720   25.7320   32.7930 C   0  0  0  0  0  3  0  0  0  0  0  0
   38.5100   25.5800   33.8370 C   0  0  0  0  0  3  0  0  0  0  0  0
   36.9130   28.8070   31.0120 C   0  0  0  0  0  0  0  0  0  0  0  0
   36.2220   29.5280   32.0130 C   0  0  0  0  0  0  0  0  0  0  0  0
   36.0760   28.9280   33.2760 C   0  0  0  0  0  0  0  0  0  0  0  0
   36.6100   27.6750   33.4770 N   0  0  0  0  0  0  0  0  0  0  0  0
   37.2570   27.0480   32.4730 C   0  0  0  0  0  0  0  0  0  0  0  0
   37.4100   27.5980   31.2590 N   0  0  0  0  0  0  0  0  0  0  0  0
   36.9820   29.3350   30.0700 H   0  0  0  0  0  0  0  0  0  0  0  0
   35.8220   30.5000   31.8170 H   0  0  0  0  0  0  0  0  0  0  0  0
   35.3970   29.5860   34.3330 N   0  0  0  0  0  0  0  0  0  0  0  0
   33.9790   29.4970   34.6060 C   0  0  0  0  0  2  0  0  0  0  0  0
   33.6350   30.8310   35.2220 C   0  0  0  0  0  2  0  0  0  0  0  0
   34.9020   31.3410   35.8230 C   0  0  0  0  0  2  0  0  0  0  0  0
   36.0140   30.4570   35.3110 C   0  0  0  0  0  3  0  0  0  0  0  0
   36.4180   29.8580   36.1530 H   0  0  0  0  0  0  0  0  0  0  0  0
   39.1390   24.3660   34.3810 C   0  0  0  0  0  0  0  0  0  0  0  0
   40.2310   24.3730   34.2100 H   0  0  0  0  0  0  0  0  0  0  0  0
   38.7380   23.4510   33.8880 H   0  0  0  0  0  0  0  0  0  0  0  0
   38.9050   24.1780   35.8380 C   0  0  0  0  0  0  0  0  0  0  0  0
   37.9790   24.8340   36.6080 C   0  0  0  0  0  0  0  0  0  0  0  0
   37.8630   24.5600   37.9570 C   0  0  0  0  0  0  0  0  0  0  0  0
   38.6820   23.6110   38.5700 C   0  0  0  0  0  0  0  0  0  0  0  0
   39.6080   22.9460   37.8230 C   0  0  0  0  0  0  0  0  0  0  0  0
   39.7220   23.2250   36.4720 C   0  0  0  0  0  0  0  0  0  0  0  0
   37.3630   25.5650   36.0890 H   0  0  0  0  0  0  0  0  0  0  0  0
   37.0940   25.1440   38.4630 H   0  0  0  0  0  0  0  0  0  0  0  0
   38.5420   23.4410   39.6330 H   0  0  0  0  0  0  0  0  0  0  0  0
   40.2530   22.2040   38.2940 H   0  0  0  0  0  0  0  0  0  0  0  0
   40.4790   22.6560   35.9470 H   0  0  0  0  0  0  0  0  0  0  0  0
  1  2  2  0  0  0  0
  2 17  1  0  0  0  0
  3  8  2  0  0  0  0
  3  4  1  0  0  0  0
  4  5  2  0  0  0  0
  5  6  1  0  0  0  0
  5 11  1  0  0  0  0
  7  1  1  0  0  0  0
  7  6  2  0  0  0  0
  8  7  1  0  0  0  0
  9  3  1  0  0  0  0
 10  4  1  0  0  0  0
 11 12  1  0  0  0  0
 11 15  1  0  0  0  0
 12 13  1  0  0  0  0
 13 14  1  0  0  0  0
 15 14  1  0  0  0  0
 15 16  1  0  0  0  0
 17 20  1  0  0  0  0
 18 17  1  0  0  0  0
 19 17  1  0  0  0  0
 20 25  2  0  0  0  0
 20 21  1  0  0  0  0
 21 22  2  0  0  0  0
 22 27  1  0  0  0  0
 22 23  1  0  0  0  0
 23 28  1  0  0  0  0
 24 29  1  0  0  0  0
 24 23  2  0  0  0  0
 25 24  1  0  0  0  0
 26 21  1  0  0  0  0
 30 25  1  0  0  0  0
M  END
>  <minimizedAffinity>
-5.29436111

$$$$

 OpenBabel03272509063D

 30 32  0  0  0  0  0  0  0  0999 V2000
   36.2520   27.9300   32.6520 C   0  0  0  0  0  3  0  0  0  0  0  0
   35.8450   28.7830   33.5260 C   0  0  0  0  0  3  0  0  0  0  0  0
   39.7320   26.8150   32.5580 C   0  0  0  0  0  0  0  0  0  0  0  0
   39.7020   25.7240   33.4560 C   0  0  0  0  0  0  0  0  0  0  0  0
   38.4760   25.4060   34.0650 C   0  0  0  0  0  0  0  0  0  0  0  0
   37.3700   26.1670   33.7610 N   0  0  0  0  0  0  0  0  0  0  0  0
   37.4760   27.1940   32.8930 C   0  0  0  0  0  0  0  0  0  0  0  0
   38.6340   27.5190   32.2980 N   0  0  0  0  0  0  0  0  0  0  0  0
   40.7100   26.9970   32.1320 H   0  0  0  0  0  0  0  0  0  0  0  0
   40.5840   25.1570   33.6660 H   0  0  0  0  0  0  0  0  0  0  0  0
   38.3620   24.3250   34.9770 N   0  0  0  0  0  0  0  0  0  0  0  0
   38.5590   24.4080   36.4080 C   0  0  0  0  0  2  0  0  0  0  0  0
   39.0810   23.0450   36.7910 C   0  0  0  0  0  2  0  0  0  0  0  0
   38.5830   22.1090   35.7410 C   0  0  0  0  0  2  0  0  0  0  0  0
   38.0320   22.9610   34.6220 C   0  0  0  0  0  3  0  0  0  0  0  0
   36.9310   22.8340   34.5790 H   0  0  0  0  0  0  0  0  0  0  0  0
   34.6590   29.6530   33.5160 C   0  0  0  0  0  0  0  0  0  0  0  0
   33.7310   29.0610   33.4050 H   0  0  0  0  0  0  0  0  0  0  0  0
   34.6930   30.3690   32.6620 H   0  0  0  0  0  0  0  0  0  0  0  0
   34.5240   30.4880   34.7400 C   0  0  0  0  0  0  0  0  0  0  0  0
   33.4060   30.6150   35.5230 C   0  0  0  0  0  0  0  0  0  0  0  0
   33.4160   31.4260   36.6410 C   0  0  0  0  0  0  0  0  0  0  0  0
   34.5620   32.1360   37.0020 C   0  0  0  0  0  0  0  0  0  0  0  0
   35.6860   32.0240   36.2390 C   0  0  0  0  0  0  0  0  0  0  0  0
   35.6700   31.2100   35.1180 C   0  0  0  0  0  0  0  0  0  0  0  0
   32.5360   30.0440   35.2040 H   0  0  0  0  0  0  0  0  0  0  0  0
   32.4710   31.4470   37.1830 H   0  0  0  0  0  0  0  0  0  0  0  0
   34.5070   32.7560   37.8910 H   0  0  0  0  0  0  0  0  0  0  0  0
   36.5850   32.5750   36.5120 H   0  0  0  0  0  0  0  0  0  0  0  0
   36.5990   31.1730   34.5640 H   0  0  0  0  0  0  0  0  0  0  0  0
  1  7  1  0  0  0  0
  1  2  2  0  0  0  0
  3  4  1  0  0  0  0
  4 10  1  0  0  0  0
  4  5  2  0  0  0  0
  5 11  1  0  0  0  0
  6  5  1  0  0  0  0
  7  6  2  0  0  0  0
  8  3  2  0  0  0  0
  8  7  1  0  0  0  0
  9  3  1  0  0  0  0
 11 12  1  0  0  0  0
 12 13  1  0  0  0  0
 14 13  1  0  0  0  0
 15 11  1  0  0  0  0
 15 14  1  0  0  0  0
 16 15  1  0  0  0  0
 17  2  1  0  0  0  0
 17 20  1  0  0  0  0
 18 17  1  0  0  0  0
 19 17  1  0  0  0  0
 20 25  2  0  0  0  0
 20 21  1  0  0  0  0
 21 22  2  0  0  0  0
 22 23  1  0  0  0  0
 22 27  1  0  0  0  0
 23 28  1  0  0  0  0
 24 29  1  0  0  0  0
 24 23  2  0  0  0  0
 25 24  1  0  0  0  0
 26 21  1  0  0  0  0
 30 25  1  0  0  0  0
M  END
>  <minimizedAffinity>
-5.28755093

$$$$

 OpenBabel03272509063D

 30 32  0  0  0  0  0  0  0  0999 V2000
   35.9270   28.9190   32.4160 C   0  0  0  0  0  3  0  0  0  0  0  0
   35.8550   29.5450   33.5380 C   0  0  0  0  0  3  0  0  0  0  0  0
   36.0650   25.3770   31.5210 C   0  0  0  0  0  0  0  0  0  0  0  0
   36.9320   24.8700   32.5160 C   0  0  0  0  0  0  0  0  0  0  0  0
   37.4400   25.7700   33.4690 C   0  0  0  0  0  0  0  0  0  0  0  0
   37.0730   27.0940   33.3880 N   0  0  0  0  0  0  0  0  0  0  0  0
   36.2410   27.5050   32.4090 C   0  0  0  0  0  0  0  0  0  0  0  0
   35.7410   26.6670   31.4880 N   0  0  0  0  0  0  0  0  0  0  0  0
   35.7180   24.6240   30.8260 H   0  0  0  0  0  0  0  0  0  0  0  0
   37.1930   23.8340   32.5440 H   0  0  0  0  0  0  0  0  0  0  0  0
   38.3150   25.3390   34.5000 N   0  0  0  0  0  0  0  0  0  0  0  0
   39.7580   25.2880   34.4110 C   0  0  0  0  0  2  0  0  0  0  0  0
   40.1450   24.1440   35.3150 C   0  0  0  0  0  2  0  0  0  0  0  0
   39.0390   24.0160   36.3080 C   0  0  0  0  0  2  0  0  0  0  0  0
   37.9030   24.8780   35.8080 C   0  0  0  0  0  3  0  0  0  0  0  0
   37.7750   25.7410   36.4940 H   0  0  0  0  0  0  0  0  0  0  0  0
   35.5680   30.9610   33.8140 C   0  0  0  0  0  0  0  0  0  0  0  0
   35.0220   31.4280   32.9730 H   0  0  0  0  0  0  0  0  0  0  0  0
   36.5090   31.5420   33.9540 H   0  0  0  0  0  0  0  0  0  0  0  0
   34.7720   31.1760   35.0510 C   0  0  0  0  0  0  0  0  0  0  0  0
   35.1180   31.9630   36.1200 C   0  0  0  0  0  0  0  0  0  0  0  0
   34.2800   32.0780   37.2120 C   0  0  0  0  0  0  0  0  0  0  0  0
   33.0620   31.3980   37.2570 C   0  0  0  0  0  0  0  0  0  0  0  0
   32.6970   30.6110   36.2060 C   0  0  0  0  0  0  0  0  0  0  0  0
   33.5410   30.4980   35.1140 C   0  0  0  0  0  0  0  0  0  0  0  0
   36.0750   32.4740   36.0410 H   0  0  0  0  0  0  0  0  0  0  0  0
   34.6610   32.7300   37.9970 H   0  0  0  0  0  0  0  0  0  0  0  0
   32.4480   31.5300   38.1420 H   0  0  0  0  0  0  0  0  0  0  0  0
   31.7480   30.0760   36.2330 H   0  0  0  0  0  0  0  0  0  0  0  0
   33.1820   29.8550   34.3200 H   0  0  0  0  0  0  0  0  0  0  0  0
  1  2  2  0  0  0  0
  2 17  1  0  0  0  0
  3  4  1  0  0  0  0
  4 10  1  0  0  0  0
  4  5  2  0  0  0  0
  5 11  1  0  0  0  0
  6  5  1  0  0  0  0
  7  1  1  0  0  0  0
  7  6  2  0  0  0  0
  8  3  2  0  0  0  0
  8  7  1  0  0  0  0
  9  3  1  0  0  0  0
 11 15  1  0  0  0  0
 12 11  1  0  0  0  0
 12 13  1  0  0  0  0
 13 14  1  0  0  0  0
 15 14  1  0  0  0  0
 15 16  1  0  0  0  0
 17 19  1  0  0  0  0
 17 20  1  0  0  0  0
 18 17  1  0  0  0  0
 20 25  2  0  0  0  0
 20 21  1  0  0  0  0
 21 22  2  0  0  0  0
 22 23  1  0  0  0  0
 22 27  1  0  0  0  0
 23 28  1  0  0  0  0
 24 29  1  0  0  0  0
 24 23  2  0  0  0  0
 25 24  1  0  0  0  0
 26 21  1  0  0  0  0
 30 25  1  0  0  0  0
M  END
>  <minimizedAffinity>
-5.21396542

$$$$

 OpenBabel03272509063D

 30 32  0  0  0  0  0  0  0  0999 V2000
   36.7590   28.2160   32.2700 C   0  0  0  0  0  3  0  0  0  0  0  0
   35.5990   28.7240   32.5000 C   0  0  0  0  0  3  0  0  0  0  0  0
   36.7190   24.6010   31.7230 C   0  0  0  0  0  0  0  0  0  0  0  0
   37.4110   24.1360   32.8650 C   0  0  0  0  0  0  0  0  0  0  0  0
   37.8680   25.0900   33.7910 C   0  0  0  0  0  0  0  0  0  0  0  0
   37.6230   26.4210   33.5440 N   0  0  0  0  0  0  0  0  0  0  0  0
   36.9550   26.7900   32.4310 C   0  0  0  0  0  0  0  0  0  0  0  0
   36.5080   25.9010   31.5310 N   0  0  0  0  0  0  0  0  0  0  0  0
   36.4000   23.8090   31.0590 H   0  0  0  0  0  0  0  0  0  0  0  0
   37.5810   23.0930   33.0200 H   0  0  0  0  0  0  0  0  0  0  0  0
   38.5690   24.7040   34.9630 N   0  0  0  0  0  0  0  0  0  0  0  0
   40.0040   24.5450   35.0700 C   0  0  0  0  0  2  0  0  0  0  0  0
   40.1800   23.4720   36.1160 C   0  0  0  0  0  2  0  0  0  0  0  0
   38.9530   23.5200   36.9620 C   0  0  0  0  0  2  0  0  0  0  0  0
   37.9620   24.4050   36.2410 C   0  0  0  0  0  3  0  0  0  0  0  0
   37.8200   25.3390   36.8240 H   0  0  0  0  0  0  0  0  0  0  0  0
   35.1470   30.1220   32.4220 C   0  0  0  0  0  0  0  0  0  0  0  0
   34.0460   30.1800   32.3370 H   0  0  0  0  0  0  0  0  0  0  0  0
   35.5700   30.6310   31.5250 H   0  0  0  0  0  0  0  0  0  0  0  0
   35.5600   30.9460   33.5890 C   0  0  0  0  0  0  0  0  0  0  0  0
   35.5850   30.5500   34.9010 C   0  0  0  0  0  0  0  0  0  0  0  0
   35.9950   31.4190   35.8930 C   0  0  0  0  0  0  0  0  0  0  0  0
   36.3950   32.7200   35.5870 C   0  0  0  0  0  0  0  0  0  0  0  0
   36.3800   33.1350   34.2880 C   0  0  0  0  0  0  0  0  0  0  0  0
   35.9670   32.2610   33.2980 C   0  0  0  0  0  0  0  0  0  0  0  0
   35.2650   29.5270   35.0940 H   0  0  0  0  0  0  0  0  0  0  0  0
   35.9720   30.9910   36.8950 H   0  0  0  0  0  0  0  0  0  0  0  0
   36.7070   33.3540   36.4100 H   0  0  0  0  0  0  0  0  0  0  0  0
   36.6900   34.1500   34.0400 H   0  0  0  0  0  0  0  0  0  0  0  0
   35.9820   32.6640   32.2930 H   0  0  0  0  0  0  0  0  0  0  0  0
  1  7  1  0  0  0  0
  1  2  2  0  0  0  0
  3  4  1  0  0  0  0
  4 10  1  0  0  0  0
  4  5  2  0  0  0  0
  5 11  1  0  0  0  0
  6  5  1  0  0  0  0
  7  6  2  0  0  0  0
  8  3  2  0  0  0  0
  8  7  1  0  0  0  0
  9  3  1  0  0  0  0
 11 12  1  0  0  0  0
 11 15  1  0  0  0  0
 12 13  1  0  0  0  0
 13 14  1  0  0  0  0
 15 16  1  0  0  0  0
 15 14  1  0  0  0  0
 17  2  1  0  0  0  0
 17 20  1  0  0  0  0
 18 17  1  0  0  0  0
 19 17  1  0  0  0  0
 20 21  1  0  0  0  0
 21 26  1  0  0  0  0
 21 22  2  0  0  0  0
 22 27  1  0  0  0  0
 23 22  1  0  0  0  0
 23 28  1  0  0  0  0
 24 23  2  0  0  0  0
 25 20  2  0  0  0  0
 25 24  1  0  0  0  0
 29 24  1  0  0  0  0
 30 25  1  0  0  0  0
M  END
>  <minimizedAffinity>
-5.17815161

$$$$

 OpenBabel03272509063D

 30 32  0  0  0  0  0  0  0  0999 V2000
   37.4350   25.2970   31.8310 C   0  0  0  0  0  3  0  0  0  0  0  0
   37.7620   26.4340   32.3380 C   0  0  0  0  0  3  0  0  0  0  0  0
   36.9930   21.8840   33.0650 C   0  0  0  0  0  0  0  0  0  0  0  0
   37.5860   21.9690   34.3450 C   0  0  0  0  0  0  0  0  0  0  0  0
   38.1190   23.2070   34.7430 C   0  0  0  0  0  0  0  0  0  0  0  0
   38.0390   24.2710   33.8740 N   0  0  0  0  0  0  0  0  0  0  0  0
   37.4580   24.1140   32.6660 C   0  0  0  0  0  0  0  0  0  0  0  0
   36.9420   22.9440   32.2610 N   0  0  0  0  0  0  0  0  0  0  0  0
   36.6070   20.9000   32.8310 H   0  0  0  0  0  0  0  0  0  0  0  0
   37.6280   21.1180   34.9910 H   0  0  0  0  0  0  0  0  0  0  0  0
   38.7290   23.3740   36.0130 N   0  0  0  0  0  0  0  0  0  0  0  0
   40.1310   23.1640   36.3070 C   0  0  0  0  0  2  0  0  0  0  0  0
   40.1450   22.7160   37.7470 C   0  0  0  0  0  2  0  0  0  0  0  0
   38.9020   23.2710   38.3590 C   0  0  0  0  0  2  0  0  0  0  0  0
   38.0470   23.7810   37.2230 C   0  0  0  0  0  3  0  0  0  0  0  0
   37.9950   24.8880   37.2780 H   0  0  0  0  0  0  0  0  0  0  0  0
   37.8310   27.7630   31.7110 C   0  0  0  0  0  0  0  0  0  0  0  0
   37.8610   27.6820   30.6080 H   0  0  0  0  0  0  0  0  0  0  0  0
   38.7520   28.3070   32.0230 H   0  0  0  0  0  0  0  0  0  0  0  0
   36.6940   28.6510   32.0730 C   0  0  0  0  0  0  0  0  0  0  0  0
   36.0510   29.5350   31.2440 C   0  0  0  0  0  0  0  0  0  0  0  0
   35.0010   30.3010   31.7100 C   0  0  0  0  0  0  0  0  0  0  0  0
   34.5660   30.1970   33.0320 C   0  0  0  0  0  0  0  0  0  0  0  0
   35.1900   29.3240   33.8730 C   0  0  0  0  0  0  0  0  0  0  0  0
   36.2430   28.5580   33.4020 C   0  0  0  0  0  0  0  0  0  0  0  0
   36.4230   29.5830   30.2230 H   0  0  0  0  0  0  0  0  0  0  0  0
   34.5710   30.9660   30.9610 H   0  0  0  0  0  0  0  0  0  0  0  0
   33.7360   30.8260   33.3360 H   0  0  0  0  0  0  0  0  0  0  0  0
   34.8580   29.2360   34.9070 H   0  0  0  0  0  0  0  0  0  0  0  0
   36.6860   27.8900   34.1290 H   0  0  0  0  0  0  0  0  0  0  0  0
  1  2  2  0  0  0  0
  1  7  1  0  0  0  0
  3  4  1  0  0  0  0
  4  5  2  0  0  0  0
  4 10  1  0  0  0  0
  5 11  1  0  0  0  0
  6  5  1  0  0  0  0
  7  6  2  0  0  0  0
  8  7  1  0  0  0  0
  8  3  2  0  0  0  0
  9  3  1  0  0  0  0
 11 12  1  0  0  0  0
 11 15  1  0  0  0  0
 12 13  1  0  0  0  0
 13 14  1  0  0  0  0
 15 16  1  0  0  0  0
 15 14  1  0  0  0  0
 17 19  1  0  0  0  0
 17 20  1  0  0  0  0
 17  2  1  0  0  0  0
 18 17  1  0  0  0  0
 20 25  1  0  0  0  0
 21 22  1  0  0  0  0
 21 20  2  0  0  0  0
 22 23  2  0  0  0  0
 23 28  1  0  0  0  0
 23 24  1  0  0  0  0
 24 29  1  0  0  0  0
 25 24  2  0  0  0  0
 25 30  1  0  0  0  0
 26 21  1  0  0  0  0
 27 22  1  0  0  0  0
M  END
>  <minimizedAffinity>
-5.14578676

$$$$

 OpenBabel03272509063D

 30 32  0  0  0  0  0  0  0  0999 V2000
   38.1110   26.4990   35.8060 C   0  0  0  0  0  3  0  0  0  0  0  0
   37.8090   25.2670   36.0270 C   0  0  0  0  0  3  0  0  0  0  0  0
   37.6730   27.4100   32.2930 C   0  0  0  0  0  0  0  0  0  0  0  0
   36.6840   28.4150   32.3840 C   0  0  0  0  0  0  0  0  0  0  0  0
   36.2000   28.7490   33.6610 C   0  0  0  0  0  0  0  0  0  0  0  0
   36.7080   28.0860   34.7540 N   0  0  0  0  0  0  0  0  0  0  0  0
   37.6520   27.1360   34.5890 C   0  0  0  0  0  0  0  0  0  0  0  0
   38.1320   26.7980   33.3820 N   0  0  0  0  0  0  0  0  0  0  0  0
   37.9940   27.2100   31.2790 H   0  0  0  0  0  0  0  0  0  0  0  0
   36.3140   28.9070   31.5100 H   0  0  0  0  0  0  0  0  0  0  0  0
   35.2070   29.7480   33.8370 N   0  0  0  0  0  0  0  0  0  0  0  0
   33.7780   29.5240   33.8260 C   0  0  0  0  0  2  0  0  0  0  0  0
   33.2040   30.8130   33.2930 C   0  0  0  0  0  2  0  0  0  0  0  0
   34.2100   31.8690   33.6080 C   0  0  0  0  0  2  0  0  0  0  0  0
   35.4650   31.1550   34.0540 C   0  0  0  0  0  3  0  0  0  0  0  0
   35.6290   31.3510   35.1340 H   0  0  0  0  0  0  0  0  0  0  0  0
   38.1550   24.3980   37.1620 C   0  0  0  0  0  0  0  0  0  0  0  0
   37.2880   23.7870   37.4740 H   0  0  0  0  0  0  0  0  0  0  0  0
   38.4650   24.9990   38.0480 H   0  0  0  0  0  0  0  0  0  0  0  0
   39.2870   23.4760   36.8810 C   0  0  0  0  0  0  0  0  0  0  0  0
   40.0100   22.7640   37.8040 C   0  0  0  0  0  0  0  0  0  0  0  0
   41.0410   21.9360   37.4060 C   0  0  0  0  0  0  0  0  0  0  0  0
   41.3750   21.8020   36.0580 C   0  0  0  0  0  0  0  0  0  0  0  0
   40.6690   22.5000   35.1230 C   0  0  0  0  0  0  0  0  0  0  0  0
   39.6370   23.3290   35.5270 C   0  0  0  0  0  0  0  0  0  0  0  0
   39.7150   22.8990   38.8430 H   0  0  0  0  0  0  0  0  0  0  0  0
   41.5400   21.4230   38.2280 H   0  0  0  0  0  0  0  0  0  0  0  0
   42.1940   21.1350   35.8090 H   0  0  0  0  0  0  0  0  0  0  0  0
   40.9230   22.4020   34.0670 H   0  0  0  0  0  0  0  0  0  0  0  0
   39.1250   23.8490   34.7270 H   0  0  0  0  0  0  0  0  0  0  0  0
  1  2  2  0  0  0  0
  2 17  1  0  0  0  0
  3  4  2  0  0  0  0
  3  8  1  0  0  0  0
  4  5  1  0  0  0  0
  5 11  1  0  0  0  0
  5  6  2  0  0  0  0
  7  6  1  0  0  0  0
  7  1  1  0  0  0  0
  8  7  2  0  0  0  0
  9  3  1  0  0  0  0
 10  4  1  0  0  0  0
 11 15  1  0  0  0  0
 12 11  1  0  0  0  0
 13 14  1  0  0  0  0
 13 12  1  0  0  0  0
 14 15  1  0  0  0  0
 15 16  1  0  0  0  0
 17 18  1  0  0  0  0
 17 19  1  0  0  0  0
 20 17  1  0  0  0  0
 20 21  1  0  0  0  0
 21 26  1  0  0  0  0
 22 21  2  0  0  0  0
 22 27  1  0  0  0  0
 23 22  1  0  0  0  0
 24 25  1  0  0  0  0
 24 23  2  0  0  0  0
 25 20  2  0  0  0  0
 28 23  1  0  0  0  0
 29 24  1  0  0  0  0
 30 25  1  0  0  0  0
M  END
>  <minimizedAffinity>
-5.10662508

$$$$

 OpenBabel03272509063D

 30 32  0  0  0  0  0  0  0  0999 V2000
   36.7260   27.9900   33.7600 C   0  0  0  0  0  3  0  0  0  0  0  0
   35.7120   28.7350   33.4910 C   0  0  0  0  0  3  0  0  0  0  0  0
   38.5270   26.6750   30.8630 C   0  0  0  0  0  0  0  0  0  0  0  0
   38.1560   25.3110   30.8960 C   0  0  0  0  0  0  0  0  0  0  0  0
   37.2910   24.8890   31.9210 C   0  0  0  0  0  0  0  0  0  0  0  0
   36.8490   25.8160   32.8360 N   0  0  0  0  0  0  0  0  0  0  0  0
   37.2470   27.1020   32.7410 C   0  0  0  0  0  0  0  0  0  0  0  0
   38.0710   27.5320   31.7730 N   0  0  0  0  0  0  0  0  0  0  0  0
   39.1940   26.9220   30.0470 H   0  0  0  0  0  0  0  0  0  0  0  0
   38.5220   24.6220   30.1660 H   0  0  0  0  0  0  0  0  0  0  0  0
   36.8710   23.5370   32.0220 N   0  0  0  0  0  0  0  0  0  0  0  0
   37.5550   22.4980   32.7610 C   0  0  0  0  0  2  0  0  0  0  0  0
   37.2400   21.2340   32.0000 C   0  0  0  0  0  2  0  0  0  0  0  0
   35.9570   21.4970   31.2860 C   0  0  0  0  0  2  0  0  0  0  0  0
   35.6900   22.9790   31.4010 C   0  0  0  0  0  3  0  0  0  0  0  0
   34.8050   23.1380   32.0520 H   0  0  0  0  0  0  0  0  0  0  0  0
   34.9950   29.6990   34.3410 C   0  0  0  0  0  0  0  0  0  0  0  0
   34.9540   29.3510   35.3900 H   0  0  0  0  0  0  0  0  0  0  0  0
   33.9430   29.8310   33.9990 H   0  0  0  0  0  0  0  0  0  0  0  0
   35.5980   31.0590   34.3330 C   0  0  0  0  0  0  0  0  0  0  0  0
   35.8100   31.8530   33.2350 C   0  0  0  0  0  0  0  0  0  0  0  0
   36.3780   33.1040   33.3700 C   0  0  0  0  0  0  0  0  0  0  0  0
   36.7510   33.5930   34.6220 C   0  0  0  0  0  0  0  0  0  0  0  0
   36.5490   32.8220   35.7270 C   0  0  0  0  0  0  0  0  0  0  0  0
   35.9790   31.5670   35.5880 C   0  0  0  0  0  0  0  0  0  0  0  0
   35.5040   31.4320   32.2800 H   0  0  0  0  0  0  0  0  0  0  0  0
   36.4960   33.6410   32.4280 H   0  0  0  0  0  0  0  0  0  0  0  0
   37.1930   34.5840   34.6610 H   0  0  0  0  0  0  0  0  0  0  0  0
   36.8380   33.1950   36.7100 H   0  0  0  0  0  0  0  0  0  0  0  0
   35.8510   31.0160   36.5110 H   0  0  0  0  0  0  0  0  0  0  0  0
  2  1  2  0  0  0  0
  2 17  1  0  0  0  0
  3  4  2  0  0  0  0
  3  8  1  0  0  0  0
  4  5  1  0  0  0  0
  5 11  1  0  0  0  0
  5  6  2  0  0  0  0
  7  6  1  0  0  0  0
  7  1  1  0  0  0  0
  8  7  2  0  0  0  0
  9  3  1  0  0  0  0
 10  4  1  0  0  0  0
 11 12  1  0  0  0  0
 13 12  1  0  0  0  0
 14 15  1  0  0  0  0
 14 13  1  0  0  0  0
 15 11  1  0  0  0  0
 15 16  1  0  0  0  0
 17 18  1  0  0  0  0
 19 17  1  0  0  0  0
 20 17  1  0  0  0  0
 20 25  1  0  0  0  0
 21 22  1  0  0  0  0
 21 20  2  0  0  0  0
 22 23  2  0  0  0  0
 23 28  1  0  0  0  0
 23 24  1  0  0  0  0
 24 29  1  0  0  0  0
 25 24  2  0  0  0  0
 25 30  1  0  0  0  0
 26 21  1  0  0  0  0
 27 22  1  0  0  0  0
M  END
>  <minimizedAffinity>
-5.06886053

$$$$
