
 OpenBabel03272510253D

 29 32  0  0  1  0  0  0  0  0999 V2000
   35.9200   28.6300   32.6610 C   0  0  0  0  0  0  0  0  0  0  0  0
   36.0480   29.0250   33.9770 C   0  0  0  0  0  0  0  0  0  0  0  0
   36.6620   28.2030   34.9200 C   0  0  0  0  0  0  0  0  0  0  0  0
   37.1300   26.9690   34.4450 C   0  0  0  0  0  0  0  0  0  0  0  0
   37.7620   25.9980   35.1700 N   0  0  0  0  0  0  0  0  0  0  0  0
   38.0280   25.0010   34.3130 C   0  0  0  0  0  0  0  0  0  0  0  0
   37.5910   25.3150   33.1040 N   0  0  0  0  0  0  0  0  0  0  0  0
   37.0240   26.5400   33.1470 C   0  0  0  0  0  0  0  0  0  0  0  0
   36.4040   27.3910   32.2370 C   0  0  0  0  0  0  0  0  0  0  0  0
   35.4500   29.2420   31.9030 H   0  0  0  0  0  0  0  0  0  0  0  0
   36.7580   28.5100   35.9330 H   0  0  0  0  0  0  0  0  0  0  0  0
   37.9810   26.0520   36.1960 H   0  0  0  0  0  0  0  0  0  0  0  0
   36.3200   27.0530   31.2120 H   0  0  0  0  0  0  0  0  0  0  0  0
   34.2260   32.3050   34.0460 C   0  0  0  0  0  0  0  0  0  0  0  0
   34.6530   31.0710   33.5730 C   0  0  0  0  0  0  0  0  0  0  0  0
   35.5190   30.3270   34.3390 C   0  0  0  0  0  0  0  0  0  0  0  0
   35.8980   30.8670   35.5250 N   0  0  0  0  0  0  0  0  0  0  0  0
   35.4820   32.0660   35.9820 C   0  0  0  0  0  0  0  0  0  0  0  0
   34.6510   32.7680   35.2350 N   0  0  0  0  0  0  0  0  0  0  0  0
   33.5480   32.8400   33.3980 H   0  0  0  0  0  0  0  0  0  0  0  0
   34.3420   30.6530   32.6250 H   0  0  0  0  0  0  0  0  0  0  0  0
   35.8230   32.4400   36.9390 H   0  0  0  0  0  0  0  0  0  0  0  0
   38.6800   23.8420   34.7510 O   0  0  0  0  0  0  0  0  0  0  0  0
   37.5640   24.7090   37.1440 H   0  0  0  0  0  0  0  0  0  0  0  0
   38.0920   23.8180   37.0670 N   0  0  0  0  0  0  0  0  0  0  0  0
   38.7230   23.3860   38.2790 C   0  0  0  0  0  2  0  0  0  0  0  0
   40.0220   22.6890   37.9070 C   0  0  0  0  0  2  0  0  0  0  0  0
   39.8390   22.4820   36.3980 C   0  0  0  0  0  2  0  0  0  0  0  0
   39.1270   23.8030   36.0810 C   0  0  1  0  0  3  0  0  0  0  0  0
  1  2  1  0  0  0  0
  2 16  1  0  0  0  0
  2  3  2  0  0  0  0
  3 11  1  0  0  0  0
  4  3  1  0  0  0  0
  4  5  1  0  0  0  0
  5 12  1  0  0  0  0
  6 23  1  0  0  0  0
  6  5  1  0  0  0  0
  7  8  1  0  0  0  0
  7  6  2  0  0  0  0
  8  4  2  0  0  0  0
  9  1  2  0  0  0  0
  9  8  1  0  0  0  0
 10  1  1  0  0  0  0
 13  9  1  0  0  0  0
 14 19  1  0  0  0  0
 15 14  2  0  0  0  0
 15 16  1  0  0  0  0
 16 17  2  0  0  0  0
 17 18  1  0  0  0  0
 18 22  1  0  0  0  0
 19 18  2  0  0  0  0
 20 14  1  0  0  0  0
 21 15  1  0  0  0  0
 25 24  1  0  0  0  0
 25 26  1  0  0  0  0
 27 26  1  0  0  0  0
 28 27  1  0  0  0  0
 29 23  1  6  0  0  0
 29 28  1  0  0  0  0
 29 25  1  0  0  0  0
M  END
>  <minimizedAffinity>
-5.29526901

$$$$

 OpenBabel03272510253D

 29 32  0  0  1  0  0  0  0  0999 V2000
   37.5950   27.8510   35.0370 C   0  0  0  0  0  0  0  0  0  0  0  0
   37.2160   27.3150   33.8230 C   0  0  0  0  0  0  0  0  0  0  0  0
   37.3600   25.9550   33.5600 C   0  0  0  0  0  0  0  0  0  0  0  0
   37.9080   25.1840   34.5960 C   0  0  0  0  0  0  0  0  0  0  0  0
   38.1460   23.8380   34.5790 N   0  0  0  0  0  0  0  0  0  0  0  0
   38.6700   23.5330   35.7750 C   0  0  0  0  0  0  0  0  0  0  0  0
   38.7630   24.6240   36.5200 N   0  0  0  0  0  0  0  0  0  0  0  0
   38.2950   25.6770   35.8150 C   0  0  0  0  0  0  0  0  0  0  0  0
   38.1340   27.0410   36.0380 C   0  0  0  0  0  0  0  0  0  0  0  0
   37.4970   28.9010   35.2760 H   0  0  0  0  0  0  0  0  0  0  0  0
   37.0680   25.5450   32.6230 H   0  0  0  0  0  0  0  0  0  0  0  0
   37.9460   23.1970   33.7710 H   0  0  0  0  0  0  0  0  0  0  0  0
   38.4410   27.4310   37.0010 H   0  0  0  0  0  0  0  0  0  0  0  0
   35.2730   29.9850   32.0390 C   0  0  0  0  0  0  0  0  0  0  0  0
   35.7110   29.1820   33.0850 C   0  0  0  0  0  0  0  0  0  0  0  0
   36.6640   28.2230   32.8350 C   0  0  0  0  0  0  0  0  0  0  0  0
   37.1130   28.1320   31.5580 N   0  0  0  0  0  0  0  0  0  0  0  0
   36.6860   28.9120   30.5440 C   0  0  0  0  0  0  0  0  0  0  0  0
   35.7720   29.8280   30.7990 N   0  0  0  0  0  0  0  0  0  0  0  0
   34.5240   30.7180   32.3000 H   0  0  0  0  0  0  0  0  0  0  0  0
   35.3440   29.2670   34.0990 H   0  0  0  0  0  0  0  0  0  0  0  0
   37.0860   28.7880   29.5460 H   0  0  0  0  0  0  0  0  0  0  0  0
   39.0290   22.2150   36.0790 O   0  0  0  0  0  0  0  0  0  0  0  0
   41.0410   22.9210   34.2960 H   0  0  0  0  0  0  0  0  0  0  0  0
   41.2110   22.8230   35.3160 N   0  0  0  0  0  0  0  0  0  0  0  0
   42.5550   22.4720   35.6720 C   0  0  0  0  0  2  0  0  0  0  0  0
   42.4950   21.5860   36.9060 C   0  0  0  0  0  2  0  0  0  0  0  0
   41.0480   21.7960   37.3670 C   0  0  0  0  0  2  0  0  0  0  0  0
   40.3860   21.8660   35.9840 C   0  0  1  0  0  3  0  0  0  0  0  0
  1 10  1  0  0  0  0
  1  9  1  0  0  0  0
  2  1  2  0  0  0  0
  3  2  1  0  0  0  0
  3  4  2  0  0  0  0
  4  8  1  0  0  0  0
  5  4  1  0  0  0  0
  5  6  1  0  0  0  0
  6 23  1  0  0  0  0
  6  7  2  0  0  0  0
  8  9  2  0  0  0  0
  8  7  1  0  0  0  0
  9 13  1  0  0  0  0
 11  3  1  0  0  0  0
 12  5  1  0  0  0  0
 14 20  1  0  0  0  0
 14 15  1  0  0  0  0
 15 21  1  0  0  0  0
 16 15  2  0  0  0  0
 16  2  1  0  0  0  0
 17 16  1  0  0  0  0
 18 19  1  0  0  0  0
 18 17  2  0  0  0  0
 19 14  2  0  0  0  0
 22 18  1  0  0  0  0
 24 25  1  0  0  0  0
 25 26  1  0  0  0  0
 25 29  1  0  0  0  0
 26 27  1  0  0  0  0
 27 28  1  0  0  0  0
 29 23  1  1  0  0  0
 29 28  1  0  0  0  0
M  END
>  <minimizedAffinity>
-5.20025921

$$$$

 OpenBabel03272510253D

 29 32  0  0  1  0  0  0  0  0999 V2000
   38.3680   24.8540   33.7410 C   0  0  0  0  0  0  0  0  0  0  0  0
   38.0580   25.3100   35.0060 C   0  0  0  0  0  0  0  0  0  0  0  0
   37.3680   26.5050   35.1930 C   0  0  0  0  0  0  0  0  0  0  0  0
   37.0160   27.1990   34.0260 C   0  0  0  0  0  0  0  0  0  0  0  0
   36.3410   28.3840   33.9480 N   0  0  0  0  0  0  0  0  0  0  0  0
   36.2280   28.6690   32.6430 C   0  0  0  0  0  0  0  0  0  0  0  0
   36.7990   27.7180   31.9210 N   0  0  0  0  0  0  0  0  0  0  0  0
   37.3030   26.7800   32.7520 C   0  0  0  0  0  0  0  0  0  0  0  0
   37.9950   25.5810   32.6100 C   0  0  0  0  0  0  0  0  0  0  0  0
   38.9020   23.9310   33.5590 H   0  0  0  0  0  0  0  0  0  0  0  0
   37.1320   26.8540   36.1690 H   0  0  0  0  0  0  0  0  0  0  0  0
   35.9930   28.9390   34.7700 H   0  0  0  0  0  0  0  0  0  0  0  0
   38.2210   25.2500   31.6040 H   0  0  0  0  0  0  0  0  0  0  0  0
   39.7870   22.8540   37.2570 C   0  0  0  0  0  0  0  0  0  0  0  0
   39.4880   23.5610   36.1000 C   0  0  0  0  0  0  0  0  0  0  0  0
   38.4810   24.4970   36.1320 C   0  0  0  0  0  0  0  0  0  0  0  0
   37.8430   24.6610   37.3180 N   0  0  0  0  0  0  0  0  0  0  0  0
   38.1350   23.9720   38.4400 C   0  0  0  0  0  0  0  0  0  0  0  0
   39.1040   23.0780   38.3940 N   0  0  0  0  0  0  0  0  0  0  0  0
   40.5870   22.1340   37.1660 H   0  0  0  0  0  0  0  0  0  0  0  0
   40.0060   23.4200   35.1600 H   0  0  0  0  0  0  0  0  0  0  0  0
   37.5860   24.1510   39.3560 H   0  0  0  0  0  0  0  0  0  0  0  0
   35.5770   29.8350   32.2230 O   0  0  0  0  0  0  0  0  0  0  0  0
   35.6710   30.3130   29.4860 H   0  0  0  0  0  0  0  0  0  0  0  0
   35.6990   31.0800   30.1860 N   0  0  0  0  0  0  0  0  0  0  0  0
   36.3730   32.2680   29.7510 C   0  0  0  0  0  2  0  0  0  0  0  0
   37.0640   32.8820   30.9570 C   0  0  0  0  0  2  0  0  0  0  0  0
   36.4030   32.1190   32.1120 C   0  0  0  0  0  2  0  0  0  0  0  0
   36.3030   30.7450   31.4370 C   0  0  1  0  0  3  0  0  0  0  0  0
  1  2  1  0  0  0  0
  2  3  2  0  0  0  0
  2 16  1  0  0  0  0
  3 11  1  0  0  0  0
  4  3  1  0  0  0  0
  5  4  1  0  0  0  0
  5 12  1  0  0  0  0
  6  5  1  0  0  0  0
  7  6  2  0  0  0  0
  7  8  1  0  0  0  0
  8  4  2  0  0  0  0
  9  8  1  0  0  0  0
  9  1  2  0  0  0  0
 10  1  1  0  0  0  0
 13  9  1  0  0  0  0
 14 19  1  0  0  0  0
 15 16  1  0  0  0  0
 15 14  2  0  0  0  0
 16 17  2  0  0  0  0
 17 18  1  0  0  0  0
 18 22  1  0  0  0  0
 19 18  2  0  0  0  0
 20 14  1  0  0  0  0
 21 15  1  0  0  0  0
 23  6  1  0  0  0  0
 24 25  1  0  0  0  0
 25 29  1  0  0  0  0
 26 25  1  0  0  0  0
 26 27  1  0  0  0  0
 27 28  1  0  0  0  0
 29 28  1  0  0  0  0
 29 23  1  1  0  0  0
M  END
>  <minimizedAffinity>
-5.16519022

$$$$

 OpenBabel03272510253D

 29 32  0  0  1  0  0  0  0  0999 V2000
   35.5390   30.3170   32.8240 C   0  0  0  0  0  0  0  0  0  0  0  0
   35.5860   29.8290   34.1140 C   0  0  0  0  0  0  0  0  0  0  0  0
   36.1650   28.5940   34.3970 C   0  0  0  0  0  0  0  0  0  0  0  0
   36.6880   27.8960   33.2990 C   0  0  0  0  0  0  0  0  0  0  0  0
   37.3020   26.6750   33.3200 N   0  0  0  0  0  0  0  0  0  0  0  0
   37.6380   26.4000   32.0510 C   0  0  0  0  0  0  0  0  0  0  0  0
   37.2610   27.3910   31.2580 N   0  0  0  0  0  0  0  0  0  0  0  0
   36.6630   28.3460   32.0030 C   0  0  0  0  0  0  0  0  0  0  0  0
   36.0750   29.5840   31.7640 C   0  0  0  0  0  0  0  0  0  0  0  0
   35.0980   31.2710   32.5680 H   0  0  0  0  0  0  0  0  0  0  0  0
   36.1980   28.2210   35.3920 H   0  0  0  0  0  0  0  0  0  0  0  0
   37.4630   26.0920   34.1790 H   0  0  0  0  0  0  0  0  0  0  0  0
   36.0550   29.9390   30.7410 H   0  0  0  0  0  0  0  0  0  0  0  0
   35.0150   32.2700   36.9070 C   0  0  0  0  0  0  0  0  0  0  0  0
   35.7000   31.5470   35.9400 C   0  0  0  0  0  0  0  0  0  0  0  0
   35.0070   30.6510   35.1610 C   0  0  0  0  0  0  0  0  0  0  0  0
   33.6760   30.5400   35.4020 N   0  0  0  0  0  0  0  0  0  0  0  0
   33.0130   31.2430   36.3430 C   0  0  0  0  0  0  0  0  0  0  0  0
   33.6920   32.0990   37.0820 N   0  0  0  0  0  0  0  0  0  0  0  0
   35.6160   32.9560   37.4860 H   0  0  0  0  0  0  0  0  0  0  0  0
   36.7630   31.6470   35.7580 H   0  0  0  0  0  0  0  0  0  0  0  0
   31.9480   31.1070   36.4850 H   0  0  0  0  0  0  0  0  0  0  0  0
   38.2920   25.2050   31.7320 O   0  0  0  0  0  0  0  0  0  0  0  0
   35.6930   24.6440   32.5420 H   0  0  0  0  0  0  0  0  0  0  0  0
   36.1570   24.1300   31.7680 N   0  0  0  0  0  0  0  0  0  0  0  0
   35.6800   22.7950   31.5600 C   0  0  0  0  0  2  0  0  0  0  0  0
   36.8540   21.9430   31.1050 C   0  0  0  0  0  2  0  0  0  0  0  0
   37.8930   23.0160   30.7530 C   0  0  0  0  0  2  0  0  0  0  0  0
   37.5760   24.0060   31.8820 C   0  0  1  0  0  3  0  0  0  0  0  0
  1  2  1  0  0  0  0
  2  3  2  0  0  0  0
  2 16  1  0  0  0  0
  3 11  1  0  0  0  0
  4  5  1  0  0  0  0
  4  3  1  0  0  0  0
  5 12  1  0  0  0  0
  6  5  1  0  0  0  0
  7  8  1  0  0  0  0
  7  6  2  0  0  0  0
  8  4  2  0  0  0  0
  9  8  1  0  0  0  0
  9  1  2  0  0  0  0
 10  1  1  0  0  0  0
 13  9  1  0  0  0  0
 14 19  1  0  0  0  0
 14 20  1  0  0  0  0
 15 14  2  0  0  0  0
 16 17  2  0  0  0  0
 16 15  1  0  0  0  0
 17 18  1  0  0  0  0
 18 22  1  0  0  0  0
 18 19  2  0  0  0  0
 21 15  1  0  0  0  0
 23  6  1  0  0  0  0
 25 29  1  0  0  0  0
 25 24  1  0  0  0  0
 26 25  1  0  0  0  0
 27 26  1  0  0  0  0
 28 27  1  0  0  0  0
 28 29  1  0  0  0  0
 29 23  1  6  0  0  0
M  END
>  <minimizedAffinity>
-5.1493783

$$$$

 OpenBabel03272510253D

 29 32  0  0  1  0  0  0  0  0999 V2000
   37.4460   23.5790   32.5760 C   0  0  0  0  0  0  0  0  0  0  0  0
   36.4210   23.2420   31.7160 C   0  0  0  0  0  0  0  0  0  0  0  0
   35.7810   24.2080   30.9430 C   0  0  0  0  0  0  0  0  0  0  0  0
   36.2450   25.5230   31.0970 C   0  0  0  0  0  0  0  0  0  0  0  0
   35.7840   26.6360   30.4530 N   0  0  0  0  0  0  0  0  0  0  0  0
   36.5150   27.6640   30.9070 C   0  0  0  0  0  0  0  0  0  0  0  0
   37.3990   27.2350   31.7930 N   0  0  0  0  0  0  0  0  0  0  0  0
   37.2610   25.8990   31.9380 C   0  0  0  0  0  0  0  0  0  0  0  0
   37.8720   24.9030   32.6940 C   0  0  0  0  0  0  0  0  0  0  0  0
   37.9640   22.8560   33.1910 H   0  0  0  0  0  0  0  0  0  0  0  0
   34.9910   23.9440   30.2820 H   0  0  0  0  0  0  0  0  0  0  0  0
   35.0060   26.6500   29.7470 H   0  0  0  0  0  0  0  0  0  0  0  0
   38.6740   25.2000   33.3580 H   0  0  0  0  0  0  0  0  0  0  0  0
   34.7510   19.9160   32.2030 C   0  0  0  0  0  0  0  0  0  0  0  0
   35.0090   21.2710   32.3650 C   0  0  0  0  0  0  0  0  0  0  0  0
   36.0350   21.8440   31.6520 C   0  0  0  0  0  0  0  0  0  0  0  0
   36.7320   21.0240   30.8260 N   0  0  0  0  0  0  0  0  0  0  0  0
   36.4800   19.7080   30.6710 C   0  0  0  0  0  0  0  0  0  0  0  0
   35.4910   19.1720   31.3620 N   0  0  0  0  0  0  0  0  0  0  0  0
   33.9330   19.5270   32.7920 H   0  0  0  0  0  0  0  0  0  0  0  0
   34.4440   21.9140   33.0280 H   0  0  0  0  0  0  0  0  0  0  0  0
   37.0750   19.1080   29.9940 H   0  0  0  0  0  0  0  0  0  0  0  0
   36.2860   28.9630   30.4360 O   0  0  0  0  0  0  0  0  0  0  0  0
   34.2350   28.4800   32.2490 H   0  0  0  0  0  0  0  0  0  0  0  0
   34.9500   29.2170   32.4020 N   0  0  0  0  0  0  0  0  0  0  0  0
   34.5150   30.3190   33.2090 C   0  0  0  0  0  2  0  0  0  0  0  0
   35.1970   31.5750   32.6910 C   0  0  0  0  0  2  0  0  0  0  0  0
   36.2860   30.9840   31.7860 C   0  0  0  0  0  2  0  0  0  0  0  0
   35.4800   29.8100   31.2150 C   0  0  1  0  0  3  0  0  0  0  0  0
  1  9  1  0  0  0  0
  1 10  1  0  0  0  0
  2  1  2  0  0  0  0
  3  4  2  0  0  0  0
  3  2  1  0  0  0  0
  4  8  1  0  0  0  0
  5  6  1  0  0  0  0
  5  4  1  0  0  0  0
  6  7  2  0  0  0  0
  7  8  1  0  0  0  0
  8  9  2  0  0  0  0
  9 13  1  0  0  0  0
 11  3  1  0  0  0  0
 12  5  1  0  0  0  0
 14 15  1  0  0  0  0
 14 20  1  0  0  0  0
 15 21  1  0  0  0  0
 16  2  1  0  0  0  0
 16 15  2  0  0  0  0
 17 16  1  0  0  0  0
 18 17  2  0  0  0  0
 18 19  1  0  0  0  0
 19 14  2  0  0  0  0
 22 18  1  0  0  0  0
 23  6  1  0  0  0  0
 24 25  1  0  0  0  0
 25 26  1  0  0  0  0
 27 26  1  0  0  0  0
 28 27  1  0  0  0  0
 29 23  1  1  0  0  0
 29 28  1  0  0  0  0
 29 25  1  0  0  0  0
M  END
>  <minimizedAffinity>
-5.10261536

$$$$

 OpenBabel03272510253D

 29 32  0  0  1  0  0  0  0  0999 V2000
   36.1080   28.7030   34.3340 C   0  0  0  0  0  0  0  0  0  0  0  0
   35.5970   29.9490   34.0360 C   0  0  0  0  0  0  0  0  0  0  0  0
   35.6530   30.4600   32.7410 C   0  0  0  0  0  0  0  0  0  0  0  0
   36.2530   29.6330   31.7800 C   0  0  0  0  0  0  0  0  0  0  0  0
   36.4250   29.9080   30.4530 N   0  0  0  0  0  0  0  0  0  0  0  0
   37.0390   28.8400   29.9230 C   0  0  0  0  0  0  0  0  0  0  0  0
   37.2500   27.9290   30.8590 N   0  0  0  0  0  0  0  0  0  0  0  0
   36.7710   28.3890   32.0350 C   0  0  0  0  0  0  0  0  0  0  0  0
   36.6960   27.9160   33.3420 C   0  0  0  0  0  0  0  0  0  0  0  0
   36.0820   28.2750   35.3270 H   0  0  0  0  0  0  0  0  0  0  0  0
   35.2590   31.4220   32.5150 H   0  0  0  0  0  0  0  0  0  0  0  0
   36.1230   30.7930   29.9730 H   0  0  0  0  0  0  0  0  0  0  0  0
   37.1040   26.9340   33.5430 H   0  0  0  0  0  0  0  0  0  0  0  0
   34.9720   32.2590   36.9270 C   0  0  0  0  0  0  0  0  0  0  0  0
   35.6700   31.6050   35.9200 C   0  0  0  0  0  0  0  0  0  0  0  0
   35.0020   30.7060   35.1220 C   0  0  0  0  0  0  0  0  0  0  0  0
   33.6840   30.5230   35.3850 N   0  0  0  0  0  0  0  0  0  0  0  0
   33.0080   31.1610   36.3630 C   0  0  0  0  0  0  0  0  0  0  0  0
   33.6620   32.0210   37.1200 N   0  0  0  0  0  0  0  0  0  0  0  0
   35.5530   32.9520   37.5180 H   0  0  0  0  0  0  0  0  0  0  0  0
   36.7230   31.7600   35.7220 H   0  0  0  0  0  0  0  0  0  0  0  0
   31.9540   30.9700   36.5200 H   0  0  0  0  0  0  0  0  0  0  0  0
   37.3600   28.8080   28.5610 O   0  0  0  0  0  0  0  0  0  0  0  0
   39.8380   28.2110   27.4520 H   0  0  0  0  0  0  0  0  0  0  0  0
   39.2610   29.0100   27.1250 N   0  0  0  0  0  0  0  0  0  0  0  0
   40.0030   30.0960   26.5560 C   0  0  0  0  0  2  0  0  0  0  0  0
   39.2820   31.3890   26.9050 C   0  0  0  0  0  2  0  0  0  0  0  0
   37.9260   30.8630   27.3920 C   0  0  0  0  0  2  0  0  0  0  0  0
   38.4270   29.6080   28.1200 C   0  0  1  0  0  3  0  0  0  0  0  0
  1 10  1  0  0  0  0
  2  1  1  0  0  0  0
  2 16  1  0  0  0  0
  3  2  2  0  0  0  0
  4  8  2  0  0  0  0
  4  3  1  0  0  0  0
  5  4  1  0  0  0  0
  6  5  1  0  0  0  0
  6  7  2  0  0  0  0
  7  8  1  0  0  0  0
  8  9  1  0  0  0  0
  9 13  1  0  0  0  0
  9  1  2  0  0  0  0
 11  3  1  0  0  0  0
 12  5  1  0  0  0  0
 14 19  1  0  0  0  0
 14 20  1  0  0  0  0
 15 14  2  0  0  0  0
 16 17  2  0  0  0  0
 16 15  1  0  0  0  0
 17 18  1  0  0  0  0
 18 22  1  0  0  0  0
 18 19  2  0  0  0  0
 21 15  1  0  0  0  0
 23  6  1  0  0  0  0
 25 24  1  0  0  0  0
 25 29  1  0  0  0  0
 26 27  1  0  0  0  0
 26 25  1  0  0  0  0
 27 28  1  0  0  0  0
 28 29  1  0  0  0  0
 29 23  1  6  0  0  0
M  END
>  <minimizedAffinity>
-5.08018589

$$$$

 OpenBabel03272510253D

 29 32  0  0  1  0  0  0  0  0999 V2000
   35.7100   26.8290   31.2430 C   0  0  0  0  0  0  0  0  0  0  0  0
   36.1660   27.8790   32.0130 C   0  0  0  0  0  0  0  0  0  0  0  0
   37.0550   27.6690   33.0650 C   0  0  0  0  0  0  0  0  0  0  0  0
   37.4460   26.3390   33.2810 C   0  0  0  0  0  0  0  0  0  0  0  0
   38.3020   25.8820   34.2420 N   0  0  0  0  0  0  0  0  0  0  0  0
   38.3820   24.5540   34.0760 C   0  0  0  0  0  0  0  0  0  0  0  0
   37.6190   24.1780   33.0610 N   0  0  0  0  0  0  0  0  0  0  0  0
   37.0170   25.2690   32.5380 C   0  0  0  0  0  0  0  0  0  0  0  0
   36.1290   25.5220   31.4970 C   0  0  0  0  0  0  0  0  0  0  0  0
   35.0200   26.9560   30.4190 H   0  0  0  0  0  0  0  0  0  0  0  0
   37.4040   28.4800   33.6560 H   0  0  0  0  0  0  0  0  0  0  0  0
   38.7860   26.4800   34.9580 H   0  0  0  0  0  0  0  0  0  0  0  0
   35.7900   24.6770   30.9110 H   0  0  0  0  0  0  0  0  0  0  0  0
   35.7400   31.3420   30.6290 C   0  0  0  0  0  0  0  0  0  0  0  0
   36.3200   30.1000   30.8550 C   0  0  0  0  0  0  0  0  0  0  0  0
   35.6830   29.2080   31.6850 C   0  0  0  0  0  0  0  0  0  0  0  0
   34.5110   29.6170   32.2310 N   0  0  0  0  0  0  0  0  0  0  0  0
   33.9490   30.8240   32.0100 C   0  0  0  0  0  0  0  0  0  0  0  0
   34.5730   31.6700   31.2120 N   0  0  0  0  0  0  0  0  0  0  0  0
   36.2900   31.9970   29.9690 H   0  0  0  0  0  0  0  0  0  0  0  0
   37.2560   29.7870   30.4120 H   0  0  0  0  0  0  0  0  0  0  0  0
   33.0100   31.0900   32.4780 H   0  0  0  0  0  0  0  0  0  0  0  0
   39.1900   23.7790   34.9150 O   0  0  0  0  0  0  0  0  0  0  0  0
   37.4070   25.2190   36.4860 H   0  0  0  0  0  0  0  0  0  0  0  0
   37.7880   24.2990   36.7800 N   0  0  0  0  0  0  0  0  0  0  0  0
   37.8530   24.0970   38.1970 C   0  0  0  0  0  2  0  0  0  0  0  0
   39.0800   23.2500   38.4930 C   0  0  0  0  0  2  0  0  0  0  0  0
   39.4420   22.7330   37.0950 C   0  0  0  0  0  2  0  0  0  0  0  0
   39.1000   23.9990   36.2990 C   0  0  1  0  0  3  0  0  0  0  0  0
  1  9  2  0  0  0  0
  1  2  1  0  0  0  0
  2  3  2  0  0  0  0
  3  4  1  0  0  0  0
  3 11  1  0  0  0  0
  4  5  1  0  0  0  0
  5 12  1  0  0  0  0
  6  5  1  0  0  0  0
  6 23  1  0  0  0  0
  7  6  2  0  0  0  0
  8  7  1  0  0  0  0
  8  4  2  0  0  0  0
  9  8  1  0  0  0  0
 10  1  1  0  0  0  0
 13  9  1  0  0  0  0
 14 15  2  0  0  0  0
 14 19  1  0  0  0  0
 15 16  1  0  0  0  0
 16  2  1  0  0  0  0
 16 17  2  0  0  0  0
 18 17  1  0  0  0  0
 18 22  1  0  0  0  0
 19 18  2  0  0  0  0
 20 14  1  0  0  0  0
 21 15  1  0  0  0  0
 24 25  1  0  0  0  0
 25 26  1  0  0  0  0
 26 27  1  0  0  0  0
 28 27  1  0  0  0  0
 29 23  1  6  0  0  0
 29 25  1  0  0  0  0
 29 28  1  0  0  0  0
M  END
>  <minimizedAffinity>
-5.05803156

$$$$

 OpenBabel03272510253D

 29 32  0  0  1  0  0  0  0  0999 V2000
   38.0070   25.0060   33.6870 C   0  0  0  0  0  0  0  0  0  0  0  0
   37.9240   25.4430   34.9940 C   0  0  0  0  0  0  0  0  0  0  0  0
   37.3520   26.6730   35.3080 C   0  0  0  0  0  0  0  0  0  0  0  0
   36.8740   27.4220   34.2220 C   0  0  0  0  0  0  0  0  0  0  0  0
   36.2760   28.6500   34.2730 N   0  0  0  0  0  0  0  0  0  0  0  0
   35.9860   28.9810   33.0060 C   0  0  0  0  0  0  0  0  0  0  0  0
   36.3760   28.0170   32.1870 N   0  0  0  0  0  0  0  0  0  0  0  0
   36.9360   27.0250   32.9110 C   0  0  0  0  0  0  0  0  0  0  0  0
   37.5160   25.7890   32.6410 C   0  0  0  0  0  0  0  0  0  0  0  0
   38.4440   24.0580   33.4070 H   0  0  0  0  0  0  0  0  0  0  0  0
   37.2900   27.0060   36.3160 H   0  0  0  0  0  0  0  0  0  0  0  0
   36.0940   29.2010   35.1500 H   0  0  0  0  0  0  0  0  0  0  0  0
   37.5650   25.4750   31.6060 H   0  0  0  0  0  0  0  0  0  0  0  0
   39.9180   22.9280   36.9390 C   0  0  0  0  0  0  0  0  0  0  0  0
   39.5120   23.7040   35.8620 C   0  0  0  0  0  0  0  0  0  0  0  0
   38.4570   24.5710   36.0240 C   0  0  0  0  0  0  0  0  0  0  0  0
   37.8810   24.6020   37.2520 N   0  0  0  0  0  0  0  0  0  0  0  0
   38.2770   23.8460   38.2970 C   0  0  0  0  0  0  0  0  0  0  0  0
   39.2910   23.0190   38.1260 N   0  0  0  0  0  0  0  0  0  0  0  0
   40.7510   22.2680   36.7470 H   0  0  0  0  0  0  0  0  0  0  0  0
   39.9820   23.6700   34.8870 H   0  0  0  0  0  0  0  0  0  0  0  0
   37.7730   23.9190   39.2520 H   0  0  0  0  0  0  0  0  0  0  0  0
   35.3580   30.1970   32.7150 O   0  0  0  0  0  0  0  0  0  0  0  0
   33.4910   28.2210   32.1390 H   0  0  0  0  0  0  0  0  0  0  0  0
   33.3260   28.9470   32.8630 N   0  0  0  0  0  0  0  0  0  0  0  0
   31.9480   29.2590   33.1020 C   0  0  0  0  0  2  0  0  0  0  0  0
   31.8550   30.7380   33.4420 C   0  0  0  0  0  2  0  0  0  0  0  0
   33.3250   31.0860   33.7070 C   0  0  0  0  0  2  0  0  0  0  0  0
   33.9570   30.2070   32.6200 C   0  0  1  0  0  3  0  0  0  0  0  0
  1  2  1  0  0  0  0
  2  3  2  0  0  0  0
  2 16  1  0  0  0  0
  3 11  1  0  0  0  0
  4  5  1  0  0  0  0
  4  3  1  0  0  0  0
  5 12  1  0  0  0  0
  6  5  1  0  0  0  0
  7  8  1  0  0  0  0
  7  6  2  0  0  0  0
  8  4  2  0  0  0  0
  9  8  1  0  0  0  0
  9  1  2  0  0  0  0
 10  1  1  0  0  0  0
 13  9  1  0  0  0  0
 14 19  1  0  0  0  0
 15 16  1  0  0  0  0
 15 14  2  0  0  0  0
 16 17  2  0  0  0  0
 17 18  1  0  0  0  0
 18 22  1  0  0  0  0
 19 18  2  0  0  0  0
 20 14  1  0  0  0  0
 21 15  1  0  0  0  0
 23  6  1  0  0  0  0
 24 25  1  0  0  0  0
 25 26  1  0  0  0  0
 26 27  1  0  0  0  0
 27 28  1  0  0  0  0
 29 23  1  1  0  0  0
 29 25  1  0  0  0  0
 29 28  1  0  0  0  0
M  END
>  <minimizedAffinity>
-4.96436644

$$$$

 OpenBabel03272510253D

 29 32  0  0  1  0  0  0  0  0999 V2000
   38.7950   24.6490   36.2400 C   0  0  0  0  0  0  0  0  0  0  0  0
   39.4390   23.8530   35.3150 C   0  0  0  0  0  0  0  0  0  0  0  0
   39.2040   23.9990   33.9490 C   0  0  0  0  0  0  0  0  0  0  0  0
   38.2840   24.9950   33.5890 C   0  0  0  0  0  0  0  0  0  0  0  0
   37.8910   25.3290   32.3240 N   0  0  0  0  0  0  0  0  0  0  0  0
   37.0060   26.3280   32.4550 C   0  0  0  0  0  0  0  0  0  0  0  0
   36.8410   26.6200   33.7360 N   0  0  0  0  0  0  0  0  0  0  0  0
   37.6250   25.8080   34.4760 C   0  0  0  0  0  0  0  0  0  0  0  0
   37.8880   25.6270   35.8300 C   0  0  0  0  0  0  0  0  0  0  0  0
   38.9530   24.5620   37.3060 H   0  0  0  0  0  0  0  0  0  0  0  0
   39.7010   23.3840   33.2400 H   0  0  0  0  0  0  0  0  0  0  0  0
   38.2330   24.8720   31.4410 H   0  0  0  0  0  0  0  0  0  0  0  0
   37.3670   26.2680   36.5310 H   0  0  0  0  0  0  0  0  0  0  0  0
   41.3680   21.4570   37.4650 C   0  0  0  0  0  0  0  0  0  0  0  0
   40.4260   22.4170   37.1210 C   0  0  0  0  0  0  0  0  0  0  0  0
   40.3670   22.8580   35.8200 C   0  0  0  0  0  0  0  0  0  0  0  0
   41.2530   22.3080   34.9520 N   0  0  0  0  0  0  0  0  0  0  0  0
   42.1680   21.3750   35.2890 C   0  0  0  0  0  0  0  0  0  0  0  0
   42.2120   20.9620   36.5410 N   0  0  0  0  0  0  0  0  0  0  0  0
   41.3640   21.1540   38.5020 H   0  0  0  0  0  0  0  0  0  0  0  0
   39.7250   22.8470   37.8240 H   0  0  0  0  0  0  0  0  0  0  0  0
   42.8470   20.9760   34.5470 H   0  0  0  0  0  0  0  0  0  0  0  0
   36.4070   26.9010   31.3270 O   0  0  0  0  0  0  0  0  0  0  0  0
   37.5560   27.2530   28.8210 H   0  0  0  0  0  0  0  0  0  0  0  0
   37.0090   28.0000   29.2910 N   0  0  0  0  0  0  0  0  0  0  0  0
   37.3670   29.3360   28.9160 C   0  0  0  0  0  2  0  0  0  0  0  0
   37.1930   30.2270   30.1360 C   0  0  0  0  0  2  0  0  0  0  0  0
   36.3810   29.3180   31.0670 C   0  0  0  0  0  2  0  0  0  0  0  0
   37.0590   27.9870   30.7200 C   0  0  1  0  0  3  0  0  0  0  0  0
  1 10  1  0  0  0  0
  2 16  1  0  0  0  0
  2  1  2  0  0  0  0
  3  2  1  0  0  0  0
  4  3  2  0  0  0  0
  4  8  1  0  0  0  0
  5  6  1  0  0  0  0
  5  4  1  0  0  0  0
  6  7  2  0  0  0  0
  7  8  1  0  0  0  0
  8  9  2  0  0  0  0
  9  1  1  0  0  0  0
  9 13  1  0  0  0  0
 11  3  1  0  0  0  0
 12  5  1  0  0  0  0
 14 20  1  0  0  0  0
 15 14  1  0  0  0  0
 15 21  1  0  0  0  0
 16 15  2  0  0  0  0
 17 18  2  0  0  0  0
 17 16  1  0  0  0  0
 18 19  1  0  0  0  0
 19 14  2  0  0  0  0
 22 18  1  0  0  0  0
 23  6  1  0  0  0  0
 24 25  1  0  0  0  0
 25 29  1  0  0  0  0
 26 25  1  0  0  0  0
 26 27  1  0  0  0  0
 27 28  1  0  0  0  0
 29 28  1  0  0  0  0
 29 23  1  1  0  0  0
M  END
>  <minimizedAffinity>
-4.95878172

$$$$
