
 OpenBabel03272510243D

 29 32  0  0  1  0  0  0  0  0999 V2000
   36.1990   30.1890   46.9250 C   0  0  0  0  0  0  0  0  0  0  0  0
   37.0460   30.7430   47.8620 C   0  0  0  0  0  0  0  0  0  0  0  0
   38.0390   31.6480   47.4920 C   0  0  0  0  0  0  0  0  0  0  0  0
   38.1130   31.9510   46.1250 C   0  0  0  0  0  0  0  0  0  0  0  0
   38.9930   32.8030   45.5200 N   0  0  0  0  0  0  0  0  0  0  0  0
   38.6990   32.7840   44.2120 C   0  0  0  0  0  0  0  0  0  0  0  0
   37.6840   31.9640   43.9880 N   0  0  0  0  0  0  0  0  0  0  0  0
   37.2890   31.4240   45.1620 C   0  0  0  0  0  0  0  0  0  0  0  0
   36.3120   30.5240   45.5740 C   0  0  0  0  0  0  0  0  0  0  0  0
   35.4180   29.4840   47.1770 H   0  0  0  0  0  0  0  0  0  0  0  0
   38.6900   32.0720   48.2170 H   0  0  0  0  0  0  0  0  0  0  0  0
   39.7430   33.3510   46.0120 H   0  0  0  0  0  0  0  0  0  0  0  0
   35.6620   30.1080   44.8150 H   0  0  0  0  0  0  0  0  0  0  0  0
   37.4510   30.1440   51.5450 C   0  0  0  0  0  0  0  0  0  0  0  0
   37.7570   30.5840   50.2640 C   0  0  0  0  0  0  0  0  0  0  0  0
   36.8640   30.3440   49.2460 C   0  0  0  0  0  0  0  0  0  0  0  0
   35.7280   29.6820   49.5790 N   0  0  0  0  0  0  0  0  0  0  0  0
   35.4330   29.2550   50.8240 C   0  0  0  0  0  0  0  0  0  0  0  0
   36.3000   29.4930   51.7910 N   0  0  0  0  0  0  0  0  0  0  0  0
   38.1930   30.3630   52.2990 H   0  0  0  0  0  0  0  0  0  0  0  0
   38.6680   31.1120   50.0130 H   0  0  0  0  0  0  0  0  0  0  0  0
   34.5070   28.7310   51.0230 H   0  0  0  0  0  0  0  0  0  0  0  0
   39.4290   33.5630   43.3070 O   0  0  0  0  0  0  0  0  0  0  0  0
   40.3480   31.3300   41.9300 H   0  0  0  0  0  0  0  0  0  0  0  0
   39.4450   31.7900   41.7030 N   0  0  0  0  0  0  0  0  0  0  0  0
   39.0120   31.6340   40.3450 C   0  0  0  0  0  2  0  0  0  0  0  0
   38.2840   32.9050   39.9380 C   0  0  0  0  0  2  0  0  0  0  0  0
   38.0640   33.5820   41.2960 C   0  0  0  0  0  2  0  0  0  0  0  0
   39.3960   33.1970   41.9510 C   0  0  1  0  0  3  0  0  0  0  0  0
  1 10  1  0  0  0  0
  1  2  1  0  0  0  0
  2 16  1  0  0  0  0
  3  2  2  0  0  0  0
  3 11  1  0  0  0  0
  4  3  1  0  0  0  0
  5 12  1  0  0  0  0
  5  4  1  0  0  0  0
  6  5  1  0  0  0  0
  7  6  2  0  0  0  0
  7  8  1  0  0  0  0
  8  9  1  0  0  0  0
  8  4  2  0  0  0  0
  9  1  2  0  0  0  0
 13  9  1  0  0  0  0
 14 19  1  0  0  0  0
 14 20  1  0  0  0  0
 15 14  2  0  0  0  0
 16 17  2  0  0  0  0
 16 15  1  0  0  0  0
 17 18  1  0  0  0  0
 18 22  1  0  0  0  0
 18 19  2  0  0  0  0
 21 15  1  0  0  0  0
 23  6  1  0  0  0  0
 25 24  1  0  0  0  0
 25 29  1  0  0  0  0
 26 25  1  0  0  0  0
 27 26  1  0  0  0  0
 27 28  1  0  0  0  0
 28 29  1  0  0  0  0
 29 23  1  1  0  0  0
M  END
>  <minimizedAffinity>
-5.39453125

>  <minimizedRMSD>
1.2995379

$$$$
