REMARK  Name = 
REMARK  3 active torsions:
REMARK  status: ('A' for Active; 'I' for Inactive)
REMARK    1  A    between atoms: C_2  and  C_12
REMARK    2  A    between atoms: C_6  and  O_16
REMARK    3  A    between atoms: O_16  and  C_29
REMARK                            x       y       z     vdW  Elec       q    Type
REMARK                         _______ _______ _______ _____ _____    ______ ____
ROOT
ATOM      1  C   UNL     1      36.854  30.546  46.920  0.00  0.00    +0.000 A 
ATOM      2  C   UNL     1      37.518  31.034  48.027  0.00  0.00    +0.000 A 
ATOM      3  C   UNL     1      38.517  31.997  47.902  0.00  0.00    +0.000 A 
ATOM      4  C   UNL     1      38.794  32.427  46.596  0.00  0.00    +0.000 A 
ATOM      5  N   UNL     1      39.722  33.356  46.218  0.00  0.00    +0.000 N 
ATOM      6  C   UNL     1      39.640  33.450  44.883  0.00  0.00    +0.000 A 
ATOM      7  N   UNL     1      38.709  32.626  44.428  0.00  0.00    +0.000 NA
ATOM      8  C   UNL     1      38.157  31.969  45.471  0.00  0.00    +0.000 A 
ATOM      9  C   UNL     1      37.166  31.007  45.640  0.00  0.00    +0.000 A 
ATOM     10  H   UNL     1      36.074  29.799  46.980  0.00  0.00    +0.000 HD
ATOM     11  H   UNL     1      39.027  32.370  48.757  0.00  0.00    +0.000 HD
ATOM     12  H   UNL     1      40.360  33.877  46.871  0.00  0.00    +0.000 HD
ATOM     13  H   UNL     1      36.663  30.645  44.752  0.00  0.00    +0.000 HD
ENDROOT
BRANCH   2  16
ATOM     14  C   UNL     1      37.378  30.076  51.653  0.00  0.00    +0.000 A 
ATOM     15  C   UNL     1      37.867  30.636  50.480  0.00  0.00    +0.000 A 
ATOM     16  C   UNL     1      37.136  30.504  49.323  0.00  0.00    +0.000 A 
ATOM     17  N   UNL     1      35.967  29.822  49.418  0.00  0.00    +0.000 NA
ATOM     18  C   UNL     1      35.494  29.279  50.559  0.00  0.00    +0.000 A 
ATOM     19  N   UNL     1      36.207  29.414  51.661  0.00  0.00    +0.000 NA
ATOM     20  H   UNL     1      37.999  30.214  52.526  0.00  0.00    +0.000 HD
ATOM     21  H   UNL     1      38.802  31.178  50.419  0.00  0.00    +0.000 HD
ATOM     22  H   UNL     1      34.552  28.746  50.567  0.00  0.00    +0.000 HD
ENDBRANCH   2  16
BRANCH   6  23
ATOM     23  O   UNL     1      40.471  34.329  44.179  0.00  0.00    +0.000 OA
BRANCH  23  29
ATOM     24  H   UNL     1      38.330  33.867  42.469  0.00  0.00    +0.000 HD
ATOM     25  N   UNL     1      39.011  34.635  42.311  0.00  0.00    +0.000 NA
ATOM     26  C   UNL     1      39.169  35.029  40.943  0.00  0.00    +0.000 C 
ATOM     27  C   UNL     1      40.618  35.439  40.738  0.00  0.00    +0.000 C 
ATOM     28  C   UNL     1      41.110  35.565  42.185  0.00  0.00    +0.000 C 
ATOM     29  C   UNL     1      40.337  34.381  42.782  0.00  0.00    +0.000 C 
ENDBRANCH  23  29
ENDBRANCH   6  23
TORSDOF 3
