
     RDKit          3D

 32 34  0  0  0  0  0  0  0  0999 V2000
   37.9794   33.1670   49.4419 C   0  0  0  0  0  0  0  0  0  0  0  0
   39.0170   33.1618   48.4594 C   0  0  0  0  0  0  0  0  0  0  0  0
   39.0092   32.1233   47.5236 C   0  0  0  0  0  0  0  0  0  0  0  0
   38.0232   31.1820   47.5979 N   0  0  0  0  0  0  0  0  0  0  0  0
   37.0586   31.2236   48.5447 C   0  0  0  0  0  0  0  0  0  0  0  0
   37.0423   32.2144   49.4599 N   0  0  0  0  0  0  0  0  0  0  0  0
   37.2686   29.3596   51.0595 Br  0  0  0  0  0  0  0  0  0  0  0  0
   35.9502   29.3141   49.6646 C   0  0  0  0  0  0  0  0  0  0  0  0
   36.0022   30.2122   48.6213 C   0  0  0  0  0  0  0  0  0  0  0  0
   35.0183   30.1213   47.6499 C   0  0  0  0  0  0  0  0  0  0  0  0
   34.0137   29.1857   47.6911 C   0  0  0  0  0  0  0  0  0  0  0  0
   33.9886   28.3086   48.7384 C   0  0  0  0  0  0  0  0  0  0  0  0
   34.9668   28.3772   49.7307 C   0  0  0  0  0  0  0  0  0  0  0  0
   38.0208   33.9898   50.1503 H   0  0  0  0  0  0  0  0  0  0  0  0
   39.7888   33.9200   48.4207 H   0  0  0  0  0  0  0  0  0  0  0  0
   39.7559   32.0414   46.7454 H   0  0  0  0  0  0  0  0  0  0  0  0
   35.0951   30.8440   46.8487 H   0  0  0  0  0  0  0  0  0  0  0  0
   33.2013   27.5856   48.7582 H   0  0  0  0  0  0  0  0  0  0  0  0
   34.9295   27.6716   50.5544 H   0  0  0  0  0  0  0  0  0  0  0  0
   33.0320   29.1425   46.6639 N   0  0  0  0  0  0  0  0  0  0  0  0
   32.9419   30.0055   45.5048 C   0  0  0  0  0  0  0  0  0  0  0  0
   32.0185   29.2441   44.5444 C   0  0  0  0  0  0  0  0  0  0  0  0
   30.9911   28.7044   45.5489 C   0  0  0  0  0  0  0  0  0  0  0  0
   31.9214   28.1839   46.6193 C   0  0  1  0  0  0  0  0  0  0  0  0
   32.2951   27.1868   46.2671 H   0  0  0  0  0  0  0  0  0  0  0  0
   33.8856   30.1634   44.9752 H   0  0  0  0  0  0  0  0  0  0  0  0
   32.4767   30.9820   45.7463 H   0  0  0  0  0  0  0  0  0  0  0  0
   31.5771   29.8809   43.7792 H   0  0  0  0  0  0  0  0  0  0  0  0
   32.5643   28.3636   44.1442 H   0  0  0  0  0  0  0  0  0  0  0  0
   30.3979   27.8885   45.1067 H   0  0  0  0  0  0  0  0  0  0  0  0
   30.3895   29.5654   45.8984 H   0  0  0  0  0  0  0  0  0  0  0  0
   31.4387   28.0674   47.6093 H   0  0  0  0  0  0  0  0  0  0  0  0
  1  6  2  0
  2  1  1  0
  3  4  1  0
  3  2  2  0
  4  5  2  0
  5  9  1  0
  5  6  1  0
  8 13  2  0
  8  7  1  0
  9  8  1  0
 10 11  1  0
 10  9  2  0
 11 12  2  0
 12 13  1  0
  1 14  1  0
  2 15  1  0
  3 16  1  0
 10 17  1  0
 12 18  1  0
 13 19  1  0
 20 21  1  0
 21 22  1  0
 22 23  1  0
 23 24  1  0
 24 25  1  6
 24 20  1  0
 21 26  1  0
 21 27  1  0
 22 28  1  0
 22 29  1  0
 23 30  1  0
 23 31  1  0
 24 32  1  0
 11 20  1  0
M  ISO  7  14  14  15  14  16  14  17  14  18  14  19  14  25  13
M  END
>  <DihAtoms>  (1) 
9,10,19,20

>  <DihDeg>  (1) 
0.06234209676278611

$$$$
