
 OpenBabel03272506213D

 25 27  0  0  0  0  0  0  0  0999 V2000
   37.7570   30.4580   50.6890 C   0  0  0  0  0  0  0  0  0  0  0  0
   37.2290   30.6440   49.3950 C   0  0  0  0  0  0  0  0  0  0  0  0
   35.9770   30.0970   49.1660 C   0  0  0  0  0  0  0  0  0  0  0  0
   35.3390   29.4320   50.1640 N   0  0  0  0  0  0  0  0  0  0  0  0
   35.8740   29.2740   51.3850 C   0  0  0  0  0  0  0  0  0  0  0  0
   37.1000   29.7950   51.6500 N   0  0  0  0  0  0  0  0  0  0  0  0
   38.7200   30.8480   50.9520 H   0  0  0  0  0  0  0  0  0  0  0  0
   35.3040   28.7310   52.1290 H   0  0  0  0  0  0  0  0  0  0  0  0
   38.0420   31.3800   48.4460 C   0  0  0  0  0  0  0  0  0  0  0  0
   38.5920   30.6610   47.4100 C   0  0  0  0  0  0  0  0  0  0  0  0
   39.3870   31.1940   46.4220 C   0  0  0  0  0  0  0  0  0  0  0  0
   39.6670   32.5750   46.4620 C   0  0  0  0  0  0  0  0  0  0  0  0
   39.1120   33.2990   47.5070 C   0  0  0  0  0  0  0  0  0  0  0  0
   38.3250   32.7290   48.4710 C   0  0  0  0  0  0  0  0  0  0  0  0
   38.4320   29.5940   47.2970 H   0  0  0  0  0  0  0  0  0  0  0  0
   39.8090   30.6130   45.6150 H   0  0  0  0  0  0  0  0  0  0  0  0
   40.2800   33.0850   45.7310 H   0  0  0  0  0  0  0  0  0  0  0  0
   39.3030   34.3570   47.5730 H   0  0  0  0  0  0  0  0  0  0  0  0
   37.8810   33.2870   49.3010 H   0  0  0  0  0  0  0  0  0  0  0  0
   35.4440   30.2850   47.8590 N   0  0  0  0  0  0  0  0  0  0  0  0
   34.0180   30.5210   47.5860 C   0  0  0  0  0  0  0  0  0  0  0  0
   33.8000   29.3520   46.6140 C   0  0  0  0  0  0  0  0  0  0  0  0
   34.9080   29.6810   45.6210 C   0  0  0  0  0  0  0  0  0  0  0  0
   35.9660   30.3190   46.5140 C   0  0  0  0  0  0  0  0  0  0  0  0
   36.1080   31.4030   46.2350 H   0  0  0  0  0  0  0  0  0  0  0  0
  1  7  1  0  0  0  0
  1  6  1  0  0  0  0
  2  1  2  0  0  0  0
  3  2  1  0  0  0  0
  3  4  2  0  0  0  0
  4  5  1  0  0  0  0
  5  6  2  0  0  0  0
  5  8  1  0  0  0  0
  9 14  1  0  0  0  0
  9  2  1  0  0  0  0
 10  9  2  0  0  0  0
 11 12  2  0  0  0  0
 11 10  1  0  0  0  0
 12 13  1  0  0  0  0
 13 18  1  0  0  0  0
 13 14  2  0  0  0  0
 14 19  1  0  0  0  0
 15 10  1  0  0  0  0
 16 11  1  0  0  0  0
 17 12  1  0  0  0  0
 20  3  1  0  0  0  0
 21 20  1  0  0  0  0
 22 21  1  0  0  0  0
 23 24  1  0  0  0  0
 23 22  1  0  0  0  0
 24 20  1  0  0  0  0
 25 24  1  0  0  0  0
M  END
>  <minimizedAffinity>
-5.24786997

>  <minimizedRMSD>
1.24837458

$$$$
