
 OpenBabel03272508093D

 31 33  0  0  0  0  0  0  0  0999 V2000
   36.6470   29.4660   44.0680 Cl  0  0  0  0  0  0  0  0  0  0  0  0
   38.2940   29.8500   43.5100 C   0  0  0  0  0  0  0  0  0  0  0  0
   39.3050   30.3310   44.3470 C   0  0  0  0  0  0  0  0  0  0  0  0
   40.5390   30.5860   43.7770 C   0  0  0  0  0  0  0  0  0  0  0  0
   40.7570   30.3740   42.4410 C   0  0  0  0  0  0  0  0  0  0  0  0
   39.7740   29.9010   41.6040 C   0  0  0  0  0  0  0  0  0  0  0  0
   38.5410   29.6420   42.1520 C   0  0  0  0  0  0  0  0  0  0  0  0
   41.2620   30.9540   44.4850 H   0  0  0  0  0  0  0  0  0  0  0  0
   41.7670   30.6150   42.1270 H   0  0  0  0  0  0  0  0  0  0  0  0
   39.9980   29.7500   40.5570 H   0  0  0  0  0  0  0  0  0  0  0  0
   37.5530   29.1540   41.2490 N   0  0  0  0  0  0  0  0  0  0  0  0
   36.5810   29.9260   40.4880 C   0  0  0  0  0  0  0  0  0  0  0  0
   35.5150   28.9140   40.0770 C   0  0  0  0  0  0  0  0  0  0  0  0
   36.3520   27.6460   39.8840 C   0  0  0  0  0  0  0  0  0  0  0  0
   37.3840   27.7430   40.9590 C   0  0  0  0  0  0  0  0  0  0  0  0
   38.3500   27.2600   40.6880 H   0  0  0  0  0  0  0  0  0  0  0  0
   38.8800   30.4700   45.6290 O   0  0  0  0  0  0  0  0  0  0  0  0
   39.4450   32.5070   47.1240 O   0  0  0  0  0  0  0  0  0  0  0  0
   38.3120   31.8420   46.4190 P   0  0  1  0  0  0  0  0  0  0  0  0
   37.7260   32.8560   45.1780 O   0  0  0  0  0  0  0  0  0  0  0  0
   38.4790   33.1910   44.6310 H   0  0  0  0  0  0  0  0  0  0  0  0
   37.0380   31.4150   47.4470 O   0  0  0  0  0  0  0  0  0  0  0  0
   37.6060   30.5310   50.9850 C   0  0  0  0  0  0  0  0  0  0  0  0
   37.7020   31.3020   49.8200 C   0  0  0  0  0  0  0  0  0  0  0  0
   37.0700   30.8310   48.6660 C   0  0  0  0  0  0  0  0  0  0  0  0
   36.3970   29.6490   48.7390 N   0  0  0  0  0  0  0  0  0  0  0  0
   36.3300   28.9400   49.8760 C   0  0  0  0  0  0  0  0  0  0  0  0
   36.9280   29.3730   50.9920 N   0  0  0  0  0  0  0  0  0  0  0  0
   38.1070   30.9260   51.8590 H   0  0  0  0  0  0  0  0  0  0  0  0
   38.2200   32.2410   49.7120 H   0  0  0  0  0  0  0  0  0  0  0  0
   35.7940   27.9990   49.9340 H   0  0  0  0  0  0  0  0  0  0  0  0
  2  1  1  0  0  0  0
  2  3  1  0  0  0  0
  3 17  1  0  0  0  0
  4  3  2  0  0  0  0
  4  8  1  0  0  0  0
  5  4  1  0  0  0  0
  6  7  1  0  0  0  0
  6  5  2  0  0  0  0
  7  2  2  0  0  0  0
  9  5  1  0  0  0  0
 10  6  1  0  0  0  0
 11  7  1  0  0  0  0
 12 11  1  0  0  0  0
 13 12  1  0  0  0  0
 14 13  1  0  0  0  0
 14 15  1  0  0  0  0
 15 11  1  0  0  0  0
 16 15  1  0  0  0  0
 17 19  1  0  0  0  0
 19 18  2  1  0  0  0
 19 22  1  0  0  0  0
 20 19  1  0  0  0  0
 21 20  1  0  0  0  0
 22 25  1  0  0  0  0
 23 28  1  0  0  0  0
 23 29  1  0  0  0  0
 24 23  2  0  0  0  0
 25 26  2  0  0  0  0
 25 24  1  0  0  0  0
 26 27  1  0  0  0  0
 27 31  1  0  0  0  0
 27 28  2  0  0  0  0
 30 24  1  0  0  0  0
M  END
>  <minimizedAffinity>
-4.78847885

>  <minimizedRMSD>
0.103352591

$$$$
