
 OpenBabel03272503433D

 38 41  0  0  1  0  0  0  0  0999 V2000
   37.3330   27.1140   33.1980 C   0  0  0  0  0  0  0  0  0  0  0  0
   38.6270   27.1580   33.6340 C   0  0  0  0  0  0  0  0  0  0  0  0
   39.0910   25.8440   33.4850 C   0  0  0  0  0  0  0  0  0  0  0  0
   38.1130   25.0780   32.9880 N   0  0  0  0  0  0  0  0  0  0  0  0
   37.0300   25.8560   32.8090 N   0  0  0  0  0  0  0  0  0  0  0  0
   39.2230   27.9900   34.0210 H   0  0  0  0  0  0  0  0  0  0  0  0
   40.1170   25.5700   33.7600 H   0  0  0  0  0  0  0  0  0  0  0  0
   38.6290   22.9150   33.9900 C   0  0  2  0  0  0  0  0  0  0  0  0
   38.2740   23.6730   32.7180 C   0  0  1  0  0  0  0  0  0  0  0  0
   36.9640   22.9890   32.4020 C   0  0  0  0  0  0  0  0  0  0  0  0
   37.0880   21.6700   32.7720 O   0  0  0  0  0  0  0  0  0  0  0  0
   38.2160   21.5080   33.5190 C   0  0  0  0  0  0  0  0  0  0  0  0
   39.6770   22.9580   34.2630 H   0  0  0  0  0  0  0  0  0  0  0  0
   38.9740   23.5030   31.9040 H   0  0  0  0  0  0  0  0  0  0  0  0
   36.7450   23.1130   31.3040 H   0  0  0  0  0  0  0  0  0  0  0  0
   36.2000   23.4790   33.0400 H   0  0  0  0  0  0  0  0  0  0  0  0
   39.0790   21.0760   32.9450 H   0  0  0  0  0  0  0  0  0  0  0  0
   38.0660   20.8770   34.4320 H   0  0  0  0  0  0  0  0  0  0  0  0
   37.7560   23.3430   34.9740 O   0  0  0  0  0  0  0  0  0  0  0  0
   37.8710   21.7670   37.2460 H   0  0  0  0  0  0  0  0  0  0  0  0
   37.6340   22.7900   37.2860 N   0  0  0  0  0  0  0  0  0  0  0  0
   38.4320   23.3020   38.4140 C   0  0  0  0  0  2  0  0  0  0  0  0
   39.8300   22.9410   37.8970 C   0  0  0  0  0  2  0  0  0  0  0  0
   39.7220   23.0530   36.3710 C   0  0  0  0  0  2  0  0  0  0  0  0
   38.2950   23.4820   36.2100 C   0  0  1  0  0  3  0  0  0  0  0  0
   35.0880   29.9510   34.1830 C   0  0  0  0  0  0  0  0  0  0  0  0
   35.9610   28.8750   34.2920 C   0  0  0  0  0  0  0  0  0  0  0  0
   36.4250   28.2360   33.1570 C   0  0  0  0  0  0  0  0  0  0  0  0
   35.9910   28.7060   31.9600 N   0  0  0  0  0  0  0  0  0  0  0  0
   35.1320   29.7640   31.8840 C   0  0  0  0  0  0  0  0  0  0  0  0
   34.6860   30.3780   32.9630 N   0  0  0  0  0  0  0  0  0  0  0  0
   36.3390   28.4590   35.2090 H   0  0  0  0  0  0  0  0  0  0  0  0
   34.7770   30.1500   30.9340 H   0  0  0  0  0  0  0  0  0  0  0  0
   34.7190   30.4780   35.4160 O   0  0  0  0  0  0  0  0  0  0  0  0
   35.3290   31.5940   35.9950 C   0  0  0  0  0  0  0  0  0  0  0  0
   36.7120   31.4690   36.0460 F   0  0  0  0  0  0  0  0  0  0  0  0
   34.8100   31.7870   37.2460 F   0  0  0  0  0  0  0  0  0  0  0  0
   35.0140   32.7150   35.2320 F   0  0  0  0  0  0  0  0  0  0  0  0
  1  2  1  0  0  0  0
  2  6  1  0  0  0  0
  3  2  2  0  0  0  0
  3  7  1  0  0  0  0
  4  3  1  0  0  0  0
  5  4  1  0  0  0  0
  5  1  2  0  0  0  0
  8 13  1  1  0  0  0
  8 19  1  0  0  0  0
  9 14  1  6  0  0  0
  9  4  1  0  0  0  0
  9  8  1  0  0  0  0
 10  9  1  0  0  0  0
 10 11  1  0  0  0  0
 10 16  1  0  0  0  0
 11 12  1  0  0  0  0
 12  8  1  0  0  0  0
 12 18  1  0  0  0  0
 15 10  1  0  0  0  0
 17 12  1  0  0  0  0
 20 21  1  0  0  0  0
 21 22  1  0  0  0  0
 23 22  1  0  0  0  0
 24 23  1  0  0  0  0
 25 19  1  6  0  0  0
 25 24  1  0  0  0  0
 25 21  1  0  0  0  0
 26 27  1  0  0  0  0
 26 34  1  0  0  0  0
 27 32  1  0  0  0  0
 28  1  1  0  0  0  0
 28 27  2  0  0  0  0
 29 28  1  0  0  0  0
 30 29  2  0  0  0  0
 30 31  1  0  0  0  0
 31 26  2  0  0  0  0
 33 30  1  0  0  0  0
 34 35  1  0  0  0  0
 35 36  1  0  0  0  0
 35 37  1  0  0  0  0
 38 35  1  0  0  0  0
M  END
>  <minimizedAffinity>
-5.79693317

$$$$

 OpenBabel03272503433D

 38 41  0  0  1  0  0  0  0  0999 V2000
   36.7060   27.3680   33.5920 C   0  0  0  0  0  0  0  0  0  0  0  0
   36.3070   27.7340   32.3370 C   0  0  0  0  0  0  0  0  0  0  0  0
   35.8060   29.0330   32.4950 C   0  0  0  0  0  0  0  0  0  0  0  0
   35.9080   29.4000   33.7780 N   0  0  0  0  0  0  0  0  0  0  0  0
   36.4620   28.3780   34.4560 N   0  0  0  0  0  0  0  0  0  0  0  0
   36.3420   27.1900   31.3890 H   0  0  0  0  0  0  0  0  0  0  0  0
   35.4060   29.5960   31.6420 H   0  0  0  0  0  0  0  0  0  0  0  0
   33.9640   30.7200   34.4340 C   0  0  2  0  0  0  0  0  0  0  0  0
   35.4780   30.6840   34.2670 C   0  0  1  0  0  0  0  0  0  0  0  0
   35.8730   30.9180   35.7070 C   0  0  0  0  0  0  0  0  0  0  0  0
   34.9520   31.7840   36.2510 O   0  0  0  0  0  0  0  0  0  0  0  0
   33.8890   31.9100   35.4080 C   0  0  0  0  0  0  0  0  0  0  0  0
   33.4150   30.9110   33.5200 H   0  0  0  0  0  0  0  0  0  0  0  0
   35.8640   31.4920   33.6520 H   0  0  0  0  0  0  0  0  0  0  0  0
   36.9220   31.3270   35.7340 H   0  0  0  0  0  0  0  0  0  0  0  0
   35.7930   29.9330   36.2110 H   0  0  0  0  0  0  0  0  0  0  0  0
   33.9080   32.8510   34.7960 H   0  0  0  0  0  0  0  0  0  0  0  0
   32.8960   31.8610   35.9240 H   0  0  0  0  0  0  0  0  0  0  0  0
   33.6020   29.5620   35.0970 O   0  0  0  0  0  0  0  0  0  0  0  0
   31.5700   28.0980   33.9190 H   0  0  0  0  0  0  0  0  0  0  0  0
   31.4520   29.1090   34.1810 N   0  0  0  0  0  0  0  0  0  0  0  0
   30.1290   29.1640   34.8270 C   0  0  0  0  0  2  0  0  0  0  0  0
   30.3880   28.1810   35.9770 C   0  0  0  0  0  2  0  0  0  0  0  0
   31.8770   28.3490   36.3040 C   0  0  0  0  0  2  0  0  0  0  0  0
   32.2740   29.4120   35.3240 C   0  0  1  0  0  3  0  0  0  0  0  0
   38.3930   24.5930   35.4640 C   0  0  0  0  0  0  0  0  0  0  0  0
   37.8400   25.8370   35.1890 C   0  0  0  0  0  0  0  0  0  0  0  0
   37.2960   26.0990   33.9440 C   0  0  0  0  0  0  0  0  0  0  0  0
   37.3330   25.0960   33.0300 N   0  0  0  0  0  0  0  0  0  0  0  0
   37.8840   23.8850   33.3290 C   0  0  0  0  0  0  0  0  0  0  0  0
   38.4040   23.6290   34.5140 N   0  0  0  0  0  0  0  0  0  0  0  0
   37.7820   26.6670   35.8700 H   0  0  0  0  0  0  0  0  0  0  0  0
   37.9200   23.0750   32.6070 H   0  0  0  0  0  0  0  0  0  0  0  0
   38.8950   24.4960   36.7590 O   0  0  0  0  0  0  0  0  0  0  0  0
   38.1930   23.9170   37.8190 C   0  0  0  0  0  0  0  0  0  0  0  0
   37.0570   23.2400   37.3900 F   0  0  0  0  0  0  0  0  0  0  0  0
   37.8680   24.8900   38.7230 F   0  0  0  0  0  0  0  0  0  0  0  0
   39.0320   23.0100   38.4620 F   0  0  0  0  0  0  0  0  0  0  0  0
  1 28  1  0  0  0  0
  1  5  2  0  0  0  0
  2  3  2  0  0  0  0
  2  1  1  0  0  0  0
  3  4  1  0  0  0  0
  4  9  1  0  0  0  0
  4  5  1  0  0  0  0
  6  2  1  0  0  0  0
  7  3  1  0  0  0  0
  8 13  1  6  0  0  0
  8 19  1  0  0  0  0
  8 12  1  0  0  0  0
  9 14  1  6  0  0  0
  9  8  1  0  0  0  0
  9 10  1  0  0  0  0
 10 15  1  0  0  0  0
 10 16  1  0  0  0  0
 10 11  1  0  0  0  0
 12 18  1  0  0  0  0
 12 11  1  0  0  0  0
 17 12  1  0  0  0  0
 20 21  1  0  0  0  0
 21 22  1  0  0  0  0
 21 25  1  0  0  0  0
 22 23  1  0  0  0  0
 23 24  1  0  0  0  0
 25 19  1  6  0  0  0
 25 24  1  0  0  0  0
 26 34  1  0  0  0  0
 27 26  1  0  0  0  0
 27 32  1  0  0  0  0
 28 27  2  0  0  0  0
 29 30  2  0  0  0  0
 29 28  1  0  0  0  0
 30 31  1  0  0  0  0
 31 26  2  0  0  0  0
 33 30  1  0  0  0  0
 34 35  1  0  0  0  0
 35 38  1  0  0  0  0
 35 37  1  0  0  0  0
 36 35  1  0  0  0  0
M  END
>  <minimizedAffinity>
-5.76223946

$$$$

 OpenBabel03272503433D

 38 41  0  0  1  0  0  0  0  0999 V2000
   34.8740   29.2510   32.7160 C   0  0  0  0  0  0  0  0  0  0  0  0
   36.0750   29.8120   32.3830 C   0  0  0  0  0  0  0  0  0  0  0  0
   36.7430   28.8090   31.6670 C   0  0  0  0  0  0  0  0  0  0  0  0
   35.9680   27.7210   31.5910 N   0  0  0  0  0  0  0  0  0  0  0  0
   34.8170   27.9890   32.2350 N   0  0  0  0  0  0  0  0  0  0  0  0
   36.4810   30.8060   32.5930 H   0  0  0  0  0  0  0  0  0  0  0  0
   37.7500   28.9750   31.2640 H   0  0  0  0  0  0  0  0  0  0  0  0
   37.3780   25.7370   31.7560 C   0  0  2  0  0  0  0  0  0  0  0  0
   36.3700   26.5140   30.9180 C   0  0  1  0  0  0  0  0  0  0  0  0
   35.2680   25.4810   30.8700 C   0  0  0  0  0  0  0  0  0  0  0  0
   35.8650   24.2430   30.8130 O   0  0  0  0  0  0  0  0  0  0  0  0
   37.1950   24.3630   31.0840 C   0  0  0  0  0  0  0  0  0  0  0  0
   38.3980   26.0920   31.6780 H   0  0  0  0  0  0  0  0  0  0  0  0
   36.7160   26.7190   29.9090 H   0  0  0  0  0  0  0  0  0  0  0  0
   34.6150   25.6890   29.9760 H   0  0  0  0  0  0  0  0  0  0  0  0
   34.7150   25.5790   31.8260 H   0  0  0  0  0  0  0  0  0  0  0  0
   37.8450   24.3440   30.1700 H   0  0  0  0  0  0  0  0  0  0  0  0
   37.5820   23.5870   31.7930 H   0  0  0  0  0  0  0  0  0  0  0  0
   36.8790   25.6860   33.0450 O   0  0  0  0  0  0  0  0  0  0  0  0
   38.7980   27.6570   33.3470 H   0  0  0  0  0  0  0  0  0  0  0  0
   38.9810   26.6540   33.6020 N   0  0  0  0  0  0  0  0  0  0  0  0
   39.6600   26.7290   34.9070 C   0  0  0  0  0  2  0  0  0  0  0  0
   38.5630   27.4510   35.7020 C   0  0  0  0  0  2  0  0  0  0  0  0
   37.2480   26.9720   35.0730 C   0  0  0  0  0  2  0  0  0  0  0  0
   37.7540   26.0300   34.0220 C   0  0  1  0  0  3  0  0  0  0  0  0
   33.0050   31.5130   35.0500 C   0  0  0  0  0  0  0  0  0  0  0  0
   34.0600   30.9290   34.3590 C   0  0  0  0  0  0  0  0  0  0  0  0
   33.8250   29.9000   33.4660 C   0  0  0  0  0  0  0  0  0  0  0  0
   32.5380   29.5010   33.3050 N   0  0  0  0  0  0  0  0  0  0  0  0
   31.5220   30.0920   33.9980 C   0  0  0  0  0  0  0  0  0  0  0  0
   31.7400   31.0750   34.8520 N   0  0  0  0  0  0  0  0  0  0  0  0
   35.0980   31.2010   34.4430 H   0  0  0  0  0  0  0  0  0  0  0  0
   30.4880   29.7840   33.8800 H   0  0  0  0  0  0  0  0  0  0  0  0
   33.4130   32.5300   35.9060 O   0  0  0  0  0  0  0  0  0  0  0  0
   33.7900   32.3180   37.2350 C   0  0  0  0  0  0  0  0  0  0  0  0
   33.6190   33.4540   38.0170 F   0  0  0  0  0  0  0  0  0  0  0  0
   35.0900   31.8940   37.2680 F   0  0  0  0  0  0  0  0  0  0  0  0
   33.0020   31.2970   37.7610 F   0  0  0  0  0  0  0  0  0  0  0  0
  1 28  1  0  0  0  0
  2  6  1  0  0  0  0
  2  1  1  0  0  0  0
  3  2  2  0  0  0  0
  4  3  1  0  0  0  0
  4  5  1  0  0  0  0
  5  1  2  0  0  0  0
  7  3  1  0  0  0  0
  8 13  1  6  0  0  0
  8 19  1  0  0  0  0
  9 14  1  6  0  0  0
  9  4  1  0  0  0  0
  9  8  1  0  0  0  0
 10  9  1  0  0  0  0
 10 16  1  0  0  0  0
 11 10  1  0  0  0  0
 11 12  1  0  0  0  0
 12  8  1  0  0  0  0
 12 18  1  0  0  0  0
 15 10  1  0  0  0  0
 17 12  1  0  0  0  0
 20 21  1  0  0  0  0
 21 25  1  0  0  0  0
 21 22  1  0  0  0  0
 22 23  1  0  0  0  0
 24 23  1  0  0  0  0
 25 19  1  6  0  0  0
 25 24  1  0  0  0  0
 26 34  1  0  0  0  0
 27 32  1  0  0  0  0
 27 26  2  0  0  0  0
 28 27  1  0  0  0  0
 29 28  2  0  0  0  0
 29 30  1  0  0  0  0
 30 31  2  0  0  0  0
 31 26  1  0  0  0  0
 33 30  1  0  0  0  0
 34 35  1  0  0  0  0
 35 37  1  0  0  0  0
 35 38  1  0  0  0  0
 35 36  1  0  0  0  0
M  END
>  <minimizedAffinity>
-5.70139074

$$$$

 OpenBabel03272503433D

 38 41  0  0  1  0  0  0  0  0999 V2000
   35.1800   30.2040   34.6780 C   0  0  0  0  0  0  0  0  0  0  0  0
   35.8320   30.9600   35.6110 C   0  0  0  0  0  0  0  0  0  0  0  0
   34.8900   31.9220   36.0020 C   0  0  0  0  0  0  0  0  0  0  0  0
   33.7500   31.7320   35.3280 N   0  0  0  0  0  0  0  0  0  0  0  0
   33.9240   30.6760   34.5130 N   0  0  0  0  0  0  0  0  0  0  0  0
   36.8490   30.8860   36.0070 H   0  0  0  0  0  0  0  0  0  0  0  0
   35.1340   32.6820   36.7550 H   0  0  0  0  0  0  0  0  0  0  0  0
   31.3450   31.7040   35.7360 C   0  0  2  0  0  0  0  0  0  0  0  0
   32.5850   32.5590   35.5030 C   0  0  1  0  0  0  0  0  0  0  0  0
   32.5960   33.3070   36.8160 C   0  0  0  0  0  0  0  0  0  0  0  0
   31.2870   33.5300   37.1750 O   0  0  0  0  0  0  0  0  0  0  0  0
   30.4630   32.7860   36.3860 C   0  0  0  0  0  0  0  0  0  0  0  0
   30.8970   31.3050   34.8340 H   0  0  0  0  0  0  0  0  0  0  0  0
   32.4730   33.2670   34.6870 H   0  0  0  0  0  0  0  0  0  0  0  0
   33.1790   34.2620   36.6840 H   0  0  0  0  0  0  0  0  0  0  0  0
   33.0690   32.6260   37.5530 H   0  0  0  0  0  0  0  0  0  0  0  0
   29.9810   33.3720   35.5580 H   0  0  0  0  0  0  0  0  0  0  0  0
   29.6490   32.2630   36.9500 H   0  0  0  0  0  0  0  0  0  0  0  0
   31.6800   30.7550   36.6860 O   0  0  0  0  0  0  0  0  0  0  0  0
   32.4610   28.4470   35.3730 H   0  0  0  0  0  0  0  0  0  0  0  0
   31.4900   28.8400   35.2860 N   0  0  0  0  0  0  0  0  0  0  0  0
   30.6120   27.6650   35.4220 C   0  0  0  0  0  2  0  0  0  0  0  0
   31.0450   27.2070   36.8210 C   0  0  0  0  0  2  0  0  0  0  0  0
   31.4200   28.5020   37.5550 C   0  0  0  0  0  2  0  0  0  0  0  0
   31.1350   29.5280   36.5000 C   0  0  1  0  0  3  0  0  0  0  0  0
   37.1050   27.0990   33.8330 C   0  0  0  0  0  0  0  0  0  0  0  0
   36.5990   28.1660   34.5670 C   0  0  0  0  0  0  0  0  0  0  0  0
   35.7410   29.0750   33.9760 C   0  0  0  0  0  0  0  0  0  0  0  0
   35.4280   28.8720   32.6700 N   0  0  0  0  0  0  0  0  0  0  0  0
   35.9400   27.8160   31.9750 C   0  0  0  0  0  0  0  0  0  0  0  0
   36.7600   26.9450   32.5340 N   0  0  0  0  0  0  0  0  0  0  0  0
   36.8100   28.3780   35.6010 H   0  0  0  0  0  0  0  0  0  0  0  0
   35.6990   27.6420   30.9320 H   0  0  0  0  0  0  0  0  0  0  0  0
   37.9510   26.2820   34.5770 O   0  0  0  0  0  0  0  0  0  0  0  0
   39.2050   26.6870   35.0420 C   0  0  0  0  0  0  0  0  0  0  0  0
   39.1160   27.4200   36.2200 F   0  0  0  0  0  0  0  0  0  0  0  0
   39.8320   27.4090   34.0640 F   0  0  0  0  0  0  0  0  0  0  0  0
   39.9730   25.5520   35.2860 F   0  0  0  0  0  0  0  0  0  0  0  0
  1  2  1  0  0  0  0
  2  3  2  0  0  0  0
  2  6  1  0  0  0  0
  3  7  1  0  0  0  0
  4  9  1  0  0  0  0
  4  3  1  0  0  0  0
  5  1  2  0  0  0  0
  5  4  1  0  0  0  0
  8 13  1  6  0  0  0
  8 12  1  0  0  0  0
  8 19  1  0  0  0  0
  9 14  1  6  0  0  0
  9  8  1  0  0  0  0
  9 10  1  0  0  0  0
 10 11  1  0  0  0  0
 10 16  1  0  0  0  0
 12 18  1  0  0  0  0
 12 11  1  0  0  0  0
 15 10  1  0  0  0  0
 17 12  1  0  0  0  0
 21 20  1  0  0  0  0
 21 22  1  0  0  0  0
 21 25  1  0  0  0  0
 22 23  1  0  0  0  0
 23 24  1  0  0  0  0
 25 19  1  1  0  0  0
 25 24  1  0  0  0  0
 26 27  1  0  0  0  0
 26 34  1  0  0  0  0
 27 32  1  0  0  0  0
 28 27  2  0  0  0  0
 28  1  1  0  0  0  0
 29 28  1  0  0  0  0
 30 31  1  0  0  0  0
 30 29  2  0  0  0  0
 31 26  2  0  0  0  0
 33 30  1  0  0  0  0
 34 35  1  0  0  0  0
 35 38  1  0  0  0  0
 35 36  1  0  0  0  0
 37 35  1  0  0  0  0
M  END
>  <minimizedAffinity>
-5.63685369

$$$$

 OpenBabel03272503433D

 38 41  0  0  1  0  0  0  0  0999 V2000
   36.3380   28.4200   31.5930 C   0  0  0  0  0  0  0  0  0  0  0  0
   37.5700   28.4700   31.0030 C   0  0  0  0  0  0  0  0  0  0  0  0
   37.8810   27.1310   30.7300 C   0  0  0  0  0  0  0  0  0  0  0  0
   36.8790   26.3450   31.1430 N   0  0  0  0  0  0  0  0  0  0  0  0
   35.9280   27.1350   31.6730 N   0  0  0  0  0  0  0  0  0  0  0  0
   38.2150   29.3210   30.7690 H   0  0  0  0  0  0  0  0  0  0  0  0
   38.8270   26.8550   30.2480 H   0  0  0  0  0  0  0  0  0  0  0  0
   37.6350   24.2640   32.1680 C   0  0  2  0  0  0  0  0  0  0  0  0
   36.8940   24.9120   31.0040 C   0  0  1  0  0  0  0  0  0  0  0  0
   35.5330   24.2930   31.2260 C   0  0  0  0  0  0  0  0  0  0  0  0
   35.7330   23.0130   31.6890 O   0  0  0  0  0  0  0  0  0  0  0  0
   37.0420   22.8490   32.0320 C   0  0  0  0  0  0  0  0  0  0  0  0
   38.7130   24.2610   32.0690 H   0  0  0  0  0  0  0  0  0  0  0  0
   37.2720   24.6120   30.0310 H   0  0  0  0  0  0  0  0  0  0  0  0
   34.9610   24.3200   30.2570 H   0  0  0  0  0  0  0  0  0  0  0  0
   35.0470   24.8990   32.0180 H   0  0  0  0  0  0  0  0  0  0  0  0
   37.6450   22.3020   31.2590 H   0  0  0  0  0  0  0  0  0  0  0  0
   37.1890   22.3270   33.0120 H   0  0  0  0  0  0  0  0  0  0  0  0
   37.1600   24.8500   33.3270 O   0  0  0  0  0  0  0  0  0  0  0  0
   39.4420   26.3820   33.0040 H   0  0  0  0  0  0  0  0  0  0  0  0
   39.4250   25.5230   33.6080 N   0  0  0  0  0  0  0  0  0  0  0  0
   40.1360   25.9280   34.8340 C   0  0  0  0  0  2  0  0  0  0  0  0
   39.2250   27.0870   35.2620 C   0  0  0  0  0  2  0  0  0  0  0  0
   37.8270   26.6800   34.7780 C   0  0  0  0  0  2  0  0  0  0  0  0
   38.1080   25.3440   34.1600 C   0  0  1  0  0  3  0  0  0  0  0  0
   34.6340   30.9430   33.7810 C   0  0  0  0  0  0  0  0  0  0  0  0
   35.3660   29.8260   33.3980 C   0  0  0  0  0  0  0  0  0  0  0  0
   35.5870   29.5610   32.0590 C   0  0  0  0  0  0  0  0  0  0  0  0
   35.0600   30.4320   31.1610 N   0  0  0  0  0  0  0  0  0  0  0  0
   34.3440   31.5210   31.5670 C   0  0  0  0  0  0  0  0  0  0  0  0
   34.1310   31.7790   32.8430 N   0  0  0  0  0  0  0  0  0  0  0  0
   35.8080   29.1020   34.0610 H   0  0  0  0  0  0  0  0  0  0  0  0
   33.9180   32.2250   30.8600 H   0  0  0  0  0  0  0  0  0  0  0  0
   34.5070   31.0610   35.1620 O   0  0  0  0  0  0  0  0  0  0  0  0
   35.4710   31.6560   35.9800 C   0  0  0  0  0  0  0  0  0  0  0  0
   36.6370   30.9020   36.0510 F   0  0  0  0  0  0  0  0  0  0  0  0
   34.9400   31.8520   37.2250 F   0  0  0  0  0  0  0  0  0  0  0  0
   35.7850   32.9070   35.4550 F   0  0  0  0  0  0  0  0  0  0  0  0
  1  5  2  0  0  0  0
  1 28  1  0  0  0  0
  2  1  1  0  0  0  0
  3  2  2  0  0  0  0
  3  4  1  0  0  0  0
  4  5  1  0  0  0  0
  6  2  1  0  0  0  0
  7  3  1  0  0  0  0
  8 13  1  6  0  0  0
  8 19  1  0  0  0  0
  9 14  1  6  0  0  0
  9  4  1  0  0  0  0
  9 10  1  0  0  0  0
  9  8  1  0  0  0  0
 10 11  1  0  0  0  0
 10 16  1  0  0  0  0
 11 12  1  0  0  0  0
 12  8  1  0  0  0  0
 12 18  1  0  0  0  0
 15 10  1  0  0  0  0
 17 12  1  0  0  0  0
 20 21  1  0  0  0  0
 21 25  1  0  0  0  0
 21 22  1  0  0  0  0
 22 23  1  0  0  0  0
 24 23  1  0  0  0  0
 25 19  1  6  0  0  0
 25 24  1  0  0  0  0
 26 34  1  0  0  0  0
 27 26  1  0  0  0  0
 27 32  1  0  0  0  0
 28 27  2  0  0  0  0
 29 30  2  0  0  0  0
 29 28  1  0  0  0  0
 30 31  1  0  0  0  0
 31 26  2  0  0  0  0
 33 30  1  0  0  0  0
 34 35  1  0  0  0  0
 35 36  1  0  0  0  0
 35 37  1  0  0  0  0
 38 35  1  0  0  0  0
M  END
>  <minimizedAffinity>
-5.50515652

$$$$

 OpenBabel03272503433D

 38 41  0  0  1  0  0  0  0  0999 V2000
   38.0380   25.8220   35.1120 C   0  0  0  0  0  0  0  0  0  0  0  0
   37.0350   26.7440   35.2220 C   0  0  0  0  0  0  0  0  0  0  0  0
   37.0890   27.4630   34.0200 C   0  0  0  0  0  0  0  0  0  0  0  0
   38.0750   26.9820   33.2540 N   0  0  0  0  0  0  0  0  0  0  0  0
   38.6610   25.9720   33.9220 N   0  0  0  0  0  0  0  0  0  0  0  0
   36.3210   26.9300   36.0290 H   0  0  0  0  0  0  0  0  0  0  0  0
   36.3900   28.2840   33.8190 H   0  0  0  0  0  0  0  0  0  0  0  0
   38.1340   26.4670   30.8700 C   0  0  2  0  0  0  0  0  0  0  0  0
   38.3880   27.5100   31.9510 C   0  0  1  0  0  0  0  0  0  0  0  0
   37.3980   28.5570   31.4960 C   0  0  0  0  0  0  0  0  0  0  0  0
   37.3780   28.5350   30.1210 O   0  0  0  0  0  0  0  0  0  0  0  0
   38.0330   27.4280   29.6710 C   0  0  0  0  0  0  0  0  0  0  0  0
   38.9320   25.7460   30.7430 H   0  0  0  0  0  0  0  0  0  0  0  0
   39.3910   27.9260   31.9230 H   0  0  0  0  0  0  0  0  0  0  0  0
   37.7120   29.5570   31.9090 H   0  0  0  0  0  0  0  0  0  0  0  0
   36.4100   28.2340   31.8830 H   0  0  0  0  0  0  0  0  0  0  0  0
   39.0780   27.6360   29.3150 H   0  0  0  0  0  0  0  0  0  0  0  0
   37.4960   26.8880   28.8500 H   0  0  0  0  0  0  0  0  0  0  0  0
   36.8900   25.9170   31.1220 O   0  0  0  0  0  0  0  0  0  0  0  0
   37.5540   23.7540   32.7150 H   0  0  0  0  0  0  0  0  0  0  0  0
   37.7970   23.7920   31.6940 N   0  0  0  0  0  0  0  0  0  0  0  0
   37.4410   22.4550   31.1860 C   0  0  0  0  0  2  0  0  0  0  0  0
   35.9480   22.4600   31.5370 C   0  0  0  0  0  2  0  0  0  0  0  0
   35.5240   23.9300   31.4130 C   0  0  0  0  0  2  0  0  0  0  0  0
   36.8120   24.5700   30.9900 C   0  0  1  0  0  3  0  0  0  0  0  0
   39.5420   22.8750   36.8760 C   0  0  0  0  0  0  0  0  0  0  0  0
   39.2510   23.7890   35.8700 C   0  0  0  0  0  0  0  0  0  0  0  0
   38.3840   24.8380   36.1100 C   0  0  0  0  0  0  0  0  0  0  0  0
   37.8450   24.9240   37.3530 N   0  0  0  0  0  0  0  0  0  0  0  0
   38.1480   24.0110   38.3210 C   0  0  0  0  0  0  0  0  0  0  0  0
   38.9760   23.0080   38.0980 N   0  0  0  0  0  0  0  0  0  0  0  0
   39.6460   23.7730   34.8690 H   0  0  0  0  0  0  0  0  0  0  0  0
   37.7250   24.0670   39.3190 H   0  0  0  0  0  0  0  0  0  0  0  0
   40.4300   21.8850   36.4690 O   0  0  0  0  0  0  0  0  0  0  0  0
   41.7340   21.7650   36.9590 C   0  0  0  0  0  0  0  0  0  0  0  0
   41.7900   21.0040   38.1210 F   0  0  0  0  0  0  0  0  0  0  0  0
   42.2480   23.0150   37.1690 F   0  0  0  0  0  0  0  0  0  0  0  0
   42.5170   21.1470   35.9880 F   0  0  0  0  0  0  0  0  0  0  0  0
  1  2  1  0  0  0  0
  1 28  1  0  0  0  0
  2  6  1  0  0  0  0
  3  2  2  0  0  0  0
  4  5  1  0  0  0  0
  4  3  1  0  0  0  0
  5  1  2  0  0  0  0
  7  3  1  0  0  0  0
  8 13  1  6  0  0  0
  8 19  1  0  0  0  0
  8  9  1  0  0  0  0
  9 14  1  6  0  0  0
  9  4  1  0  0  0  0
 10 16  1  0  0  0  0
 10 15  1  0  0  0  0
 10  9  1  0  0  0  0
 11 10  1  0  0  0  0
 12 11  1  0  0  0  0
 12  8  1  0  0  0  0
 17 12  1  0  0  0  0
 18 12  1  0  0  0  0
 21 20  1  0  0  0  0
 22 23  1  0  0  0  0
 22 21  1  0  0  0  0
 24 23  1  0  0  0  0
 25 19  1  1  0  0  0
 25 24  1  0  0  0  0
 25 21  1  0  0  0  0
 26 31  1  0  0  0  0
 27 28  1  0  0  0  0
 27 26  2  0  0  0  0
 28 29  2  0  0  0  0
 29 30  1  0  0  0  0
 30 33  1  0  0  0  0
 31 30  2  0  0  0  0
 32 27  1  0  0  0  0
 34 26  1  0  0  0  0
 34 35  1  0  0  0  0
 35 37  1  0  0  0  0
 35 36  1  0  0  0  0
 38 35  1  0  0  0  0
M  END
>  <minimizedAffinity>
-5.50499105

$$$$

 OpenBabel03272503433D

 38 41  0  0  1  0  0  0  0  0999 V2000
   36.9880   27.6050   33.8670 C   0  0  0  0  0  0  0  0  0  0  0  0
   36.8760   27.8530   32.5280 C   0  0  0  0  0  0  0  0  0  0  0  0
   35.8000   28.7450   32.4260 C   0  0  0  0  0  0  0  0  0  0  0  0
   35.3120   29.0000   33.6460 N   0  0  0  0  0  0  0  0  0  0  0  0
   36.0410   28.3010   34.5350 N   0  0  0  0  0  0  0  0  0  0  0  0
   37.4580   27.4770   31.6810 H   0  0  0  0  0  0  0  0  0  0  0  0
   35.4700   29.1280   31.4520 H   0  0  0  0  0  0  0  0  0  0  0  0
   34.6560   31.1540   34.5830 C   0  0  2  0  0  0  0  0  0  0  0  0
   34.1990   29.8820   33.8800 C   0  0  1  0  0  0  0  0  0  0  0  0
   33.6710   30.5010   32.6060 C   0  0  0  0  0  0  0  0  0  0  0  0
   33.1070   31.7110   32.9390 O   0  0  0  0  0  0  0  0  0  0  0  0
   33.4510   32.0410   34.2150 C   0  0  0  0  0  0  0  0  0  0  0  0
   34.7740   31.0580   35.6550 H   0  0  0  0  0  0  0  0  0  0  0  0
   33.3890   29.3720   34.3940 H   0  0  0  0  0  0  0  0  0  0  0  0
   32.9320   29.7930   32.1370 H   0  0  0  0  0  0  0  0  0  0  0  0
   34.5560   30.6740   31.9600 H   0  0  0  0  0  0  0  0  0  0  0  0
   32.6410   31.8400   34.9670 H   0  0  0  0  0  0  0  0  0  0  0  0
   33.7700   33.1080   34.3360 H   0  0  0  0  0  0  0  0  0  0  0  0
   35.7780   31.6060   33.9130 O   0  0  0  0  0  0  0  0  0  0  0  0
   37.7990   32.7290   35.4350 H   0  0  0  0  0  0  0  0  0  0  0  0
   36.8060   33.0700   35.4830 N   0  0  0  0  0  0  0  0  0  0  0  0
   36.9260   34.5380   35.4540 C   0  0  0  0  0  2  0  0  0  0  0  0
   37.6400   34.6900   34.1040 C   0  0  0  0  0  2  0  0  0  0  0  0
   37.1170   33.5240   33.2550 C   0  0  0  0  0  2  0  0  0  0  0  0
   36.1630   32.8720   34.2110 C   0  0  1  0  0  3  0  0  0  0  0  0
   38.6140   24.8690   35.8470 C   0  0  0  0  0  0  0  0  0  0  0  0
   37.6240   25.6680   35.2890 C   0  0  0  0  0  0  0  0  0  0  0  0
   37.9640   26.7360   34.4790 C   0  0  0  0  0  0  0  0  0  0  0  0
   39.2870   26.9550   34.2650 N   0  0  0  0  0  0  0  0  0  0  0  0
   40.2370   26.1530   34.8280 C   0  0  0  0  0  0  0  0  0  0  0  0
   39.9190   25.1330   35.6020 N   0  0  0  0  0  0  0  0  0  0  0  0
   36.5640   25.5440   35.4210 H   0  0  0  0  0  0  0  0  0  0  0  0
   41.2970   26.3160   34.6660 H   0  0  0  0  0  0  0  0  0  0  0  0
   38.1030   23.8410   36.6340 O   0  0  0  0  0  0  0  0  0  0  0  0
   38.2270   23.7970   38.0250 C   0  0  0  0  0  0  0  0  0  0  0  0
   37.2910   22.9510   38.6090 F   0  0  0  0  0  0  0  0  0  0  0  0
   38.1160   25.0660   38.5230 F   0  0  0  0  0  0  0  0  0  0  0  0
   39.5010   23.3310   38.3410 F   0  0  0  0  0  0  0  0  0  0  0  0
  1 28  1  0  0  0  0
  1  5  2  0  0  0  0
  2  1  1  0  0  0  0
  3  2  2  0  0  0  0
  3  4  1  0  0  0  0
  4  9  1  0  0  0  0
  4  5  1  0  0  0  0
  6  2  1  0  0  0  0
  7  3  1  0  0  0  0
  8 13  1  1  0  0  0
  9 14  1  1  0  0  0
  9  8  1  0  0  0  0
 10 11  1  0  0  0  0
 10  9  1  0  0  0  0
 11 12  1  0  0  0  0
 12 18  1  0  0  0  0
 12  8  1  0  0  0  0
 12 17  1  0  0  0  0
 15 10  1  0  0  0  0
 16 10  1  0  0  0  0
 19  8  1  0  0  0  0
 20 21  1  0  0  0  0
 22 21  1  0  0  0  0
 23 22  1  0  0  0  0
 24 23  1  0  0  0  0
 24 25  1  0  0  0  0
 25 19  1  6  0  0  0
 25 21  1  0  0  0  0
 26 34  1  0  0  0  0
 27 32  1  0  0  0  0
 27 26  2  0  0  0  0
 28 27  1  0  0  0  0
 29 28  2  0  0  0  0
 29 30  1  0  0  0  0
 30 31  2  0  0  0  0
 31 26  1  0  0  0  0
 33 30  1  0  0  0  0
 34 35  1  0  0  0  0
 35 38  1  0  0  0  0
 35 37  1  0  0  0  0
 35 36  1  0  0  0  0
M  END
>  <minimizedAffinity>
-5.44817686

$$$$

 OpenBabel03272503433D

 38 41  0  0  1  0  0  0  0  0999 V2000
   39.8320   23.9620   33.2060 C   0  0  0  0  0  0  0  0  0  0  0  0
   40.3870   23.7070   31.9830 C   0  0  0  0  0  0  0  0  0  0  0  0
   39.4440   24.1860   31.0640 C   0  0  0  0  0  0  0  0  0  0  0  0
   38.3950   24.6920   31.7220 N   0  0  0  0  0  0  0  0  0  0  0  0
   38.6300   24.5570   33.0400 N   0  0  0  0  0  0  0  0  0  0  0  0
   41.3400   23.2420   31.7150 H   0  0  0  0  0  0  0  0  0  0  0  0
   39.6190   24.1160   29.9830 H   0  0  0  0  0  0  0  0  0  0  0  0
   36.1730   24.2130   30.8340 C   0  0  2  0  0  0  0  0  0  0  0  0
   37.2520   25.2660   31.0590 C   0  0  1  0  0  0  0  0  0  0  0  0
   36.4740   26.2040   31.9530 C   0  0  0  0  0  0  0  0  0  0  0  0
   35.1680   26.1950   31.5210 O   0  0  0  0  0  0  0  0  0  0  0  0
   34.9830   25.1720   30.6410 C   0  0  0  0  0  0  0  0  0  0  0  0
   36.3310   23.5850   29.9660 H   0  0  0  0  0  0  0  0  0  0  0  0
   37.5410   25.7890   30.1520 H   0  0  0  0  0  0  0  0  0  0  0  0
   36.9410   27.2270   31.8990 H   0  0  0  0  0  0  0  0  0  0  0  0
   36.5270   25.7710   32.9720 H   0  0  0  0  0  0  0  0  0  0  0  0
   34.9810   25.4960   29.5660 H   0  0  0  0  0  0  0  0  0  0  0  0
   34.0460   24.5850   30.8210 H   0  0  0  0  0  0  0  0  0  0  0  0
   36.0200   23.5280   32.0260 O   0  0  0  0  0  0  0  0  0  0  0  0
   36.9280   21.5370   33.7210 H   0  0  0  0  0  0  0  0  0  0  0  0
   37.2010   21.5770   32.7070 N   0  0  0  0  0  0  0  0  0  0  0  0
   37.0610   20.1870   32.2390 C   0  0  0  0  0  2  0  0  0  0  0  0
   35.5700   19.9870   32.5410 C   0  0  0  0  0  2  0  0  0  0  0  0
   34.9440   21.3740   32.3470 C   0  0  0  0  0  2  0  0  0  0  0  0
   36.1420   22.1810   31.9420 C   0  0  1  0  0  3  0  0  0  0  0  0
   40.3410   22.9650   36.7840 C   0  0  0  0  0  0  0  0  0  0  0  0
   39.7010   23.2540   35.5850 C   0  0  0  0  0  0  0  0  0  0  0  0
   40.4330   23.6470   34.4800 C   0  0  0  0  0  0  0  0  0  0  0  0
   41.7790   23.7330   34.6280 N   0  0  0  0  0  0  0  0  0  0  0  0
   42.3810   23.4430   35.8180 C   0  0  0  0  0  0  0  0  0  0  0  0
   41.6870   23.0670   36.8760 N   0  0  0  0  0  0  0  0  0  0  0  0
   38.6400   23.2050   35.4070 H   0  0  0  0  0  0  0  0  0  0  0  0
   43.4560   23.5070   35.9510 H   0  0  0  0  0  0  0  0  0  0  0  0
   39.4600   22.5860   37.7920 O   0  0  0  0  0  0  0  0  0  0  0  0
   38.6690   23.4890   38.5070 C   0  0  0  0  0  0  0  0  0  0  0  0
   38.3130   24.5940   37.7440 F   0  0  0  0  0  0  0  0  0  0  0  0
   39.3380   23.8710   39.6370 F   0  0  0  0  0  0  0  0  0  0  0  0
   37.5060   22.8360   38.9080 F   0  0  0  0  0  0  0  0  0  0  0  0
  1 28  1  0  0  0  0
  2  1  1  0  0  0  0
  3  4  1  0  0  0  0
  3  2  2  0  0  0  0
  4  5  1  0  0  0  0
  5  1  2  0  0  0  0
  6  2  1  0  0  0  0
  7  3  1  0  0  0  0
  8 13  1  6  0  0  0
  8  9  1  0  0  0  0
  8 19  1  0  0  0  0
  9 14  1  6  0  0  0
  9  4  1  0  0  0  0
  9 10  1  0  0  0  0
 10 16  1  0  0  0  0
 11 10  1  0  0  0  0
 12 18  1  0  0  0  0
 12  8  1  0  0  0  0
 12 11  1  0  0  0  0
 15 10  1  0  0  0  0
 17 12  1  0  0  0  0
 21 20  1  0  0  0  0
 22 23  1  0  0  0  0
 22 21  1  0  0  0  0
 24 23  1  0  0  0  0
 25 19  1  1  0  0  0
 25 24  1  0  0  0  0
 25 21  1  0  0  0  0
 26 31  1  0  0  0  0
 26 34  1  0  0  0  0
 27 26  2  0  0  0  0
 28 29  2  0  0  0  0
 28 27  1  0  0  0  0
 29 30  1  0  0  0  0
 30 33  1  0  0  0  0
 30 31  2  0  0  0  0
 32 27  1  0  0  0  0
 34 35  1  0  0  0  0
 35 38  1  0  0  0  0
 35 37  1  0  0  0  0
 36 35  1  0  0  0  0
M  END
>  <minimizedAffinity>
-5.44451284

$$$$

 OpenBabel03272503433D

 38 41  0  0  1  0  0  0  0  0999 V2000
   38.0240   25.1450   32.9240 C   0  0  0  0  0  0  0  0  0  0  0  0
   37.8150   23.9690   32.2600 C   0  0  0  0  0  0  0  0  0  0  0  0
   38.8950   23.1590   32.6350 C   0  0  0  0  0  0  0  0  0  0  0  0
   39.6900   23.8330   33.4740 N   0  0  0  0  0  0  0  0  0  0  0  0
   39.1580   25.0550   33.6550 N   0  0  0  0  0  0  0  0  0  0  0  0
   37.0130   23.6660   31.5800 H   0  0  0  0  0  0  0  0  0  0  0  0
   38.9970   22.1360   32.2510 H   0  0  0  0  0  0  0  0  0  0  0  0
   40.7260   23.0510   35.5400 C   0  0  2  0  0  0  0  0  0  0  0  0
   40.8890   23.2740   34.0410 C   0  0  1  0  0  0  0  0  0  0  0  0
   41.1170   21.8400   33.6200 C   0  0  0  0  0  0  0  0  0  0  0  0
   41.8370   21.2270   34.6190 O   0  0  0  0  0  0  0  0  0  0  0  0
   41.8590   22.0240   35.7240 C   0  0  0  0  0  0  0  0  0  0  0  0
   40.8790   23.9350   36.1460 H   0  0  0  0  0  0  0  0  0  0  0  0
   41.7630   23.8670   33.7860 H   0  0  0  0  0  0  0  0  0  0  0  0
   41.6560   21.8340   32.6310 H   0  0  0  0  0  0  0  0  0  0  0  0
   40.1120   21.3770   33.5540 H   0  0  0  0  0  0  0  0  0  0  0  0
   42.8170   22.5950   35.8490 H   0  0  0  0  0  0  0  0  0  0  0  0
   41.6630   21.4740   36.6800 H   0  0  0  0  0  0  0  0  0  0  0  0
   39.5060   22.4250   35.7250 O   0  0  0  0  0  0  0  0  0  0  0  0
   40.1330   23.4940   38.2000 H   0  0  0  0  0  0  0  0  0  0  0  0
   39.4170   22.7340   38.0830 N   0  0  0  0  0  0  0  0  0  0  0  0
   38.2900   23.1650   38.9290 C   0  0  0  0  0  2  0  0  0  0  0  0
   37.9850   24.5060   38.2480 C   0  0  0  0  0  2  0  0  0  0  0  0
   38.3470   24.2850   36.7740 C   0  0  0  0  0  2  0  0  0  0  0  0
   38.7890   22.8520   36.7930 C   0  0  1  0  0  3  0  0  0  0  0  0
   36.2560   28.3490   33.7400 C   0  0  0  0  0  0  0  0  0  0  0  0
   37.0990   27.2520   33.8650 C   0  0  0  0  0  0  0  0  0  0  0  0
   37.1700   26.3070   32.8580 C   0  0  0  0  0  0  0  0  0  0  0  0
   36.3880   26.5060   31.7670 N   0  0  0  0  0  0  0  0  0  0  0  0
   35.5680   27.5920   31.6720 C   0  0  0  0  0  0  0  0  0  0  0  0
   35.4970   28.4980   32.6290 N   0  0  0  0  0  0  0  0  0  0  0  0
   37.7410   27.0410   34.7030 H   0  0  0  0  0  0  0  0  0  0  0  0
   34.9380   27.7640   30.8050 H   0  0  0  0  0  0  0  0  0  0  0  0
   36.3050   29.2000   34.8390 O   0  0  0  0  0  0  0  0  0  0  0  0
   35.6150   30.4140   34.9090 C   0  0  0  0  0  0  0  0  0  0  0  0
   34.2370   30.2330   34.9290 F   0  0  0  0  0  0  0  0  0  0  0  0
   35.9890   31.2010   33.8560 F   0  0  0  0  0  0  0  0  0  0  0  0
   35.9910   31.0690   36.0790 F   0  0  0  0  0  0  0  0  0  0  0  0
  1  5  2  0  0  0  0
  2  3  2  0  0  0  0
  2  1  1  0  0  0  0
  3  4  1  0  0  0  0
  4  5  1  0  0  0  0
  4  9  1  0  0  0  0
  6  2  1  0  0  0  0
  7  3  1  0  0  0  0
  8 12  1  0  0  0  0
  8 19  1  0  0  0  0
  8 13  1  1  0  0  0
  9 14  1  6  0  0  0
  9  8  1  0  0  0  0
 10  9  1  0  0  0  0
 10 11  1  0  0  0  0
 11 12  1  0  0  0  0
 12 17  1  0  0  0  0
 12 18  1  0  0  0  0
 15 10  1  0  0  0  0
 16 10  1  0  0  0  0
 21 20  1  0  0  0  0
 21 22  1  0  0  0  0
 23 22  1  0  0  0  0
 24 25  1  0  0  0  0
 24 23  1  0  0  0  0
 25 19  1  6  0  0  0
 25 21  1  0  0  0  0
 26 27  1  0  0  0  0
 26 34  1  0  0  0  0
 27 32  1  0  0  0  0
 28  1  1  0  0  0  0
 28 27  2  0  0  0  0
 29 28  1  0  0  0  0
 30 29  2  0  0  0  0
 30 31  1  0  0  0  0
 31 26  2  0  0  0  0
 33 30  1  0  0  0  0
 34 35  1  0  0  0  0
 35 36  1  0  0  0  0
 35 38  1  0  0  0  0
 37 35  1  0  0  0  0
M  END
>  <minimizedAffinity>
-5.4310813

$$$$
