
     RDKit          3D

 23 24  0  0  0  0  0  0  0  0999 V2000
   37.3284   30.2338   51.4267 C   0  0  0  0  0  0  0  0  0  0  0  0
   38.0812   30.7385   50.3410 C   0  0  0  0  0  0  0  0  0  0  0  0
   37.6985   30.3731   49.0391 C   0  0  0  0  0  0  0  0  0  0  0  0
   36.6119   29.5440   48.8950 N   0  0  0  0  0  0  0  0  0  0  0  0
   35.9218   29.0860   49.9710 C   0  0  0  0  0  0  0  0  0  0  0  0
   36.2736   29.4253   51.2257 N   0  0  0  0  0  0  0  0  0  0  0  0
   34.8764   28.2742   49.5905 O   0  0  0  0  0  0  0  0  0  0  0  0
   37.5421   30.4554   52.4532 H   0  0  0  0  0  0  0  0  0  0  0  0
   38.9004   31.3714   50.5838 H   0  0  0  0  0  0  0  0  0  0  0  0
   38.2696   30.7567   48.2266 H   0  0  0  0  0  0  0  0  0  0  0  0
   33.5834   29.7211   51.1177 H   0  0  0  0  0  0  0  0  0  0  0  0
   33.4013   28.7333   51.4140 N   0  0  0  0  0  0  0  0  0  0  0  0
   31.9900   28.4432   51.3764 C   0  0  0  0  0  0  0  0  0  0  0  0
   31.8221   27.7651   50.0416 C   0  0  0  0  0  0  0  0  0  0  0  0
   33.0424   26.8680   49.9797 C   0  0  0  0  0  0  0  0  0  0  0  0
   34.0900   27.7426   50.6505 C   0  0  1  0  0  0  0  0  0  0  0  0
   31.3853   29.3757   51.4490 H   0  0  0  0  0  0  0  0  0  0  0  0
   31.6992   27.7387   52.1907 H   0  0  0  0  0  0  0  0  0  0  0  0
   31.8530   28.4886   49.2193 H   0  0  0  0  0  0  0  0  0  0  0  0
   30.9032   27.1305   50.0286 H   0  0  0  0  0  0  0  0  0  0  0  0
   33.3040   26.5992   48.9377 H   0  0  0  0  0  0  0  0  0  0  0  0
   32.8602   25.9536   50.5735 H   0  0  0  0  0  0  0  0  0  0  0  0
   34.7525   27.1399   51.2953 H   0  0  0  0  0  0  0  0  0  0  0  0
  2  1  2  0
  3  2  1  0
  4  3  2  0
  4  5  1  0
  5  6  2  0
  6  1  1  0
  7  5  1  0
  1  8  1  0
  2  9  1  0
  3 10  1  0
 11 12  1  0
 12 13  1  0
 13 14  1  0
 14 15  1  0
 15 16  1  0
 16 12  1  0
 13 17  1  0
 13 18  1  0
 14 19  1  0
 14 20  1  0
 15 21  1  0
 15 22  1  0
 16 23  1  1
  7 16  1  0
M  ISO  4   8  14   9  14  10  14  11   5
M  END
>  <DihAtoms>  (1) 
4,6,15,14

>  <DihDeg>  (1) 
-118.62535022544014

$$$$
