
 OpenBabel03272504213D

 36 38  0  0  1  0  0  0  0  0999 V2000
   36.8260   31.5890   48.6870 O   0  0  0  0  0  0  0  0  0  0  0  0
   38.8090   32.4250   47.8060 C   0  0  2  0  0  0  0  0  0  0  0  0
   38.1890   31.3820   48.7140 C   0  0  1  0  0  0  0  0  0  0  0  0
   38.7530   31.8950   50.0490 C   0  0  0  0  0  0  0  0  0  0  0  0
   38.4180   33.2380   49.9850 O   0  0  0  0  0  0  0  0  0  0  0  0
   38.6360   33.6710   48.6850 C   0  0  0  0  0  0  0  0  0  0  0  0
   39.8830   32.2260   47.6340 H   0  0  0  0  0  0  0  0  0  0  0  0
   38.4970   30.3580   48.4980 H   0  0  0  0  0  0  0  0  0  0  0  0
   38.2230   31.4440   50.9170 H   0  0  0  0  0  0  0  0  0  0  0  0
   39.8200   31.7090   50.1310 H   0  0  0  0  0  0  0  0  0  0  0  0
   37.7260   34.1710   48.3220 H   0  0  0  0  0  0  0  0  0  0  0  0
   39.5550   34.2910   48.6190 H   0  0  0  0  0  0  0  0  0  0  0  0
   38.0650   32.4860   46.6480 O   0  0  0  0  0  0  0  0  0  0  0  0
   40.7750   32.9570   45.6560 H   0  0  0  0  0  0  0  0  0  0  0  0
   40.2120   32.0860   45.7590 N   0  0  0  0  0  0  0  0  0  0  0  0
   40.6150   31.2160   44.6470 C   0  0  0  0  0  2  0  0  0  0  0  0
   39.4790   30.2130   44.6510 C   0  0  0  0  0  2  0  0  0  0  0  0
   38.2830   31.1570   44.7400 C   0  0  0  0  0  2  0  0  0  0  0  0
   38.8020   32.3700   45.4840 C   0  0  1  0  0  3  0  0  0  0  0  0
   35.8630   29.8530   46.9990 O   0  0  0  0  0  0  0  0  0  0  0  0
   35.9450   30.1720   48.4650 P   0  0  1  0  0  0  0  0  0  0  0  0
   36.7540   28.8730   49.2440 O   0  0  0  0  0  0  0  0  0  0  0  0
   37.2320   28.3350   48.5840 H   0  0  0  0  0  0  0  0  0  0  0  0
   34.3910   30.3450   49.1290 O   0  0  0  0  0  0  0  0  0  0  0  0
   34.1270   29.1880   49.8390 C   0  0  0  0  0  0  0  0  0  0  0  0
   33.5440   29.5120   50.7420 H   0  0  0  0  0  0  0  0  0  0  0  0
   35.0640   28.6920   50.2090 H   0  0  0  0  0  0  0  0  0  0  0  0
   33.2670   28.2310   49.1080 C   0  0  0  0  0  0  0  0  0  0  0  0
   33.9020   27.3420   48.2730 C   0  0  0  0  0  0  0  0  0  0  0  0
   33.1470   26.4100   47.5560 C   0  0  0  0  0  0  0  0  0  0  0  0
   31.7950   26.4450   47.7330 N   0  0  0  0  0  0  0  0  0  0  0  0
   31.1970   27.3280   48.5570 C   0  0  0  0  0  0  0  0  0  0  0  0
   31.9320   28.2210   49.2460 N   0  0  0  0  0  0  0  0  0  0  0  0
   34.9520   27.2380   48.0690 H   0  0  0  0  0  0  0  0  0  0  0  0
   33.5670   25.6700   46.8720 H   0  0  0  0  0  0  0  0  0  0  0  0
   30.1210   27.3390   48.6860 H   0  0  0  0  0  0  0  0  0  0  0  0
  1  3  1  0  0  0  0
  2  7  1  6  0  0  0
  2  6  1  0  0  0  0
  2  3  1  0  0  0  0
  3  8  1  6  0  0  0
  3  4  1  0  0  0  0
  4 10  1  0  0  0  0
  4  9  1  0  0  0  0
  5  4  1  0  0  0  0
  6  5  1  0  0  0  0
 11  6  1  0  0  0  0
 12  6  1  0  0  0  0
 13  2  1  0  0  0  0
 14 15  1  0  0  0  0
 16 17  1  0  0  0  0
 16 15  1  0  0  0  0
 17 18  1  0  0  0  0
 18 19  1  0  0  0  0
 19 15  1  0  0  0  0
 19 13  1  1  0  0  0
 21 20  2  6  0  0  0
 21  1  1  0  0  0  0
 21 24  1  0  0  0  0
 21 22  1  0  0  0  0
 23 22  1  0  0  0  0
 24 25  1  0  0  0  0
 25 27  1  0  0  0  0
 25 26  1  0  0  0  0
 28 33  1  0  0  0  0
 28 25  1  0  0  0  0
 29 28  2  0  0  0  0
 30 31  2  0  0  0  0
 30 29  1  0  0  0  0
 31 32  1  0  0  0  0
 32 36  1  0  0  0  0
 32 33  2  0  0  0  0
 34 29  1  0  0  0  0
 35 30  1  0  0  0  0
M  END
>  <minimizedAffinity>
-4.59327078

>  <minimizedRMSD>
0.344601214

$$$$
