
 OpenBabel03272504223D

 36 38  0  0  1  0  0  0  0  0999 V2000
   36.8480   31.5930   48.6290 O   0  0  0  0  0  0  0  0  0  0  0  0
   38.8810   32.3990   47.8390 C   0  0  2  0  0  0  0  0  0  0  0  0
   38.2060   31.3820   48.7380 C   0  0  1  0  0  0  0  0  0  0  0  0
   38.6970   31.9270   50.0880 C   0  0  0  0  0  0  0  0  0  0  0  0
   38.3740   33.2690   49.9710 O   0  0  0  0  0  0  0  0  0  0  0  0
   38.6660   33.6670   48.6750 C   0  0  0  0  0  0  0  0  0  0  0  0
   39.9620   32.1910   47.7330 H   0  0  0  0  0  0  0  0  0  0  0  0
   38.5200   30.3510   48.5660 H   0  0  0  0  0  0  0  0  0  0  0  0
   38.1170   31.5010   50.9370 H   0  0  0  0  0  0  0  0  0  0  0  0
   39.7570   31.7390   50.2350 H   0  0  0  0  0  0  0  0  0  0  0  0
   37.7810   34.1620   48.2490 H   0  0  0  0  0  0  0  0  0  0  0  0
   39.5910   34.2820   48.6440 H   0  0  0  0  0  0  0  0  0  0  0  0
   38.2040   32.4320   46.6410 O   0  0  0  0  0  0  0  0  0  0  0  0
   38.4370   29.8030   45.3790 H   0  0  0  0  0  0  0  0  0  0  0  0
   38.0740   30.7160   45.0280 N   0  0  0  0  0  0  0  0  0  0  0  0
   38.4010   30.7520   43.5970 C   0  0  0  0  0  2  0  0  0  0  0  0
   38.2210   32.2280   43.3070 C   0  0  0  0  0  2  0  0  0  0  0  0
   38.9910   32.8330   44.4780 C   0  0  0  0  0  2  0  0  0  0  0  0
   38.8600   31.8150   45.5910 C   0  0  1  0  0  3  0  0  0  0  0  0
   35.9160   29.8390   46.9410 O   0  0  0  0  0  0  0  0  0  0  0  0
   35.9720   30.1730   48.4050 P   0  0  1  0  0  0  0  0  0  0  0  0
   36.7680   28.8830   49.2110 O   0  0  0  0  0  0  0  0  0  0  0  0
   37.2580   28.3390   48.5650 H   0  0  0  0  0  0  0  0  0  0  0  0
   34.4060   30.3510   49.0400 O   0  0  0  0  0  0  0  0  0  0  0  0
   34.1430   29.2150   49.7820 C   0  0  0  0  0  0  0  0  0  0  0  0
   33.5620   29.5640   50.6760 H   0  0  0  0  0  0  0  0  0  0  0  0
   35.0790   28.7280   50.1630 H   0  0  0  0  0  0  0  0  0  0  0  0
   33.2800   28.2390   49.0790 C   0  0  0  0  0  0  0  0  0  0  0  0
   33.9100   27.3430   48.2470 C   0  0  0  0  0  0  0  0  0  0  0  0
   33.1520   26.3950   47.5550 C   0  0  0  0  0  0  0  0  0  0  0  0
   31.8030   26.4190   47.7540 N   0  0  0  0  0  0  0  0  0  0  0  0
   31.2100   27.3080   48.5750 C   0  0  0  0  0  0  0  0  0  0  0  0
   31.9480   28.2190   49.2380 N   0  0  0  0  0  0  0  0  0  0  0  0
   34.9580   27.2460   48.0270 H   0  0  0  0  0  0  0  0  0  0  0  0
   33.5690   25.6490   46.8760 H   0  0  0  0  0  0  0  0  0  0  0  0
   30.1360   27.3110   48.7210 H   0  0  0  0  0  0  0  0  0  0  0  0
  1  3  1  0  0  0  0
  2  7  1  6  0  0  0
  2  6  1  0  0  0  0
  2  3  1  0  0  0  0
  3  8  1  6  0  0  0
  3  4  1  0  0  0  0
  4 10  1  0  0  0  0
  4  9  1  0  0  0  0
  5  4  1  0  0  0  0
  6  5  1  0  0  0  0
 11  6  1  0  0  0  0
 12  6  1  0  0  0  0
 13  2  1  0  0  0  0
 15 14  1  0  0  0  0
 15 19  1  0  0  0  0
 16 15  1  0  0  0  0
 17 16  1  0  0  0  0
 17 18  1  0  0  0  0
 18 19  1  0  0  0  0
 19 13  1  1  0  0  0
 21 20  2  6  0  0  0
 21  1  1  0  0  0  0
 21 24  1  0  0  0  0
 21 22  1  0  0  0  0
 23 22  1  0  0  0  0
 24 25  1  0  0  0  0
 25 27  1  0  0  0  0
 25 26  1  0  0  0  0
 28 33  1  0  0  0  0
 28 25  1  0  0  0  0
 29 28  2  0  0  0  0
 30 31  2  0  0  0  0
 30 29  1  0  0  0  0
 31 32  1  0  0  0  0
 32 36  1  0  0  0  0
 32 33  2  0  0  0  0
 34 29  1  0  0  0  0
 35 30  1  0  0  0  0
M  END
>  <minimizedAffinity>
-4.34529972

>  <minimizedRMSD>
0.322661072

$$$$
