
 OpenBabel03272504173D

 23 24  0  0  1  0  0  0  0  0999 V2000
   34.7060   30.7240   48.6330 O   0  0  0  0  0  0  0  0  0  0  0  0
   35.9040   30.7080   49.3410 C   0  0  0  0  0  0  0  0  0  0  0  0
   36.1680   29.9640   50.4820 C   0  0  0  0  0  0  0  0  0  0  0  0
   37.4150   30.0550   51.0760 C   0  0  0  0  0  0  0  0  0  0  0  0
   38.3540   30.8860   50.5080 N   0  0  0  0  0  0  0  0  0  0  0  0
   38.0560   31.6000   49.3890 C   0  0  0  0  0  0  0  0  0  0  0  0
   36.8350   31.5110   48.8070 N   0  0  0  0  0  0  0  0  0  0  0  0
   37.5740   29.4680   51.9490 H   0  0  0  0  0  0  0  0  0  0  0  0
   38.8130   32.2580   48.9450 H   0  0  0  0  0  0  0  0  0  0  0  0
   35.0890   29.1630   50.9300 N   0  0  0  0  0  0  0  0  0  0  0  0
   34.1080   29.4950   50.8780 H   0  0  0  0  0  0  0  0  0  0  0  0
   35.0950   28.1970   51.3470 H   0  0  0  0  0  0  0  0  0  0  0  0
   35.3740   29.8500   46.1950 O   0  0  0  0  0  0  0  0  0  0  0  0
   34.4030   29.6520   47.3230 P   0  0  1  0  0  0  0  0  0  0  0  0
   34.5000   28.0870   47.9730 O   0  0  0  0  0  0  0  0  0  0  0  0
   33.7500   27.5370   47.6180 H   0  0  0  0  0  0  0  0  0  0  0  0
   32.8570   29.9490   46.7020 O   0  0  0  0  0  0  0  0  0  0  0  0
   31.2020   27.3440   47.4260 H   0  0  0  0  0  0  0  0  0  0  0  0
   31.3360   28.3700   47.3060 N   0  0  0  0  0  0  0  0  0  0  0  0
   30.1270   29.0860   46.9850 C   0  0  0  0  0  0  0  0  0  0  0  0
   30.3720   29.8470   45.6990 C   0  0  0  0  0  0  0  0  0  0  0  0
   31.4710   28.9970   45.0800 C   0  0  0  0  0  0  0  0  0  0  0  0
   32.3190   28.7250   46.3060 C   0  0  1  0  0  0  0  0  0  0  0  0
  1  2  1  0  0  0  0
  2  3  1  0  0  0  0
  3 10  1  0  0  0  0
  3  4  2  0  0  0  0
  4  8  1  0  0  0  0
  5  4  1  0  0  0  0
  6  5  2  0  0  0  0
  7  2  2  0  0  0  0
  7  6  1  0  0  0  0
  9  6  1  0  0  0  0
 10 12  1  0  0  0  0
 11 10  1  0  0  0  0
 14 13  2  6  0  0  0
 14 15  1  0  0  0  0
 14  1  1  0  0  0  0
 16 15  1  0  0  0  0
 17 14  1  0  0  0  0
 19 18  1  0  0  0  0
 20 19  1  0  0  0  0
 21 20  1  0  0  0  0
 22 21  1  0  0  0  0
 22 23  1  0  0  0  0
 23 17  1  1  0  0  0
 23 19  1  0  0  0  0
M  END
>  <minimizedAffinity>
-3.94001055

>  <minimizedRMSD>
2.11102152

$$$$
