
 OpenBabel03272504223D

 36 38  0  0  1  0  0  0  0  0999 V2000
   36.8480   31.5980   48.6480 O   0  0  0  0  0  0  0  0  0  0  0  0
   38.8660   32.4240   47.8370 C   0  0  2  0  0  0  0  0  0  0  0  0
   38.2100   31.3910   48.7320 C   0  0  1  0  0  0  0  0  0  0  0  0
   38.7190   31.9190   50.0820 C   0  0  0  0  0  0  0  0  0  0  0  0
   38.3880   33.2610   49.9900 O   0  0  0  0  0  0  0  0  0  0  0  0
   38.6580   33.6790   48.6950 C   0  0  0  0  0  0  0  0  0  0  0  0
   39.9450   32.2230   47.7120 H   0  0  0  0  0  0  0  0  0  0  0  0
   38.5250   30.3640   48.5400 H   0  0  0  0  0  0  0  0  0  0  0  0
   38.1550   31.4770   50.9330 H   0  0  0  0  0  0  0  0  0  0  0  0
   39.7820   31.7330   50.2090 H   0  0  0  0  0  0  0  0  0  0  0  0
   37.7640   34.1750   48.2900 H   0  0  0  0  0  0  0  0  0  0  0  0
   39.5800   34.2980   48.6590 H   0  0  0  0  0  0  0  0  0  0  0  0
   38.1690   32.4710   46.6500 O   0  0  0  0  0  0  0  0  0  0  0  0
   37.9230   30.0250   45.0670 H   0  0  0  0  0  0  0  0  0  0  0  0
   37.8390   31.0320   44.8110 N   0  0  0  0  0  0  0  0  0  0  0  0
   38.3450   31.1400   43.4380 C   0  0  0  0  0  2  0  0  0  0  0  0
   38.5660   32.6360   43.3380 C   0  0  0  0  0  2  0  0  0  0  0  0
   39.3010   32.8920   44.6510 C   0  0  0  0  0  2  0  0  0  0  0  0
   38.7870   31.8260   45.5950 C   0  0  1  0  0  3  0  0  0  0  0  0
   35.9380   29.8550   46.9360 O   0  0  0  0  0  0  0  0  0  0  0  0
   35.9770   30.1780   48.4030 P   0  0  1  0  0  0  0  0  0  0  0  0
   36.7640   28.8820   49.2080 O   0  0  0  0  0  0  0  0  0  0  0  0
   37.2620   28.3440   48.5640 H   0  0  0  0  0  0  0  0  0  0  0  0
   34.4040   30.3510   49.0210 O   0  0  0  0  0  0  0  0  0  0  0  0
   34.1410   29.2180   49.7690 C   0  0  0  0  0  0  0  0  0  0  0  0
   33.5590   29.5720   50.6620 H   0  0  0  0  0  0  0  0  0  0  0  0
   35.0780   28.7340   50.1540 H   0  0  0  0  0  0  0  0  0  0  0  0
   33.2790   28.2370   49.0720 C   0  0  0  0  0  0  0  0  0  0  0  0
   33.9080   27.3420   48.2400 C   0  0  0  0  0  0  0  0  0  0  0  0
   33.1520   26.3890   47.5530 C   0  0  0  0  0  0  0  0  0  0  0  0
   31.8040   26.4100   47.7560 N   0  0  0  0  0  0  0  0  0  0  0  0
   31.2100   27.2990   48.5760 C   0  0  0  0  0  0  0  0  0  0  0  0
   31.9470   28.2140   49.2350 N   0  0  0  0  0  0  0  0  0  0  0  0
   34.9560   27.2480   48.0180 H   0  0  0  0  0  0  0  0  0  0  0  0
   33.5690   25.6430   46.8740 H   0  0  0  0  0  0  0  0  0  0  0  0
   30.1370   27.3000   48.7250 H   0  0  0  0  0  0  0  0  0  0  0  0
  1  3  1  0  0  0  0
  2  7  1  6  0  0  0
  2  6  1  0  0  0  0
  2  3  1  0  0  0  0
  3  8  1  6  0  0  0
  3  4  1  0  0  0  0
  4 10  1  0  0  0  0
  4  9  1  0  0  0  0
  5  4  1  0  0  0  0
  6  5  1  0  0  0  0
 11  6  1  0  0  0  0
 12  6  1  0  0  0  0
 13  2  1  0  0  0  0
 15 14  1  0  0  0  0
 15 19  1  0  0  0  0
 16 15  1  0  0  0  0
 17 16  1  0  0  0  0
 17 18  1  0  0  0  0
 18 19  1  0  0  0  0
 19 13  1  1  0  0  0
 21 20  2  6  0  0  0
 21  1  1  0  0  0  0
 21 24  1  0  0  0  0
 21 22  1  0  0  0  0
 23 22  1  0  0  0  0
 24 25  1  0  0  0  0
 25 27  1  0  0  0  0
 25 26  1  0  0  0  0
 28 33  1  0  0  0  0
 28 25  1  0  0  0  0
 29 28  2  0  0  0  0
 30 31  2  0  0  0  0
 30 29  1  0  0  0  0
 31 32  1  0  0  0  0
 32 36  1  0  0  0  0
 32 33  2  0  0  0  0
 34 29  1  0  0  0  0
 35 30  1  0  0  0  0
M  END
>  <minimizedAffinity>
-4.37836266

>  <minimizedRMSD>
0.327092648

$$$$
