
 OpenBabel03272504213D

 36 38  0  0  1  0  0  0  0  0999 V2000
   36.8150   31.5720   48.7560 O   0  0  0  0  0  0  0  0  0  0  0  0
   38.7730   32.4250   47.8360 C   0  0  2  0  0  0  0  0  0  0  0  0
   38.1800   31.3740   48.7530 C   0  0  1  0  0  0  0  0  0  0  0  0
   38.7690   31.8850   50.0770 C   0  0  0  0  0  0  0  0  0  0  0  0
   38.4230   33.2260   50.0260 O   0  0  0  0  0  0  0  0  0  0  0  0
   38.6100   33.6660   48.7240 C   0  0  0  0  0  0  0  0  0  0  0  0
   39.8440   32.2350   47.6410 H   0  0  0  0  0  0  0  0  0  0  0  0
   38.4900   30.3530   48.5260 H   0  0  0  0  0  0  0  0  0  0  0  0
   38.2610   31.4270   50.9550 H   0  0  0  0  0  0  0  0  0  0  0  0
   39.8380   31.7060   50.1350 H   0  0  0  0  0  0  0  0  0  0  0  0
   37.6890   34.1610   48.3830 H   0  0  0  0  0  0  0  0  0  0  0  0
   39.5230   34.2930   48.6410 H   0  0  0  0  0  0  0  0  0  0  0  0
   38.0040   32.4860   46.6950 O   0  0  0  0  0  0  0  0  0  0  0  0
   37.4590   32.0130   43.8600 H   0  0  0  0  0  0  0  0  0  0  0  0
   38.0600   32.7120   44.3480 N   0  0  0  0  0  0  0  0  0  0  0  0
   39.2050   32.9460   43.4590 C   0  0  0  0  0  2  0  0  0  0  0  0
   40.1690   33.6140   44.4170 C   0  0  0  0  0  2  0  0  0  0  0  0
   40.0650   32.6720   45.6130 C   0  0  0  0  0  2  0  0  0  0  0  0
   38.6610   32.1090   45.5380 C   0  0  1  0  0  3  0  0  0  0  0  0
   35.8860   29.8520   47.0310 O   0  0  0  0  0  0  0  0  0  0  0  0
   35.9400   30.1560   48.5020 P   0  0  1  0  0  0  0  0  0  0  0  0
   36.7360   28.8490   49.2820 O   0  0  0  0  0  0  0  0  0  0  0  0
   37.2270   28.3190   48.6250 H   0  0  0  0  0  0  0  0  0  0  0  0
   34.3740   30.3200   49.1380 O   0  0  0  0  0  0  0  0  0  0  0  0
   34.1040   29.1620   49.8430 C   0  0  0  0  0  0  0  0  0  0  0  0
   33.5190   29.4840   50.7450 H   0  0  0  0  0  0  0  0  0  0  0  0
   35.0370   28.6610   50.2140 H   0  0  0  0  0  0  0  0  0  0  0  0
   33.2420   28.2100   49.1060 C   0  0  0  0  0  0  0  0  0  0  0  0
   33.8760   27.3270   48.2640 C   0  0  0  0  0  0  0  0  0  0  0  0
   33.1200   26.4010   47.5400 C   0  0  0  0  0  0  0  0  0  0  0  0
   31.7680   26.4350   47.7190 N   0  0  0  0  0  0  0  0  0  0  0  0
   31.1710   27.3120   48.5500 C   0  0  0  0  0  0  0  0  0  0  0  0
   31.9070   28.2000   49.2450 N   0  0  0  0  0  0  0  0  0  0  0  0
   34.9260   27.2240   48.0580 H   0  0  0  0  0  0  0  0  0  0  0  0
   33.5390   25.6660   46.8510 H   0  0  0  0  0  0  0  0  0  0  0  0
   30.0950   27.3230   48.6800 H   0  0  0  0  0  0  0  0  0  0  0  0
  2  7  1  6  0  0  0
  2  6  1  0  0  0  0
  2  3  1  0  0  0  0
  3  8  1  6  0  0  0
  3  1  1  0  0  0  0
  3  4  1  0  0  0  0
  4 10  1  0  0  0  0
  4  9  1  0  0  0  0
  5  4  1  0  0  0  0
  6  5  1  0  0  0  0
 11  6  1  0  0  0  0
 12  6  1  0  0  0  0
 13  2  1  0  0  0  0
 14 15  1  0  0  0  0
 15 19  1  0  0  0  0
 16 15  1  0  0  0  0
 16 17  1  0  0  0  0
 17 18  1  0  0  0  0
 19 18  1  0  0  0  0
 19 13  1  1  0  0  0
 21 20  2  6  0  0  0
 21  1  1  0  0  0  0
 21 24  1  0  0  0  0
 21 22  1  0  0  0  0
 23 22  1  0  0  0  0
 24 25  1  0  0  0  0
 25 27  1  0  0  0  0
 25 26  1  0  0  0  0
 28 33  1  0  0  0  0
 28 25  1  0  0  0  0
 29 28  2  0  0  0  0
 30 31  2  0  0  0  0
 30 29  1  0  0  0  0
 31 32  1  0  0  0  0
 32 36  1  0  0  0  0
 32 33  2  0  0  0  0
 34 29  1  0  0  0  0
 35 30  1  0  0  0  0
M  END
>  <minimizedAffinity>
-4.85645199

>  <minimizedRMSD>
0.453729779

$$$$
