
 OpenBabel03272509453D

 16 17  0  0  1  0  0  0  0  0999 V2000
   38.1770   33.1360   49.0190 C   0  0  0  0  0  0  0  0  0  0  0  0
   38.8740   32.5520   47.9350 C   0  0  0  0  0  0  0  0  0  0  0  0
   38.6020   31.2120   47.6120 C   0  0  0  0  0  0  0  0  0  0  0  0
   37.6710   30.5430   48.3710 N   0  0  0  0  0  0  0  0  0  0  0  0
   37.0290   31.1480   49.4030 C   0  0  0  0  0  0  0  0  0  0  0  0
   37.2770   32.4320   49.7270 N   0  0  0  0  0  0  0  0  0  0  0  0
   38.3160   34.1480   49.3400 H   0  0  0  0  0  0  0  0  0  0  0  0
   39.5690   33.1760   47.4260 H   0  0  0  0  0  0  0  0  0  0  0  0
   39.1300   30.7800   46.7950 H   0  0  0  0  0  0  0  0  0  0  0  0
   36.1440   30.2900   50.0190 O   0  0  0  0  0  0  0  0  0  0  0  0
   35.6350   31.0030   47.7100 H   0  0  0  0  0  0  0  0  0  0  0  0
   34.7240   30.7270   48.1460 N   0  0  0  0  0  0  0  0  0  0  0  0
   34.0880   29.6840   47.3810 C   0  0  0  0  0  2  0  0  0  0  0  0
   34.4880   28.4340   48.1200 C   0  0  0  0  0  2  0  0  0  0  0  0
   34.3450   28.8570   49.5690 C   0  0  0  0  0  2  0  0  0  0  0  0
   34.8170   30.3010   49.5050 C   0  0  1  0  0  3  0  0  0  0  0  0
  1  7  1  0  0  0  0
  1  6  1  0  0  0  0
  2  1  2  0  0  0  0
  3  2  1  0  0  0  0
  3  4  2  0  0  0  0
  4  5  1  0  0  0  0
  5  6  2  0  0  0  0
  5 10  1  0  0  0  0
  8  2  1  0  0  0  0
  9  3  1  0  0  0  0
 11 12  1  0  0  0  0
 12 16  1  0  0  0  0
 13 14  1  0  0  0  0
 13 12  1  0  0  0  0
 14 15  1  0  0  0  0
 16 15  1  0  0  0  0
 16 10  1  6  0  0  0
M  END
>  <minimizedAffinity>
-4.13061857

>  <minimizedRMSD>
3.42000651

$$$$
