
 OpenBabel03272504213D

 36 38  0  0  1  0  0  0  0  0999 V2000
   36.7420   31.4530   48.8140 O   0  0  0  0  0  0  0  0  0  0  0  0
   38.6960   32.3450   47.9230 C   0  0  2  0  0  0  0  0  0  0  0  0
   38.1080   31.2580   48.8010 C   0  0  1  0  0  0  0  0  0  0  0  0
   38.6980   31.7210   50.1420 C   0  0  0  0  0  0  0  0  0  0  0  0
   38.3510   33.0620   50.1420 O   0  0  0  0  0  0  0  0  0  0  0  0
   38.5330   33.5510   48.8570 C   0  0  0  0  0  0  0  0  0  0  0  0
   39.7670   32.1640   47.7180 H   0  0  0  0  0  0  0  0  0  0  0  0
   38.4190   30.2470   48.5340 H   0  0  0  0  0  0  0  0  0  0  0  0
   38.1940   31.2280   51.0020 H   0  0  0  0  0  0  0  0  0  0  0  0
   39.7690   31.5420   50.1910 H   0  0  0  0  0  0  0  0  0  0  0  0
   37.6110   34.0570   48.5370 H   0  0  0  0  0  0  0  0  0  0  0  0
   39.4450   34.1820   48.7960 H   0  0  0  0  0  0  0  0  0  0  0  0
   37.9250   32.4470   46.7870 O   0  0  0  0  0  0  0  0  0  0  0  0
   37.4470   32.3360   43.9020 H   0  0  0  0  0  0  0  0  0  0  0  0
   38.1200   32.8880   44.4770 N   0  0  0  0  0  0  0  0  0  0  0  0
   39.3250   33.0350   43.6530 C   0  0  0  0  0  2  0  0  0  0  0  0
   40.3320   33.4580   44.7040 C   0  0  0  0  0  2  0  0  0  0  0  0
   40.0390   32.4290   45.7940 C   0  0  0  0  0  2  0  0  0  0  0  0
   38.5720   32.0910   45.6170 C   0  0  1  0  0  3  0  0  0  0  0  0
   35.8760   29.7430   47.0490 O   0  0  0  0  0  0  0  0  0  0  0  0
   35.8690   30.0440   48.5210 P   0  0  1  0  0  0  0  0  0  0  0  0
   36.6210   28.7310   49.3320 O   0  0  0  0  0  0  0  0  0  0  0  0
   37.1360   28.1980   48.6960 H   0  0  0  0  0  0  0  0  0  0  0  0
   34.2780   30.2190   49.0900 O   0  0  0  0  0  0  0  0  0  0  0  0
   33.9760   29.0690   49.7960 C   0  0  0  0  0  0  0  0  0  0  0  0
   33.3870   29.4070   50.6900 H   0  0  0  0  0  0  0  0  0  0  0  0
   34.8950   28.5510   50.1800 H   0  0  0  0  0  0  0  0  0  0  0  0
   33.1050   28.1320   49.0520 C   0  0  0  0  0  0  0  0  0  0  0  0
   33.7260   27.2700   48.1800 C   0  0  0  0  0  0  0  0  0  0  0  0
   32.9600   26.3590   47.4480 C   0  0  0  0  0  0  0  0  0  0  0  0
   31.6110   26.3850   47.6510 N   0  0  0  0  0  0  0  0  0  0  0  0
   31.0270   27.2410   48.5120 C   0  0  0  0  0  0  0  0  0  0  0  0
   31.7720   28.1150   49.2140 N   0  0  0  0  0  0  0  0  0  0  0  0
   34.7730   27.1750   47.9540 H   0  0  0  0  0  0  0  0  0  0  0  0
   33.3690   25.6410   46.7350 H   0  0  0  0  0  0  0  0  0  0  0  0
   29.9530   27.2460   48.6600 H   0  0  0  0  0  0  0  0  0  0  0  0
  2  7  1  6  0  0  0
  2  3  1  0  0  0  0
  2  6  1  0  0  0  0
  3  8  1  6  0  0  0
  3  1  1  0  0  0  0
  3  4  1  0  0  0  0
  4 10  1  0  0  0  0
  4  9  1  0  0  0  0
  5  4  1  0  0  0  0
  6  5  1  0  0  0  0
 11  6  1  0  0  0  0
 12  6  1  0  0  0  0
 13  2  1  0  0  0  0
 14 15  1  0  0  0  0
 15 19  1  0  0  0  0
 16 15  1  0  0  0  0
 16 17  1  0  0  0  0
 17 18  1  0  0  0  0
 19 18  1  0  0  0  0
 19 13  1  1  0  0  0
 21 20  2  6  0  0  0
 21  1  1  0  0  0  0
 21 24  1  0  0  0  0
 21 22  1  0  0  0  0
 23 22  1  0  0  0  0
 24 25  1  0  0  0  0
 25 27  1  0  0  0  0
 25 26  1  0  0  0  0
 28 33  1  0  0  0  0
 28 25  1  0  0  0  0
 29 28  2  0  0  0  0
 30 31  2  0  0  0  0
 30 29  1  0  0  0  0
 31 32  1  0  0  0  0
 32 36  1  0  0  0  0
 32 33  2  0  0  0  0
 34 29  1  0  0  0  0
 35 30  1  0  0  0  0
M  END
>  <minimizedAffinity>
-4.77867079

>  <minimizedRMSD>
0.305743366

$$$$
