REMARK  Name = 
REMARK  2 active torsions:
REMARK  status: ('A' for Active; 'I' for Inactive)
REMARK    1  A    between atoms: C_5  and  O_7
REMARK    2  A    between atoms: O_7  and  C_16
REMARK                            x       y       z     vdW  Elec       q    Type
REMARK                         _______ _______ _______ _____ _____    ______ ____
ROOT
ATOM      1  C   UNL     1      37.328  30.234  51.427  0.00  0.00    +0.000 A 
ATOM      2  C   UNL     1      38.081  30.738  50.341  0.00  0.00    +0.000 A 
ATOM      3  C   UNL     1      37.699  30.373  49.039  0.00  0.00    +0.000 A 
ATOM      4  N   UNL     1      36.612  29.544  48.895  0.00  0.00    +0.000 NA
ATOM      5  C   UNL     1      35.922  29.086  49.971  0.00  0.00    +0.000 A 
ATOM      6  N   UNL     1      36.274  29.425  51.226  0.00  0.00    +0.000 NA
ATOM      7  H   UNL     1      37.542  30.455  52.453  0.00  0.00    +0.000 HD
ATOM      8  H   UNL     1      38.900  31.371  50.584  0.00  0.00    +0.000 HD
ATOM      9  H   UNL     1      38.270  30.757  48.227  0.00  0.00    +0.000 HD
ENDROOT
BRANCH   5  10
ATOM     10  O   UNL     1      34.876  28.274  49.590  0.00  0.00    +0.000 OA
BRANCH  10  16
ATOM     11  H   UNL     1      35.295  28.856  51.954  0.00  0.00    +0.000 HD
ATOM     12  N   UNL     1      34.472  28.209  51.945  0.00  0.00    +0.000 NA
ATOM     13  C   UNL     1      33.329  28.831  52.565  0.00  0.00    +0.000 C 
ATOM     14  C   UNL     1      32.555  29.361  51.385  0.00  0.00    +0.000 C 
ATOM     15  C   UNL     1      32.673  28.226  50.387  0.00  0.00    +0.000 C 
ATOM     16  C   UNL     1      34.090  27.743  50.651  0.00  0.00    +0.000 C 
ENDBRANCH  10  16
ENDBRANCH   5  10
TORSDOF 2
