
 OpenBabel03272508273D

 35 38  0  0  1  0  0  0  0  0999 V2000
   33.7680   28.8410   47.2120 C   0  0  2  0  0  0  0  0  0  0  0  0
   34.4750   28.0800   48.3230 C   0  0  2  0  0  0  0  0  0  0  0  0
   33.5480   27.9370   49.3160 O   0  0  0  0  0  0  0  0  0  0  0  0
   32.2860   28.0130   48.8150 C   0  0  0  0  0  0  0  0  0  0  0  0
   32.3850   28.1890   47.3110 C   0  0  1  0  0  0  0  0  0  0  0  0
   33.6210   29.9070   47.4320 H   0  0  0  0  0  0  0  0  0  0  0  0
   34.7670   27.0980   47.8820 H   0  0  0  0  0  0  0  0  0  0  0  0
   31.6590   27.1250   49.0450 H   0  0  0  0  0  0  0  0  0  0  0  0
   31.7770   28.8890   49.2910 H   0  0  0  0  0  0  0  0  0  0  0  0
   32.4370   27.1670   46.8960 H   0  0  0  0  0  0  0  0  0  0  0  0
   35.5590   30.3350   48.9880 C   0  0  1  0  0  0  0  0  0  0  0  0
   35.6390   28.9120   48.7570 C   0  0  1  0  0  0  0  0  0  0  0  0
   35.7830   29.3780   50.1700 C   0  0  0  0  0  0  0  0  0  0  0  0
   34.6530   30.9490   49.1460 H   0  0  0  0  0  0  0  0  0  0  0  0
   36.6050   28.5460   48.3040 H   0  0  0  0  0  0  0  0  0  0  0  0
   36.7640   29.3780   50.6680 H   0  0  0  0  0  0  0  0  0  0  0  0
   34.9080   29.1420   50.8030 H   0  0  0  0  0  0  0  0  0  0  0  0
   36.7550   31.2420   48.7590 C   0  0  0  0  0  0  0  0  0  0  0  0
   37.0030   32.2270   49.7140 C   0  0  0  0  0  0  0  0  0  0  0  0
   38.0940   33.0440   49.4330 C   0  0  0  0  0  0  0  0  0  0  0  0
   38.8440   32.8710   48.3030 N   0  0  0  0  0  0  0  0  0  0  0  0
   38.5570   31.8920   47.4020 C   0  0  0  0  0  0  0  0  0  0  0  0
   37.5030   31.0750   47.6380 N   0  0  0  0  0  0  0  0  0  0  0  0
   36.4020   32.3380   50.5850 H   0  0  0  0  0  0  0  0  0  0  0  0
   38.3190   33.8160   50.1450 H   0  0  0  0  0  0  0  0  0  0  0  0
   39.1820   31.7990   46.5260 H   0  0  0  0  0  0  0  0  0  0  0  0
   34.3250   28.6530   45.9630 O   0  0  0  0  0  0  0  0  0  0  0  0
   34.1800   29.4670   45.4020 H   0  0  0  0  0  0  0  0  0  0  0  0
   31.4120   28.9790   46.7610 O   0  0  0  0  0  0  0  0  0  0  0  0
   28.8190   29.9370   47.7060 H   0  0  0  0  0  0  0  0  0  0  0  0
   29.1120   29.4590   46.8060 N   0  0  0  0  0  0  0  0  0  0  0  0
   27.9240   28.7350   46.3800 C   0  0  0  0  0  2  0  0  0  0  0  0
   28.2530   27.2590   46.6410 C   0  0  0  0  0  2  0  0  0  0  0  0
   29.7420   27.3020   46.2750 C   0  0  0  0  0  2  0  0  0  0  0  0
   30.1470   28.5140   47.0810 C   0  0  1  0  0  3  0  0  0  0  0  0
  1  5  1  0  0  0  0
  1  6  1  1  0  0  0
  1  2  1  0  0  0  0
  2  7  1  6  0  0  0
  2 12  1  0  0  0  0
  2  3  1  0  0  0  0
  4  8  1  0  0  0  0
  4  9  1  0  0  0  0
  4  3  1  0  0  0  0
  5 10  1  6  0  0  0
  5  4  1  0  0  0  0
 11 14  1  6  0  0  0
 11 13  1  0  0  0  0
 12 15  1  6  0  0  0
 12 11  1  0  0  0  0
 12 13  1  0  0  0  0
 13 16  1  0  0  0  0
 13 17  1  0  0  0  0
 18 11  1  0  0  0  0
 18 19  1  0  0  0  0
 19 24  1  0  0  0  0
 20 19  2  0  0  0  0
 20 25  1  0  0  0  0
 21 20  1  0  0  0  0
 22 23  1  0  0  0  0
 22 21  2  0  0  0  0
 23 18  2  0  0  0  0
 26 22  1  0  0  0  0
 27  1  1  0  0  0  0
 28 27  1  0  0  0  0
 29  5  1  0  0  0  0
 31 35  1  0  0  0  0
 31 30  1  0  0  0  0
 32 33  1  0  0  0  0
 32 31  1  0  0  0  0
 34 33  1  0  0  0  0
 34 35  1  0  0  0  0
 35 29  1  6  0  0  0
M  END
>  <minimizedAffinity>
-5.14566422

>  <minimizedRMSD>
1.26245737

$$$$
