
 OpenBabel03272508263D

 35 38  0  0  1  0  0  0  0  0999 V2000
   33.8320   28.9000   47.2310 C   0  0  2  0  0  0  0  0  0  0  0  0
   34.5380   28.1380   48.3430 C   0  0  2  0  0  0  0  0  0  0  0  0
   33.6130   28.0060   49.3400 O   0  0  0  0  0  0  0  0  0  0  0  0
   32.3510   28.0900   48.8440 C   0  0  0  0  0  0  0  0  0  0  0  0
   32.4440   28.2590   47.3390 C   0  0  1  0  0  0  0  0  0  0  0  0
   33.6940   29.9680   47.4470 H   0  0  0  0  0  0  0  0  0  0  0  0
   34.8210   27.1520   47.9050 H   0  0  0  0  0  0  0  0  0  0  0  0
   31.7170   27.2080   49.0800 H   0  0  0  0  0  0  0  0  0  0  0  0
   31.8500   28.9720   49.3180 H   0  0  0  0  0  0  0  0  0  0  0  0
   32.4870   27.2350   46.9280 H   0  0  0  0  0  0  0  0  0  0  0  0
   35.6310   30.3790   49.0400 C   0  0  1  0  0  0  0  0  0  0  0  0
   35.7100   28.9630   48.7700 C   0  0  1  0  0  0  0  0  0  0  0  0
   35.8890   29.3920   50.1890 C   0  0  0  0  0  0  0  0  0  0  0  0
   34.7270   30.9850   49.2370 H   0  0  0  0  0  0  0  0  0  0  0  0
   36.6650   28.6130   48.2820 H   0  0  0  0  0  0  0  0  0  0  0  0
   36.8820   29.3830   50.6620 H   0  0  0  0  0  0  0  0  0  0  0  0
   35.0310   29.1360   50.8380 H   0  0  0  0  0  0  0  0  0  0  0  0
   36.8180   31.2970   48.8050 C   0  0  0  0  0  0  0  0  0  0  0  0
   37.0460   32.3010   49.7440 C   0  0  0  0  0  0  0  0  0  0  0  0
   38.1290   33.1260   49.4580 C   0  0  0  0  0  0  0  0  0  0  0  0
   38.8900   32.9430   48.3360 N   0  0  0  0  0  0  0  0  0  0  0  0
   38.6230   31.9460   47.4500 C   0  0  0  0  0  0  0  0  0  0  0  0
   37.5770   31.1200   47.6920 N   0  0  0  0  0  0  0  0  0  0  0  0
   36.4370   32.4200   50.6090 H   0  0  0  0  0  0  0  0  0  0  0  0
   38.3390   33.9130   50.1580 H   0  0  0  0  0  0  0  0  0  0  0  0
   39.2550   31.8450   46.5800 H   0  0  0  0  0  0  0  0  0  0  0  0
   34.3830   28.7020   45.9810 O   0  0  0  0  0  0  0  0  0  0  0  0
   34.2420   29.5150   45.4180 H   0  0  0  0  0  0  0  0  0  0  0  0
   31.4760   29.0540   46.7890 O   0  0  0  0  0  0  0  0  0  0  0  0
   31.0920   29.6100   43.9460 H   0  0  0  0  0  0  0  0  0  0  0  0
   31.6400   28.8560   44.4530 N   0  0  0  0  0  0  0  0  0  0  0  0
   31.6320   27.7260   43.5350 C   0  0  0  0  0  2  0  0  0  0  0  0
   30.6750   26.7120   44.1760 C   0  0  0  0  0  2  0  0  0  0  0  0
   31.0370   26.9730   45.6450 C   0  0  0  0  0  2  0  0  0  0  0  0
   30.9470   28.4800   45.6440 C   0  0  1  0  0  3  0  0  0  0  0  0
  1  5  1  0  0  0  0
  1  6  1  1  0  0  0
  1  2  1  0  0  0  0
  2  7  1  6  0  0  0
  2 12  1  0  0  0  0
  2  3  1  0  0  0  0
  4  8  1  0  0  0  0
  4  9  1  0  0  0  0
  4  3  1  0  0  0  0
  5 10  1  6  0  0  0
  5  4  1  0  0  0  0
 11 14  1  6  0  0  0
 11 13  1  0  0  0  0
 12 15  1  6  0  0  0
 12 11  1  0  0  0  0
 12 13  1  0  0  0  0
 13 16  1  0  0  0  0
 13 17  1  0  0  0  0
 18 11  1  0  0  0  0
 18 19  1  0  0  0  0
 19 24  1  0  0  0  0
 20 19  2  0  0  0  0
 20 25  1  0  0  0  0
 21 20  1  0  0  0  0
 22 23  1  0  0  0  0
 22 21  2  0  0  0  0
 23 18  2  0  0  0  0
 26 22  1  0  0  0  0
 27  1  1  0  0  0  0
 28 27  1  0  0  0  0
 29  5  1  0  0  0  0
 30 31  1  0  0  0  0
 31 35  1  0  0  0  0
 32 33  1  0  0  0  0
 32 31  1  0  0  0  0
 33 34  1  0  0  0  0
 35 34  1  0  0  0  0
 35 29  1  1  0  0  0
M  END
>  <minimizedAffinity>
-4.66446829

>  <minimizedRMSD>
0.401029915

$$$$
