
 OpenBabel03272508273D

 35 38  0  0  1  0  0  0  0  0999 V2000
   33.8890   28.9170   47.2900 C   0  0  2  0  0  0  0  0  0  0  0  0
   34.5980   28.1690   48.4080 C   0  0  2  0  0  0  0  0  0  0  0  0
   33.6780   28.0520   49.4120 O   0  0  0  0  0  0  0  0  0  0  0  0
   32.4130   28.1310   48.9200 C   0  0  0  0  0  0  0  0  0  0  0  0
   32.5000   28.2800   47.4130 C   0  0  1  0  0  0  0  0  0  0  0  0
   33.7540   29.9870   47.4930 H   0  0  0  0  0  0  0  0  0  0  0  0
   34.8770   27.1760   47.9830 H   0  0  0  0  0  0  0  0  0  0  0  0
   31.7790   27.2540   49.1710 H   0  0  0  0  0  0  0  0  0  0  0  0
   31.9160   29.0200   49.3850 H   0  0  0  0  0  0  0  0  0  0  0  0
   32.5390   27.2510   47.0150 H   0  0  0  0  0  0  0  0  0  0  0  0
   35.6980   30.4140   49.0780 C   0  0  1  0  0  0  0  0  0  0  0  0
   35.7730   28.9960   48.8190 C   0  0  1  0  0  0  0  0  0  0  0  0
   35.9650   29.4360   50.2340 C   0  0  0  0  0  0  0  0  0  0  0  0
   34.7950   31.0220   49.2790 H   0  0  0  0  0  0  0  0  0  0  0  0
   36.7250   28.6420   48.3260 H   0  0  0  0  0  0  0  0  0  0  0  0
   36.9620   29.4310   50.6980 H   0  0  0  0  0  0  0  0  0  0  0  0
   35.1120   29.1860   50.8920 H   0  0  0  0  0  0  0  0  0  0  0  0
   36.8820   31.3300   48.8260 C   0  0  0  0  0  0  0  0  0  0  0  0
   37.0790   32.3820   49.7190 C   0  0  0  0  0  0  0  0  0  0  0  0
   38.1620   33.2010   49.4170 C   0  0  0  0  0  0  0  0  0  0  0  0
   38.9520   32.9700   48.3250 N   0  0  0  0  0  0  0  0  0  0  0  0
   38.7140   31.9270   47.4840 C   0  0  0  0  0  0  0  0  0  0  0  0
   37.6690   31.1040   47.7430 N   0  0  0  0  0  0  0  0  0  0  0  0
   36.4480   32.5380   50.5620 H   0  0  0  0  0  0  0  0  0  0  0  0
   38.3490   34.0250   50.0820 H   0  0  0  0  0  0  0  0  0  0  0  0
   39.3690   31.7890   46.6360 H   0  0  0  0  0  0  0  0  0  0  0  0
   34.4330   28.7010   46.0400 O   0  0  0  0  0  0  0  0  0  0  0  0
   34.2910   29.5060   45.4670 H   0  0  0  0  0  0  0  0  0  0  0  0
   31.5310   29.0690   46.8570 O   0  0  0  0  0  0  0  0  0  0  0  0
   31.4060   28.9730   43.9380 H   0  0  0  0  0  0  0  0  0  0  0  0
   31.6770   28.2450   44.6600 N   0  0  0  0  0  0  0  0  0  0  0  0
   31.3340   26.9750   44.0380 C   0  0  0  0  0  2  0  0  0  0  0  0
   30.0910   26.4920   44.7980 C   0  0  0  0  0  2  0  0  0  0  0  0
   30.4830   26.9960   46.1940 C   0  0  0  0  0  2  0  0  0  0  0  0
   30.8740   28.4090   45.8310 C   0  0  1  0  0  3  0  0  0  0  0  0
  1  5  1  0  0  0  0
  1  6  1  1  0  0  0
  1  2  1  0  0  0  0
  2  7  1  6  0  0  0
  2 12  1  0  0  0  0
  2  3  1  0  0  0  0
  4  8  1  0  0  0  0
  4  9  1  0  0  0  0
  4  3  1  0  0  0  0
  5 10  1  6  0  0  0
  5  4  1  0  0  0  0
 11 14  1  6  0  0  0
 11 13  1  0  0  0  0
 12 15  1  6  0  0  0
 12 11  1  0  0  0  0
 12 13  1  0  0  0  0
 13 16  1  0  0  0  0
 13 17  1  0  0  0  0
 18 11  1  0  0  0  0
 18 19  1  0  0  0  0
 19 24  1  0  0  0  0
 20 19  2  0  0  0  0
 20 25  1  0  0  0  0
 21 20  1  0  0  0  0
 22 23  1  0  0  0  0
 22 21  2  0  0  0  0
 23 18  2  0  0  0  0
 26 22  1  0  0  0  0
 27  1  1  0  0  0  0
 28 27  1  0  0  0  0
 29  5  1  0  0  0  0
 30 31  1  0  0  0  0
 31 35  1  0  0  0  0
 32 31  1  0  0  0  0
 32 33  1  0  0  0  0
 33 34  1  0  0  0  0
 35 34  1  0  0  0  0
 35 29  1  1  0  0  0
M  END
>  <minimizedAffinity>
-4.69428015

>  <minimizedRMSD>
0.219806477

$$$$
