
     RDKit          3D

 42 45  0  0  0  0  0  0  0  0999 V2000
   35.8215   30.5386   49.0715 C   0  0  1  0  0  0  0  0  0  0  0  0
   35.9057   29.1168   48.8374 C   0  0  1  0  0  0  0  0  0  0  0  0
   36.0675   29.5807   50.2478 C   0  0  0  0  0  0  0  0  0  0  0  0
   37.0094   31.4539   48.8279 C   0  0  0  0  0  0  0  0  0  0  0  0
   37.1823   32.5252   49.7032 C   0  0  0  0  0  0  0  0  0  0  0  0
   38.2689   33.3418   49.4098 C   0  0  0  0  0  0  0  0  0  0  0  0
   39.0849   33.0900   48.3420 N   0  0  0  0  0  0  0  0  0  0  0  0
   38.8715   32.0292   47.5181 C   0  0  0  0  0  0  0  0  0  0  0  0
   37.8233   31.2078   47.7688 N   0  0  0  0  0  0  0  0  0  0  0  0
   33.9656   29.0765   47.3776 C   0  0  2  0  0  0  0  0  0  0  0  0
   34.7408   28.2803   48.4167 C   0  0  2  0  0  0  0  0  0  0  0  0
   33.8651   28.0683   49.4443 O   0  0  0  0  0  0  0  0  0  0  0  0
   32.5804   28.1378   49.0063 C   0  0  0  0  0  0  0  0  0  0  0  0
   32.6031   28.3866   47.5101 C   0  0  1  0  0  0  0  0  0  0  0  0
   34.4669   28.9601   46.0968 O   0  0  0  0  0  0  0  0  0  0  0  0
   31.5892   29.1793   47.0437 O   0  0  0  0  0  0  0  0  0  0  0  0
   34.9143   31.1483   49.2436 H   0  0  0  0  0  0  0  0  0  0  0  0
   36.8684   28.7578   48.3691 H   0  0  0  0  0  0  0  0  0  0  0  0
   37.0565   29.5858   50.7317 H   0  0  0  0  0  0  0  0  0  0  0  0
   35.2031   29.3390   50.8930 H   0  0  0  0  0  0  0  0  0  0  0  0
   36.5299   32.6965   50.5272 H   0  0  0  0  0  0  0  0  0  0  0  0
   38.4370   34.1798   50.0614 H   0  0  0  0  0  0  0  0  0  0  0  0
   39.5458   31.8753   46.6886 H   0  0  0  0  0  0  0  0  0  0  0  0
   33.8070   30.1259   47.6561 H   0  0  0  0  0  0  0  0  0  0  0  0
   35.0328   27.3266   47.9157 H   0  0  0  0  0  0  0  0  0  0  0  0
   31.9832   27.2259   49.2217 H   0  0  0  0  0  0  0  0  0  0  0  0
   32.0749   28.9780   49.5466 H   0  0  0  0  0  0  0  0  0  0  0  0
   32.6565   27.3881   47.0439 H   0  0  0  0  0  0  0  0  0  0  0  0
   34.2777   29.7957   45.5837 H   0  0  0  0  0  0  0  0  0  0  0  0
   31.2301   29.0953   44.1450 H   0  0  0  0  0  0  0  0  0  0  0  0
   31.5547   28.3626   44.8404 N   0  0  0  0  0  0  0  0  0  0  0  0
   31.1565   27.0969   44.2423 C   0  0  0  0  0  0  0  0  0  0  0  0
   29.9776   26.6156   45.0983 C   0  0  0  0  0  0  0  0  0  0  0  0
   30.4832   27.1130   46.4599 C   0  0  0  0  0  0  0  0  0  0  0  0
   30.8492   28.5261   46.0716 C   0  0  1  0  0  0  0  0  0  0  0  0
   31.9786   26.3482   44.4416 H   0  0  0  0  0  0  0  0  0  0  0  0
   30.9087   27.1667   43.1810 H   0  0  0  0  0  0  0  0  0  0  0  0
   29.0872   27.2432   44.8546 H   0  0  0  0  0  0  0  0  0  0  0  0
   29.8207   25.5424   45.0581 H   0  0  0  0  0  0  0  0  0  0  0  0
   29.6298   27.0406   47.1450 H   0  0  0  0  0  0  0  0  0  0  0  0
   31.3613   26.5052   46.7412 H   0  0  0  0  0  0  0  0  0  0  0  0
   29.8999   29.0689   45.9153 H   0  0  0  0  0  0  0  0  0  0  0  0
  1  3  1  0
  2  1  1  0
  2  3  1  0
  4  1  1  0
  4  5  2  0
  6  5  1  0
  7  6  2  0
  8  9  2  0
  8  7  1  0
  9  4  1  0
 10 15  1  0
 10 14  1  0
 10 11  1  0
 11  2  1  0
 11 12  1  0
 13 12  1  0
 14 16  1  0
 14 13  1  0
  1 17  1  1
  2 18  1  6
  3 19  1  0
  3 20  1  0
  5 21  1  0
  6 22  1  0
  8 23  1  0
 10 24  1  1
 11 25  1  6
 13 26  1  0
 13 27  1  0
 14 28  1  6
 15 29  1  0
 30 31  1  0
 31 32  1  0
 32 33  1  0
 33 34  1  0
 34 35  1  0
 35 31  1  0
 32 36  1  0
 32 37  1  0
 33 38  1  0
 33 39  1  0
 34 40  1  0
 34 41  1  0
 35 42  1  6
 16 35  1  0
M  ISO  8  17  13  18  13  19  13  20  13  21  14  22  14  23  14  24  13
M  ISO  6  25  13  26  13  27  13  28  13  29   3  30   5
M  END
>  <DihAtoms>  (1) 
13,15,34,33

>  <DihDeg>  (1) 
-118.5039236293764

$$$$
