
     RDKit          3D

 24 25  0  0  0  0  0  0  0  0999 V2000
   37.2967   29.9946   51.1761 C   0  0  0  0  0  0  0  0  0  0  0  0
   37.9491   30.9153   50.3541 C   0  0  0  0  0  0  0  0  0  0  0  0
   37.2742   31.3865   49.2345 C   0  0  0  0  0  0  0  0  0  0  0  0
   36.0201   30.9287   48.9992 N   0  0  0  0  0  0  0  0  0  0  0  0
   35.4091   30.0301   49.8192 C   0  0  0  0  0  0  0  0  0  0  0  0
   36.0517   29.5785   50.8893 N   0  0  0  0  0  0  0  0  0  0  0  0
   38.0931   29.6102   52.2596 O   0  0  0  0  0  0  0  0  0  0  0  0
   38.9496   31.3089   50.5027 H   0  0  0  0  0  0  0  0  0  0  0  0
   37.7017   32.0872   48.5612 H   0  0  0  0  0  0  0  0  0  0  0  0
   38.3824   28.6410   52.2617 H   0  0  0  0  0  0  0  0  0  0  0  0
   33.0383   30.6478   51.4213 O   0  0  0  0  0  0  0  0  0  0  0  0
   32.9589   30.4720   50.0564 C   0  0  1  0  0  0  0  0  0  0  0  0
   34.0509   29.5770   49.5053 C   0  0  2  0  0  0  0  0  0  0  0  0
   33.7564   28.2877   49.9248 O   0  0  0  0  0  0  0  0  0  0  0  0
   32.4662   28.2745   50.4371 C   0  0  0  0  0  0  0  0  0  0  0  0
   31.7811   29.5092   49.8319 C   0  0  2  0  0  0  0  0  0  0  0  0
   31.5912   29.2356   48.4905 O   0  0  0  0  0  0  0  0  0  0  0  0
   33.9429   30.8972   51.7365 H   0  0  0  0  0  0  0  0  0  0  0  0
   32.8319   31.3896   49.4655 H   0  0  0  0  0  0  0  0  0  0  0  0
   33.8628   29.5590   48.3917 H   0  0  0  0  0  0  0  0  0  0  0  0
   32.5874   28.4240   51.5409 H   0  0  0  0  0  0  0  0  0  0  0  0
   31.8811   27.3834   50.2229 H   0  0  0  0  0  0  0  0  0  0  0  0
   30.8909   29.7895   50.3905 H   0  0  0  0  0  0  0  0  0  0  0  0
   31.3752   30.0228   47.9448 H   0  0  0  0  0  0  0  0  0  0  0  0
  1  7  1  0
  2  1  2  0
  3  2  1  0
  4  3  2  0
  4  5  1  0
  5  6  2  0
  6  1  1  0
  2  8  1  0
  3  9  1  0
  7 10  1  0
 11 12  1  0
 12 13  1  0
 13 14  1  0
 14 15  1  0
 15 16  1  0
 16 17  1  0
 16 12  1  0
 11 18  1  0
 12 19  1  6
 13 20  1  6
 15 21  1  0
 15 22  1  0
 16 23  1  1
 17 24  1  0
  5 13  1  0
M  ISO  3   8  14   9  14  10   3
M  END
>  <DihAtoms>  (1) 
3,4,12,11

>  <DihDeg>  (1) 
-101.59303392065556

$$$$
