
     RDKit          3D

 43 46  0  0  0  0  0  0  0  0999 V2000
   38.4213   31.1106   48.2121 C   0  0  2  0  0  0  0  0  0  0  0  0
   38.6794   32.5568   48.1059 C   0  0  0  0  0  0  0  0  0  0  0  0
   38.0524   31.7189   46.9595 C   0  0  1  0  0  0  0  0  0  0  0  0
   35.0918   30.2334   49.5601 C   0  0  0  0  0  0  0  0  0  0  0  0
   35.4220   29.5465   50.7716 C   0  0  0  0  0  0  0  0  0  0  0  0
   36.8247   29.4121   51.0929 C   0  0  0  0  0  0  0  0  0  0  0  0
   37.7430   29.9322   50.2496 N   0  0  0  0  0  0  0  0  0  0  0  0
   37.3572   30.5744   49.1126 C   0  0  0  0  0  0  0  0  0  0  0  0
   36.0388   30.7410   48.7407 N   0  0  0  0  0  0  0  0  0  0  0  0
   38.4050   31.8428   44.5131 C   0  0  0  0  0  0  0  0  0  0  0  0
   37.2929   32.4185   44.3956 O   0  0  0  0  0  0  0  0  0  0  0  0
   38.9432   31.5703   45.8213 N   0  0  0  0  0  0  0  0  0  0  0  0
   39.1856   31.4333   43.3312 C   0  0  0  0  0  0  0  0  0  0  0  0
   40.1534   30.4784   43.4884 C   0  0  0  0  0  0  0  0  0  0  0  0
   40.8805   30.1076   42.3676 C   0  0  0  0  0  0  0  0  0  0  0  0
   40.5879   30.7184   41.1693 C   0  0  0  0  0  0  0  0  0  0  0  0
   39.5986   31.6950   41.0070 C   0  0  0  0  0  0  0  0  0  0  0  0
   38.9284   32.0096   42.1365 N   0  0  0  0  0  0  0  0  0  0  0  0
   39.3585   30.5081   48.3032 H   0  0  0  0  0  0  0  0  0  0  0  0
   37.9973   33.3117   48.5072 H   0  0  0  0  0  0  0  0  0  0  0  0
   39.7071   32.9216   47.9682 H   0  0  0  0  0  0  0  0  0  0  0  0
   36.9823   31.9305   46.7498 H   0  0  0  0  0  0  0  0  0  0  0  0
   34.0338   30.3022   49.3735 H   0  0  0  0  0  0  0  0  0  0  0  0
   34.6671   29.1512   51.4092 H   0  0  0  0  0  0  0  0  0  0  0  0
   37.1050   28.9022   51.9943 H   0  0  0  0  0  0  0  0  0  0  0  0
   39.9149   31.2797   45.9841 H   0  0  0  0  0  0  0  0  0  0  0  0
   40.3891   29.9963   44.4181 H   0  0  0  0  0  0  0  0  0  0  0  0
   41.6500   29.3689   42.4188 H   0  0  0  0  0  0  0  0  0  0  0  0
   41.1348   30.4547   40.2723 H   0  0  0  0  0  0  0  0  0  0  0  0
   41.3234   31.0918   39.1878 O   0  0  0  0  0  0  0  0  0  0  0  0
   40.4004   32.0072   38.6646 C   0  0  1  0  0  0  0  0  0  0  0  0
   39.3458   32.3005   39.6939 C   0  0  2  0  0  0  0  0  0  0  0  0
   39.2085   33.6804   39.7540 O   0  0  0  0  0  0  0  0  0  0  0  0
   40.4087   34.2391   39.3875 C   0  0  0  0  0  0  0  0  0  0  0  0
   41.1099   33.3072   38.4489 C   0  0  2  0  0  0  0  0  0  0  0  0
   41.0253   33.7331   37.1120 O   0  0  0  0  0  0  0  0  0  0  0  0
   42.1416   31.5450   39.5481 H   0  0  0  0  0  0  0  0  0  0  0  0
   39.9672   31.6047   37.7185 H   0  0  0  0  0  0  0  0  0  0  0  0
   38.3587   31.9178   39.3319 H   0  0  0  0  0  0  0  0  0  0  0  0
   41.0351   34.5602   40.2416 H   0  0  0  0  0  0  0  0  0  0  0  0
   40.1996   35.1733   38.8054 H   0  0  0  0  0  0  0  0  0  0  0  0
   42.1925   33.2322   38.6812 H   0  0  0  0  0  0  0  0  0  0  0  0
   40.4312   34.5350   37.0724 H   0  0  0  0  0  0  0  0  0  0  0  0
  1  8  1  0
  2  1  1  0
  3  2  1  0
  3  1  1  0
  4  5  2  0
  5  6  1  0
  7  6  2  0
  8  7  1  0
  9  8  2  0
  9  4  1  0
 10 12  1  0
 11 10  2  0
 12  3  1  0
 13 14  2  0
 13 10  1  0
 15 14  1  0
 16 15  2  0
 17 16  1  0
 17 18  2  0
 18 13  1  0
  1 19  1  6
  2 20  1  0
  2 21  1  0
  3 22  1  6
  4 23  1  0
  5 24  1  0
  6 25  1  0
 12 26  1  0
 14 27  1  0
 15 28  1  0
 16 29  1  0
 30 31  1  0
 31 32  1  0
 32 33  1  0
 33 34  1  0
 34 35  1  0
 35 36  1  0
 35 31  1  0
 30 37  1  0
 31 38  1  6
 32 39  1  6
 34 40  1  0
 34 41  1  0
 35 42  1  1
 36 43  1  0
 17 32  1  0
M  ISO  8  19  13  20  13  21  13  22  13  23  14  24  14  25  14  27  14
M  ISO  2  28  14  29  14
M  END
>  <DihAtoms>  (1) 
15,16,31,30

>  <DihDeg>  (1) 
-102.36991628614241

$$$$
