
 OpenBabel03272508183D

 25 27  0  0  1  0  0  0  0  0999 V2000
   36.9380   30.1900   44.5460 C   0  0  0  0  0  0  0  0  0  0  0  0
   37.8390   30.4980   45.5770 C   0  0  0  0  0  0  0  0  0  0  0  0
   39.1630   30.2240   45.1970 C   0  0  0  0  0  0  0  0  0  0  0  0
   39.5100   29.7290   43.9870 N   0  0  0  0  0  0  0  0  0  0  0  0
   38.5880   29.4580   43.0400 C   0  0  0  0  0  0  0  0  0  0  0  0
   37.3010   29.6940   43.3340 N   0  0  0  0  0  0  0  0  0  0  0  0
   40.0300   30.3860   45.8450 H   0  0  0  0  0  0  0  0  0  0  0  0
   38.6790   29.0700   42.0420 H   0  0  0  0  0  0  0  0  0  0  0  0
   35.4860   30.5290   44.8310 C   0  0  0  0  0  0  0  0  0  0  0  0
   34.4270   30.0100   44.0050 C   0  0  0  0  0  0  0  0  0  0  0  0
   34.7210   29.2590   45.2750 C   0  0  0  0  0  0  0  0  0  0  0  0
   35.2760   31.3410   45.5810 H   0  0  0  0  0  0  0  0  0  0  0  0
   34.7480   29.5190   43.0380 H   0  0  0  0  0  0  0  0  0  0  0  0
   33.4280   30.4550   43.9000 H   0  0  0  0  0  0  0  0  0  0  0  0
   35.2480   28.3220   45.1530 H   0  0  0  0  0  0  0  0  0  0  0  0
   33.9660   29.3690   46.0620 H   0  0  0  0  0  0  0  0  0  0  0  0
   38.7110   31.9810   47.3670 C   0  0  2  0  0  3  0  0  0  0  0  0
   37.6150   31.0210   46.8810 C   0  0  2  0  0  3  0  0  0  0  0  0
   37.3870   30.2240   47.9440 O   0  0  0  0  0  0  0  0  0  0  0  0
   37.7390   30.8420   49.1090 C   0  0  0  0  0  2  0  0  0  0  0  0
   38.1180   32.2820   48.7340 C   0  0  1  0  0  3  0  0  0  0  0  0
   38.6640   33.0780   46.5210 O   0  0  0  0  0  0  0  0  0  0  0  0
   37.8770   33.6150   46.7290 H   0  0  0  0  0  0  0  0  0  0  0  0
   39.0130   32.8330   49.6060 O   0  0  0  0  0  0  0  0  0  0  0  0
   38.7630   32.5400   50.5360 H   0  0  0  0  0  0  0  0  0  0  0  0
  1  9  1  0  0  0  0
  1  2  1  0  0  0  0
  3  2  2  0  0  0  0
  3  7  1  0  0  0  0
  4  3  1  0  0  0  0
  5  6  1  0  0  0  0
  5  4  2  0  0  0  0
  6  1  2  0  0  0  0
  8  5  1  0  0  0  0
  9 11  1  0  0  0  0
  9 12  1  0  0  0  0
 10  9  1  0  0  0  0
 10 11  1  0  0  0  0
 11 16  1  0  0  0  0
 13 10  1  0  0  0  0
 14 10  1  0  0  0  0
 15 11  1  0  0  0  0
 17 22  1  6  0  0  0
 17 21  1  0  0  0  0
 18  2  1  6  0  0  0
 18 17  1  0  0  0  0
 18 19  1  0  0  0  0
 19 20  1  0  0  0  0
 21 20  1  0  0  0  0
 21 24  1  1  0  0  0
 22 23  1  0  0  0  0
 24 25  1  0  0  0  0
M  END
>  <minimizedAffinity>
-3.87168837

>  <minimizedRMSD>
5.2297225

$$$$
