REMARK  Name = 
REMARK  7 active torsions:
REMARK  status: ('A' for Active; 'I' for Inactive)
REMARK    1  A    between atoms: C_1  and  C_8
REMARK    2  A    between atoms: N_4  and  C_12
REMARK    3  A    between atoms: C_12  and  C_13
REMARK    4  A    between atoms: C_13  and  N_14
REMARK    5  A    between atoms: C_19  and  C_38
REMARK    6  A    between atoms: O_36  and  C_37
REMARK    7  A    between atoms: C_41  and  O_42
REMARK                            x       y       z     vdW  Elec       q    Type
REMARK                         _______ _______ _______ _____ _____    ______ ____
ROOT
ATOM      1  C   UNL     1      40.625  32.027  44.843  0.00  0.00    +0.000 C 
ATOM      2  H   UNL     1      40.672  31.018  45.353  0.00  0.00    +0.000 HD
ATOM      3  H   UNL     1      41.673  32.393  44.921  0.00  0.00    +0.000 HD
ENDROOT
BRANCH   1   4
ATOM      4  N   UNL     1      40.355  31.796  43.492  0.00  0.00    +0.000 NA
ATOM      5  C   UNL     1      39.536  32.691  42.824  0.00  0.00    +0.000 C 
ATOM      6  C   UNL     1      38.259  32.151  42.288  0.00  0.00    +0.000 C 
ATOM      7  O   UNL     1      38.415  30.908  41.704  0.00  0.00    +0.000 OA
ATOM      8  C   UNL     1      39.005  30.027  42.583  0.00  0.00    +0.000 C 
ATOM      9  C   UNL     1      40.341  30.449  43.011  0.00  0.00    +0.000 C 
ATOM     10  H   UNL     1      40.183  32.847  41.894  0.00  0.00    +0.000 HD
ATOM     11  H   UNL     1      39.471  33.718  43.152  0.00  0.00    +0.000 HD
ATOM     12  H   UNL     1      38.090  32.775  41.324  0.00  0.00    +0.000 HD
ATOM     13  H   UNL     1      37.327  32.394  42.761  0.00  0.00    +0.000 HD
ATOM     14  H   UNL     1      38.338  29.612  43.351  0.00  0.00    +0.000 HD
ATOM     15  H   UNL     1      39.140  29.146  41.936  0.00  0.00    +0.000 HD
ATOM     16  H   UNL     1      40.642  29.813  43.877  0.00  0.00    +0.000 HD
BRANCH   9  18
ATOM     17  C   UNL     1      41.570  31.358  40.978  0.00  0.00    +0.000 C 
ATOM     18  C   UNL     1      41.460  30.262  41.994  0.00  0.00    +0.000 C 
ATOM     19  O   UNL     1      41.024  29.202  41.137  0.00  0.00    +0.000 OA
ATOM     20  C   UNL     1      40.019  29.736  40.347  0.00  0.00    +0.000 C 
ATOM     21  C   UNL     1      40.278  31.212  40.162  0.00  0.00    +0.000 C 
BRANCH  17  22
ATOM     22  O   UNL     1      41.680  32.637  41.384  0.00  0.00    +0.000 OA
ATOM     23  H   UNL     1      42.424  33.157  40.949  0.00  0.00    +0.000 HD
ENDBRANCH  17  22
BRANCH  21  24
ATOM     24  O   UNL     1      40.463  31.573  38.838  0.00  0.00    +0.000 OA
ATOM     25  H   UNL     1      40.774  32.500  38.821  0.00  0.00    +0.000 HD
ENDBRANCH  21  24
ENDBRANCH   9  18
ENDBRANCH   1   4
BRANCH   1  26
ATOM     26  C   UNL     1      39.702  32.859  45.594  0.00  0.00    +0.000 C 
ATOM     27  H   UNL     1      40.303  33.420  46.375  0.00  0.00    +0.000 HD
ATOM     28  H   UNL     1      39.103  33.642  45.137  0.00  0.00    +0.000 HD
BRANCH  26  32
ATOM     29  C   UNL     1      37.680  31.033  47.930  0.00  0.00    +0.000 A 
ATOM     30  C   UNL     1      36.997  30.787  46.754  0.00  0.00    +0.000 A 
ATOM     31  C   UNL     1      37.684  31.446  45.735  0.00  0.00    +0.000 A 
ATOM     32  N   UNL     1      38.726  32.049  46.309  0.00  0.00    +0.000 N 
ATOM     33  N   UNL     1      38.728  31.803  47.632  0.00  0.00    +0.000 NA
ATOM     34  H   UNL     1      36.077  30.177  46.660  0.00  0.00    +0.000 HD
ATOM     35  H   UNL     1      37.292  31.353  44.789  0.00  0.00    +0.000 HD
BRANCH  29  38
ATOM     36  C   UNL     1      37.405  30.149  51.572  0.00  0.00    +0.000 A 
ATOM     37  C   UNL     1      37.916  30.712  50.404  0.00  0.00    +0.000 A 
ATOM     38  C   UNL     1      37.258  30.506  49.203  0.00  0.00    +0.000 A 
ATOM     39  N   UNL     1      36.138  29.746  49.277  0.00  0.00    +0.000 NA
ATOM     40  C   UNL     1      35.651  29.204  50.412  0.00  0.00    +0.000 A 
ATOM     41  N   UNL     1      36.295  29.413  51.554  0.00  0.00    +0.000 NA
ATOM     42  H   UNL     1      37.950  30.332  52.507  0.00  0.00    +0.000 HD
ATOM     43  H   UNL     1      38.814  31.314  50.379  0.00  0.00    +0.000 HD
ATOM     44  H   UNL     1      34.743  28.629  50.260  0.00  0.00    +0.000 HD
ENDBRANCH  29  38
ENDBRANCH  26  32
ENDBRANCH   1  26
TORSDOF 7
