
 OpenBabel03272507573D

 32 34  0  0  1  0  0  0  0  0999 V2000
   37.0470   31.3310   48.5790 C   0  0  0  0  0  0  0  0  0  0  0  0
   37.1910   32.3040   49.5790 C   0  0  0  0  0  0  0  0  0  0  0  0
   38.1260   33.3110   49.4190 C   0  0  0  0  0  0  0  0  0  0  0  0
   38.9090   33.3500   48.2770 C   0  0  0  0  0  0  0  0  0  0  0  0
   38.7390   32.3790   47.3190 C   0  0  0  0  0  0  0  0  0  0  0  0
   37.8230   31.4020   47.4880 N   0  0  0  0  0  0  0  0  0  0  0  0
   36.6480   32.3940   50.5180 H   0  0  0  0  0  0  0  0  0  0  0  0
   38.2990   34.0970   50.1410 H   0  0  0  0  0  0  0  0  0  0  0  0
   39.6440   34.1050   48.1050 H   0  0  0  0  0  0  0  0  0  0  0  0
   35.1770   28.5550   50.2910 C   0  0  0  0  0  0  0  0  0  0  0  0
   36.2010   29.5010   49.9960 C   0  0  0  0  0  0  0  0  0  0  0  0
   36.0270   30.3550   48.9090 C   0  0  0  0  0  0  0  0  0  0  0  0
   34.8680   30.2310   48.1810 N   0  0  0  0  0  0  0  0  0  0  0  0
   33.9220   29.3140   48.5020 C   0  0  0  0  0  0  0  0  0  0  0  0
   34.0660   28.4840   49.5390 N   0  0  0  0  0  0  0  0  0  0  0  0
   32.8230   29.3860   47.6000 N   0  0  0  0  0  0  0  0  0  0  0  0
   35.2970   27.8810   51.1360 H   0  0  0  0  0  0  0  0  0  0  0  0
   32.9950   29.2600   46.5720 H   0  0  0  0  0  0  0  0  0  0  0  0
   31.8380   29.5640   47.9620 H   0  0  0  0  0  0  0  0  0  0  0  0
   37.4100   29.5400   50.8570 C   0  0  0  0  0  0  0  0  0  0  0  0
   38.5500   29.8330   50.1240 F   0  0  0  0  0  0  0  0  0  0  0  0
   37.2420   30.5060   51.8090 F   0  0  0  0  0  0  0  0  0  0  0  0
   37.6450   28.3390   51.5110 F   0  0  0  0  0  0  0  0  0  0  0  0
   38.7820   32.7890   44.8680 C   0  0  1  0  0  3  0  0  0  0  0  0
   39.5590   32.3850   46.0800 C   0  0  2  0  0  3  0  0  0  0  0  0
   40.0310   31.0910   45.7640 O   0  0  0  0  0  0  0  0  0  0  0  0
   40.6430   31.3660   44.5400 C   0  0  0  0  0  2  0  0  0  0  0  0
   39.5340   32.0320   43.7750 C   0  0  2  0  0  3  0  0  0  0  0  0
   37.4730   32.3030   44.8810 O   0  0  0  0  0  0  0  0  0  0  0  0
   37.1210   32.4700   43.9510 H   0  0  0  0  0  0  0  0  0  0  0  0
   40.0310   32.9570   42.8410 O   0  0  0  0  0  0  0  0  0  0  0  0
   40.5220   32.4650   42.1460 H   0  0  0  0  0  0  0  0  0  0  0  0
  1 12  1  0  0  0  0
  1  2  1  0  0  0  0
  2  7  1  0  0  0  0
  3  2  2  0  0  0  0
  3  8  1  0  0  0  0
  4  3  1  0  0  0  0
  5  6  1  0  0  0  0
  5  4  2  0  0  0  0
  6  1  2  0  0  0  0
  9  4  1  0  0  0  0
 10 17  1  0  0  0  0
 11 10  1  0  0  0  0
 11 20  1  0  0  0  0
 12 11  2  0  0  0  0
 13 14  2  0  0  0  0
 13 12  1  0  0  0  0
 14 15  1  0  0  0  0
 15 10  2  0  0  0  0
 16 19  1  0  0  0  0
 16 14  1  0  0  0  0
 18 16  1  0  0  0  0
 20 23  1  0  0  0  0
 20 22  1  0  0  0  0
 21 20  1  0  0  0  0
 24 29  1  1  0  0  0
 24 25  1  0  0  0  0
 25  5  1  1  0  0  0
 26 25  1  0  0  0  0
 27 26  1  0  0  0  0
 28 31  1  6  0  0  0
 28 27  1  0  0  0  0
 28 24  1  0  0  0  0
 30 29  1  0  0  0  0
 32 31  1  0  0  0  0
M  END
>  <minimizedAffinity>
-7.62529469

>  <minimizedRMSD>
0.612074912

$$$$
