
     RDKit          3D

 38 40  0  0  0  0  0  0  0  0999 V2000
   33.7182   28.6144   48.7088 C   0  0  0  0  0  0  0  0  0  0  0  0
   32.8127   27.4723   48.3389 C   0  0  0  0  0  0  0  0  0  0  0  0
   31.3773   27.8665   48.3471 C   0  0  0  0  0  0  0  0  0  0  0  0
   30.7031   27.7318   49.5356 C   0  0  0  0  0  0  0  0  0  0  0  0
   29.3630   28.0692   49.6564 C   0  0  0  0  0  0  0  0  0  0  0  0
   28.7201   28.5358   48.5855 N   0  0  0  0  0  0  0  0  0  0  0  0
   29.3914   28.6654   47.4187 C   0  0  0  0  0  0  0  0  0  0  0  0
   30.6909   28.3415   47.2895 N   0  0  0  0  0  0  0  0  0  0  0  0
   34.6205   28.2101   49.7458 O   0  0  0  0  0  0  0  0  0  0  0  0
   37.2243   30.1936   51.2946 C   0  0  0  0  0  0  0  0  0  0  0  0
   37.9054   30.6269   50.1484 C   0  0  0  0  0  0  0  0  0  0  0  0
   37.4319   30.2138   48.9154 C   0  0  0  0  0  0  0  0  0  0  0  0
   36.3345   29.4115   48.8742 N   0  0  0  0  0  0  0  0  0  0  0  0
   35.6961   29.0077   49.9915 C   0  0  0  0  0  0  0  0  0  0  0  0
   36.1606   29.4126   51.1925 N   0  0  0  0  0  0  0  0  0  0  0  0
   34.2437   29.0808   47.8731 H   0  0  0  0  0  0  0  0  0  0  0  0
   33.0601   29.3718   49.2128 H   0  0  0  0  0  0  0  0  0  0  0  0
   33.0272   27.1727   47.2928 H   0  0  0  0  0  0  0  0  0  0  0  0
   32.9858   26.5720   48.9633 H   0  0  0  0  0  0  0  0  0  0  0  0
   31.2028   27.3554   50.4188 H   0  0  0  0  0  0  0  0  0  0  0  0
   28.8646   27.9485   50.6133 H   0  0  0  0  0  0  0  0  0  0  0  0
   28.8144   29.0471   46.5950 H   0  0  0  0  0  0  0  0  0  0  0  0
   37.6292   30.5407   52.2353 H   0  0  0  0  0  0  0  0  0  0  0  0
   38.7748   31.2629   50.1891 H   0  0  0  0  0  0  0  0  0  0  0  0
   40.1967   31.5626   47.9337 O   0  0  0  0  0  0  0  0  0  0  0  0
   39.5623   30.3671   47.6177 C   0  0  1  0  0  0  0  0  0  0  0  0
   38.0906   30.6237   47.6236 C   0  0  1  0  0  0  0  0  0  0  0  0
   37.5978   29.7734   46.6157 O   0  0  0  0  0  0  0  0  0  0  0  0
   38.4140   30.0222   45.5321 C   0  0  0  0  0  0  0  0  0  0  0  0
   39.7979   30.0955   46.1275 C   0  0  2  0  0  0  0  0  0  0  0  0
   40.4484   28.9012   45.9266 O   0  0  0  0  0  0  0  0  0  0  0  0
   39.6566   32.2990   47.5151 H   0  0  0  0  0  0  0  0  0  0  0  0
   39.8735   29.5442   48.2603 H   0  0  0  0  0  0  0  0  0  0  0  0
   37.8183   31.6376   47.3376 H   0  0  0  0  0  0  0  0  0  0  0  0
   38.3931   29.2112   44.7891 H   0  0  0  0  0  0  0  0  0  0  0  0
   38.1142   30.9997   45.0554 H   0  0  0  0  0  0  0  0  0  0  0  0
   40.2938   30.9616   45.6436 H   0  0  0  0  0  0  0  0  0  0  0  0
   41.3001   28.8781   46.4439 H   0  0  0  0  0  0  0  0  0  0  0  0
  1  9  1  0
  2  1  1  0
  3  2  1  0
  3  4  2  0
  4  5  1  0
  6  5  2  0
  7  6  1  0
  8  7  2  0
  8  3  1  0
  9 14  1  0
 11 10  2  0
 12 11  1  0
 13 12  2  0
 13 14  1  0
 14 15  2  0
 15 10  1  0
  1 16  1  0
  1 17  1  0
  2 18  1  0
  2 19  1  0
  4 20  1  0
  5 21  1  0
  7 22  1  0
 10 23  1  0
 11 24  1  0
 25 26  1  0
 26 27  1  0
 27 28  1  0
 28 29  1  0
 29 30  1  0
 30 31  1  0
 30 26  1  0
 25 32  1  0
 26 33  1  1
 27 34  1  6
 29 35  1  0
 29 36  1  0
 30 37  1  6
 31 38  1  0
 12 27  1  0
M  ISO  8  16   8  17   8  18   8  19   8  20  14  21  14  22  14  23  14
M  ISO  1  24  14
M  END
>  <DihAtoms>  (1) 
10,11,26,25

>  <DihDeg>  (1) 
111.20843918275912

$$$$
