
 OpenBabel03272504473D

 27 29  0  0  1  0  0  0  0  0999 V2000
   34.6560   28.4890   49.2930 C   0  0  0  0  0  0  0  0  0  0  0  0
   35.2580   29.3920   48.4210 C   0  0  0  0  0  0  0  0  0  0  0  0
   34.5450   29.7540   47.2640 C   0  0  0  0  0  0  0  0  0  0  0  0
   33.3050   29.1990   47.0630 N   0  0  0  0  0  0  0  0  0  0  0  0
   32.7700   28.3250   47.9450 C   0  0  0  0  0  0  0  0  0  0  0  0
   33.4480   27.9810   49.0450 N   0  0  0  0  0  0  0  0  0  0  0  0
   35.1950   28.2060   50.1820 H   0  0  0  0  0  0  0  0  0  0  0  0
   34.9720   30.4580   46.5500 H   0  0  0  0  0  0  0  0  0  0  0  0
   31.4540   27.7660   47.6850 C   0  0  0  0  0  0  0  0  0  0  0  0
   30.6420   27.4090   48.7540 C   0  0  0  0  0  0  0  0  0  0  0  0
   29.3790   26.8730   48.5470 C   0  0  0  0  0  0  0  0  0  0  0  0
   28.9940   26.7230   47.2240 C   0  0  0  0  0  0  0  0  0  0  0  0
   29.7900   27.0750   46.1410 C   0  0  0  0  0  0  0  0  0  0  0  0
   31.0100   27.5920   46.4380 N   0  0  0  0  0  0  0  0  0  0  0  0
   30.9520   27.5300   49.7750 H   0  0  0  0  0  0  0  0  0  0  0  0
   28.7500   26.5950   49.3710 H   0  0  0  0  0  0  0  0  0  0  0  0
   28.0150   26.3080   47.0110 H   0  0  0  0  0  0  0  0  0  0  0  0
   29.4540   26.9430   45.1210 H   0  0  0  0  0  0  0  0  0  0  0  0
   36.5550   31.1230   49.6410 C   0  0  2  0  0  0  0  0  0  0  0  0
   36.5800   29.9640   48.6670 C   0  0  2  0  0  0  0  0  0  0  0  0
   37.2310   30.4110   47.5330 O   0  0  0  0  0  0  0  0  0  0  0  0
   38.0420   31.4580   47.8760 C   0  0  0  0  0  0  0  0  0  0  0  0
   37.9350   31.6920   49.3690 C   0  0  2  0  0  0  0  0  0  0  0  0
   36.5480   30.6920   50.9630 O   0  0  0  0  0  0  0  0  0  0  0  0
   35.6590   30.6350   51.3580 H   0  0  0  0  0  0  0  0  0  0  0  0
   38.9230   30.9230   49.9770 O   0  0  0  0  0  0  0  0  0  0  0  0
   39.1710   31.2770   50.8720 H   0  0  0  0  0  0  0  0  0  0  0  0
  1  7  1  0  0  0  0
  2  1  2  0  0  0  0
  3  2  1  0  0  0  0
  4  3  2  0  0  0  0
  4  5  1  0  0  0  0
  5  6  2  0  0  0  0
  6  1  1  0  0  0  0
  8  3  1  0  0  0  0
  9  5  1  0  0  0  0
  9 10  1  0  0  0  0
 10 15  1  0  0  0  0
 11 10  2  0  0  0  0
 11 16  1  0  0  0  0
 12 11  1  0  0  0  0
 13 14  1  0  0  0  0
 13 12  2  0  0  0  0
 14  9  2  0  0  0  0
 17 12  1  0  0  0  0
 18 13  1  0  0  0  0
 19 24  1  1  0  0  0
 20  2  1  6  0  0  0
 20 19  1  0  0  0  0
 21 22  1  0  0  0  0
 21 20  1  0  0  0  0
 22 23  1  0  0  0  0
 23 19  1  0  0  0  0
 23 26  1  1  0  0  0
 24 25  1  0  0  0  0
 26 27  1  0  0  0  0
M  END
>  <minimizedAffinity>
-5.14192915

>  <minimizedRMSD>
5.38574028

$$$$
