REMARK  Name = 
REMARK  4 active torsions:
REMARK  status: ('A' for Active; 'I' for Inactive)
REMARK    1  A    between atoms: C_1  and  C_7
REMARK    2  A    between atoms: C_5  and  C_19
REMARK    3  A    between atoms: O_17  and  C_18
REMARK    4  A    between atoms: C_22  and  O_23
REMARK                            x       y       z     vdW  Elec       q    Type
REMARK                         _______ _______ _______ _____ _____    ______ ____
ROOT
ATOM      1  C   UNL     1      37.014  31.153  49.252  0.00  0.00    +0.000 A 
ATOM      2  C   UNL     1      37.311  32.445  49.719  0.00  0.00    +0.000 A 
ATOM      3  C   UNL     1      38.299  33.131  49.009  0.00  0.00    +0.000 A 
ATOM      4  N   UNL     1      38.904  32.533  47.934  0.00  0.00    +0.000 NA
ATOM      5  C   UNL     1      38.585  31.289  47.522  0.00  0.00    +0.000 A 
ATOM      6  N   UNL     1      37.627  30.591  48.191  0.00  0.00    +0.000 NA
ATOM      7  H   UNL     1      36.827  32.893  50.558  0.00  0.00    +0.000 HD
ATOM      8  H   UNL     1      38.610  34.133  49.278  0.00  0.00    +0.000 HD
ENDROOT
BRANCH   1   9
ATOM      9  C   UNL     1      35.934  30.401  49.982  0.00  0.00    +0.000 C 
ATOM     10  C   UNL     1      35.791  28.956  49.838  0.00  0.00    +0.000 C 
ATOM     11  C   UNL     1      36.469  29.489  51.072  0.00  0.00    +0.000 C 
ATOM     12  H   UNL     1      35.025  31.006  50.266  0.00  0.00    +0.000 HD
ATOM     13  H   UNL     1      34.834  28.439  49.887  0.00  0.00    +0.000 HD
ATOM     14  H   UNL     1      36.535  28.482  49.133  0.00  0.00    +0.000 HD
ATOM     15  H   UNL     1      35.842  29.439  51.981  0.00  0.00    +0.000 HD
ATOM     16  H   UNL     1      37.546  29.412  51.210  0.00  0.00    +0.000 HD
ENDBRANCH   1   9
BRANCH   5  18
ATOM     17  C   UNL     1      38.394  30.342  45.214  0.00  0.00    +0.000 C 
ATOM     18  C   UNL     1      39.294  30.724  46.348  0.00  0.00    +0.000 C 
ATOM     19  O   UNL     1      39.990  29.556  46.634  0.00  0.00    +0.000 OA
ATOM     20  C   UNL     1      39.143  28.499  46.456  0.00  0.00    +0.000 C 
ATOM     21  C   UNL     1      38.008  28.927  45.590  0.00  0.00    +0.000 C 
BRANCH  17  22
ATOM     22  O   UNL     1      37.286  31.166  45.062  0.00  0.00    +0.000 OA
ATOM     23  H   UNL     1      37.498  31.815  44.319  0.00  0.00    +0.000 HD
ENDBRANCH  17  22
BRANCH  21  24
ATOM     24  O   UNL     1      36.830  29.000  46.332  0.00  0.00    +0.000 OA
ATOM     25  H   UNL     1      36.596  28.155  46.787  0.00  0.00    +0.000 HD
ENDBRANCH  21  24
ENDBRANCH   5  18
TORSDOF 4
