
 OpenBabel03262523123D

 29 31  0  0  1  0  0  0  0  0999 V2000
   34.8900   29.2980   48.4530 C   0  0  0  0  0  0  0  0  0  0  0  0
   34.4650   28.0910   48.9520 C   0  0  0  0  0  0  0  0  0  0  0  0
   33.3550   27.5770   48.3110 C   0  0  0  0  0  0  0  0  0  0  0  0
   32.7150   28.1980   47.2680 C   0  0  0  0  0  0  0  0  0  0  0  0
   33.2170   29.4090   46.8370 C   0  0  0  0  0  0  0  0  0  0  0  0
   34.2980   29.9500   47.4310 N   0  0  0  0  0  0  0  0  0  0  0  0
   34.9660   27.5980   49.7730 H   0  0  0  0  0  0  0  0  0  0  0  0
   32.9410   26.6270   48.6310 H   0  0  0  0  0  0  0  0  0  0  0  0
   31.8470   27.7980   46.7650 H   0  0  0  0  0  0  0  0  0  0  0  0
   37.5720   30.1560   50.8160 C   0  0  0  0  0  0  0  0  0  0  0  0
   38.2700   31.1850   50.1390 C   0  0  0  0  0  0  0  0  0  0  0  0
   37.7970   31.5550   48.8860 C   0  0  0  0  0  0  0  0  0  0  0  0
   36.7050   30.9140   48.3930 N   0  0  0  0  0  0  0  0  0  0  0  0
   36.0670   29.9450   49.0570 C   0  0  0  0  0  0  0  0  0  0  0  0
   36.5110   29.5740   50.2670 N   0  0  0  0  0  0  0  0  0  0  0  0
   39.1210   31.6320   50.6070 H   0  0  0  0  0  0  0  0  0  0  0  0
   38.2950   32.3340   48.3330 H   0  0  0  0  0  0  0  0  0  0  0  0
   37.9720   29.6960   52.1110 N   0  0  0  0  0  0  0  0  0  0  0  0
   38.6520   28.9030   52.1140 H   0  0  0  0  0  0  0  0  0  0  0  0
   37.4470   30.3100   52.7740 H   0  0  0  0  0  0  0  0  0  0  0  0
   33.4420   30.3130   44.5140 C   0  0  1  0  0  0  0  0  0  0  0  0
   32.6090   30.1490   45.7350 C   0  0  2  0  0  0  0  0  0  0  0  0
   32.2340   31.4490   46.0070 O   0  0  0  0  0  0  0  0  0  0  0  0
   31.6670   31.8380   44.7930 C   0  0  0  0  0  0  0  0  0  0  0  0
   32.4910   31.1960   43.6910 C   0  0  1  0  0  0  0  0  0  0  0  0
   34.5900   31.0590   44.6600 O   0  0  0  0  0  0  0  0  0  0  0  0
   35.3120   30.7350   44.0340 H   0  0  0  0  0  0  0  0  0  0  0  0
   33.1500   32.1480   42.9540 O   0  0  0  0  0  0  0  0  0  0  0  0
   34.0680   32.3300   43.3090 H   0  0  0  0  0  0  0  0  0  0  0  0
  1  2  1  0  0  0  0
  1 14  1  0  0  0  0
  2  7  1  0  0  0  0
  3  8  1  0  0  0  0
  3  2  2  0  0  0  0
  4  3  1  0  0  0  0
  5  4  2  0  0  0  0
  5  6  1  0  0  0  0
  6  1  2  0  0  0  0
  9  4  1  0  0  0  0
 10 18  1  0  0  0  0
 11 16  1  0  0  0  0
 11 10  2  0  0  0  0
 12 11  1  0  0  0  0
 13 12  2  0  0  0  0
 13 14  1  0  0  0  0
 14 15  2  0  0  0  0
 15 10  1  0  0  0  0
 17 12  1  0  0  0  0
 18 19  1  0  0  0  0
 18 20  1  0  0  0  0
 21 26  1  1  0  0  0
 21 22  1  0  0  0  0
 22 23  1  0  0  0  0
 22  5  1  1  0  0  0
 24 23  1  0  0  0  0
 25 28  1  1  0  0  0
 25 21  1  0  0  0  0
 25 24  1  0  0  0  0
 27 26  1  0  0  0  0
 28 29  1  0  0  0  0
M  END
>  <minimizedAffinity>
-5.78889227

>  <minimizedRMSD>
0.380387187

$$$$
