
 OpenBabel03272509503D

 33 35  0  0  1  0  0  0  0  0999 V2000
   38.0250   31.3760   50.1840 C   0  0  0  0  0  0  0  0  0  0  0  0
   38.6690   31.8820   49.0450 C   0  0  0  0  0  0  0  0  0  0  0  0
   38.2690   31.4120   47.8070 C   0  0  0  0  0  0  0  0  0  0  0  0
   37.2740   30.4850   47.7530 N   0  0  0  0  0  0  0  0  0  0  0  0
   36.6700   30.0130   48.8630 C   0  0  0  0  0  0  0  0  0  0  0  0
   37.0640   30.4740   50.0690 N   0  0  0  0  0  0  0  0  0  0  0  0
   38.3710   31.7720   51.1280 H   0  0  0  0  0  0  0  0  0  0  0  0
   39.4570   32.6170   49.0970 H   0  0  0  0  0  0  0  0  0  0  0  0
   39.4820   30.7810   45.7150 C   0  0  1  0  0  3  0  0  0  0  0  0
   38.8960   31.8920   46.5250 C   0  0  1  0  0  3  0  0  0  0  0  0
   37.8580   32.3860   45.7120 O   0  0  0  0  0  0  0  0  0  0  0  0
   38.4480   32.5660   44.4790 C   0  0  0  0  0  2  0  0  0  0  0  0
   39.2970   31.3330   44.2980 C   0  0  2  0  0  3  0  0  0  0  0  0
   40.8460   30.7450   45.9800 O   0  0  0  0  0  0  0  0  0  0  0  0
   41.1440   31.6960   46.1020 H   0  0  0  0  0  0  0  0  0  0  0  0
   38.6390   30.4380   43.4870 O   0  0  0  0  0  0  0  0  0  0  0  0
   39.1130   29.5610   43.4820 H   0  0  0  0  0  0  0  0  0  0  0  0
   35.7000   29.0920   48.6040 O   0  0  0  0  0  0  0  0  0  0  0  0
   34.6010   29.5010   47.7820 C   0  0  0  0  0  0  0  0  0  0  0  0
   34.8890   30.2880   47.0810 H   0  0  0  0  0  0  0  0  0  0  0  0
   33.8560   29.9040   48.5190 H   0  0  0  0  0  0  0  0  0  0  0  0
   33.9470   28.2980   47.1600 C   0  0  0  0  0  0  0  0  0  0  0  0
   34.0420   28.3710   46.0580 H   0  0  0  0  0  0  0  0  0  0  0  0
   34.4360   27.3480   47.4550 H   0  0  0  0  0  0  0  0  0  0  0  0
   32.4820   28.2550   47.4240 C   0  0  0  0  0  0  0  0  0  0  0  0
   32.0790   27.6720   48.6010 C   0  0  0  0  0  0  0  0  0  0  0  0
   30.7400   27.5780   48.9460 C   0  0  0  0  0  0  0  0  0  0  0  0
   29.8250   28.0690   48.1110 N   0  0  0  0  0  0  0  0  0  0  0  0
   30.2290   28.6410   46.9540 C   0  0  0  0  0  0  0  0  0  0  0  0
   31.5260   28.7380   46.6070 N   0  0  0  0  0  0  0  0  0  0  0  0
   32.8030   27.2660   49.2960 H   0  0  0  0  0  0  0  0  0  0  0  0
   30.4620   27.1090   49.8850 H   0  0  0  0  0  0  0  0  0  0  0  0
   29.4410   29.0170   46.3260 H   0  0  0  0  0  0  0  0  0  0  0  0
  1  7  1  0  0  0  0
  2  8  1  0  0  0  0
  2  1  2  0  0  0  0
  3  2  1  0  0  0  0
  4  3  2  0  0  0  0
  4  5  1  0  0  0  0
  5  6  2  0  0  0  0
  6  1  1  0  0  0  0
  9 14  1  1  0  0  0
  9 10  1  0  0  0  0
 10  3  1  1  0  0  0
 11 10  1  0  0  0  0
 12 11  1  0  0  0  0
 13 16  1  6  0  0  0
 13 12  1  0  0  0  0
 13  9  1  0  0  0  0
 14 15  1  0  0  0  0
 17 16  1  0  0  0  0
 18  5  1  0  0  0  0
 19 21  1  0  0  0  0
 19 18  1  0  0  0  0
 20 19  1  0  0  0  0
 22 25  1  0  0  0  0
 22 24  1  0  0  0  0
 22 19  1  0  0  0  0
 23 22  1  0  0  0  0
 25 26  1  0  0  0  0
 26 27  2  0  0  0  0
 26 31  1  0  0  0  0
 27 32  1  0  0  0  0
 28 27  1  0  0  0  0
 29 28  2  0  0  0  0
 30 29  1  0  0  0  0
 30 25  2  0  0  0  0
 33 29  1  0  0  0  0
M  END
>  <minimizedAffinity>
-5.53689623

>  <minimizedRMSD>
1.72828746

$$$$
