
     RDKit          3D

 24 25  0  0  0  0  0  0  0  0999 V2000
   37.2967   29.9946   51.1761 C   0  0  0  0  0  0  0  0  0  0  0  0
   37.9491   30.9153   50.3541 C   0  0  0  0  0  0  0  0  0  0  0  0
   37.2742   31.3865   49.2345 C   0  0  0  0  0  0  0  0  0  0  0  0
   36.0201   30.9287   48.9992 N   0  0  0  0  0  0  0  0  0  0  0  0
   35.4091   30.0301   49.8192 C   0  0  0  0  0  0  0  0  0  0  0  0
   36.0517   29.5785   50.8893 N   0  0  0  0  0  0  0  0  0  0  0  0
   38.0931   29.6102   52.2596 O   0  0  0  0  0  0  0  0  0  0  0  0
   38.9496   31.3089   50.5027 H   0  0  0  0  0  0  0  0  0  0  0  0
   37.7017   32.0872   48.5612 H   0  0  0  0  0  0  0  0  0  0  0  0
   38.3824   28.6410   52.2617 H   0  0  0  0  0  0  0  0  0  0  0  0
   32.9726   31.1249   51.0168 O   0  0  0  0  0  0  0  0  0  0  0  0
   32.9821   30.6277   49.7311 C   0  0  1  0  0  0  0  0  0  0  0  0
   34.0509   29.5770   49.5053 C   0  0  2  0  0  0  0  0  0  0  0  0
   33.6431   28.4425   50.1919 O   0  0  0  0  0  0  0  0  0  0  0  0
   32.3207   28.6126   50.5787 C   0  0  0  0  0  0  0  0  0  0  0  0
   31.7637   29.6940   49.6404 C   0  0  2  0  0  0  0  0  0  0  0  0
   31.6551   29.1128   48.3912 O   0  0  0  0  0  0  0  0  0  0  0  0
   33.8660   31.4016   51.3410 H   0  0  0  0  0  0  0  0  0  0  0  0
   32.9588   31.3798   48.9304 H   0  0  0  0  0  0  0  0  0  0  0  0
   33.9441   29.2985   48.4159 H   0  0  0  0  0  0  0  0  0  0  0  0
   32.3702   29.0191   51.6216 H   0  0  0  0  0  0  0  0  0  0  0  0
   31.6960   27.7238   50.5324 H   0  0  0  0  0  0  0  0  0  0  0  0
   30.8551   30.1415   50.0371 H   0  0  0  0  0  0  0  0  0  0  0  0
   31.5315   29.7534   47.6575 H   0  0  0  0  0  0  0  0  0  0  0  0
  1  7  1  0
  2  1  2  0
  3  2  1  0
  4  3  2  0
  4  5  1  0
  5  6  2  0
  6  1  1  0
  2  8  1  0
  3  9  1  0
  7 10  1  0
 11 12  1  0
 12 13  1  0
 13 14  1  0
 14 15  1  0
 15 16  1  0
 16 17  1  0
 16 12  1  0
 11 18  1  0
 12 19  1  6
 13 20  1  6
 15 21  1  0
 15 22  1  0
 16 23  1  1
 17 24  1  0
  5 13  1  0
M  ISO  3   8  14   9  14  10   3
M  END
>  <DihAtoms>  (1) 
3,4,12,11

>  <DihDeg>  (1) 
-101.59303392065556

$$$$
