REMARK  Name = 
REMARK  6 active torsions:
REMARK  status: ('A' for Active; 'I' for Inactive)
REMARK    1  A    between atoms: C_3  and  C_10
REMARK    2  A    between atoms: C_7  and  N_16
REMARK    3  A    between atoms: C_14  and  C_18
REMARK    4  A    between atoms: C_25  and  C_39
REMARK    5  A    between atoms: O_37  and  C_38
REMARK    6  A    between atoms: C_42  and  O_43
REMARK                            x       y       z     vdW  Elec       q    Type
REMARK                         _______ _______ _______ _____ _____    ______ ____
ROOT
ATOM      1  C   UNL     1      39.284  31.907  44.935  0.00  0.00    +0.000 C 
ATOM      2  O   UNL     1      38.195  32.558  45.048  0.00  0.00    +0.000 OA
ATOM      3  N   UNL     1      39.967  31.646  46.154  0.00  0.00    +0.000 N 
ATOM      4  H   UNL     1      40.849  31.125  46.104  0.00  0.00    +0.000 HD
ENDROOT
BRANCH   1   6
ATOM      5  C   UNL     1      39.202  32.203  42.555  0.00  0.00    +0.000 A 
ATOM      6  C   UNL     1      39.719  31.501  43.620  0.00  0.00    +0.000 A 
ATOM      7  C   UNL     1      40.613  30.456  43.467  0.00  0.00    +0.000 A 
ATOM      8  C   UNL     1      41.005  30.098  42.190  0.00  0.00    +0.000 A 
ATOM      9  N   UNL     1      41.838  29.150  41.730  0.00  0.00    +0.000 N 
ATOM     10  C   UNL     1      41.855  29.241  40.399  0.00  0.00    +0.000 A 
ATOM     11  N   UNL     1      41.047  30.230  40.025  0.00  0.00    +0.000 NA
ATOM     12  C   UNL     1      40.487  30.801  41.118  0.00  0.00    +0.000 A 
ATOM     13  C   UNL     1      39.592  31.850  41.254  0.00  0.00    +0.000 A 
ATOM     14  H   UNL     1      38.498  33.027  42.669  0.00  0.00    +0.000 HD
ATOM     15  H   UNL     1      40.998  29.927  44.324  0.00  0.00    +0.000 HD
ATOM     16  H   UNL     1      42.345  28.495  42.368  0.00  0.00    +0.000 HD
ATOM     17  H   UNL     1      42.469  28.565  39.793  0.00  0.00    +0.000 HD
BRANCH  13  19
ATOM     18  C   UNL     1      38.290  31.789  39.117  0.00  0.00    +0.000 C 
ATOM     19  C   UNL     1      39.060  32.575  40.116  0.00  0.00    +0.000 C 
ATOM     20  O   UNL     1      38.162  33.577  40.470  0.00  0.00    +0.000 OA
ATOM     21  C   UNL     1      37.585  34.018  39.302  0.00  0.00    +0.000 C 
ATOM     22  C   UNL     1      37.657  32.898  38.300  0.00  0.00    +0.000 C 
BRANCH  18  23
ATOM     23  O   UNL     1      39.079  30.953  38.337  0.00  0.00    +0.000 OA
ATOM     24  H   UNL     1      39.043  30.042  38.756  0.00  0.00    +0.000 HD
ENDBRANCH  18  23
BRANCH  22  25
ATOM     25  O   UNL     1      38.569  33.183  37.272  0.00  0.00    +0.000 OA
ATOM     26  H   UNL     1      38.357  34.071  36.863  0.00  0.00    +0.000 HD
ENDBRANCH  22  25
ENDBRANCH  13  19
ENDBRANCH   1   6
BRANCH   3  33
ATOM     27  F   UNL     1      38.119  30.143  47.492  0.00  0.00    +0.000 F 
ATOM     28  C   UNL     1      38.375  31.390  47.977  0.00  0.00    +0.000 A 
ATOM     29  C   UNL     1      37.709  31.830  49.094  0.00  0.00    +0.000 A 
ATOM     30  C   UNL     1      38.017  33.095  49.527  0.00  0.00    +0.000 A 
ATOM     31  C   UNL     1      38.934  33.907  48.905  0.00  0.00    +0.000 A 
ATOM     32  C   UNL     1      39.589  33.433  47.780  0.00  0.00    +0.000 A 
ATOM     33  C   UNL     1      39.304  32.165  47.317  0.00  0.00    +0.000 A 
ATOM     34  H   UNL     1      37.502  33.461  50.406  0.00  0.00    +0.000 HD
ATOM     35  H   UNL     1      39.169  34.903  49.254  0.00  0.00    +0.000 HD
ATOM     36  H   UNL     1      40.326  33.987  47.217  0.00  0.00    +0.000 HD
BRANCH  29  39
ATOM     37  C   UNL     1      36.079  29.357  51.437  0.00  0.00    +0.000 A 
ATOM     38  C   UNL     1      37.052  30.213  50.861  0.00  0.00    +0.000 A 
ATOM     39  C   UNL     1      36.747  30.941  49.721  0.00  0.00    +0.000 A 
ATOM     40  N   UNL     1      35.486  30.788  49.197  0.00  0.00    +0.000 NA
ATOM     41  C   UNL     1      34.583  29.970  49.763  0.00  0.00    +0.000 A 
ATOM     42  N   UNL     1      34.875  29.272  50.856  0.00  0.00    +0.000 NA
ATOM     43  H   UNL     1      36.465  28.855  52.325  0.00  0.00    +0.000 HD
ATOM     44  H   UNL     1      38.035  30.361  51.230  0.00  0.00    +0.000 HD
ATOM     45  H   UNL     1      33.589  29.823  49.386  0.00  0.00    +0.000 HD
ENDBRANCH  29  39
ENDBRANCH   3  33
TORSDOF 6
