
     RDKit          3D

 37 39  0  0  0  0  0  0  0  0999 V2000
   35.1636   28.6716   50.0306 C   0  0  0  0  0  0  0  0  0  0  0  0
   36.2354   29.5953   49.8534 C   0  0  0  0  0  0  0  0  0  0  0  0
   36.1627   30.5043   48.7998 C   0  0  0  0  0  0  0  0  0  0  0  0
   35.0537   30.4538   47.9904 N   0  0  0  0  0  0  0  0  0  0  0  0
   34.0598   29.5558   48.2002 C   0  0  0  0  0  0  0  0  0  0  0  0
   34.1063   28.6743   49.2032 N   0  0  0  0  0  0  0  0  0  0  0  0
   33.0287   29.7074   47.2300 N   0  0  0  0  0  0  0  0  0  0  0  0
   37.2334   31.4585   48.5880 C   0  0  0  0  0  0  0  0  0  0  0  0
   37.1945   32.5113   49.5135 C   0  0  0  0  0  0  0  0  0  0  0  0
   38.1487   33.5097   49.4496 C   0  0  0  0  0  0  0  0  0  0  0  0
   39.1319   33.4627   48.4761 C   0  0  0  0  0  0  0  0  0  0  0  0
   39.1383   32.4153   47.5860 C   0  0  0  0  0  0  0  0  0  0  0  0
   38.2005   31.4470   47.6597 N   0  0  0  0  0  0  0  0  0  0  0  0
   37.3814   29.5516   50.7949 C   0  0  0  0  0  0  0  0  0  0  0  0
   38.5820   29.8077   50.1495 F   0  0  0  0  0  0  0  0  0  0  0  0
   37.1942   30.4999   51.7608 F   0  0  0  0  0  0  0  0  0  0  0  0
   37.5139   28.3248   51.4285 F   0  0  0  0  0  0  0  0  0  0  0  0
   35.2041   27.9549   50.8482 H   0  0  0  0  0  0  0  0  0  0  0  0
   33.2683   29.6244   46.2105 H   0  0  0  0  0  0  0  0  0  0  0  0
   32.0281   29.9021   47.5329 H   0  0  0  0  0  0  0  0  0  0  0  0
   36.4852   32.6729   50.3236 H   0  0  0  0  0  0  0  0  0  0  0  0
   38.1877   34.3538   50.1249 H   0  0  0  0  0  0  0  0  0  0  0  0
   39.8912   34.2077   48.3835 H   0  0  0  0  0  0  0  0  0  0  0  0
   38.6202   30.9342   45.3307 O   0  0  0  0  0  0  0  0  0  0  0  0
   39.6254   31.8935   45.2048 C   0  0  1  0  0  0  0  0  0  0  0  0
   40.1757   32.3273   46.5264 C   0  0  2  0  0  0  0  0  0  0  0  0
   41.1456   31.3445   46.8287 O   0  0  0  0  0  0  0  0  0  0  0  0
   41.8948   31.3954   45.6528 C   0  0  0  0  0  0  0  0  0  0  0  0
   40.8423   31.1968   44.5983 C   0  0  2  0  0  0  0  0  0  0  0  0
   41.1833   31.8420   43.3975 O   0  0  0  0  0  0  0  0  0  0  0  0
   38.4686   30.5877   44.3957 H   0  0  0  0  0  0  0  0  0  0  0  0
   39.3515   32.7548   44.5825 H   0  0  0  0  0  0  0  0  0  0  0  0
   40.7244   33.2816   46.4017 H   0  0  0  0  0  0  0  0  0  0  0  0
   42.7105   30.6454   45.6156 H   0  0  0  0  0  0  0  0  0  0  0  0
   42.2972   32.4381   45.5211 H   0  0  0  0  0  0  0  0  0  0  0  0
   40.6661   30.1193   44.4128 H   0  0  0  0  0  0  0  0  0  0  0  0
   41.9725   31.3957   43.0166 H   0  0  0  0  0  0  0  0  0  0  0  0
  2  1  2  0
  2 14  1  0
  3  2  1  0
  4  5  1  0
  4  3  2  0
  5  6  2  0
  6  1  1  0
  7  5  1  0
  8  3  1  0
  8  9  2  0
 10  9  1  0
 11 10  2  0
 12 13  2  0
 12 11  1  0
 13  8  1  0
 14 17  1  0
 14 16  1  0
 15 14  1  0
  1 18  1  0
  7 19  1  0
  7 20  1  0
  9 21  1  0
 10 22  1  0
 11 23  1  0
 24 25  1  0
 25 26  1  0
 26 27  1  0
 27 28  1  0
 28 29  1  0
 29 30  1  0
 29 25  1  0
 24 31  1  0
 25 32  1  6
 26 33  1  6
 28 34  1  0
 28 35  1  0
 29 36  1  6
 30 37  1  0
 12 26  1  0
M  ISO  4  18  14  21  14  22  14  23  14
M  END
>  <DihAtoms>  (1) 
12,11,25,24

>  <DihDeg>  (1) 
-18.4006776912922

$$$$
