
 OpenBabel03272506143D

 24 25  0  0  1  0  0  0  0  0999 V2000
   36.0970   29.9460   49.9160 C   0  0  0  0  0  0  0  0  0  0  0  0
   36.4680   28.7460   50.5230 C   0  0  0  0  0  0  0  0  0  0  0  0
   37.7290   28.6490   51.0910 C   0  0  0  0  0  0  0  0  0  0  0  0
   38.5600   29.7280   51.0360 N   0  0  0  0  0  0  0  0  0  0  0  0
   38.1730   30.8960   50.4360 C   0  0  0  0  0  0  0  0  0  0  0  0
   36.9380   30.9920   49.8790 N   0  0  0  0  0  0  0  0  0  0  0  0
   35.7460   27.9590   50.5130 H   0  0  0  0  0  0  0  0  0  0  0  0
   38.8540   31.7330   50.4090 H   0  0  0  0  0  0  0  0  0  0  0  0
   38.7890   26.4220   50.8040 C   0  0  1  0  0  3  0  0  0  0  0  0
   38.1320   27.3780   51.7380 C   0  0  1  0  0  3  0  0  0  0  0  0
   39.0620   27.6190   52.7490 O   0  0  0  0  0  0  0  0  0  0  0  0
   39.4610   26.3210   53.0660 C   0  0  0  0  0  2  0  0  0  0  0  0
   39.8820   25.8110   51.6830 C   0  0  2  0  0  3  0  0  0  0  0  0
   37.9300   25.3880   50.4100 O   0  0  0  0  0  0  0  0  0  0  0  0
   37.4530   24.9930   51.2040 H   0  0  0  0  0  0  0  0  0  0  0  0
   41.1320   26.3250   51.4040 O   0  0  0  0  0  0  0  0  0  0  0  0
   41.7120   26.0830   52.1640 H   0  0  0  0  0  0  0  0  0  0  0  0
   34.8750   30.1960   49.3060 O   0  0  0  0  0  0  0  0  0  0  0  0
   35.8190   30.2820   46.7920 O   0  0  0  0  0  0  0  0  0  0  0  0
   34.6050   29.9250   47.6410 P   0  0  0  0  0  0  0  0  0  0  0  0
   34.2550   28.2600   47.4910 O   0  0  0  0  0  0  0  0  0  0  0  0
   33.9320   28.0470   46.5620 H   0  0  0  0  0  0  0  0  0  0  0  0
   33.3370   30.8750   47.0730 O   0  0  0  0  0  0  0  0  0  0  0  0
   32.5970   30.2560   46.8060 H   0  0  0  0  0  0  0  0  0  0  0  0
  1  2  1  0  0  0  0
  2  3  2  0  0  0  0
  4  3  1  0  0  0  0
  5  4  2  0  0  0  0
  6  1  2  0  0  0  0
  6  5  1  0  0  0  0
  7  2  1  0  0  0  0
  8  5  1  0  0  0  0
  9 14  1  1  0  0  0
  9 13  1  0  0  0  0
  9 10  1  0  0  0  0
 10  3  1  6  0  0  0
 10 11  1  0  0  0  0
 11 12  1  0  0  0  0
 13 16  1  6  0  0  0
 13 12  1  0  0  0  0
 14 15  1  0  0  0  0
 16 17  1  0  0  0  0
 18  1  1  0  0  0  0
 19 20  2  0  0  0  0
 20 18  1  0  0  0  0
 21 20  1  0  0  0  0
 22 21  1  0  0  0  0
 23 20  1  0  0  0  0
 24 23  1  0  0  0  0
M  END
>  <minimizedAffinity>
2.75083494

>  <minimizedRMSD>
1.58213556

$$$$
