
 OpenBabel03272508183D

 25 27  0  0  1  0  0  0  0  0999 V2000
   35.8270   29.6640   49.3980 C   0  0  0  0  0  0  0  0  0  0  0  0
   35.9660   30.1740   48.0990 C   0  0  0  0  0  0  0  0  0  0  0  0
   34.9750   29.6680   47.2420 C   0  0  0  0  0  0  0  0  0  0  0  0
   34.0150   28.8010   47.6350 N   0  0  0  0  0  0  0  0  0  0  0  0
   33.9390   28.3530   48.9060 C   0  0  0  0  0  0  0  0  0  0  0  0
   34.8560   28.7940   49.7800 N   0  0  0  0  0  0  0  0  0  0  0  0
   34.8930   29.9280   46.1820 H   0  0  0  0  0  0  0  0  0  0  0  0
   33.2570   27.6770   49.3880 H   0  0  0  0  0  0  0  0  0  0  0  0
   36.8050   30.2170   50.4200 C   0  0  0  0  0  0  0  0  0  0  0  0
   36.8280   29.7170   51.7700 C   0  0  0  0  0  0  0  0  0  0  0  0
   37.8320   29.1290   50.8160 C   0  0  0  0  0  0  0  0  0  0  0  0
   37.3730   31.1490   50.1490 H   0  0  0  0  0  0  0  0  0  0  0  0
   35.9620   29.0550   52.0690 H   0  0  0  0  0  0  0  0  0  0  0  0
   37.2180   30.2620   52.6410 H   0  0  0  0  0  0  0  0  0  0  0  0
   37.6160   28.1270   50.4700 H   0  0  0  0  0  0  0  0  0  0  0  0
   38.8680   29.4450   50.9830 H   0  0  0  0  0  0  0  0  0  0  0  0
   37.2300   30.8460   46.0690 C   0  0  2  0  0  0  0  0  0  0  0  0
   36.9160   31.0840   47.5540 C   0  0  2  0  0  0  0  0  0  0  0  0
   38.1270   31.2780   48.1150 O   0  0  0  0  0  0  0  0  0  0  0  0
   39.0300   31.7230   47.1950 C   0  0  0  0  0  0  0  0  0  0  0  0
   38.2410   31.9680   45.9010 C   0  0  1  0  0  0  0  0  0  0  0  0
   36.0520   31.0950   45.3830 O   0  0  0  0  0  0  0  0  0  0  0  0
   35.8850   32.0540   45.3610 H   0  0  0  0  0  0  0  0  0  0  0  0
   39.0150   31.8390   44.7820 O   0  0  0  0  0  0  0  0  0  0  0  0
   39.9170   32.2420   44.9780 H   0  0  0  0  0  0  0  0  0  0  0  0
  1  6  1  0  0  0  0
  1  9  1  0  0  0  0
  2  1  2  0  0  0  0
  3  4  2  0  0  0  0
  3  2  1  0  0  0  0
  4  5  1  0  0  0  0
  5  8  1  0  0  0  0
  5  6  2  0  0  0  0
  7  3  1  0  0  0  0
  9 11  1  0  0  0  0
  9 10  1  0  0  0  0
 10 13  1  0  0  0  0
 10 14  1  0  0  0  0
 11 16  1  0  0  0  0
 11 10  1  0  0  0  0
 12  9  1  0  0  0  0
 15 11  1  0  0  0  0
 17 22  1  6  0  0  0
 17 18  1  0  0  0  0
 18  2  1  1  0  0  0
 18 19  1  0  0  0  0
 20 19  1  0  0  0  0
 21 24  1  6  0  0  0
 21 17  1  0  0  0  0
 21 20  1  0  0  0  0
 23 22  1  0  0  0  0
 24 25  1  0  0  0  0
M  END
>  <minimizedAffinity>
-5.03769255

>  <minimizedRMSD>
5.23415327

$$$$
