
     RDKit          3D

 50 54  0  0  0  0  0  0  0  0999 V2000
   38.1186   30.1434   47.4917 F   0  0  0  0  0  0  0  0  0  0  0  0
   38.3754   31.3902   47.9765 C   0  0  0  0  0  0  0  0  0  0  0  0
   37.7089   31.8303   49.0938 C   0  0  0  0  0  0  0  0  0  0  0  0
   38.0165   33.0946   49.5266 C   0  0  0  0  0  0  0  0  0  0  0  0
   38.9341   33.9069   48.9049 C   0  0  0  0  0  0  0  0  0  0  0  0
   39.5894   33.4327   47.7796 C   0  0  0  0  0  0  0  0  0  0  0  0
   39.3037   32.1652   47.3174 C   0  0  0  0  0  0  0  0  0  0  0  0
   36.0791   29.3569   51.4371 C   0  0  0  0  0  0  0  0  0  0  0  0
   37.0516   30.2132   50.8607 C   0  0  0  0  0  0  0  0  0  0  0  0
   36.7474   30.9408   49.7205 C   0  0  0  0  0  0  0  0  0  0  0  0
   35.4865   30.7882   49.1973 N   0  0  0  0  0  0  0  0  0  0  0  0
   34.5829   29.9700   49.7628 C   0  0  0  0  0  0  0  0  0  0  0  0
   34.8751   29.2723   50.8565 N   0  0  0  0  0  0  0  0  0  0  0  0
   39.2840   31.9067   44.9347 C   0  0  0  0  0  0  0  0  0  0  0  0
   38.1948   32.5583   45.0481 O   0  0  0  0  0  0  0  0  0  0  0  0
   39.9665   31.6460   46.1535 N   0  0  0  0  0  0  0  0  0  0  0  0
   39.2019   32.2029   42.5552 C   0  0  0  0  0  0  0  0  0  0  0  0
   39.7194   31.5009   43.6199 C   0  0  0  0  0  0  0  0  0  0  0  0
   40.6126   30.4558   43.4674 C   0  0  0  0  0  0  0  0  0  0  0  0
   41.0046   30.0983   42.1903 C   0  0  0  0  0  0  0  0  0  0  0  0
   41.8380   29.1497   41.7297 N   0  0  0  0  0  0  0  0  0  0  0  0
   41.8552   29.2406   40.3994 C   0  0  0  0  0  0  0  0  0  0  0  0
   41.0465   30.2297   40.0249 N   0  0  0  0  0  0  0  0  0  0  0  0
   40.4873   30.8006   41.1182 C   0  0  0  0  0  0  0  0  0  0  0  0
   39.5920   31.8497   41.2543 C   0  0  0  0  0  0  0  0  0  0  0  0
   37.5022   33.4608   50.4059 H   0  0  0  0  0  0  0  0  0  0  0  0
   39.1695   34.9026   49.2543 H   0  0  0  0  0  0  0  0  0  0  0  0
   40.3263   33.9872   47.2170 H   0  0  0  0  0  0  0  0  0  0  0  0
   36.4649   28.8546   52.3255 H   0  0  0  0  0  0  0  0  0  0  0  0
   38.0353   30.3612   51.2305 H   0  0  0  0  0  0  0  0  0  0  0  0
   33.5892   29.8227   49.3864 H   0  0  0  0  0  0  0  0  0  0  0  0
   40.8489   31.1247   46.1039 H   0  0  0  0  0  0  0  0  0  0  0  0
   38.4981   33.0270   42.6689 H   0  0  0  0  0  0  0  0  0  0  0  0
   40.9984   29.9272   44.3243 H   0  0  0  0  0  0  0  0  0  0  0  0
   42.3454   28.4954   42.3678 H   0  0  0  0  0  0  0  0  0  0  0  0
   42.4687   28.5647   39.7929 H   0  0  0  0  0  0  0  0  0  0  0  0
   39.0794   30.9526   38.3365 O   0  0  0  0  0  0  0  0  0  0  0  0
   38.2902   31.7888   39.1174 C   0  0  1  0  0  0  0  0  0  0  0  0
   39.0596   32.5755   40.1158 C   0  0  1  0  0  0  0  0  0  0  0  0
   38.1617   33.5774   40.4696 O   0  0  0  0  0  0  0  0  0  0  0  0
   37.5850   34.0180   39.3019 C   0  0  0  0  0  0  0  0  0  0  0  0
   37.6572   32.8985   38.2998 C   0  0  1  0  0  0  0  0  0  0  0  0
   38.5691   33.1831   37.2720 O   0  0  0  0  0  0  0  0  0  0  0  0
   39.0429   30.0418   38.7564 H   0  0  0  0  0  0  0  0  0  0  0  0
   37.4661   31.1916   39.5321 H   0  0  0  0  0  0  0  0  0  0  0  0
   39.8924   33.0796   39.5699 H   0  0  0  0  0  0  0  0  0  0  0  0
   36.5104   34.2299   39.5062 H   0  0  0  0  0  0  0  0  0  0  0  0
   38.0569   34.9379   38.8982 H   0  0  0  0  0  0  0  0  0  0  0  0
   36.6560   32.6168   37.9223 H   0  0  0  0  0  0  0  0  0  0  0  0
   38.3567   34.0713   36.8632 H   0  0  0  0  0  0  0  0  0  0  0  0
  1  2  1  0
  2  3  2  0
  3  4  1  0
  3 10  1  0
  5  4  2  0
  6  5  1  0
  7  6  2  0
  7  2  1  0
  9  8  2  0
 10  9  1  0
 11 10  2  0
 11 12  1  0
 12 13  2  0
 13  8  1  0
 14 15  2  0
 14 16  1  0
 16  7  1  0
 17 18  2  0
 18 14  1  0
 19 18  1  0
 20 19  2  0
 21 20  1  0
 22 21  1  0
 23 22  2  0
 23 24  1  0
 24 25  2  0
 24 20  1  0
 25 17  1  0
  4 26  1  0
  5 27  1  0
  6 28  1  0
  8 29  1  0
  9 30  1  0
 12 31  1  0
 16 32  1  0
 17 33  1  0
 19 34  1  0
 21 35  1  0
 22 36  1  0
 37 38  1  0
 38 39  1  0
 39 40  1  0
 40 41  1  0
 41 42  1  0
 42 43  1  0
 42 38  1  0
 37 44  1  0
 38 45  1  1
 39 46  1  6
 41 47  1  0
 41 48  1  0
 42 49  1  6
 43 50  1  0
 25 39  1  0
M  ISO  8  26  14  27  14  28  14  29  14  30  14  31  14  33  14  34  14
M  ISO  2  35   9  36  14
M  END
>  <DihAtoms>  (1) 
23,24,38,37

>  <DihDeg>  (1) 
-90.0042054346207

$$$$
