
 OpenBabel03272509203D

 46 50  0  0  1  0  0  0  0  0999 V2000
   37.9640   31.2050   47.5910 C   0  0  0  0  0  0  0  0  0  0  0  0
   37.1160   31.2540   48.6860 C   0  0  0  0  0  0  0  0  0  0  0  0
   37.3470   32.3610   49.5220 C   0  0  0  0  0  0  0  0  0  0  0  0
   38.3410   33.3000   49.2480 C   0  0  0  0  0  0  0  0  0  0  0  0
   39.1440   33.1410   48.0980 C   0  0  0  0  0  0  0  0  0  0  0  0
   38.9400   32.0680   47.2610 C   0  0  0  0  0  0  0  0  0  0  0  0
   36.7510   32.5170   50.4160 H   0  0  0  0  0  0  0  0  0  0  0  0
   38.4940   34.1450   49.9140 H   0  0  0  0  0  0  0  0  0  0  0  0
   39.8840   33.8970   47.9510 H   0  0  0  0  0  0  0  0  0  0  0  0
   34.9120   30.3110   48.2490 C   0  0  0  0  0  0  0  0  0  0  0  0
   36.1020   30.2970   48.9680 C   0  0  0  0  0  0  0  0  0  0  0  0
   36.2510   29.3160   49.9630 C   0  0  0  0  0  0  0  0  0  0  0  0
   35.2320   28.4440   50.1640 N   0  0  0  0  0  0  0  0  0  0  0  0
   34.0860   28.4990   49.4330 C   0  0  0  0  0  0  0  0  0  0  0  0
   33.9280   29.4250   48.4830 N   0  0  0  0  0  0  0  0  0  0  0  0
   34.7850   31.0610   47.4820 H   0  0  0  0  0  0  0  0  0  0  0  0
   33.3220   27.7600   49.6610 H   0  0  0  0  0  0  0  0  0  0  0  0
   37.5060   29.2570   50.7620 C   0  0  0  0  0  0  0  0  0  0  0  0
   38.3670   29.0800   50.0860 H   0  0  0  0  0  0  0  0  0  0  0  0
   37.6450   30.1170   51.4370 H   0  0  0  0  0  0  0  0  0  0  0  0
   37.4480   28.3540   51.3980 H   0  0  0  0  0  0  0  0  0  0  0  0
   37.8100   30.1260   46.6900 O   0  0  0  0  0  0  0  0  0  0  0  0
   38.0490   29.2320   47.0720 H   0  0  0  0  0  0  0  0  0  0  0  0
   39.7560   31.9700   46.1590 O   0  0  0  0  0  0  0  0  0  0  0  0
   39.9680   31.2420   43.7860 C   0  0  0  0  0  0  0  0  0  0  0  0
   39.3670   31.8950   44.8540 C   0  0  0  0  0  0  0  0  0  0  0  0
   38.1950   32.5920   44.6290 C   0  0  0  0  0  0  0  0  0  0  0  0
   37.6170   32.6410   43.3430 C   0  0  0  0  0  0  0  0  0  0  0  0
   36.5200   33.2170   42.8230 N   0  0  0  0  0  0  0  0  0  0  0  0
   36.4340   32.9440   41.5050 C   0  0  0  0  0  0  0  0  0  0  0  0
   37.5140   32.1750   41.2090 N   0  0  0  0  0  0  0  0  0  0  0  0
   38.2460   31.9820   42.3220 C   0  0  0  0  0  0  0  0  0  0  0  0
   39.4090   31.2850   42.5210 C   0  0  0  0  0  0  0  0  0  0  0  0
   40.8800   30.7290   44.0770 H   0  0  0  0  0  0  0  0  0  0  0  0
   37.6180   33.1450   45.3560 H   0  0  0  0  0  0  0  0  0  0  0  0
   35.8360   33.7880   43.3510 H   0  0  0  0  0  0  0  0  0  0  0  0
   35.7210   33.2170   40.7660 H   0  0  0  0  0  0  0  0  0  0  0  0
   41.1870   29.6220   41.9520 C   0  0  2  0  0  3  0  0  0  0  0  0
   40.1380   30.5470   41.4410 C   0  0  1  0  0  3  0  0  0  0  0  0
   39.2100   29.8600   40.7080 O   0  0  0  0  0  0  0  0  0  0  0  0
   39.6500   28.5540   40.5550 C   0  0  0  0  0  2  0  0  0  0  0  0
   40.5880   28.2580   41.6790 C   0  0  2  0  0  3  0  0  0  0  0  0
   41.4670   29.7980   43.3040 O   0  0  0  0  0  0  0  0  0  0  0  0
   40.9830   29.0930   43.7940 H   0  0  0  0  0  0  0  0  0  0  0  0
   39.9850   27.6980   42.8010 O   0  0  0  0  0  0  0  0  0  0  0  0
   39.1640   27.1890   42.5940 H   0  0  0  0  0  0  0  0  0  0  0  0
  1  2  1  0  0  0  0
  2 11  1  0  0  0  0
  2  3  2  0  0  0  0
  3  7  1  0  0  0  0
  4  3  1  0  0  0  0
  4  8  1  0  0  0  0
  5  4  2  0  0  0  0
  6  1  2  0  0  0  0
  6  5  1  0  0  0  0
  9  5  1  0  0  0  0
 10 15  2  0  0  0  0
 10 11  1  0  0  0  0
 11 12  2  0  0  0  0
 12 13  1  0  0  0  0
 12 18  1  0  0  0  0
 14 17  1  0  0  0  0
 14 13  2  0  0  0  0
 15 14  1  0  0  0  0
 16 10  1  0  0  0  0
 18 21  1  0  0  0  0
 18 20  1  0  0  0  0
 19 18  1  0  0  0  0
 22 23  1  0  0  0  0
 22  1  1  0  0  0  0
 24  6  1  0  0  0  0
 25 34  1  0  0  0  0
 25 26  1  0  0  0  0
 26 24  1  0  0  0  0
 27 26  2  0  0  0  0
 27 35  1  0  0  0  0
 28 27  1  0  0  0  0
 29 28  1  0  0  0  0
 29 36  1  0  0  0  0
 30 29  1  0  0  0  0
 31 30  2  0  0  0  0
 31 32  1  0  0  0  0
 32 33  1  0  0  0  0
 32 28  2  0  0  0  0
 33 25  2  0  0  0  0
 37 30  1  0  0  0  0
 38 43  1  1  0  0  0
 39 38  1  0  0  0  0
 39 33  1  1  0  0  0
 40 39  1  0  0  0  0
 41 40  1  0  0  0  0
 41 42  1  0  0  0  0
 42 38  1  0  0  0  0
 42 45  1  1  0  0  0
 43 44  1  0  0  0  0
 46 45  1  0  0  0  0
M  END
>  <minimizedAffinity>
-7.98764181

>  <minimizedRMSD>
0.744205117

$$$$
