
 OpenBabel03272508533D

 38 41  0  0  1  0  0  0  0  0999 V2000
   38.3380   31.6040   44.2340 C   0  0  0  0  0  0  0  0  0  0  0  0
   37.2330   32.1960   44.1220 O   0  0  0  0  0  0  0  0  0  0  0  0
   38.9090   31.3830   45.5370 N   0  0  0  0  0  0  0  0  0  0  0  0
   39.8800   31.0820   45.6860 H   0  0  0  0  0  0  0  0  0  0  0  0
   39.0760   31.1240   43.0510 C   0  0  0  0  0  0  0  0  0  0  0  0
   40.2210   30.4020   43.2460 C   0  0  0  0  0  0  0  0  0  0  0  0
   40.9040   29.9630   42.1240 C   0  0  0  0  0  0  0  0  0  0  0  0
   40.3930   30.2740   40.8840 C   0  0  0  0  0  0  0  0  0  0  0  0
   39.2210   31.0120   40.6830 C   0  0  0  0  0  0  0  0  0  0  0  0
   38.6040   31.4110   41.8170 N   0  0  0  0  0  0  0  0  0  0  0  0
   40.6290   30.1530   44.2080 H   0  0  0  0  0  0  0  0  0  0  0  0
   41.8060   29.3950   42.2030 H   0  0  0  0  0  0  0  0  0  0  0  0
   40.8990   29.9480   39.9840 H   0  0  0  0  0  0  0  0  0  0  0  0
   39.8220   31.6590   38.3490 C   0  0  1  0  0  3  0  0  0  0  0  0
   38.7380   31.3050   39.3280 C   0  0  2  0  0  3  0  0  0  0  0  0
   37.8100   32.3360   39.2970 O   0  0  0  0  0  0  0  0  0  0  0  0
   38.4680   33.4850   38.9310 C   0  0  0  0  0  2  0  0  0  0  0  0
   39.6380   33.1180   38.0720 C   0  0  2  0  0  3  0  0  0  0  0  0
   41.0740   31.4870   38.9540 O   0  0  0  0  0  0  0  0  0  0  0  0
   41.4440   32.3490   39.3080 H   0  0  0  0  0  0  0  0  0  0  0  0
   39.3990   33.3660   36.7100 O   0  0  0  0  0  0  0  0  0  0  0  0
   38.4500   33.6570   36.6020 H   0  0  0  0  0  0  0  0  0  0  0  0
   38.4350   31.0220   47.9550 C   0  0  2  0  0  0  0  0  0  0  0  0
   38.7430   32.4530   47.7940 C   0  0  0  0  0  0  0  0  0  0  0  0
   38.0550   31.6020   46.6920 C   0  0  1  0  0  0  0  0  0  0  0  0
   39.3510   30.3870   48.0420 H   0  0  0  0  0  0  0  0  0  0  0  0
   38.1010   33.2460   48.1860 H   0  0  0  0  0  0  0  0  0  0  0  0
   39.7800   32.7740   47.6170 H   0  0  0  0  0  0  0  0  0  0  0  0
   36.9880   31.8470   46.5040 H   0  0  0  0  0  0  0  0  0  0  0  0
   35.1130   30.2980   49.4080 C   0  0  0  0  0  0  0  0  0  0  0  0
   35.4500   29.6580   50.6430 C   0  0  0  0  0  0  0  0  0  0  0  0
   36.8550   29.4980   50.9410 C   0  0  0  0  0  0  0  0  0  0  0  0
   37.7690   29.9540   50.0570 N   0  0  0  0  0  0  0  0  0  0  0  0
   37.3760   30.5560   48.9010 C   0  0  0  0  0  0  0  0  0  0  0  0
   36.0550   30.7430   48.5480 N   0  0  0  0  0  0  0  0  0  0  0  0
   34.0530   30.3880   49.2390 H   0  0  0  0  0  0  0  0  0  0  0  0
   34.6980   29.3120   51.3120 H   0  0  0  0  0  0  0  0  0  0  0  0
   37.1410   29.0210   51.8580 H   0  0  0  0  0  0  0  0  0  0  0  0
  1  3  1  0  0  0  0
  2  1  2  0  0  0  0
  3  4  1  0  0  0  0
  3 25  1  0  0  0  0
  5  6  1  0  0  0  0
  5  1  1  0  0  0  0
  6 11  1  0  0  0  0
  7 12  1  0  0  0  0
  7  6  2  0  0  0  0
  8  7  1  0  0  0  0
  9  8  2  0  0  0  0
  9 10  1  0  0  0  0
 10  5  2  0  0  0  0
 13  8  1  0  0  0  0
 14 19  1  1  0  0  0
 14 15  1  0  0  0  0
 15  9  1  1  0  0  0
 16 15  1  0  0  0  0
 17 16  1  0  0  0  0
 18 21  1  6  0  0  0
 18 14  1  0  0  0  0
 18 17  1  0  0  0  0
 19 20  1  0  0  0  0
 22 21  1  0  0  0  0
 23 26  1  6  0  0  0
 23 34  1  0  0  0  0
 24 23  1  0  0  0  0
 24 27  1  0  0  0  0
 25 29  1  6  0  0  0
 25 24  1  0  0  0  0
 25 23  1  0  0  0  0
 28 24  1  0  0  0  0
 30 31  1  0  0  0  0
 31 32  2  0  0  0  0
 31 37  1  0  0  0  0
 32 38  1  0  0  0  0
 33 32  1  0  0  0  0
 34 33  2  0  0  0  0
 35 34  1  0  0  0  0
 35 30  2  0  0  0  0
 36 30  1  0  0  0  0
M  END
>  <minimizedAffinity>
-4.99769449

>  <minimizedRMSD>
0.855856001

$$$$
