
 OpenBabel03272503543D

 44 47  0  0  1  0  0  0  0  0999 V2000
   34.6380   29.7520   46.4020 C   0  0  1  0  0  0  0  0  0  0  0  0
   33.1860   30.2520   46.2140 C   0  0  0  0  0  0  0  0  0  0  0  0
   32.8530   29.8680   44.7610 C   0  0  0  0  0  0  0  0  0  0  0  0
   33.6300   30.7960   43.9080 C   0  0  0  0  0  0  0  0  0  0  0  0
   35.1190   30.6140   44.1500 C   0  0  0  0  0  0  0  0  0  0  0  0
   35.4800   30.7210   45.6120 C   0  0  2  0  0  0  0  0  0  0  0  0
   34.5960   28.7270   45.9820 H   0  0  0  0  0  0  0  0  0  0  0  0
   32.5020   29.8030   46.9360 H   0  0  0  0  0  0  0  0  0  0  0  0
   33.2310   31.3600   46.2360 H   0  0  0  0  0  0  0  0  0  0  0  0
   31.7730   29.9880   44.6310 H   0  0  0  0  0  0  0  0  0  0  0  0
   33.1630   28.8120   44.5910 H   0  0  0  0  0  0  0  0  0  0  0  0
   33.4360   30.6200   42.8460 H   0  0  0  0  0  0  0  0  0  0  0  0
   33.3160   31.8350   44.1850 H   0  0  0  0  0  0  0  0  0  0  0  0
   35.5910   31.5090   43.6410 H   0  0  0  0  0  0  0  0  0  0  0  0
   35.4480   29.7030   43.6540 H   0  0  0  0  0  0  0  0  0  0  0  0
   35.2090   31.7520   45.9190 H   0  0  0  0  0  0  0  0  0  0  0  0
   34.5920   28.7100   48.6860 C   0  0  0  0  0  0  0  0  0  0  0  0
   35.0460   28.6820   49.9980 C   0  0  0  0  0  0  0  0  0  0  0  0
   35.9450   29.6510   50.4600 C   0  0  0  0  0  0  0  0  0  0  0  0
   36.3520   30.6230   49.5540 C   0  0  0  0  0  0  0  0  0  0  0  0
   35.9090   30.6580   48.2580 C   0  0  0  0  0  0  0  0  0  0  0  0
   35.0050   29.6720   47.8180 C   0  0  0  0  0  0  0  0  0  0  0  0
   34.7300   27.9250   50.7050 H   0  0  0  0  0  0  0  0  0  0  0  0
   36.3160   29.6520   51.4810 H   0  0  0  0  0  0  0  0  0  0  0  0
   37.0500   31.3610   49.9410 H   0  0  0  0  0  0  0  0  0  0  0  0
   36.2990   31.4640   47.6610 H   0  0  0  0  0  0  0  0  0  0  0  0
   32.9510   25.5610   47.3820 C   0  0  0  0  0  0  0  0  0  0  0  0
   33.9690   26.5050   47.6460 C   0  0  0  0  0  0  0  0  0  0  0  0
   33.6450   27.6660   48.3420 C   0  0  0  0  0  0  0  0  0  0  0  0
   32.3570   27.7980   48.7150 N   0  0  0  0  0  0  0  0  0  0  0  0
   31.3920   26.9010   48.4640 C   0  0  0  0  0  0  0  0  0  0  0  0
   31.6910   25.7940   47.8020 N   0  0  0  0  0  0  0  0  0  0  0  0
   33.3460   24.7010   46.8290 H   0  0  0  0  0  0  0  0  0  0  0  0
   34.9970   26.4120   47.3540 H   0  0  0  0  0  0  0  0  0  0  0  0
   30.3830   27.0830   48.7980 H   0  0  0  0  0  0  0  0  0  0  0  0
   37.7030   31.7860   46.2040 C   0  0  1  0  0  0  0  0  0  0  0  0
   36.9300   30.5420   45.8140 C   0  0  2  0  0  0  0  0  0  0  0  0
   37.6590   30.1670   44.6810 O   0  0  0  0  0  0  0  0  0  0  0  0
   38.9820   30.1960   45.0970 C   0  0  0  0  0  0  0  0  0  0  0  0
   39.0900   31.1070   46.3010 C   0  0  1  0  0  0  0  0  0  0  0  0
   37.8330   32.6720   45.1230 O   0  0  0  0  0  0  0  0  0  0  0  0
   37.8380   33.6170   45.4030 H   0  0  0  0  0  0  0  0  0  0  0  0
   40.1140   32.0230   46.2170 O   0  0  0  0  0  0  0  0  0  0  0  0
   39.8640   32.8410   45.7190 H   0  0  0  0  0  0  0  0  0  0  0  0
  1  7  1  6  0  0  0
  1 22  1  0  0  0  0
  2  9  1  0  0  0  0
  2  1  1  0  0  0  0
  2  8  1  0  0  0  0
  3  2  1  0  0  0  0
  4  5  1  0  0  0  0
  4 13  1  0  0  0  0
  4  3  1  0  0  0  0
  5  6  1  0  0  0  0
  6 37  1  0  0  0  0
  6 16  1  1  0  0  0
  6  1  1  0  0  0  0
 10  3  1  0  0  0  0
 11  3  1  0  0  0  0
 12  4  1  0  0  0  0
 14  5  1  0  0  0  0
 15  5  1  0  0  0  0
 17 18  1  0  0  0  0
 18 19  2  0  0  0  0
 18 23  1  0  0  0  0
 19 24  1  0  0  0  0
 20 25  1  0  0  0  0
 20 19  1  0  0  0  0
 21 20  2  0  0  0  0
 22 21  1  0  0  0  0
 22 17  2  0  0  0  0
 26 21  1  0  0  0  0
 27 28  2  0  0  0  0
 27 32  1  0  0  0  0
 28 29  1  0  0  0  0
 29 17  1  0  0  0  0
 29 30  2  0  0  0  0
 31 30  1  0  0  0  0
 31 35  1  0  0  0  0
 32 31  2  0  0  0  0
 33 27  1  0  0  0  0
 34 28  1  0  0  0  0
 36 41  1  6  0  0  0
 36 40  1  0  0  0  0
 37 38  1  6  0  0  0
 37 36  1  0  0  0  0
 38 39  1  0  0  0  0
 39 40  1  0  0  0  0
 40 43  1  6  0  0  0
 41 42  1  0  0  0  0
 44 43  1  0  0  0  0
M  END
>  <minimizedAffinity>
-6.25077534

>  <minimizedRMSD>
4.94230556

$$$$
