REMARK  Name = 
REMARK  4 active torsions:
REMARK  status: ('A' for Active; 'I' for Inactive)
REMARK    1  A    between atoms: N_1  and  C_10
REMARK    2  A    between atoms: C_9  and  C_22
REMARK    3  A    between atoms: O_20  and  C_21
REMARK    4  A    between atoms: C_25  and  O_26
REMARK                            x       y       z     vdW  Elec       q    Type
REMARK                         _______ _______ _______ _____ _____    ______ ____
ROOT
ATOM      1  C   UNL     1      36.209  29.250  49.348  0.00  0.00    +0.000 A 
ATOM      2  C   UNL     1      36.039  30.371  48.516  0.00  0.00    +0.000 A 
ATOM      3  C   UNL     1      34.898  30.381  47.697  0.00  0.00    +0.000 A 
ATOM      4  N   UNL     1      34.034  29.347  47.738  0.00  0.00    +0.000 NA
ATOM      5  C   UNL     1      34.229  28.282  48.554  0.00  0.00    +0.000 A 
ATOM      6  N   UNL     1      35.321  28.227  49.365  0.00  0.00    +0.000 NA
ATOM      7  H   UNL     1      34.806  31.255  47.076  0.00  0.00    +0.000 HD
ATOM      8  H   UNL     1      33.447  27.560  48.456  0.00  0.00    +0.000 HD
ENDROOT
BRANCH   2   9
ATOM      9  N   UNL     1      37.012  31.397  48.559  0.00  0.00    +0.000 N 
ATOM     10  C   UNL     1      37.185  32.164  49.658  0.00  0.00    +0.000 A 
ATOM     11  C   UNL     1      38.145  33.161  49.679  0.00  0.00    +0.000 A 
ATOM     12  C   UNL     1      38.860  33.260  48.496  0.00  0.00    +0.000 A 
ATOM     13  O   UNL     1      39.764  34.172  48.467  0.00  0.00    +0.000 OA
ATOM     14  N   UNL     1      38.719  32.522  47.391  0.00  0.00    +0.000 N 
ATOM     15  C   UNL     1      37.758  31.568  47.451  0.00  0.00    +0.000 A 
ATOM     16  O   UNL     1      37.603  30.852  46.413  0.00  0.00    +0.000 OA
ATOM     17  H   UNL     1      36.579  32.028  50.552  0.00  0.00    +0.000 HD
ATOM     18  H   UNL     1      38.343  33.811  50.512  0.00  0.00    +0.000 HD
ATOM     19  H   UNL     1      39.323  32.695  46.558  0.00  0.00    +0.000 HD
ENDBRANCH   2   9
BRANCH   1  21
ATOM     20  C   UNL     1      37.047  27.973  51.302  0.00  0.00    +0.000 C 
ATOM     21  C   UNL     1      37.340  29.063  50.260  0.00  0.00    +0.000 C 
ATOM     22  O   UNL     1      37.614  30.140  51.062  0.00  0.00    +0.000 OA
ATOM     23  C   UNL     1      38.701  29.610  51.797  0.00  0.00    +0.000 C 
ATOM     24  C   UNL     1      38.191  28.247  52.278  0.00  0.00    +0.000 C 
BRANCH  20  25
ATOM     25  O   UNL     1      35.853  28.215  51.971  0.00  0.00    +0.000 OA
ATOM     26  H   UNL     1      35.087  28.381  51.368  0.00  0.00    +0.000 HD
ENDBRANCH  20  25
BRANCH  24  27
ATOM     27  O   UNL     1      37.750  28.361  53.590  0.00  0.00    +0.000 OA
ATOM     28  H   UNL     1      36.767  28.441  53.654  0.00  0.00    +0.000 HD
ENDBRANCH  24  27
ENDBRANCH   1  21
TORSDOF 4
