
 OpenBabel03272507573D

 32 34  0  0  1  0  0  0  0  0999 V2000
   36.8930   31.2370   48.4720 C   0  0  0  0  0  0  0  0  0  0  0  0
   37.1500   32.1130   49.5350 C   0  0  0  0  0  0  0  0  0  0  0  0
   38.0650   33.1360   49.3680 C   0  0  0  0  0  0  0  0  0  0  0  0
   38.7180   33.2870   48.1570 C   0  0  0  0  0  0  0  0  0  0  0  0
   38.4400   32.4070   47.1370 C   0  0  0  0  0  0  0  0  0  0  0  0
   37.5440   31.4130   47.3140 N   0  0  0  0  0  0  0  0  0  0  0  0
   36.7130   32.1120   50.5330 H   0  0  0  0  0  0  0  0  0  0  0  0
   38.3190   33.8530   50.1370 H   0  0  0  0  0  0  0  0  0  0  0  0
   39.4330   34.0590   47.9760 H   0  0  0  0  0  0  0  0  0  0  0  0
   35.1670   28.3700   50.1850 C   0  0  0  0  0  0  0  0  0  0  0  0
   36.1550   29.3480   49.8710 C   0  0  0  0  0  0  0  0  0  0  0  0
   35.9110   30.2270   48.8190 C   0  0  0  0  0  0  0  0  0  0  0  0
   34.7230   30.0970   48.1420 N   0  0  0  0  0  0  0  0  0  0  0  0
   33.8130   29.1490   48.4780 C   0  0  0  0  0  0  0  0  0  0  0  0
   34.0240   28.2930   49.4830 N   0  0  0  0  0  0  0  0  0  0  0  0
   32.6720   29.2200   47.6300 N   0  0  0  0  0  0  0  0  0  0  0  0
   35.3410   27.6740   51.0030 H   0  0  0  0  0  0  0  0  0  0  0  0
   32.7990   29.1280   46.5910 H   0  0  0  0  0  0  0  0  0  0  0  0
   31.7020   29.3650   48.0420 H   0  0  0  0  0  0  0  0  0  0  0  0
   37.4010   29.3900   50.6770 C   0  0  0  0  0  0  0  0  0  0  0  0
   38.4850   29.8080   49.9190 F   0  0  0  0  0  0  0  0  0  0  0  0
   37.2280   30.2670   51.7100 F   0  0  0  0  0  0  0  0  0  0  0  0
   37.7350   28.1590   51.2200 F   0  0  0  0  0  0  0  0  0  0  0  0
   39.4630   31.2110   45.2120 C   0  0  1  0  0  3  0  0  0  0  0  0
   39.1200   32.5330   45.8210 C   0  0  2  0  0  3  0  0  0  0  0  0
   40.3680   33.1850   45.9410 O   0  0  0  0  0  0  0  0  0  0  0  0
   40.8160   33.0610   44.6260 C   0  0  0  0  0  2  0  0  0  0  0  0
   40.6960   31.5820   44.3890 C   0  0  2  0  0  3  0  0  0  0  0  0
   39.8680   30.2720   46.1610 O   0  0  0  0  0  0  0  0  0  0  0  0
   40.2470   29.5060   45.6270 H   0  0  0  0  0  0  0  0  0  0  0  0
   40.4420   31.2930   43.0380 O   0  0  0  0  0  0  0  0  0  0  0  0
   41.2340   31.5420   42.5120 H   0  0  0  0  0  0  0  0  0  0  0  0
  1 12  1  0  0  0  0
  1  2  1  0  0  0  0
  2  7  1  0  0  0  0
  3  2  2  0  0  0  0
  3  8  1  0  0  0  0
  4  3  1  0  0  0  0
  5  6  1  0  0  0  0
  5  4  2  0  0  0  0
  6  1  2  0  0  0  0
  9  4  1  0  0  0  0
 10 17  1  0  0  0  0
 11 10  1  0  0  0  0
 11 20  1  0  0  0  0
 12 11  2  0  0  0  0
 13 14  2  0  0  0  0
 13 12  1  0  0  0  0
 14 15  1  0  0  0  0
 15 10  2  0  0  0  0
 16 19  1  0  0  0  0
 16 14  1  0  0  0  0
 18 16  1  0  0  0  0
 20 23  1  0  0  0  0
 20 22  1  0  0  0  0
 21 20  1  0  0  0  0
 24 25  1  0  0  0  0
 24 29  1  1  0  0  0
 25 26  1  0  0  0  0
 25  5  1  1  0  0  0
 27 26  1  0  0  0  0
 28 31  1  6  0  0  0
 28 27  1  0  0  0  0
 28 24  1  0  0  0  0
 30 29  1  0  0  0  0
 32 31  1  0  0  0  0
M  END
>  <minimizedAffinity>
-7.22753096

>  <minimizedRMSD>
0.933790207

$$$$
