
 OpenBabel03272509033D

 33 35  0  0  1  0  0  0  0  0999 V2000
   37.2760   30.2480   51.4200 C   0  0  0  0  0  0  0  0  0  0  0  0
   38.0980   30.6360   50.3380 C   0  0  0  0  0  0  0  0  0  0  0  0
   37.6890   30.2470   49.0450 C   0  0  0  0  0  0  0  0  0  0  0  0
   36.5330   29.5250   48.9130 N   0  0  0  0  0  0  0  0  0  0  0  0
   35.7990   29.1900   49.9920 C   0  0  0  0  0  0  0  0  0  0  0  0
   36.1560   29.5420   51.2460 N   0  0  0  0  0  0  0  0  0  0  0  0
   37.6550   30.5820   52.3830 H   0  0  0  0  0  0  0  0  0  0  0  0
   39.0000   31.1980   50.4230 H   0  0  0  0  0  0  0  0  0  0  0  0
   37.7510   30.7610   46.6380 C   0  0  1  0  0  3  0  0  0  0  0  0
   38.5330   30.6420   47.8930 C   0  0  1  0  0  3  0  0  0  0  0  0
   39.2120   31.8230   48.1060 O   0  0  0  0  0  0  0  0  0  0  0  0
   38.5670   32.8300   47.4210 C   0  0  0  0  0  2  0  0  0  0  0  0
   37.5560   32.2500   46.4940 C   0  0  1  0  0  3  0  0  0  0  0  0
   38.4460   30.2650   45.5440 O   0  0  0  0  0  0  0  0  0  0  0  0
   38.1990   30.8310   44.7680 H   0  0  0  0  0  0  0  0  0  0  0  0
   37.7390   32.6580   45.1780 O   0  0  0  0  0  0  0  0  0  0  0  0
   37.5460   33.6120   45.1050 H   0  0  0  0  0  0  0  0  0  0  0  0
   34.6090   28.4190   49.7160 C   0  0  0  0  0  3  0  0  0  0  0  0
   34.3730   28.0190   48.5160 C   0  0  0  0  0  3  0  0  0  0  0  0
   33.2540   27.2230   47.9930 C   0  0  0  0  0  0  0  0  0  0  0  0
   32.7380   26.7440   48.8580 H   0  0  0  0  0  0  0  0  0  0  0  0
   32.5020   27.8510   47.4940 H   0  0  0  0  0  0  0  0  0  0  0  0
   33.6840   26.1570   47.0320 C   0  0  0  0  0  0  0  0  0  0  0  0
   33.8900   24.8250   47.3600 C   0  0  0  0  0  0  0  0  0  0  0  0
   34.2860   23.9330   46.3730 C   0  0  0  0  0  0  0  0  0  0  0  0
   34.4830   24.3440   45.0550 C   0  0  0  0  0  0  0  0  0  0  0  0
   34.2770   25.6740   44.7310 C   0  0  0  0  0  0  0  0  0  0  0  0
   33.8800   26.5660   45.7200 C   0  0  0  0  0  0  0  0  0  0  0  0
   33.7240   24.5600   48.3920 H   0  0  0  0  0  0  0  0  0  0  0  0
   34.4300   22.9120   46.6850 H   0  0  0  0  0  0  0  0  0  0  0  0
   34.7890   23.5690   44.3690 H   0  0  0  0  0  0  0  0  0  0  0  0
   34.4380   25.9580   43.7050 H   0  0  0  0  0  0  0  0  0  0  0  0
   33.7460   27.5760   45.3700 H   0  0  0  0  0  0  0  0  0  0  0  0
  1  7  1  0  0  0  0
  2  8  1  0  0  0  0
  2  1  2  0  0  0  0
  3  2  1  0  0  0  0
  4  3  2  0  0  0  0
  4  5  1  0  0  0  0
  5  6  2  0  0  0  0
  6  1  1  0  0  0  0
  9 14  1  6  0  0  0
  9 10  1  0  0  0  0
 10 11  1  0  0  0  0
 10  3  1  1  0  0  0
 12 11  1  0  0  0  0
 13 16  1  6  0  0  0
 13  9  1  0  0  0  0
 13 12  1  0  0  0  0
 15 14  1  0  0  0  0
 17 16  1  0  0  0  0
 18  5  1  0  0  0  0
 19 18  2  0  0  0  0
 20 19  1  0  0  0  0
 20 21  1  0  0  0  0
 22 20  1  0  0  0  0
 23 24  1  0  0  0  0
 23 20  1  0  0  0  0
 24 29  1  0  0  0  0
 25 30  1  0  0  0  0
 25 24  2  0  0  0  0
 26 25  1  0  0  0  0
 27 26  2  0  0  0  0
 27 28  1  0  0  0  0
 28 23  2  0  0  0  0
 31 26  1  0  0  0  0
 32 27  1  0  0  0  0
 33 28  1  0  0  0  0
M  END
>  <minimizedAffinity>
-5.33613539

>  <minimizedRMSD>
0.345530778

$$$$
