
     RDKit          3D

 37 39  0  0  0  0  0  0  0  0999 V2000
   35.1636   28.6716   50.0306 C   0  0  0  0  0  0  0  0  0  0  0  0
   36.2354   29.5953   49.8534 C   0  0  0  0  0  0  0  0  0  0  0  0
   36.1627   30.5043   48.7998 C   0  0  0  0  0  0  0  0  0  0  0  0
   35.0537   30.4538   47.9904 N   0  0  0  0  0  0  0  0  0  0  0  0
   34.0598   29.5558   48.2002 C   0  0  0  0  0  0  0  0  0  0  0  0
   34.1063   28.6743   49.2032 N   0  0  0  0  0  0  0  0  0  0  0  0
   33.0287   29.7074   47.2300 N   0  0  0  0  0  0  0  0  0  0  0  0
   37.2334   31.4585   48.5880 C   0  0  0  0  0  0  0  0  0  0  0  0
   37.1945   32.5113   49.5135 C   0  0  0  0  0  0  0  0  0  0  0  0
   38.1487   33.5097   49.4496 C   0  0  0  0  0  0  0  0  0  0  0  0
   39.1319   33.4627   48.4761 C   0  0  0  0  0  0  0  0  0  0  0  0
   39.1383   32.4153   47.5860 C   0  0  0  0  0  0  0  0  0  0  0  0
   38.2005   31.4470   47.6597 N   0  0  0  0  0  0  0  0  0  0  0  0
   37.3814   29.5516   50.7949 C   0  0  0  0  0  0  0  0  0  0  0  0
   38.5820   29.8077   50.1495 F   0  0  0  0  0  0  0  0  0  0  0  0
   37.1942   30.4999   51.7608 F   0  0  0  0  0  0  0  0  0  0  0  0
   37.5139   28.3248   51.4285 F   0  0  0  0  0  0  0  0  0  0  0  0
   35.2041   27.9549   50.8482 H   0  0  0  0  0  0  0  0  0  0  0  0
   33.2683   29.6244   46.2105 H   0  0  0  0  0  0  0  0  0  0  0  0
   32.0281   29.9021   47.5329 H   0  0  0  0  0  0  0  0  0  0  0  0
   36.4852   32.6729   50.3236 H   0  0  0  0  0  0  0  0  0  0  0  0
   38.1877   34.3538   50.1249 H   0  0  0  0  0  0  0  0  0  0  0  0
   39.8912   34.2077   48.3835 H   0  0  0  0  0  0  0  0  0  0  0  0
   40.9932   30.3917   47.6990 O   0  0  0  0  0  0  0  0  0  0  0  0
   40.8147   30.9772   46.4453 C   0  0  1  0  0  0  0  0  0  0  0  0
   40.1757   32.3273   46.5264 C   0  0  2  0  0  0  0  0  0  0  0  0
   41.2577   33.1995   46.7845 O   0  0  0  0  0  0  0  0  0  0  0  0
   42.1008   32.8321   45.7351 C   0  0  0  0  0  0  0  0  0  0  0  0
   42.2002   31.3433   45.9156 C   0  0  2  0  0  0  0  0  0  0  0  0
   42.4066   30.6853   44.6912 O   0  0  0  0  0  0  0  0  0  0  0  0
   41.5911   29.5961   47.5351 H   0  0  0  0  0  0  0  0  0  0  0  0
   40.3043   30.3354   45.7162 H   0  0  0  0  0  0  0  0  0  0  0  0
   39.7778   32.6070   45.5311 H   0  0  0  0  0  0  0  0  0  0  0  0
   43.0809   33.3501   45.7536 H   0  0  0  0  0  0  0  0  0  0  0  0
   41.5680   33.0087   44.7597 H   0  0  0  0  0  0  0  0  0  0  0  0
   43.0088   31.0837   46.6263 H   0  0  0  0  0  0  0  0  0  0  0  0
   43.2955   30.9320   44.3504 H   0  0  0  0  0  0  0  0  0  0  0  0
  2  1  2  0
  2 14  1  0
  3  2  1  0
  4  5  1  0
  4  3  2  0
  5  6  2  0
  6  1  1  0
  7  5  1  0
  8  3  1  0
  8  9  2  0
 10  9  1  0
 11 10  2  0
 12 13  2  0
 12 11  1  0
 13  8  1  0
 14 17  1  0
 14 16  1  0
 15 14  1  0
  1 18  1  0
  7 19  1  0
  7 20  1  0
  9 21  1  0
 10 22  1  0
 11 23  1  0
 24 25  1  0
 25 26  1  0
 26 27  1  0
 27 28  1  0
 28 29  1  0
 29 30  1  0
 29 25  1  0
 24 31  1  0
 25 32  1  6
 26 33  1  6
 28 34  1  0
 28 35  1  0
 29 36  1  1
 30 37  1  0
 12 26  1  0
M  ISO  4  18  14  21  14  22  14  23  14
M  END
>  <DihAtoms>  (1) 
12,11,25,24

>  <DihDeg>  (1) 
-18.4006776912922

$$$$
