
 OpenBabel03272509043D

 33 35  0  0  1  0  0  0  0  0999 V2000
   38.1420   31.0950   50.3850 C   0  0  0  0  0  0  0  0  0  0  0  0
   38.4450   31.6510   49.1230 C   0  0  0  0  0  0  0  0  0  0  0  0
   37.7110   31.1780   48.0150 C   0  0  0  0  0  0  0  0  0  0  0  0
   36.7570   30.2170   48.2240 N   0  0  0  0  0  0  0  0  0  0  0  0
   36.5220   29.7330   49.4590 C   0  0  0  0  0  0  0  0  0  0  0  0
   37.2030   30.1590   50.5440 N   0  0  0  0  0  0  0  0  0  0  0  0
   38.7480   31.5080   51.1890 H   0  0  0  0  0  0  0  0  0  0  0  0
   39.1840   32.3980   48.9420 H   0  0  0  0  0  0  0  0  0  0  0  0
   39.4080   32.2300   46.5740 C   0  0  1  0  0  0  0  0  0  0  0  0
   38.0100   31.7450   46.6790 C   0  0  1  0  0  0  0  0  0  0  0  0
   37.7710   30.8550   45.6540 O   0  0  0  0  0  0  0  0  0  0  0  0
   38.9770   30.3440   45.2270 C   0  0  0  0  0  0  0  0  0  0  0  0
   40.1000   31.1230   45.8180 C   0  0  1  0  0  0  0  0  0  0  0  0
   39.4940   33.4190   45.8620 O   0  0  0  0  0  0  0  0  0  0  0  0
   40.3480   33.3900   45.3590 H   0  0  0  0  0  0  0  0  0  0  0  0
   40.9630   31.6330   44.8570 O   0  0  0  0  0  0  0  0  0  0  0  0
   41.4420   30.8970   44.4280 H   0  0  0  0  0  0  0  0  0  0  0  0
   35.4970   28.7170   49.5400 C   0  0  0  0  0  0  0  0  0  0  0  0
   34.6610   28.5760   48.5720 C   0  0  0  0  0  0  0  0  0  0  0  0
   33.5550   27.6220   48.4170 C   0  0  0  0  0  0  0  0  0  0  0  0
   33.4760   27.0290   49.3590 H   0  0  0  0  0  0  0  0  0  0  0  0
   32.5890   28.1310   48.2900 H   0  0  0  0  0  0  0  0  0  0  0  0
   33.7400   26.6810   47.2650 C   0  0  0  0  0  0  0  0  0  0  0  0
   33.8340   25.3020   47.3700 C   0  0  0  0  0  0  0  0  0  0  0  0
   34.0030   24.5400   46.2220 C   0  0  0  0  0  0  0  0  0  0  0  0
   34.0820   25.1290   44.9610 C   0  0  0  0  0  0  0  0  0  0  0  0
   33.9890   26.5060   44.8590 C   0  0  0  0  0  0  0  0  0  0  0  0
   33.8200   27.2690   46.0090 C   0  0  0  0  0  0  0  0  0  0  0  0
   33.7670   24.8970   48.3680 H   0  0  0  0  0  0  0  0  0  0  0  0
   34.0680   23.4740   46.3640 H   0  0  0  0  0  0  0  0  0  0  0  0
   34.2130   24.4440   44.1370 H   0  0  0  0  0  0  0  0  0  0  0  0
   34.0540   26.9290   43.8720 H   0  0  0  0  0  0  0  0  0  0  0  0
   33.7590   28.3280   45.8270 H   0  0  0  0  0  0  0  0  0  0  0  0
  1  6  1  0  0  0  0
  1  7  1  0  0  0  0
  2  1  2  0  0  0  0
  3  4  2  0  0  0  0
  3  2  1  0  0  0  0
  4  5  1  0  0  0  0
  5 18  1  0  0  0  0
  5  6  2  0  0  0  0
  8  2  1  0  0  0  0
  9 14  1  6  0  0  0
  9 10  1  0  0  0  0
 10  3  1  1  0  0  0
 11 10  1  0  0  0  0
 12 11  1  0  0  0  0
 12 13  1  0  0  0  0
 13 16  1  6  0  0  0
 13  9  1  0  0  0  0
 15 14  1  0  0  0  0
 17 16  1  0  0  0  0
 19 18  2  0  0  0  0
 20 19  1  0  0  0  0
 20 21  1  0  0  0  0
 22 20  1  0  0  0  0
 23 24  1  0  0  0  0
 23 20  1  0  0  0  0
 24 29  1  0  0  0  0
 25 30  1  0  0  0  0
 25 24  2  0  0  0  0
 26 25  1  0  0  0  0
 27 26  2  0  0  0  0
 27 28  1  0  0  0  0
 28 23  2  0  0  0  0
 31 26  1  0  0  0  0
 32 27  1  0  0  0  0
 33 28  1  0  0  0  0
M  END
>  <minimizedAffinity>
-6.26027203

>  <minimizedRMSD>
1.52981639

$$$$
