
     RDKit          3D

 30 32  0  0  0  0  0  0  0  0999 V2000
   37.0106   31.1580   49.2520 C   0  0  0  0  0  0  0  0  0  0  0  0
   37.3149   32.4497   49.7172 C   0  0  0  0  0  0  0  0  0  0  0  0
   38.2983   33.1182   49.0078 C   0  0  0  0  0  0  0  0  0  0  0  0
   38.9098   32.5361   47.9356 N   0  0  0  0  0  0  0  0  0  0  0  0
   38.5833   31.2906   47.5247 C   0  0  0  0  0  0  0  0  0  0  0  0
   37.6233   30.5947   48.1910 N   0  0  0  0  0  0  0  0  0  0  0  0
   35.9264   30.3978   49.9787 C   0  0  1  0  0  0  0  0  0  0  0  0
   35.7961   28.9521   49.8402 C   0  0  1  0  0  0  0  0  0  0  0  0
   36.4723   29.4918   51.0728 C   0  0  0  0  0  0  0  0  0  0  0  0
   36.8156   32.8747   50.5601 H   0  0  0  0  0  0  0  0  0  0  0  0
   38.5795   34.1177   49.3158 H   0  0  0  0  0  0  0  0  0  0  0  0
   39.0400   30.7911   46.6829 H   0  0  0  0  0  0  0  0  0  0  0  0
   35.0282   30.9935   50.3190 H   0  0  0  0  0  0  0  0  0  0  0  0
   36.4900   28.4935   49.0752 H   0  0  0  0  0  0  0  0  0  0  0  0
   37.5687   29.3530   51.1442 H   0  0  0  0  0  0  0  0  0  0  0  0
   35.9522   29.4842   52.0361 H   0  0  0  0  0  0  0  0  0  0  0  0
   33.8032   28.1677   47.5864 O   0  0  0  0  0  0  0  0  0  0  0  0
   33.5972   28.7834   48.8015 C   0  0  2  0  0  0  0  0  0  0  0  0
   34.4820   28.2465   49.9097 C   0  0  2  0  0  0  0  0  0  0  0  0
   33.8165   28.5410   51.0729 O   0  0  0  0  0  0  0  0  0  0  0  0
   32.4773   28.6892   50.8415 C   0  0  0  0  0  0  0  0  0  0  0  0
   32.2210   28.4303   49.3795 C   0  0  1  0  0  0  0  0  0  0  0  0
   31.2176   29.1944   48.8342 O   0  0  0  0  0  0  0  0  0  0  0  0
   34.4400   28.6982   47.0471 H   0  0  0  0  0  0  0  0  0  0  0  0
   33.7225   29.8804   48.7566 H   0  0  0  0  0  0  0  0  0  0  0  0
   34.6446   27.1465   49.7596 H   0  0  0  0  0  0  0  0  0  0  0  0
   31.8414   28.1127   51.5255 H   0  0  0  0  0  0  0  0  0  0  0  0
   32.2326   29.7771   51.0033 H   0  0  0  0  0  0  0  0  0  0  0  0
   32.0737   27.3346   49.2655 H   0  0  0  0  0  0  0  0  0  0  0  0
   30.9300   28.7248   48.0039 H   0  0  0  0  0  0  0  0  0  0  0  0
  1  2  2  0
  1  7  1  0
  3  2  1  0
  4  3  2  0
  5  4  1  0
  5  6  2  0
  6  1  1  0
  7  9  1  0
  8  7  1  0
  8  9  1  0
  2 10  1  0
  3 11  1  0
  5 12  1  0
  7 13  1  1
  8 14  1  6
  9 15  1  0
  9 16  1  0
 17 18  1  0
 18 19  1  0
 19 20  1  0
 20 21  1  0
 21 22  1  0
 22 23  1  0
 22 18  1  0
 17 24  1  0
 18 25  1  6
 19 26  1  6
 21 27  1  0
 21 28  1  0
 22 29  1  1
 23 30  1  0
  8 19  1  0
M  ISO  7  10  14  11  14  12  14  13  13  14  13  15  13  16  13
M  END
>  <DihAtoms>  (1) 
6,7,18,17

>  <DihDeg>  (1) 
-179.9983756706143

$$$$
