
 OpenBabel03272508533D

 38 41  0  0  1  0  0  0  0  0999 V2000
   38.4020   31.8490   44.5510 C   0  0  0  0  0  0  0  0  0  0  0  0
   37.3030   32.4500   44.4380 O   0  0  0  0  0  0  0  0  0  0  0  0
   38.9320   31.5520   45.8570 N   0  0  0  0  0  0  0  0  0  0  0  0
   39.8970   31.2390   46.0190 H   0  0  0  0  0  0  0  0  0  0  0  0
   39.1760   31.4350   43.3660 C   0  0  0  0  0  0  0  0  0  0  0  0
   40.1820   30.5220   43.5320 C   0  0  0  0  0  0  0  0  0  0  0  0
   40.9020   30.1470   42.4090 C   0  0  0  0  0  0  0  0  0  0  0  0
   40.5640   30.7100   41.1990 C   0  0  0  0  0  0  0  0  0  0  0  0
   39.5360   31.6430   41.0280 C   0  0  0  0  0  0  0  0  0  0  0  0
   38.8740   31.9660   42.1610 N   0  0  0  0  0  0  0  0  0  0  0  0
   40.4540   30.0770   44.4700 H   0  0  0  0  0  0  0  0  0  0  0  0
   41.7010   29.4400   42.4660 H   0  0  0  0  0  0  0  0  0  0  0  0
   41.1040   30.4410   40.2990 H   0  0  0  0  0  0  0  0  0  0  0  0
   37.9040   31.7800   39.1430 C   0  0  1  0  0  3  0  0  0  0  0  0
   39.2350   32.1990   39.7030 C   0  0  2  0  0  3  0  0  0  0  0  0
   40.1950   31.8790   38.7530 O   0  0  0  0  0  0  0  0  0  0  0  0
   39.7260   30.8140   38.0230 C   0  0  0  0  0  2  0  0  0  0  0  0
   38.2300   30.8580   38.0100 C   0  0  2  0  0  3  0  0  0  0  0  0
   37.2000   31.0480   40.1090 O   0  0  0  0  0  0  0  0  0  0  0  0
   37.2980   30.0590   39.9780 H   0  0  0  0  0  0  0  0  0  0  0  0
   37.7200   31.3320   36.7890 O   0  0  0  0  0  0  0  0  0  0  0  0
   38.4860   31.6220   36.2180 H   0  0  0  0  0  0  0  0  0  0  0  0
   38.4080   31.1010   48.2490 C   0  0  2  0  0  0  0  0  0  0  0  0
   38.6750   32.5450   48.1400 C   0  0  0  0  0  0  0  0  0  0  0  0
   38.0420   31.7080   46.9950 C   0  0  1  0  0  0  0  0  0  0  0  0
   39.3420   30.4930   48.3410 H   0  0  0  0  0  0  0  0  0  0  0  0
   37.9970   33.3050   48.5400 H   0  0  0  0  0  0  0  0  0  0  0  0
   39.7050   32.9040   48.0010 H   0  0  0  0  0  0  0  0  0  0  0  0
   36.9740   31.9250   46.7860 H   0  0  0  0  0  0  0  0  0  0  0  0
   35.0780   30.1900   49.5720 C   0  0  0  0  0  0  0  0  0  0  0  0
   35.4030   29.5610   50.8160 C   0  0  0  0  0  0  0  0  0  0  0  0
   36.8020   29.4750   51.1670 C   0  0  0  0  0  0  0  0  0  0  0  0
   37.7230   29.9860   50.3200 N   0  0  0  0  0  0  0  0  0  0  0  0
   37.3420   30.5720   49.1520 C   0  0  0  0  0  0  0  0  0  0  0  0
   36.0270   30.6900   48.7510 N   0  0  0  0  0  0  0  0  0  0  0  0
   34.0220   30.2240   49.3640 H   0  0  0  0  0  0  0  0  0  0  0  0
   34.6460   29.1710   51.4550 H   0  0  0  0  0  0  0  0  0  0  0  0
   37.0780   29.0080   52.0920 H   0  0  0  0  0  0  0  0  0  0  0  0
  1  3  1  0  0  0  0
  2  1  2  0  0  0  0
  3  4  1  0  0  0  0
  3 25  1  0  0  0  0
  5  6  1  0  0  0  0
  5  1  1  0  0  0  0
  6 11  1  0  0  0  0
  7 12  1  0  0  0  0
  7  6  2  0  0  0  0
  8  7  1  0  0  0  0
  9  8  2  0  0  0  0
  9 10  1  0  0  0  0
 10  5  2  0  0  0  0
 13  8  1  0  0  0  0
 14 15  1  0  0  0  0
 14 19  1  1  0  0  0
 15  9  1  1  0  0  0
 16 15  1  0  0  0  0
 17 16  1  0  0  0  0
 18 21  1  6  0  0  0
 18 17  1  0  0  0  0
 18 14  1  0  0  0  0
 20 19  1  0  0  0  0
 22 21  1  0  0  0  0
 23 26  1  6  0  0  0
 23 34  1  0  0  0  0
 24 23  1  0  0  0  0
 24 27  1  0  0  0  0
 25 29  1  6  0  0  0
 25 24  1  0  0  0  0
 25 23  1  0  0  0  0
 28 24  1  0  0  0  0
 30 31  1  0  0  0  0
 31 32  2  0  0  0  0
 31 37  1  0  0  0  0
 32 38  1  0  0  0  0
 33 32  1  0  0  0  0
 34 33  2  0  0  0  0
 35 34  1  0  0  0  0
 35 30  2  0  0  0  0
 36 30  1  0  0  0  0
M  END
>  <minimizedAffinity>
-5.14164543

>  <minimizedRMSD>
0.424906731

$$$$
