
 OpenBabel03272508053D

 35 38  0  0  1  0  0  0  0  0999 V2000
   38.8760   31.0060   45.7400 C   0  0  0  0  0  0  0  0  0  0  0  0
   40.0110   31.7450   45.9410 C   0  0  0  0  0  0  0  0  0  0  0  0
   40.8440   31.6830   44.8330 C   0  0  0  0  0  0  0  0  0  0  0  0
   40.1560   30.8770   43.9720 N   0  0  0  0  0  0  0  0  0  0  0  0
   39.0170   30.4850   44.4970 N   0  0  0  0  0  0  0  0  0  0  0  0
   40.2650   32.3180   46.8290 H   0  0  0  0  0  0  0  0  0  0  0  0
   41.8010   32.1270   44.6320 H   0  0  0  0  0  0  0  0  0  0  0  0
   37.7600   30.8100   46.6440 C   0  0  0  0  0  0  0  0  0  0  0  0
   37.9910   31.0500   48.0260 C   0  0  0  0  0  0  0  0  0  0  0  0
   36.9270   30.8640   48.9040 C   0  0  0  0  0  0  0  0  0  0  0  0
   35.7370   30.4660   48.3890 N   0  0  0  0  0  0  0  0  0  0  0  0
   35.5450   30.2450   47.0670 C   0  0  0  0  0  0  0  0  0  0  0  0
   36.5690   30.4220   46.2080 N   0  0  0  0  0  0  0  0  0  0  0  0
   38.9360   31.3670   48.4370 H   0  0  0  0  0  0  0  0  0  0  0  0
   34.5630   29.9250   46.7060 H   0  0  0  0  0  0  0  0  0  0  0  0
   37.1550   31.1130   50.3620 C   0  0  0  0  0  0  0  0  0  0  0  0
   36.6320   32.3520   50.6080 F   0  0  0  0  0  0  0  0  0  0  0  0
   36.4850   30.1790   51.1550 F   0  0  0  0  0  0  0  0  0  0  0  0
   38.5040   31.1000   50.6850 F   0  0  0  0  0  0  0  0  0  0  0  0
   40.5520   30.4600   42.6330 C   0  0  0  0  0  0  0  0  0  0  0  0
   40.1970   31.2170   41.5030 C   0  0  0  0  0  0  0  0  0  0  0  0
   40.6080   30.7780   40.2800 C   0  0  0  0  0  0  0  0  0  0  0  0
   41.3770   29.5790   40.1780 C   0  0  0  0  0  0  0  0  0  0  0  0
   41.5090   29.0620   41.9520 S   0  0  0  0  0  0  0  0  0  0  0  0
   39.6160   32.1280   41.5400 H   0  0  0  0  0  0  0  0  0  0  0  0
   40.4430   31.2090   39.3050 H   0  0  0  0  0  0  0  0  0  0  0  0
   41.3270   27.4750   39.0240 C   0  0  2  0  0  3  0  0  0  0  0  0
   41.9650   28.8230   39.1610 C   0  0  1  0  0  3  0  0  0  0  0  0
   41.6980   29.4190   37.9050 O   0  0  0  0  0  0  0  0  0  0  0  0
   42.1350   28.4620   36.9860 C   0  0  0  0  0  2  0  0  0  0  0  0
   41.5750   27.1840   37.5400 C   0  0  2  0  0  3  0  0  0  0  0  0
   39.9560   27.6200   39.1880 O   0  0  0  0  0  0  0  0  0  0  0  0
   39.5080   26.7770   39.4530 H   0  0  0  0  0  0  0  0  0  0  0  0
   40.4300   26.7630   36.8910 O   0  0  0  0  0  0  0  0  0  0  0  0
   39.9890   27.4500   36.3420 H   0  0  0  0  0  0  0  0  0  0  0  0
  1  2  1  0  0  0  0
  1  8  1  0  0  0  0
  2  6  1  0  0  0  0
  3  2  2  0  0  0  0
  4  5  1  0  0  0  0
  4  3  1  0  0  0  0
  5  1  2  0  0  0  0
  7  3  1  0  0  0  0
  8  9  1  0  0  0  0
  9 14  1  0  0  0  0
  9 10  2  0  0  0  0
 10 16  1  0  0  0  0
 11 10  1  0  0  0  0
 12 11  2  0  0  0  0
 13  8  2  0  0  0  0
 13 12  1  0  0  0  0
 15 12  1  0  0  0  0
 16 17  1  0  0  0  0
 16 19  1  0  0  0  0
 16 18  1  0  0  0  0
 20  4  1  0  0  0  0
 21 25  1  0  0  0  0
 21 20  2  0  0  0  0
 22 21  1  0  0  0  0
 23 22  2  0  0  0  0
 23 24  1  0  0  0  0
 24 20  1  0  0  0  0
 26 22  1  0  0  0  0
 27 28  1  0  0  0  0
 27 32  1  6  0  0  0
 28 23  1  1  0  0  0
 29 28  1  0  0  0  0
 30 31  1  0  0  0  0
 30 29  1  0  0  0  0
 31 34  1  6  0  0  0
 31 27  1  0  0  0  0
 32 33  1  0  0  0  0
 35 34  1  0  0  0  0
M  END
>  <minimizedAffinity>
-6.27596474

>  <minimizedRMSD>
1.10024512

$$$$
