
 OpenBabel03272509033D

 33 35  0  0  1  0  0  0  0  0999 V2000
   38.2360   31.2050   50.0740 C   0  0  0  0  0  0  0  0  0  0  0  0
   38.5930   31.5020   48.7400 C   0  0  0  0  0  0  0  0  0  0  0  0
   37.8840   30.8380   47.7180 C   0  0  0  0  0  0  0  0  0  0  0  0
   36.9010   29.9520   48.0720 N   0  0  0  0  0  0  0  0  0  0  0  0
   36.6140   29.7180   49.3670 C   0  0  0  0  0  0  0  0  0  0  0  0
   37.2700   30.3330   50.3750 N   0  0  0  0  0  0  0  0  0  0  0  0
   38.8250   31.7540   50.8050 H   0  0  0  0  0  0  0  0  0  0  0  0
   39.3550   32.1890   48.4470 H   0  0  0  0  0  0  0  0  0  0  0  0
   38.2340   32.5890   46.0220 C   0  0  1  0  0  3  0  0  0  0  0  0
   38.2380   31.1330   46.3090 C   0  0  1  0  0  3  0  0  0  0  0  0
   39.4620   30.6130   45.9460 O   0  0  0  0  0  0  0  0  0  0  0  0
   40.3880   31.6350   45.9370 C   0  0  0  0  0  2  0  0  0  0  0  0
   39.6980   32.9490   46.0470 C   0  0  1  0  0  3  0  0  0  0  0  0
   37.6970   32.8690   44.7720 O   0  0  0  0  0  0  0  0  0  0  0  0
   38.1970   33.6490   44.4150 H   0  0  0  0  0  0  0  0  0  0  0  0
   40.0230   33.8140   45.0100 O   0  0  0  0  0  0  0  0  0  0  0  0
   40.9590   34.0790   45.0900 H   0  0  0  0  0  0  0  0  0  0  0  0
   35.5640   28.7550   49.6040 C   0  0  0  0  0  3  0  0  0  0  0  0
   34.7980   28.3950   48.6350 C   0  0  0  0  0  3  0  0  0  0  0  0
   33.6840   27.4370   48.6220 C   0  0  0  0  0  0  0  0  0  0  0  0
   33.7360   26.8350   49.5600 H   0  0  0  0  0  0  0  0  0  0  0  0
   32.7080   27.9430   48.6330 H   0  0  0  0  0  0  0  0  0  0  0  0
   33.7150   26.5080   47.4460 C   0  0  0  0  0  0  0  0  0  0  0  0
   33.6840   25.1240   47.5230 C   0  0  0  0  0  0  0  0  0  0  0  0
   33.7160   24.3750   46.3550 C   0  0  0  0  0  0  0  0  0  0  0  0
   33.7780   24.9820   45.1010 C   0  0  0  0  0  0  0  0  0  0  0  0
   33.8090   26.3640   45.0270 C   0  0  0  0  0  0  0  0  0  0  0  0
   33.7780   27.1130   46.1980 C   0  0  0  0  0  0  0  0  0  0  0  0
   33.6370   24.7060   48.5170 H   0  0  0  0  0  0  0  0  0  0  0  0
   33.6890   23.3050   46.4760 H   0  0  0  0  0  0  0  0  0  0  0  0
   33.7970   24.3060   44.2600 H   0  0  0  0  0  0  0  0  0  0  0  0
   33.8560   26.8000   44.0450 H   0  0  0  0  0  0  0  0  0  0  0  0
   33.8050   28.1780   46.0370 H   0  0  0  0  0  0  0  0  0  0  0  0
  1  6  1  0  0  0  0
  1  7  1  0  0  0  0
  2  1  2  0  0  0  0
  3  4  2  0  0  0  0
  3  2  1  0  0  0  0
  4  5  1  0  0  0  0
  5 18  1  0  0  0  0
  5  6  2  0  0  0  0
  8  2  1  0  0  0  0
  9 14  1  6  0  0  0
  9 13  1  0  0  0  0
  9 10  1  0  0  0  0
 10  3  1  1  0  0  0
 11 10  1  0  0  0  0
 12 11  1  0  0  0  0
 12 13  1  0  0  0  0
 13 16  1  6  0  0  0
 15 14  1  0  0  0  0
 16 17  1  0  0  0  0
 19 18  2  0  0  0  0
 20 22  1  0  0  0  0
 20 19  1  0  0  0  0
 20 21  1  0  0  0  0
 23 24  1  0  0  0  0
 23 20  1  0  0  0  0
 24 29  1  0  0  0  0
 25 30  1  0  0  0  0
 25 24  2  0  0  0  0
 26 25  1  0  0  0  0
 27 26  2  0  0  0  0
 27 28  1  0  0  0  0
 28 23  2  0  0  0  0
 31 26  1  0  0  0  0
 32 27  1  0  0  0  0
 33 28  1  0  0  0  0
M  END
>  <minimizedAffinity>
-5.96790075

>  <minimizedRMSD>
1.44244146

$$$$
