
     RDKit          3D

 46 49  0  0  0  0  0  0  0  0999 V2000
   36.4083   29.7692   48.6740 N   0  0  0  0  0  0  0  0  0  0  0  0
   37.5364   30.5413   48.2405 C   0  0  0  0  0  0  0  0  0  0  0  0
   38.0365   31.1517   49.5312 C   0  0  2  0  0  0  0  0  0  0  0  0
   37.0227   30.7581   50.6094 C   0  0  0  0  0  0  0  0  0  0  0  0
   36.6589   29.3960   50.0568 C   0  0  0  0  0  0  0  0  0  0  0  0
   35.2463   29.4262   47.8924 C   0  0  0  0  0  0  0  0  0  0  0  0
   35.1177   30.0202   46.6450 C   0  0  0  0  0  0  0  0  0  0  0  0
   33.9896   29.6824   45.8943 C   0  0  0  0  0  0  0  0  0  0  0  0
   33.0974   28.7901   46.4491 N   0  0  0  0  0  0  0  0  0  0  0  0
   33.2593   28.2480   47.6418 C   0  0  0  0  0  0  0  0  0  0  0  0
   34.3399   28.5695   48.3645 N   0  0  0  0  0  0  0  0  0  0  0  0
   32.0597   27.1084   48.2813 S   0  0  0  0  0  0  0  0  0  0  0  0
   30.5767   27.7143   48.8094 C   0  0  0  0  0  0  0  0  0  0  0  0
   29.8107   27.8647   49.9313 C   0  0  0  0  0  0  0  0  0  0  0  0
   28.5908   28.4385   49.9634 C   0  0  0  0  0  0  0  0  0  0  0  0
   28.1131   28.9175   48.6357 C   0  0  0  0  0  0  0  0  0  0  0  0
   29.4809   28.4835   47.5051 S   0  0  0  0  0  0  0  0  0  0  0  0
   38.1893   32.6507   49.4316 C   0  0  0  0  0  0  0  0  0  0  0  0
   37.0427   33.2036   49.9544 F   0  0  0  0  0  0  0  0  0  0  0  0
   38.2010   32.9565   48.0847 F   0  0  0  0  0  0  0  0  0  0  0  0
   39.3153   33.1227   50.0479 F   0  0  0  0  0  0  0  0  0  0  0  0
   37.2902   31.3395   47.5128 H   0  0  0  0  0  0  0  0  0  0  0  0
   38.2636   29.8779   47.7465 H   0  0  0  0  0  0  0  0  0  0  0  0
   38.9784   30.6261   49.7932 H   0  0  0  0  0  0  0  0  0  0  0  0
   37.4837   30.7065   51.5992 H   0  0  0  0  0  0  0  0  0  0  0  0
   36.1729   31.4434   50.5294 H   0  0  0  0  0  0  0  0  0  0  0  0
   35.7829   28.9546   50.5346 H   0  0  0  0  0  0  0  0  0  0  0  0
   37.5509   28.7389   50.0443 H   0  0  0  0  0  0  0  0  0  0  0  0
   35.8226   30.7236   46.2096 H   0  0  0  0  0  0  0  0  0  0  0  0
   33.8008   30.0927   44.9112 H   0  0  0  0  0  0  0  0  0  0  0  0
   30.3136   27.4607   50.7964 H   0  0  0  0  0  0  0  0  0  0  0  0
   27.9912   28.5563   50.8449 H   0  0  0  0  0  0  0  0  0  0  0  0
   27.7181   31.7744   48.0245 O   0  0  0  0  0  0  0  0  0  0  0  0
   26.9834   31.0134   48.9003 C   0  0  2  0  0  0  0  0  0  0  0  0
   26.8508   29.5548   48.4388 C   0  0  2  0  0  0  0  0  0  0  0  0
   25.9072   29.1154   49.3387 O   0  0  0  0  0  0  0  0  0  0  0  0
   24.8667   30.0401   49.0904 C   0  0  0  0  0  0  0  0  0  0  0  0
   25.5429   31.4029   49.0330 C   0  0  1  0  0  0  0  0  0  0  0  0
   25.3625   32.1136   50.2175 O   0  0  0  0  0  0  0  0  0  0  0  0
   27.2355   32.4463   47.5167 H   0  0  0  0  0  0  0  0  0  0  0  0
   27.4157   30.9565   49.9167 H   0  0  0  0  0  0  0  0  0  0  0  0
   26.4581   29.5800   47.4018 H   0  0  0  0  0  0  0  0  0  0  0  0
   24.0553   29.9864   49.8161 H   0  0  0  0  0  0  0  0  0  0  0  0
   24.4686   29.8598   48.0559 H   0  0  0  0  0  0  0  0  0  0  0  0
   25.2702   31.9721   48.1306 H   0  0  0  0  0  0  0  0  0  0  0  0
   26.2057   32.6128   50.3719 H   0  0  0  0  0  0  0  0  0  0  0  0
  1  5  1  0
  2  1  1  0
  2  3  1  0
  3  4  1  0
  5  4  1  0
  6 11  1  0
  6  1  1  0
  7  6  2  0
  8  9  2  0
  8  7  1  0
  9 10  1  0
 10 12  1  0
 10 11  2  0
 12 13  1  0
 13 14  2  0
 14 15  1  0
 16 15  2  0
 17 16  1  0
 17 13  1  0
 18  3  1  0
 18 19  1  0
 18 21  1  0
 20 18  1  0
  2 22  1  0
  2 23  1  0
  3 24  1  1
  4 25  1  0
  4 26  1  0
  5 27  1  0
  5 28  1  0
  7 29  1  0
  8 30  1  0
 14 31  1  0
 15 32  1  0
 33 34  1  0
 34 35  1  0
 35 36  1  0
 36 37  1  0
 37 38  1  0
 38 39  1  0
 38 34  1  0
 33 40  1  0
 34 41  1  1
 35 42  1  6
 37 43  1  0
 37 44  1  0
 38 45  1  6
 39 46  1  0
 16 35  1  0
M  ISO  8  22  13  23  13  24  13  25  13  26  13  27  13  28  13  29  14
M  ISO  3  30  14  31  14  32  14
M  END
>  <DihAtoms>  (1) 
14,15,34,33

>  <DihDeg>  (1) 
153.50108748283463

$$$$
