
 OpenBabel03262520563D

 46 49  0  0  1  0  0  0  0  0999 V2000
   39.7670   26.9420   33.9380 C   0  0  0  0  0  0  0  0  0  0  0  0
   39.9890   27.9160   33.4800 H   0  0  0  0  0  0  0  0  0  0  0  0
   39.7860   26.9880   35.0450 H   0  0  0  0  0  0  0  0  0  0  0  0
   38.5110   26.3530   33.5770 N   0  0  0  0  0  0  0  0  0  0  0  0
   37.4440   26.6600   34.4730 C   0  0  0  0  0  0  0  0  0  0  0  0
   36.6560   27.8770   34.1700 C   0  0  0  0  0  0  0  0  0  0  0  0
   36.3540   28.0210   32.7460 N   0  0  0  0  0  0  0  0  0  0  0  0
   37.6130   27.9100   32.0370 C   0  0  0  0  0  0  0  0  0  0  0  0
   38.0580   26.4800   32.2480 C   0  0  2  0  0  0  0  0  0  0  0  0
   36.8200   25.7620   34.6510 H   0  0  0  0  0  0  0  0  0  0  0  0
   37.9350   26.8460   35.4780 H   0  0  0  0  0  0  0  0  0  0  0  0
   37.1510   28.7970   34.5600 H   0  0  0  0  0  0  0  0  0  0  0  0
   35.6830   27.8270   34.6960 H   0  0  0  0  0  0  0  0  0  0  0  0
   35.9950   28.9720   32.6130 H   0  0  0  0  0  0  0  0  0  0  0  0
   37.6220   28.2670   31.0170 H   0  0  0  0  0  0  0  0  0  0  0  0
   38.3250   28.5930   32.5950 H   0  0  0  0  0  0  0  0  0  0  0  0
   38.7600   26.1860   31.4590 H   0  0  0  0  0  0  0  0  0  0  0  0
   37.0600   24.3000   31.8800 C   0  0  2  0  0  3  0  0  0  0  0  0
   36.7950   25.7110   32.0020 C   0  0  2  0  0  3  0  0  0  0  0  0
   35.9980   25.9640   30.9270 O   0  0  0  0  0  0  0  0  0  0  0  0
   35.0220   24.9600   31.0550 C   0  0  0  0  0  2  0  0  0  0  0  0
   35.8700   23.6840   31.2090 C   0  0  2  0  0  3  0  0  0  0  0  0
   37.5280   23.6060   32.9650 O   0  0  0  0  0  0  0  0  0  0  0  0
   37.3450   22.6540   32.9480 H   0  0  0  0  0  0  0  0  0  0  0  0
   35.2310   22.7100   31.9330 O   0  0  0  0  0  0  0  0  0  0  0  0
   34.3230   22.5810   31.5580 H   0  0  0  0  0  0  0  0  0  0  0  0
   40.8760   25.9860   33.5420 C   0  0  0  0  0  0  0  0  0  0  0  0
   40.6370   25.4470   32.6080 H   0  0  0  0  0  0  0  0  0  0  0  0
   41.7950   26.5780   33.3800 H   0  0  0  0  0  0  0  0  0  0  0  0
   41.2160   24.8160   34.9100 S   0  0  0  0  0  0  0  0  0  0  0  0
   40.0780   22.2300   34.9540 C   0  0  2  0  0  0  0  0  0  0  0  0
   41.5110   21.9610   34.9600 C   0  0  0  0  0  0  0  0  0  0  0  0
   41.0250   23.1540   34.2360 C   0  0  2  0  0  0  0  0  0  0  0  0
   39.3860   21.6310   34.3390 H   0  0  0  0  0  0  0  0  0  0  0  0
   42.1520   22.1440   35.8550 H   0  0  0  0  0  0  0  0  0  0  0  0
   41.8900   21.0810   34.3640 H   0  0  0  0  0  0  0  0  0  0  0  0
   40.9930   23.0350   33.1150 H   0  0  0  0  0  0  0  0  0  0  0  0
   39.2560   23.2070   38.4680 C   0  0  0  0  0  0  0  0  0  0  0  0
   38.0060   23.8300   38.2750 C   0  0  0  0  0  0  0  0  0  0  0  0
   37.4970   23.9020   36.9580 C   0  0  0  0  0  0  0  0  0  0  0  0
   38.2100   23.3840   35.9320 N   0  0  0  0  0  0  0  0  0  0  0  0
   39.4100   22.7950   36.1760 C   0  0  0  0  0  0  0  0  0  0  0  0
   39.9660   22.6850   37.4210 N   0  0  0  0  0  0  0  0  0  0  0  0
   39.7450   23.0910   39.4220 H   0  0  0  0  0  0  0  0  0  0  0  0
   37.5180   24.2130   39.1590 H   0  0  0  0  0  0  0  0  0  0  0  0
   36.5630   24.3860   36.9660 H   0  0  0  0  0  0  0  0  0  0  0  0
  1  3  1  0  0  0  0
  2  1  1  0  0  0  0
  4  1  1  0  0  0  0
  4  5  1  0  0  0  0
  5 10  1  0  0  0  0
  5 11  1  0  0  0  0
  6  5  1  0  0  0  0
  6 12  1  0  0  0  0
  6 13  1  0  0  0  0
  7  6  1  0  0  0  0
  8  9  1  0  0  0  0
  8 16  1  0  0  0  0
  8  7  1  0  0  0  0
  9 17  1  6  0  0  0
  9  4  1  0  0  0  0
 14  7  1  0  0  0  0
 15  8  1  0  0  0  0
 18 19  1  0  0  0  0
 18 23  1  1  0  0  0
 19 20  1  6  0  0  0
 19  9  1  0  0  0  0
 20 21  1  0  0  0  0
 21 22  1  0  0  0  0
 22 18  1  0  0  0  0
 22 25  1  1  0  0  0
 24 23  1  0  0  0  0
 26 25  1  0  0  0  0
 27  1  1  0  0  0  0
 27 30  1  0  0  0  0
 28 27  1  0  0  0  0
 29 27  1  0  0  0  0
 31 34  1  6  0  0  0
 31 32  1  0  0  0  0
 31 42  1  0  0  0  0
 32 35  1  0  0  0  0
 33 37  1  6  0  0  0
 33 30  1  0  0  0  0
 33 31  1  0  0  0  0
 33 32  1  0  0  0  0
 36 32  1  0  0  0  0
 38 44  1  0  0  0  0
 39 38  1  0  0  0  0
 39 45  1  0  0  0  0
 40 46  1  0  0  0  0
 40 39  2  0  0  0  0
 41 42  2  0  0  0  0
 41 40  1  0  0  0  0
 42 43  1  0  0  0  0
 43 38  2  0  0  0  0
M  END
>  <minimizedAffinity>
-5.08438063

$$$$

 OpenBabel03262520563D

 46 49  0  0  1  0  0  0  0  0999 V2000
   37.7020   24.6630   35.8500 C   0  0  0  0  0  0  0  0  0  0  0  0
   37.3430   24.8490   34.8280 H   0  0  0  0  0  0  0  0  0  0  0  0
   36.8680   24.5340   36.5680 H   0  0  0  0  0  0  0  0  0  0  0  0
   38.5600   23.5260   36.0130 N   0  0  0  0  0  0  0  0  0  0  0  0
   37.9650   22.2880   35.6250 C   0  0  0  0  0  0  0  0  0  0  0  0
   38.1460   21.8830   34.2120 C   0  0  0  0  0  0  0  0  0  0  0  0
   39.5020   22.1230   33.7180 N   0  0  0  0  0  0  0  0  0  0  0  0
   39.8140   23.5090   34.0070 C   0  0  0  0  0  0  0  0  0  0  0  0
   39.8770   23.5910   35.5160 C   0  0  2  0  0  0  0  0  0  0  0  0
   38.2270   21.4910   36.3500 H   0  0  0  0  0  0  0  0  0  0  0  0
   36.8500   22.4260   35.7730 H   0  0  0  0  0  0  0  0  0  0  0  0
   37.3950   22.3690   33.5450 H   0  0  0  0  0  0  0  0  0  0  0  0
   37.9610   20.7970   34.1130 H   0  0  0  0  0  0  0  0  0  0  0  0
   39.4720   22.0080   32.7000 H   0  0  0  0  0  0  0  0  0  0  0  0
   40.6510   23.9330   33.4710 H   0  0  0  0  0  0  0  0  0  0  0  0
   38.9100   24.0940   33.6530 H   0  0  0  0  0  0  0  0  0  0  0  0
   40.4750   24.4580   35.8190 H   0  0  0  0  0  0  0  0  0  0  0  0
   41.0540   22.3870   37.2620 C   0  0  2  0  0  3  0  0  0  0  0  0
   40.6790   22.3750   35.8710 C   0  0  2  0  0  3  0  0  0  0  0  0
   41.8500   22.0790   35.2420 O   0  0  0  0  0  0  0  0  0  0  0  0
   42.2780   20.9470   35.9580 C   0  0  0  0  0  2  0  0  0  0  0  0
   42.1880   21.4190   37.4210 C   0  0  2  0  0  3  0  0  0  0  0  0
   40.0820   22.2930   38.2230 O   0  0  0  0  0  0  0  0  0  0  0  0
   40.3870   21.9470   39.0760 H   0  0  0  0  0  0  0  0  0  0  0  0
   41.9560   20.3880   38.2950 O   0  0  0  0  0  0  0  0  0  0  0  0
   42.6110   19.6670   38.1150 H   0  0  0  0  0  0  0  0  0  0  0  0
   38.4550   25.9000   36.3030 C   0  0  0  0  0  0  0  0  0  0  0  0
   38.0310   26.3190   37.2330 H   0  0  0  0  0  0  0  0  0  0  0  0
   39.5030   25.6100   36.4940 H   0  0  0  0  0  0  0  0  0  0  0  0
   38.4700   27.1510   34.9640 S   0  0  0  0  0  0  0  0  0  0  0  0
   36.3710   27.3540   33.0840 C   0  0  2  0  0  0  0  0  0  0  0  0
   36.3600   28.6580   33.7350 C   0  0  0  0  0  0  0  0  0  0  0  0
   36.7500   27.4800   34.5360 C   0  0  2  0  0  0  0  0  0  0  0  0
   35.4330   26.8250   32.8470 H   0  0  0  0  0  0  0  0  0  0  0  0
   37.1500   29.4260   33.5530 H   0  0  0  0  0  0  0  0  0  0  0  0
   35.3620   29.1450   33.9350 H   0  0  0  0  0  0  0  0  0  0  0  0
   35.9470   27.1080   35.2350 H   0  0  0  0  0  0  0  0  0  0  0  0
   39.2610   27.4890   30.7170 C   0  0  0  0  0  0  0  0  0  0  0  0
   39.4060   26.1200   30.4120 C   0  0  0  0  0  0  0  0  0  0  0  0
   38.5240   25.2050   31.0300 C   0  0  0  0  0  0  0  0  0  0  0  0
   37.5800   25.6560   31.8870 N   0  0  0  0  0  0  0  0  0  0  0  0
   37.4840   26.9870   32.1440 C   0  0  0  0  0  0  0  0  0  0  0  0
   38.3000   27.9320   31.5840 N   0  0  0  0  0  0  0  0  0  0  0  0
   39.8720   28.2790   30.3090 H   0  0  0  0  0  0  0  0  0  0  0  0
   40.1930   25.8630   29.7170 H   0  0  0  0  0  0  0  0  0  0  0  0
   38.7460   24.2290   30.7090 H   0  0  0  0  0  0  0  0  0  0  0  0
  1  4  1  0  0  0  0
  1 27  1  0  0  0  0
  1  3  1  0  0  0  0
  2  1  1  0  0  0  0
  5 11  1  0  0  0  0
  5  4  1  0  0  0  0
  5 10  1  0  0  0  0
  6  5  1  0  0  0  0
  7  8  1  0  0  0  0
  7  6  1  0  0  0  0
  8  9  1  0  0  0  0
  9 17  1  1  0  0  0
  9 19  1  0  0  0  0
  9  4  1  0  0  0  0
 12  6  1  0  0  0  0
 13  6  1  0  0  0  0
 14  7  1  0  0  0  0
 15  8  1  0  0  0  0
 16  8  1  0  0  0  0
 18 22  1  0  0  0  0
 18 23  1  1  0  0  0
 19 20  1  6  0  0  0
 19 18  1  0  0  0  0
 20 21  1  0  0  0  0
 21 22  1  0  0  0  0
 22 25  1  1  0  0  0
 23 24  1  0  0  0  0
 26 25  1  0  0  0  0
 27 29  1  0  0  0  0
 27 28  1  0  0  0  0
 30 27  1  0  0  0  0
 31 34  1  6  0  0  0
 31 32  1  0  0  0  0
 31 33  1  0  0  0  0
 32 36  1  0  0  0  0
 32 33  1  0  0  0  0
 33 30  1  0  0  0  0
 33 37  1  1  0  0  0
 35 32  1  0  0  0  0
 38 43  1  0  0  0  0
 39 38  2  0  0  0  0
 39 40  1  0  0  0  0
 40 41  2  0  0  0  0
 41 42  1  0  0  0  0
 42 31  1  0  0  0  0
 43 42  2  0  0  0  0
 44 38  1  0  0  0  0
 45 39  1  0  0  0  0
 46 40  1  0  0  0  0
M  END
>  <minimizedAffinity>
-5.06761265

$$$$

 OpenBabel03262520563D

 46 49  0  0  1  0  0  0  0  0999 V2000
   39.3620   25.5370   32.5430 C   0  0  0  0  0  0  0  0  0  0  0  0
   38.4510   26.0570   32.2190 H   0  0  0  0  0  0  0  0  0  0  0  0
   40.2780   26.1130   32.3040 H   0  0  0  0  0  0  0  0  0  0  0  0
   39.4350   25.2150   33.9380 N   0  0  0  0  0  0  0  0  0  0  0  0
   40.1600   26.1650   34.7180 C   0  0  0  0  0  0  0  0  0  0  0  0
   39.3770   27.2840   35.2920 C   0  0  0  0  0  0  0  0  0  0  0  0
   38.0890   26.8580   35.8400 N   0  0  0  0  0  0  0  0  0  0  0  0
   37.4180   26.1060   34.7980 C   0  0  0  0  0  0  0  0  0  0  0  0
   38.2510   24.8570   34.6160 C   0  0  2  0  0  0  0  0  0  0  0  0
   40.7990   25.6470   35.4610 H   0  0  0  0  0  0  0  0  0  0  0  0
   40.9060   26.6360   34.0070 H   0  0  0  0  0  0  0  0  0  0  0  0
   39.2340   28.1080   34.5540 H   0  0  0  0  0  0  0  0  0  0  0  0
   39.9410   27.7390   36.1280 H   0  0  0  0  0  0  0  0  0  0  0  0
   37.5470   27.7080   36.0210 H   0  0  0  0  0  0  0  0  0  0  0  0
   36.3550   25.9570   34.9250 H   0  0  0  0  0  0  0  0  0  0  0  0
   37.5170   26.7430   33.8660 H   0  0  0  0  0  0  0  0  0  0  0  0
   37.6450   24.0660   34.1610 H   0  0  0  0  0  0  0  0  0  0  0  0
   39.0960   23.1190   36.0810 C   0  0  2  0  0  3  0  0  0  0  0  0
   38.5120   24.4350   36.0310 C   0  0  2  0  0  3  0  0  0  0  0  0
   37.5130   24.3610   36.9530 O   0  0  0  0  0  0  0  0  0  0  0  0
   38.1940   23.8380   38.0670 C   0  0  0  0  0  2  0  0  0  0  0  0
   38.9080   22.6070   37.4770 C   0  0  2  0  0  3  0  0  0  0  0  0
   40.3460   22.9160   35.5610 O   0  0  0  0  0  0  0  0  0  0  0  0
   40.8210   22.1550   35.9300 H   0  0  0  0  0  0  0  0  0  0  0  0
   40.0640   22.2970   38.1460 O   0  0  0  0  0  0  0  0  0  0  0  0
   39.8680   22.2580   39.1160 H   0  0  0  0  0  0  0  0  0  0  0  0
   39.4610   24.2480   31.7490 C   0  0  0  0  0  0  0  0  0  0  0  0
   40.4530   24.1340   31.2760 H   0  0  0  0  0  0  0  0  0  0  0  0
   39.3050   23.4050   32.4450 H   0  0  0  0  0  0  0  0  0  0  0  0
   38.1240   24.1780   30.4980 S   0  0  0  0  0  0  0  0  0  0  0  0
   35.6970   23.9800   31.9320 C   0  0  2  0  0  0  0  0  0  0  0  0
   35.3070   24.6810   30.7150 C   0  0  0  0  0  0  0  0  0  0  0  0
   36.6630   24.9160   31.2530 C   0  0  2  0  0  0  0  0  0  0  0  0
   35.3030   24.2810   32.9170 H   0  0  0  0  0  0  0  0  0  0  0  0
   35.2420   24.1710   29.7240 H   0  0  0  0  0  0  0  0  0  0  0  0
   34.5390   25.5040   30.7970 H   0  0  0  0  0  0  0  0  0  0  0  0
   36.7820   25.8960   31.7970 H   0  0  0  0  0  0  0  0  0  0  0  0
   35.9700   20.3830   30.9510 C   0  0  0  0  0  0  0  0  0  0  0  0
   36.7570   19.8870   32.0110 C   0  0  0  0  0  0  0  0  0  0  0  0
   37.1720   20.7960   33.0100 C   0  0  0  0  0  0  0  0  0  0  0  0
   36.8130   22.0980   32.9260 N   0  0  0  0  0  0  0  0  0  0  0  0
   36.0530   22.5210   31.8830 C   0  0  0  0  0  0  0  0  0  0  0  0
   35.6120   21.7010   30.8800 N   0  0  0  0  0  0  0  0  0  0  0  0
   35.5940   19.7880   30.1330 H   0  0  0  0  0  0  0  0  0  0  0  0
   36.9900   18.8330   31.9840 H   0  0  0  0  0  0  0  0  0  0  0  0
   37.7440   20.2900   33.7330 H   0  0  0  0  0  0  0  0  0  0  0  0
  1  4  1  0  0  0  0
  2  1  1  0  0  0  0
  3  1  1  0  0  0  0
  4  9  1  0  0  0  0
  4  5  1  0  0  0  0
  5  6  1  0  0  0  0
  5 10  1  0  0  0  0
  6  7  1  0  0  0  0
  6 13  1  0  0  0  0
  7 14  1  0  0  0  0
  8 15  1  0  0  0  0
  8  7  1  0  0  0  0
  9 17  1  6  0  0  0
  9  8  1  0  0  0  0
  9 19  1  0  0  0  0
 11  5  1  0  0  0  0
 12  6  1  0  0  0  0
 16  8  1  0  0  0  0
 18 23  1  1  0  0  0
 18 22  1  0  0  0  0
 19 18  1  0  0  0  0
 19 20  1  1  0  0  0
 20 21  1  0  0  0  0
 22 21  1  0  0  0  0
 22 25  1  1  0  0  0
 23 24  1  0  0  0  0
 25 26  1  0  0  0  0
 27 29  1  0  0  0  0
 27  1  1  0  0  0  0
 28 27  1  0  0  0  0
 30 33  1  0  0  0  0
 30 27  1  0  0  0  0
 31 34  1  1  0  0  0
 32 36  1  0  0  0  0
 32 33  1  0  0  0  0
 32 31  1  0  0  0  0
 33 37  1  1  0  0  0
 33 31  1  0  0  0  0
 35 32  1  0  0  0  0
 38 39  1  0  0  0  0
 39 40  2  0  0  0  0
 40 46  1  0  0  0  0
 41 40  1  0  0  0  0
 42 31  1  0  0  0  0
 42 41  2  0  0  0  0
 43 38  2  0  0  0  0
 43 42  1  0  0  0  0
 44 38  1  0  0  0  0
 45 39  1  0  0  0  0
M  END
>  <minimizedAffinity>
-5.06381273

$$$$

 OpenBabel03262520563D

 46 49  0  0  1  0  0  0  0  0999 V2000
   39.2440   24.7270   32.9890 C   0  0  0  0  0  0  0  0  0  0  0  0
   38.8800   24.0250   33.7530 H   0  0  0  0  0  0  0  0  0  0  0  0
   39.1540   24.3140   31.9660 H   0  0  0  0  0  0  0  0  0  0  0  0
   38.6080   26.0110   32.9680 N   0  0  0  0  0  0  0  0  0  0  0  0
   39.2970   26.9900   32.1910 C   0  0  0  0  0  0  0  0  0  0  0  0
   38.9220   27.0800   30.7610 C   0  0  0  0  0  0  0  0  0  0  0  0
   37.4790   26.9910   30.5420 N   0  0  0  0  0  0  0  0  0  0  0  0
   37.0240   25.7960   31.2240 C   0  0  0  0  0  0  0  0  0  0  0  0
   37.2270   26.0820   32.6950 C   0  0  2  0  0  0  0  0  0  0  0  0
   39.2930   27.9680   32.7110 H   0  0  0  0  0  0  0  0  0  0  0  0
   40.3870   26.6820   32.2110 H   0  0  0  0  0  0  0  0  0  0  0  0
   39.4580   26.3190   30.1460 H   0  0  0  0  0  0  0  0  0  0  0  0
   39.2440   28.0580   30.3560 H   0  0  0  0  0  0  0  0  0  0  0  0
   37.3380   26.8580   29.5350 H   0  0  0  0  0  0  0  0  0  0  0  0
   36.0500   25.4240   30.9400 H   0  0  0  0  0  0  0  0  0  0  0  0
   37.7520   24.9850   30.9120 H   0  0  0  0  0  0  0  0  0  0  0  0
   36.5740   25.4380   33.2950 H   0  0  0  0  0  0  0  0  0  0  0  0
   36.4400   27.8070   34.2080 C   0  0  2  0  0  3  0  0  0  0  0  0
   36.6910   27.4760   32.8290 C   0  0  2  0  0  3  0  0  0  0  0  0
   35.5440   27.8660   32.2080 O   0  0  0  0  0  0  0  0  0  0  0  0
   35.3900   29.1770   32.6930 C   0  0  0  0  0  2  0  0  0  0  0  0
   35.5180   28.9880   34.2170 C   0  0  2  0  0  3  0  0  0  0  0  0
   37.4900   27.8940   35.0820 O   0  0  0  0  0  0  0  0  0  0  0  0
   37.3270   28.4510   35.8590 H   0  0  0  0  0  0  0  0  0  0  0  0
   36.0060   30.1040   34.8480 O   0  0  0  0  0  0  0  0  0  0  0  0
   35.4790   30.8900   34.5540 H   0  0  0  0  0  0  0  0  0  0  0  0
   40.7280   24.9310   33.2270 C   0  0  0  0  0  0  0  0  0  0  0  0
   41.3390   24.2620   32.5950 H   0  0  0  0  0  0  0  0  0  0  0  0
   40.9740   25.9770   32.9710 H   0  0  0  0  0  0  0  0  0  0  0  0
   41.1190   24.6990   35.0020 S   0  0  0  0  0  0  0  0  0  0  0  0
   41.2110   22.0360   35.9420 C   0  0  2  0  0  0  0  0  0  0  0  0
   42.4540   22.6080   36.4460 C   0  0  0  0  0  0  0  0  0  0  0  0
   41.9320   23.0970   35.1520 C   0  0  2  0  0  0  0  0  0  0  0  0
   41.1810   21.0180   35.5180 H   0  0  0  0  0  0  0  0  0  0  0  0
   42.4780   23.3420   37.2860 H   0  0  0  0  0  0  0  0  0  0  0  0
   43.3770   21.9590   36.4490 H   0  0  0  0  0  0  0  0  0  0  0  0
   42.4700   22.6860   34.2510 H   0  0  0  0  0  0  0  0  0  0  0  0
   37.5920   22.8170   36.4560 C   0  0  0  0  0  0  0  0  0  0  0  0
   37.6180   23.2890   37.7850 C   0  0  0  0  0  0  0  0  0  0  0  0
   38.8620   23.3140   38.4560 C   0  0  0  0  0  0  0  0  0  0  0  0
   39.9770   22.8880   37.8200 N   0  0  0  0  0  0  0  0  0  0  0  0
   39.8940   22.4430   36.5390 C   0  0  0  0  0  0  0  0  0  0  0  0
   38.7280   22.3920   35.8250 N   0  0  0  0  0  0  0  0  0  0  0  0
   36.7060   22.7520   35.8440 H   0  0  0  0  0  0  0  0  0  0  0  0
   36.6720   23.6040   38.2020 H   0  0  0  0  0  0  0  0  0  0  0  0
   38.7310   23.6890   39.4290 H   0  0  0  0  0  0  0  0  0  0  0  0
  1 27  1  0  0  0  0
  1  2  1  0  0  0  0
  3  1  1  0  0  0  0
  4  1  1  0  0  0  0
  5 11  1  0  0  0  0
  5 10  1  0  0  0  0
  5  4  1  0  0  0  0
  6  5  1  0  0  0  0
  7  6  1  0  0  0  0
  7  8  1  0  0  0  0
  8  9  1  0  0  0  0
  9 19  1  0  0  0  0
  9  4  1  0  0  0  0
  9 17  1  1  0  0  0
 12  6  1  0  0  0  0
 13  6  1  0  0  0  0
 14  7  1  0  0  0  0
 15  8  1  0  0  0  0
 16  8  1  0  0  0  0
 18 22  1  0  0  0  0
 18 23  1  6  0  0  0
 19 20  1  6  0  0  0
 19 18  1  0  0  0  0
 20 21  1  0  0  0  0
 21 22  1  0  0  0  0
 22 25  1  1  0  0  0
 23 24  1  0  0  0  0
 26 25  1  0  0  0  0
 27 30  1  0  0  0  0
 28 27  1  0  0  0  0
 29 27  1  0  0  0  0
 30 33  1  0  0  0  0
 31 34  1  6  0  0  0
 31 32  1  0  0  0  0
 31 42  1  0  0  0  0
 32 36  1  0  0  0  0
 32 35  1  0  0  0  0
 33 37  1  6  0  0  0
 33 31  1  0  0  0  0
 33 32  1  0  0  0  0
 38 39  1  0  0  0  0
 39 45  1  0  0  0  0
 39 40  2  0  0  0  0
 40 46  1  0  0  0  0
 41 40  1  0  0  0  0
 42 41  2  0  0  0  0
 43 38  2  0  0  0  0
 43 42  1  0  0  0  0
 44 38  1  0  0  0  0
M  END
>  <minimizedAffinity>
-4.94412613

$$$$

 OpenBabel03262520563D

 46 49  0  0  1  0  0  0  0  0999 V2000
   38.2720   26.3090   32.0410 C   0  0  0  0  0  0  0  0  0  0  0  0
   38.2570   27.4070   32.0860 H   0  0  0  0  0  0  0  0  0  0  0  0
   38.9320   25.9340   31.2350 H   0  0  0  0  0  0  0  0  0  0  0  0
   38.6770   25.6410   33.2430 N   0  0  0  0  0  0  0  0  0  0  0  0
   40.0330   25.8820   33.6150 C   0  0  0  0  0  0  0  0  0  0  0  0
   40.2790   27.0460   34.4980 C   0  0  0  0  0  0  0  0  0  0  0  0
   39.2920   27.1670   35.5710 N   0  0  0  0  0  0  0  0  0  0  0  0
   37.9850   27.1350   34.9440 C   0  0  0  0  0  0  0  0  0  0  0  0
   37.8530   25.7350   34.3840 C   0  0  2  0  0  0  0  0  0  0  0  0
   40.5060   24.9470   33.9750 H   0  0  0  0  0  0  0  0  0  0  0  0
   40.5800   26.1020   32.6470 H   0  0  0  0  0  0  0  0  0  0  0  0
   40.3450   27.9960   33.9190 H   0  0  0  0  0  0  0  0  0  0  0  0
   41.2660   26.9360   34.9880 H   0  0  0  0  0  0  0  0  0  0  0  0
   39.4220   28.0930   35.9910 H   0  0  0  0  0  0  0  0  0  0  0  0
   37.1580   27.4890   35.5420 H   0  0  0  0  0  0  0  0  0  0  0  0
   38.0570   27.8630   34.0790 H   0  0  0  0  0  0  0  0  0  0  0  0
   36.7950   25.4850   34.2480 H   0  0  0  0  0  0  0  0  0  0  0  0
   38.0920   23.4910   35.2720 C   0  0  2  0  0  3  0  0  0  0  0  0
   38.3510   24.8870   35.5160 C   0  0  2  0  0  3  0  0  0  0  0  0
   37.9070   25.0610   36.7910 O   0  0  0  0  0  0  0  0  0  0  0  0
   38.5520   24.0070   37.4620 C   0  0  0  0  0  2  0  0  0  0  0  0
   38.1970   22.7870   36.5910 C   0  0  2  0  0  3  0  0  0  0  0  0
   38.7250   22.8600   34.2340 O   0  0  0  0  0  0  0  0  0  0  0  0
   38.8070   21.8990   34.3330 H   0  0  0  0  0  0  0  0  0  0  0  0
   39.1480   21.8010   36.6520 O   0  0  0  0  0  0  0  0  0  0  0  0
   39.3440   21.6080   37.6030 H   0  0  0  0  0  0  0  0  0  0  0  0
   36.8720   25.8470   31.6840 C   0  0  0  0  0  0  0  0  0  0  0  0
   36.8650   25.2420   30.7590 H   0  0  0  0  0  0  0  0  0  0  0  0
   36.4970   25.2230   32.5140 H   0  0  0  0  0  0  0  0  0  0  0  0
   35.7530   27.2890   31.5350 S   0  0  0  0  0  0  0  0  0  0  0  0
   36.3390   30.0200   31.9640 C   0  0  2  0  0  0  0  0  0  0  0  0
   36.3570   29.9010   30.5110 C   0  0  0  0  0  0  0  0  0  0  0  0
   36.7980   28.7410   31.3130 C   0  0  2  0  0  0  0  0  0  0  0  0
   37.0950   30.6190   32.4980 H   0  0  0  0  0  0  0  0  0  0  0  0
   35.4270   29.7700   29.9080 H   0  0  0  0  0  0  0  0  0  0  0  0
   37.1300   30.4910   29.9380 H   0  0  0  0  0  0  0  0  0  0  0  0
   37.9160   28.6040   31.3520 H   0  0  0  0  0  0  0  0  0  0  0  0
   33.7390   29.4860   34.5950 C   0  0  0  0  0  0  0  0  0  0  0  0
   32.5720   29.8140   33.8730 C   0  0  0  0  0  0  0  0  0  0  0  0
   32.7170   30.2130   32.5250 C   0  0  0  0  0  0  0  0  0  0  0  0
   33.9490   30.2730   31.9700 N   0  0  0  0  0  0  0  0  0  0  0  0
   35.0390   29.9450   32.7120 C   0  0  0  0  0  0  0  0  0  0  0  0
   34.9780   29.5480   34.0210 N   0  0  0  0  0  0  0  0  0  0  0  0
   33.7550   29.1680   35.6260 H   0  0  0  0  0  0  0  0  0  0  0  0
   31.6370   29.7360   34.4090 H   0  0  0  0  0  0  0  0  0  0  0  0
   31.7720   30.4220   32.1150 H   0  0  0  0  0  0  0  0  0  0  0  0
  1  2  1  0  0  0  0
  1  4  1  0  0  0  0
  3  1  1  0  0  0  0
  4  5  1  0  0  0  0
  4  9  1  0  0  0  0
  5 10  1  0  0  0  0
  5  6  1  0  0  0  0
  6 13  1  0  0  0  0
  6  7  1  0  0  0  0
  7 14  1  0  0  0  0
  8 15  1  0  0  0  0
  8  7  1  0  0  0  0
  9 17  1  6  0  0  0
  9  8  1  0  0  0  0
  9 19  1  0  0  0  0
 11  5  1  0  0  0  0
 12  6  1  0  0  0  0
 16  8  1  0  0  0  0
 18 23  1  6  0  0  0
 18 19  1  0  0  0  0
 18 22  1  0  0  0  0
 19 20  1  1  0  0  0
 20 21  1  0  0  0  0
 22 25  1  6  0  0  0
 22 21  1  0  0  0  0
 23 24  1  0  0  0  0
 25 26  1  0  0  0  0
 27  1  1  0  0  0  0
 27 29  1  0  0  0  0
 28 27  1  0  0  0  0
 30 27  1  0  0  0  0
 31 34  1  1  0  0  0
 31 42  1  0  0  0  0
 32 33  1  0  0  0  0
 32 31  1  0  0  0  0
 33 37  1  1  0  0  0
 33 30  1  0  0  0  0
 33 31  1  0  0  0  0
 35 32  1  0  0  0  0
 36 32  1  0  0  0  0
 38 44  1  0  0  0  0
 39 45  1  0  0  0  0
 39 38  2  0  0  0  0
 40 39  1  0  0  0  0
 41 40  2  0  0  0  0
 41 42  1  0  0  0  0
 42 43  2  0  0  0  0
 43 38  1  0  0  0  0
 46 40  1  0  0  0  0
M  END
>  <minimizedAffinity>
-4.94249344

$$$$

 OpenBabel03262520563D

 46 49  0  0  1  0  0  0  0  0999 V2000
   39.7480   24.5930   32.6320 C   0  0  0  0  0  0  0  0  0  0  0  0
   40.6530   23.9690   32.6430 H   0  0  0  0  0  0  0  0  0  0  0  0
   39.7000   25.2420   31.7360 H   0  0  0  0  0  0  0  0  0  0  0  0
   38.5020   23.8860   32.6910 N   0  0  0  0  0  0  0  0  0  0  0  0
   37.3770   24.7140   32.9800 C   0  0  0  0  0  0  0  0  0  0  0  0
   36.6770   25.3080   31.8170 C   0  0  0  0  0  0  0  0  0  0  0  0
   36.5090   24.3660   30.7110 N   0  0  0  0  0  0  0  0  0  0  0  0
   37.8190   23.8150   30.4260 C   0  0  0  0  0  0  0  0  0  0  0  0
   38.1750   22.9960   31.6470 C   0  0  2  0  0  0  0  0  0  0  0  0
   36.6960   24.2050   33.6920 H   0  0  0  0  0  0  0  0  0  0  0  0
   37.7850   25.5850   33.5790 H   0  0  0  0  0  0  0  0  0  0  0  0
   37.1790   26.2390   31.4660 H   0  0  0  0  0  0  0  0  0  0  0  0
   35.6600   25.6240   32.1200 H   0  0  0  0  0  0  0  0  0  0  0  0
   36.2090   24.9130   29.8980 H   0  0  0  0  0  0  0  0  0  0  0  0
   37.9350   23.3230   29.4710 H   0  0  0  0  0  0  0  0  0  0  0  0
   38.5110   24.7120   30.3810 H   0  0  0  0  0  0  0  0  0  0  0  0
   38.9290   22.2450   31.3880 H   0  0  0  0  0  0  0  0  0  0  0  0
   37.1150   21.1840   32.8620 C   0  0  2  0  0  3  0  0  0  0  0  0
   36.9030   22.2500   31.9160 C   0  0  2  0  0  3  0  0  0  0  0  0
   36.2070   21.6370   30.9180 O   0  0  0  0  0  0  0  0  0  0  0  0
   35.1800   21.0000   31.6380 C   0  0  0  0  0  2  0  0  0  0  0  0
   35.9560   20.2420   32.7310 C   0  0  2  0  0  3  0  0  0  0  0  0
   37.4630   21.4880   34.1510 O   0  0  0  0  0  0  0  0  0  0  0  0
   37.2400   20.8060   34.8040 H   0  0  0  0  0  0  0  0  0  0  0  0
   35.2190   20.0620   33.8740 O   0  0  0  0  0  0  0  0  0  0  0  0
   34.3400   19.6800   33.6260 H   0  0  0  0  0  0  0  0  0  0  0  0
   39.8240   25.5300   33.8220 C   0  0  0  0  0  0  0  0  0  0  0  0
   40.0500   26.5660   33.5130 H   0  0  0  0  0  0  0  0  0  0  0  0
   38.8420   25.5200   34.3280 H   0  0  0  0  0  0  0  0  0  0  0  0
   41.0620   24.9180   35.0260 S   0  0  0  0  0  0  0  0  0  0  0  0
   40.5120   22.1950   35.5410 C   0  0  2  0  0  0  0  0  0  0  0  0
   41.9630   22.2670   35.6570 C   0  0  0  0  0  0  0  0  0  0  0  0
   41.2930   23.1620   34.6910 C   0  0  2  0  0  0  0  0  0  0  0  0
   40.0200   21.3500   35.0310 H   0  0  0  0  0  0  0  0  0  0  0  0
   42.4720   22.7550   36.5230 H   0  0  0  0  0  0  0  0  0  0  0  0
   42.5730   21.4030   35.2650 H   0  0  0  0  0  0  0  0  0  0  0  0
   41.3820   22.8320   33.6160 H   0  0  0  0  0  0  0  0  0  0  0  0
   39.1530   23.4630   38.7840 C   0  0  0  0  0  0  0  0  0  0  0  0
   37.8740   23.8950   38.3750 C   0  0  0  0  0  0  0  0  0  0  0  0
   37.5290   23.7470   37.0130 C   0  0  0  0  0  0  0  0  0  0  0  0
   38.4190   23.2080   36.1480 N   0  0  0  0  0  0  0  0  0  0  0  0
   39.6370   22.8090   36.5970 C   0  0  0  0  0  0  0  0  0  0  0  0
   40.0420   22.9170   37.9000 N   0  0  0  0  0  0  0  0  0  0  0  0
   39.5290   23.5230   39.7940 H   0  0  0  0  0  0  0  0  0  0  0  0
   37.2390   24.3130   39.1430 H   0  0  0  0  0  0  0  0  0  0  0  0
   36.5530   24.1060   36.8550 H   0  0  0  0  0  0  0  0  0  0  0  0
  1  2  1  0  0  0  0
  1  4  1  0  0  0  0
  1 27  1  0  0  0  0
  3  1  1  0  0  0  0
  4  5  1  0  0  0  0
  5 11  1  0  0  0  0
  5 10  1  0  0  0  0
  6 13  1  0  0  0  0
  6  5  1  0  0  0  0
  7  6  1  0  0  0  0
  8  7  1  0  0  0  0
  8  9  1  0  0  0  0
  9 17  1  6  0  0  0
  9 19  1  0  0  0  0
  9  4  1  0  0  0  0
 12  6  1  0  0  0  0
 14  7  1  0  0  0  0
 15  8  1  0  0  0  0
 16  8  1  0  0  0  0
 18 23  1  1  0  0  0
 19 20  1  6  0  0  0
 19 18  1  0  0  0  0
 20 21  1  0  0  0  0
 21 22  1  0  0  0  0
 22 18  1  0  0  0  0
 22 25  1  1  0  0  0
 23 24  1  0  0  0  0
 26 25  1  0  0  0  0
 27 29  1  0  0  0  0
 27 30  1  0  0  0  0
 28 27  1  0  0  0  0
 31 34  1  6  0  0  0
 31 32  1  0  0  0  0
 31 42  1  0  0  0  0
 32 35  1  0  0  0  0
 33 37  1  6  0  0  0
 33 30  1  0  0  0  0
 33 31  1  0  0  0  0
 33 32  1  0  0  0  0
 36 32  1  0  0  0  0
 38 44  1  0  0  0  0
 39 38  1  0  0  0  0
 39 45  1  0  0  0  0
 40 39  2  0  0  0  0
 41 42  2  0  0  0  0
 41 40  1  0  0  0  0
 42 43  1  0  0  0  0
 43 38  2  0  0  0  0
 46 40  1  0  0  0  0
M  END
>  <minimizedAffinity>
-4.87664509

$$$$

 OpenBabel03262520563D

 46 49  0  0  1  0  0  0  0  0999 V2000
   39.3600   23.1470   32.5740 C   0  0  0  0  0  0  0  0  0  0  0  0
   38.4260   22.7210   32.1820 H   0  0  0  0  0  0  0  0  0  0  0  0
   39.6200   24.1050   32.0810 H   0  0  0  0  0  0  0  0  0  0  0  0
   39.3900   23.3940   33.9850 N   0  0  0  0  0  0  0  0  0  0  0  0
   40.6440   23.8750   34.4660 C   0  0  0  0  0  0  0  0  0  0  0  0
   40.8270   25.3450   34.4770 C   0  0  0  0  0  0  0  0  0  0  0  0
   39.6440   26.0640   34.9500 N   0  0  0  0  0  0  0  0  0  0  0  0
   38.5230   25.5880   34.1640 C   0  0  0  0  0  0  0  0  0  0  0  0
   38.3460   24.1410   34.5680 C   0  0  2  0  0  0  0  0  0  0  0  0
   40.9000   23.3910   35.4300 H   0  0  0  0  0  0  0  0  0  0  0  0
   41.4220   23.4680   33.7490 H   0  0  0  0  0  0  0  0  0  0  0  0
   41.1450   25.7290   33.4790 H   0  0  0  0  0  0  0  0  0  0  0  0
   41.6530   25.6090   35.1650 H   0  0  0  0  0  0  0  0  0  0  0  0
   39.7900   27.0540   34.7310 H   0  0  0  0  0  0  0  0  0  0  0  0
   37.6320   26.2000   34.1810 H   0  0  0  0  0  0  0  0  0  0  0  0
   38.8820   25.6200   33.0900 H   0  0  0  0  0  0  0  0  0  0  0  0
   37.3240   23.8130   34.3470 H   0  0  0  0  0  0  0  0  0  0  0  0
   38.0570   22.9640   36.6690 C   0  0  2  0  0  3  0  0  0  0  0  0
   38.4590   24.2070   36.0610 C   0  0  2  0  0  3  0  0  0  0  0  0
   37.7820   25.1360   36.7920 O   0  0  0  0  0  0  0  0  0  0  0  0
   38.1060   24.7550   38.1060 C   0  0  0  0  0  2  0  0  0  0  0  0
   37.7720   23.2510   38.1120 C   0  0  2  0  0  3  0  0  0  0  0  0
   38.7980   21.8350   36.4460 O   0  0  0  0  0  0  0  0  0  0  0  0
   38.7150   21.1520   37.1300 H   0  0  0  0  0  0  0  0  0  0  0  0
   38.5320   22.5460   39.0090 O   0  0  0  0  0  0  0  0  0  0  0  0
   38.4890   23.0000   39.8880 H   0  0  0  0  0  0  0  0  0  0  0  0
   40.4810   22.1840   32.2310 C   0  0  0  0  0  0  0  0  0  0  0  0
   41.0280   22.4990   31.3250 H   0  0  0  0  0  0  0  0  0  0  0  0
   41.1880   22.1680   33.0800 H   0  0  0  0  0  0  0  0  0  0  0  0
   39.8160   20.4880   32.0420 S   0  0  0  0  0  0  0  0  0  0  0  0
   38.0700   20.1540   29.8470 C   0  0  2  0  0  0  0  0  0  0  0  0
   38.9320   18.9820   29.7650 C   0  0  0  0  0  0  0  0  0  0  0  0
   39.5090   20.2400   30.2830 C   0  0  2  0  0  0  0  0  0  0  0  0
   37.7780   20.7140   28.9430 H   0  0  0  0  0  0  0  0  0  0  0  0
   38.8570   18.1310   30.4830 H   0  0  0  0  0  0  0  0  0  0  0  0
   39.2460   18.6210   28.7420 H   0  0  0  0  0  0  0  0  0  0  0  0
   40.1610   20.7890   29.5460 H   0  0  0  0  0  0  0  0  0  0  0  0
   35.6740   19.3830   32.6100 C   0  0  0  0  0  0  0  0  0  0  0  0
   35.1240   20.6620   32.8380 C   0  0  0  0  0  0  0  0  0  0  0  0
   35.5980   21.7370   32.0510 C   0  0  0  0  0  0  0  0  0  0  0  0
   36.5510   21.5170   31.1170 N   0  0  0  0  0  0  0  0  0  0  0  0
   37.0450   20.2640   30.9400 C   0  0  0  0  0  0  0  0  0  0  0  0
   36.6350   19.1750   31.6610 N   0  0  0  0  0  0  0  0  0  0  0  0
   35.3930   18.4890   33.1450 H   0  0  0  0  0  0  0  0  0  0  0  0
   34.3700   20.7320   33.6080 H   0  0  0  0  0  0  0  0  0  0  0  0
   35.1010   22.6220   32.3250 H   0  0  0  0  0  0  0  0  0  0  0  0
  1  4  1  0  0  0  0
  2  1  1  0  0  0  0
  3  1  1  0  0  0  0
  4  5  1  0  0  0  0
  4  9  1  0  0  0  0
  5  6  1  0  0  0  0
  5 10  1  0  0  0  0
  6  7  1  0  0  0  0
  6 13  1  0  0  0  0
  8 15  1  0  0  0  0
  8  9  1  0  0  0  0
  8  7  1  0  0  0  0
  9 17  1  6  0  0  0
  9 19  1  0  0  0  0
 11  5  1  0  0  0  0
 12  6  1  0  0  0  0
 14  7  1  0  0  0  0
 16  8  1  0  0  0  0
 18 23  1  1  0  0  0
 18 22  1  0  0  0  0
 19 18  1  0  0  0  0
 19 20  1  1  0  0  0
 20 21  1  0  0  0  0
 21 22  1  0  0  0  0
 22 25  1  1  0  0  0
 23 24  1  0  0  0  0
 25 26  1  0  0  0  0
 27  1  1  0  0  0  0
 27 29  1  0  0  0  0
 28 27  1  0  0  0  0
 30 27  1  0  0  0  0
 31 34  1  6  0  0  0
 31 33  1  0  0  0  0
 31 42  1  0  0  0  0
 32 31  1  0  0  0  0
 32 33  1  0  0  0  0
 32 35  1  0  0  0  0
 33 37  1  6  0  0  0
 33 30  1  0  0  0  0
 36 32  1  0  0  0  0
 38 39  1  0  0  0  0
 38 44  1  0  0  0  0
 39 45  1  0  0  0  0
 40 46  1  0  0  0  0
 40 39  2  0  0  0  0
 41 40  1  0  0  0  0
 42 41  2  0  0  0  0
 42 43  1  0  0  0  0
 43 38  2  0  0  0  0
M  END
>  <minimizedAffinity>
-4.86582184

$$$$

 OpenBabel03262520563D

 46 49  0  0  1  0  0  0  0  0999 V2000
   38.4690   25.1560   32.7090 C   0  0  0  0  0  0  0  0  0  0  0  0
   38.7210   26.1530   32.3190 H   0  0  0  0  0  0  0  0  0  0  0  0
   38.9870   24.3490   32.1540 H   0  0  0  0  0  0  0  0  0  0  0  0
   38.7470   24.9410   34.0980 N   0  0  0  0  0  0  0  0  0  0  0  0
   40.0740   25.2930   34.4880 C   0  0  0  0  0  0  0  0  0  0  0  0
   40.2830   26.6880   34.9380 C   0  0  0  0  0  0  0  0  0  0  0  0
   39.2120   27.1720   35.8100 N   0  0  0  0  0  0  0  0  0  0  0  0
   37.9640   26.9290   35.1150 C   0  0  0  0  0  0  0  0  0  0  0  0
   37.8330   25.4230   35.0580 C   0  0  2  0  0  0  0  0  0  0  0  0
   40.4840   24.5370   35.1870 H   0  0  0  0  0  0  0  0  0  0  0  0
   40.7080   25.1650   33.5570 H   0  0  0  0  0  0  0  0  0  0  0  0
   40.4300   27.3820   34.0770 H   0  0  0  0  0  0  0  0  0  0  0  0
   41.2200   26.7510   35.5240 H   0  0  0  0  0  0  0  0  0  0  0  0
   39.3370   28.1860   35.8980 H   0  0  0  0  0  0  0  0  0  0  0  0
   37.1010   27.4690   35.4780 H   0  0  0  0  0  0  0  0  0  0  0  0
   38.1330   27.3150   34.0630 H   0  0  0  0  0  0  0  0  0  0  0  0
   36.7830   25.1430   34.9190 H   0  0  0  0  0  0  0  0  0  0  0  0
   37.8830   23.6300   36.6900 C   0  0  2  0  0  3  0  0  0  0  0  0
   38.2040   25.0140   36.4510 C   0  0  2  0  0  3  0  0  0  0  0  0
   37.6860   25.6400   37.5450 O   0  0  0  0  0  0  0  0  0  0  0  0
   38.2230   24.8710   38.5920 C   0  0  0  0  0  2  0  0  0  0  0  0
   37.8580   23.4340   38.1760 C   0  0  2  0  0  3  0  0  0  0  0  0
   38.5470   22.6550   35.9950 O   0  0  0  0  0  0  0  0  0  0  0  0
   38.5670   21.7880   36.4300 H   0  0  0  0  0  0  0  0  0  0  0  0
   38.7450   22.5040   38.6560 O   0  0  0  0  0  0  0  0  0  0  0  0
   38.8650   22.6530   39.6280 H   0  0  0  0  0  0  0  0  0  0  0  0
   36.9860   24.9350   32.4770 C   0  0  0  0  0  0  0  0  0  0  0  0
   36.4660   24.6460   33.4070 H   0  0  0  0  0  0  0  0  0  0  0  0
   36.5530   25.8840   32.1120 H   0  0  0  0  0  0  0  0  0  0  0  0
   36.7360   23.6820   31.1640 S   0  0  0  0  0  0  0  0  0  0  0  0
   36.4880   21.1200   32.3300 C   0  0  2  0  0  0  0  0  0  0  0  0
   35.5660   21.0610   31.2020 C   0  0  0  0  0  0  0  0  0  0  0  0
   35.7500   22.3570   31.8880 C   0  0  2  0  0  0  0  0  0  0  0  0
   36.2200   20.6910   33.3100 H   0  0  0  0  0  0  0  0  0  0  0  0
   35.9160   20.9990   30.1440 H   0  0  0  0  0  0  0  0  0  0  0  0
   34.5920   20.5080   31.3380 H   0  0  0  0  0  0  0  0  0  0  0  0
   34.9070   22.6380   32.5810 H   0  0  0  0  0  0  0  0  0  0  0  0
   39.8800   20.7410   30.8070 C   0  0  0  0  0  0  0  0  0  0  0  0
   40.6930   21.1330   31.8910 C   0  0  0  0  0  0  0  0  0  0  0  0
   40.0560   21.5200   33.0920 C   0  0  0  0  0  0  0  0  0  0  0  0
   38.7050   21.5080   33.1710 N   0  0  0  0  0  0  0  0  0  0  0  0
   37.9720   21.1210   32.0950 C   0  0  0  0  0  0  0  0  0  0  0  0
   38.5160   20.7320   30.9010 N   0  0  0  0  0  0  0  0  0  0  0  0
   40.2500   20.4260   29.8440 H   0  0  0  0  0  0  0  0  0  0  0  0
   41.7600   21.1100   31.7250 H   0  0  0  0  0  0  0  0  0  0  0  0
   40.7800   21.7810   33.8080 H   0  0  0  0  0  0  0  0  0  0  0  0
  1  4  1  0  0  0  0
  2  1  1  0  0  0  0
  3  1  1  0  0  0  0
  4  5  1  0  0  0  0
  4  9  1  0  0  0  0
  5  6  1  0  0  0  0
  5 10  1  0  0  0  0
  6 13  1  0  0  0  0
  6  7  1  0  0  0  0
  7 14  1  0  0  0  0
  8 15  1  0  0  0  0
  8  7  1  0  0  0  0
  9 17  1  6  0  0  0
  9  8  1  0  0  0  0
  9 19  1  0  0  0  0
 11  5  1  0  0  0  0
 12  6  1  0  0  0  0
 16  8  1  0  0  0  0
 18 23  1  6  0  0  0
 18 22  1  0  0  0  0
 19 18  1  0  0  0  0
 19 20  1  1  0  0  0
 20 21  1  0  0  0  0
 22 21  1  0  0  0  0
 22 25  1  6  0  0  0
 23 24  1  0  0  0  0
 25 26  1  0  0  0  0
 27  1  1  0  0  0  0
 27 28  1  0  0  0  0
 29 27  1  0  0  0  0
 30 33  1  0  0  0  0
 30 27  1  0  0  0  0
 31 34  1  1  0  0  0
 32 36  1  0  0  0  0
 32 33  1  0  0  0  0
 32 31  1  0  0  0  0
 33 31  1  0  0  0  0
 33 37  1  1  0  0  0
 35 32  1  0  0  0  0
 38 43  2  0  0  0  0
 38 39  1  0  0  0  0
 39 40  2  0  0  0  0
 40 41  1  0  0  0  0
 40 46  1  0  0  0  0
 42 31  1  0  0  0  0
 42 41  2  0  0  0  0
 43 42  1  0  0  0  0
 44 38  1  0  0  0  0
 45 39  1  0  0  0  0
M  END
>  <minimizedAffinity>
-4.8010726

$$$$

 OpenBabel03262520563D

 46 49  0  0  1  0  0  0  0  0999 V2000
   38.8430   24.8670   33.1600 C   0  0  0  0  0  0  0  0  0  0  0  0
   38.5580   25.3910   34.0830 H   0  0  0  0  0  0  0  0  0  0  0  0
   38.4330   23.8390   33.1220 H   0  0  0  0  0  0  0  0  0  0  0  0
   38.4600   25.5060   31.9360 N   0  0  0  0  0  0  0  0  0  0  0  0
   37.3230   24.9180   31.3040 C   0  0  0  0  0  0  0  0  0  0  0  0
   36.0000   25.4610   31.6880 C   0  0  0  0  0  0  0  0  0  0  0  0
   35.9890   26.9200   31.7910 N   0  0  0  0  0  0  0  0  0  0  0  0
   37.0830   27.2860   32.6690 C   0  0  0  0  0  0  0  0  0  0  0  0
   38.3370   26.9100   31.9100 C   0  0  2  0  0  0  0  0  0  0  0  0
   37.4770   24.8640   30.2070 H   0  0  0  0  0  0  0  0  0  0  0  0
   37.3230   23.8320   31.6270 H   0  0  0  0  0  0  0  0  0  0  0  0
   35.6230   24.9990   32.6300 H   0  0  0  0  0  0  0  0  0  0  0  0
   35.2530   25.1930   30.9160 H   0  0  0  0  0  0  0  0  0  0  0  0
   35.1100   27.1790   32.2510 H   0  0  0  0  0  0  0  0  0  0  0  0
   37.0550   28.2860   33.0780 H   0  0  0  0  0  0  0  0  0  0  0  0
   36.9850   26.5970   33.5640 H   0  0  0  0  0  0  0  0  0  0  0  0
   39.1900   27.4840   32.2900 H   0  0  0  0  0  0  0  0  0  0  0  0
   39.2260   27.3850   29.7040 C   0  0  2  0  0  3  0  0  0  0  0  0
   38.0490   27.4310   30.5340 C   0  0  2  0  0  3  0  0  0  0  0  0
   37.5800   28.6930   30.3280 O   0  0  0  0  0  0  0  0  0  0  0  0
   37.5630   28.7630   28.9240 C   0  0  0  0  0  2  0  0  0  0  0  0
   38.9850   28.3060   28.5470 C   0  0  2  0  0  3  0  0  0  0  0  0
   39.7660   26.1720   29.3680 O   0  0  0  0  0  0  0  0  0  0  0  0
   40.2960   26.1740   28.5560 H   0  0  0  0  0  0  0  0  0  0  0  0
   39.0380   27.7150   27.3100 O   0  0  0  0  0  0  0  0  0  0  0  0
   38.5890   28.3070   26.6560 H   0  0  0  0  0  0  0  0  0  0  0  0
   40.3520   24.7130   33.1690 C   0  0  0  0  0  0  0  0  0  0  0  0
   40.6750   23.8140   32.6150 H   0  0  0  0  0  0  0  0  0  0  0  0
   40.7880   25.6030   32.6810 H   0  0  0  0  0  0  0  0  0  0  0  0
   40.9700   24.6800   34.8930 S   0  0  0  0  0  0  0  0  0  0  0  0
   41.1870   22.0760   35.9670 C   0  0  2  0  0  0  0  0  0  0  0  0
   42.4200   22.7190   36.4070 C   0  0  0  0  0  0  0  0  0  0  0  0
   41.8470   23.1190   35.1050 C   0  0  2  0  0  0  0  0  0  0  0  0
   41.1840   21.0370   35.5980 H   0  0  0  0  0  0  0  0  0  0  0  0
   42.4370   23.4970   37.2070 H   0  0  0  0  0  0  0  0  0  0  0  0
   43.3660   22.1050   36.4190 H   0  0  0  0  0  0  0  0  0  0  0  0
   42.3780   22.6810   34.2110 H   0  0  0  0  0  0  0  0  0  0  0  0
   37.5620   22.8010   36.5210 C   0  0  0  0  0  0  0  0  0  0  0  0
   37.5970   23.2830   37.8460 C   0  0  0  0  0  0  0  0  0  0  0  0
   38.8480   23.3340   38.5010 C   0  0  0  0  0  0  0  0  0  0  0  0
   39.9630   22.9220   37.8540 N   0  0  0  0  0  0  0  0  0  0  0  0
   39.8710   22.4660   36.5780 C   0  0  0  0  0  0  0  0  0  0  0  0
   38.6970   22.3900   35.8790 N   0  0  0  0  0  0  0  0  0  0  0  0
   36.6700   22.7160   35.9200 H   0  0  0  0  0  0  0  0  0  0  0  0
   36.6510   23.5850   38.2730 H   0  0  0  0  0  0  0  0  0  0  0  0
   38.7230   23.7140   39.4730 H   0  0  0  0  0  0  0  0  0  0  0  0
  1 27  1  0  0  0  0
  1  2  1  0  0  0  0
  3  1  1  0  0  0  0
  4  1  1  0  0  0  0
  5 11  1  0  0  0  0
  5  6  1  0  0  0  0
  5  4  1  0  0  0  0
  6  7  1  0  0  0  0
  6 12  1  0  0  0  0
  7 14  1  0  0  0  0
  7  8  1  0  0  0  0
  8 15  1  0  0  0  0
  8 16  1  0  0  0  0
  9  4  1  0  0  0  0
  9 17  1  1  0  0  0
  9  8  1  0  0  0  0
 10  5  1  0  0  0  0
 13  6  1  0  0  0  0
 18 23  1  6  0  0  0
 18 19  1  0  0  0  0
 19 20  1  1  0  0  0
 19  9  1  0  0  0  0
 21 20  1  0  0  0  0
 22 25  1  6  0  0  0
 22 21  1  0  0  0  0
 22 18  1  0  0  0  0
 24 23  1  0  0  0  0
 26 25  1  0  0  0  0
 27 30  1  0  0  0  0
 28 27  1  0  0  0  0
 29 27  1  0  0  0  0
 30 33  1  0  0  0  0
 31 34  1  6  0  0  0
 31 32  1  0  0  0  0
 31 42  1  0  0  0  0
 32 36  1  0  0  0  0
 32 35  1  0  0  0  0
 33 37  1  6  0  0  0
 33 31  1  0  0  0  0
 33 32  1  0  0  0  0
 38 39  1  0  0  0  0
 39 45  1  0  0  0  0
 39 40  2  0  0  0  0
 40 46  1  0  0  0  0
 41 40  1  0  0  0  0
 42 41  2  0  0  0  0
 43 38  2  0  0  0  0
 43 42  1  0  0  0  0
 44 38  1  0  0  0  0
M  END
>  <minimizedAffinity>
-4.79835129

$$$$
