
 OpenBabel03272506153D

 24 25  0  0  1  0  0  0  0  0999 V2000
   36.6010   21.0060   33.2210 C   0  0  0  0  0  0  0  0  0  0  0  0
   37.6260   21.7380   33.8200 C   0  0  0  0  0  0  0  0  0  0  0  0
   37.5680   21.9700   35.1850 C   0  0  0  0  0  0  0  0  0  0  0  0
   36.5120   21.4770   35.8920 N   0  0  0  0  0  0  0  0  0  0  0  0
   35.5180   20.7610   35.2820 C   0  0  0  0  0  0  0  0  0  0  0  0
   35.5730   20.5330   33.9450 N   0  0  0  0  0  0  0  0  0  0  0  0
   38.4080   22.0810   33.1790 H   0  0  0  0  0  0  0  0  0  0  0  0
   34.6940   20.3830   35.8690 H   0  0  0  0  0  0  0  0  0  0  0  0
   38.1700   23.6490   36.9140 C   0  0  1  0  0  3  0  0  0  0  0  0
   38.6530   22.7470   35.8310 C   0  0  1  0  0  3  0  0  0  0  0  0
   39.5720   21.8890   36.4340 O   0  0  0  0  0  0  0  0  0  0  0  0
   40.3610   22.7940   37.1460 C   0  0  0  0  0  2  0  0  0  0  0  0
   39.2840   23.5260   37.9560 C   0  0  2  0  0  3  0  0  0  0  0  0
   38.1150   24.9870   36.5050 O   0  0  0  0  0  0  0  0  0  0  0  0
   38.9620   25.2560   36.0320 H   0  0  0  0  0  0  0  0  0  0  0  0
   38.9280   22.7180   39.0160 O   0  0  0  0  0  0  0  0  0  0  0  0
   39.7620   22.4880   39.4890 H   0  0  0  0  0  0  0  0  0  0  0  0
   36.5170   20.6920   31.8700 O   0  0  0  0  0  0  0  0  0  0  0  0
   37.3390   18.1350   31.7900 O   0  0  0  0  0  0  0  0  0  0  0  0
   36.2610   19.0980   31.3110 P   0  0  0  0  0  0  0  0  0  0  0  0
   34.7390   18.6280   31.9290 O   0  0  0  0  0  0  0  0  0  0  0  0
   34.4420   17.7580   31.5190 H   0  0  0  0  0  0  0  0  0  0  0  0
   36.2880   19.0380   29.6290 O   0  0  0  0  0  0  0  0  0  0  0  0
   35.3690   18.7830   29.3250 H   0  0  0  0  0  0  0  0  0  0  0  0
  1  2  2  0  0  0  0
  1  6  1  0  0  0  0
  2  3  1  0  0  0  0
  3  4  2  0  0  0  0
  5  8  1  0  0  0  0
  5  4  1  0  0  0  0
  6  5  2  0  0  0  0
  7  2  1  0  0  0  0
  9 14  1  6  0  0  0
  9 13  1  0  0  0  0
 10  3  1  1  0  0  0
 10 11  1  0  0  0  0
 10  9  1  0  0  0  0
 11 12  1  0  0  0  0
 12 13  1  0  0  0  0
 13 16  1  1  0  0  0
 15 14  1  0  0  0  0
 16 17  1  0  0  0  0
 18  1  1  0  0  0  0
 20 19  2  0  0  0  0
 20 18  1  0  0  0  0
 20 21  1  0  0  0  0
 22 21  1  0  0  0  0
 23 20  1  0  0  0  0
 24 23  1  0  0  0  0
M  END
>  <minimizedAffinity>
-5.159935

$$$$

 OpenBabel03272506153D

 24 25  0  0  1  0  0  0  0  0999 V2000
   38.7190   24.1820   34.9140 C   0  0  0  0  0  0  0  0  0  0  0  0
   38.6210   25.4760   34.4020 C   0  0  0  0  0  0  0  0  0  0  0  0
   37.9670   25.6660   33.1950 C   0  0  0  0  0  0  0  0  0  0  0  0
   37.4440   24.5830   32.5520 N   0  0  0  0  0  0  0  0  0  0  0  0
   37.5520   23.3230   33.0750 C   0  0  0  0  0  0  0  0  0  0  0  0
   38.1930   23.1350   34.2580 N   0  0  0  0  0  0  0  0  0  0  0  0
   39.0650   26.2560   34.9800 H   0  0  0  0  0  0  0  0  0  0  0  0
   37.1270   22.4850   32.5430 H   0  0  0  0  0  0  0  0  0  0  0  0
   38.2870   27.1360   31.2190 C   0  0  1  0  0  3  0  0  0  0  0  0
   37.8570   27.0370   32.6420 C   0  0  1  0  0  3  0  0  0  0  0  0
   36.5320   27.4680   32.6680 O   0  0  0  0  0  0  0  0  0  0  0  0
   36.6150   28.6470   31.9280 C   0  0  0  0  0  2  0  0  0  0  0  0
   37.2720   28.1260   30.6440 C   0  0  2  0  0  3  0  0  0  0  0  0
   39.5600   27.7060   31.0870 O   0  0  0  0  0  0  0  0  0  0  0  0
   39.6430   28.5380   31.6480 H   0  0  0  0  0  0  0  0  0  0  0  0
   36.2970   27.5050   29.8910 O   0  0  0  0  0  0  0  0  0  0  0  0
   35.5650   28.1560   29.7840 H   0  0  0  0  0  0  0  0  0  0  0  0
   39.3420   23.8320   36.1060 O   0  0  0  0  0  0  0  0  0  0  0  0
   37.9450   24.6310   38.2590 O   0  0  0  0  0  0  0  0  0  0  0  0
   38.4660   23.4100   37.5110 P   0  0  0  0  0  0  0  0  0  0  0  0
   37.1570   22.4520   36.9740 O   0  0  0  0  0  0  0  0  0  0  0  0
   36.6800   22.0330   37.7540 H   0  0  0  0  0  0  0  0  0  0  0  0
   39.4390   22.5710   38.5980 O   0  0  0  0  0  0  0  0  0  0  0  0
   39.0740   21.6410   38.6690 H   0  0  0  0  0  0  0  0  0  0  0  0
  1 18  1  0  0  0  0
  2  1  1  0  0  0  0
  2  7  1  0  0  0  0
  3  2  2  0  0  0  0
  4  5  2  0  0  0  0
  4  3  1  0  0  0  0
  5  6  1  0  0  0  0
  6  1  2  0  0  0  0
  8  5  1  0  0  0  0
  9 14  1  1  0  0  0
  9 10  1  0  0  0  0
 10 11  1  0  0  0  0
 10  3  1  6  0  0  0
 12 11  1  0  0  0  0
 13 16  1  6  0  0  0
 13  9  1  0  0  0  0
 13 12  1  0  0  0  0
 14 15  1  0  0  0  0
 17 16  1  0  0  0  0
 18 20  1  0  0  0  0
 20 19  2  0  0  0  0
 20 23  1  0  0  0  0
 21 20  1  0  0  0  0
 21 22  1  0  0  0  0
 23 24  1  0  0  0  0
M  END
>  <minimizedAffinity>
-4.94016504

$$$$

 OpenBabel03272506153D

 24 25  0  0  1  0  0  0  0  0999 V2000
   37.7600   25.0690   32.3470 C   0  0  0  0  0  0  0  0  0  0  0  0
   38.3100   25.1100   33.6280 C   0  0  0  0  0  0  0  0  0  0  0  0
   38.3090   23.9520   34.3900 C   0  0  0  0  0  0  0  0  0  0  0  0
   37.7710   22.8170   33.8600 N   0  0  0  0  0  0  0  0  0  0  0  0
   37.2380   22.8010   32.6000 C   0  0  0  0  0  0  0  0  0  0  0  0
   37.2380   23.9350   31.8530 N   0  0  0  0  0  0  0  0  0  0  0  0
   38.7050   26.0480   33.9500 H   0  0  0  0  0  0  0  0  0  0  0  0
   36.8190   21.8860   32.2090 H   0  0  0  0  0  0  0  0  0  0  0  0
   37.9380   24.4710   36.7900 C   0  0  1  0  0  3  0  0  0  0  0  0
   38.8910   23.9860   35.7520 C   0  0  1  0  0  3  0  0  0  0  0  0
   39.2670   22.7040   36.1530 O   0  0  0  0  0  0  0  0  0  0  0  0
   39.5730   22.9190   37.4970 C   0  0  0  0  0  2  0  0  0  0  0  0
   38.2710   23.5690   37.9810 C   0  0  2  0  0  3  0  0  0  0  0  0
   38.1970   25.7940   37.1710 O   0  0  0  0  0  0  0  0  0  0  0  0
   39.1780   25.9320   37.3520 H   0  0  0  0  0  0  0  0  0  0  0  0
   37.3390   22.5690   38.1620 O   0  0  0  0  0  0  0  0  0  0  0  0
   37.7530   21.9030   38.7590 H   0  0  0  0  0  0  0  0  0  0  0  0
   37.6870   26.1410   31.4660 O   0  0  0  0  0  0  0  0  0  0  0  0
   35.4890   27.5840   32.0180 O   0  0  0  0  0  0  0  0  0  0  0  0
   36.2010   26.7920   30.9300 P   0  0  0  0  0  0  0  0  0  0  0  0
   36.5870   27.8150   29.6180 O   0  0  0  0  0  0  0  0  0  0  0  0
   35.7520   28.1180   29.1460 H   0  0  0  0  0  0  0  0  0  0  0  0
   35.1410   25.5690   30.4670 O   0  0  0  0  0  0  0  0  0  0  0  0
   34.9910   25.6620   29.4810 H   0  0  0  0  0  0  0  0  0  0  0  0
  1  2  1  0  0  0  0
  2  7  1  0  0  0  0
  2  3  2  0  0  0  0
  4  3  1  0  0  0  0
  5  4  2  0  0  0  0
  6  1  2  0  0  0  0
  6  5  1  0  0  0  0
  8  5  1  0  0  0  0
  9 14  1  1  0  0  0
  9 13  1  0  0  0  0
 10  3  1  6  0  0  0
 10 11  1  0  0  0  0
 10  9  1  0  0  0  0
 11 12  1  0  0  0  0
 12 13  1  0  0  0  0
 13 16  1  6  0  0  0
 14 15  1  0  0  0  0
 16 17  1  0  0  0  0
 18  1  1  0  0  0  0
 20 18  1  0  0  0  0
 20 19  2  0  0  0  0
 21 20  1  0  0  0  0
 22 21  1  0  0  0  0
 23 20  1  0  0  0  0
 24 23  1  0  0  0  0
M  END
>  <minimizedAffinity>
-4.8932147

$$$$

 OpenBabel03272506153D

 24 25  0  0  1  0  0  0  0  0999 V2000
   38.1260   25.9120   33.0030 C   0  0  0  0  0  0  0  0  0  0  0  0
   37.7400   25.0430   34.0240 C   0  0  0  0  0  0  0  0  0  0  0  0
   38.3310   25.1780   35.2710 C   0  0  0  0  0  0  0  0  0  0  0  0
   39.2660   26.1530   35.4540 N   0  0  0  0  0  0  0  0  0  0  0  0
   39.6270   26.9940   34.4370 C   0  0  0  0  0  0  0  0  0  0  0  0
   39.0490   26.8630   33.2150 N   0  0  0  0  0  0  0  0  0  0  0  0
   37.0010   24.3120   33.7790 H   0  0  0  0  0  0  0  0  0  0  0  0
   40.3700   27.7570   34.6130 H   0  0  0  0  0  0  0  0  0  0  0  0
   38.7050   22.9870   36.3810 C   0  0  1  0  0  3  0  0  0  0  0  0
   37.9280   24.2590   36.3620 C   0  0  1  0  0  3  0  0  0  0  0  0
   38.1460   24.8530   37.6040 O   0  0  0  0  0  0  0  0  0  0  0  0
   37.9180   23.7780   38.4630 C   0  0  0  0  0  2  0  0  0  0  0  0
   38.8890   22.7440   37.8800 C   0  0  2  0  0  3  0  0  0  0  0  0
   37.9750   21.9110   35.8600 O   0  0  0  0  0  0  0  0  0  0  0  0
   37.0460   21.8840   36.2480 H   0  0  0  0  0  0  0  0  0  0  0  0
   40.1590   23.0600   38.3140 O   0  0  0  0  0  0  0  0  0  0  0  0
   40.1130   23.1240   39.2970 H   0  0  0  0  0  0  0  0  0  0  0  0
   37.6280   25.9020   31.7060 O   0  0  0  0  0  0  0  0  0  0  0  0
   35.0080   25.8430   31.1100 O   0  0  0  0  0  0  0  0  0  0  0  0
   36.2180   26.7570   31.2560 P   0  0  0  0  0  0  0  0  0  0  0  0
   35.9460   27.8940   32.5020 O   0  0  0  0  0  0  0  0  0  0  0  0
   35.2230   28.5430   32.2400 H   0  0  0  0  0  0  0  0  0  0  0  0
   36.4210   27.5120   29.7660 O   0  0  0  0  0  0  0  0  0  0  0  0
   36.3930   28.5010   29.9260 H   0  0  0  0  0  0  0  0  0  0  0  0
  1  6  2  0  0  0  0
  1  2  1  0  0  0  0
  2  3  2  0  0  0  0
  3  4  1  0  0  0  0
  5  8  1  0  0  0  0
  5  4  2  0  0  0  0
  6  5  1  0  0  0  0
  7  2  1  0  0  0  0
  9 14  1  1  0  0  0
  9 13  1  0  0  0  0
 10  3  1  6  0  0  0
 10  9  1  0  0  0  0
 10 11  1  0  0  0  0
 11 12  1  0  0  0  0
 13 16  1  1  0  0  0
 13 12  1  0  0  0  0
 14 15  1  0  0  0  0
 16 17  1  0  0  0  0
 18  1  1  0  0  0  0
 19 20  2  0  0  0  0
 20 18  1  0  0  0  0
 20 21  1  0  0  0  0
 22 21  1  0  0  0  0
 23 24  1  0  0  0  0
 23 20  1  0  0  0  0
M  END
>  <minimizedAffinity>
-4.8788166

$$$$

 OpenBabel03272506153D

 24 25  0  0  1  0  0  0  0  0999 V2000
   38.5190   23.5810   34.7130 C   0  0  0  0  0  0  0  0  0  0  0  0
   38.3670   24.6910   33.8810 C   0  0  0  0  0  0  0  0  0  0  0  0
   37.6430   24.5480   32.7080 C   0  0  0  0  0  0  0  0  0  0  0  0
   37.1060   23.3310   32.4100 N   0  0  0  0  0  0  0  0  0  0  0  0
   37.2680   22.2570   33.2420 C   0  0  0  0  0  0  0  0  0  0  0  0
   37.9770   22.3950   34.3920 N   0  0  0  0  0  0  0  0  0  0  0  0
   38.8270   25.5990   34.2030 H   0  0  0  0  0  0  0  0  0  0  0  0
   36.8300   21.3060   32.9790 H   0  0  0  0  0  0  0  0  0  0  0  0
   36.0540   26.1190   31.6240 C   0  0  1  0  0  3  0  0  0  0  0  0
   37.4770   25.7210   31.8170 C   0  0  1  0  0  3  0  0  0  0  0  0
   38.1110   26.8380   32.3590 O   0  0  0  0  0  0  0  0  0  0  0  0
   37.6610   27.8460   31.5070 C   0  0  0  0  0  2  0  0  0  0  0  0
   36.1440   27.6460   31.6130 C   0  0  2  0  0  3  0  0  0  0  0  0
   35.5530   25.7120   30.3800 O   0  0  0  0  0  0  0  0  0  0  0  0
   36.1950   25.9420   29.6400 H   0  0  0  0  0  0  0  0  0  0  0  0
   35.7240   28.2080   32.8010 O   0  0  0  0  0  0  0  0  0  0  0  0
   36.0530   29.1370   32.8050 H   0  0  0  0  0  0  0  0  0  0  0  0
   39.2130   23.5650   35.9160 O   0  0  0  0  0  0  0  0  0  0  0  0
   38.0370   24.6850   38.0580 O   0  0  0  0  0  0  0  0  0  0  0  0
   38.4360   23.3590   37.4240 P   0  0  0  0  0  0  0  0  0  0  0  0
   37.0440   22.4200   37.1050 O   0  0  0  0  0  0  0  0  0  0  0  0
   36.6120   22.1220   37.9630 H   0  0  0  0  0  0  0  0  0  0  0  0
   39.4540   22.5960   38.5270 O   0  0  0  0  0  0  0  0  0  0  0  0
   39.0520   21.7030   38.7360 H   0  0  0  0  0  0  0  0  0  0  0  0
  1 18  1  0  0  0  0
  2  7  1  0  0  0  0
  2  1  2  0  0  0  0
  3  2  1  0  0  0  0
  4  3  2  0  0  0  0
  4  5  1  0  0  0  0
  5  6  2  0  0  0  0
  6  1  1  0  0  0  0
  8  5  1  0  0  0  0
  9 14  1  6  0  0  0
  9 10  1  0  0  0  0
 10 11  1  0  0  0  0
 10  3  1  1  0  0  0
 12 13  1  0  0  0  0
 12 11  1  0  0  0  0
 13  9  1  0  0  0  0
 13 16  1  1  0  0  0
 15 14  1  0  0  0  0
 16 17  1  0  0  0  0
 18 20  1  0  0  0  0
 20 19  2  0  0  0  0
 20 23  1  0  0  0  0
 21 20  1  0  0  0  0
 21 22  1  0  0  0  0
 23 24  1  0  0  0  0
M  END
>  <minimizedAffinity>
-4.86953926

$$$$

 OpenBabel03272506153D

 24 25  0  0  1  0  0  0  0  0999 V2000
   39.6840   24.6770   34.7890 C   0  0  0  0  0  0  0  0  0  0  0  0
   38.7430   24.6370   33.7600 C   0  0  0  0  0  0  0  0  0  0  0  0
   38.5980   25.7500   32.9470 C   0  0  0  0  0  0  0  0  0  0  0  0
   39.3790   26.8430   33.1810 N   0  0  0  0  0  0  0  0  0  0  0  0
   40.2960   26.8590   34.1970 C   0  0  0  0  0  0  0  0  0  0  0  0
   40.4390   25.7690   34.9940 N   0  0  0  0  0  0  0  0  0  0  0  0
   38.1810   23.7350   33.6600 H   0  0  0  0  0  0  0  0  0  0  0  0
   40.9000   27.7390   34.3570 H   0  0  0  0  0  0  0  0  0  0  0  0
   37.5470   24.4070   31.1410 C   0  0  1  0  0  3  0  0  0  0  0  0
   37.6010   25.7160   31.8510 C   0  0  1  0  0  3  0  0  0  0  0  0
   36.3170   25.9260   32.3540 O   0  0  0  0  0  0  0  0  0  0  0  0
   35.5370   25.6450   31.2330 C   0  0  0  0  0  2  0  0  0  0  0  0
   36.0490   24.2420   30.8810 C   0  0  2  0  0  3  0  0  0  0  0  0
   38.1940   24.4490   29.8990 O   0  0  0  0  0  0  0  0  0  0  0  0
   37.9170   25.2640   29.3760 H   0  0  0  0  0  0  0  0  0  0  0  0
   35.4580   23.3450   31.7460 O   0  0  0  0  0  0  0  0  0  0  0  0
   34.4850   23.4930   31.6850 H   0  0  0  0  0  0  0  0  0  0  0  0
   39.9450   23.6470   35.6840 O   0  0  0  0  0  0  0  0  0  0  0  0
   37.9050   24.2870   37.3120 O   0  0  0  0  0  0  0  0  0  0  0  0
   38.8190   23.1520   36.8700 P   0  0  0  0  0  0  0  0  0  0  0  0
   37.8990   21.9070   36.1460 O   0  0  0  0  0  0  0  0  0  0  0  0
   37.3150   21.4550   36.8290 H   0  0  0  0  0  0  0  0  0  0  0  0
   39.6040   22.6110   38.2570 O   0  0  0  0  0  0  0  0  0  0  0  0
   39.4090   21.6330   38.3480 H   0  0  0  0  0  0  0  0  0  0  0  0
  1  6  1  0  0  0  0
  1 18  1  0  0  0  0
  2  1  2  0  0  0  0
  3  4  2  0  0  0  0
  3  2  1  0  0  0  0
  4  5  1  0  0  0  0
  5  8  1  0  0  0  0
  5  6  2  0  0  0  0
  7  2  1  0  0  0  0
  9 14  1  6  0  0  0
  9 10  1  0  0  0  0
 10 11  1  0  0  0  0
 10  3  1  1  0  0  0
 12 11  1  0  0  0  0
 13  9  1  0  0  0  0
 13 12  1  0  0  0  0
 13 16  1  1  0  0  0
 15 14  1  0  0  0  0
 17 16  1  0  0  0  0
 18 20  1  0  0  0  0
 20 19  2  0  0  0  0
 20 23  1  0  0  0  0
 21 22  1  0  0  0  0
 21 20  1  0  0  0  0
 23 24  1  0  0  0  0
M  END
>  <minimizedAffinity>
-4.83820438

$$$$

 OpenBabel03272506153D

 24 25  0  0  1  0  0  0  0  0999 V2000
   38.6150   25.2220   35.5910 C   0  0  0  0  0  0  0  0  0  0  0  0
   38.1700   25.0260   34.2830 C   0  0  0  0  0  0  0  0  0  0  0  0
   37.6090   26.0970   33.6050 C   0  0  0  0  0  0  0  0  0  0  0  0
   37.5120   27.3000   34.2380 N   0  0  0  0  0  0  0  0  0  0  0  0
   37.9560   27.4670   35.5220 C   0  0  0  0  0  0  0  0  0  0  0  0
   38.5060   26.4200   36.1880 N   0  0  0  0  0  0  0  0  0  0  0  0
   38.2900   24.0460   33.8770 H   0  0  0  0  0  0  0  0  0  0  0  0
   37.8650   28.4330   35.9970 H   0  0  0  0  0  0  0  0  0  0  0  0
   37.4890   24.5660   31.6530 C   0  0  1  0  0  3  0  0  0  0  0  0
   37.1340   25.8990   32.2150 C   0  0  1  0  0  3  0  0  0  0  0  0
   35.7420   25.9730   32.1610 O   0  0  0  0  0  0  0  0  0  0  0  0
   35.4990   25.5550   30.8520 C   0  0  0  0  0  2  0  0  0  0  0  0
   36.2380   24.2110   30.8460 C   0  0  2  0  0  3  0  0  0  0  0  0
   38.5670   24.6360   30.7600 O   0  0  0  0  0  0  0  0  0  0  0  0
   38.4430   25.3890   30.1040 H   0  0  0  0  0  0  0  0  0  0  0  0
   35.4420   23.2850   31.4870 O   0  0  0  0  0  0  0  0  0  0  0  0
   34.5630   23.3120   31.0410 H   0  0  0  0  0  0  0  0  0  0  0  0
   39.1960   24.2520   36.3980 O   0  0  0  0  0  0  0  0  0  0  0  0
   37.1120   22.8500   37.3530 O   0  0  0  0  0  0  0  0  0  0  0  0
   38.3930   23.5740   37.7460 P   0  0  0  0  0  0  0  0  0  0  0  0
   39.4990   22.4730   38.4410 O   0  0  0  0  0  0  0  0  0  0  0  0
   39.1620   22.1450   39.3300 H   0  0  0  0  0  0  0  0  0  0  0  0
   37.9420   24.7700   38.8410 O   0  0  0  0  0  0  0  0  0  0  0  0
   38.4670   24.6180   39.6810 H   0  0  0  0  0  0  0  0  0  0  0  0
  1  6  1  0  0  0  0
  1 18  1  0  0  0  0
  2  1  2  0  0  0  0
  3  4  2  0  0  0  0
  3  2  1  0  0  0  0
  4  5  1  0  0  0  0
  5  8  1  0  0  0  0
  5  6  2  0  0  0  0
  7  2  1  0  0  0  0
  9 14  1  6  0  0  0
  9 10  1  0  0  0  0
 10  3  1  1  0  0  0
 11 10  1  0  0  0  0
 12 11  1  0  0  0  0
 13 12  1  0  0  0  0
 13 16  1  1  0  0  0
 13  9  1  0  0  0  0
 15 14  1  0  0  0  0
 17 16  1  0  0  0  0
 18 20  1  0  0  0  0
 19 20  2  0  0  0  0
 20 21  1  0  0  0  0
 20 23  1  0  0  0  0
 21 22  1  0  0  0  0
 23 24  1  0  0  0  0
M  END
>  <minimizedAffinity>
-4.83528709

$$$$

 OpenBabel03272506153D

 24 25  0  0  1  0  0  0  0  0999 V2000
   38.7270   25.2710   35.5530 C   0  0  0  0  0  0  0  0  0  0  0  0
   38.5010   25.3070   34.1770 C   0  0  0  0  0  0  0  0  0  0  0  0
   38.0160   26.4770   33.6140 C   0  0  0  0  0  0  0  0  0  0  0  0
   37.7800   27.5490   34.4220 N   0  0  0  0  0  0  0  0  0  0  0  0
   38.0110   27.4890   35.7700 C   0  0  0  0  0  0  0  0  0  0  0  0
   38.4850   26.3430   36.3240 N   0  0  0  0  0  0  0  0  0  0  0  0
   38.7160   24.4150   33.6320 H   0  0  0  0  0  0  0  0  0  0  0  0
   37.8150   28.3550   36.3840 H   0  0  0  0  0  0  0  0  0  0  0  0
   36.3340   26.6890   31.7990 C   0  0  1  0  0  3  0  0  0  0  0  0
   37.7720   26.5250   32.1520 C   0  0  1  0  0  3  0  0  0  0  0  0
   38.4270   27.6180   31.5850 O   0  0  0  0  0  0  0  0  0  0  0  0
   37.9050   27.6060   30.2920 C   0  0  0  0  0  2  0  0  0  0  0  0
   36.4020   27.6320   30.5960 C   0  0  2  0  0  3  0  0  0  0  0  0
   35.7540   25.4890   31.3670 O   0  0  0  0  0  0  0  0  0  0  0  0
   36.3400   25.0270   30.6910 H   0  0  0  0  0  0  0  0  0  0  0  0
   36.0570   28.9280   30.9220 O   0  0  0  0  0  0  0  0  0  0  0  0
   36.3720   29.4980   30.1820 H   0  0  0  0  0  0  0  0  0  0  0  0
   39.2080   24.1770   36.2620 O   0  0  0  0  0  0  0  0  0  0  0  0
   37.0980   22.8260   37.2340 O   0  0  0  0  0  0  0  0  0  0  0  0
   38.3930   23.5300   37.6180 P   0  0  0  0  0  0  0  0  0  0  0  0
   39.4790   22.4150   38.3240 O   0  0  0  0  0  0  0  0  0  0  0  0
   39.1360   22.1030   39.2170 H   0  0  0  0  0  0  0  0  0  0  0  0
   37.9670   24.7450   38.7000 O   0  0  0  0  0  0  0  0  0  0  0  0
   38.4890   24.5930   39.5410 H   0  0  0  0  0  0  0  0  0  0  0  0
  1 18  1  0  0  0  0
  1  6  1  0  0  0  0
  2  1  2  0  0  0  0
  3  2  1  0  0  0  0
  3  4  2  0  0  0  0
  4  5  1  0  0  0  0
  5  6  2  0  0  0  0
  5  8  1  0  0  0  0
  7  2  1  0  0  0  0
  9 14  1  6  0  0  0
  9 10  1  0  0  0  0
 10  3  1  1  0  0  0
 11 10  1  0  0  0  0
 12 13  1  0  0  0  0
 12 11  1  0  0  0  0
 13 16  1  1  0  0  0
 13  9  1  0  0  0  0
 15 14  1  0  0  0  0
 17 16  1  0  0  0  0
 18 20  1  0  0  0  0
 19 20  2  0  0  0  0
 20 21  1  0  0  0  0
 20 23  1  0  0  0  0
 21 22  1  0  0  0  0
 23 24  1  0  0  0  0
M  END
>  <minimizedAffinity>
-4.74030733

$$$$

 OpenBabel03272506153D

 24 25  0  0  1  0  0  0  0  0999 V2000
   36.2970   24.3010   31.3830 C   0  0  0  0  0  0  0  0  0  0  0  0
   36.0550   23.0250   31.8940 C   0  0  0  0  0  0  0  0  0  0  0  0
   36.9480   22.0080   31.5950 C   0  0  0  0  0  0  0  0  0  0  0  0
   38.0290   22.2900   30.8130 N   0  0  0  0  0  0  0  0  0  0  0  0
   38.2460   23.5500   30.3240 C   0  0  0  0  0  0  0  0  0  0  0  0
   37.3710   24.5470   30.6160 N   0  0  0  0  0  0  0  0  0  0  0  0
   35.1800   22.9070   32.4940 H   0  0  0  0  0  0  0  0  0  0  0  0
   39.1110   23.7420   29.7080 H   0  0  0  0  0  0  0  0  0  0  0  0
   35.4800   20.5660   32.9850 C   0  0  1  0  0  3  0  0  0  0  0  0
   36.6990   20.6500   32.1330 C   0  0  1  0  0  3  0  0  0  0  0  0
   36.4970   19.7430   31.0930 O   0  0  0  0  0  0  0  0  0  0  0  0
   36.0760   18.6140   31.7950 C   0  0  0  0  0  2  0  0  0  0  0  0
   34.9070   19.2020   32.5950 C   0  0  2  0  0  3  0  0  0  0  0  0
   35.7870   20.5250   34.3510 O   0  0  0  0  0  0  0  0  0  0  0  0
   36.5190   19.8590   34.5360 H   0  0  0  0  0  0  0  0  0  0  0  0
   33.8230   19.3070   31.7480 O   0  0  0  0  0  0  0  0  0  0  0  0
   33.6880   18.4140   31.3510 H   0  0  0  0  0  0  0  0  0  0  0  0
   35.4980   25.4180   31.5920 O   0  0  0  0  0  0  0  0  0  0  0  0
   35.1240   28.0460   32.0120 O   0  0  0  0  0  0  0  0  0  0  0  0
   36.0930   27.0130   31.4510 P   0  0  0  0  0  0  0  0  0  0  0  0
   37.5560   27.0440   32.3330 O   0  0  0  0  0  0  0  0  0  0  0  0
   38.0500   27.9060   32.1720 H   0  0  0  0  0  0  0  0  0  0  0  0
   36.3370   27.4240   29.8370 O   0  0  0  0  0  0  0  0  0  0  0  0
   37.3220   27.5540   29.7090 H   0  0  0  0  0  0  0  0  0  0  0  0
  1 18  1  0  0  0  0
  1  2  1  0  0  0  0
  2  7  1  0  0  0  0
  3  2  2  0  0  0  0
  4  3  1  0  0  0  0
  5  6  1  0  0  0  0
  5  4  2  0  0  0  0
  6  1  2  0  0  0  0
  8  5  1  0  0  0  0
  9 14  1  1  0  0  0
 10  3  1  6  0  0  0
 10  9  1  0  0  0  0
 11 12  1  0  0  0  0
 11 10  1  0  0  0  0
 12 13  1  0  0  0  0
 13 16  1  6  0  0  0
 13  9  1  0  0  0  0
 14 15  1  0  0  0  0
 17 16  1  0  0  0  0
 20 18  1  0  0  0  0
 20 19  2  0  0  0  0
 20 21  1  0  0  0  0
 22 21  1  0  0  0  0
 23 20  1  0  0  0  0
 24 23  1  0  0  0  0
M  END
>  <minimizedAffinity>
-4.69362831

$$$$
