
     RDKit          3D

 30 32  0  0  0  0  0  0  0  0999 V2000
   37.0106   31.1580   49.2520 C   0  0  0  0  0  0  0  0  0  0  0  0
   37.3149   32.4497   49.7172 C   0  0  0  0  0  0  0  0  0  0  0  0
   38.2983   33.1182   49.0078 C   0  0  0  0  0  0  0  0  0  0  0  0
   38.9098   32.5361   47.9356 N   0  0  0  0  0  0  0  0  0  0  0  0
   38.5833   31.2906   47.5247 C   0  0  0  0  0  0  0  0  0  0  0  0
   37.6233   30.5947   48.1910 N   0  0  0  0  0  0  0  0  0  0  0  0
   35.9264   30.3978   49.9787 C   0  0  1  0  0  0  0  0  0  0  0  0
   35.7961   28.9521   49.8402 C   0  0  1  0  0  0  0  0  0  0  0  0
   36.4723   29.4918   51.0728 C   0  0  0  0  0  0  0  0  0  0  0  0
   36.8156   32.8747   50.5601 H   0  0  0  0  0  0  0  0  0  0  0  0
   38.5795   34.1177   49.3158 H   0  0  0  0  0  0  0  0  0  0  0  0
   39.0400   30.7911   46.6829 H   0  0  0  0  0  0  0  0  0  0  0  0
   35.0282   30.9935   50.3190 H   0  0  0  0  0  0  0  0  0  0  0  0
   36.4900   28.4935   49.0752 H   0  0  0  0  0  0  0  0  0  0  0  0
   37.5687   29.3530   51.1442 H   0  0  0  0  0  0  0  0  0  0  0  0
   35.9522   29.4842   52.0361 H   0  0  0  0  0  0  0  0  0  0  0  0
   34.0956   27.6245   47.6014 O   0  0  0  0  0  0  0  0  0  0  0  0
   33.7422   28.4944   48.6095 C   0  0  2  0  0  0  0  0  0  0  0  0
   34.4820   28.2465   49.9097 C   0  0  2  0  0  0  0  0  0  0  0  0
   33.6783   28.7798   50.8856 O   0  0  0  0  0  0  0  0  0  0  0  0
   32.3783   28.8365   50.4662 C   0  0  0  0  0  0  0  0  0  0  0  0
   32.3044   28.2458   49.0822 C   0  0  1  0  0  0  0  0  0  0  0  0
   31.3778   28.8396   48.2594 O   0  0  0  0  0  0  0  0  0  0  0  0
   34.7954   28.0352   47.0361 H   0  0  0  0  0  0  0  0  0  0  0  0
   33.8745   29.5554   48.3306 H   0  0  0  0  0  0  0  0  0  0  0  0
   34.6596   27.1458   50.0358 H   0  0  0  0  0  0  0  0  0  0  0  0
   31.6615   28.4138   51.1819 H   0  0  0  0  0  0  0  0  0  0  0  0
   32.1178   29.9259   50.3444 H   0  0  0  0  0  0  0  0  0  0  0  0
   32.1699   27.1493   49.2046 H   0  0  0  0  0  0  0  0  0  0  0  0
   31.1940   28.1864   47.5299 H   0  0  0  0  0  0  0  0  0  0  0  0
  1  2  2  0
  1  7  1  0
  3  2  1  0
  4  3  2  0
  5  4  1  0
  5  6  2  0
  6  1  1  0
  7  9  1  0
  8  7  1  0
  8  9  1  0
  2 10  1  0
  3 11  1  0
  5 12  1  0
  7 13  1  1
  8 14  1  6
  9 15  1  0
  9 16  1  0
 17 18  1  0
 18 19  1  0
 19 20  1  0
 20 21  1  0
 21 22  1  0
 22 23  1  0
 22 18  1  0
 17 24  1  0
 18 25  1  6
 19 26  1  1
 21 27  1  0
 21 28  1  0
 22 29  1  1
 23 30  1  0
  8 19  1  0
M  ISO  7  10  14  11  14  12  14  13  13  14  13  15  13  16  13
M  END
>  <DihAtoms>  (1) 
6,7,18,17

>  <DihDeg>  (1) 
-179.9983756706143

$$$$
