
 OpenBabel03272508043D

 35 38  0  0  1  0  0  0  0  0999 V2000
   38.8220   31.1000   45.6740 C   0  0  0  0  0  0  0  0  0  0  0  0
   39.8850   31.9500   45.8180 C   0  0  0  0  0  0  0  0  0  0  0  0
   40.7210   31.8890   44.7130 C   0  0  0  0  0  0  0  0  0  0  0  0
   40.1080   30.9680   43.9110 N   0  0  0  0  0  0  0  0  0  0  0  0
   39.0100   30.5120   44.4670 N   0  0  0  0  0  0  0  0  0  0  0  0
   40.0860   32.6010   46.6640 H   0  0  0  0  0  0  0  0  0  0  0  0
   41.6340   32.4030   44.4760 H   0  0  0  0  0  0  0  0  0  0  0  0
   37.7280   30.8640   46.5960 C   0  0  0  0  0  0  0  0  0  0  0  0
   37.9730   31.1110   47.9740 C   0  0  0  0  0  0  0  0  0  0  0  0
   36.9300   30.8890   48.8680 C   0  0  0  0  0  0  0  0  0  0  0  0
   35.7460   30.4500   48.3730 N   0  0  0  0  0  0  0  0  0  0  0  0
   35.5410   30.2230   47.0540 C   0  0  0  0  0  0  0  0  0  0  0  0
   36.5440   30.4350   46.1780 N   0  0  0  0  0  0  0  0  0  0  0  0
   38.9130   31.4600   48.3700 H   0  0  0  0  0  0  0  0  0  0  0  0
   34.5650   29.8700   46.7080 H   0  0  0  0  0  0  0  0  0  0  0  0
   37.1730   31.1440   50.3230 C   0  0  0  0  0  0  0  0  0  0  0  0
   36.6530   32.3850   50.5680 F   0  0  0  0  0  0  0  0  0  0  0  0
   36.5100   30.2140   51.1280 F   0  0  0  0  0  0  0  0  0  0  0  0
   38.5250   31.1330   50.6330 F   0  0  0  0  0  0  0  0  0  0  0  0
   40.5400   30.5000   42.6000 C   0  0  0  0  0  0  0  0  0  0  0  0
   40.2350   31.2240   41.4350 C   0  0  0  0  0  0  0  0  0  0  0  0
   40.6790   30.7370   40.2410 C   0  0  0  0  0  0  0  0  0  0  0  0
   41.4300   29.5230   40.2050 C   0  0  0  0  0  0  0  0  0  0  0  0
   41.4960   29.0650   41.9990 S   0  0  0  0  0  0  0  0  0  0  0  0
   39.6690   32.1440   41.4220 H   0  0  0  0  0  0  0  0  0  0  0  0
   40.5530   31.1370   39.2480 H   0  0  0  0  0  0  0  0  0  0  0  0
   41.3220   27.4210   39.0520 C   0  0  2  0  0  3  0  0  0  0  0  0
   42.0380   28.7240   39.2340 C   0  0  1  0  0  3  0  0  0  0  0  0
   41.9040   29.3300   37.9620 O   0  0  0  0  0  0  0  0  0  0  0  0
   42.3410   28.3400   37.0770 C   0  0  0  0  0  2  0  0  0  0  0  0
   41.6570   27.1050   37.5900 C   0  0  2  0  0  3  0  0  0  0  0  0
   39.9550   27.6590   39.1160 O   0  0  0  0  0  0  0  0  0  0  0  0
   39.4350   26.8490   39.3490 H   0  0  0  0  0  0  0  0  0  0  0  0
   40.5370   26.7580   36.8590 O   0  0  0  0  0  0  0  0  0  0  0  0
   40.1840   27.4700   36.2790 H   0  0  0  0  0  0  0  0  0  0  0  0
  1  2  1  0  0  0  0
  1  8  1  0  0  0  0
  2  6  1  0  0  0  0
  3  2  2  0  0  0  0
  4  5  1  0  0  0  0
  4  3  1  0  0  0  0
  5  1  2  0  0  0  0
  7  3  1  0  0  0  0
  8  9  1  0  0  0  0
  9 14  1  0  0  0  0
  9 10  2  0  0  0  0
 10 16  1  0  0  0  0
 11 10  1  0  0  0  0
 12 11  2  0  0  0  0
 13  8  2  0  0  0  0
 13 12  1  0  0  0  0
 15 12  1  0  0  0  0
 16 17  1  0  0  0  0
 16 19  1  0  0  0  0
 16 18  1  0  0  0  0
 20  4  1  0  0  0  0
 21 20  2  0  0  0  0
 22 21  1  0  0  0  0
 23 22  2  0  0  0  0
 23 24  1  0  0  0  0
 24 20  1  0  0  0  0
 25 21  1  0  0  0  0
 26 22  1  0  0  0  0
 27 32  1  6  0  0  0
 27 28  1  0  0  0  0
 28 23  1  1  0  0  0
 29 28  1  0  0  0  0
 30 31  1  0  0  0  0
 30 29  1  0  0  0  0
 31 34  1  6  0  0  0
 31 27  1  0  0  0  0
 32 33  1  0  0  0  0
 35 34  1  0  0  0  0
M  END
>  <minimizedAffinity>
-6.25759315

>  <minimizedRMSD>
0.927814603

$$$$
