
     RDKit          3D

 45 49  0  0  0  0  0  0  0  0999 V2000
   35.5438   29.7013   49.8058 C   0  0  0  0  0  0  0  0  0  0  0  0
   36.5385   29.5290   50.7514 C   0  0  0  0  0  0  0  0  0  0  0  0
   37.6733   30.0685   50.1444 C   0  0  0  0  0  0  0  0  0  0  0  0
   37.3233   30.5283   48.8975 C   0  0  0  0  0  0  0  0  0  0  0  0
   36.0381   30.2917   48.7274 O   0  0  0  0  0  0  0  0  0  0  0  0
   38.6202   32.4681   48.1389 C   0  0  0  0  0  0  0  0  0  0  0  0
   38.1996   31.1672   47.9195 C   0  0  0  0  0  0  0  0  0  0  0  0
   38.5872   30.4484   46.7928 C   0  0  0  0  0  0  0  0  0  0  0  0
   39.4170   31.0355   45.8543 C   0  0  0  0  0  0  0  0  0  0  0  0
   39.9614   30.6203   44.6838 N   0  0  0  0  0  0  0  0  0  0  0  0
   40.6831   31.6249   44.2098 N   0  0  0  0  0  0  0  0  0  0  0  0
   40.6144   32.6824   45.0540 C   0  0  0  0  0  0  0  0  0  0  0  0
   39.8082   32.3303   46.1172 C   0  0  0  0  0  0  0  0  0  0  0  0
   39.4607   33.0839   47.2028 C   0  0  0  0  0  0  0  0  0  0  0  0
   34.1659   29.2861   49.9937 C   0  0  0  0  0  0  0  0  0  0  0  0
   33.4992   29.8197   50.8957 O   0  0  0  0  0  0  0  0  0  0  0  0
   31.6956   27.1574   48.3539 C   0  0  0  0  0  0  0  0  0  0  0  0
   32.4569   26.3601   47.5236 C   0  0  0  0  0  0  0  0  0  0  0  0
   33.8179   26.5328   47.5079 C   0  0  0  0  0  0  0  0  0  0  0  0
   34.3688   27.4689   48.2976 N   0  0  0  0  0  0  0  0  0  0  0  0
   33.6066   28.2570   49.1195 C   0  0  0  0  0  0  0  0  0  0  0  0
   32.2633   28.0860   49.1346 N   0  0  0  0  0  0  0  0  0  0  0  0
   36.5008   29.0880   51.7407 H   0  0  0  0  0  0  0  0  0  0  0  0
   38.6888   30.1312   50.5633 H   0  0  0  0  0  0  0  0  0  0  0  0
   38.3256   33.0416   49.0141 H   0  0  0  0  0  0  0  0  0  0  0  0
   38.2346   29.4221   46.6533 H   0  0  0  0  0  0  0  0  0  0  0  0
   39.7866   29.6633   44.3041 H   0  0  0  0  0  0  0  0  0  0  0  0
   41.1228   33.6327   44.8883 H   0  0  0  0  0  0  0  0  0  0  0  0
   39.8155   34.1032   47.3340 H   0  0  0  0  0  0  0  0  0  0  0  0
   30.6196   27.0212   48.3666 H   0  0  0  0  0  0  0  0  0  0  0  0
   31.9807   25.6268   46.9106 H   0  0  0  0  0  0  0  0  0  0  0  0
   32.5908   24.8749   45.8039 O   0  0  0  0  0  0  0  0  0  0  0  0
   33.9766   24.7690   45.7403 C   0  0  1  0  0  0  0  0  0  0  0  0
   34.7103   25.7093   46.6367 C   0  0  2  0  0  0  0  0  0  0  0  0
   35.6462   24.9800   47.3516 O   0  0  0  0  0  0  0  0  0  0  0  0
   35.1665   23.6877   47.4834 C   0  0  0  0  0  0  0  0  0  0  0  0
   34.4959   23.4253   46.1494 C   0  0  2  0  0  0  0  0  0  0  0  0
   35.4823   22.9634   45.2707 O   0  0  0  0  0  0  0  0  0  0  0  0
   32.2400   25.3902   45.0092 H   0  0  0  0  0  0  0  0  0  0  0  0
   34.2448   24.8842   44.6535 H   0  0  0  0  0  0  0  0  0  0  0  0
   35.3172   26.3767   45.9596 H   0  0  0  0  0  0  0  0  0  0  0  0
   34.4685   23.5747   48.3295 H   0  0  0  0  0  0  0  0  0  0  0  0
   36.0089   22.9684   47.5905 H   0  0  0  0  0  0  0  0  0  0  0  0
   33.6857   22.7033   46.2613 H   0  0  0  0  0  0  0  0  0  0  0  0
   35.9970   23.7064   44.8636 H   0  0  0  0  0  0  0  0  0  0  0  0
  1 15  1  0
  1  2  2  0
  3  2  1  0
  4  3  2  0
  5  4  1  0
  5  1  1  0
  7  6  2  0
  7  4  1  0
  8  7  1  0
  9 13  1  0
  9  8  2  0
 10  9  1  0
 11 10  1  0
 11 12  2  0
 12 13  1  0
 13 14  2  0
 14  6  1  0
 15 16  2  0
 17 22  2  0
 18 17  1  0
 19 18  2  0
 19 20  1  0
 20 21  2  0
 21 22  1  0
 21 15  1  0
  2 23  1  0
  3 24  1  0
  6 25  1  0
  8 26  1  0
 10 27  1  0
 12 28  1  0
 14 29  1  0
 17 30  1  0
 18 31  1  0
 32 33  1  0
 33 34  1  0
 34 35  1  0
 35 36  1  0
 36 37  1  0
 37 38  1  0
 37 33  1  0
 32 39  1  0
 33 40  1  6
 34 41  1  6
 36 42  1  0
 36 43  1  0
 37 44  1  1
 38 45  1  0
 19 34  1  0
M  ISO  8  23  14  24  14  25  14  26  14  27   9  28  14  29  14  30  14
M  ISO  1  31  14
M  END
>  <DihAtoms>  (1) 
17,18,33,32

>  <DihDeg>  (1) 
-101.11254174074651

$$$$
