
     RDKit          3D

 30 32  0  0  0  0  0  0  0  0999 V2000
   37.0141   31.1534   49.2521 C   0  0  0  0  0  0  0  0  0  0  0  0
   37.3113   32.4451   49.7189 C   0  0  0  0  0  0  0  0  0  0  0  0
   38.2992   33.1314   49.0086 C   0  0  0  0  0  0  0  0  0  0  0  0
   38.9042   32.5335   47.9344 N   0  0  0  0  0  0  0  0  0  0  0  0
   38.5852   31.2887   47.5219 C   0  0  0  0  0  0  0  0  0  0  0  0
   37.6275   30.5911   48.1911 N   0  0  0  0  0  0  0  0  0  0  0  0
   35.9338   30.4007   49.9823 C   0  0  0  0  0  0  0  0  0  0  0  0
   35.7906   28.9565   49.8381 C   0  0  0  0  0  0  0  0  0  0  0  0
   36.4690   29.4886   51.0724 C   0  0  0  0  0  0  0  0  0  0  0  0
   36.8274   32.8926   50.5583 H   0  0  0  0  0  0  0  0  0  0  0  0
   38.6099   34.1326   49.2783 H   0  0  0  0  0  0  0  0  0  0  0  0
   35.0246   31.0065   50.2657 H   0  0  0  0  0  0  0  0  0  0  0  0
   34.8335   28.4387   49.8873 H   0  0  0  0  0  0  0  0  0  0  0  0
   36.5346   28.4821   49.1334 H   0  0  0  0  0  0  0  0  0  0  0  0
   35.8423   29.4390   51.9814 H   0  0  0  0  0  0  0  0  0  0  0  0
   37.5459   29.4120   51.2097 H   0  0  0  0  0  0  0  0  0  0  0  0
   37.2862   31.1662   45.0619 O   0  0  0  0  0  0  0  0  0  0  0  0
   38.3943   30.3417   45.2140 C   0  0  1  0  0  0  0  0  0  0  0  0
   39.2943   30.7242   46.3480 C   0  0  2  0  0  0  0  0  0  0  0  0
   39.9901   29.5556   46.6344 O   0  0  0  0  0  0  0  0  0  0  0  0
   39.1428   28.4990   46.4557 C   0  0  0  0  0  0  0  0  0  0  0  0
   38.0076   28.9274   45.5905 C   0  0  1  0  0  0  0  0  0  0  0  0
   36.8304   28.9998   46.3324 O   0  0  0  0  0  0  0  0  0  0  0  0
   37.4976   31.8146   44.3194 H   0  0  0  0  0  0  0  0  0  0  0  0
   39.0094   30.2926   44.2943 H   0  0  0  0  0  0  0  0  0  0  0  0
   40.0578   31.4326   45.9455 H   0  0  0  0  0  0  0  0  0  0  0  0
   38.7594   28.0626   47.4010 H   0  0  0  0  0  0  0  0  0  0  0  0
   39.7079   27.7010   45.9044 H   0  0  0  0  0  0  0  0  0  0  0  0
   37.8922   28.2836   44.6935 H   0  0  0  0  0  0  0  0  0  0  0  0
   36.5962   28.1552   46.7867 H   0  0  0  0  0  0  0  0  0  0  0  0
  1  2  2  0
  1  7  1  0
  3  2  1  0
  4  3  2  0
  5  4  1  0
  5  6  2  0
  6  1  1  0
  7  9  1  0
  8  7  1  0
  8  9  1  0
  2 10  1  0
  3 11  1  0
  7 12  1  0
  8 13  1  0
  8 14  1  0
  9 15  1  0
  9 16  1  0
 17 18  1  0
 18 19  1  0
 19 20  1  0
 20 21  1  0
 21 22  1  0
 22 23  1  0
 22 18  1  0
 17 24  1  0
 18 25  1  6
 19 26  1  6
 21 27  1  0
 21 28  1  0
 22 29  1  6
 23 30  1  0
  5 19  1  0
M  ISO  7  10  14  11  14  12  13  13  13  14  13  15  13  16  13
M  END
>  <DihAtoms>  (1) 
3,4,18,17

>  <DihDeg>  (1) 
73.96366940534458

$$$$
