
 OpenBabel03272509503D

 33 35  0  0  1  0  0  0  0  0999 V2000
   37.0060   30.1200   51.0440 C   0  0  0  0  0  0  0  0  0  0  0  0
   37.4780   30.7660   49.8920 C   0  0  0  0  0  0  0  0  0  0  0  0
   36.8650   30.4780   48.6860 C   0  0  0  0  0  0  0  0  0  0  0  0
   35.8370   29.5870   48.6740 N   0  0  0  0  0  0  0  0  0  0  0  0
   35.4010   28.9770   49.7960 C   0  0  0  0  0  0  0  0  0  0  0  0
   36.0020   29.2610   50.9710 N   0  0  0  0  0  0  0  0  0  0  0  0
   37.5150   30.3760   51.9620 H   0  0  0  0  0  0  0  0  0  0  0  0
   38.2940   31.4720   49.9100 H   0  0  0  0  0  0  0  0  0  0  0  0
   38.7280   30.8470   47.0620 C   0  0  1  0  0  3  0  0  0  0  0  0
   37.2960   31.1180   47.3920 C   0  0  1  0  0  3  0  0  0  0  0  0
   36.5870   30.4830   46.3550 O   0  0  0  0  0  0  0  0  0  0  0  0
   37.2030   30.9220   45.2020 C   0  0  0  0  0  2  0  0  0  0  0  0
   38.6750   30.8620   45.5300 C   0  0  2  0  0  3  0  0  0  0  0  0
   39.4670   31.9520   47.4690 O   0  0  0  0  0  0  0  0  0  0  0  0
   38.8960   32.7620   47.3030 H   0  0  0  0  0  0  0  0  0  0  0  0
   39.2180   29.7190   44.9930 O   0  0  0  0  0  0  0  0  0  0  0  0
   40.1480   29.5860   45.3270 H   0  0  0  0  0  0  0  0  0  0  0  0
   34.3650   28.1200   49.5810 O   0  0  0  0  0  0  0  0  0  0  0  0
   33.5690   28.3220   48.4080 C   0  0  0  0  0  0  0  0  0  0  0  0
   34.1860   28.4550   47.5160 H   0  0  0  0  0  0  0  0  0  0  0  0
   33.0120   29.2720   48.6280 H   0  0  0  0  0  0  0  0  0  0  0  0
   32.5190   27.2500   48.3050 C   0  0  0  0  0  0  0  0  0  0  0  0
   32.6230   26.7430   47.3250 H   0  0  0  0  0  0  0  0  0  0  0  0
   32.6370   26.4640   49.0780 H   0  0  0  0  0  0  0  0  0  0  0  0
   31.1400   27.8100   48.3120 C   0  0  0  0  0  0  0  0  0  0  0  0
   30.4480   27.7450   49.4960 C   0  0  0  0  0  0  0  0  0  0  0  0
   29.1570   28.2360   49.6140 C   0  0  0  0  0  0  0  0  0  0  0  0
   28.5790   28.7860   48.5460 N   0  0  0  0  0  0  0  0  0  0  0  0
   29.2660   28.8460   47.3840 C   0  0  0  0  0  0  0  0  0  0  0  0
   30.5200   28.3730   47.2560 N   0  0  0  0  0  0  0  0  0  0  0  0
   30.8960   27.3030   50.3780 H   0  0  0  0  0  0  0  0  0  0  0  0
   28.6430   28.1650   50.5680 H   0  0  0  0  0  0  0  0  0  0  0  0
   28.7430   29.3010   46.5610 H   0  0  0  0  0  0  0  0  0  0  0  0
  1  7  1  0  0  0  0
  2  8  1  0  0  0  0
  2  1  2  0  0  0  0
  3  2  1  0  0  0  0
  4  3  2  0  0  0  0
  4  5  1  0  0  0  0
  5  6  2  0  0  0  0
  6  1  1  0  0  0  0
  9 10  1  0  0  0  0
  9 14  1  1  0  0  0
 10  3  1  1  0  0  0
 11 10  1  0  0  0  0
 12 13  1  0  0  0  0
 12 11  1  0  0  0  0
 13 16  1  6  0  0  0
 13  9  1  0  0  0  0
 15 14  1  0  0  0  0
 16 17  1  0  0  0  0
 18  5  1  0  0  0  0
 19 21  1  0  0  0  0
 19 18  1  0  0  0  0
 20 19  1  0  0  0  0
 22 25  1  0  0  0  0
 22 19  1  0  0  0  0
 22 24  1  0  0  0  0
 23 22  1  0  0  0  0
 25 26  1  0  0  0  0
 26 27  2  0  0  0  0
 26 31  1  0  0  0  0
 27 32  1  0  0  0  0
 28 27  1  0  0  0  0
 29 28  2  0  0  0  0
 30 29  1  0  0  0  0
 30 25  2  0  0  0  0
 33 29  1  0  0  0  0
M  END
>  <minimizedAffinity>
-5.57227087

>  <minimizedRMSD>
0.834702134

$$$$
