
 OpenBabel03272506143D

 24 25  0  0  1  0  0  0  0  0999 V2000
   33.5760   29.3840   46.2840 C   0  0  0  0  0  0  0  0  0  0  0  0
   32.8620   30.4410   45.7200 C   0  0  0  0  0  0  0  0  0  0  0  0
   32.8430   30.5690   44.3390 C   0  0  0  0  0  0  0  0  0  0  0  0
   33.5210   29.6600   43.5840 N   0  0  0  0  0  0  0  0  0  0  0  0
   34.2150   28.6300   44.1610 C   0  0  0  0  0  0  0  0  0  0  0  0
   34.2340   28.5030   45.5130 N   0  0  0  0  0  0  0  0  0  0  0  0
   32.3650   31.1000   46.3970 H   0  0  0  0  0  0  0  0  0  0  0  0
   34.7420   27.9250   43.5360 H   0  0  0  0  0  0  0  0  0  0  0  0
   31.1590   32.3630   44.6830 C   0  0  1  0  0  0  0  0  0  0  0  0
   32.0870   31.6900   43.7310 C   0  0  1  0  0  0  0  0  0  0  0  0
   32.9600   32.6820   43.2880 O   0  0  0  0  0  0  0  0  0  0  0  0
   32.0670   33.7040   42.9630 C   0  0  0  0  0  0  0  0  0  0  0  0
   31.2970   33.8330   44.2830 C   0  0  2  0  0  0  0  0  0  0  0  0
   29.8240   31.9890   44.4780 O   0  0  0  0  0  0  0  0  0  0  0  0
   29.5840   32.0290   43.5020 H   0  0  0  0  0  0  0  0  0  0  0  0
   32.0820   34.5480   45.1640 O   0  0  0  0  0  0  0  0  0  0  0  0
   32.3270   35.3870   44.7070 H   0  0  0  0  0  0  0  0  0  0  0  0
   33.6900   29.1230   47.6430 O   0  0  0  0  0  0  0  0  0  0  0  0
   35.8450   30.7190   47.8170 O   0  0  0  0  0  0  0  0  0  0  0  0
   34.8900   29.8460   48.6210 P   0  0  0  0  0  0  0  0  0  0  0  0
   34.0480   30.7970   49.7640 O   0  0  0  0  0  0  0  0  0  0  0  0
   34.6740   31.1350   50.4750 H   0  0  0  0  0  0  0  0  0  0  0  0
   35.8390   28.6770   49.3720 O   0  0  0  0  0  0  0  0  0  0  0  0
   35.6720   28.7450   50.3580 H   0  0  0  0  0  0  0  0  0  0  0  0
  1 18  1  0  0  0  0
  2  1  1  0  0  0  0
  2  7  1  0  0  0  0
  3  2  2  0  0  0  0
  4  5  2  0  0  0  0
  4  3  1  0  0  0  0
  5  6  1  0  0  0  0
  6  1  2  0  0  0  0
  8  5  1  0  0  0  0
  9 14  1  6  0  0  0
 10  3  1  1  0  0  0
 10  9  1  0  0  0  0
 11 10  1  0  0  0  0
 12 11  1  0  0  0  0
 12 13  1  0  0  0  0
 13  9  1  0  0  0  0
 13 16  1  1  0  0  0
 15 14  1  0  0  0  0
 17 16  1  0  0  0  0
 18 20  1  0  0  0  0
 19 20  2  0  0  0  0
 20 23  1  0  0  0  0
 20 21  1  0  0  0  0
 21 22  1  0  0  0  0
 23 24  1  0  0  0  0
M  END
>  <minimizedAffinity>
-4.24494314

>  <minimizedRMSD>
8.85475349

$$$$
