
 OpenBabel03272501143D

 35 38  0  0  1  0  0  0  0  0999 V2000
   35.1070   29.2980   50.6150 C   0  0  0  0  0  0  0  0  0  0  0  0
   35.1430   28.4350   51.2940 H   0  0  0  0  0  0  0  0  0  0  0  0
   34.6250   30.1390   51.1890 H   0  0  0  0  0  0  0  0  0  0  0  0
   36.8050   31.1230   50.1830 C   0  0  1  0  0  0  0  0  0  0  0  0
   36.4630   29.7360   50.1600 C   0  0  1  0  0  0  0  0  0  0  0  0
   37.5340   30.1550   51.1350 C   0  0  0  0  0  0  0  0  0  0  0  0
   36.1860   31.8970   50.6910 H   0  0  0  0  0  0  0  0  0  0  0  0
   36.8780   29.1180   49.3100 H   0  0  0  0  0  0  0  0  0  0  0  0
   37.2170   30.1570   52.1860 H   0  0  0  0  0  0  0  0  0  0  0  0
   38.5820   29.9110   50.9540 H   0  0  0  0  0  0  0  0  0  0  0  0
   37.7570   31.7230   49.1650 C   0  0  0  0  0  0  0  0  0  0  0  0
   38.2470   32.9780   49.4820 C   0  0  0  0  0  0  0  0  0  0  0  0
   39.1100   33.5380   48.5140 C   0  0  0  0  0  0  0  0  0  0  0  0
   39.4050   32.8640   47.3860 N   0  0  0  0  0  0  0  0  0  0  0  0
   38.8920   31.6190   47.1180 C   0  0  0  0  0  0  0  0  0  0  0  0
   38.0480   31.0390   48.0330 N   0  0  0  0  0  0  0  0  0  0  0  0
   37.9710   33.4650   50.4050 H   0  0  0  0  0  0  0  0  0  0  0  0
   39.5180   34.5190   48.7180 H   0  0  0  0  0  0  0  0  0  0  0  0
   39.1410   31.0990   46.2090 H   0  0  0  0  0  0  0  0  0  0  0  0
   34.1810   29.0300   49.4760 C   0  0  0  0  0  0  0  0  0  0  0  0
   34.1990   29.7860   48.3190 C   0  0  0  0  0  0  0  0  0  0  0  0
   33.2850   29.3720   47.4300 N   0  0  0  0  0  0  0  0  0  0  0  0
   32.6800   28.3300   48.0450 C   0  0  0  0  0  0  0  0  0  0  0  0
   33.2140   28.1240   49.2650 N   0  0  0  0  0  0  0  0  0  0  0  0
   34.8600   30.6330   48.1080 H   0  0  0  0  0  0  0  0  0  0  0  0
   33.1020   29.7780   46.4880 H   0  0  0  0  0  0  0  0  0  0  0  0
   30.3560   28.3520   47.1300 C   0  0  2  0  0  0  0  0  0  0  0  0
   31.5780   27.5040   47.4810 C   0  0  2  0  0  0  0  0  0  0  0  0
   31.1050   26.5750   48.3770 O   0  0  0  0  0  0  0  0  0  0  0  0
   30.0570   27.1020   49.0860 C   0  0  0  0  0  0  0  0  0  0  0  0
   29.4710   28.2530   48.3290 C   0  0  2  0  0  0  0  0  0  0  0  0
   29.7430   27.9390   45.9550 O   0  0  0  0  0  0  0  0  0  0  0  0
   30.3930   28.0840   45.2210 H   0  0  0  0  0  0  0  0  0  0  0  0
   28.1680   28.0290   47.8880 O   0  0  0  0  0  0  0  0  0  0  0  0
   27.9900   28.7510   47.2310 H   0  0  0  0  0  0  0  0  0  0  0  0
  1  3  1  0  0  0  0
  1  2  1  0  0  0  0
  4  7  1  1  0  0  0
  4  6  1  0  0  0  0
  5  8  1  6  0  0  0
  5  4  1  0  0  0  0
  5  1  1  0  0  0  0
  5  6  1  0  0  0  0
  6  9  1  0  0  0  0
 10  6  1  0  0  0  0
 11 12  1  0  0  0  0
 11  4  1  0  0  0  0
 12 17  1  0  0  0  0
 13 18  1  0  0  0  0
 13 12  2  0  0  0  0
 14 13  1  0  0  0  0
 15 14  2  0  0  0  0
 15 16  1  0  0  0  0
 16 11  2  0  0  0  0
 19 15  1  0  0  0  0
 20  1  1  0  0  0  0
 21 20  2  0  0  0  0
 22 23  1  0  0  0  0
 22 21  1  0  0  0  0
 23 24  2  0  0  0  0
 24 20  1  0  0  0  0
 25 21  1  0  0  0  0
 26 22  1  0  0  0  0
 27 32  1  6  0  0  0
 27 28  1  0  0  0  0
 27 31  1  0  0  0  0
 28 23  1  1  0  0  0
 28 29  1  0  0  0  0
 29 30  1  0  0  0  0
 31 34  1  6  0  0  0
 31 30  1  0  0  0  0
 33 32  1  0  0  0  0
 35 34  1  0  0  0  0
M  END
>  <minimizedAffinity>
-6.16917038

>  <minimizedRMSD>
0.683022261

$$$$
