
 OpenBabel03272509033D

 33 35  0  0  1  0  0  0  0  0999 V2000
   37.2300   30.1560   51.5610 C   0  0  0  0  0  0  0  0  0  0  0  0
   38.0820   30.5800   50.5170 C   0  0  0  0  0  0  0  0  0  0  0  0
   37.7090   30.2420   49.2000 C   0  0  0  0  0  0  0  0  0  0  0  0
   36.5540   29.5300   49.0090 N   0  0  0  0  0  0  0  0  0  0  0  0
   35.7890   29.1590   50.0550 C   0  0  0  0  0  0  0  0  0  0  0  0
   36.1130   29.4630   51.3310 N   0  0  0  0  0  0  0  0  0  0  0  0
   37.5840   30.4530   52.5460 H   0  0  0  0  0  0  0  0  0  0  0  0
   38.9840   31.1350   50.6470 H   0  0  0  0  0  0  0  0  0  0  0  0
   37.8940   30.6240   46.7750 C   0  0  1  0  0  3  0  0  0  0  0  0
   38.5850   30.6750   48.0870 C   0  0  1  0  0  3  0  0  0  0  0  0
   39.0970   31.9430   48.2700 O   0  0  0  0  0  0  0  0  0  0  0  0
   38.3890   32.8200   47.4770 C   0  0  0  0  0  2  0  0  0  0  0  0
   37.5320   32.0660   46.5210 C   0  0  1  0  0  3  0  0  0  0  0  0
   38.7280   30.1590   45.7670 O   0  0  0  0  0  0  0  0  0  0  0  0
   38.4760   30.6450   44.9400 H   0  0  0  0  0  0  0  0  0  0  0  0
   37.7650   32.4210   45.1980 O   0  0  0  0  0  0  0  0  0  0  0  0
   37.4640   33.3370   45.0500 H   0  0  0  0  0  0  0  0  0  0  0  0
   34.6050   28.4040   49.7180 C   0  0  0  0  0  3  0  0  0  0  0  0
   34.3830   28.0780   48.4930 C   0  0  0  0  0  3  0  0  0  0  0  0
   33.2730   27.3140   47.9090 C   0  0  0  0  0  0  0  0  0  0  0  0
   32.6950   26.8520   48.7450 H   0  0  0  0  0  0  0  0  0  0  0  0
   32.5680   27.9620   47.3680 H   0  0  0  0  0  0  0  0  0  0  0  0
   33.7240   26.2330   46.9740 C   0  0  0  0  0  0  0  0  0  0  0  0
   33.9670   24.9170   47.3380 C   0  0  0  0  0  0  0  0  0  0  0  0
   34.3810   24.0080   46.3730 C   0  0  0  0  0  0  0  0  0  0  0  0
   34.5580   24.3880   45.0430 C   0  0  0  0  0  0  0  0  0  0  0  0
   34.3150   25.7020   44.6840 C   0  0  0  0  0  0  0  0  0  0  0  0
   33.9020   26.6110   45.6510 C   0  0  0  0  0  0  0  0  0  0  0  0
   33.8160   24.6760   48.3780 H   0  0  0  0  0  0  0  0  0  0  0  0
   34.5540   23.0000   46.7120 H   0  0  0  0  0  0  0  0  0  0  0  0
   34.8810   23.6020   44.3760 H   0  0  0  0  0  0  0  0  0  0  0  0
   34.4620   25.9610   43.6500 H   0  0  0  0  0  0  0  0  0  0  0  0
   33.7380   27.6070   45.2740 H   0  0  0  0  0  0  0  0  0  0  0  0
  1  7  1  0  0  0  0
  2  8  1  0  0  0  0
  2  1  2  0  0  0  0
  3  2  1  0  0  0  0
  4  3  2  0  0  0  0
  4  5  1  0  0  0  0
  5  6  2  0  0  0  0
  6  1  1  0  0  0  0
  9 14  1  6  0  0  0
  9 10  1  0  0  0  0
 10 11  1  0  0  0  0
 10  3  1  1  0  0  0
 12 11  1  0  0  0  0
 13 16  1  6  0  0  0
 13  9  1  0  0  0  0
 13 12  1  0  0  0  0
 15 14  1  0  0  0  0
 17 16  1  0  0  0  0
 18  5  1  0  0  0  0
 19 18  2  0  0  0  0
 20 19  1  0  0  0  0
 20 21  1  0  0  0  0
 22 20  1  0  0  0  0
 23 24  1  0  0  0  0
 23 20  1  0  0  0  0
 24 29  1  0  0  0  0
 25 30  1  0  0  0  0
 25 24  2  0  0  0  0
 26 25  1  0  0  0  0
 27 26  2  0  0  0  0
 27 28  1  0  0  0  0
 28 23  2  0  0  0  0
 31 26  1  0  0  0  0
 32 27  1  0  0  0  0
 33 28  1  0  0  0  0
M  END
>  <minimizedAffinity>
-5.31406212

>  <minimizedRMSD>
0.238941804

$$$$
