
 OpenBabel03272500413D

 40 43  0  0  1  0  0  0  0  0999 V2000
   35.9880   30.7740   47.7620 C   0  0  1  0  0  0  0  0  0  0  0  0
   35.5400   29.7730   46.8430 C   0  0  0  0  0  0  0  0  0  0  0  0
   36.2420   29.3720   48.1110 C   0  0  2  0  0  0  0  0  0  0  0  0
   35.2570   31.4460   48.1930 H   0  0  0  0  0  0  0  0  0  0  0  0
   36.0890   29.6860   45.8610 H   0  0  0  0  0  0  0  0  0  0  0  0
   34.4760   29.5620   46.7270 H   0  0  0  0  0  0  0  0  0  0  0  0
   37.2320   28.9470   47.9410 H   0  0  0  0  0  0  0  0  0  0  0  0
   36.0720   28.6340   50.4770 C   0  0  2  0  0  0  0  0  0  0  0  0
   35.4540   28.6380   49.1460 C   0  0  1  0  0  0  0  0  0  0  0  0
   34.1490   29.3330   49.3460 C   0  0  0  0  0  0  0  0  0  0  0  0
   34.2580   30.1340   50.4850 O   0  0  0  0  0  0  0  0  0  0  0  0
   34.8870   29.2920   51.3470 C   0  0  0  0  0  0  0  0  0  0  0  0
   36.1900   27.8130   51.1570 H   0  0  0  0  0  0  0  0  0  0  0  0
   35.3440   27.5760   48.7930 H   0  0  0  0  0  0  0  0  0  0  0  0
   33.5100   28.4970   49.7450 H   0  0  0  0  0  0  0  0  0  0  0  0
   33.5760   29.6940   48.5350 H   0  0  0  0  0  0  0  0  0  0  0  0
   35.2470   29.6460   52.2770 H   0  0  0  0  0  0  0  0  0  0  0  0
   34.1960   28.3980   51.4740 H   0  0  0  0  0  0  0  0  0  0  0  0
   37.0380   29.6250   50.5890 O   0  0  0  0  0  0  0  0  0  0  0  0
   37.4400   30.0250   51.7290 C   0  0  0  0  0  0  0  0  0  0  0  0
   37.8720   29.2700   52.4510 H   0  0  0  0  0  0  0  0  0  0  0  0
   36.7700   30.7480   52.2620 H   0  0  0  0  0  0  0  0  0  0  0  0
   38.3670   30.7200   51.5620 H   0  0  0  0  0  0  0  0  0  0  0  0
   37.2520   31.5850   47.5530 C   0  0  0  0  0  0  0  0  0  0  0  0
   37.8870   32.1020   48.6700 C   0  0  0  0  0  0  0  0  0  0  0  0
   39.0250   32.8490   48.4330 C   0  0  0  0  0  0  0  0  0  0  0  0
   39.4540   33.0360   47.1490 N   0  0  0  0  0  0  0  0  0  0  0  0
   38.8170   32.5200   46.0680 C   0  0  0  0  0  0  0  0  0  0  0  0
   37.6970   31.7830   46.2810 N   0  0  0  0  0  0  0  0  0  0  0  0
   37.5260   31.9390   49.6700 H   0  0  0  0  0  0  0  0  0  0  0  0
   39.6010   33.3000   49.2300 H   0  0  0  0  0  0  0  0  0  0  0  0
   38.4680   32.0770   43.6580 C   0  0  2  0  0  0  0  0  0  0  0  0
   39.3170   32.7480   44.6860 C   0  0  2  0  0  0  0  0  0  0  0  0
   40.5890   32.1830   44.6070 O   0  0  0  0  0  0  0  0  0  0  0  0
   40.3840   30.8590   44.1790 C   0  0  0  0  0  0  0  0  0  0  0  0
   39.4660   31.1270   42.9960 C   0  0  2  0  0  0  0  0  0  0  0  0
   37.9810   32.9530   42.6950 O   0  0  0  0  0  0  0  0  0  0  0  0
   38.7130   33.5990   42.5120 H   0  0  0  0  0  0  0  0  0  0  0  0
   40.1380   31.8410   42.0320 O   0  0  0  0  0  0  0  0  0  0  0  0
   41.1090   31.7820   42.2190 H   0  0  0  0  0  0  0  0  0  0  0  0
  1  3  1  0  0  0  0
  1  4  1  1  0  0  0
  2  1  1  0  0  0  0
  2  3  1  0  0  0  0
  3  7  1  6  0  0  0
  3  9  1  0  0  0  0
  5  2  1  0  0  0  0
  6  2  1  0  0  0  0
  8 19  1  0  0  0  0
  8 13  1  1  0  0  0
  8 12  1  0  0  0  0
  9 14  1  6  0  0  0
  9 10  1  0  0  0  0
  9  8  1  0  0  0  0
 10 15  1  0  0  0  0
 10 11  1  0  0  0  0
 11 12  1  0  0  0  0
 12 18  1  0  0  0  0
 12 17  1  0  0  0  0
 16 10  1  0  0  0  0
 19 20  1  0  0  0  0
 20 22  1  0  0  0  0
 20 21  1  0  0  0  0
 23 20  1  0  0  0  0
 24  1  1  0  0  0  0
 24 25  1  0  0  0  0
 25 30  1  0  0  0  0
 26 25  2  0  0  0  0
 26 31  1  0  0  0  0
 27 26  1  0  0  0  0
 28 29  1  0  0  0  0
 28 27  2  0  0  0  0
 29 24  2  0  0  0  0
 32 37  1  6  0  0  0
 32 33  1  0  0  0  0
 33 28  1  1  0  0  0
 34 33  1  0  0  0  0
 35 34  1  0  0  0  0
 36 39  1  6  0  0  0
 36 32  1  0  0  0  0
 36 35  1  0  0  0  0
 38 37  1  0  0  0  0
 39 40  1  0  0  0  0
M  END
>  <minimizedAffinity>
-5.05378151

>  <minimizedRMSD>
2.72666359

$$$$
