
     RDKit          3D

 49 52  0  0  0  0  0  0  0  0999 V2000
   37.6797   31.0326   47.9296 C   0  0  0  0  0  0  0  0  0  0  0  0
   36.9970   30.7870   46.7537 C   0  0  0  0  0  0  0  0  0  0  0  0
   37.6840   31.4459   45.7350 C   0  0  0  0  0  0  0  0  0  0  0  0
   38.7258   32.0493   46.3091 N   0  0  0  0  0  0  0  0  0  0  0  0
   38.7279   31.8033   47.6318 N   0  0  0  0  0  0  0  0  0  0  0  0
   37.4054   30.1489   51.5719 C   0  0  0  0  0  0  0  0  0  0  0  0
   37.9157   30.7123   50.4044 C   0  0  0  0  0  0  0  0  0  0  0  0
   37.2585   30.5055   49.2032 C   0  0  0  0  0  0  0  0  0  0  0  0
   36.1379   29.7457   49.2770 N   0  0  0  0  0  0  0  0  0  0  0  0
   35.6505   29.2038   50.4122 C   0  0  0  0  0  0  0  0  0  0  0  0
   36.2949   29.4135   51.5538 N   0  0  0  0  0  0  0  0  0  0  0  0
   39.7020   32.8586   45.5940 C   0  0  0  0  0  0  0  0  0  0  0  0
   40.6250   32.0266   44.8428 C   0  0  0  0  0  0  0  0  0  0  0  0
   40.3554   31.7964   43.4920 N   0  0  0  0  0  0  0  0  0  0  0  0
   39.5357   32.6905   42.8239 C   0  0  0  0  0  0  0  0  0  0  0  0
   38.2588   32.1512   42.2885 C   0  0  0  0  0  0  0  0  0  0  0  0
   38.4153   30.9080   41.7040 O   0  0  0  0  0  0  0  0  0  0  0  0
   39.0047   30.0268   42.5830 C   0  0  0  0  0  0  0  0  0  0  0  0
   40.3408   30.4491   43.0113 C   0  0  1  0  0  0  0  0  0  0  0  0
   36.0771   30.1774   46.6599 H   0  0  0  0  0  0  0  0  0  0  0  0
   37.2923   31.3526   44.7895 H   0  0  0  0  0  0  0  0  0  0  0  0
   37.9497   30.3318   52.5065 H   0  0  0  0  0  0  0  0  0  0  0  0
   38.8136   31.3145   50.3790 H   0  0  0  0  0  0  0  0  0  0  0  0
   34.7433   28.6294   50.2601 H   0  0  0  0  0  0  0  0  0  0  0  0
   40.3026   33.4198   46.3747 H   0  0  0  0  0  0  0  0  0  0  0  0
   39.1033   33.6419   45.1368 H   0  0  0  0  0  0  0  0  0  0  0  0
   40.6724   31.0176   45.3528 H   0  0  0  0  0  0  0  0  0  0  0  0
   41.6735   32.3926   44.9213 H   0  0  0  0  0  0  0  0  0  0  0  0
   40.1832   32.8467   41.8935 H   0  0  0  0  0  0  0  0  0  0  0  0
   39.4711   33.7182   43.1516 H   0  0  0  0  0  0  0  0  0  0  0  0
   38.0904   32.7754   41.3242 H   0  0  0  0  0  0  0  0  0  0  0  0
   37.3266   32.3942   42.7612 H   0  0  0  0  0  0  0  0  0  0  0  0
   38.3380   29.6124   43.3506 H   0  0  0  0  0  0  0  0  0  0  0  0
   39.1399   29.1460   41.9362 H   0  0  0  0  0  0  0  0  0  0  0  0
   40.6415   29.8133   43.8773 H   0  0  0  0  0  0  0  0  0  0  0  0
   41.2499   32.4774   40.9400 O   0  0  0  0  0  0  0  0  0  0  0  0
   41.3606   31.1439   40.7866 C   0  0  1  0  0  0  0  0  0  0  0  0
   41.4604   30.2622   41.9936 C   0  0  2  0  0  0  0  0  0  0  0  0
   41.2043   28.9983   41.3732 O   0  0  0  0  0  0  0  0  0  0  0  0
   40.1089   29.1918   40.5460 C   0  0  0  0  0  0  0  0  0  0  0  0
   40.1019   30.6265   40.0759 C   0  0  2  0  0  0  0  0  0  0  0  0
   40.2006   30.7508   38.7004 O   0  0  0  0  0  0  0  0  0  0  0  0
   41.8839   33.0222   40.3802 H   0  0  0  0  0  0  0  0  0  0  0  0
   42.2523   30.9191   40.1231 H   0  0  0  0  0  0  0  0  0  0  0  0
   42.4469   30.2333   42.4574 H   0  0  0  0  0  0  0  0  0  0  0  0
   39.1410   28.9426   40.9731 H   0  0  0  0  0  0  0  0  0  0  0  0
   40.2640   28.5229   39.6611 H   0  0  0  0  0  0  0  0  0  0  0  0
   39.2008   31.1846   40.4014 H   0  0  0  0  0  0  0  0  0  0  0  0
   40.3435   31.6963   38.4955 H   0  0  0  0  0  0  0  0  0  0  0  0
  1  8  1  0
  2  1  1  0
  3  4  1  0
  3  2  2  0
  4  5  1  0
  5  1  2  0
  7  6  2  0
  8  9  2  0
  8  7  1  0
  9 10  1  0
 10 11  2  0
 11  6  1  0
 12  4  1  0
 13 12  1  0
 14 13  1  0
 15 14  1  0
 16 15  1  0
 17 16  1  0
 17 18  1  0
 18 19  1  0
 19 14  1  0
  2 20  1  0
  3 21  1  0
  6 22  1  0
  7 23  1  0
 10 24  1  0
 12 25  1  0
 12 26  1  0
 13 27  1  0
 13 28  1  0
 15 29  1  0
 15 30  1  0
 16 31  1  0
 16 32  1  0
 18 33  1  0
 18 34  1  0
 19 35  1  1
 36 37  1  0
 37 38  1  0
 38 39  1  0
 39 40  1  0
 40 41  1  0
 41 42  1  0
 41 37  1  0
 36 43  1  0
 37 44  1  6
 38 45  1  1
 40 46  1  0
 40 47  1  0
 41 48  1  1
 42 49  1  0
 19 38  1  0
M  ISO  8  20  14  21  14  22  14  23  14  24  14  25   8  26   8  27   8
M  ISO  8  28   8  29  13  30  13  31  13  32  13  33  13  34  13  35  13
M  END
>  <DihAtoms>  (1) 
17,18,37,36

>  <DihDeg>  (1) 
-67.28548147183184

$$$$
