
 OpenBabel03262520233D

 32 34  0  0  1  0  0  0  0  0999 V2000
   38.9350   25.1030   35.3590 C   0  0  0  0  0  0  0  0  0  0  0  0
   38.7810   26.3690   35.9480 C   0  0  0  0  0  0  0  0  0  0  0  0
   38.2560   27.4640   35.3540 C   0  0  0  0  0  0  0  0  0  0  0  0
   37.8220   27.4070   34.0840 C   0  0  0  0  0  0  0  0  0  0  0  0
   37.9620   26.1850   33.4880 C   0  0  0  0  0  0  0  0  0  0  0  0
   38.4820   25.1650   34.1300 N   0  0  0  0  0  0  0  0  0  0  0  0
   39.1120   26.5390   37.0170 H   0  0  0  0  0  0  0  0  0  0  0  0
   38.1730   28.4370   35.9040 H   0  0  0  0  0  0  0  0  0  0  0  0
   37.3960   28.1850   33.5130 H   0  0  0  0  0  0  0  0  0  0  0  0
   40.7110   23.5560   35.5570 C   0  0  0  0  0  0  0  0  0  0  0  0
   39.4810   24.0040   36.1320 C   0  0  0  0  0  0  0  0  0  0  0  0
   39.0620   23.3700   37.2700 C   0  0  0  0  0  0  0  0  0  0  0  0
   39.8630   22.3620   37.7560 N   0  0  0  0  0  0  0  0  0  0  0  0
   41.0060   21.9560   37.2140 C   0  0  0  0  0  0  0  0  0  0  0  0
   41.4220   22.5710   36.0990 N   0  0  0  0  0  0  0  0  0  0  0  0
   41.6870   20.9280   37.8760 N   0  0  0  0  0  0  0  0  0  0  0  0
   41.1590   23.9570   34.6710 H   0  0  0  0  0  0  0  0  0  0  0  0
   42.6150   20.8830   38.3520 H   0  0  0  0  0  0  0  0  0  0  0  0
   41.1320   20.0610   37.8730 H   0  0  0  0  0  0  0  0  0  0  0  0
   37.8160   23.7830   37.9130 C   0  0  0  0  0  0  0  0  0  0  0  0
   36.9450   24.1130   36.9840 F   0  0  0  0  0  0  0  0  0  0  0  0
   37.2710   22.8360   38.7580 F   0  0  0  0  0  0  0  0  0  0  0  0
   38.0270   24.9290   38.7330 F   0  0  0  0  0  0  0  0  0  0  0  0
   38.0600   26.7210   31.0320 C   0  0  2  0  0  3  0  0  0  0  0  0
   37.5810   25.7800   32.0750 C   0  0  2  0  0  3  0  0  0  0  0  0
   36.1830   25.7600   31.9590 O   0  0  0  0  0  0  0  0  0  0  0  0
   35.7920   27.0710   31.7760 C   0  0  0  0  0  2  0  0  0  0  0  0
   36.8520   27.6580   30.9010 C   0  0  2  0  0  3  0  0  0  0  0  0
   38.1990   26.0050   29.8160 O   0  0  0  0  0  0  0  0  0  0  0  0
   37.4260   25.3650   29.8070 H   0  0  0  0  0  0  0  0  0  0  0  0
   36.3940   27.6540   29.5690 O   0  0  0  0  0  0  0  0  0  0  0  0
   37.1670   27.4900   28.9910 H   0  0  0  0  0  0  0  0  0  0  0  0
  1  2  1  0  0  0  0
  1 11  1  0  0  0  0
  2  7  1  0  0  0  0
  3  8  1  0  0  0  0
  3  2  2  0  0  0  0
  4  3  1  0  0  0  0
  5  4  2  0  0  0  0
  5  6  1  0  0  0  0
  6  1  2  0  0  0  0
  9  4  1  0  0  0  0
 10 15  2  0  0  0  0
 10 11  1  0  0  0  0
 11 12  2  0  0  0  0
 12 13  1  0  0  0  0
 12 20  1  0  0  0  0
 14 13  2  0  0  0  0
 14 16  1  0  0  0  0
 15 14  1  0  0  0  0
 16 18  1  0  0  0  0
 17 10  1  0  0  0  0
 19 16  1  0  0  0  0
 20 23  1  0  0  0  0
 20 22  1  0  0  0  0
 21 20  1  0  0  0  0
 24 29  1  6  0  0  0
 24 25  1  0  0  0  0
 25  5  1  1  0  0  0
 26 25  1  0  0  0  0
 27 26  1  0  0  0  0
 28 31  1  6  0  0  0
 28 24  1  0  0  0  0
 28 27  1  0  0  0  0
 30 29  1  0  0  0  0
 32 31  1  0  0  0  0
M  END
>  <minimizedAffinity>
-7.14441776

$$$$

 OpenBabel03262520233D

 32 34  0  0  1  0  0  0  0  0999 V2000
   38.6960   25.1040   35.4200 C   0  0  0  0  0  0  0  0  0  0  0  0
   38.6990   26.4030   35.9540 C   0  0  0  0  0  0  0  0  0  0  0  0
   38.1030   27.4880   35.4100 C   0  0  0  0  0  0  0  0  0  0  0  0
   37.4290   27.3850   34.2520 C   0  0  0  0  0  0  0  0  0  0  0  0
   37.4140   26.1290   33.7110 C   0  0  0  0  0  0  0  0  0  0  0  0
   38.0170   25.1220   34.2990 N   0  0  0  0  0  0  0  0  0  0  0  0
   39.2350   26.6130   36.9280 H   0  0  0  0  0  0  0  0  0  0  0  0
   38.1570   28.4900   35.9080 H   0  0  0  0  0  0  0  0  0  0  0  0
   36.9250   28.1500   33.7290 H   0  0  0  0  0  0  0  0  0  0  0  0
   40.5330   23.6160   35.4480 C   0  0  0  0  0  0  0  0  0  0  0  0
   39.3480   24.0230   36.1360 C   0  0  0  0  0  0  0  0  0  0  0  0
   39.0570   23.3760   37.3060 C   0  0  0  0  0  0  0  0  0  0  0  0
   39.9320   22.3950   37.7130 N   0  0  0  0  0  0  0  0  0  0  0  0
   41.0320   22.0260   37.0660 C   0  0  0  0  0  0  0  0  0  0  0  0
   41.3220   22.6550   35.9180 N   0  0  0  0  0  0  0  0  0  0  0  0
   41.8050   21.0210   37.6590 N   0  0  0  0  0  0  0  0  0  0  0  0
   40.8830   24.0310   34.5250 H   0  0  0  0  0  0  0  0  0  0  0  0
   42.7750   21.0070   38.0460 H   0  0  0  0  0  0  0  0  0  0  0  0
   41.2810   20.1370   37.7050 H   0  0  0  0  0  0  0  0  0  0  0  0
   37.8640   23.7480   38.0630 C   0  0  0  0  0  0  0  0  0  0  0  0
   38.1300   24.8160   38.7830 F   0  0  0  0  0  0  0  0  0  0  0  0
   36.7430   23.9670   37.2870 F   0  0  0  0  0  0  0  0  0  0  0  0
   37.4910   22.7060   38.9610 F   0  0  0  0  0  0  0  0  0  0  0  0
   37.2830   24.3830   31.9040 C   0  0  2  0  0  3  0  0  0  0  0  0
   36.7540   25.6690   32.4220 C   0  0  2  0  0  3  0  0  0  0  0  0
   36.9970   26.6150   31.4140 O   0  0  0  0  0  0  0  0  0  0  0  0
   38.2720   26.3650   30.9490 C   0  0  0  0  0  2  0  0  0  0  0  0
   38.3880   24.8750   30.9590 C   0  0  2  0  0  3  0  0  0  0  0  0
   36.2730   23.7680   31.1240 O   0  0  0  0  0  0  0  0  0  0  0  0
   35.8260   24.5270   30.6420 H   0  0  0  0  0  0  0  0  0  0  0  0
   38.1440   24.3920   29.6580 O   0  0  0  0  0  0  0  0  0  0  0  0
   37.6840   23.5320   29.7440 H   0  0  0  0  0  0  0  0  0  0  0  0
  1  2  1  0  0  0  0
  1 11  1  0  0  0  0
  2  7  1  0  0  0  0
  3  8  1  0  0  0  0
  3  2  2  0  0  0  0
  4  3  1  0  0  0  0
  5  4  2  0  0  0  0
  5  6  1  0  0  0  0
  6  1  2  0  0  0  0
  9  4  1  0  0  0  0
 10 15  2  0  0  0  0
 10 11  1  0  0  0  0
 11 12  2  0  0  0  0
 12 13  1  0  0  0  0
 12 20  1  0  0  0  0
 14 16  1  0  0  0  0
 14 13  2  0  0  0  0
 15 14  1  0  0  0  0
 16 19  1  0  0  0  0
 16 18  1  0  0  0  0
 17 10  1  0  0  0  0
 20 21  1  0  0  0  0
 20 23  1  0  0  0  0
 22 20  1  0  0  0  0
 24 29  1  6  0  0  0
 24 25  1  0  0  0  0
 25  5  1  1  0  0  0
 26 25  1  0  0  0  0
 27 28  1  0  0  0  0
 27 26  1  0  0  0  0
 28 31  1  6  0  0  0
 28 24  1  0  0  0  0
 30 29  1  0  0  0  0
 31 32  1  0  0  0  0
M  END
>  <minimizedAffinity>
-6.79822636

$$$$

 OpenBabel03262520233D

 32 34  0  0  1  0  0  0  0  0999 V2000
   39.5130   25.4320   33.8940 C   0  0  0  0  0  0  0  0  0  0  0  0
   40.8640   25.7880   34.0470 C   0  0  0  0  0  0  0  0  0  0  0  0
   41.7760   25.1390   34.8050 C   0  0  0  0  0  0  0  0  0  0  0  0
   41.4260   24.0450   35.5030 C   0  0  0  0  0  0  0  0  0  0  0  0
   40.1150   23.6790   35.3700 C   0  0  0  0  0  0  0  0  0  0  0  0
   39.2860   24.3610   34.6140 N   0  0  0  0  0  0  0  0  0  0  0  0
   41.2750   26.6940   33.5070 H   0  0  0  0  0  0  0  0  0  0  0  0
   42.8360   25.4960   34.8690 H   0  0  0  0  0  0  0  0  0  0  0  0
   42.0390   23.4540   36.1260 H   0  0  0  0  0  0  0  0  0  0  0  0
   38.9310   25.8820   31.6470 C   0  0  0  0  0  0  0  0  0  0  0  0
   38.6560   26.2030   33.0130 C   0  0  0  0  0  0  0  0  0  0  0  0
   37.6640   27.1170   33.2470 C   0  0  0  0  0  0  0  0  0  0  0  0
   37.0240   27.6400   32.1470 N   0  0  0  0  0  0  0  0  0  0  0  0
   37.2870   27.3330   30.8820 C   0  0  0  0  0  0  0  0  0  0  0  0
   38.2580   26.4400   30.6450 N   0  0  0  0  0  0  0  0  0  0  0  0
   36.5050   27.9590   29.9050 N   0  0  0  0  0  0  0  0  0  0  0  0
   39.6770   25.1890   31.3150 H   0  0  0  0  0  0  0  0  0  0  0  0
   35.8230   27.5970   29.2020 H   0  0  0  0  0  0  0  0  0  0  0  0
   36.6590   28.9770   29.9110 H   0  0  0  0  0  0  0  0  0  0  0  0
   37.3270   27.4850   34.6200 C   0  0  0  0  0  0  0  0  0  0  0  0
   36.7200   26.4710   35.1980 F   0  0  0  0  0  0  0  0  0  0  0  0
   38.4060   27.8890   35.3820 F   0  0  0  0  0  0  0  0  0  0  0  0
   36.4300   28.5920   34.6400 F   0  0  0  0  0  0  0  0  0  0  0  0
   37.9640   22.7700   36.3070 C   0  0  2  0  0  3  0  0  0  0  0  0
   39.3960   22.5080   36.0170 C   0  0  2  0  0  3  0  0  0  0  0  0
   39.9920   22.2250   37.2560 O   0  0  0  0  0  0  0  0  0  0  0  0
   39.4760   23.1420   38.1500 C   0  0  0  0  0  2  0  0  0  0  0  0
   38.0450   23.2910   37.7480 C   0  0  2  0  0  3  0  0  0  0  0  0
   37.2790   21.5290   36.3220 O   0  0  0  0  0  0  0  0  0  0  0  0
   37.9210   20.8880   36.7500 H   0  0  0  0  0  0  0  0  0  0  0  0
   37.2520   22.4820   38.5870 O   0  0  0  0  0  0  0  0  0  0  0  0
   36.5090   22.1390   38.0500 H   0  0  0  0  0  0  0  0  0  0  0  0
  1  2  2  0  0  0  0
  1  6  1  0  0  0  0
  2  3  1  0  0  0  0
  3  8  1  0  0  0  0
  3  4  2  0  0  0  0
  4  9  1  0  0  0  0
  5  4  1  0  0  0  0
  6  5  2  0  0  0  0
  7  2  1  0  0  0  0
 10 11  1  0  0  0  0
 11 12  2  0  0  0  0
 11  1  1  0  0  0  0
 12 20  1  0  0  0  0
 13 12  1  0  0  0  0
 14 13  2  0  0  0  0
 15 14  1  0  0  0  0
 15 10  2  0  0  0  0
 16 19  1  0  0  0  0
 16 14  1  0  0  0  0
 17 10  1  0  0  0  0
 18 16  1  0  0  0  0
 20 23  1  0  0  0  0
 20 21  1  0  0  0  0
 20 22  1  0  0  0  0
 24 29  1  1  0  0  0
 24 28  1  0  0  0  0
 25  5  1  1  0  0  0
 25 24  1  0  0  0  0
 25 26  1  0  0  0  0
 26 27  1  0  0  0  0
 28 27  1  0  0  0  0
 28 31  1  1  0  0  0
 29 30  1  0  0  0  0
 32 31  1  0  0  0  0
M  END
>  <minimizedAffinity>
-6.4743886

$$$$

 OpenBabel03262520233D

 32 34  0  0  1  0  0  0  0  0999 V2000
   38.7610   25.6170   34.9400 C   0  0  0  0  0  0  0  0  0  0  0  0
   38.2570   26.6910   35.6920 C   0  0  0  0  0  0  0  0  0  0  0  0
   37.5000   27.7060   35.2190 C   0  0  0  0  0  0  0  0  0  0  0  0
   37.1630   27.7560   33.9190 C   0  0  0  0  0  0  0  0  0  0  0  0
   37.6440   26.7210   33.1660 C   0  0  0  0  0  0  0  0  0  0  0  0
   38.3750   25.7680   33.6970 N   0  0  0  0  0  0  0  0  0  0  0  0
   38.4750   26.7570   36.8000 H   0  0  0  0  0  0  0  0  0  0  0  0
   37.1400   28.5250   35.8940 H   0  0  0  0  0  0  0  0  0  0  0  0
   36.5830   28.4890   33.4300 H   0  0  0  0  0  0  0  0  0  0  0  0
   38.6900   23.8050   36.4560 C   0  0  0  0  0  0  0  0  0  0  0  0
   39.5300   24.5730   35.5920 C   0  0  0  0  0  0  0  0  0  0  0  0
   40.8440   24.1980   35.5100 C   0  0  0  0  0  0  0  0  0  0  0  0
   41.2330   23.1160   36.2660 N   0  0  0  0  0  0  0  0  0  0  0  0
   40.4430   22.4080   37.0650 C   0  0  0  0  0  0  0  0  0  0  0  0
   39.1550   22.7710   37.1510 N   0  0  0  0  0  0  0  0  0  0  0  0
   41.0270   21.3260   37.7320 N   0  0  0  0  0  0  0  0  0  0  0  0
   37.6460   23.9830   36.6190 H   0  0  0  0  0  0  0  0  0  0  0  0
   40.8680   20.2950   37.6880 H   0  0  0  0  0  0  0  0  0  0  0  0
   41.7530   21.6490   38.3860 H   0  0  0  0  0  0  0  0  0  0  0  0
   41.7560   24.9370   34.6400 C   0  0  0  0  0  0  0  0  0  0  0  0
   41.7160   26.2110   34.9630 F   0  0  0  0  0  0  0  0  0  0  0  0
   43.0600   24.4830   34.6660 F   0  0  0  0  0  0  0  0  0  0  0  0
   41.3550   24.8250   33.2780 F   0  0  0  0  0  0  0  0  0  0  0  0
   36.2120   27.0630   31.1260 C   0  0  2  0  0  3  0  0  0  0  0  0
   37.4570   26.4740   31.6790 C   0  0  2  0  0  3  0  0  0  0  0  0
   37.3620   25.0930   31.4460 O   0  0  0  0  0  0  0  0  0  0  0  0
   36.0640   24.7390   31.7530 C   0  0  0  0  0  2  0  0  0  0  0  0
   35.2380   25.8850   31.2670 C   0  0  2  0  0  3  0  0  0  0  0  0
   36.4120   27.3100   29.7450 O   0  0  0  0  0  0  0  0  0  0  0  0
   36.9610   26.5340   29.4230 H   0  0  0  0  0  0  0  0  0  0  0  0
   34.7080   25.5580   30.0030 O   0  0  0  0  0  0  0  0  0  0  0  0
   34.6750   26.3820   29.4740 H   0  0  0  0  0  0  0  0  0  0  0  0
  1 11  1  0  0  0  0
  1  2  1  0  0  0  0
  2  7  1  0  0  0  0
  3  2  2  0  0  0  0
  3  8  1  0  0  0  0
  4  3  1  0  0  0  0
  5  6  1  0  0  0  0
  5  4  2  0  0  0  0
  6  1  2  0  0  0  0
  9  4  1  0  0  0  0
 10 17  1  0  0  0  0
 10 15  1  0  0  0  0
 11 10  2  0  0  0  0
 12 11  1  0  0  0  0
 12 13  2  0  0  0  0
 13 14  1  0  0  0  0
 14 15  2  0  0  0  0
 14 16  1  0  0  0  0
 16 19  1  0  0  0  0
 18 16  1  0  0  0  0
 20 22  1  0  0  0  0
 20 21  1  0  0  0  0
 20 12  1  0  0  0  0
 23 20  1  0  0  0  0
 24 29  1  6  0  0  0
 24 28  1  0  0  0  0
 24 25  1  0  0  0  0
 25  5  1  1  0  0  0
 26 25  1  0  0  0  0
 26 27  1  0  0  0  0
 28 31  1  6  0  0  0
 28 27  1  0  0  0  0
 30 29  1  0  0  0  0
 32 31  1  0  0  0  0
M  END
>  <minimizedAffinity>
-6.43597984

$$$$

 OpenBabel03262520233D

 32 34  0  0  1  0  0  0  0  0999 V2000
   37.3130   25.1790   32.8480 C   0  0  0  0  0  0  0  0  0  0  0  0
   36.7600   24.0850   32.1620 C   0  0  0  0  0  0  0  0  0  0  0  0
   36.9460   22.7800   32.4640 C   0  0  0  0  0  0  0  0  0  0  0  0
   37.7200   22.4260   33.5030 C   0  0  0  0  0  0  0  0  0  0  0  0
   38.2710   23.4740   34.1870 C   0  0  0  0  0  0  0  0  0  0  0  0
   38.0440   24.7180   33.8340 N   0  0  0  0  0  0  0  0  0  0  0  0
   36.0900   24.2590   31.2670 H   0  0  0  0  0  0  0  0  0  0  0  0
   36.4640   21.9710   31.8580 H   0  0  0  0  0  0  0  0  0  0  0  0
   37.9420   21.4510   33.8390 H   0  0  0  0  0  0  0  0  0  0  0  0
   36.7530   26.5750   31.0250 C   0  0  0  0  0  0  0  0  0  0  0  0
   36.9940   26.5320   32.4340 C   0  0  0  0  0  0  0  0  0  0  0  0
   36.8640   27.7080   33.1210 C   0  0  0  0  0  0  0  0  0  0  0  0
   36.5130   28.8220   32.3940 N   0  0  0  0  0  0  0  0  0  0  0  0
   36.2900   28.8500   31.0840 C   0  0  0  0  0  0  0  0  0  0  0  0
   36.4170   27.7020   30.4050 N   0  0  0  0  0  0  0  0  0  0  0  0
   35.9190   30.0830   30.5350 N   0  0  0  0  0  0  0  0  0  0  0  0
   36.8180   25.7360   30.3630 H   0  0  0  0  0  0  0  0  0  0  0  0
   35.0500   30.4160   30.0630 H   0  0  0  0  0  0  0  0  0  0  0  0
   36.6780   30.7700   30.6340 H   0  0  0  0  0  0  0  0  0  0  0  0
   37.0900   27.7330   34.5650 C   0  0  0  0  0  0  0  0  0  0  0  0
   36.3400   26.8120   35.1300 F   0  0  0  0  0  0  0  0  0  0  0  0
   38.4090   27.5650   34.9370 F   0  0  0  0  0  0  0  0  0  0  0  0
   36.7110   28.9920   35.1130 F   0  0  0  0  0  0  0  0  0  0  0  0
   38.9150   22.2940   36.3140 C   0  0  2  0  0  3  0  0  0  0  0  0
   39.1890   23.4290   35.3970 C   0  0  2  0  0  3  0  0  0  0  0  0
   39.0050   24.5910   36.1610 O   0  0  0  0  0  0  0  0  0  0  0  0
   37.8660   24.3830   36.9140 C   0  0  0  0  0  2  0  0  0  0  0  0
   37.9340   22.9410   37.3010 C   0  0  2  0  0  3  0  0  0  0  0  0
   40.1100   21.9900   37.0130 O   0  0  0  0  0  0  0  0  0  0  0  0
   40.5360   22.8800   37.1920 H   0  0  0  0  0  0  0  0  0  0  0  0
   38.4490   22.8460   38.6090 O   0  0  0  0  0  0  0  0  0  0  0  0
   38.9900   22.0320   38.6550 H   0  0  0  0  0  0  0  0  0  0  0  0
  1  6  1  0  0  0  0
  2  3  1  0  0  0  0
  2  1  2  0  0  0  0
  3  4  2  0  0  0  0
  4  9  1  0  0  0  0
  4  5  1  0  0  0  0
  6  5  2  0  0  0  0
  7  2  1  0  0  0  0
  8  3  1  0  0  0  0
 10 11  1  0  0  0  0
 11  1  1  0  0  0  0
 11 12  2  0  0  0  0
 12 20  1  0  0  0  0
 13 12  1  0  0  0  0
 14 13  2  0  0  0  0
 15 10  2  0  0  0  0
 15 14  1  0  0  0  0
 16 19  1  0  0  0  0
 16 14  1  0  0  0  0
 17 10  1  0  0  0  0
 18 16  1  0  0  0  0
 20 22  1  0  0  0  0
 20 23  1  0  0  0  0
 20 21  1  0  0  0  0
 24 29  1  1  0  0  0
 24 28  1  0  0  0  0
 25  5  1  6  0  0  0
 25 26  1  0  0  0  0
 25 24  1  0  0  0  0
 26 27  1  0  0  0  0
 27 28  1  0  0  0  0
 28 31  1  1  0  0  0
 29 30  1  0  0  0  0
 31 32  1  0  0  0  0
M  END
>  <minimizedAffinity>
-6.26934242

$$$$

 OpenBabel03262520233D

 32 34  0  0  1  0  0  0  0  0999 V2000
   38.4920   25.5540   33.7180 C   0  0  0  0  0  0  0  0  0  0  0  0
   38.5580   26.8380   34.2850 C   0  0  0  0  0  0  0  0  0  0  0  0
   38.5060   27.1280   35.6050 C   0  0  0  0  0  0  0  0  0  0  0  0
   38.3780   26.1460   36.5120 C   0  0  0  0  0  0  0  0  0  0  0  0
   38.3090   24.8870   35.9850 C   0  0  0  0  0  0  0  0  0  0  0  0
   38.3670   24.6830   34.6890 N   0  0  0  0  0  0  0  0  0  0  0  0
   38.6670   27.7460   33.6180 H   0  0  0  0  0  0  0  0  0  0  0  0
   38.5660   28.1860   35.9680 H   0  0  0  0  0  0  0  0  0  0  0  0
   38.3250   26.2410   37.5620 H   0  0  0  0  0  0  0  0  0  0  0  0
   39.9610   25.5370   31.8660 C   0  0  0  0  0  0  0  0  0  0  0  0
   38.6010   25.3900   32.2810 C   0  0  0  0  0  0  0  0  0  0  0  0
   37.6830   25.1080   31.3050 C   0  0  0  0  0  0  0  0  0  0  0  0
   38.1530   24.9920   30.0180 N   0  0  0  0  0  0  0  0  0  0  0  0
   39.4210   25.1290   29.6450 C   0  0  0  0  0  0  0  0  0  0  0  0
   40.3250   25.4060   30.5940 N   0  0  0  0  0  0  0  0  0  0  0  0
   39.7010   24.9480   28.2850 N   0  0  0  0  0  0  0  0  0  0  0  0
   40.7830   25.7580   32.5170 H   0  0  0  0  0  0  0  0  0  0  0  0
   40.2720   24.2450   27.7660 H   0  0  0  0  0  0  0  0  0  0  0  0
   39.2350   25.6680   27.7180 H   0  0  0  0  0  0  0  0  0  0  0  0
   36.2750   24.9390   31.6610 C   0  0  0  0  0  0  0  0  0  0  0  0
   36.1410   23.8290   32.3540 F   0  0  0  0  0  0  0  0  0  0  0  0
   35.7330   26.0010   32.3570 F   0  0  0  0  0  0  0  0  0  0  0  0
   35.4710   24.8170   30.4920 F   0  0  0  0  0  0  0  0  0  0  0  0
   38.9960   23.4630   37.9420 C   0  0  2  0  0  3  0  0  0  0  0  0
   38.1610   23.5660   36.7200 C   0  0  2  0  0  3  0  0  0  0  0  0
   38.5780   22.5200   35.8830 O   0  0  0  0  0  0  0  0  0  0  0  0
   39.9570   22.4980   35.9510 C   0  0  0  0  0  2  0  0  0  0  0  0
   40.2650   22.8080   37.3800 C   0  0  2  0  0  3  0  0  0  0  0  0
   38.3780   22.5450   38.8280 O   0  0  0  0  0  0  0  0  0  0  0  0
   38.0070   21.8270   38.2330 H   0  0  0  0  0  0  0  0  0  0  0  0
   40.5140   21.6000   38.0630 O   0  0  0  0  0  0  0  0  0  0  0  0
   40.1720   21.7010   38.9740 H   0  0  0  0  0  0  0  0  0  0  0  0
  1  2  2  0  0  0  0
  1  6  1  0  0  0  0
  2  3  1  0  0  0  0
  3  8  1  0  0  0  0
  3  4  2  0  0  0  0
  4  9  1  0  0  0  0
  5  4  1  0  0  0  0
  6  5  2  0  0  0  0
  7  2  1  0  0  0  0
 10 11  1  0  0  0  0
 10 17  1  0  0  0  0
 11  1  1  0  0  0  0
 12 20  1  0  0  0  0
 12 11  2  0  0  0  0
 13 12  1  0  0  0  0
 14 13  2  0  0  0  0
 14 15  1  0  0  0  0
 15 10  2  0  0  0  0
 16 14  1  0  0  0  0
 18 16  1  0  0  0  0
 19 16  1  0  0  0  0
 20 21  1  0  0  0  0
 20 22  1  0  0  0  0
 23 20  1  0  0  0  0
 24 29  1  1  0  0  0
 25  5  1  6  0  0  0
 25 24  1  0  0  0  0
 26 27  1  0  0  0  0
 26 25  1  0  0  0  0
 27 28  1  0  0  0  0
 28 24  1  0  0  0  0
 28 31  1  1  0  0  0
 30 29  1  0  0  0  0
 31 32  1  0  0  0  0
M  END
>  <minimizedAffinity>
-6.23356581

$$$$

 OpenBabel03262520233D

 32 34  0  0  1  0  0  0  0  0999 V2000
   37.4070   22.6150   32.1930 C   0  0  0  0  0  0  0  0  0  0  0  0
   37.0430   23.8880   31.7220 C   0  0  0  0  0  0  0  0  0  0  0  0
   37.2970   25.0650   32.3350 C   0  0  0  0  0  0  0  0  0  0  0  0
   37.9530   25.0940   33.5070 C   0  0  0  0  0  0  0  0  0  0  0  0
   38.3170   23.8670   33.9870 C   0  0  0  0  0  0  0  0  0  0  0  0
   38.0350   22.7640   33.3340 N   0  0  0  0  0  0  0  0  0  0  0  0
   36.4840   23.9900   30.7420 H   0  0  0  0  0  0  0  0  0  0  0  0
   36.9670   26.0370   31.8840 H   0  0  0  0  0  0  0  0  0  0  0  0
   38.2100   25.9420   34.0810 H   0  0  0  0  0  0  0  0  0  0  0  0
   38.1260   21.2070   30.4360 C   0  0  0  0  0  0  0  0  0  0  0  0
   37.1010   21.4350   31.4060 C   0  0  0  0  0  0  0  0  0  0  0  0
   36.0710   20.5350   31.4430 C   0  0  0  0  0  0  0  0  0  0  0  0
   36.1180   19.4940   30.5450 N   0  0  0  0  0  0  0  0  0  0  0  0
   37.0770   19.2900   29.6490 C   0  0  0  0  0  0  0  0  0  0  0  0
   38.0880   20.1690   29.6060 N   0  0  0  0  0  0  0  0  0  0  0  0
   36.9540   18.1550   28.8400 N   0  0  0  0  0  0  0  0  0  0  0  0
   38.9880   21.8270   30.2930 H   0  0  0  0  0  0  0  0  0  0  0  0
   37.5300   17.2910   28.7370 H   0  0  0  0  0  0  0  0  0  0  0  0
   36.1180   18.2220   28.2430 H   0  0  0  0  0  0  0  0  0  0  0  0
   34.9930   20.7060   32.4150 C   0  0  0  0  0  0  0  0  0  0  0  0
   33.9810   19.9400   32.0690 F   0  0  0  0  0  0  0  0  0  0  0  0
   35.3580   20.4480   33.7210 F   0  0  0  0  0  0  0  0  0  0  0  0
   34.5300   22.0530   32.4220 F   0  0  0  0  0  0  0  0  0  0  0  0
   38.5130   22.3710   36.0010 C   0  0  2  0  0  3  0  0  0  0  0  0
   39.0590   23.5430   35.2720 C   0  0  2  0  0  3  0  0  0  0  0  0
   38.9500   24.6280   36.1570 O   0  0  0  0  0  0  0  0  0  0  0  0
   37.7080   24.5190   36.7490 C   0  0  0  0  0  2  0  0  0  0  0  0
   37.5180   23.0510   36.9520 C   0  0  2  0  0  3  0  0  0  0  0  0
   39.5540   21.8060   36.7780 O   0  0  0  0  0  0  0  0  0  0  0  0
   40.0770   22.5930   37.1150 H   0  0  0  0  0  0  0  0  0  0  0  0
   37.8460   22.7310   38.2850 O   0  0  0  0  0  0  0  0  0  0  0  0
   38.2540   21.8410   38.2820 H   0  0  0  0  0  0  0  0  0  0  0  0
  1  6  1  0  0  0  0
  2  1  2  0  0  0  0
  2  3  1  0  0  0  0
  3  4  2  0  0  0  0
  4  5  1  0  0  0  0
  4  9  1  0  0  0  0
  6  5  2  0  0  0  0
  7  2  1  0  0  0  0
  8  3  1  0  0  0  0
 10 11  1  0  0  0  0
 11 12  2  0  0  0  0
 11  1  1  0  0  0  0
 12 20  1  0  0  0  0
 13 12  1  0  0  0  0
 14 13  2  0  0  0  0
 15 14  1  0  0  0  0
 15 10  2  0  0  0  0
 16 14  1  0  0  0  0
 17 10  1  0  0  0  0
 18 16  1  0  0  0  0
 19 16  1  0  0  0  0
 20 23  1  0  0  0  0
 20 22  1  0  0  0  0
 21 20  1  0  0  0  0
 24 29  1  1  0  0  0
 24 28  1  0  0  0  0
 25  5  1  6  0  0  0
 25 24  1  0  0  0  0
 25 26  1  0  0  0  0
 26 27  1  0  0  0  0
 27 28  1  0  0  0  0
 28 31  1  1  0  0  0
 29 30  1  0  0  0  0
 32 31  1  0  0  0  0
M  END
>  <minimizedAffinity>
-6.20367098

$$$$

 OpenBabel03262520233D

 32 34  0  0  1  0  0  0  0  0999 V2000
   38.1890   25.3610   33.4310 C   0  0  0  0  0  0  0  0  0  0  0  0
   39.4910   25.4330   32.9080 C   0  0  0  0  0  0  0  0  0  0  0  0
   40.5130   24.6000   33.2030 C   0  0  0  0  0  0  0  0  0  0  0  0
   40.3380   23.5880   34.0700 C   0  0  0  0  0  0  0  0  0  0  0  0
   39.0780   23.4980   34.5940 C   0  0  0  0  0  0  0  0  0  0  0  0
   38.1340   24.3460   34.2580 N   0  0  0  0  0  0  0  0  0  0  0  0
   39.7590   26.2460   32.1670 H   0  0  0  0  0  0  0  0  0  0  0  0
   41.5230   24.7330   32.7370 H   0  0  0  0  0  0  0  0  0  0  0  0
   41.0500   22.8750   34.3810 H   0  0  0  0  0  0  0  0  0  0  0  0
   37.2560   27.5090   33.7590 C   0  0  0  0  0  0  0  0  0  0  0  0
   37.1780   26.3050   32.9920 C   0  0  0  0  0  0  0  0  0  0  0  0
   36.2280   26.2580   32.0070 C   0  0  0  0  0  0  0  0  0  0  0  0
   35.4380   27.3730   31.8460 N   0  0  0  0  0  0  0  0  0  0  0  0
   35.5220   28.4880   32.5640 C   0  0  0  0  0  0  0  0  0  0  0  0
   36.4480   28.5400   33.5310 N   0  0  0  0  0  0  0  0  0  0  0  0
   34.6410   29.5210   32.2280 N   0  0  0  0  0  0  0  0  0  0  0  0
   37.9460   27.6860   34.5580 H   0  0  0  0  0  0  0  0  0  0  0  0
   34.7870   30.4860   31.8570 H   0  0  0  0  0  0  0  0  0  0  0  0
   33.6650   29.2370   32.3910 H   0  0  0  0  0  0  0  0  0  0  0  0
   36.0980   25.0590   31.1820 C   0  0  0  0  0  0  0  0  0  0  0  0
   35.1100   25.2310   30.3310 F   0  0  0  0  0  0  0  0  0  0  0  0
   37.2500   24.7060   30.5060 F   0  0  0  0  0  0  0  0  0  0  0  0
   35.7820   23.9250   31.9850 F   0  0  0  0  0  0  0  0  0  0  0  0
   37.6990   23.0810   36.6560 C   0  0  2  0  0  3  0  0  0  0  0  0
   38.5460   22.4850   35.5930 C   0  0  2  0  0  3  0  0  0  0  0  0
   39.6240   21.8810   36.2590 O   0  0  0  0  0  0  0  0  0  0  0  0
   40.0180   22.7670   37.2400 C   0  0  0  0  0  2  0  0  0  0  0  0
   38.7410   23.3530   37.7490 C   0  0  2  0  0  3  0  0  0  0  0  0
   36.8110   22.0830   37.1280 O   0  0  0  0  0  0  0  0  0  0  0  0
   37.3520   21.2380   37.1280 H   0  0  0  0  0  0  0  0  0  0  0  0
   38.3720   22.6790   38.9300 O   0  0  0  0  0  0  0  0  0  0  0  0
   37.3940   22.6290   38.9480 H   0  0  0  0  0  0  0  0  0  0  0  0
  1  6  1  0  0  0  0
  2  3  1  0  0  0  0
  2  1  2  0  0  0  0
  3  4  2  0  0  0  0
  4  9  1  0  0  0  0
  4  5  1  0  0  0  0
  6  5  2  0  0  0  0
  7  2  1  0  0  0  0
  8  3  1  0  0  0  0
 10 17  1  0  0  0  0
 11  1  1  0  0  0  0
 11 10  2  0  0  0  0
 12 11  1  0  0  0  0
 13 12  2  0  0  0  0
 13 14  1  0  0  0  0
 14 15  2  0  0  0  0
 15 10  1  0  0  0  0
 16 19  1  0  0  0  0
 16 14  1  0  0  0  0
 18 16  1  0  0  0  0
 20 23  1  0  0  0  0
 20 12  1  0  0  0  0
 21 20  1  0  0  0  0
 22 20  1  0  0  0  0
 24 29  1  1  0  0  0
 24 28  1  0  0  0  0
 25  5  1  6  0  0  0
 25 26  1  0  0  0  0
 25 24  1  0  0  0  0
 26 27  1  0  0  0  0
 27 28  1  0  0  0  0
 28 31  1  1  0  0  0
 29 30  1  0  0  0  0
 31 32  1  0  0  0  0
M  END
>  <minimizedAffinity>
-6.1954422

$$$$

 OpenBabel03262520233D

 32 34  0  0  1  0  0  0  0  0999 V2000
   39.3110   25.8720   34.5660 C   0  0  0  0  0  0  0  0  0  0  0  0
   38.6270   26.7210   35.4520 C   0  0  0  0  0  0  0  0  0  0  0  0
   37.5950   27.5350   35.1370 C   0  0  0  0  0  0  0  0  0  0  0  0
   37.1290   27.5860   33.8780 C   0  0  0  0  0  0  0  0  0  0  0  0
   37.7800   26.7690   32.9960 C   0  0  0  0  0  0  0  0  0  0  0  0
   38.7770   26.0050   33.3760 N   0  0  0  0  0  0  0  0  0  0  0  0
   38.9310   26.7640   36.5420 H   0  0  0  0  0  0  0  0  0  0  0  0
   37.1080   28.1810   35.9130 H   0  0  0  0  0  0  0  0  0  0  0  0
   36.3360   28.1750   33.5070 H   0  0  0  0  0  0  0  0  0  0  0  0
   41.6470   25.6520   34.8520 C   0  0  0  0  0  0  0  0  0  0  0  0
   40.3800   25.0220   35.0560 C   0  0  0  0  0  0  0  0  0  0  0  0
   40.3870   23.7980   35.6680 C   0  0  0  0  0  0  0  0  0  0  0  0
   41.6120   23.2880   36.0330 N   0  0  0  0  0  0  0  0  0  0  0  0
   42.7840   23.8840   35.8400 C   0  0  0  0  0  0  0  0  0  0  0  0
   42.7840   25.0820   35.2400 N   0  0  0  0  0  0  0  0  0  0  0  0
   43.9180   23.2090   36.3060 N   0  0  0  0  0  0  0  0  0  0  0  0
   41.7930   26.6050   34.3870 H   0  0  0  0  0  0  0  0  0  0  0  0
   44.6250   23.4330   37.0410 H   0  0  0  0  0  0  0  0  0  0  0  0
   44.0470   22.3210   35.8020 H   0  0  0  0  0  0  0  0  0  0  0  0
   39.1250   23.1020   35.9120 C   0  0  0  0  0  0  0  0  0  0  0  0
   39.3840   21.8700   36.2950 F   0  0  0  0  0  0  0  0  0  0  0  0
   38.3030   23.7210   36.8320 F   0  0  0  0  0  0  0  0  0  0  0  0
   38.3520   23.0270   34.7180 F   0  0  0  0  0  0  0  0  0  0  0  0
   36.2150   27.1460   31.0620 C   0  0  2  0  0  3  0  0  0  0  0  0
   37.5140   26.5880   31.5110 C   0  0  2  0  0  3  0  0  0  0  0  0
   37.4650   25.2170   31.2130 O   0  0  0  0  0  0  0  0  0  0  0  0
   36.2030   24.7890   31.5760 C   0  0  0  0  0  2  0  0  0  0  0  0
   35.3020   25.9190   31.1980 C   0  0  2  0  0  3  0  0  0  0  0  0
   36.3210   27.4700   29.6870 O   0  0  0  0  0  0  0  0  0  0  0  0
   36.8820   26.7370   29.2940 H   0  0  0  0  0  0  0  0  0  0  0  0
   34.7120   25.6310   29.9510 O   0  0  0  0  0  0  0  0  0  0  0  0
   34.6120   26.4770   29.4690 H   0  0  0  0  0  0  0  0  0  0  0  0
  1 11  1  0  0  0  0
  1  2  1  0  0  0  0
  2  7  1  0  0  0  0
  3  2  2  0  0  0  0
  3  8  1  0  0  0  0
  4  3  1  0  0  0  0
  5  6  1  0  0  0  0
  5  4  2  0  0  0  0
  6  1  2  0  0  0  0
  9  4  1  0  0  0  0
 10 11  2  0  0  0  0
 10 15  1  0  0  0  0
 11 12  1  0  0  0  0
 12 20  1  0  0  0  0
 12 13  2  0  0  0  0
 14 13  1  0  0  0  0
 14 16  1  0  0  0  0
 15 14  2  0  0  0  0
 16 18  1  0  0  0  0
 17 10  1  0  0  0  0
 19 16  1  0  0  0  0
 20 21  1  0  0  0  0
 20 22  1  0  0  0  0
 23 20  1  0  0  0  0
 24 29  1  6  0  0  0
 24 28  1  0  0  0  0
 24 25  1  0  0  0  0
 25  5  1  1  0  0  0
 26 25  1  0  0  0  0
 26 27  1  0  0  0  0
 28 31  1  6  0  0  0
 28 27  1  0  0  0  0
 30 29  1  0  0  0  0
 32 31  1  0  0  0  0
M  END
>  <minimizedAffinity>
-6.10907316

$$$$
