
 OpenBabel03272506343D

 19 20  0  0  1  0  0  0  0  0999 V2000
   37.4030   29.8990   50.9630 C   0  0  0  0  0  0  0  0  0  0  0  0
   37.9700   30.9850   50.2950 C   0  0  0  0  0  0  0  0  0  0  0  0
   37.5320   31.2620   49.0040 C   0  0  0  0  0  0  0  0  0  0  0  0
   36.5790   30.4630   48.4640 N   0  0  0  0  0  0  0  0  0  0  0  0
   36.0440   29.4100   49.1410 C   0  0  0  0  0  0  0  0  0  0  0  0
   36.4610   29.1440   50.3730 N   0  0  0  0  0  0  0  0  0  0  0  0
   38.7330   31.6510   50.6870 H   0  0  0  0  0  0  0  0  0  0  0  0
   37.9140   32.0690   48.4310 H   0  0  0  0  0  0  0  0  0  0  0  0
   34.2140   29.3190   47.4380 C   0  0  1  0  0  3  0  0  0  0  0  0
   35.0170   28.5870   48.4960 C   0  0  2  0  0  3  0  0  0  0  0  0
   34.0990   28.0150   49.3660 O   0  0  0  0  0  0  0  0  0  0  0  0
   32.8380   28.0990   48.7920 C   0  0  0  0  0  2  0  0  0  0  0  0
   33.0910   28.2790   47.2880 C   0  0  2  0  0  3  0  0  0  0  0  0
   33.6030   30.4590   47.9140 O   0  0  0  0  0  0  0  0  0  0  0  0
   34.2110   31.0530   48.4210 H   0  0  0  0  0  0  0  0  0  0  0  0
   33.5700   27.0700   46.8210 O   0  0  0  0  0  0  0  0  0  0  0  0
   33.9860   27.1160   45.9330 H   0  0  0  0  0  0  0  0  0  0  0  0
   37.9370   29.7420   52.2460 O   0  0  0  0  0  0  0  0  0  0  0  0
   38.4770   28.8990   52.3900 H   0  0  0  0  0  0  0  0  0  0  0  0
  1 18  1  0  0  0  0
  2  7  1  0  0  0  0
  2  1  2  0  0  0  0
  3  2  1  0  0  0  0
  4  3  2  0  0  0  0
  4  5  1  0  0  0  0
  5  6  2  0  0  0  0
  6  1  1  0  0  0  0
  8  3  1  0  0  0  0
  9 14  1  1  0  0  0
  9 10  1  0  0  0  0
 10  5  1  1  0  0  0
 10 11  1  0  0  0  0
 12 11  1  0  0  0  0
 13 16  1  1  0  0  0
 13  9  1  0  0  0  0
 13 12  1  0  0  0  0
 14 15  1  0  0  0  0
 17 16  1  0  0  0  0
 18 19  1  0  0  0  0
M  END
>  <minimizedAffinity>
-4.86808062

>  <minimizedRMSD>
1.8751173

$$$$
