
 OpenBabel03272509503D

 33 35  0  0  1  0  0  0  0  0999 V2000
   37.1670   30.1820   51.3500 C   0  0  0  0  0  0  0  0  0  0  0  0
   37.6410   30.9000   50.2420 C   0  0  0  0  0  0  0  0  0  0  0  0
   37.0280   30.6900   49.0200 C   0  0  0  0  0  0  0  0  0  0  0  0
   35.9990   29.8020   48.9500 N   0  0  0  0  0  0  0  0  0  0  0  0
   35.5610   29.1230   50.0310 C   0  0  0  0  0  0  0  0  0  0  0  0
   36.1620   29.3300   51.2220 N   0  0  0  0  0  0  0  0  0  0  0  0
   37.6750   30.3780   52.2830 H   0  0  0  0  0  0  0  0  0  0  0  0
   38.4570   31.6020   50.3050 H   0  0  0  0  0  0  0  0  0  0  0  0
   38.8590   31.9280   47.8550 C   0  0  1  0  0  3  0  0  0  0  0  0
   37.4610   31.4110   47.7700 C   0  0  1  0  0  3  0  0  0  0  0  0
   37.5170   30.4570   46.7360 O   0  0  0  0  0  0  0  0  0  0  0  0
   38.1550   31.1130   45.7030 C   0  0  0  0  0  2  0  0  0  0  0  0
   39.2800   31.8540   46.3830 C   0  0  2  0  0  3  0  0  0  0  0  0
   38.7890   33.2710   48.2060 O   0  0  0  0  0  0  0  0  0  0  0  0
   37.9750   33.6480   47.7530 H   0  0  0  0  0  0  0  0  0  0  0  0
   40.4530   31.1530   46.2250 O   0  0  0  0  0  0  0  0  0  0  0  0
   41.1710   31.5460   46.7930 H   0  0  0  0  0  0  0  0  0  0  0  0
   34.5250   28.2810   49.7610 O   0  0  0  0  0  0  0  0  0  0  0  0
   33.7280   28.5600   48.6030 C   0  0  0  0  0  0  0  0  0  0  0  0
   34.3420   28.8670   47.7530 H   0  0  0  0  0  0  0  0  0  0  0  0
   33.0790   29.4170   48.9310 H   0  0  0  0  0  0  0  0  0  0  0  0
   32.7890   27.4170   48.3360 C   0  0  0  0  0  0  0  0  0  0  0  0
   32.9730   27.0380   47.3110 H   0  0  0  0  0  0  0  0  0  0  0  0
   32.9540   26.5610   49.0210 H   0  0  0  0  0  0  0  0  0  0  0  0
   31.3630   27.8470   48.3440 C   0  0  0  0  0  0  0  0  0  0  0  0
   30.6870   27.7320   49.5330 C   0  0  0  0  0  0  0  0  0  0  0  0
   29.3550   28.1020   49.6530 C   0  0  0  0  0  0  0  0  0  0  0  0
   28.7230   28.5820   48.5820 N   0  0  0  0  0  0  0  0  0  0  0  0
   29.3970   28.6920   47.4150 C   0  0  0  0  0  0  0  0  0  0  0  0
   30.6880   28.3360   47.2850 N   0  0  0  0  0  0  0  0  0  0  0  0
   31.1780   27.3450   50.4170 H   0  0  0  0  0  0  0  0  0  0  0  0
   28.8550   27.9960   50.6110 H   0  0  0  0  0  0  0  0  0  0  0  0
   28.8290   29.0860   46.5900 H   0  0  0  0  0  0  0  0  0  0  0  0
  1  7  1  0  0  0  0
  2  8  1  0  0  0  0
  2  1  2  0  0  0  0
  3  2  1  0  0  0  0
  4  3  2  0  0  0  0
  4  5  1  0  0  0  0
  5  6  2  0  0  0  0
  6  1  1  0  0  0  0
  9 14  1  6  0  0  0
 10  9  1  0  0  0  0
 10  3  1  1  0  0  0
 11 10  1  0  0  0  0
 12 13  1  0  0  0  0
 12 11  1  0  0  0  0
 13 16  1  1  0  0  0
 13  9  1  0  0  0  0
 15 14  1  0  0  0  0
 16 17  1  0  0  0  0
 18  5  1  0  0  0  0
 19 21  1  0  0  0  0
 19 18  1  0  0  0  0
 20 19  1  0  0  0  0
 22 25  1  0  0  0  0
 22 19  1  0  0  0  0
 22 24  1  0  0  0  0
 23 22  1  0  0  0  0
 25 26  1  0  0  0  0
 26 27  2  0  0  0  0
 26 31  1  0  0  0  0
 27 32  1  0  0  0  0
 28 27  1  0  0  0  0
 29 28  2  0  0  0  0
 30 29  1  0  0  0  0
 30 25  2  0  0  0  0
 33 29  1  0  0  0  0
M  END
>  <minimizedAffinity>
-6.02466154

>  <minimizedRMSD>
0.720394015

$$$$
