
 OpenBabel03272501423D

 31 34  0  0  1  0  0  0  0  0999 V2000
   35.7140   29.3500   49.4250 C   0  0  0  0  0  0  0  0  0  0  0  0
   35.7260   30.2840   48.3720 C   0  0  0  0  0  0  0  0  0  0  0  0
   34.7640   30.1520   47.3880 C   0  0  0  0  0  0  0  0  0  0  0  0
   33.8720   29.1350   47.4970 N   0  0  0  0  0  0  0  0  0  0  0  0
   33.8790   28.2540   48.5120 C   0  0  0  0  0  0  0  0  0  0  0  0
   34.8080   28.3690   49.4760 N   0  0  0  0  0  0  0  0  0  0  0  0
   36.4330   29.3770   50.2430 H   0  0  0  0  0  0  0  0  0  0  0  0
   34.8180   30.8810   46.6190 H   0  0  0  0  0  0  0  0  0  0  0  0
   36.9690   31.9290   49.6820 C   0  0  0  0  0  0  0  0  0  0  0  0
   36.7790   31.2830   48.4740 C   0  0  0  0  0  0  0  0  0  0  0  0
   37.6220   31.6500   47.4420 C   0  0  0  0  0  0  0  0  0  0  0  0
   38.6020   32.6180   47.6340 C   0  0  0  0  0  0  0  0  0  0  0  0
   39.5380   33.1600   46.8390 N   0  0  0  0  0  0  0  0  0  0  0  0
   40.2340   34.0670   47.5340 C   0  0  0  0  0  0  0  0  0  0  0  0
   39.7520   34.1290   48.8160 N   0  0  0  0  0  0  0  0  0  0  0  0
   38.7510   33.2350   48.8670 C   0  0  0  0  0  0  0  0  0  0  0  0
   37.9300   32.8900   49.8980 C   0  0  0  0  0  0  0  0  0  0  0  0
   36.3330   31.6760   50.5160 H   0  0  0  0  0  0  0  0  0  0  0  0
   37.4940   31.1600   46.4870 H   0  0  0  0  0  0  0  0  0  0  0  0
   39.6480   32.8670   45.8290 H   0  0  0  0  0  0  0  0  0  0  0  0
   41.0500   34.6280   47.0690 H   0  0  0  0  0  0  0  0  0  0  0  0
   38.0370   33.3610   50.8550 H   0  0  0  0  0  0  0  0  0  0  0  0
   31.4980   27.7320   48.0830 C   0  0  1  0  0  0  0  0  0  0  0  0
   32.8470   27.1850   48.5140 C   0  0  1  0  0  0  0  0  0  0  0  0
   33.1170   26.1510   47.6450 O   0  0  0  0  0  0  0  0  0  0  0  0
   31.8800   25.4710   47.6420 C   0  0  0  0  0  0  0  0  0  0  0  0
   30.9560   26.5950   47.2190 C   0  0  2  0  0  0  0  0  0  0  0  0
   30.6710   27.8510   49.2050 O   0  0  0  0  0  0  0  0  0  0  0  0
   31.0530   28.4830   49.8580 H   0  0  0  0  0  0  0  0  0  0  0  0
   31.1480   26.8730   45.8600 O   0  0  0  0  0  0  0  0  0  0  0  0
   32.0730   26.6050   45.6190 H   0  0  0  0  0  0  0  0  0  0  0  0
  1  6  1  0  0  0  0
  1  7  1  0  0  0  0
  2 10  1  0  0  0  0
  2  1  2  0  0  0  0
  3  4  2  0  0  0  0
  3  2  1  0  0  0  0
  4  5  1  0  0  0  0
  5  6  2  0  0  0  0
  8  3  1  0  0  0  0
  9 17  1  0  0  0  0
  9 18  1  0  0  0  0
 10  9  2  0  0  0  0
 11 12  2  0  0  0  0
 11 10  1  0  0  0  0
 12 16  1  0  0  0  0
 13 14  1  0  0  0  0
 13 12  1  0  0  0  0
 14 15  2  0  0  0  0
 15 16  1  0  0  0  0
 16 17  2  0  0  0  0
 17 22  1  0  0  0  0
 19 11  1  0  0  0  0
 20 13  1  0  0  0  0
 21 14  1  0  0  0  0
 23 24  1  0  0  0  0
 23 28  1  1  0  0  0
 24  5  1  6  0  0  0
 25 24  1  0  0  0  0
 26 25  1  0  0  0  0
 27 30  1  6  0  0  0
 27 26  1  0  0  0  0
 27 23  1  0  0  0  0
 28 29  1  0  0  0  0
 31 30  1  0  0  0  0
M  END
>  <minimizedAffinity>
-6.04616642

>  <minimizedRMSD>
1.92690718

$$$$
