REMARK  Name = 
REMARK  6 active torsions:
REMARK  status: ('A' for Active; 'I' for Inactive)
REMARK    1  A    between atoms: C_1  and  C_6
REMARK    2  A    between atoms: N_4  and  C_16
REMARK    3  A    between atoms: C_8  and  C_12
REMARK    4  A    between atoms: C_19  and  C_29
REMARK    5  A    between atoms: O_27  and  C_28
REMARK    6  A    between atoms: C_32  and  O_33
REMARK                            x       y       z     vdW  Elec       q    Type
REMARK                         _______ _______ _______ _____ _____    ______ ____
ROOT
ATOM      1  C   UNL     1      38.914  30.898  45.775  0.00  0.00    +0.000 A 
ATOM      2  C   UNL     1      40.112  31.510  46.026  0.00  0.00    +0.000 A 
ATOM      3  C   UNL     1      40.942  31.447  44.916  0.00  0.00    +0.000 A 
ATOM      4  N   UNL     1      40.185  30.773  44.001  0.00  0.00    +0.000 N 
ATOM      5  N   UNL     1      39.012  30.455  44.498  0.00  0.00    +0.000 NA
ATOM      6  H   UNL     1      40.415  31.992  46.952  0.00  0.00    +0.000 HD
ATOM      7  H   UNL     1      41.938  31.812  44.745  0.00  0.00    +0.000 HD
ENDROOT
BRANCH   1   8
ATOM      8  C   UNL     1      37.779  30.745  46.665  0.00  0.00    +0.000 A 
ATOM      9  C   UNL     1      38.001  30.978  48.049  0.00  0.00    +0.000 A 
ATOM     10  C   UNL     1      36.919  30.834  48.913  0.00  0.00    +0.000 A 
ATOM     11  N   UNL     1      35.722  30.480  48.383  0.00  0.00    +0.000 NA
ATOM     12  C   UNL     1      35.539  30.264  47.059  0.00  0.00    +0.000 A 
ATOM     13  N   UNL     1      36.580  30.401  46.213  0.00  0.00    +0.000 NA
ATOM     14  H   UNL     1      38.952  31.260  48.472  0.00  0.00    +0.000 HD
ATOM     15  H   UNL     1      34.551  29.981  46.685  0.00  0.00    +0.000 HD
BRANCH  10  16
ATOM     16  C   UNL     1      37.137  31.076  50.374  0.00  0.00    +0.000 C 
ATOM     17  F   UNL     1      36.601  32.309  50.624  0.00  0.00    +0.000 F 
ATOM     18  F   UNL     1      36.472  30.131  51.158  0.00  0.00    +0.000 F 
ATOM     19  F   UNL     1      38.484  31.075  50.704  0.00  0.00    +0.000 F 
ENDBRANCH  10  16
ENDBRANCH   1   8
BRANCH   4  20
ATOM     20  C   UNL     1      40.547  30.416  42.635  0.00  0.00    +0.000 A 
ATOM     21  C   UNL     1      40.179  31.231  41.551  0.00  0.00    +0.000 A 
ATOM     22  C   UNL     1      40.559  30.846  40.299  0.00  0.00    +0.000 A 
ATOM     23  C   UNL     1      41.308  29.643  40.124  0.00  0.00    +0.000 A 
ATOM     24  S   UNL     1      41.470  29.040  41.868  0.00  0.00    +0.000 S 
ATOM     25  H   UNL     1      39.612  32.146  41.644  0.00  0.00    +0.000 HD
ATOM     26  H   UNL     1      40.379  31.325  39.350  0.00  0.00    +0.000 HD
BRANCH  23  28
ATOM     27  C   UNL     1      43.316  29.245  38.870  0.00  0.00    +0.000 C 
ATOM     28  C   UNL     1      41.864  28.929  39.059  0.00  0.00    +0.000 C 
ATOM     29  O   UNL     1      41.888  27.548  39.369  0.00  0.00    +0.000 OA
ATOM     30  C   UNL     1      42.659  26.993  38.345  0.00  0.00    +0.000 C 
ATOM     31  C   UNL     1      43.821  27.939  38.249  0.00  0.00    +0.000 C 
BRANCH  27  32
ATOM     32  O   UNL     1      43.907  29.358  40.123  0.00  0.00    +0.000 OA
ATOM     33  H   UNL     1      44.744  29.887  40.107  0.00  0.00    +0.000 HD
ENDBRANCH  27  32
BRANCH  31  34
ATOM     34  O   UNL     1      44.961  27.468  38.874  0.00  0.00    +0.000 OA
ATOM     35  H   UNL     1      44.812  26.726  39.502  0.00  0.00    +0.000 HD
ENDBRANCH  31  34
ENDBRANCH  23  28
ENDBRANCH   4  20
TORSDOF 6
