
 OpenBabel03272507093D

 27 29  0  0  1  0  0  0  0  0999 V2000
   35.3680   29.5010   48.8940 C   0  0  0  0  0  0  0  0  0  0  0  0
   34.6430   30.3140   48.0660 C   0  0  0  0  0  0  0  0  0  0  0  0
   33.7310   29.4910   47.3910 C   0  0  0  0  0  0  0  0  0  0  0  0
   33.9740   28.2020   47.8700 C   0  0  0  0  0  0  0  0  0  0  0  0
   34.9410   28.2650   48.7470 O   0  0  0  0  0  0  0  0  0  0  0  0
   34.6440   31.3780   47.8570 H   0  0  0  0  0  0  0  0  0  0  0  0
   32.9530   29.6440   46.6460 H   0  0  0  0  0  0  0  0  0  0  0  0
   32.9320   26.7220   46.1410 C   0  0  2  0  0  3  0  0  0  0  0  0
   33.3760   26.9010   47.5790 C   0  0  2  0  0  3  0  0  0  0  0  0
   32.1870   26.6610   48.2650 O   0  0  0  0  0  0  0  0  0  0  0  0
   31.6560   25.5320   47.6970 C   0  0  0  0  0  2  0  0  0  0  0  0
   32.1920   25.3920   46.2940 C   0  0  2  0  0  3  0  0  0  0  0  0
   34.0980   26.5570   45.3990 O   0  0  0  0  0  0  0  0  0  0  0  0
   34.6100   27.4040   45.4940 H   0  0  0  0  0  0  0  0  0  0  0  0
   33.1960   24.4030   46.3060 O   0  0  0  0  0  0  0  0  0  0  0  0
   33.3150   24.0260   47.2350 H   0  0  0  0  0  0  0  0  0  0  0  0
   36.4190   30.0210   49.7570 C   0  0  0  0  0  0  0  0  0  0  0  0
   36.5130   29.5870   50.9200 O   0  0  0  0  0  0  0  0  0  0  0  0
   37.3010   31.0210   49.1990 C   0  0  0  0  0  0  0  0  0  0  0  0
   37.3000   32.2700   49.8150 C   0  0  0  0  0  0  0  0  0  0  0  0
   38.1420   33.2570   49.2970 C   0  0  0  0  0  0  0  0  0  0  0  0
   38.9180   32.9470   48.2200 N   0  0  0  0  0  0  0  0  0  0  0  0
   38.9020   31.7320   47.6430 C   0  0  0  0  0  0  0  0  0  0  0  0
   38.0940   30.7690   48.1320 N   0  0  0  0  0  0  0  0  0  0  0  0
   36.7240   32.5800   50.6530 H   0  0  0  0  0  0  0  0  0  0  0  0
   38.1870   34.2570   49.7350 H   0  0  0  0  0  0  0  0  0  0  0  0
   39.5080   31.4660   46.7900 H   0  0  0  0  0  0  0  0  0  0  0  0
  1 17  1  0  0  0  0
  2  1  2  0  0  0  0
  3  4  2  0  0  0  0
  3  2  1  0  0  0  0
  4  5  1  0  0  0  0
  5  1  1  0  0  0  0
  6  2  1  0  0  0  0
  7  3  1  0  0  0  0
  8 13  1  6  0  0  0
  8 12  1  0  0  0  0
  8  9  1  0  0  0  0
  9  4  1  6  0  0  0
  9 10  1  0  0  0  0
 11 10  1  0  0  0  0
 12 15  1  1  0  0  0
 12 11  1  0  0  0  0
 13 14  1  0  0  0  0
 15 16  1  0  0  0  0
 17 18  2  0  0  0  0
 19 17  1  0  0  0  0
 19 20  1  0  0  0  0
 20 25  1  0  0  0  0
 21 26  1  0  0  0  0
 21 20  2  0  0  0  0
 22 21  1  0  0  0  0
 23 24  1  0  0  0  0
 23 22  2  0  0  0  0
 24 19  2  0  0  0  0
 27 23  1  0  0  0  0
M  END
>  <minimizedAffinity>
-4.90826941

>  <minimizedRMSD>
1.42349768

$$$$
