
 OpenBabel03272509503D

 33 35  0  0  1  0  0  0  0  0999 V2000
   37.3310   30.4410   50.9800 C   0  0  0  0  0  0  0  0  0  0  0  0
   38.1840   30.9830   50.0080 C   0  0  0  0  0  0  0  0  0  0  0  0
   37.9510   30.6580   48.6830 C   0  0  0  0  0  0  0  0  0  0  0  0
   36.9100   29.8330   48.3890 N   0  0  0  0  0  0  0  0  0  0  0  0
   36.1040   29.3230   49.3420 C   0  0  0  0  0  0  0  0  0  0  0  0
   36.3350   29.6430   50.6340 N   0  0  0  0  0  0  0  0  0  0  0  0
   37.5510   30.7220   52.0000 H   0  0  0  0  0  0  0  0  0  0  0  0
   39.0070   31.6360   50.2500 H   0  0  0  0  0  0  0  0  0  0  0  0
   38.1720   31.0260   46.2220 C   0  0  1  0  0  3  0  0  0  0  0  0
   38.8090   31.1870   47.5640 C   0  0  1  0  0  3  0  0  0  0  0  0
   38.8940   32.5830   47.7270 O   0  0  0  0  0  0  0  0  0  0  0  0
   39.4610   33.0290   46.5520 C   0  0  0  0  0  2  0  0  0  0  0  0
   38.7540   32.2350   45.4820 C   0  0  2  0  0  3  0  0  0  0  0  0
   38.7030   29.8810   45.6410 O   0  0  0  0  0  0  0  0  0  0  0  0
   39.6670   29.8320   45.9210 H   0  0  0  0  0  0  0  0  0  0  0  0
   37.7680   33.0070   44.9150 O   0  0  0  0  0  0  0  0  0  0  0  0
   37.1940   32.4520   44.3170 H   0  0  0  0  0  0  0  0  0  0  0  0
   35.1200   28.5200   48.8510 O   0  0  0  0  0  0  0  0  0  0  0  0
   34.2690   29.0600   47.8340 C   0  0  0  0  0  0  0  0  0  0  0  0
   34.8250   29.6790   47.1250 H   0  0  0  0  0  0  0  0  0  0  0  0
   33.5450   29.6990   48.4080 H   0  0  0  0  0  0  0  0  0  0  0  0
   33.4430   27.9650   47.2170 C   0  0  0  0  0  0  0  0  0  0  0  0
   33.4860   28.0650   46.1140 H   0  0  0  0  0  0  0  0  0  0  0  0
   33.8310   26.9540   47.4550 H   0  0  0  0  0  0  0  0  0  0  0  0
   32.0000   28.0850   47.5640 C   0  0  0  0  0  0  0  0  0  0  0  0
   31.6170   27.6190   48.7980 C   0  0  0  0  0  0  0  0  0  0  0  0
   30.2990   27.6810   49.2240 C   0  0  0  0  0  0  0  0  0  0  0  0
   29.3850   28.2080   48.4090 N   0  0  0  0  0  0  0  0  0  0  0  0
   29.7700   28.6640   47.1950 C   0  0  0  0  0  0  0  0  0  0  0  0
   31.0460   28.6100   46.7700 N   0  0  0  0  0  0  0  0  0  0  0  0
   32.3410   27.1870   49.4780 H   0  0  0  0  0  0  0  0  0  0  0  0
   30.0360   27.3020   50.2060 H   0  0  0  0  0  0  0  0  0  0  0  0
   28.9840   29.0770   46.5870 H   0  0  0  0  0  0  0  0  0  0  0  0
  1  7  1  0  0  0  0
  2  8  1  0  0  0  0
  2  1  2  0  0  0  0
  3  2  1  0  0  0  0
  4  3  2  0  0  0  0
  4  5  1  0  0  0  0
  5  6  2  0  0  0  0
  6  1  1  0  0  0  0
  9 14  1  6  0  0  0
  9 10  1  0  0  0  0
 10 11  1  0  0  0  0
 10  3  1  1  0  0  0
 12 11  1  0  0  0  0
 13 16  1  1  0  0  0
 13  9  1  0  0  0  0
 13 12  1  0  0  0  0
 14 15  1  0  0  0  0
 17 16  1  0  0  0  0
 18  5  1  0  0  0  0
 19 21  1  0  0  0  0
 19 18  1  0  0  0  0
 20 19  1  0  0  0  0
 22 24  1  0  0  0  0
 22 25  1  0  0  0  0
 22 19  1  0  0  0  0
 23 22  1  0  0  0  0
 25 26  1  0  0  0  0
 26 27  2  0  0  0  0
 26 31  1  0  0  0  0
 27 32  1  0  0  0  0
 28 27  1  0  0  0  0
 29 28  2  0  0  0  0
 30 29  1  0  0  0  0
 30 25  2  0  0  0  0
 33 29  1  0  0  0  0
M  END
>  <minimizedAffinity>
-5.50736046

>  <minimizedRMSD>
1.02828133

$$$$
