
 OpenBabel03272508043D

 35 38  0  0  1  0  0  0  0  0999 V2000
   38.8940   30.9120   45.7950 C   0  0  0  0  0  0  0  0  0  0  0  0
   40.0760   31.5550   46.0460 C   0  0  0  0  0  0  0  0  0  0  0  0
   40.9170   31.4910   44.9450 C   0  0  0  0  0  0  0  0  0  0  0  0
   40.1830   30.7850   44.0350 N   0  0  0  0  0  0  0  0  0  0  0  0
   39.0130   30.4500   44.5270 N   0  0  0  0  0  0  0  0  0  0  0  0
   40.3600   32.0590   46.9660 H   0  0  0  0  0  0  0  0  0  0  0  0
   41.9060   31.8740   44.7760 H   0  0  0  0  0  0  0  0  0  0  0  0
   37.7540   30.7500   46.6780 C   0  0  0  0  0  0  0  0  0  0  0  0
   37.9680   30.9710   48.0650 C   0  0  0  0  0  0  0  0  0  0  0  0
   36.8820   30.8180   48.9220 C   0  0  0  0  0  0  0  0  0  0  0  0
   35.6880   30.4670   48.3820 N   0  0  0  0  0  0  0  0  0  0  0  0
   35.5130   30.2630   47.0550 C   0  0  0  0  0  0  0  0  0  0  0  0
   36.5580   30.4080   46.2160 N   0  0  0  0  0  0  0  0  0  0  0  0
   38.9170   31.2500   48.4960 H   0  0  0  0  0  0  0  0  0  0  0  0
   34.5270   29.9820   46.6740 H   0  0  0  0  0  0  0  0  0  0  0  0
   37.0920   31.0470   50.3860 C   0  0  0  0  0  0  0  0  0  0  0  0
   36.5680   32.2840   50.6410 F   0  0  0  0  0  0  0  0  0  0  0  0
   36.4110   30.1030   51.1580 F   0  0  0  0  0  0  0  0  0  0  0  0
   38.4360   31.0280   50.7260 F   0  0  0  0  0  0  0  0  0  0  0  0
   40.5650   30.4120   42.6790 C   0  0  0  0  0  0  0  0  0  0  0  0
   40.1820   31.1960   41.5770 C   0  0  0  0  0  0  0  0  0  0  0  0
   40.5820   30.7980   40.3350 C   0  0  0  0  0  0  0  0  0  0  0  0
   41.3670   29.6140   40.1880 C   0  0  0  0  0  0  0  0  0  0  0  0
   41.5330   29.0490   41.9450 S   0  0  0  0  0  0  0  0  0  0  0  0
   39.5890   32.0960   41.6480 H   0  0  0  0  0  0  0  0  0  0  0  0
   40.3960   31.2530   39.3760 H   0  0  0  0  0  0  0  0  0  0  0  0
   41.3510   27.5310   38.9960 C   0  0  2  0  0  3  0  0  0  0  0  0
   41.9510   28.8960   39.1410 C   0  0  1  0  0  3  0  0  0  0  0  0
   41.6310   29.5050   37.9050 O   0  0  0  0  0  0  0  0  0  0  0  0
   42.0720   28.5790   36.9560 C   0  0  0  0  0  2  0  0  0  0  0  0
   41.5670   27.2740   37.5010 C   0  0  2  0  0  3  0  0  0  0  0  0
   39.9800   27.6300   39.2000 O   0  0  0  0  0  0  0  0  0  0  0  0
   39.5670   26.7690   39.4610 H   0  0  0  0  0  0  0  0  0  0  0  0
   40.4180   26.8290   36.8740 O   0  0  0  0  0  0  0  0  0  0  0  0
   39.9420   27.5120   36.3500 H   0  0  0  0  0  0  0  0  0  0  0  0
  1  2  1  0  0  0  0
  1  8  1  0  0  0  0
  2  6  1  0  0  0  0
  3  2  2  0  0  0  0
  4  5  1  0  0  0  0
  4  3  1  0  0  0  0
  5  1  2  0  0  0  0
  7  3  1  0  0  0  0
  8  9  1  0  0  0  0
  9 14  1  0  0  0  0
  9 10  2  0  0  0  0
 10 16  1  0  0  0  0
 11 10  1  0  0  0  0
 12 11  2  0  0  0  0
 13  8  2  0  0  0  0
 13 12  1  0  0  0  0
 15 12  1  0  0  0  0
 16 17  1  0  0  0  0
 16 19  1  0  0  0  0
 16 18  1  0  0  0  0
 20  4  1  0  0  0  0
 21 25  1  0  0  0  0
 21 20  2  0  0  0  0
 22 21  1  0  0  0  0
 23 22  2  0  0  0  0
 23 24  1  0  0  0  0
 24 20  1  0  0  0  0
 26 22  1  0  0  0  0
 27 28  1  0  0  0  0
 27 32  1  6  0  0  0
 28 23  1  1  0  0  0
 29 28  1  0  0  0  0
 30 31  1  0  0  0  0
 30 29  1  0  0  0  0
 31 34  1  6  0  0  0
 31 27  1  0  0  0  0
 32 33  1  0  0  0  0
 35 34  1  0  0  0  0
M  END
>  <minimizedAffinity>
-6.29660273

>  <minimizedRMSD>
0.564026535

$$$$
