REMARK  Name = 
REMARK  4 active torsions:
REMARK  status: ('A' for Active; 'I' for Inactive)
REMARK    1  A    between atoms: C_1  and  C_7
REMARK    2  A    between atoms: C_2  and  C_19
REMARK    3  A    between atoms: O_17  and  C_18
REMARK    4  A    between atoms: C_22  and  O_23
REMARK                            x       y       z     vdW  Elec       q    Type
REMARK                         _______ _______ _______ _____ _____    ______ ____
ROOT
ATOM      1  C   UNL     1      37.033  31.162  49.273  0.00  0.00    +0.000 A 
ATOM      2  C   UNL     1      37.283  32.459  49.746  0.00  0.00    +0.000 A 
ATOM      3  C   UNL     1      38.272  33.100  48.982  0.00  0.00    +0.000 A 
ATOM      4  N   UNL     1      38.893  32.527  47.926  0.00  0.00    +0.000 NA
ATOM      5  C   UNL     1      38.599  31.273  47.524  0.00  0.00    +0.000 A 
ATOM      6  N   UNL     1      37.664  30.599  48.210  0.00  0.00    +0.000 NA
ATOM      7  H   UNL     1      38.628  34.117  49.173  0.00  0.00    +0.000 HD
ATOM      8  H   UNL     1      38.983  30.669  46.722  0.00  0.00    +0.000 HD
ENDROOT
BRANCH   1   9
ATOM      9  C   UNL     1      35.918  30.416  49.985  0.00  0.00    +0.000 C 
ATOM     10  C   UNL     1      35.760  28.994  49.829  0.00  0.00    +0.000 C 
ATOM     11  C   UNL     1      36.512  29.459  51.046  0.00  0.00    +0.000 C 
ATOM     12  H   UNL     1      35.113  31.027  50.480  0.00  0.00    +0.000 HD
ATOM     13  H   UNL     1      36.370  28.514  49.006  0.00  0.00    +0.000 HD
ATOM     14  H   UNL     1      34.827  28.438  49.993  0.00  0.00    +0.000 HD
ATOM     15  H   UNL     1      37.585  29.323  51.012  0.00  0.00    +0.000 HD
ATOM     16  H   UNL     1      35.971  29.350  51.993  0.00  0.00    +0.000 HD
ENDBRANCH   1   9
BRANCH   2  18
ATOM     17  C   UNL     1      35.550  34.104  50.422  0.00  0.00    +0.000 C 
ATOM     18  C   UNL     1      36.708  33.180  50.830  0.00  0.00    +0.000 C 
ATOM     19  O   UNL     1      37.451  33.938  51.661  0.00  0.00    +0.000 OA
ATOM     20  C   UNL     1      36.699  34.922  52.236  0.00  0.00    +0.000 C 
ATOM     21  C   UNL     1      35.248  34.662  51.804  0.00  0.00    +0.000 C 
BRANCH  17  22
ATOM     22  O   UNL     1      34.540  33.272  49.961  0.00  0.00    +0.000 OA
ATOM     23  H   UNL     1      34.125  32.816  50.715  0.00  0.00    +0.000 HD
ENDBRANCH  17  22
BRANCH  21  24
ATOM     24  O   UNL     1      34.496  35.802  51.777  0.00  0.00    +0.000 OA
ATOM     25  H   UNL     1      34.757  36.365  52.570  0.00  0.00    +0.000 HD
ENDBRANCH  21  24
ENDBRANCH   2  18
TORSDOF 4
