
 OpenBabel03272505333D

 40 43  0  0  1  0  0  0  0  0999 V2000
   35.9930   29.0430   33.5070 N   0  0  0  0  0  0  0  0  0  0  0  0
   36.3220   27.7610   33.7890 C   0  0  0  0  0  0  0  0  0  0  0  0
   36.9460   26.9370   32.8670 C   0  0  0  0  0  0  0  0  0  0  0  0
   37.2290   27.4920   31.6100 C   0  0  0  0  0  0  0  0  0  0  0  0
   37.7940   26.7990   30.7280 O   0  0  0  0  0  0  0  0  0  0  0  0
   36.8940   28.7970   31.3260 N   0  0  0  0  0  0  0  0  0  0  0  0
   36.2980   29.4770   32.3040 C   0  0  0  0  0  0  0  0  0  0  0  0
   36.0090   30.6520   32.0090 O   0  0  0  0  0  0  0  0  0  0  0  0
   36.0920   27.3510   34.7730 H   0  0  0  0  0  0  0  0  0  0  0  0
   33.3520   30.6510   35.5770 C   0  0  0  0  0  0  0  0  0  0  0  0
   33.9870   29.8350   34.6270 C   0  0  0  0  0  0  0  0  0  0  0  0
   35.3620   29.8560   34.4560 C   0  0  0  0  0  0  0  0  0  0  0  0
   36.0660   30.6930   35.2410 N   0  0  0  0  0  0  0  0  0  0  0  0
   35.4770   31.5000   36.1770 C   0  0  0  0  0  0  0  0  0  0  0  0
   34.1220   31.4640   36.3310 N   0  0  0  0  0  0  0  0  0  0  0  0
   32.2760   30.5800   35.6540 H   0  0  0  0  0  0  0  0  0  0  0  0
   33.4250   29.1640   33.9960 H   0  0  0  0  0  0  0  0  0  0  0  0
   36.0670   32.1640   36.7960 H   0  0  0  0  0  0  0  0  0  0  0  0
   37.3190   25.5700   33.1090 C   0  0  0  0  0  0  0  0  0  0  0  0
   36.9270   24.5190   32.3150 C   0  0  0  0  0  0  0  0  0  0  0  0
   37.2560   23.2000   32.5060 C   0  0  0  0  0  0  0  0  0  0  0  0
   38.0590   22.8810   33.5950 C   0  0  0  0  0  0  0  0  0  0  0  0
   38.4450   23.9650   34.3860 C   0  0  0  0  0  0  0  0  0  0  0  0
   38.0930   25.2320   34.1520 N   0  0  0  0  0  0  0  0  0  0  0  0
   36.2910   24.7330   31.4460 H   0  0  0  0  0  0  0  0  0  0  0  0
   36.9130   22.4170   31.8420 H   0  0  0  0  0  0  0  0  0  0  0  0
   38.3640   21.8650   33.8170 H   0  0  0  0  0  0  0  0  0  0  0  0
   39.1080   22.3070   36.0730 C   0  0  1  0  0  3  0  0  0  0  0  0
   39.3060   23.7390   35.5780 C   0  0  1  0  0  3  0  0  0  0  0  0
   40.6520   23.7250   35.2780 O   0  0  0  0  0  0  0  0  0  0  0  0
   41.2760   23.1220   36.3400 C   0  0  0  0  0  2  0  0  0  0  0  0
   40.2770   22.2460   37.0600 C   0  0  1  0  0  3  0  0  0  0  0  0
   37.8780   22.1310   36.6930 O   0  0  0  0  0  0  0  0  0  0  0  0
   37.3050   22.8700   36.3120 H   0  0  0  0  0  0  0  0  0  0  0  0
   39.8840   22.9500   38.2160 O   0  0  0  0  0  0  0  0  0  0  0  0
   38.9050   23.1660   38.1810 H   0  0  0  0  0  0  0  0  0  0  0  0
   37.1890   29.3500   30.0370 C   0  0  0  0  0  0  0  0  0  0  0  0
   36.4490   30.4560   29.7980 F   0  0  0  0  0  0  0  0  0  0  0  0
   36.9230   28.4800   28.9890 F   0  0  0  0  0  0  0  0  0  0  0  0
   38.5330   29.7140   30.0050 F   0  0  0  0  0  0  0  0  0  0  0  0
  1  2  1  0  0  0  0
  1 12  1  0  0  0  0
  2  9  1  0  0  0  0
  3 19  1  0  0  0  0
  3  2  2  0  0  0  0
  4  3  1  0  0  0  0
  5  4  2  0  0  0  0
  6  4  1  0  0  0  0
  6  7  1  0  0  0  0
  7  1  1  0  0  0  0
  8  7  2  0  0  0  0
 10 16  1  0  0  0  0
 10 15  1  0  0  0  0
 11 10  2  0  0  0  0
 12 11  1  0  0  0  0
 12 13  2  0  0  0  0
 13 14  1  0  0  0  0
 14 15  2  0  0  0  0
 14 18  1  0  0  0  0
 17 11  1  0  0  0  0
 19 24  1  0  0  0  0
 20 21  1  0  0  0  0
 20 19  2  0  0  0  0
 21 22  2  0  0  0  0
 22 27  1  0  0  0  0
 22 23  1  0  0  0  0
 24 23  2  0  0  0  0
 25 20  1  0  0  0  0
 26 21  1  0  0  0  0
 28 33  1  1  0  0  0
 28 32  1  0  0  0  0
 29 23  1  6  0  0  0
 29 28  1  0  0  0  0
 30 29  1  0  0  0  0
 30 31  1  0  0  0  0
 31 32  1  0  0  0  0
 32 35  1  1  0  0  0
 34 33  1  0  0  0  0
 36 35  1  0  0  0  0
 37  6  1  0  0  0  0
 38 37  1  0  0  0  0
 39 37  1  0  0  0  0
 40 37  1  0  0  0  0
M  END
>  <minimizedAffinity>
-6.76101732

$$$$

 OpenBabel03272505333D

 40 43  0  0  1  0  0  0  0  0999 V2000
   38.0960   24.9690   33.8150 N   0  0  0  0  0  0  0  0  0  0  0  0
   37.8000   26.2900   33.8040 C   0  0  0  0  0  0  0  0  0  0  0  0
   36.8410   26.8260   32.9610 C   0  0  0  0  0  0  0  0  0  0  0  0
   36.1760   25.9330   32.1070 C   0  0  0  0  0  0  0  0  0  0  0  0
   35.2940   26.3550   31.3180 O   0  0  0  0  0  0  0  0  0  0  0  0
   36.4780   24.5900   32.1220 N   0  0  0  0  0  0  0  0  0  0  0  0
   37.4210   24.2090   32.9810 C   0  0  0  0  0  0  0  0  0  0  0  0
   37.6670   22.9880   32.9640 O   0  0  0  0  0  0  0  0  0  0  0  0
   38.3300   26.9640   34.4770 H   0  0  0  0  0  0  0  0  0  0  0  0
   41.3990   24.0190   35.2400 C   0  0  0  0  0  0  0  0  0  0  0  0
   40.4200   24.5400   34.3780 C   0  0  0  0  0  0  0  0  0  0  0  0
   39.0700   24.4510   34.6760 C   0  0  0  0  0  0  0  0  0  0  0  0
   38.7340   23.8430   35.8300 N   0  0  0  0  0  0  0  0  0  0  0  0
   39.6650   23.3260   36.6910 C   0  0  0  0  0  0  0  0  0  0  0  0
   40.9890   23.4250   36.3790 N   0  0  0  0  0  0  0  0  0  0  0  0
   42.4320   24.1260   34.9410 H   0  0  0  0  0  0  0  0  0  0  0  0
   40.6860   25.0270   33.4520 H   0  0  0  0  0  0  0  0  0  0  0  0
   39.3670   22.8420   37.6130 H   0  0  0  0  0  0  0  0  0  0  0  0
   36.4840   28.2180   32.9050 C   0  0  0  0  0  0  0  0  0  0  0  0
   36.6950   29.0160   31.8060 C   0  0  0  0  0  0  0  0  0  0  0  0
   36.3730   30.3470   31.7060 C   0  0  0  0  0  0  0  0  0  0  0  0
   35.7800   30.9580   32.8040 C   0  0  0  0  0  0  0  0  0  0  0  0
   35.5760   30.1270   33.9080 C   0  0  0  0  0  0  0  0  0  0  0  0
   35.9100   28.8340   33.9490 N   0  0  0  0  0  0  0  0  0  0  0  0
   37.1620   28.5680   30.9190 H   0  0  0  0  0  0  0  0  0  0  0  0
   36.5660   30.9220   30.8090 H   0  0  0  0  0  0  0  0  0  0  0  0
   35.4950   32.0040   32.8060 H   0  0  0  0  0  0  0  0  0  0  0  0
   35.2950   32.1590   35.2570 C   0  0  1  0  0  3  0  0  0  0  0  0
   34.9470   30.6760   35.1390 C   0  0  1  0  0  3  0  0  0  0  0  0
   33.5710   30.7380   35.0610 O   0  0  0  0  0  0  0  0  0  0  0  0
   33.1700   31.6060   36.0440 C   0  0  0  0  0  2  0  0  0  0  0  0
   34.3190   32.5290   36.3790 C   0  0  1  0  0  3  0  0  0  0  0  0
   36.6200   32.3600   35.6180 O   0  0  0  0  0  0  0  0  0  0  0  0
   37.0830   31.5110   35.3280 H   0  0  0  0  0  0  0  0  0  0  0  0
   34.8740   32.0610   37.5860 O   0  0  0  0  0  0  0  0  0  0  0  0
   35.8210   31.7610   37.4460 H   0  0  0  0  0  0  0  0  0  0  0  0
   35.7900   23.6900   31.2430 C   0  0  0  0  0  0  0  0  0  0  0  0
   36.6590   23.0120   30.4600 F   0  0  0  0  0  0  0  0  0  0  0  0
   34.9140   24.3270   30.3760 F   0  0  0  0  0  0  0  0  0  0  0  0
   35.0880   22.7650   32.0120 F   0  0  0  0  0  0  0  0  0  0  0  0
  1 12  1  0  0  0  0
  2  1  1  0  0  0  0
  2  9  1  0  0  0  0
  3  2  2  0  0  0  0
  4  6  1  0  0  0  0
  4  3  1  0  0  0  0
  5  4  2  0  0  0  0
  6  7  1  0  0  0  0
  7  1  1  0  0  0  0
  8  7  2  0  0  0  0
 10 15  1  0  0  0  0
 11 12  1  0  0  0  0
 11 10  2  0  0  0  0
 12 13  2  0  0  0  0
 13 14  1  0  0  0  0
 14 18  1  0  0  0  0
 15 14  2  0  0  0  0
 16 10  1  0  0  0  0
 17 11  1  0  0  0  0
 19  3  1  0  0  0  0
 19 24  1  0  0  0  0
 20 19  2  0  0  0  0
 21 20  1  0  0  0  0
 21 22  2  0  0  0  0
 22 27  1  0  0  0  0
 22 23  1  0  0  0  0
 23 24  2  0  0  0  0
 25 20  1  0  0  0  0
 26 21  1  0  0  0  0
 28 33  1  1  0  0  0
 28 32  1  0  0  0  0
 29 23  1  6  0  0  0
 29 28  1  0  0  0  0
 30 29  1  0  0  0  0
 30 31  1  0  0  0  0
 31 32  1  0  0  0  0
 32 35  1  1  0  0  0
 34 33  1  0  0  0  0
 36 35  1  0  0  0  0
 37 40  1  0  0  0  0
 37  6  1  0  0  0  0
 38 37  1  0  0  0  0
 39 37  1  0  0  0  0
M  END
>  <minimizedAffinity>
-6.69337082

$$$$

 OpenBabel03272505333D

 40 43  0  0  1  0  0  0  0  0999 V2000
   38.0340   23.5910   34.2890 N   0  0  0  0  0  0  0  0  0  0  0  0
   38.0280   24.8420   33.7710 C   0  0  0  0  0  0  0  0  0  0  0  0
   37.4000   25.1440   32.5740 C   0  0  0  0  0  0  0  0  0  0  0  0
   36.7620   24.0870   31.9080 C   0  0  0  0  0  0  0  0  0  0  0  0
   36.1740   24.2930   30.8170 O   0  0  0  0  0  0  0  0  0  0  0  0
   36.7700   22.8160   32.4370 N   0  0  0  0  0  0  0  0  0  0  0  0
   37.4090   22.6650   33.5950 C   0  0  0  0  0  0  0  0  0  0  0  0
   37.3950   21.5030   34.0410 O   0  0  0  0  0  0  0  0  0  0  0  0
   38.5300   25.6470   34.3070 H   0  0  0  0  0  0  0  0  0  0  0  0
   38.7310   23.3430   37.9350 C   0  0  0  0  0  0  0  0  0  0  0  0
   38.0900   23.6230   36.7170 C   0  0  0  0  0  0  0  0  0  0  0  0
   38.6750   23.3110   35.5010 C   0  0  0  0  0  0  0  0  0  0  0  0
   39.8870   22.7260   35.5340 N   0  0  0  0  0  0  0  0  0  0  0  0
   40.5380   22.4400   36.7050 C   0  0  0  0  0  0  0  0  0  0  0  0
   39.9440   22.7540   37.8920 N   0  0  0  0  0  0  0  0  0  0  0  0
   38.2130   23.6150   38.8440 H   0  0  0  0  0  0  0  0  0  0  0  0
   37.1180   24.0920   36.6880 H   0  0  0  0  0  0  0  0  0  0  0  0
   41.5130   21.9690   36.7030 H   0  0  0  0  0  0  0  0  0  0  0  0
   37.3600   26.4500   31.9760 C   0  0  0  0  0  0  0  0  0  0  0  0
   38.3250   26.9310   31.1230 C   0  0  0  0  0  0  0  0  0  0  0  0
   38.3300   28.1680   30.5300 C   0  0  0  0  0  0  0  0  0  0  0  0
   37.2710   29.0270   30.8040 C   0  0  0  0  0  0  0  0  0  0  0  0
   36.3040   28.5160   31.6730 C   0  0  0  0  0  0  0  0  0  0  0  0
   36.3510   27.2990   32.2230 N   0  0  0  0  0  0  0  0  0  0  0  0
   39.1770   26.2810   30.8830 H   0  0  0  0  0  0  0  0  0  0  0  0
   39.1230   28.4880   29.8650 H   0  0  0  0  0  0  0  0  0  0  0  0
   37.1990   30.0200   30.3770 H   0  0  0  0  0  0  0  0  0  0  0  0
   35.4220   30.0910   33.3390 C   0  0  1  0  0  3  0  0  0  0  0  0
   35.1250   29.3490   32.0360 C   0  0  1  0  0  3  0  0  0  0  0  0
   34.9260   30.4070   31.1750 O   0  0  0  0  0  0  0  0  0  0  0  0
   34.1030   31.2870   31.8320 C   0  0  0  0  0  2  0  0  0  0  0  0
   34.2350   31.0590   33.3200 C   0  0  1  0  0  3  0  0  0  0  0  0
   35.4020   29.2470   34.4400 O   0  0  0  0  0  0  0  0  0  0  0  0
   35.5820   28.3330   34.0500 H   0  0  0  0  0  0  0  0  0  0  0  0
   33.0960   30.3310   33.7190 O   0  0  0  0  0  0  0  0  0  0  0  0
   33.3600   29.4290   34.0710 H   0  0  0  0  0  0  0  0  0  0  0  0
   36.1130   21.7450   31.7450 C   0  0  0  0  0  0  0  0  0  0  0  0
   35.3050   22.2180   30.7690 F   0  0  0  0  0  0  0  0  0  0  0  0
   35.3070   20.9710   32.5660 F   0  0  0  0  0  0  0  0  0  0  0  0
   37.0800   20.9380   31.1520 F   0  0  0  0  0  0  0  0  0  0  0  0
  1 12  1  0  0  0  0
  2  1  1  0  0  0  0
  2  9  1  0  0  0  0
  3  2  2  0  0  0  0
  4  6  1  0  0  0  0
  4  3  1  0  0  0  0
  5  4  2  0  0  0  0
  6  7  1  0  0  0  0
  7  8  2  0  0  0  0
  7  1  1  0  0  0  0
 10 16  1  0  0  0  0
 11 10  2  0  0  0  0
 12 13  2  0  0  0  0
 12 11  1  0  0  0  0
 13 14  1  0  0  0  0
 14 15  2  0  0  0  0
 15 10  1  0  0  0  0
 17 11  1  0  0  0  0
 18 14  1  0  0  0  0
 19 24  1  0  0  0  0
 19  3  1  0  0  0  0
 20 19  2  0  0  0  0
 21 22  2  0  0  0  0
 21 20  1  0  0  0  0
 22 23  1  0  0  0  0
 23 24  2  0  0  0  0
 25 20  1  0  0  0  0
 26 21  1  0  0  0  0
 27 22  1  0  0  0  0
 28 33  1  1  0  0  0
 29 23  1  6  0  0  0
 29 28  1  0  0  0  0
 30 31  1  0  0  0  0
 30 29  1  0  0  0  0
 31 32  1  0  0  0  0
 32 28  1  0  0  0  0
 32 35  1  6  0  0  0
 34 33  1  0  0  0  0
 35 36  1  0  0  0  0
 37  6  1  0  0  0  0
 37 39  1  0  0  0  0
 38 37  1  0  0  0  0
 40 37  1  0  0  0  0
M  END
>  <minimizedAffinity>
-6.57546568

$$$$

 OpenBabel03272505333D

 40 43  0  0  1  0  0  0  0  0999 V2000
   37.0640   24.5510   32.6340 N   0  0  0  0  0  0  0  0  0  0  0  0
   36.5680   25.6890   32.0940 C   0  0  0  0  0  0  0  0  0  0  0  0
   36.6310   26.9070   32.7490 C   0  0  0  0  0  0  0  0  0  0  0  0
   37.2390   26.9180   34.0140 C   0  0  0  0  0  0  0  0  0  0  0  0
   37.3280   27.9900   34.6610 O   0  0  0  0  0  0  0  0  0  0  0  0
   37.7440   25.7590   34.5600 N   0  0  0  0  0  0  0  0  0  0  0  0
   37.6170   24.6570   33.8230 C   0  0  0  0  0  0  0  0  0  0  0  0
   38.0840   23.6310   34.3500 O   0  0  0  0  0  0  0  0  0  0  0  0
   36.1000   25.6570   31.1100 H   0  0  0  0  0  0  0  0  0  0  0  0
   35.7200   21.4050   31.1730 C   0  0  0  0  0  0  0  0  0  0  0  0
   35.7980   22.6290   31.8550 C   0  0  0  0  0  0  0  0  0  0  0  0
   36.9880   23.3310   31.9520 C   0  0  0  0  0  0  0  0  0  0  0  0
   38.0710   22.7900   31.3630 N   0  0  0  0  0  0  0  0  0  0  0  0
   38.0270   21.5980   30.6890 C   0  0  0  0  0  0  0  0  0  0  0  0
   36.8450   20.9220   30.6050 N   0  0  0  0  0  0  0  0  0  0  0  0
   34.7580   20.9140   31.1390 H   0  0  0  0  0  0  0  0  0  0  0  0
   34.9320   23.0650   32.3300 H   0  0  0  0  0  0  0  0  0  0  0  0
   38.9140   21.1850   30.2240 H   0  0  0  0  0  0  0  0  0  0  0  0
   36.1220   28.1470   32.2280 C   0  0  0  0  0  0  0  0  0  0  0  0
   36.7030   28.8350   31.1900 C   0  0  0  0  0  0  0  0  0  0  0  0
   36.2550   30.0190   30.6590 C   0  0  0  0  0  0  0  0  0  0  0  0
   35.1110   30.5870   31.2080 C   0  0  0  0  0  0  0  0  0  0  0  0
   34.5380   29.8700   32.2610 C   0  0  0  0  0  0  0  0  0  0  0  0
   35.0200   28.7180   32.7370 N   0  0  0  0  0  0  0  0  0  0  0  0
   37.6090   28.4170   30.7310 H   0  0  0  0  0  0  0  0  0  0  0  0
   36.7600   30.5130   29.8390 H   0  0  0  0  0  0  0  0  0  0  0  0
   34.6920   31.5190   30.8480 H   0  0  0  0  0  0  0  0  0  0  0  0
   32.5580   29.2160   33.5580 C   0  0  1  0  0  3  0  0  0  0  0  0
   33.3100   30.3850   32.9230 C   0  0  1  0  0  3  0  0  0  0  0  0
   33.5780   31.1560   34.0340 O   0  0  0  0  0  0  0  0  0  0  0  0
   32.4100   31.2140   34.7510 C   0  0  0  0  0  2  0  0  0  0  0  0
   31.5560   30.0200   34.3910 C   0  0  1  0  0  3  0  0  0  0  0  0
   31.9390   28.4130   32.6110 O   0  0  0  0  0  0  0  0  0  0  0  0
   32.4620   28.5850   31.7650 H   0  0  0  0  0  0  0  0  0  0  0  0
   30.5610   30.4870   33.5100 O   0  0  0  0  0  0  0  0  0  0  0  0
   30.6530   30.0520   32.6110 H   0  0  0  0  0  0  0  0  0  0  0  0
   38.3620   25.7840   35.8530 C   0  0  0  0  0  0  0  0  0  0  0  0
   37.6890   25.0090   36.7330 F   0  0  0  0  0  0  0  0  0  0  0  0
   38.4070   27.0510   36.4180 F   0  0  0  0  0  0  0  0  0  0  0  0
   39.6560   25.2840   35.7380 F   0  0  0  0  0  0  0  0  0  0  0  0
  1  7  1  0  0  0  0
  2  1  1  0  0  0  0
  2  3  2  0  0  0  0
  3  4  1  0  0  0  0
  4  6  1  0  0  0  0
  4  5  2  0  0  0  0
  6 37  1  0  0  0  0
  7  8  2  0  0  0  0
  7  6  1  0  0  0  0
  9  2  1  0  0  0  0
 10 11  1  0  0  0  0
 11 12  2  0  0  0  0
 11 17  1  0  0  0  0
 12  1  1  0  0  0  0
 13 12  1  0  0  0  0
 14 13  2  0  0  0  0
 15 14  1  0  0  0  0
 15 10  2  0  0  0  0
 16 10  1  0  0  0  0
 18 14  1  0  0  0  0
 19 24  1  0  0  0  0
 19  3  1  0  0  0  0
 20 19  2  0  0  0  0
 21 20  1  0  0  0  0
 21 22  2  0  0  0  0
 22 23  1  0  0  0  0
 23 24  2  0  0  0  0
 25 20  1  0  0  0  0
 26 21  1  0  0  0  0
 27 22  1  0  0  0  0
 28 33  1  6  0  0  0
 28 32  1  0  0  0  0
 29 23  1  1  0  0  0
 29 28  1  0  0  0  0
 29 30  1  0  0  0  0
 30 31  1  0  0  0  0
 32 35  1  6  0  0  0
 32 31  1  0  0  0  0
 34 33  1  0  0  0  0
 36 35  1  0  0  0  0
 37 39  1  0  0  0  0
 37 38  1  0  0  0  0
 40 37  1  0  0  0  0
M  END
>  <minimizedAffinity>
-6.52551031

$$$$

 OpenBabel03272505333D

 40 43  0  0  1  0  0  0  0  0999 V2000
   37.4190   22.4710   33.5310 N   0  0  0  0  0  0  0  0  0  0  0  0
   37.4230   23.5810   32.7560 C   0  0  0  0  0  0  0  0  0  0  0  0
   37.7860   24.8240   33.2470 C   0  0  0  0  0  0  0  0  0  0  0  0
   38.1540   24.8900   34.5990 C   0  0  0  0  0  0  0  0  0  0  0  0
   38.4930   25.9880   35.1070 O   0  0  0  0  0  0  0  0  0  0  0  0
   38.1490   23.7600   35.3850 N   0  0  0  0  0  0  0  0  0  0  0  0
   37.7800   22.6290   34.7860 C   0  0  0  0  0  0  0  0  0  0  0  0
   37.7870   21.6300   35.5280 O   0  0  0  0  0  0  0  0  0  0  0  0
   37.1340   23.5050   31.7080 H   0  0  0  0  0  0  0  0  0  0  0  0
   35.3870   19.4860   32.6340 C   0  0  0  0  0  0  0  0  0  0  0  0
   35.7610   20.7360   33.1530 C   0  0  0  0  0  0  0  0  0  0  0  0
   37.0490   21.2250   33.0120 C   0  0  0  0  0  0  0  0  0  0  0  0
   37.9320   20.4490   32.3550 N   0  0  0  0  0  0  0  0  0  0  0  0
   37.5990   19.2260   31.8370 C   0  0  0  0  0  0  0  0  0  0  0  0
   36.3240   18.7630   31.9860 N   0  0  0  0  0  0  0  0  0  0  0  0
   34.3640   19.1710   32.7830 H   0  0  0  0  0  0  0  0  0  0  0  0
   35.0550   21.3600   33.6810 H   0  0  0  0  0  0  0  0  0  0  0  0
   38.3290   18.6220   31.3120 H   0  0  0  0  0  0  0  0  0  0  0  0
   37.8100   26.0360   32.4730 C   0  0  0  0  0  0  0  0  0  0  0  0
   38.8660   26.4160   31.6800 C   0  0  0  0  0  0  0  0  0  0  0  0
   38.9340   27.5610   30.9260 C   0  0  0  0  0  0  0  0  0  0  0  0
   37.8470   28.4260   30.9550 C   0  0  0  0  0  0  0  0  0  0  0  0
   36.7860   28.0190   31.7680 C   0  0  0  0  0  0  0  0  0  0  0  0
   36.7740   26.8890   32.4820 N   0  0  0  0  0  0  0  0  0  0  0  0
   39.7430   25.7570   31.6320 H   0  0  0  0  0  0  0  0  0  0  0  0
   39.7980   27.8020   30.3200 H   0  0  0  0  0  0  0  0  0  0  0  0
   37.8200   29.3500   30.3900 H   0  0  0  0  0  0  0  0  0  0  0  0
   35.6420   29.6850   33.1640 C   0  0  1  0  0  3  0  0  0  0  0  0
   35.5690   28.8680   31.8740 C   0  0  1  0  0  3  0  0  0  0  0  0
   35.5290   29.8740   30.9320 O   0  0  0  0  0  0  0  0  0  0  0  0
   34.6130   30.7890   31.3860 C   0  0  0  0  0  2  0  0  0  0  0  0
   34.4840   30.6470   32.8850 C   0  0  1  0  0  3  0  0  0  0  0  0
   35.4260   28.9050   34.2920 O   0  0  0  0  0  0  0  0  0  0  0  0
   35.6640   27.9710   33.9920 H   0  0  0  0  0  0  0  0  0  0  0  0
   33.2880   29.9410   33.1220 O   0  0  0  0  0  0  0  0  0  0  0  0
   33.4800   29.0620   33.5660 H   0  0  0  0  0  0  0  0  0  0  0  0
   38.5280   23.8430   36.7650 C   0  0  0  0  0  0  0  0  0  0  0  0
   37.8640   22.9300   37.5100 F   0  0  0  0  0  0  0  0  0  0  0  0
   38.2520   25.0750   37.3390 F   0  0  0  0  0  0  0  0  0  0  0  0
   39.8900   23.5780   36.8700 F   0  0  0  0  0  0  0  0  0  0  0  0
  1  7  1  0  0  0  0
  2  3  2  0  0  0  0
  2  1  1  0  0  0  0
  3  4  1  0  0  0  0
  4  5  2  0  0  0  0
  4  6  1  0  0  0  0
  6 37  1  0  0  0  0
  7  6  1  0  0  0  0
  7  8  2  0  0  0  0
  9  2  1  0  0  0  0
 10 16  1  0  0  0  0
 10 11  1  0  0  0  0
 11 17  1  0  0  0  0
 12 11  2  0  0  0  0
 12  1  1  0  0  0  0
 13 12  1  0  0  0  0
 14 15  1  0  0  0  0
 14 13  2  0  0  0  0
 15 10  2  0  0  0  0
 18 14  1  0  0  0  0
 19 24  1  0  0  0  0
 19  3  1  0  0  0  0
 20 19  2  0  0  0  0
 21 22  2  0  0  0  0
 21 20  1  0  0  0  0
 22 23  1  0  0  0  0
 23 24  2  0  0  0  0
 25 20  1  0  0  0  0
 26 21  1  0  0  0  0
 27 22  1  0  0  0  0
 28 33  1  1  0  0  0
 29 23  1  6  0  0  0
 29 28  1  0  0  0  0
 30 31  1  0  0  0  0
 30 29  1  0  0  0  0
 31 32  1  0  0  0  0
 32 35  1  6  0  0  0
 32 28  1  0  0  0  0
 34 33  1  0  0  0  0
 35 36  1  0  0  0  0
 37 40  1  0  0  0  0
 37 39  1  0  0  0  0
 37 38  1  0  0  0  0
M  END
>  <minimizedAffinity>
-6.36837101

$$$$

 OpenBabel03272505333D

 40 43  0  0  1  0  0  0  0  0999 V2000
   37.4000   26.5050   33.9230 N   0  0  0  0  0  0  0  0  0  0  0  0
   36.6510   27.4930   34.4660 C   0  0  0  0  0  0  0  0  0  0  0  0
   36.2690   28.6130   33.7460 C   0  0  0  0  0  0  0  0  0  0  0  0
   36.6940   28.6850   32.4110 C   0  0  0  0  0  0  0  0  0  0  0  0
   36.3820   29.6750   31.7030 O   0  0  0  0  0  0  0  0  0  0  0  0
   37.4560   27.6780   31.8610 N   0  0  0  0  0  0  0  0  0  0  0  0
   37.7510   26.6590   32.6640 C   0  0  0  0  0  0  0  0  0  0  0  0
   38.4410   25.7690   32.1320 O   0  0  0  0  0  0  0  0  0  0  0  0
   36.3310   27.4150   35.5050 H   0  0  0  0  0  0  0  0  0  0  0  0
   38.5120   24.3640   36.7540 C   0  0  0  0  0  0  0  0  0  0  0  0
   38.1360   25.4890   36.0030 C   0  0  0  0  0  0  0  0  0  0  0  0
   37.7730   25.3820   34.6700 C   0  0  0  0  0  0  0  0  0  0  0  0
   37.7960   24.1520   34.1230 N   0  0  0  0  0  0  0  0  0  0  0  0
   38.1570   23.0360   34.8300 C   0  0  0  0  0  0  0  0  0  0  0  0
   38.5100   23.1620   36.1410 N   0  0  0  0  0  0  0  0  0  0  0  0
   38.7830   24.5240   37.7880 H   0  0  0  0  0  0  0  0  0  0  0  0
   38.1180   26.4760   36.4380 H   0  0  0  0  0  0  0  0  0  0  0  0
   38.1660   22.0580   34.3650 H   0  0  0  0  0  0  0  0  0  0  0  0
   35.4750   29.6920   34.2690 C   0  0  0  0  0  0  0  0  0  0  0  0
   35.8760   30.5040   35.3020 C   0  0  0  0  0  0  0  0  0  0  0  0
   35.1540   31.5440   35.8340 C   0  0  0  0  0  0  0  0  0  0  0  0
   33.9040   31.8140   35.2900 C   0  0  0  0  0  0  0  0  0  0  0  0
   33.5190   30.9760   34.2420 C   0  0  0  0  0  0  0  0  0  0  0  0
   34.2650   29.9760   33.7630 N   0  0  0  0  0  0  0  0  0  0  0  0
   36.8580   30.3210   35.7570 H   0  0  0  0  0  0  0  0  0  0  0  0
   35.5280   32.1480   36.6510 H   0  0  0  0  0  0  0  0  0  0  0  0
   33.2720   32.6160   35.6520 H   0  0  0  0  0  0  0  0  0  0  0  0
   31.3870   29.8850   33.6950 C   0  0  1  0  0  3  0  0  0  0  0  0
   32.2000   31.1750   33.5840 C   0  0  1  0  0  3  0  0  0  0  0  0
   31.3840   32.0540   34.2650 O   0  0  0  0  0  0  0  0  0  0  0  0
   30.1120   31.8340   33.8010 C   0  0  0  0  0  2  0  0  0  0  0  0
   30.0320   30.4340   33.2390 C   0  0  1  0  0  3  0  0  0  0  0  0
   31.8670   28.8890   32.8560 O   0  0  0  0  0  0  0  0  0  0  0  0
   32.8300   29.1470   32.6970 H   0  0  0  0  0  0  0  0  0  0  0  0
   30.0830   30.5590   31.8370 O   0  0  0  0  0  0  0  0  0  0  0  0
   30.9040   30.1130   31.4720 H   0  0  0  0  0  0  0  0  0  0  0  0
   37.8830   27.7660   30.4950 C   0  0  0  0  0  0  0  0  0  0  0  0
   36.8480   28.0590   29.6770 F   0  0  0  0  0  0  0  0  0  0  0  0
   38.4300   26.5860   30.0120 F   0  0  0  0  0  0  0  0  0  0  0  0
   38.8230   28.7880   30.3870 F   0  0  0  0  0  0  0  0  0  0  0  0
  1  2  1  0  0  0  0
  1 12  1  0  0  0  0
  2  9  1  0  0  0  0
  3 19  1  0  0  0  0
  3  2  2  0  0  0  0
  4  3  1  0  0  0  0
  5  4  2  0  0  0  0
  6  4  1  0  0  0  0
  6  7  1  0  0  0  0
  7  1  1  0  0  0  0
  8  7  2  0  0  0  0
 10 16  1  0  0  0  0
 11 17  1  0  0  0  0
 11 10  2  0  0  0  0
 12 11  1  0  0  0  0
 13 12  2  0  0  0  0
 13 14  1  0  0  0  0
 14 15  2  0  0  0  0
 15 10  1  0  0  0  0
 18 14  1  0  0  0  0
 19 20  1  0  0  0  0
 20 25  1  0  0  0  0
 20 21  2  0  0  0  0
 21 26  1  0  0  0  0
 22 27  1  0  0  0  0
 22 21  1  0  0  0  0
 23 22  2  0  0  0  0
 24 23  1  0  0  0  0
 24 19  2  0  0  0  0
 28 33  1  6  0  0  0
 29 28  1  0  0  0  0
 29 23  1  1  0  0  0
 29 30  1  0  0  0  0
 31 30  1  0  0  0  0
 32 35  1  6  0  0  0
 32 28  1  0  0  0  0
 32 31  1  0  0  0  0
 34 33  1  0  0  0  0
 36 35  1  0  0  0  0
 37  6  1  0  0  0  0
 38 37  1  0  0  0  0
 39 37  1  0  0  0  0
 40 37  1  0  0  0  0
M  END
>  <minimizedAffinity>
-6.35952759

$$$$

 OpenBabel03272505333D

 40 43  0  0  1  0  0  0  0  0999 V2000
   38.0470   23.7220   34.2260 N   0  0  0  0  0  0  0  0  0  0  0  0
   38.0040   24.9880   33.7510 C   0  0  0  0  0  0  0  0  0  0  0  0
   37.3830   25.3080   32.5550 C   0  0  0  0  0  0  0  0  0  0  0  0
   36.7900   24.2540   31.8450 C   0  0  0  0  0  0  0  0  0  0  0  0
   36.2100   24.4760   30.7530 O   0  0  0  0  0  0  0  0  0  0  0  0
   36.8350   22.9660   32.3320 N   0  0  0  0  0  0  0  0  0  0  0  0
   37.4640   22.7980   33.4930 C   0  0  0  0  0  0  0  0  0  0  0  0
   37.4830   21.6220   33.9000 O   0  0  0  0  0  0  0  0  0  0  0  0
   38.4710   25.7910   34.3200 H   0  0  0  0  0  0  0  0  0  0  0  0
   38.6880   23.3400   37.8710 C   0  0  0  0  0  0  0  0  0  0  0  0
   38.0550   23.6390   36.6540 C   0  0  0  0  0  0  0  0  0  0  0  0
   38.6810   23.4220   35.4380 C   0  0  0  0  0  0  0  0  0  0  0  0
   39.9260   22.9120   35.4700 N   0  0  0  0  0  0  0  0  0  0  0  0
   40.5710   22.6090   36.6400 C   0  0  0  0  0  0  0  0  0  0  0  0
   39.9370   22.8290   37.8270 N   0  0  0  0  0  0  0  0  0  0  0  0
   38.1380   23.5360   38.7800 H   0  0  0  0  0  0  0  0  0  0  0  0
   37.0570   24.0490   36.6260 H   0  0  0  0  0  0  0  0  0  0  0  0
   41.5730   22.1990   36.6370 H   0  0  0  0  0  0  0  0  0  0  0  0
   37.3050   26.6320   32.0000 C   0  0  0  0  0  0  0  0  0  0  0  0
   36.3200   27.5370   32.3170 C   0  0  0  0  0  0  0  0  0  0  0  0
   36.2050   28.8090   31.8130 C   0  0  0  0  0  0  0  0  0  0  0  0
   37.1620   29.2380   30.9010 C   0  0  0  0  0  0  0  0  0  0  0  0
   38.1520   28.3010   30.5950 C   0  0  0  0  0  0  0  0  0  0  0  0
   38.2150   27.0730   31.1180 N   0  0  0  0  0  0  0  0  0  0  0  0
   35.5470   27.2340   33.0340 H   0  0  0  0  0  0  0  0  0  0  0  0
   35.4020   29.4750   32.1040 H   0  0  0  0  0  0  0  0  0  0  0  0
   37.1430   30.2260   30.4570 H   0  0  0  0  0  0  0  0  0  0  0  0
   38.8730   28.0830   28.2570 C   0  0  1  0  0  3  0  0  0  0  0  0
   39.2280   28.6530   29.6300 C   0  0  1  0  0  3  0  0  0  0  0  0
   39.2780   30.0010   29.3450 O   0  0  0  0  0  0  0  0  0  0  0  0
   40.0020   30.1220   28.1860 C   0  0  0  0  0  2  0  0  0  0  0  0
   39.9330   28.8160   27.4290 C   0  0  1  0  0  3  0  0  0  0  0  0
   39.0200   26.7040   28.2080 O   0  0  0  0  0  0  0  0  0  0  0  0
   38.9440   26.4150   29.1730 H   0  0  0  0  0  0  0  0  0  0  0  0
   41.1600   28.1580   27.6460 O   0  0  0  0  0  0  0  0  0  0  0  0
   41.0160   27.2960   28.1380 H   0  0  0  0  0  0  0  0  0  0  0  0
   36.2240   21.8980   31.5950 C   0  0  0  0  0  0  0  0  0  0  0  0
   35.3060   22.3690   30.7220 F   0  0  0  0  0  0  0  0  0  0  0  0
   35.5550   20.9870   32.3980 F   0  0  0  0  0  0  0  0  0  0  0  0
   37.2120   21.2370   30.8690 F   0  0  0  0  0  0  0  0  0  0  0  0
  1 12  1  0  0  0  0
  2  1  1  0  0  0  0
  2  9  1  0  0  0  0
  3  2  2  0  0  0  0
  4  6  1  0  0  0  0
  4  3  1  0  0  0  0
  5  4  2  0  0  0  0
  6  7  1  0  0  0  0
  7  8  2  0  0  0  0
  7  1  1  0  0  0  0
 10 16  1  0  0  0  0
 11 10  2  0  0  0  0
 12 13  2  0  0  0  0
 12 11  1  0  0  0  0
 13 14  1  0  0  0  0
 14 15  2  0  0  0  0
 15 10  1  0  0  0  0
 17 11  1  0  0  0  0
 18 14  1  0  0  0  0
 19 20  1  0  0  0  0
 19  3  1  0  0  0  0
 20 25  1  0  0  0  0
 21 26  1  0  0  0  0
 21 20  2  0  0  0  0
 22 21  1  0  0  0  0
 23 22  2  0  0  0  0
 23 24  1  0  0  0  0
 24 19  2  0  0  0  0
 27 22  1  0  0  0  0
 28 33  1  1  0  0  0
 28 29  1  0  0  0  0
 29 23  1  1  0  0  0
 30 29  1  0  0  0  0
 31 30  1  0  0  0  0
 32 35  1  1  0  0  0
 32 31  1  0  0  0  0
 32 28  1  0  0  0  0
 33 34  1  0  0  0  0
 35 36  1  0  0  0  0
 37  6  1  0  0  0  0
 37 39  1  0  0  0  0
 38 37  1  0  0  0  0
 40 37  1  0  0  0  0
M  END
>  <minimizedAffinity>
-6.3547864

$$$$

 OpenBabel03272505333D

 40 43  0  0  1  0  0  0  0  0999 V2000
   36.8980   27.7780   33.8250 N   0  0  0  0  0  0  0  0  0  0  0  0
   37.1160   26.9440   34.8680 C   0  0  0  0  0  0  0  0  0  0  0  0
   38.1020   25.9720   34.8440 C   0  0  0  0  0  0  0  0  0  0  0  0
   38.8790   25.8840   33.6800 C   0  0  0  0  0  0  0  0  0  0  0  0
   39.7910   25.0240   33.5940 O   0  0  0  0  0  0  0  0  0  0  0  0
   38.6560   26.7340   32.6200 N   0  0  0  0  0  0  0  0  0  0  0  0
   37.6760   27.6220   32.7750 C   0  0  0  0  0  0  0  0  0  0  0  0
   37.5040   28.3720   31.7960 O   0  0  0  0  0  0  0  0  0  0  0  0
   36.5000   27.0310   35.7620 H   0  0  0  0  0  0  0  0  0  0  0  0
   34.9670   30.8080   34.7900 C   0  0  0  0  0  0  0  0  0  0  0  0
   35.9720   29.8290   34.7400 C   0  0  0  0  0  0  0  0  0  0  0  0
   35.8950   28.7530   33.8710 C   0  0  0  0  0  0  0  0  0  0  0  0
   34.8120   28.6840   33.0740 N   0  0  0  0  0  0  0  0  0  0  0  0
   33.8150   29.6230   33.0980 C   0  0  0  0  0  0  0  0  0  0  0  0
   33.9110   30.6750   33.9600 N   0  0  0  0  0  0  0  0  0  0  0  0
   35.0960   31.6190   35.4930 H   0  0  0  0  0  0  0  0  0  0  0  0
   36.8410   29.8820   35.3790 H   0  0  0  0  0  0  0  0  0  0  0  0
   32.9550   29.5430   32.4450 H   0  0  0  0  0  0  0  0  0  0  0  0
   38.3790   25.0590   35.9200 C   0  0  0  0  0  0  0  0  0  0  0  0
   37.7220   25.0780   37.1270 C   0  0  0  0  0  0  0  0  0  0  0  0
   37.9530   24.2290   38.1810 C   0  0  0  0  0  0  0  0  0  0  0  0
   38.9350   23.2570   38.0320 C   0  0  0  0  0  0  0  0  0  0  0  0
   39.5880   23.2580   36.7980 C   0  0  0  0  0  0  0  0  0  0  0  0
   39.3220   24.1110   35.8040 N   0  0  0  0  0  0  0  0  0  0  0  0
   36.9400   25.8330   37.2810 H   0  0  0  0  0  0  0  0  0  0  0  0
   37.3980   24.2970   39.1090 H   0  0  0  0  0  0  0  0  0  0  0  0
   39.1780   22.5490   38.8150 H   0  0  0  0  0  0  0  0  0  0  0  0
   41.9620   22.9960   36.2230 C   0  0  1  0  0  3  0  0  0  0  0  0
   40.6580   22.2590   36.5280 C   0  0  1  0  0  3  0  0  0  0  0  0
   41.0210   21.5420   37.6480 O   0  0  0  0  0  0  0  0  0  0  0  0
   42.2420   20.9820   37.3660 C   0  0  0  0  0  2  0  0  0  0  0  0
   42.9150   21.7990   36.2870 C   0  0  1  0  0  3  0  0  0  0  0  0
   41.9450   23.5950   34.9710 O   0  0  0  0  0  0  0  0  0  0  0  0
   40.9620   23.7140   34.7700 H   0  0  0  0  0  0  0  0  0  0  0  0
   42.7640   21.0800   35.0840 O   0  0  0  0  0  0  0  0  0  0  0  0
   42.2140   21.6020   34.4280 H   0  0  0  0  0  0  0  0  0  0  0  0
   39.4580   26.6330   31.4360 C   0  0  0  0  0  0  0  0  0  0  0  0
   38.6960   26.7030   30.3220 F   0  0  0  0  0  0  0  0  0  0  0  0
   40.1560   25.4370   31.3440 F   0  0  0  0  0  0  0  0  0  0  0  0
   40.3570   27.6960   31.4140 F   0  0  0  0  0  0  0  0  0  0  0  0
  1 12  1  0  0  0  0
  1  2  1  0  0  0  0
  2  9  1  0  0  0  0
  3  2  2  0  0  0  0
  3 19  1  0  0  0  0
  4  3  1  0  0  0  0
  5  4  2  0  0  0  0
  6  7  1  0  0  0  0
  6  4  1  0  0  0  0
  7  1  1  0  0  0  0
  8  7  2  0  0  0  0
 10 16  1  0  0  0  0
 11 10  1  0  0  0  0
 11 17  1  0  0  0  0
 12 11  2  0  0  0  0
 13 14  2  0  0  0  0
 13 12  1  0  0  0  0
 14 15  1  0  0  0  0
 15 10  2  0  0  0  0
 18 14  1  0  0  0  0
 19 20  1  0  0  0  0
 20 25  1  0  0  0  0
 20 21  2  0  0  0  0
 21 26  1  0  0  0  0
 22 21  1  0  0  0  0
 22 27  1  0  0  0  0
 23 22  2  0  0  0  0
 24 19  2  0  0  0  0
 24 23  1  0  0  0  0
 28 33  1  6  0  0  0
 28 32  1  0  0  0  0
 28 29  1  0  0  0  0
 29 23  1  1  0  0  0
 29 30  1  0  0  0  0
 31 30  1  0  0  0  0
 32 35  1  6  0  0  0
 32 31  1  0  0  0  0
 34 33  1  0  0  0  0
 36 35  1  0  0  0  0
 37  6  1  0  0  0  0
 38 37  1  0  0  0  0
 39 37  1  0  0  0  0
 40 37  1  0  0  0  0
M  END
>  <minimizedAffinity>
-6.34459686

$$$$

 OpenBabel03272505333D

 40 43  0  0  1  0  0  0  0  0999 V2000
   38.1280   23.4270   34.5220 N   0  0  0  0  0  0  0  0  0  0  0  0
   38.5410   24.4350   33.7200 C   0  0  0  0  0  0  0  0  0  0  0  0
   38.2180   24.4900   32.3740 C   0  0  0  0  0  0  0  0  0  0  0  0
   37.4330   23.4440   31.8660 C   0  0  0  0  0  0  0  0  0  0  0  0
   37.1050   23.4340   30.6540 O   0  0  0  0  0  0  0  0  0  0  0  0
   37.0130   22.4200   32.6850 N   0  0  0  0  0  0  0  0  0  0  0  0
   37.3950   22.4910   33.9590 C   0  0  0  0  0  0  0  0  0  0  0  0
   36.9960   21.5480   34.6670 O   0  0  0  0  0  0  0  0  0  0  0  0
   39.1500   25.2380   34.1360 H   0  0  0  0  0  0  0  0  0  0  0  0
   39.9670   22.7390   37.6810 C   0  0  0  0  0  0  0  0  0  0  0  0
   39.6250   22.7740   36.3200 C   0  0  0  0  0  0  0  0  0  0  0  0
   38.4670   23.3930   35.8790 C   0  0  0  0  0  0  0  0  0  0  0  0
   37.6800   23.9610   36.8130 N   0  0  0  0  0  0  0  0  0  0  0  0
   37.9860   23.9430   38.1470 C   0  0  0  0  0  0  0  0  0  0  0  0
   39.1320   23.3290   38.5610 N   0  0  0  0  0  0  0  0  0  0  0  0
   40.8860   22.2380   37.9510 H   0  0  0  0  0  0  0  0  0  0  0  0
   40.2540   22.3200   35.5700 H   0  0  0  0  0  0  0  0  0  0  0  0
   37.3350   24.4080   38.8780 H   0  0  0  0  0  0  0  0  0  0  0  0
   38.6280   25.5340   31.4740 C   0  0  0  0  0  0  0  0  0  0  0  0
   39.8050   25.5140   30.7660 C   0  0  0  0  0  0  0  0  0  0  0  0
   40.2380   26.4850   29.8980 C   0  0  0  0  0  0  0  0  0  0  0  0
   39.4260   27.5960   29.7050 C   0  0  0  0  0  0  0  0  0  0  0  0
   38.2350   27.5940   30.4350 C   0  0  0  0  0  0  0  0  0  0  0  0
   37.8640   26.6180   31.2690 N   0  0  0  0  0  0  0  0  0  0  0  0
   40.4740   24.6520   30.8920 H   0  0  0  0  0  0  0  0  0  0  0  0
   41.1800   26.4090   29.3680 H   0  0  0  0  0  0  0  0  0  0  0  0
   39.6940   28.4070   29.0380 H   0  0  0  0  0  0  0  0  0  0  0  0
   36.7730   29.1140   31.6930 C   0  0  1  0  0  3  0  0  0  0  0  0
   37.2880   28.7340   30.3060 C   0  0  1  0  0  3  0  0  0  0  0  0
   37.9040   29.9080   29.9280 O   0  0  0  0  0  0  0  0  0  0  0  0
   37.0290   30.9180   30.2380 C   0  0  0  0  0  2  0  0  0  0  0  0
   36.0970   30.4380   31.3260 C   0  0  1  0  0  3  0  0  0  0  0  0
   35.8760   28.1810   32.1940 O   0  0  0  0  0  0  0  0  0  0  0  0
   36.1010   27.3330   31.6940 H   0  0  0  0  0  0  0  0  0  0  0  0
   34.8740   30.1240   30.7000 O   0  0  0  0  0  0  0  0  0  0  0  0
   34.6700   29.1470   30.7970 H   0  0  0  0  0  0  0  0  0  0  0  0
   36.2110   21.3570   32.1520 C   0  0  0  0  0  0  0  0  0  0  0  0
   36.3920   20.2120   32.8480 F   0  0  0  0  0  0  0  0  0  0  0  0
   36.5070   21.0520   30.8320 F   0  0  0  0  0  0  0  0  0  0  0  0
   34.8700   21.7180   32.2530 F   0  0  0  0  0  0  0  0  0  0  0  0
  1 12  1  0  0  0  0
  2  9  1  0  0  0  0
  2  1  1  0  0  0  0
  3  2  2  0  0  0  0
  4  3  1  0  0  0  0
  4  6  1  0  0  0  0
  5  4  2  0  0  0  0
  6  7  1  0  0  0  0
  7  1  1  0  0  0  0
  7  8  2  0  0  0  0
 10 16  1  0  0  0  0
 10 15  1  0  0  0  0
 11 10  2  0  0  0  0
 12 11  1  0  0  0  0
 12 13  2  0  0  0  0
 13 14  1  0  0  0  0
 14 15  2  0  0  0  0
 14 18  1  0  0  0  0
 17 11  1  0  0  0  0
 19  3  1  0  0  0  0
 20 25  1  0  0  0  0
 20 19  2  0  0  0  0
 21 20  1  0  0  0  0
 22 21  2  0  0  0  0
 22 23  1  0  0  0  0
 23 24  2  0  0  0  0
 24 19  1  0  0  0  0
 26 21  1  0  0  0  0
 27 22  1  0  0  0  0
 28 33  1  6  0  0  0
 29 23  1  1  0  0  0
 29 28  1  0  0  0  0
 30 31  1  0  0  0  0
 30 29  1  0  0  0  0
 31 32  1  0  0  0  0
 32 35  1  6  0  0  0
 32 28  1  0  0  0  0
 34 33  1  0  0  0  0
 35 36  1  0  0  0  0
 37 40  1  0  0  0  0
 37  6  1  0  0  0  0
 37 38  1  0  0  0  0
 39 37  1  0  0  0  0
M  END
>  <minimizedAffinity>
-6.28691626

$$$$
