
 OpenBabel03272506133D

 44 47  0  0  1  0  0  0  0  0999 V2000
   38.8340   22.2540   33.5310 C   0  0  1  0  0  0  0  0  0  0  0  0
   40.0400   22.1600   32.5140 C   0  0  0  0  0  0  0  0  0  0  0  0
   41.1280   21.2250   33.0280 C   0  0  0  0  0  0  0  0  0  0  0  0
   41.3950   21.5210   34.4750 C   0  0  0  0  0  0  0  0  0  0  0  0
   40.9300   22.9130   34.7570 C   0  0  0  0  0  0  0  0  0  0  0  0
   39.4270   22.9340   34.7200 C   0  0  2  0  0  0  0  0  0  0  0  0
   38.6680   21.2960   33.9200 H   0  0  0  0  0  0  0  0  0  0  0  0
   39.6940   21.9530   31.5110 H   0  0  0  0  0  0  0  0  0  0  0  0
   40.4440   23.1870   32.5150 H   0  0  0  0  0  0  0  0  0  0  0  0
   40.9040   20.1640   32.8090 H   0  0  0  0  0  0  0  0  0  0  0  0
   42.0300   21.4710   32.4450 H   0  0  0  0  0  0  0  0  0  0  0  0
   40.7990   20.8380   35.0840 H   0  0  0  0  0  0  0  0  0  0  0  0
   42.4840   21.4550   34.7250 H   0  0  0  0  0  0  0  0  0  0  0  0
   41.2010   23.0920   35.8290 H   0  0  0  0  0  0  0  0  0  0  0  0
   41.4300   23.7140   34.2150 H   0  0  0  0  0  0  0  0  0  0  0  0
   39.1680   23.9880   34.8800 H   0  0  0  0  0  0  0  0  0  0  0  0
   36.7330   22.3670   32.3280 C   0  0  0  0  0  0  0  0  0  0  0  0
   35.7570   23.1990   31.7470 C   0  0  0  0  0  0  0  0  0  0  0  0
   35.8420   24.5510   31.6240 C   0  0  0  0  0  0  0  0  0  0  0  0
   36.9740   25.2040   32.0960 C   0  0  0  0  0  0  0  0  0  0  0  0
   37.9420   24.4010   32.6680 C   0  0  0  0  0  0  0  0  0  0  0  0
   37.8470   23.0250   32.7940 C   0  0  0  0  0  0  0  0  0  0  0  0
   34.7910   22.8510   31.3310 H   0  0  0  0  0  0  0  0  0  0  0  0
   35.0800   25.1380   31.1830 H   0  0  0  0  0  0  0  0  0  0  0  0
   37.0440   26.2770   31.9980 H   0  0  0  0  0  0  0  0  0  0  0  0
   38.7870   24.9970   32.9870 H   0  0  0  0  0  0  0  0  0  0  0  0
   36.8630   20.2330   31.2000 C   0  0  0  0  0  0  0  0  0  0  0  0
   36.4230   20.9880   32.3110 C   0  0  0  0  0  0  0  0  0  0  0  0
   35.7030   20.3160   33.2910 C   0  0  0  0  0  0  0  0  0  0  0  0
   35.4650   18.9750   33.1190 N   0  0  0  0  0  0  0  0  0  0  0  0
   35.8880   18.2830   32.0640 C   0  0  0  0  0  0  0  0  0  0  0  0
   36.5850   18.9220   31.1140 N   0  0  0  0  0  0  0  0  0  0  0  0
   37.4390   20.5290   30.3360 H   0  0  0  0  0  0  0  0  0  0  0  0
   35.2510   20.6130   34.1530 H   0  0  0  0  0  0  0  0  0  0  0  0
   35.6770   17.2080   31.9620 H   0  0  0  0  0  0  0  0  0  0  0  0
   39.5690   22.8460   37.2280 C   0  0  1  0  0  3  0  0  0  0  0  0
   38.8630   22.3410   36.0420 C   0  0  1  0  0  3  0  0  0  0  0  0
   37.5420   22.7410   36.0690 O   0  0  0  0  0  0  0  0  0  0  0  0
   37.4010   23.6280   37.1320 C   0  0  0  0  0  2  0  0  0  0  0  0
   38.4030   23.1250   38.1780 C   0  0  2  0  0  3  0  0  0  0  0  0
   40.3200   21.8300   37.7980 O   0  0  0  0  0  0  0  0  0  0  0  0
   39.6640   21.0740   37.9380 H   0  0  0  0  0  0  0  0  0  0  0  0
   38.7870   24.0950   39.0680 O   0  0  0  0  0  0  0  0  0  0  0  0
   38.0780   24.5140   39.5800 H   0  0  0  0  0  0  0  0  0  0  0  0
  1  7  1  1  0  0  0
  1  6  1  0  0  0  0
  2  9  1  0  0  0  0
  2  3  1  0  0  0  0
  2  1  1  0  0  0  0
  3  4  1  0  0  0  0
  4 13  1  0  0  0  0
  4  5  1  0  0  0  0
  4 12  1  0  0  0  0
  5 14  1  0  0  0  0
  6  5  1  0  0  0  0
  6 16  1  6  0  0  0
  6 37  1  0  0  0  0
  8  2  1  0  0  0  0
 10  3  1  0  0  0  0
 11  3  1  0  0  0  0
 15  5  1  0  0  0  0
 17 22  1  0  0  0  0
 18 17  2  0  0  0  0
 19 18  1  0  0  0  0
 19 20  2  0  0  0  0
 20 21  1  0  0  0  0
 21 22  2  0  0  0  0
 21 26  1  0  0  0  0
 22  1  1  0  0  0  0
 23 18  1  0  0  0  0
 24 19  1  0  0  0  0
 25 20  1  0  0  0  0
 27 28  1  0  0  0  0
 28 17  1  0  0  0  0
 28 29  2  0  0  0  0
 29 34  1  0  0  0  0
 30 29  1  0  0  0  0
 31 30  2  0  0  0  0
 32 27  2  0  0  0  0
 32 31  1  0  0  0  0
 33 27  1  0  0  0  0
 35 31  1  0  0  0  0
 36 41  1  1  0  0  0
 36 40  1  0  0  0  0
 37 38  1  1  0  0  0
 37 36  1  0  0  0  0
 38 39  1  0  0  0  0
 39 40  1  0  0  0  0
 40 43  1  1  0  0  0
 41 42  1  0  0  0  0
 43 44  1  0  0  0  0
M  END
>  <minimizedAffinity>
-5.96826315

$$$$

 OpenBabel03272506133D

 44 47  0  0  1  0  0  0  0  0999 V2000
   38.1380   26.8180   33.3390 C   0  0  1  0  0  0  0  0  0  0  0  0
   38.9590   27.1440   34.6500 C   0  0  0  0  0  0  0  0  0  0  0  0
   40.1450   26.2020   34.8100 C   0  0  0  0  0  0  0  0  0  0  0  0
   39.7040   24.7940   34.5390 C   0  0  0  0  0  0  0  0  0  0  0  0
   38.2230   24.7270   34.7350 C   0  0  0  0  0  0  0  0  0  0  0  0
   37.5560   25.4710   33.6130 C   0  0  2  0  0  0  0  0  0  0  0  0
   38.8230   26.5810   32.5830 H   0  0  0  0  0  0  0  0  0  0  0  0
   39.1960   28.1960   34.7140 H   0  0  0  0  0  0  0  0  0  0  0  0
   38.2360   26.9220   35.4540 H   0  0  0  0  0  0  0  0  0  0  0  0
   41.0220   26.5320   34.2200 H   0  0  0  0  0  0  0  0  0  0  0  0
   40.4460   26.2810   35.8670 H   0  0  0  0  0  0  0  0  0  0  0  0
   39.9140   24.5600   33.4930 H   0  0  0  0  0  0  0  0  0  0  0  0
   40.1860   24.0600   35.2320 H   0  0  0  0  0  0  0  0  0  0  0  0
   37.9630   23.6490   34.5710 H   0  0  0  0  0  0  0  0  0  0  0  0
   37.8540   24.9440   35.7360 H   0  0  0  0  0  0  0  0  0  0  0  0
   36.4870   25.4230   33.8550 H   0  0  0  0  0  0  0  0  0  0  0  0
   37.0150   28.5460   32.0630 C   0  0  0  0  0  0  0  0  0  0  0  0
   35.9800   29.5000   32.0380 C   0  0  0  0  0  0  0  0  0  0  0  0
   35.1730   29.8190   33.0850 C   0  0  0  0  0  0  0  0  0  0  0  0
   35.3560   29.1750   34.3020 C   0  0  0  0  0  0  0  0  0  0  0  0
   36.3690   28.2370   34.3440 C   0  0  0  0  0  0  0  0  0  0  0  0
   37.1840   27.9120   33.2730 C   0  0  0  0  0  0  0  0  0  0  0  0
   35.6880   30.0970   31.1510 H   0  0  0  0  0  0  0  0  0  0  0  0
   34.4020   30.5410   33.0180 H   0  0  0  0  0  0  0  0  0  0  0  0
   34.7170   29.4280   35.1350 H   0  0  0  0  0  0  0  0  0  0  0  0
   36.4440   27.8050   35.3340 H   0  0  0  0  0  0  0  0  0  0  0  0
   37.0910   28.8420   29.6660 C   0  0  0  0  0  0  0  0  0  0  0  0
   37.7310   28.4150   30.8510 C   0  0  0  0  0  0  0  0  0  0  0  0
   39.0080   27.8830   30.7280 C   0  0  0  0  0  0  0  0  0  0  0  0
   39.5620   27.8040   29.4750 N   0  0  0  0  0  0  0  0  0  0  0  0
   38.9410   28.2110   28.3700 C   0  0  0  0  0  0  0  0  0  0  0  0
   37.7090   28.7270   28.4780 N   0  0  0  0  0  0  0  0  0  0  0  0
   36.1210   29.2910   29.5160 H   0  0  0  0  0  0  0  0  0  0  0  0
   39.6640   27.4800   31.3930 H   0  0  0  0  0  0  0  0  0  0  0  0
   39.4180   28.1310   27.3820 H   0  0  0  0  0  0  0  0  0  0  0  0
   37.1680   23.2010   32.6060 C   0  0  1  0  0  3  0  0  0  0  0  0
   37.5540   24.5920   32.3300 C   0  0  1  0  0  3  0  0  0  0  0  0
   36.6250   25.1880   31.5000 O   0  0  0  0  0  0  0  0  0  0  0  0
   35.5630   24.2980   31.3640 C   0  0  0  0  0  2  0  0  0  0  0  0
   36.2190   22.9130   31.4410 C   0  0  2  0  0  3  0  0  0  0  0  0
   38.2640   22.3680   32.4490 O   0  0  0  0  0  0  0  0  0  0  0  0
   38.6130   22.5760   31.5230 H   0  0  0  0  0  0  0  0  0  0  0  0
   35.3480   21.9240   31.8210 O   0  0  0  0  0  0  0  0  0  0  0  0
   34.5660   21.8020   31.2600 H   0  0  0  0  0  0  0  0  0  0  0  0
  1  7  1  6  0  0  0
  1  6  1  0  0  0  0
  1  2  1  0  0  0  0
  2  8  1  0  0  0  0
  2  3  1  0  0  0  0
  2  9  1  0  0  0  0
  3 11  1  0  0  0  0
  4  5  1  0  0  0  0
  4  3  1  0  0  0  0
  4 13  1  0  0  0  0
  5 15  1  0  0  0  0
  6 16  1  1  0  0  0
  6  5  1  0  0  0  0
 10  3  1  0  0  0  0
 12  4  1  0  0  0  0
 14  5  1  0  0  0  0
 17 22  1  0  0  0  0
 18 17  2  0  0  0  0
 18 19  1  0  0  0  0
 19 20  2  0  0  0  0
 20 21  1  0  0  0  0
 20 25  1  0  0  0  0
 21 26  1  0  0  0  0
 22  1  1  0  0  0  0
 22 21  2  0  0  0  0
 23 18  1  0  0  0  0
 24 19  1  0  0  0  0
 27 28  1  0  0  0  0
 28 17  1  0  0  0  0
 29 28  2  0  0  0  0
 29 34  1  0  0  0  0
 30 29  1  0  0  0  0
 31 32  1  0  0  0  0
 31 30  2  0  0  0  0
 32 27  2  0  0  0  0
 33 27  1  0  0  0  0
 35 31  1  0  0  0  0
 36 41  1  6  0  0  0
 37 38  1  6  0  0  0
 37 36  1  0  0  0  0
 37  6  1  0  0  0  0
 39 40  1  0  0  0  0
 39 38  1  0  0  0  0
 40 43  1  1  0  0  0
 40 36  1  0  0  0  0
 42 41  1  0  0  0  0
 44 43  1  0  0  0  0
M  END
>  <minimizedAffinity>
-5.88631868

$$$$

 OpenBabel03272506133D

 44 47  0  0  1  0  0  0  0  0999 V2000
   38.7170   25.3910   33.0030 C   0  0  1  0  0  0  0  0  0  0  0  0
   39.1370   26.9100   32.8790 C   0  0  0  0  0  0  0  0  0  0  0  0
   40.5030   27.1610   33.5040 C   0  0  0  0  0  0  0  0  0  0  0  0
   40.5730   26.4750   34.8370 C   0  0  0  0  0  0  0  0  0  0  0  0
   39.1750   26.2560   35.3210 C   0  0  0  0  0  0  0  0  0  0  0  0
   38.5350   25.1940   34.4710 C   0  0  2  0  0  0  0  0  0  0  0  0
   39.5700   24.8080   32.8350 H   0  0  0  0  0  0  0  0  0  0  0  0
   39.0240   27.2670   31.8650 H   0  0  0  0  0  0  0  0  0  0  0  0
   38.3790   27.4260   33.4940 H   0  0  0  0  0  0  0  0  0  0  0  0
   41.3300   26.9100   32.8140 H   0  0  0  0  0  0  0  0  0  0  0  0
   40.5600   28.2490   33.6640 H   0  0  0  0  0  0  0  0  0  0  0  0
   41.0370   25.4960   34.7000 H   0  0  0  0  0  0  0  0  0  0  0  0
   41.1180   27.0880   35.5990 H   0  0  0  0  0  0  0  0  0  0  0  0
   39.2940   25.7930   36.3330 H   0  0  0  0  0  0  0  0  0  0  0  0
   38.5760   27.1480   35.5000 H   0  0  0  0  0  0  0  0  0  0  0  0
   37.5060   25.1310   34.8480 H   0  0  0  0  0  0  0  0  0  0  0  0
   37.1730   24.1140   31.6380 C   0  0  0  0  0  0  0  0  0  0  0  0
   35.9200   24.0870   30.9970 C   0  0  0  0  0  0  0  0  0  0  0  0
   35.0540   25.1320   30.9090 C   0  0  0  0  0  0  0  0  0  0  0  0
   35.4000   26.3500   31.4840 C   0  0  0  0  0  0  0  0  0  0  0  0
   36.6280   26.3930   32.1150 C   0  0  0  0  0  0  0  0  0  0  0  0
   37.5040   25.3230   32.2050 C   0  0  0  0  0  0  0  0  0  0  0  0
   35.4800   23.2010   30.4990 H   0  0  0  0  0  0  0  0  0  0  0  0
   34.1170   25.0650   30.4210 H   0  0  0  0  0  0  0  0  0  0  0  0
   34.7150   27.1800   31.4140 H   0  0  0  0  0  0  0  0  0  0  0  0
   36.8150   27.3820   32.5130 H   0  0  0  0  0  0  0  0  0  0  0  0
   37.2880   21.7430   32.0900 C   0  0  0  0  0  0  0  0  0  0  0  0
   37.9010   22.9050   31.5680 C   0  0  0  0  0  0  0  0  0  0  0  0
   39.1800   22.7680   31.0430 C   0  0  0  0  0  0  0  0  0  0  0  0
   39.7630   21.5250   31.0670 N   0  0  0  0  0  0  0  0  0  0  0  0
   39.1680   20.4440   31.5650 C   0  0  0  0  0  0  0  0  0  0  0  0
   37.9340   20.5650   32.0720 N   0  0  0  0  0  0  0  0  0  0  0  0
   36.3120   21.6040   32.5310 H   0  0  0  0  0  0  0  0  0  0  0  0
   39.8460   23.4250   30.6460 H   0  0  0  0  0  0  0  0  0  0  0  0
   39.6690   19.4640   31.5670 H   0  0  0  0  0  0  0  0  0  0  0  0
   39.7800   23.8410   36.1850 C   0  0  1  0  0  3  0  0  0  0  0  0
   39.0430   23.7930   34.9140 C   0  0  1  0  0  3  0  0  0  0  0  0
   37.8980   23.0350   35.0560 O   0  0  0  0  0  0  0  0  0  0  0  0
   37.7700   22.7310   36.4090 C   0  0  0  0  0  2  0  0  0  0  0  0
   39.2150   22.6170   36.9090 C   0  0  2  0  0  3  0  0  0  0  0  0
   41.1240   23.5930   35.9600 O   0  0  0  0  0  0  0  0  0  0  0  0
   41.1420   22.7210   35.4490 H   0  0  0  0  0  0  0  0  0  0  0  0
   39.3360   22.8140   38.2600 O   0  0  0  0  0  0  0  0  0  0  0  0
   38.8250   22.2170   38.8290 H   0  0  0  0  0  0  0  0  0  0  0  0
  1  7  1  6  0  0  0
  1  6  1  0  0  0  0
  2  1  1  0  0  0  0
  2  9  1  0  0  0  0
  2  3  1  0  0  0  0
  3 11  1  0  0  0  0
  3  4  1  0  0  0  0
  4  5  1  0  0  0  0
  4 13  1  0  0  0  0
  5 15  1  0  0  0  0
  5 14  1  0  0  0  0
  6 16  1  1  0  0  0
  6 37  1  0  0  0  0
  6  5  1  0  0  0  0
  8  2  1  0  0  0  0
 10  3  1  0  0  0  0
 12  4  1  0  0  0  0
 17 22  1  0  0  0  0
 18 17  2  0  0  0  0
 19 18  1  0  0  0  0
 19 20  2  0  0  0  0
 20 21  1  0  0  0  0
 21 22  2  0  0  0  0
 21 26  1  0  0  0  0
 22  1  1  0  0  0  0
 23 18  1  0  0  0  0
 24 19  1  0  0  0  0
 25 20  1  0  0  0  0
 27 33  1  0  0  0  0
 28 17  1  0  0  0  0
 28 27  2  0  0  0  0
 29 30  2  0  0  0  0
 29 28  1  0  0  0  0
 30 31  1  0  0  0  0
 31 35  1  0  0  0  0
 31 32  2  0  0  0  0
 32 27  1  0  0  0  0
 34 29  1  0  0  0  0
 36 41  1  6  0  0  0
 36 40  1  0  0  0  0
 37 38  1  1  0  0  0
 37 36  1  0  0  0  0
 38 39  1  0  0  0  0
 39 40  1  0  0  0  0
 40 43  1  1  0  0  0
 42 41  1  0  0  0  0
 43 44  1  0  0  0  0
M  END
>  <minimizedAffinity>
-5.86174631

$$$$

 OpenBabel03272506133D

 44 47  0  0  1  0  0  0  0  0999 V2000
   40.9830   25.6120   33.9580 C   0  0  1  0  0  0  0  0  0  0  0  0
   41.8970   26.8260   33.5250 C   0  0  0  0  0  0  0  0  0  0  0  0
   43.2600   26.3490   33.0410 C   0  0  0  0  0  0  0  0  0  0  0  0
   43.7930   25.3170   33.9910 C   0  0  0  0  0  0  0  0  0  0  0  0
   43.1040   25.4970   35.3050 C   0  0  0  0  0  0  0  0  0  0  0  0
   41.6730   25.0600   35.1600 C   0  0  2  0  0  0  0  0  0  0  0  0
   41.1380   24.8340   33.2730 H   0  0  0  0  0  0  0  0  0  0  0  0
   41.3760   27.4890   32.8490 H   0  0  0  0  0  0  0  0  0  0  0  0
   42.0440   27.3730   34.4730 H   0  0  0  0  0  0  0  0  0  0  0  0
   43.2390   26.0310   31.9800 H   0  0  0  0  0  0  0  0  0  0  0  0
   43.9150   27.2340   33.0780 H   0  0  0  0  0  0  0  0  0  0  0  0
   43.5330   24.3270   33.6080 H   0  0  0  0  0  0  0  0  0  0  0  0
   44.8950   25.4210   34.1520 H   0  0  0  0  0  0  0  0  0  0  0  0
   43.5770   24.7380   35.9800 H   0  0  0  0  0  0  0  0  0  0  0  0
   43.2630   26.4470   35.8130 H   0  0  0  0  0  0  0  0  0  0  0  0
   41.2250   25.2720   36.1400 H   0  0  0  0  0  0  0  0  0  0  0  0
   38.6780   26.0030   33.3140 C   0  0  0  0  0  0  0  0  0  0  0  0
   37.4290   26.5330   33.6900 C   0  0  0  0  0  0  0  0  0  0  0  0
   37.1790   27.2360   34.8260 C   0  0  0  0  0  0  0  0  0  0  0  0
   38.2180   27.4770   35.7180 C   0  0  0  0  0  0  0  0  0  0  0  0
   39.4500   26.9640   35.3620 C   0  0  0  0  0  0  0  0  0  0  0  0
   39.6980   26.2450   34.2050 C   0  0  0  0  0  0  0  0  0  0  0  0
   36.4930   26.4270   33.1070 H   0  0  0  0  0  0  0  0  0  0  0  0
   36.2200   27.6130   35.0710 H   0  0  0  0  0  0  0  0  0  0  0  0
   38.0200   28.0360   36.6200 H   0  0  0  0  0  0  0  0  0  0  0  0
   40.1940   27.2180   36.1070 H   0  0  0  0  0  0  0  0  0  0  0  0
   38.1870   24.0130   32.0340 C   0  0  0  0  0  0  0  0  0  0  0  0
   38.6880   25.3340   32.0690 C   0  0  0  0  0  0  0  0  0  0  0  0
   39.1680   25.8640   30.8780 C   0  0  0  0  0  0  0  0  0  0  0  0
   39.1290   25.0770   29.7530 N   0  0  0  0  0  0  0  0  0  0  0  0
   38.6530   23.8340   29.7420 C   0  0  0  0  0  0  0  0  0  0  0  0
   38.1860   23.3140   30.8860 N   0  0  0  0  0  0  0  0  0  0  0  0
   37.7580   23.4050   32.8160 H   0  0  0  0  0  0  0  0  0  0  0  0
   39.6030   26.7500   30.6330 H   0  0  0  0  0  0  0  0  0  0  0  0
   38.6380   23.2350   28.8200 H   0  0  0  0  0  0  0  0  0  0  0  0
   41.8840   22.9560   36.5180 C   0  0  1  0  0  3  0  0  0  0  0  0
   41.5930   23.5070   35.1870 C   0  0  1  0  0  3  0  0  0  0  0  0
   40.2930   23.2180   34.8260 O   0  0  0  0  0  0  0  0  0  0  0  0
   39.6720   22.6510   35.9360 C   0  0  0  0  0  2  0  0  0  0  0  0
   40.7960   21.8870   36.6470 C   0  0  2  0  0  3  0  0  0  0  0  0
   43.1000   22.2930   36.4980 O   0  0  0  0  0  0  0  0  0  0  0  0
   43.0230   21.6370   35.7330 H   0  0  0  0  0  0  0  0  0  0  0  0
   40.5470   21.6750   37.9780 O   0  0  0  0  0  0  0  0  0  0  0  0
   39.7370   21.1870   38.1910 H   0  0  0  0  0  0  0  0  0  0  0  0
  1  7  1  6  0  0  0
  1 22  1  0  0  0  0
  1  6  1  0  0  0  0
  2  1  1  0  0  0  0
  2  9  1  0  0  0  0
  3 11  1  0  0  0  0
  3  2  1  0  0  0  0
  3  4  1  0  0  0  0
  4 13  1  0  0  0  0
  4  5  1  0  0  0  0
  5 15  1  0  0  0  0
  5 14  1  0  0  0  0
  6 37  1  0  0  0  0
  6  5  1  0  0  0  0
  6 16  1  1  0  0  0
  8  2  1  0  0  0  0
 10  3  1  0  0  0  0
 12  4  1  0  0  0  0
 17 18  2  0  0  0  0
 17 22  1  0  0  0  0
 18 19  1  0  0  0  0
 19 24  1  0  0  0  0
 19 20  2  0  0  0  0
 20 25  1  0  0  0  0
 21 20  1  0  0  0  0
 21 26  1  0  0  0  0
 22 21  2  0  0  0  0
 23 18  1  0  0  0  0
 27 28  1  0  0  0  0
 27 33  1  0  0  0  0
 28 17  1  0  0  0  0
 29 28  2  0  0  0  0
 30 29  1  0  0  0  0
 31 30  2  0  0  0  0
 31 32  1  0  0  0  0
 32 27  2  0  0  0  0
 34 29  1  0  0  0  0
 35 31  1  0  0  0  0
 36 41  1  6  0  0  0
 36 40  1  0  0  0  0
 37 38  1  1  0  0  0
 37 36  1  0  0  0  0
 38 39  1  0  0  0  0
 39 40  1  0  0  0  0
 40 43  1  1  0  0  0
 42 41  1  0  0  0  0
 43 44  1  0  0  0  0
M  END
>  <minimizedAffinity>
-5.77322149

$$$$

 OpenBabel03272506133D

 44 47  0  0  1  0  0  0  0  0999 V2000
   38.6580   23.4500   33.1850 C   0  0  1  0  0  0  0  0  0  0  0  0
   39.9920   22.6370   32.9430 C   0  0  0  0  0  0  0  0  0  0  0  0
   41.1960   23.5640   32.8410 C   0  0  0  0  0  0  0  0  0  0  0  0
   40.8580   24.7230   31.9490 C   0  0  0  0  0  0  0  0  0  0  0  0
   39.7160   24.3160   31.0730 C   0  0  0  0  0  0  0  0  0  0  0  0
   38.4760   24.2160   31.9170 C   0  0  2  0  0  0  0  0  0  0  0  0
   38.8750   24.2290   33.8510 H   0  0  0  0  0  0  0  0  0  0  0  0
   40.0940   21.8290   33.6540 H   0  0  0  0  0  0  0  0  0  0  0  0
   39.8260   22.1820   31.9510 H   0  0  0  0  0  0  0  0  0  0  0  0
   41.5900   23.8490   33.8360 H   0  0  0  0  0  0  0  0  0  0  0  0
   41.9890   22.9690   32.3610 H   0  0  0  0  0  0  0  0  0  0  0  0
   40.5220   25.5540   32.5730 H   0  0  0  0  0  0  0  0  0  0  0  0
   41.7180   25.0170   31.2960 H   0  0  0  0  0  0  0  0  0  0  0  0
   39.5460   25.1960   30.4020 H   0  0  0  0  0  0  0  0  0  0  0  0
   39.8970   23.4870   30.3920 H   0  0  0  0  0  0  0  0  0  0  0  0
   37.7040   23.8640   31.2220 H   0  0  0  0  0  0  0  0  0  0  0  0
   37.4340   22.0490   34.7390 C   0  0  0  0  0  0  0  0  0  0  0  0
   36.3800   21.1320   34.9110 C   0  0  0  0  0  0  0  0  0  0  0  0
   35.6240   20.6000   33.9130 C   0  0  0  0  0  0  0  0  0  0  0  0
   35.8850   20.9630   32.5970 C   0  0  0  0  0  0  0  0  0  0  0  0
   36.9170   21.8610   32.4120 C   0  0  0  0  0  0  0  0  0  0  0  0
   37.6800   22.4040   33.4320 C   0  0  0  0  0  0  0  0  0  0  0  0
   36.0280   20.7430   35.8880 H   0  0  0  0  0  0  0  0  0  0  0  0
   34.8360   19.9150   34.0900 H   0  0  0  0  0  0  0  0  0  0  0  0
   35.2860   20.5410   31.8050 H   0  0  0  0  0  0  0  0  0  0  0  0
   37.0540   22.0680   31.3580 H   0  0  0  0  0  0  0  0  0  0  0  0
   37.3810   23.2810   36.8170 C   0  0  0  0  0  0  0  0  0  0  0  0
   38.0860   22.4330   35.9320 C   0  0  0  0  0  0  0  0  0  0  0  0
   39.3730   22.0600   36.2980 C   0  0  0  0  0  0  0  0  0  0  0  0
   39.8760   22.5360   37.4840 N   0  0  0  0  0  0  0  0  0  0  0  0
   39.1950   23.3340   38.3030 C   0  0  0  0  0  0  0  0  0  0  0  0
   37.9520   23.6980   37.9600 N   0  0  0  0  0  0  0  0  0  0  0  0
   36.3820   23.6850   36.7540 H   0  0  0  0  0  0  0  0  0  0  0  0
   40.0940   21.5040   35.8460 H   0  0  0  0  0  0  0  0  0  0  0  0
   39.6320   23.6950   39.2460 H   0  0  0  0  0  0  0  0  0  0  0  0
   38.0290   26.5250   31.0310 C   0  0  1  0  0  3  0  0  0  0  0  0
   37.9190   25.6400   32.1990 C   0  0  1  0  0  3  0  0  0  0  0  0
   36.5910   25.4380   32.5210 O   0  0  0  0  0  0  0  0  0  0  0  0
   35.8290   26.0140   31.5080 C   0  0  0  0  0  2  0  0  0  0  0  0
   36.6630   27.2160   31.0460 C   0  0  2  0  0  3  0  0  0  0  0  0
   38.9790   27.5040   31.2690 O   0  0  0  0  0  0  0  0  0  0  0  0
   38.6980   27.9260   32.1440 H   0  0  0  0  0  0  0  0  0  0  0  0
   36.3650   27.6210   29.7700 O   0  0  0  0  0  0  0  0  0  0  0  0
   35.4440   27.8760   29.6050 H   0  0  0  0  0  0  0  0  0  0  0  0
  1 22  1  0  0  0  0
  1  7  1  1  0  0  0
  2  1  1  0  0  0  0
  2  8  1  0  0  0  0
  3  2  1  0  0  0  0
  3 10  1  0  0  0  0
  4 12  1  0  0  0  0
  4  3  1  0  0  0  0
  5  6  1  0  0  0  0
  5  4  1  0  0  0  0
  6 16  1  6  0  0  0
  6 37  1  0  0  0  0
  6  1  1  0  0  0  0
  9  2  1  0  0  0  0
 11  3  1  0  0  0  0
 13  4  1  0  0  0  0
 14  5  1  0  0  0  0
 15  5  1  0  0  0  0
 17 18  1  0  0  0  0
 17 28  1  0  0  0  0
 18 23  1  0  0  0  0
 19 24  1  0  0  0  0
 19 18  2  0  0  0  0
 20 19  1  0  0  0  0
 21 20  2  0  0  0  0
 21 22  1  0  0  0  0
 22 17  2  0  0  0  0
 25 20  1  0  0  0  0
 26 21  1  0  0  0  0
 27 32  1  0  0  0  0
 28 29  1  0  0  0  0
 28 27  2  0  0  0  0
 29 30  2  0  0  0  0
 30 31  1  0  0  0  0
 31 35  1  0  0  0  0
 32 31  2  0  0  0  0
 33 27  1  0  0  0  0
 34 29  1  0  0  0  0
 36 40  1  0  0  0  0
 36 41  1  1  0  0  0
 36 37  1  0  0  0  0
 37 38  1  6  0  0  0
 39 38  1  0  0  0  0
 40 43  1  6  0  0  0
 40 39  1  0  0  0  0
 41 42  1  0  0  0  0
 44 43  1  0  0  0  0
M  END
>  <minimizedAffinity>
-5.73441982

$$$$

 OpenBabel03272506133D

 44 47  0  0  1  0  0  0  0  0999 V2000
   37.7960   25.3620   32.8420 C   0  0  1  0  0  0  0  0  0  0  0  0
   37.1160   26.4330   31.9000 C   0  0  0  0  0  0  0  0  0  0  0  0
   35.6960   26.0240   31.5300 C   0  0  0  0  0  0  0  0  0  0  0  0
   35.6800   24.5740   31.1430 C   0  0  0  0  0  0  0  0  0  0  0  0
   37.0670   24.1860   30.7410 C   0  0  0  0  0  0  0  0  0  0  0  0
   37.9320   24.1580   31.9690 C   0  0  2  0  0  0  0  0  0  0  0  0
   37.0720   25.0260   33.5200 H   0  0  0  0  0  0  0  0  0  0  0  0
   37.2160   27.4310   32.3020 H   0  0  0  0  0  0  0  0  0  0  0  0
   37.7340   26.3840   30.9860 H   0  0  0  0  0  0  0  0  0  0  0  0
   34.9650   26.2990   32.3150 H   0  0  0  0  0  0  0  0  0  0  0  0
   35.4340   26.6280   30.6470 H   0  0  0  0  0  0  0  0  0  0  0  0
   35.4080   23.9840   32.0210 H   0  0  0  0  0  0  0  0  0  0  0  0
   34.9930   24.3750   30.2820 H   0  0  0  0  0  0  0  0  0  0  0  0
   36.9800   23.1170   30.4160 H   0  0  0  0  0  0  0  0  0  0  0  0
   37.4840   24.6980   29.8750 H   0  0  0  0  0  0  0  0  0  0  0  0
   38.9340   23.9230   31.5880 H   0  0  0  0  0  0  0  0  0  0  0  0
   39.5790   25.7000   34.4500 C   0  0  0  0  0  0  0  0  0  0  0  0
   40.8510   26.2520   34.6920 C   0  0  0  0  0  0  0  0  0  0  0  0
   41.5510   27.0330   33.8260 C   0  0  0  0  0  0  0  0  0  0  0  0
   40.9980   27.3390   32.5890 C   0  0  0  0  0  0  0  0  0  0  0  0
   39.7490   26.8060   32.3370 C   0  0  0  0  0  0  0  0  0  0  0  0
   39.0420   26.0070   33.2210 C   0  0  0  0  0  0  0  0  0  0  0  0
   41.4430   26.1020   35.6160 H   0  0  0  0  0  0  0  0  0  0  0  0
   42.5100   27.4230   34.0490 H   0  0  0  0  0  0  0  0  0  0  0  0
   41.5520   27.9590   31.9010 H   0  0  0  0  0  0  0  0  0  0  0  0
   39.3960   27.1130   31.3610 H   0  0  0  0  0  0  0  0  0  0  0  0
   39.7890   23.8250   35.9610 C   0  0  0  0  0  0  0  0  0  0  0  0
   39.0470   24.9450   35.5190 C   0  0  0  0  0  0  0  0  0  0  0  0
   37.8430   25.2030   36.1620 C   0  0  0  0  0  0  0  0  0  0  0  0
   37.4510   24.3610   37.1740 N   0  0  0  0  0  0  0  0  0  0  0  0
   38.1650   23.3110   37.5730 C   0  0  0  0  0  0  0  0  0  0  0  0
   39.3290   23.0540   36.9610 N   0  0  0  0  0  0  0  0  0  0  0  0
   40.7410   23.4410   35.6290 H   0  0  0  0  0  0  0  0  0  0  0  0
   37.1150   25.9010   36.0280 H   0  0  0  0  0  0  0  0  0  0  0  0
   37.8180   22.6590   38.3890 H   0  0  0  0  0  0  0  0  0  0  0  0
   36.9560   21.8430   31.9710 C   0  0  1  0  0  3  0  0  0  0  0  0
   37.6630   22.8530   32.7710 C   0  0  1  0  0  3  0  0  0  0  0  0
   38.9170   22.3930   33.1190 O   0  0  0  0  0  0  0  0  0  0  0  0
   39.1220   21.1960   32.4370 C   0  0  0  0  0  2  0  0  0  0  0  0
   37.7240   20.5720   32.3430 C   0  0  2  0  0  3  0  0  0  0  0  0
   35.6640   21.6860   32.4450 O   0  0  0  0  0  0  0  0  0  0  0  0
   35.7740   21.5000   33.4330 H   0  0  0  0  0  0  0  0  0  0  0  0
   37.6030   19.6720   31.3150 O   0  0  0  0  0  0  0  0  0  0  0  0
   38.2140   18.9190   31.3290 H   0  0  0  0  0  0  0  0  0  0  0  0
  1 22  1  0  0  0  0
  1  7  1  1  0  0  0
  2  8  1  0  0  0  0
  2  1  1  0  0  0  0
  3  2  1  0  0  0  0
  3 10  1  0  0  0  0
  4  3  1  0  0  0  0
  4 12  1  0  0  0  0
  5  4  1  0  0  0  0
  5  6  1  0  0  0  0
  6 16  1  6  0  0  0
  6 37  1  0  0  0  0
  6  1  1  0  0  0  0
  9  2  1  0  0  0  0
 11  3  1  0  0  0  0
 13  4  1  0  0  0  0
 14  5  1  0  0  0  0
 15  5  1  0  0  0  0
 17 18  1  0  0  0  0
 17 28  1  0  0  0  0
 18 23  1  0  0  0  0
 19 24  1  0  0  0  0
 19 18  2  0  0  0  0
 20 19  1  0  0  0  0
 21 20  2  0  0  0  0
 21 22  1  0  0  0  0
 22 17  2  0  0  0  0
 25 20  1  0  0  0  0
 26 21  1  0  0  0  0
 27 32  1  0  0  0  0
 28 27  2  0  0  0  0
 28 29  1  0  0  0  0
 29 30  2  0  0  0  0
 30 31  1  0  0  0  0
 31 35  1  0  0  0  0
 32 31  2  0  0  0  0
 33 27  1  0  0  0  0
 34 29  1  0  0  0  0
 36 40  1  0  0  0  0
 36 41  1  1  0  0  0
 36 37  1  0  0  0  0
 37 38  1  6  0  0  0
 39 38  1  0  0  0  0
 40 43  1  6  0  0  0
 40 39  1  0  0  0  0
 41 42  1  0  0  0  0
 43 44  1  0  0  0  0
M  END
>  <minimizedAffinity>
-5.69674826

$$$$

 OpenBabel03272506133D

 44 47  0  0  1  0  0  0  0  0999 V2000
   37.5710   24.3270   32.4020 C   0  0  1  0  0  0  0  0  0  0  0  0
   36.8930   23.7060   31.1160 C   0  0  0  0  0  0  0  0  0  0  0  0
   35.6490   22.9050   31.4770 C   0  0  0  0  0  0  0  0  0  0  0  0
   35.9460   22.0290   32.6590 C   0  0  0  0  0  0  0  0  0  0  0  0
   37.4270   21.8380   32.7330 C   0  0  0  0  0  0  0  0  0  0  0  0
   38.0580   23.1350   33.1550 C   0  0  2  0  0  0  0  0  0  0  0  0
   36.8070   24.6580   33.0380 H   0  0  0  0  0  0  0  0  0  0  0  0
   36.7510   24.4520   30.3470 H   0  0  0  0  0  0  0  0  0  0  0  0
   37.6590   23.0010   30.7510 H   0  0  0  0  0  0  0  0  0  0  0  0
   34.7570   23.5500   31.5950 H   0  0  0  0  0  0  0  0  0  0  0  0
   35.4450   22.2630   30.6050 H   0  0  0  0  0  0  0  0  0  0  0  0
   35.6300   22.5510   33.5650 H   0  0  0  0  0  0  0  0  0  0  0  0
   35.4630   21.0230   32.5710 H   0  0  0  0  0  0  0  0  0  0  0  0
   37.5800   21.1400   33.5960 H   0  0  0  0  0  0  0  0  0  0  0  0
   37.8960   21.3320   31.8900 H   0  0  0  0  0  0  0  0  0  0  0  0
   39.1360   22.9300   33.1330 H   0  0  0  0  0  0  0  0  0  0  0  0
   38.5130   26.5360   32.0730 C   0  0  0  0  0  0  0  0  0  0  0  0
   39.6170   27.2850   31.6220 C   0  0  0  0  0  0  0  0  0  0  0  0
   40.7170   26.7780   31.0040 C   0  0  0  0  0  0  0  0  0  0  0  0
   40.7960   25.4100   30.7750 C   0  0  0  0  0  0  0  0  0  0  0  0
   39.7200   24.6610   31.2090 C   0  0  0  0  0  0  0  0  0  0  0  0
   38.6040   25.1830   31.8430 C   0  0  0  0  0  0  0  0  0  0  0  0
   39.7280   28.3820   31.7330 H   0  0  0  0  0  0  0  0  0  0  0  0
   41.5280   27.3810   30.6870 H   0  0  0  0  0  0  0  0  0  0  0  0
   41.6680   25.0070   30.2830 H   0  0  0  0  0  0  0  0  0  0  0  0
   39.8650   23.6160   30.9700 H   0  0  0  0  0  0  0  0  0  0  0  0
   36.5250   27.8810   31.7950 C   0  0  0  0  0  0  0  0  0  0  0  0
   37.4790   27.2990   32.6600 C   0  0  0  0  0  0  0  0  0  0  0  0
   37.3340   27.5390   34.0210 C   0  0  0  0  0  0  0  0  0  0  0  0
   36.2840   28.3210   34.4350 N   0  0  0  0  0  0  0  0  0  0  0  0
   35.3970   28.8610   33.6030 C   0  0  0  0  0  0  0  0  0  0  0  0
   35.5270   28.6340   32.2890 N   0  0  0  0  0  0  0  0  0  0  0  0
   36.4270   27.8260   30.7220 H   0  0  0  0  0  0  0  0  0  0  0  0
   37.8800   27.2790   34.8380 H   0  0  0  0  0  0  0  0  0  0  0  0
   34.5680   29.4830   33.9740 H   0  0  0  0  0  0  0  0  0  0  0  0
   38.2880   22.1450   35.4540 C   0  0  1  0  0  3  0  0  0  0  0  0
   37.8790   23.3300   34.6870 C   0  0  1  0  0  3  0  0  0  0  0  0
   38.6910   24.4020   35.0000 O   0  0  0  0  0  0  0  0  0  0  0  0
   39.7170   23.9210   35.8080 C   0  0  0  0  0  2  0  0  0  0  0  0
   39.0680   22.7830   36.6050 C   0  0  2  0  0  3  0  0  0  0  0  0
   37.1750   21.5360   36.0090 O   0  0  0  0  0  0  0  0  0  0  0  0
   36.7040   22.2740   36.5160 H   0  0  0  0  0  0  0  0  0  0  0  0
   39.9740   21.8690   37.0780 O   0  0  0  0  0  0  0  0  0  0  0  0
   40.6710   22.2160   37.6570 H   0  0  0  0  0  0  0  0  0  0  0  0
  1  7  1  1  0  0  0
  1  6  1  0  0  0  0
  2  3  1  0  0  0  0
  2  1  1  0  0  0  0
  3 10  1  0  0  0  0
  3  4  1  0  0  0  0
  4  5  1  0  0  0  0
  4 12  1  0  0  0  0
  5  6  1  0  0  0  0
  5 14  1  0  0  0  0
  6 16  1  6  0  0  0
  6 37  1  0  0  0  0
  8  2  1  0  0  0  0
  9  2  1  0  0  0  0
 11  3  1  0  0  0  0
 13  4  1  0  0  0  0
 15  5  1  0  0  0  0
 17 28  1  0  0  0  0
 18 23  1  0  0  0  0
 18 17  2  0  0  0  0
 19 18  1  0  0  0  0
 20 19  2  0  0  0  0
 20 21  1  0  0  0  0
 21 22  2  0  0  0  0
 22 17  1  0  0  0  0
 22  1  1  0  0  0  0
 24 19  1  0  0  0  0
 25 20  1  0  0  0  0
 26 21  1  0  0  0  0
 27 32  2  0  0  0  0
 27 28  1  0  0  0  0
 28 29  2  0  0  0  0
 29 30  1  0  0  0  0
 29 34  1  0  0  0  0
 31 35  1  0  0  0  0
 31 30  2  0  0  0  0
 32 31  1  0  0  0  0
 33 27  1  0  0  0  0
 36 41  1  1  0  0  0
 36 40  1  0  0  0  0
 37 38  1  1  0  0  0
 37 36  1  0  0  0  0
 38 39  1  0  0  0  0
 39 40  1  0  0  0  0
 40 43  1  6  0  0  0
 41 42  1  0  0  0  0
 43 44  1  0  0  0  0
M  END
>  <minimizedAffinity>
-5.63079357

$$$$

 OpenBabel03272506133D

 44 47  0  0  1  0  0  0  0  0999 V2000
   37.8300   26.5990   33.3380 C   0  0  1  0  0  0  0  0  0  0  0  0
   37.4240   26.2270   34.8200 C   0  0  0  0  0  0  0  0  0  0  0  0
   38.1820   27.0770   35.8320 C   0  0  0  0  0  0  0  0  0  0  0  0
   39.6310   27.1340   35.4490 C   0  0  0  0  0  0  0  0  0  0  0  0
   39.9260   25.9580   34.5730 C   0  0  0  0  0  0  0  0  0  0  0  0
   39.2570   26.1710   33.2440 C   0  0  2  0  0  0  0  0  0  0  0  0
   37.9380   27.6400   33.2880 H   0  0  0  0  0  0  0  0  0  0  0  0
   36.3510   26.2150   34.9420 H   0  0  0  0  0  0  0  0  0  0  0  0
   37.7770   25.1850   34.9170 H   0  0  0  0  0  0  0  0  0  0  0  0
   37.7070   28.0640   35.9860 H   0  0  0  0  0  0  0  0  0  0  0  0
   38.0910   26.5440   36.7930 H   0  0  0  0  0  0  0  0  0  0  0  0
   39.7990   28.0400   34.8620 H   0  0  0  0  0  0  0  0  0  0  0  0
   40.3060   27.0880   36.3410 H   0  0  0  0  0  0  0  0  0  0  0  0
   41.0250   26.0280   34.3650 H   0  0  0  0  0  0  0  0  0  0  0  0
   39.7970   24.9740   35.0190 H   0  0  0  0  0  0  0  0  0  0  0  0
   39.4720   25.2520   32.6840 H   0  0  0  0  0  0  0  0  0  0  0  0
   36.0500   26.5170   31.6950 C   0  0  0  0  0  0  0  0  0  0  0  0
   35.2650   25.7040   30.8550 C   0  0  0  0  0  0  0  0  0  0  0  0
   35.2850   24.3450   30.8280 C   0  0  0  0  0  0  0  0  0  0  0  0
   36.1360   23.6610   31.6890 C   0  0  0  0  0  0  0  0  0  0  0  0
   36.9110   24.4450   32.5210 C   0  0  0  0  0  0  0  0  0  0  0  0
   36.8900   25.8300   32.5410 C   0  0  0  0  0  0  0  0  0  0  0  0
   34.5450   26.0780   30.1010 H   0  0  0  0  0  0  0  0  0  0  0  0
   34.6800   23.7730   30.1740 H   0  0  0  0  0  0  0  0  0  0  0  0
   36.1510   22.5820   31.6690 H   0  0  0  0  0  0  0  0  0  0  0  0
   37.5230   23.8250   33.1630 H   0  0  0  0  0  0  0  0  0  0  0  0
   36.4960   28.5710   30.5020 C   0  0  0  0  0  0  0  0  0  0  0  0
   35.8260   27.9050   31.5540 C   0  0  0  0  0  0  0  0  0  0  0  0
   35.0140   28.6750   32.3780 C   0  0  0  0  0  0  0  0  0  0  0  0
   34.9170   30.0200   32.1220 N   0  0  0  0  0  0  0  0  0  0  0  0
   35.5570   30.6270   31.1260 C   0  0  0  0  0  0  0  0  0  0  0  0
   36.3410   29.8940   30.3240 N   0  0  0  0  0  0  0  0  0  0  0  0
   37.1570   28.1880   29.7390 H   0  0  0  0  0  0  0  0  0  0  0  0
   34.4610   28.4660   33.2050 H   0  0  0  0  0  0  0  0  0  0  0  0
   35.4530   31.7090   30.9530 H   0  0  0  0  0  0  0  0  0  0  0  0
   41.5300   26.9060   32.4640 C   0  0  1  0  0  3  0  0  0  0  0  0
   40.0870   27.1740   32.3940 C   0  0  1  0  0  3  0  0  0  0  0  0
   39.6320   26.9970   31.1030 O   0  0  0  0  0  0  0  0  0  0  0  0
   40.6830   26.4590   30.3650 C   0  0  0  0  0  2  0  0  0  0  0  0
   41.9390   27.0690   30.9990 C   0  0  2  0  0  3  0  0  0  0  0  0
   42.1620   27.9130   33.1740 O   0  0  0  0  0  0  0  0  0  0  0  0
   41.8730   28.7680   32.7200 H   0  0  0  0  0  0  0  0  0  0  0  0
   43.0710   26.3270   30.7760 O   0  0  0  0  0  0  0  0  0  0  0  0
   43.3070   26.1710   29.8480 H   0  0  0  0  0  0  0  0  0  0  0  0
  1  7  1  6  0  0  0
  1  2  1  0  0  0  0
  2  9  1  0  0  0  0
  2  8  1  0  0  0  0
  2  3  1  0  0  0  0
  3 10  1  0  0  0  0
  3 11  1  0  0  0  0
  4  3  1  0  0  0  0
  4 13  1  0  0  0  0
  5 15  1  0  0  0  0
  5  4  1  0  0  0  0
  6 16  1  6  0  0  0
  6  1  1  0  0  0  0
  6  5  1  0  0  0  0
 12  4  1  0  0  0  0
 14  5  1  0  0  0  0
 17 22  1  0  0  0  0
 18 17  2  0  0  0  0
 19 18  1  0  0  0  0
 19 20  2  0  0  0  0
 20 21  1  0  0  0  0
 21 22  2  0  0  0  0
 21 26  1  0  0  0  0
 22  1  1  0  0  0  0
 23 18  1  0  0  0  0
 24 19  1  0  0  0  0
 25 20  1  0  0  0  0
 27 28  1  0  0  0  0
 28 17  1  0  0  0  0
 28 29  2  0  0  0  0
 29 34  1  0  0  0  0
 30 29  1  0  0  0  0
 31 30  2  0  0  0  0
 32 27  2  0  0  0  0
 32 31  1  0  0  0  0
 33 27  1  0  0  0  0
 35 31  1  0  0  0  0
 36 41  1  1  0  0  0
 37 38  1  6  0  0  0
 37 36  1  0  0  0  0
 37  6  1  0  0  0  0
 39 40  1  0  0  0  0
 39 38  1  0  0  0  0
 40 43  1  1  0  0  0
 40 36  1  0  0  0  0
 42 41  1  0  0  0  0
 44 43  1  0  0  0  0
M  END
>  <minimizedAffinity>
-5.62192249

$$$$

 OpenBabel03272506133D

 44 47  0  0  1  0  0  0  0  0999 V2000
   38.8340   25.6010   34.5000 C   0  0  1  0  0  0  0  0  0  0  0  0
   38.7710   26.9930   35.2460 C   0  0  0  0  0  0  0  0  0  0  0  0
   37.4800   27.7360   34.9250 C   0  0  0  0  0  0  0  0  0  0  0  0
   37.2210   27.6690   33.4490 C   0  0  0  0  0  0  0  0  0  0  0  0
   38.5200   27.3920   32.7620 C   0  0  0  0  0  0  0  0  0  0  0  0
   38.9260   25.9750   33.0590 C   0  0  2  0  0  0  0  0  0  0  0  0
   37.8750   25.1790   34.5280 H   0  0  0  0  0  0  0  0  0  0  0  0
   38.9890   26.8850   36.2990 H   0  0  0  0  0  0  0  0  0  0  0  0
   39.6080   27.5520   34.7930 H   0  0  0  0  0  0  0  0  0  0  0  0
   36.6370   27.3980   35.5570 H   0  0  0  0  0  0  0  0  0  0  0  0
   37.6660   28.7860   35.2040 H   0  0  0  0  0  0  0  0  0  0  0  0
   36.5510   26.8290   33.2530 H   0  0  0  0  0  0  0  0  0  0  0  0
   36.8080   28.6300   33.0490 H   0  0  0  0  0  0  0  0  0  0  0  0
   38.2720   27.4050   31.6700 H   0  0  0  0  0  0  0  0  0  0  0  0
   39.2990   28.1440   32.8710 H   0  0  0  0  0  0  0  0  0  0  0  0
   39.9030   25.8670   32.5710 H   0  0  0  0  0  0  0  0  0  0  0  0
   39.8640   23.8100   35.7680 C   0  0  0  0  0  0  0  0  0  0  0  0
   41.0670   23.1970   36.1670 C   0  0  0  0  0  0  0  0  0  0  0  0
   42.3170   23.6680   35.9130 C   0  0  0  0  0  0  0  0  0  0  0  0
   42.4630   24.8560   35.2050 C   0  0  0  0  0  0  0  0  0  0  0  0
   41.2920   25.4700   34.8080 C   0  0  0  0  0  0  0  0  0  0  0  0
   40.0210   24.9830   35.0660 C   0  0  0  0  0  0  0  0  0  0  0  0
   41.1390   22.2420   36.7260 H   0  0  0  0  0  0  0  0  0  0  0  0
   43.1960   23.1700   36.2280 H   0  0  0  0  0  0  0  0  0  0  0  0
   43.4540   25.2320   35.0040 H   0  0  0  0  0  0  0  0  0  0  0  0
   41.5070   26.3920   34.2830 H   0  0  0  0  0  0  0  0  0  0  0  0
   38.1440   22.1800   35.2940 C   0  0  0  0  0  0  0  0  0  0  0  0
   38.6910   23.1370   36.1780 C   0  0  0  0  0  0  0  0  0  0  0  0
   38.0200   23.3530   37.3760 C   0  0  0  0  0  0  0  0  0  0  0  0
   36.8780   22.6330   37.6200 N   0  0  0  0  0  0  0  0  0  0  0  0
   36.3790   21.7360   36.7730 C   0  0  0  0  0  0  0  0  0  0  0  0
   37.0190   21.5190   35.6160 N   0  0  0  0  0  0  0  0  0  0  0  0
   38.4900   21.8390   34.3300 H   0  0  0  0  0  0  0  0  0  0  0  0
   38.1700   23.9890   38.1550 H   0  0  0  0  0  0  0  0  0  0  0  0
   35.4600   21.1770   37.0040 H   0  0  0  0  0  0  0  0  0  0  0  0
   38.1070   25.3880   30.7560 C   0  0  1  0  0  3  0  0  0  0  0  0
   38.1030   24.9980   32.1730 C   0  0  1  0  0  3  0  0  0  0  0  0
   38.7240   23.7750   32.3320 O   0  0  0  0  0  0  0  0  0  0  0  0
   39.2840   23.4340   31.1040 C   0  0  0  0  0  2  0  0  0  0  0  0
   38.3240   24.0370   30.0710 C   0  0  2  0  0  3  0  0  0  0  0  0
   36.8480   25.8310   30.3860 O   0  0  0  0  0  0  0  0  0  0  0  0
   36.2230   25.0850   30.6570 H   0  0  0  0  0  0  0  0  0  0  0  0
   38.9110   24.2560   28.8510 O   0  0  0  0  0  0  0  0  0  0  0  0
   39.2950   23.4790   28.4140 H   0  0  0  0  0  0  0  0  0  0  0  0
  1  7  1  1  0  0  0
  1 22  1  0  0  0  0
  1  2  1  0  0  0  0
  2  8  1  0  0  0  0
  3 11  1  0  0  0  0
  3  2  1  0  0  0  0
  3 10  1  0  0  0  0
  4  3  1  0  0  0  0
  5 15  1  0  0  0  0
  5  6  1  0  0  0  0
  5  4  1  0  0  0  0
  6 16  1  6  0  0  0
  6  1  1  0  0  0  0
  9  2  1  0  0  0  0
 12  4  1  0  0  0  0
 13  4  1  0  0  0  0
 14  5  1  0  0  0  0
 17 18  1  0  0  0  0
 17 28  1  0  0  0  0
 18 23  1  0  0  0  0
 19 18  2  0  0  0  0
 19 24  1  0  0  0  0
 20 19  1  0  0  0  0
 21 22  1  0  0  0  0
 21 20  2  0  0  0  0
 22 17  2  0  0  0  0
 25 20  1  0  0  0  0
 26 21  1  0  0  0  0
 27 32  2  0  0  0  0
 27 28  1  0  0  0  0
 28 29  2  0  0  0  0
 29 30  1  0  0  0  0
 29 34  1  0  0  0  0
 31 35  1  0  0  0  0
 31 30  2  0  0  0  0
 32 31  1  0  0  0  0
 33 27  1  0  0  0  0
 36 41  1  6  0  0  0
 36 37  1  0  0  0  0
 37 38  1  6  0  0  0
 37  6  1  0  0  0  0
 39 38  1  0  0  0  0
 40 43  1  6  0  0  0
 40 36  1  0  0  0  0
 40 39  1  0  0  0  0
 41 42  1  0  0  0  0
 44 43  1  0  0  0  0
M  END
>  <minimizedAffinity>
-5.60444546

$$$$
