
 OpenBabel03272509043D

 33 35  0  0  1  0  0  0  0  0999 V2000
   37.2760   30.2480   51.4200 C   0  0  0  0  0  0  0  0  0  0  0  0
   38.0980   30.6350   50.3380 C   0  0  0  0  0  0  0  0  0  0  0  0
   37.6890   30.2470   49.0450 C   0  0  0  0  0  0  0  0  0  0  0  0
   36.5330   29.5250   48.9130 N   0  0  0  0  0  0  0  0  0  0  0  0
   35.7990   29.1900   49.9920 C   0  0  0  0  0  0  0  0  0  0  0  0
   36.1560   29.5420   51.2460 N   0  0  0  0  0  0  0  0  0  0  0  0
   37.6560   30.5820   52.3830 H   0  0  0  0  0  0  0  0  0  0  0  0
   39.0000   31.1980   50.4220 H   0  0  0  0  0  0  0  0  0  0  0  0
   37.7510   30.7610   46.6380 C   0  0  1  0  0  3  0  0  0  0  0  0
   38.5330   30.6420   47.8920 C   0  0  1  0  0  3  0  0  0  0  0  0
   39.2120   31.8230   48.1050 O   0  0  0  0  0  0  0  0  0  0  0  0
   38.5660   32.8300   47.4210 C   0  0  0  0  0  2  0  0  0  0  0  0
   37.5570   32.2510   46.4940 C   0  0  1  0  0  3  0  0  0  0  0  0
   38.4460   30.2650   45.5440 O   0  0  0  0  0  0  0  0  0  0  0  0
   38.2000   30.8310   44.7670 H   0  0  0  0  0  0  0  0  0  0  0  0
   37.7400   32.6580   45.1790 O   0  0  0  0  0  0  0  0  0  0  0  0
   37.5470   33.6120   45.1060 H   0  0  0  0  0  0  0  0  0  0  0  0
   34.6090   28.4190   49.7160 C   0  0  0  0  0  3  0  0  0  0  0  0
   34.3730   28.0190   48.5160 C   0  0  0  0  0  3  0  0  0  0  0  0
   33.2540   27.2230   47.9930 C   0  0  0  0  0  0  0  0  0  0  0  0
   32.7380   26.7430   48.8590 H   0  0  0  0  0  0  0  0  0  0  0  0
   32.5020   27.8510   47.4940 H   0  0  0  0  0  0  0  0  0  0  0  0
   33.6830   26.1560   47.0320 C   0  0  0  0  0  0  0  0  0  0  0  0
   33.8890   24.8240   47.3600 C   0  0  0  0  0  0  0  0  0  0  0  0
   34.2850   23.9330   46.3720 C   0  0  0  0  0  0  0  0  0  0  0  0
   34.4820   24.3440   45.0550 C   0  0  0  0  0  0  0  0  0  0  0  0
   34.2770   25.6740   44.7310 C   0  0  0  0  0  0  0  0  0  0  0  0
   33.8800   26.5660   45.7200 C   0  0  0  0  0  0  0  0  0  0  0  0
   33.7240   24.5600   48.3920 H   0  0  0  0  0  0  0  0  0  0  0  0
   34.4290   22.9120   46.6840 H   0  0  0  0  0  0  0  0  0  0  0  0
   34.7890   23.5690   44.3690 H   0  0  0  0  0  0  0  0  0  0  0  0
   34.4370   25.9580   43.7060 H   0  0  0  0  0  0  0  0  0  0  0  0
   33.7460   27.5760   45.3700 H   0  0  0  0  0  0  0  0  0  0  0  0
  1  7  1  0  0  0  0
  2  8  1  0  0  0  0
  2  1  2  0  0  0  0
  3  2  1  0  0  0  0
  4  3  2  0  0  0  0
  4  5  1  0  0  0  0
  5  6  2  0  0  0  0
  6  1  1  0  0  0  0
  9 14  1  6  0  0  0
  9 10  1  0  0  0  0
 10 11  1  0  0  0  0
 10  3  1  1  0  0  0
 12 11  1  0  0  0  0
 13 16  1  6  0  0  0
 13  9  1  0  0  0  0
 13 12  1  0  0  0  0
 15 14  1  0  0  0  0
 17 16  1  0  0  0  0
 18  5  1  0  0  0  0
 19 18  2  0  0  0  0
 20 19  1  0  0  0  0
 20 21  1  0  0  0  0
 22 20  1  0  0  0  0
 23 24  1  0  0  0  0
 23 20  1  0  0  0  0
 24 29  1  0  0  0  0
 25 30  1  0  0  0  0
 25 24  2  0  0  0  0
 26 25  1  0  0  0  0
 27 26  2  0  0  0  0
 27 28  1  0  0  0  0
 28 23  2  0  0  0  0
 31 26  1  0  0  0  0
 32 27  1  0  0  0  0
 33 28  1  0  0  0  0
M  END
>  <minimizedAffinity>
-5.33605862

>  <minimizedRMSD>
0.575832665

$$$$
