
 OpenBabel03272509213D

 46 50  0  0  1  0  0  0  0  0999 V2000
   38.0980   31.3440   47.8040 C   0  0  0  0  0  0  0  0  0  0  0  0
   37.1030   31.3320   48.7710 C   0  0  0  0  0  0  0  0  0  0  0  0
   37.1440   32.4480   49.6270 C   0  0  0  0  0  0  0  0  0  0  0  0
   38.1030   33.4500   49.4890 C   0  0  0  0  0  0  0  0  0  0  0  0
   39.0660   33.3500   48.4640 C   0  0  0  0  0  0  0  0  0  0  0  0
   39.0510   32.2700   47.6100 C   0  0  0  0  0  0  0  0  0  0  0  0
   36.4200   32.5600   50.4270 H   0  0  0  0  0  0  0  0  0  0  0  0
   38.1060   34.3000   50.1670 H   0  0  0  0  0  0  0  0  0  0  0  0
   39.7690   34.1530   48.4180 H   0  0  0  0  0  0  0  0  0  0  0  0
   34.9970   30.3080   48.1000 C   0  0  0  0  0  0  0  0  0  0  0  0
   36.1250   30.3100   48.9120 C   0  0  0  0  0  0  0  0  0  0  0  0
   36.2480   29.2780   49.8580 C   0  0  0  0  0  0  0  0  0  0  0  0
   35.2660   28.3450   49.9230 N   0  0  0  0  0  0  0  0  0  0  0  0
   34.1800   28.3880   49.1040 C   0  0  0  0  0  0  0  0  0  0  0  0
   34.0470   29.3610   48.2000 N   0  0  0  0  0  0  0  0  0  0  0  0
   34.8890   31.0970   47.3690 H   0  0  0  0  0  0  0  0  0  0  0  0
   33.4420   27.5990   49.2260 H   0  0  0  0  0  0  0  0  0  0  0  0
   37.4360   29.2330   50.7540 C   0  0  0  0  0  0  0  0  0  0  0  0
   38.3570   29.1420   50.1420 H   0  0  0  0  0  0  0  0  0  0  0  0
   37.4740   30.0560   51.4860 H   0  0  0  0  0  0  0  0  0  0  0  0
   37.3780   28.2900   51.3300 H   0  0  0  0  0  0  0  0  0  0  0  0
   38.1400   30.2620   46.8950 O   0  0  0  0  0  0  0  0  0  0  0  0
   38.3820   29.3830   47.3100 H   0  0  0  0  0  0  0  0  0  0  0  0
   40.0170   32.2320   46.6330 O   0  0  0  0  0  0  0  0  0  0  0  0
   40.4930   31.0620   44.4860 C   0  0  0  0  0  0  0  0  0  0  0  0
   39.8340   31.9670   45.3080 C   0  0  0  0  0  0  0  0  0  0  0  0
   38.8300   32.7450   44.7640 C   0  0  0  0  0  0  0  0  0  0  0  0
   38.4780   32.6280   43.4040 C   0  0  0  0  0  0  0  0  0  0  0  0
   37.5760   33.2260   42.6070 N   0  0  0  0  0  0  0  0  0  0  0  0
   37.6610   32.7280   41.3560 C   0  0  0  0  0  0  0  0  0  0  0  0
   38.6480   31.7950   41.3890 N   0  0  0  0  0  0  0  0  0  0  0  0
   39.1560   31.7230   42.6330 C   0  0  0  0  0  0  0  0  0  0  0  0
   40.1550   30.9400   43.1490 C   0  0  0  0  0  0  0  0  0  0  0  0
   41.2600   30.5060   45.0160 H   0  0  0  0  0  0  0  0  0  0  0  0
   38.2340   33.4870   45.2770 H   0  0  0  0  0  0  0  0  0  0  0  0
   36.9100   33.9610   42.9030 H   0  0  0  0  0  0  0  0  0  0  0  0
   37.1240   32.9450   40.4650 H   0  0  0  0  0  0  0  0  0  0  0  0
   40.2720   28.6010   42.2720 C   0  0  2  0  0  3  0  0  0  0  0  0
   40.9280   29.9360   42.3520 C   0  0  1  0  0  3  0  0  0  0  0  0
   41.1140   30.4530   41.1000 O   0  0  0  0  0  0  0  0  0  0  0  0
   40.7730   29.4840   40.1690 C   0  0  0  0  0  2  0  0  0  0  0  0
   39.8230   28.5390   40.8280 C   0  0  2  0  0  3  0  0  0  0  0  0
   39.2020   28.4590   43.1510 O   0  0  0  0  0  0  0  0  0  0  0  0
   38.3780   28.6000   42.6270 H   0  0  0  0  0  0  0  0  0  0  0  0
   38.4790   28.8650   40.6670 O   0  0  0  0  0  0  0  0  0  0  0  0
   38.2950   29.3770   39.8400 H   0  0  0  0  0  0  0  0  0  0  0  0
  1  2  1  0  0  0  0
  2 11  1  0  0  0  0
  2  3  2  0  0  0  0
  3  7  1  0  0  0  0
  4  3  1  0  0  0  0
  4  8  1  0  0  0  0
  5  4  2  0  0  0  0
  6  1  2  0  0  0  0
  6  5  1  0  0  0  0
  9  5  1  0  0  0  0
 10 15  2  0  0  0  0
 10 11  1  0  0  0  0
 11 12  2  0  0  0  0
 12 13  1  0  0  0  0
 12 18  1  0  0  0  0
 14 17  1  0  0  0  0
 14 13  2  0  0  0  0
 15 14  1  0  0  0  0
 16 10  1  0  0  0  0
 18 21  1  0  0  0  0
 18 20  1  0  0  0  0
 19 18  1  0  0  0  0
 22 23  1  0  0  0  0
 22  1  1  0  0  0  0
 24  6  1  0  0  0  0
 25 34  1  0  0  0  0
 25 26  1  0  0  0  0
 26 24  1  0  0  0  0
 27 35  1  0  0  0  0
 27 26  2  0  0  0  0
 28 27  1  0  0  0  0
 29 36  1  0  0  0  0
 29 28  1  0  0  0  0
 30 31  2  0  0  0  0
 30 29  1  0  0  0  0
 31 32  1  0  0  0  0
 32 33  1  0  0  0  0
 32 28  2  0  0  0  0
 33 25  2  0  0  0  0
 37 30  1  0  0  0  0
 38 39  1  0  0  0  0
 38 43  1  1  0  0  0
 39 33  1  1  0  0  0
 40 39  1  0  0  0  0
 41 42  1  0  0  0  0
 41 40  1  0  0  0  0
 42 45  1  1  0  0  0
 42 38  1  0  0  0  0
 44 43  1  0  0  0  0
 46 45  1  0  0  0  0
M  END
>  <minimizedAffinity>
-7.75062418

>  <minimizedRMSD>
0.546405971

$$$$
