
 OpenBabel03262523273D

 40 43  0  0  1  0  0  0  0  0999 V2000
   36.7620   20.7980   32.9250 C   0  0  0  0  0  0  0  0  0  0  0  0
   35.6430   20.4110   33.6550 C   0  0  0  0  0  0  0  0  0  0  0  0
   35.6160   20.7110   35.0010 C   0  0  0  0  0  0  0  0  0  0  0  0
   36.6810   21.3640   35.5390 N   0  0  0  0  0  0  0  0  0  0  0  0
   37.7650   21.7300   34.7960 C   0  0  0  0  0  0  0  0  0  0  0  0
   37.7990   21.4460   33.5020 N   0  0  0  0  0  0  0  0  0  0  0  0
   38.8520   22.4200   35.4490 N   0  0  0  0  0  0  0  0  0  0  0  0
   40.2070   22.0290   35.1690 C   0  0  0  0  0  0  0  0  0  0  0  0
   41.1390   22.2660   36.3330 C   0  0  0  0  0  0  0  0  0  0  0  0
   40.3120   22.3320   37.5890 C   0  0  0  0  0  0  0  0  0  0  0  0
   39.5110   23.6110   37.5080 C   0  0  0  0  0  0  0  0  0  0  0  0
   38.5440   23.5040   36.3850 C   0  0  1  0  0  0  0  0  0  0  0  0
   36.8580   20.6000   31.8710 H   0  0  0  0  0  0  0  0  0  0  0  0
   34.8520   19.9030   33.1530 H   0  0  0  0  0  0  0  0  0  0  0  0
   34.7790   20.4380   35.6100 H   0  0  0  0  0  0  0  0  0  0  0  0
   40.2180   20.9460   34.9430 H   0  0  0  0  0  0  0  0  0  0  0  0
   40.6380   22.6120   34.3110 H   0  0  0  0  0  0  0  0  0  0  0  0
   41.8780   21.4480   36.4530 H   0  0  0  0  0  0  0  0  0  0  0  0
   41.6430   23.2570   36.2300 H   0  0  0  0  0  0  0  0  0  0  0  0
   40.9130   22.3130   38.5040 H   0  0  0  0  0  0  0  0  0  0  0  0
   39.5820   21.4770   37.6150 H   0  0  0  0  0  0  0  0  0  0  0  0
   38.9640   23.7210   38.4900 H   0  0  0  0  0  0  0  0  0  0  0  0
   40.2240   24.4280   37.4840 H   0  0  0  0  0  0  0  0  0  0  0  0
   37.5400   23.2010   36.8010 H   0  0  0  0  0  0  0  0  0  0  0  0
   38.3110   24.7770   35.6850 C   0  0  0  0  0  0  0  0  0  0  0  0
   38.1490   26.0390   36.2540 C   0  0  0  0  0  0  0  0  0  0  0  0
   37.9470   27.1230   35.4480 C   0  0  0  0  0  0  0  0  0  0  0  0
   37.9190   26.8650   34.0190 C   0  0  0  0  0  0  0  0  0  0  0  0
   38.1980   24.9890   33.9780 S   0  0  0  0  0  0  0  0  0  0  0  0
   38.1690   26.2480   37.3150 H   0  0  0  0  0  0  0  0  0  0  0  0
   37.8030   28.1470   35.6610 H   0  0  0  0  0  0  0  0  0  0  0  0
   36.5910   27.1910   32.0290 C   0  0  2  0  0  3  0  0  0  0  0  0
   37.7390   27.7090   32.8710 C   0  0  2  0  0  3  0  0  0  0  0  0
   38.8730   27.6260   32.0640 O   0  0  0  0  0  0  0  0  0  0  0  0
   38.4160   28.0070   30.7970 C   0  0  0  0  0  2  0  0  0  0  0  0
   37.1930   27.1330   30.6450 C   0  0  2  0  0  3  0  0  0  0  0  0
   35.5150   28.0580   32.0190 O   0  0  0  0  0  0  0  0  0  0  0  0
   35.4430   28.4310   32.9510 H   0  0  0  0  0  0  0  0  0  0  0  0
   36.3220   27.6800   29.6870 O   0  0  0  0  0  0  0  0  0  0  0  0
   35.4420   27.7650   30.1170 H   0  0  0  0  0  0  0  0  0  0  0  0
  1  6  2  0  0  0  0
  1  2  1  0  0  0  0
  2  3  2  0  0  0  0
  3  4  1  0  0  0  0
  3 15  1  0  0  0  0
  5  7  1  0  0  0  0
  5  4  2  0  0  0  0
  6  5  1  0  0  0  0
  7 12  1  0  0  0  0
  8  7  1  0  0  0  0
  8  9  1  0  0  0  0
  9 18  1  0  0  0  0
  9 10  1  0  0  0  0
 10 21  1  0  0  0  0
 10 20  1  0  0  0  0
 11 10  1  0  0  0  0
 11 22  1  0  0  0  0
 12 24  1  1  0  0  0
 12 11  1  0  0  0  0
 13  1  1  0  0  0  0
 14  2  1  0  0  0  0
 16  8  1  0  0  0  0
 17  8  1  0  0  0  0
 19  9  1  0  0  0  0
 23 11  1  0  0  0  0
 25 26  2  0  0  0  0
 25 12  1  0  0  0  0
 26 30  1  0  0  0  0
 27 31  1  0  0  0  0
 27 26  1  0  0  0  0
 28 27  2  0  0  0  0
 29 28  1  0  0  0  0
 29 25  1  0  0  0  0
 32 37  1  6  0  0  0
 32 33  1  0  0  0  0
 33 28  1  1  0  0  0
 34 33  1  0  0  0  0
 35 34  1  0  0  0  0
 36 39  1  6  0  0  0
 36 35  1  0  0  0  0
 36 32  1  0  0  0  0
 37 38  1  0  0  0  0
 39 40  1  0  0  0  0
M  END
>  <minimizedAffinity>
-6.28746986

$$$$

 OpenBabel03262523273D

 40 43  0  0  1  0  0  0  0  0999 V2000
   38.2390   23.0780   36.7370 C   0  0  0  0  0  0  0  0  0  0  0  0
   39.6150   23.0750   36.5390 C   0  0  0  0  0  0  0  0  0  0  0  0
   40.0970   22.5260   35.3690 C   0  0  0  0  0  0  0  0  0  0  0  0
   39.2030   22.0190   34.4770 N   0  0  0  0  0  0  0  0  0  0  0  0
   37.8580   22.0370   34.7010 C   0  0  0  0  0  0  0  0  0  0  0  0
   37.3860   22.5630   35.8220 N   0  0  0  0  0  0  0  0  0  0  0  0
   36.9810   21.4760   33.7000 N   0  0  0  0  0  0  0  0  0  0  0  0
   35.8980   20.6240   34.1070 C   0  0  0  0  0  0  0  0  0  0  0  0
   35.5380   19.5930   33.0650 C   0  0  0  0  0  0  0  0  0  0  0  0
   36.7270   19.4070   32.1600 C   0  0  0  0  0  0  0  0  0  0  0  0
   36.8650   20.6840   31.3650 C   0  0  0  0  0  0  0  0  0  0  0  0
   37.2210   21.7910   32.2890 C   0  0  1  0  0  0  0  0  0  0  0  0
   37.7850   23.4880   37.6240 H   0  0  0  0  0  0  0  0  0  0  0  0
   40.2440   23.4940   37.2910 H   0  0  0  0  0  0  0  0  0  0  0  0
   41.1470   22.4980   35.1650 H   0  0  0  0  0  0  0  0  0  0  0  0
   36.2040   20.0850   35.0240 H   0  0  0  0  0  0  0  0  0  0  0  0
   34.9570   21.2090   34.2940 H   0  0  0  0  0  0  0  0  0  0  0  0
   35.2920   18.6090   33.5140 H   0  0  0  0  0  0  0  0  0  0  0  0
   34.7040   19.9660   32.4220 H   0  0  0  0  0  0  0  0  0  0  0  0
   36.6310   18.5460   31.4910 H   0  0  0  0  0  0  0  0  0  0  0  0
   37.6620   19.2870   32.7740 H   0  0  0  0  0  0  0  0  0  0  0  0
   37.6900   20.5170   30.6130 H   0  0  0  0  0  0  0  0  0  0  0  0
   35.9590   20.7890   30.7780 H   0  0  0  0  0  0  0  0  0  0  0  0
   38.3380   21.9470   32.2520 H   0  0  0  0  0  0  0  0  0  0  0  0
   36.6310   23.0860   31.9130 C   0  0  0  0  0  0  0  0  0  0  0  0
   35.3440   23.3230   31.4360 C   0  0  0  0  0  0  0  0  0  0  0  0
   34.9560   24.6000   31.1420 C   0  0  0  0  0  0  0  0  0  0  0  0
   35.9470   25.6380   31.3590 C   0  0  0  0  0  0  0  0  0  0  0  0
   37.4150   24.6190   31.9960 S   0  0  0  0  0  0  0  0  0  0  0  0
   34.5930   22.5610   31.2710 H   0  0  0  0  0  0  0  0  0  0  0  0
   34.0480   24.9970   30.7770 H   0  0  0  0  0  0  0  0  0  0  0  0
   37.0950   27.4790   30.3000 C   0  0  2  0  0  3  0  0  0  0  0  0
   35.9330   27.0630   31.1790 C   0  0  2  0  0  3  0  0  0  0  0  0
   36.1470   27.6790   32.4120 O   0  0  0  0  0  0  0  0  0  0  0  0
   36.6400   28.9450   32.0770 C   0  0  0  0  0  2  0  0  0  0  0  0
   37.7350   28.5910   31.0980 C   0  0  2  0  0  3  0  0  0  0  0  0
   36.6780   27.9780   29.0810 O   0  0  0  0  0  0  0  0  0  0  0  0
   35.8940   27.4140   28.7970 H   0  0  0  0  0  0  0  0  0  0  0  0
   38.0330   29.6960   30.2830 O   0  0  0  0  0  0  0  0  0  0  0  0
   37.9570   29.3930   29.3510 H   0  0  0  0  0  0  0  0  0  0  0  0
  1 13  1  0  0  0  0
  2  1  1  0  0  0  0
  2 14  1  0  0  0  0
  3  2  2  0  0  0  0
  4  5  2  0  0  0  0
  4  3  1  0  0  0  0
  5  6  1  0  0  0  0
  6  1  2  0  0  0  0
  7  8  1  0  0  0  0
  7  5  1  0  0  0  0
  8 17  1  0  0  0  0
  8 16  1  0  0  0  0
  9 18  1  0  0  0  0
  9  8  1  0  0  0  0
 10 21  1  0  0  0  0
 10  9  1  0  0  0  0
 11 10  1  0  0  0  0
 11 12  1  0  0  0  0
 12 24  1  6  0  0  0
 12  7  1  0  0  0  0
 15  3  1  0  0  0  0
 19  9  1  0  0  0  0
 20 10  1  0  0  0  0
 22 11  1  0  0  0  0
 23 11  1  0  0  0  0
 25 29  1  0  0  0  0
 25 12  1  0  0  0  0
 26 25  2  0  0  0  0
 27 28  2  0  0  0  0
 27 26  1  0  0  0  0
 28 29  1  0  0  0  0
 30 26  1  0  0  0  0
 31 27  1  0  0  0  0
 32 37  1  6  0  0  0
 32 36  1  0  0  0  0
 32 33  1  0  0  0  0
 33 28  1  1  0  0  0
 33 34  1  0  0  0  0
 35 34  1  0  0  0  0
 36 39  1  6  0  0  0
 36 35  1  0  0  0  0
 38 37  1  0  0  0  0
 40 39  1  0  0  0  0
M  END
>  <minimizedAffinity>
-6.11347198

$$$$

 OpenBabel03262523273D

 40 43  0  0  1  0  0  0  0  0999 V2000
   37.6980   23.2530   38.0320 C   0  0  0  0  0  0  0  0  0  0  0  0
   39.0490   23.2440   38.3580 C   0  0  0  0  0  0  0  0  0  0  0  0
   39.9500   22.9270   37.3640 C   0  0  0  0  0  0  0  0  0  0  0  0
   39.4700   22.6420   36.1230 N   0  0  0  0  0  0  0  0  0  0  0  0
   38.1370   22.6600   35.8340 C   0  0  0  0  0  0  0  0  0  0  0  0
   37.2640   22.9630   36.7840 N   0  0  0  0  0  0  0  0  0  0  0  0
   37.7150   22.3430   34.4900 N   0  0  0  0  0  0  0  0  0  0  0  0
   36.5960   21.4630   34.2900 C   0  0  0  0  0  0  0  0  0  0  0  0
   36.6900   20.6770   33.0040 C   0  0  0  0  0  0  0  0  0  0  0  0
   38.1350   20.6390   32.5840 C   0  0  0  0  0  0  0  0  0  0  0  0
   38.4990   22.0440   32.1690 C   0  0  0  0  0  0  0  0  0  0  0  0
   38.4420   22.9290   33.3610 C   0  0  1  0  0  0  0  0  0  0  0  0
   36.9330   23.4900   38.7520 H   0  0  0  0  0  0  0  0  0  0  0  0
   39.3390   23.4800   39.3560 H   0  0  0  0  0  0  0  0  0  0  0  0
   41.0030   22.9060   37.5590 H   0  0  0  0  0  0  0  0  0  0  0  0
   36.5680   20.7390   35.1270 H   0  0  0  0  0  0  0  0  0  0  0  0
   35.6280   22.0300   34.2300 H   0  0  0  0  0  0  0  0  0  0  0  0
   36.3400   19.6320   33.1240 H   0  0  0  0  0  0  0  0  0  0  0  0
   36.1340   21.2010   32.1890 H   0  0  0  0  0  0  0  0  0  0  0  0
   38.3290   19.9340   31.7680 H   0  0  0  0  0  0  0  0  0  0  0  0
   38.7830   20.3660   33.4610 H   0  0  0  0  0  0  0  0  0  0  0  0
   39.5490   22.0060   31.7560 H   0  0  0  0  0  0  0  0  0  0  0  0
   37.8680   22.2970   31.3230 H   0  0  0  0  0  0  0  0  0  0  0  0
   39.4870   23.0520   33.7700 H   0  0  0  0  0  0  0  0  0  0  0  0
   37.9750   24.2930   33.0620 C   0  0  0  0  0  0  0  0  0  0  0  0
   38.4170   25.4830   33.6360 C   0  0  0  0  0  0  0  0  0  0  0  0
   37.8760   26.6710   33.2320 C   0  0  0  0  0  0  0  0  0  0  0  0
   36.8540   26.5930   32.2040 C   0  0  0  0  0  0  0  0  0  0  0  0
   36.7690   24.7210   31.9080 S   0  0  0  0  0  0  0  0  0  0  0  0
   39.1790   25.5570   34.4010 H   0  0  0  0  0  0  0  0  0  0  0  0
   38.0590   27.6680   33.5260 H   0  0  0  0  0  0  0  0  0  0  0  0
   36.9330   28.3500   30.5490 C   0  0  2  0  0  3  0  0  0  0  0  0
   36.0650   27.5840   31.5260 C   0  0  2  0  0  3  0  0  0  0  0  0
   35.6170   28.5220   32.4550 O   0  0  0  0  0  0  0  0  0  0  0  0
   35.3520   29.6610   31.6870 C   0  0  0  0  0  2  0  0  0  0  0  0
   36.6300   29.7890   30.8920 C   0  0  2  0  0  3  0  0  0  0  0  0
   36.5780   28.1130   29.2350 O   0  0  0  0  0  0  0  0  0  0  0  0
   36.3430   27.1360   29.1770 H   0  0  0  0  0  0  0  0  0  0  0  0
   36.4070   30.5530   29.7340 O   0  0  0  0  0  0  0  0  0  0  0  0
   36.7200   30.0160   28.9730 H   0  0  0  0  0  0  0  0  0  0  0  0
  1  2  1  0  0  0  0
  1 13  1  0  0  0  0
  2 14  1  0  0  0  0
  3 15  1  0  0  0  0
  3  2  2  0  0  0  0
  4  3  1  0  0  0  0
  5  4  2  0  0  0  0
  5  6  1  0  0  0  0
  6  1  2  0  0  0  0
  7  5  1  0  0  0  0
  8  7  1  0  0  0  0
  8 16  1  0  0  0  0
  9 18  1  0  0  0  0
  9  8  1  0  0  0  0
 10  9  1  0  0  0  0
 10 21  1  0  0  0  0
 11 10  1  0  0  0  0
 11 12  1  0  0  0  0
 12 24  1  1  0  0  0
 12  7  1  0  0  0  0
 17  8  1  0  0  0  0
 19  9  1  0  0  0  0
 20 10  1  0  0  0  0
 22 11  1  0  0  0  0
 23 11  1  0  0  0  0
 25 12  1  0  0  0  0
 25 26  2  0  0  0  0
 26 30  1  0  0  0  0
 27 31  1  0  0  0  0
 27 26  1  0  0  0  0
 28 27  2  0  0  0  0
 29 28  1  0  0  0  0
 29 25  1  0  0  0  0
 32 37  1  6  0  0  0
 32 36  1  0  0  0  0
 32 33  1  0  0  0  0
 33 28  1  1  0  0  0
 33 34  1  0  0  0  0
 35 34  1  0  0  0  0
 36 39  1  6  0  0  0
 36 35  1  0  0  0  0
 38 37  1  0  0  0  0
 40 39  1  0  0  0  0
M  END
>  <minimizedAffinity>
-6.00521898

$$$$

 OpenBabel03262523273D

 40 43  0  0  1  0  0  0  0  0999 V2000
   35.9460   20.9860   33.3230 C   0  0  0  0  0  0  0  0  0  0  0  0
   35.5570   20.6040   34.6010 C   0  0  0  0  0  0  0  0  0  0  0  0
   36.2730   21.1030   35.6690 C   0  0  0  0  0  0  0  0  0  0  0  0
   37.3170   21.9380   35.4140 N   0  0  0  0  0  0  0  0  0  0  0  0
   37.6730   22.2940   34.1460 C   0  0  0  0  0  0  0  0  0  0  0  0
   36.9910   21.8190   33.1140 N   0  0  0  0  0  0  0  0  0  0  0  0
   38.7950   23.1850   33.9670 N   0  0  0  0  0  0  0  0  0  0  0  0
   39.7710   22.8980   32.9510 C   0  0  0  0  0  0  0  0  0  0  0  0
   41.1490   23.4060   33.2990 C   0  0  0  0  0  0  0  0  0  0  0  0
   41.2200   23.5800   34.7920 C   0  0  0  0  0  0  0  0  0  0  0  0
   40.3160   24.7410   35.1330 C   0  0  0  0  0  0  0  0  0  0  0  0
   38.9120   24.3640   34.8300 C   0  0  1  0  0  0  0  0  0  0  0  0
   35.4380   20.6400   32.4380 H   0  0  0  0  0  0  0  0  0  0  0  0
   34.7260   19.9450   34.7110 H   0  0  0  0  0  0  0  0  0  0  0  0
   36.0170   20.8420   36.6760 H   0  0  0  0  0  0  0  0  0  0  0  0
   39.8360   21.7990   32.8310 H   0  0  0  0  0  0  0  0  0  0  0  0
   39.5050   23.3820   31.9720 H   0  0  0  0  0  0  0  0  0  0  0  0
   41.9470   22.6980   32.9980 H   0  0  0  0  0  0  0  0  0  0  0  0
   41.3130   24.4170   32.8510 H   0  0  0  0  0  0  0  0  0  0  0  0
   42.2360   23.7640   35.1580 H   0  0  0  0  0  0  0  0  0  0  0  0
   40.8080   22.6680   35.3060 H   0  0  0  0  0  0  0  0  0  0  0  0
   40.4410   24.9440   36.2360 H   0  0  0  0  0  0  0  0  0  0  0  0
   40.7220   25.6140   34.6330 H   0  0  0  0  0  0  0  0  0  0  0  0
   38.4150   24.0260   35.7860 H   0  0  0  0  0  0  0  0  0  0  0  0
   38.0930   25.4820   34.3360 C   0  0  0  0  0  0  0  0  0  0  0  0
   37.6460   26.5870   35.0580 C   0  0  0  0  0  0  0  0  0  0  0  0
   36.8960   27.5440   34.4350 C   0  0  0  0  0  0  0  0  0  0  0  0
   36.6190   27.3260   33.0270 C   0  0  0  0  0  0  0  0  0  0  0  0
   37.5110   25.6780   32.7260 S   0  0  0  0  0  0  0  0  0  0  0  0
   37.8450   26.7650   36.1060 H   0  0  0  0  0  0  0  0  0  0  0  0
   36.4630   28.4420   34.7820 H   0  0  0  0  0  0  0  0  0  0  0  0
   36.8310   28.5220   30.9400 C   0  0  2  0  0  3  0  0  0  0  0  0
   35.8910   28.0750   32.0400 C   0  0  2  0  0  3  0  0  0  0  0  0
   35.4040   29.2430   32.6250 O   0  0  0  0  0  0  0  0  0  0  0  0
   35.2070   30.1070   31.5420 C   0  0  0  0  0  2  0  0  0  0  0  0
   36.5340   29.9980   30.8280 C   0  0  2  0  0  3  0  0  0  0  0  0
   36.5530   27.9110   29.7320 O   0  0  0  0  0  0  0  0  0  0  0  0
   36.3040   26.9600   29.9460 H   0  0  0  0  0  0  0  0  0  0  0  0
   36.3970   30.3900   29.4860 O   0  0  0  0  0  0  0  0  0  0  0  0
   36.7460   29.6540   28.9360 H   0  0  0  0  0  0  0  0  0  0  0  0
  1  2  1  0  0  0  0
  2 14  1  0  0  0  0
  2  3  2  0  0  0  0
  3 15  1  0  0  0  0
  4  3  1  0  0  0  0
  5  4  2  0  0  0  0
  6  1  2  0  0  0  0
  6  5  1  0  0  0  0
  7  5  1  0  0  0  0
  7 12  1  0  0  0  0
  8  9  1  0  0  0  0
  8  7  1  0  0  0  0
  9 10  1  0  0  0  0
 10 11  1  0  0  0  0
 10 20  1  0  0  0  0
 10 21  1  0  0  0  0
 11 22  1  0  0  0  0
 12 11  1  0  0  0  0
 12 24  1  1  0  0  0
 13  1  1  0  0  0  0
 16  8  1  0  0  0  0
 17  8  1  0  0  0  0
 18  9  1  0  0  0  0
 19  9  1  0  0  0  0
 23 11  1  0  0  0  0
 25 12  1  0  0  0  0
 25 26  2  0  0  0  0
 26 30  1  0  0  0  0
 27 31  1  0  0  0  0
 27 26  1  0  0  0  0
 28 27  2  0  0  0  0
 29 28  1  0  0  0  0
 29 25  1  0  0  0  0
 32 37  1  6  0  0  0
 32 33  1  0  0  0  0
 33 34  1  0  0  0  0
 33 28  1  1  0  0  0
 35 34  1  0  0  0  0
 36 39  1  6  0  0  0
 36 32  1  0  0  0  0
 36 35  1  0  0  0  0
 37 38  1  0  0  0  0
 40 39  1  0  0  0  0
M  END
>  <minimizedAffinity>
-5.86626673

$$$$

 OpenBabel03262523273D

 40 43  0  0  1  0  0  0  0  0999 V2000
   32.2980   29.1920   35.5240 C   0  0  0  0  0  0  0  0  0  0  0  0
   31.2070   28.7460   34.7860 C   0  0  0  0  0  0  0  0  0  0  0  0
   31.3560   28.6350   33.4190 C   0  0  0  0  0  0  0  0  0  0  0  0
   32.5560   28.9670   32.8700 N   0  0  0  0  0  0  0  0  0  0  0  0
   33.6070   29.4010   33.6230 C   0  0  0  0  0  0  0  0  0  0  0  0
   33.4740   29.5110   34.9370 N   0  0  0  0  0  0  0  0  0  0  0  0
   34.8450   29.7330   32.9570 N   0  0  0  0  0  0  0  0  0  0  0  0
   35.5450   30.9340   33.3240 C   0  0  0  0  0  0  0  0  0  0  0  0
   36.3390   31.5230   32.1830 C   0  0  0  0  0  0  0  0  0  0  0  0
   35.7570   31.0080   30.8930 C   0  0  0  0  0  0  0  0  0  0  0  0
   36.0850   29.5350   30.8320 C   0  0  0  0  0  0  0  0  0  0  0  0
   35.3570   28.8330   31.9200 C   0  0  1  0  0  0  0  0  0  0  0  0
   32.2610   29.3050   36.5940 H   0  0  0  0  0  0  0  0  0  0  0  0
   30.3030   28.5070   35.2970 H   0  0  0  0  0  0  0  0  0  0  0  0
   30.5490   28.2970   32.8020 H   0  0  0  0  0  0  0  0  0  0  0  0
   34.8000   31.6880   33.6420 H   0  0  0  0  0  0  0  0  0  0  0  0
   36.2880   30.7460   34.1460 H   0  0  0  0  0  0  0  0  0  0  0  0
   36.2890   32.6300   32.1630 H   0  0  0  0  0  0  0  0  0  0  0  0
   37.3960   31.1650   32.2210 H   0  0  0  0  0  0  0  0  0  0  0  0
   36.1420   31.5250   30.0080 H   0  0  0  0  0  0  0  0  0  0  0  0
   34.6370   31.1050   30.9110 H   0  0  0  0  0  0  0  0  0  0  0  0
   35.7420   29.1620   29.8230 H   0  0  0  0  0  0  0  0  0  0  0  0
   37.1670   29.4540   30.8150 H   0  0  0  0  0  0  0  0  0  0  0  0
   34.4160   28.3810   31.4910 H   0  0  0  0  0  0  0  0  0  0  0  0
   36.1050   27.7050   32.4990 C   0  0  0  0  0  0  0  0  0  0  0  0
   36.3490   26.4640   31.9160 C   0  0  0  0  0  0  0  0  0  0  0  0
   37.0750   25.5280   32.5970 C   0  0  0  0  0  0  0  0  0  0  0  0
   37.5500   25.9170   33.9130 C   0  0  0  0  0  0  0  0  0  0  0  0
   36.8660   27.6820   34.0450 S   0  0  0  0  0  0  0  0  0  0  0  0
   36.0040   26.1590   30.9370 H   0  0  0  0  0  0  0  0  0  0  0  0
   37.3720   24.5450   32.3510 H   0  0  0  0  0  0  0  0  0  0  0  0
   38.2760   23.7470   34.6830 C   0  0  2  0  0  3  0  0  0  0  0  0
   38.3250   25.2430   34.9170 C   0  0  2  0  0  3  0  0  0  0  0  0
   37.7380   25.4550   36.1630 O   0  0  0  0  0  0  0  0  0  0  0  0
   38.1980   24.3870   36.9410 C   0  0  0  0  0  2  0  0  0  0  0  0
   37.8960   23.2100   36.0430 C   0  0  2  0  0  3  0  0  0  0  0  0
   39.5060   23.2320   34.3210 O   0  0  0  0  0  0  0  0  0  0  0  0
   39.9280   23.9110   33.7110 H   0  0  0  0  0  0  0  0  0  0  0  0
   38.6950   22.1110   36.3990 O   0  0  0  0  0  0  0  0  0  0  0  0
   39.1580   21.8180   35.5830 H   0  0  0  0  0  0  0  0  0  0  0  0
  1 13  1  0  0  0  0
  2 14  1  0  0  0  0
  2  1  2  0  0  0  0
  3  2  1  0  0  0  0
  4  3  2  0  0  0  0
  4  5  1  0  0  0  0
  5  6  2  0  0  0  0
  6  1  1  0  0  0  0
  7  8  1  0  0  0  0
  7  5  1  0  0  0  0
  8 16  1  0  0  0  0
  8 17  1  0  0  0  0
  9 19  1  0  0  0  0
  9  8  1  0  0  0  0
 10 21  1  0  0  0  0
 10  9  1  0  0  0  0
 11 10  1  0  0  0  0
 11 12  1  0  0  0  0
 12 24  1  6  0  0  0
 12 25  1  0  0  0  0
 12  7  1  0  0  0  0
 15  3  1  0  0  0  0
 18  9  1  0  0  0  0
 20 10  1  0  0  0  0
 22 11  1  0  0  0  0
 23 11  1  0  0  0  0
 25 29  1  0  0  0  0
 26 25  2  0  0  0  0
 26 27  1  0  0  0  0
 27 28  2  0  0  0  0
 28 29  1  0  0  0  0
 30 26  1  0  0  0  0
 31 27  1  0  0  0  0
 32 37  1  1  0  0  0
 32 33  1  0  0  0  0
 32 36  1  0  0  0  0
 33 28  1  6  0  0  0
 33 34  1  0  0  0  0
 34 35  1  0  0  0  0
 36 39  1  1  0  0  0
 36 35  1  0  0  0  0
 38 37  1  0  0  0  0
 40 39  1  0  0  0  0
M  END
>  <minimizedAffinity>
-5.85044432

$$$$

 OpenBabel03262523273D

 40 43  0  0  1  0  0  0  0  0999 V2000
   38.8150   22.5600   36.1740 C   0  0  0  0  0  0  0  0  0  0  0  0
   40.1300   22.3310   35.7870 C   0  0  0  0  0  0  0  0  0  0  0  0
   40.3550   21.8740   34.5050 C   0  0  0  0  0  0  0  0  0  0  0  0
   39.2810   21.6700   33.6940 N   0  0  0  0  0  0  0  0  0  0  0  0
   38.0020   21.9040   34.1050 C   0  0  0  0  0  0  0  0  0  0  0  0
   37.7770   22.3450   35.3350 N   0  0  0  0  0  0  0  0  0  0  0  0
   36.9210   21.6610   33.1780 N   0  0  0  0  0  0  0  0  0  0  0  0
   35.7420   20.9740   33.6310 C   0  0  0  0  0  0  0  0  0  0  0  0
   35.0660   20.1840   32.5370 C   0  0  0  0  0  0  0  0  0  0  0  0
   36.0820   19.9120   31.4600 C   0  0  0  0  0  0  0  0  0  0  0  0
   36.3810   21.2400   30.8070 C   0  0  0  0  0  0  0  0  0  0  0  0
   37.0560   22.1220   31.7930 C   0  0  1  0  0  0  0  0  0  0  0  0
   38.5580   22.9180   37.1570 H   0  0  0  0  0  0  0  0  0  0  0  0
   40.9130   22.5170   36.4860 H   0  0  0  0  0  0  0  0  0  0  0  0
   41.3480   21.6810   34.1530 H   0  0  0  0  0  0  0  0  0  0  0  0
   36.0370   20.2640   34.4280 H   0  0  0  0  0  0  0  0  0  0  0  0
   34.9660   21.6910   34.0140 H   0  0  0  0  0  0  0  0  0  0  0  0
   34.6800   19.2100   32.8990 H   0  0  0  0  0  0  0  0  0  0  0  0
   34.2550   20.7910   32.0660 H   0  0  0  0  0  0  0  0  0  0  0  0
   35.7380   19.1860   30.7150 H   0  0  0  0  0  0  0  0  0  0  0  0
   37.0370   19.5370   31.9190 H   0  0  0  0  0  0  0  0  0  0  0  0
   37.0640   21.0320   29.9320 H   0  0  0  0  0  0  0  0  0  0  0  0
   35.4530   21.5920   30.3680 H   0  0  0  0  0  0  0  0  0  0  0  0
   38.1690   22.0730   31.6190 H   0  0  0  0  0  0  0  0  0  0  0  0
   36.6990   23.5430   31.6570 C   0  0  0  0  0  0  0  0  0  0  0  0
   35.4900   24.0730   31.2110 C   0  0  0  0  0  0  0  0  0  0  0  0
   35.3250   25.4280   31.1540 C   0  0  0  0  0  0  0  0  0  0  0  0
   36.4580   26.2310   31.5780 C   0  0  0  0  0  0  0  0  0  0  0  0
   37.7120   24.8840   32.0380 S   0  0  0  0  0  0  0  0  0  0  0  0
   34.6360   23.4890   30.8930 H   0  0  0  0  0  0  0  0  0  0  0  0
   34.5110   26.0310   30.8550 H   0  0  0  0  0  0  0  0  0  0  0  0
   35.6960   28.2590   32.6440 C   0  0  2  0  0  3  0  0  0  0  0  0
   36.6810   27.6470   31.6680 C   0  0  2  0  0  3  0  0  0  0  0  0
   36.4050   28.2300   30.4320 O   0  0  0  0  0  0  0  0  0  0  0  0
   36.1270   29.5660   30.7410 C   0  0  0  0  0  2  0  0  0  0  0  0
   35.1190   29.4110   31.8560 C   0  0  2  0  0  3  0  0  0  0  0  0
   36.3180   28.7500   33.7760 O   0  0  0  0  0  0  0  0  0  0  0  0
   37.0480   28.0970   34.0050 H   0  0  0  0  0  0  0  0  0  0  0  0
   35.0680   30.5830   32.6300 O   0  0  0  0  0  0  0  0  0  0  0  0
   35.2130   30.3150   33.5650 H   0  0  0  0  0  0  0  0  0  0  0  0
  1 13  1  0  0  0  0
  2  1  1  0  0  0  0
  2 14  1  0  0  0  0
  3  2  2  0  0  0  0
  4  5  2  0  0  0  0
  4  3  1  0  0  0  0
  5  6  1  0  0  0  0
  6  1  2  0  0  0  0
  7  8  1  0  0  0  0
  7  5  1  0  0  0  0
  8 17  1  0  0  0  0
  8 16  1  0  0  0  0
  9 18  1  0  0  0  0
  9  8  1  0  0  0  0
 10 21  1  0  0  0  0
 10  9  1  0  0  0  0
 11 10  1  0  0  0  0
 11 12  1  0  0  0  0
 12 24  1  6  0  0  0
 12  7  1  0  0  0  0
 15  3  1  0  0  0  0
 19  9  1  0  0  0  0
 20 10  1  0  0  0  0
 22 11  1  0  0  0  0
 23 11  1  0  0  0  0
 25 12  1  0  0  0  0
 25 29  1  0  0  0  0
 26 25  2  0  0  0  0
 27 26  1  0  0  0  0
 27 28  2  0  0  0  0
 28 29  1  0  0  0  0
 30 26  1  0  0  0  0
 31 27  1  0  0  0  0
 32 37  1  1  0  0  0
 33 28  1  6  0  0  0
 33 32  1  0  0  0  0
 34 35  1  0  0  0  0
 34 33  1  0  0  0  0
 35 36  1  0  0  0  0
 36 39  1  1  0  0  0
 36 32  1  0  0  0  0
 37 38  1  0  0  0  0
 39 40  1  0  0  0  0
M  END
>  <minimizedAffinity>
-5.81602383

$$$$

 OpenBabel03262523273D

 40 43  0  0  1  0  0  0  0  0999 V2000
   36.5790   21.0990   32.5630 C   0  0  0  0  0  0  0  0  0  0  0  0
   35.5360   20.5900   33.3290 C   0  0  0  0  0  0  0  0  0  0  0  0
   35.6200   20.7210   34.6990 C   0  0  0  0  0  0  0  0  0  0  0  0
   36.7140   21.3370   35.2250 N   0  0  0  0  0  0  0  0  0  0  0  0
   37.7210   21.8260   34.4450 C   0  0  0  0  0  0  0  0  0  0  0  0
   37.6490   21.7040   33.1270 N   0  0  0  0  0  0  0  0  0  0  0  0
   38.8460   22.4650   35.0860 N   0  0  0  0  0  0  0  0  0  0  0  0
   40.1790   22.1550   34.6480 C   0  0  0  0  0  0  0  0  0  0  0  0
   41.2030   22.2770   35.7500 C   0  0  0  0  0  0  0  0  0  0  0  0
   40.4870   22.1620   37.0690 C   0  0  0  0  0  0  0  0  0  0  0  0
   39.6550   23.4140   37.2160 C   0  0  0  0  0  0  0  0  0  0  0  0
   38.5970   23.4160   36.1730 C   0  0  1  0  0  0  0  0  0  0  0  0
   36.5880   21.0360   31.4880 H   0  0  0  0  0  0  0  0  0  0  0  0
   34.7160   20.1220   32.8350 H   0  0  0  0  0  0  0  0  0  0  0  0
   34.8450   20.3490   35.3380 H   0  0  0  0  0  0  0  0  0  0  0  0
   40.1930   21.1080   34.2880 H   0  0  0  0  0  0  0  0  0  0  0  0
   40.5210   22.8520   33.8360 H   0  0  0  0  0  0  0  0  0  0  0  0
   41.9680   21.4750   35.7040 H   0  0  0  0  0  0  0  0  0  0  0  0
   41.6750   23.2890   35.7300 H   0  0  0  0  0  0  0  0  0  0  0  0
   41.1650   22.0490   37.9210 H   0  0  0  0  0  0  0  0  0  0  0  0
   39.7810   21.2870   37.0480 H   0  0  0  0  0  0  0  0  0  0  0  0
   39.1940   23.3860   38.2460 H   0  0  0  0  0  0  0  0  0  0  0  0
   40.3460   24.2510   37.2350 H   0  0  0  0  0  0  0  0  0  0  0  0
   37.6400   23.0320   36.6300 H   0  0  0  0  0  0  0  0  0  0  0  0
   38.2760   24.7570   35.6590 C   0  0  0  0  0  0  0  0  0  0  0  0
   38.2820   25.9580   36.3660 C   0  0  0  0  0  0  0  0  0  0  0  0
   37.9640   27.1220   35.7250 C   0  0  0  0  0  0  0  0  0  0  0  0
   37.6370   27.0090   34.3150 C   0  0  0  0  0  0  0  0  0  0  0  0
   37.8300   25.1420   34.0400 S   0  0  0  0  0  0  0  0  0  0  0  0
   38.5250   26.0590   37.4160 H   0  0  0  0  0  0  0  0  0  0  0  0
   37.9070   28.1210   36.0590 H   0  0  0  0  0  0  0  0  0  0  0  0
   35.9110   28.5610   33.6530 C   0  0  2  0  0  3  0  0  0  0  0  0
   37.2630   27.9680   33.3130 C   0  0  2  0  0  3  0  0  0  0  0  0
   37.0960   27.3110   32.0950 O   0  0  0  0  0  0  0  0  0  0  0  0
   36.2540   28.1570   31.3650 C   0  0  0  0  0  2  0  0  0  0  0  0
   35.1450   28.4050   32.3610 C   0  0  2  0  0  3  0  0  0  0  0  0
   35.9920   29.9030   33.9720 O   0  0  0  0  0  0  0  0  0  0  0  0
   36.8380   30.0160   34.5050 H   0  0  0  0  0  0  0  0  0  0  0  0
   34.4530   29.5830   32.0330 O   0  0  0  0  0  0  0  0  0  0  0  0
   34.4560   30.1500   32.8360 H   0  0  0  0  0  0  0  0  0  0  0  0
  1  6  2  0  0  0  0
  1  2  1  0  0  0  0
  2  3  2  0  0  0  0
  3  4  1  0  0  0  0
  3 15  1  0  0  0  0
  5  7  1  0  0  0  0
  5  4  2  0  0  0  0
  6  5  1  0  0  0  0
  7 12  1  0  0  0  0
  8  7  1  0  0  0  0
  8  9  1  0  0  0  0
  9 10  1  0  0  0  0
 10 11  1  0  0  0  0
 10 20  1  0  0  0  0
 11 23  1  0  0  0  0
 11 22  1  0  0  0  0
 12 24  1  1  0  0  0
 12 11  1  0  0  0  0
 13  1  1  0  0  0  0
 14  2  1  0  0  0  0
 16  8  1  0  0  0  0
 17  8  1  0  0  0  0
 18  9  1  0  0  0  0
 19  9  1  0  0  0  0
 21 10  1  0  0  0  0
 25 12  1  0  0  0  0
 25 26  2  0  0  0  0
 26 30  1  0  0  0  0
 27 31  1  0  0  0  0
 27 26  1  0  0  0  0
 28 27  2  0  0  0  0
 29 28  1  0  0  0  0
 29 25  1  0  0  0  0
 32 37  1  6  0  0  0
 33 32  1  0  0  0  0
 33 28  1  1  0  0  0
 34 33  1  0  0  0  0
 35 34  1  0  0  0  0
 35 36  1  0  0  0  0
 36 39  1  6  0  0  0
 36 32  1  0  0  0  0
 37 38  1  0  0  0  0
 39 40  1  0  0  0  0
M  END
>  <minimizedAffinity>
-5.74876165

$$$$

 OpenBabel03262523273D

 40 43  0  0  1  0  0  0  0  0999 V2000
   31.4550   28.6550   35.8280 C   0  0  0  0  0  0  0  0  0  0  0  0
   30.5660   28.6500   34.7590 C   0  0  0  0  0  0  0  0  0  0  0  0
   30.9760   29.2300   33.5770 C   0  0  0  0  0  0  0  0  0  0  0  0
   32.2220   29.7730   33.5210 N   0  0  0  0  0  0  0  0  0  0  0  0
   33.0710   29.7610   34.5880 C   0  0  0  0  0  0  0  0  0  0  0  0
   32.6860   29.2060   35.7280 N   0  0  0  0  0  0  0  0  0  0  0  0
   34.3770   30.3610   34.4420 N   0  0  0  0  0  0  0  0  0  0  0  0
   34.8850   31.2120   35.4830 C   0  0  0  0  0  0  0  0  0  0  0  0
   35.8210   32.2780   34.9670 C   0  0  0  0  0  0  0  0  0  0  0  0
   35.5380   32.4790   33.5020 C   0  0  0  0  0  0  0  0  0  0  0  0
   36.0040   31.2250   32.7990 C   0  0  0  0  0  0  0  0  0  0  0  0
   35.1520   30.0870   33.2280 C   0  0  1  0  0  0  0  0  0  0  0  0
   31.2090   28.2230   36.7830 H   0  0  0  0  0  0  0  0  0  0  0  0
   29.6070   28.2030   34.8890 H   0  0  0  0  0  0  0  0  0  0  0  0
   30.3320   29.2540   32.7210 H   0  0  0  0  0  0  0  0  0  0  0  0
   34.0290   31.7200   35.9670 H   0  0  0  0  0  0  0  0  0  0  0  0
   35.4740   30.6300   36.2430 H   0  0  0  0  0  0  0  0  0  0  0  0
   35.6760   33.2490   35.4800 H   0  0  0  0  0  0  0  0  0  0  0  0
   36.8810   31.9320   35.0430 H   0  0  0  0  0  0  0  0  0  0  0  0
   36.0340   33.3610   33.0830 H   0  0  0  0  0  0  0  0  0  0  0  0
   34.4300   32.5700   33.3330 H   0  0  0  0  0  0  0  0  0  0  0  0
   35.8900   31.4070   31.6900 H   0  0  0  0  0  0  0  0  0  0  0  0
   37.0730   31.1470   32.9680 H   0  0  0  0  0  0  0  0  0  0  0  0
   34.3520   29.9210   32.4500 H   0  0  0  0  0  0  0  0  0  0  0  0
   35.8770   28.8100   33.3240 C   0  0  0  0  0  0  0  0  0  0  0  0
   36.4730   28.2580   34.4560 C   0  0  0  0  0  0  0  0  0  0  0  0
   37.1030   27.0490   34.3680 C   0  0  0  0  0  0  0  0  0  0  0  0
   37.0990   26.4170   33.0610 C   0  0  0  0  0  0  0  0  0  0  0  0
   36.1400   27.6950   32.0370 S   0  0  0  0  0  0  0  0  0  0  0  0
   36.4830   28.7140   35.4370 H   0  0  0  0  0  0  0  0  0  0  0  0
   37.6090   26.4600   35.0830 H   0  0  0  0  0  0  0  0  0  0  0  0
   36.6740   24.5720   31.5630 C   0  0  2  0  0  3  0  0  0  0  0  0
   37.6340   25.1790   32.5650 C   0  0  2  0  0  3  0  0  0  0  0  0
   37.7170   24.2670   33.6160 O   0  0  0  0  0  0  0  0  0  0  0  0
   37.7180   23.0200   32.9830 C   0  0  0  0  0  2  0  0  0  0  0  0
   36.5290   23.1530   32.0590 C   0  0  2  0  0  3  0  0  0  0  0  0
   37.1950   24.5530   30.2830 O   0  0  0  0  0  0  0  0  0  0  0  0
   37.7000   25.4160   30.1700 H   0  0  0  0  0  0  0  0  0  0  0  0
   36.6290   22.2310   31.0040 O   0  0  0  0  0  0  0  0  0  0  0  0
   36.5470   22.7420   30.1690 H   0  0  0  0  0  0  0  0  0  0  0  0
  1 13  1  0  0  0  0
  2 14  1  0  0  0  0
  2  1  2  0  0  0  0
  3  2  1  0  0  0  0
  4  3  2  0  0  0  0
  4  5  1  0  0  0  0
  5  6  2  0  0  0  0
  6  1  1  0  0  0  0
  7  5  1  0  0  0  0
  7  8  1  0  0  0  0
  8 16  1  0  0  0  0
  8 17  1  0  0  0  0
  9 19  1  0  0  0  0
  9 18  1  0  0  0  0
  9  8  1  0  0  0  0
 10  9  1  0  0  0  0
 11 23  1  0  0  0  0
 11 12  1  0  0  0  0
 11 10  1  0  0  0  0
 12 24  1  6  0  0  0
 12 25  1  0  0  0  0
 12  7  1  0  0  0  0
 15  3  1  0  0  0  0
 20 10  1  0  0  0  0
 21 10  1  0  0  0  0
 22 11  1  0  0  0  0
 25 26  2  0  0  0  0
 26 30  1  0  0  0  0
 27 26  1  0  0  0  0
 27 31  1  0  0  0  0
 28 27  2  0  0  0  0
 29 28  1  0  0  0  0
 29 25  1  0  0  0  0
 32 37  1  6  0  0  0
 32 36  1  0  0  0  0
 32 33  1  0  0  0  0
 33 28  1  1  0  0  0
 33 34  1  0  0  0  0
 35 34  1  0  0  0  0
 36 39  1  6  0  0  0
 36 35  1  0  0  0  0
 38 37  1  0  0  0  0
 40 39  1  0  0  0  0
M  END
>  <minimizedAffinity>
-5.70663309

$$$$

 OpenBabel03262523273D

 40 43  0  0  1  0  0  0  0  0999 V2000
   37.4980   26.2670   35.6710 C   0  0  0  0  0  0  0  0  0  0  0  0
   38.2630   27.3280   35.1990 C   0  0  0  0  0  0  0  0  0  0  0  0
   39.5940   27.0930   34.9300 C   0  0  0  0  0  0  0  0  0  0  0  0
   40.0860   25.8410   35.1420 N   0  0  0  0  0  0  0  0  0  0  0  0
   39.3080   24.8210   35.6060 C   0  0  0  0  0  0  0  0  0  0  0  0
   38.0270   25.0390   35.8670 N   0  0  0  0  0  0  0  0  0  0  0  0
   39.9110   23.5240   35.8020 N   0  0  0  0  0  0  0  0  0  0  0  0
   39.6250   22.7850   37.0020 C   0  0  0  0  0  0  0  0  0  0  0  0
   40.7610   21.8840   37.4220 C   0  0  0  0  0  0  0  0  0  0  0  0
   42.0270   22.4040   36.7950 C   0  0  0  0  0  0  0  0  0  0  0  0
   41.9050   22.1540   35.3100 C   0  0  0  0  0  0  0  0  0  0  0  0
   40.8050   22.9930   34.7690 C   0  0  1  0  0  0  0  0  0  0  0  0
   36.4510   26.3710   35.9050 H   0  0  0  0  0  0  0  0  0  0  0  0
   37.7970   28.2770   35.0620 H   0  0  0  0  0  0  0  0  0  0  0  0
   40.2300   27.8730   34.5640 H   0  0  0  0  0  0  0  0  0  0  0  0
   39.4460   23.5070   37.8210 H   0  0  0  0  0  0  0  0  0  0  0  0
   38.7350   22.1130   36.8720 H   0  0  0  0  0  0  0  0  0  0  0  0
   40.9030   21.8710   38.5210 H   0  0  0  0  0  0  0  0  0  0  0  0
   40.6060   20.8530   37.0200 H   0  0  0  0  0  0  0  0  0  0  0  0
   42.9320   21.9310   37.1910 H   0  0  0  0  0  0  0  0  0  0  0  0
   42.1030   23.5160   36.9470 H   0  0  0  0  0  0  0  0  0  0  0  0
   42.8910   22.4470   34.8440 H   0  0  0  0  0  0  0  0  0  0  0  0
   41.8330   21.0800   35.1760 H   0  0  0  0  0  0  0  0  0  0  0  0
   41.2510   23.9260   34.3180 H   0  0  0  0  0  0  0  0  0  0  0  0
   40.0540   22.3500   33.6790 C   0  0  0  0  0  0  0  0  0  0  0  0
   40.5600   21.8660   32.4740 C   0  0  0  0  0  0  0  0  0  0  0  0
   39.7150   21.2860   31.5700 C   0  0  0  0  0  0  0  0  0  0  0  0
   38.3160   21.2180   31.9520 C   0  0  0  0  0  0  0  0  0  0  0  0
   38.3590   22.0400   33.6610 S   0  0  0  0  0  0  0  0  0  0  0  0
   41.5990   21.9080   32.1760 H   0  0  0  0  0  0  0  0  0  0  0  0
   39.8800   20.8620   30.6180 H   0  0  0  0  0  0  0  0  0  0  0  0
   36.1390   20.2510   32.3450 C   0  0  2  0  0  3  0  0  0  0  0  0
   37.1440   20.6980   31.3030 C   0  0  2  0  0  3  0  0  0  0  0  0
   37.4900   19.5510   30.5900 O   0  0  0  0  0  0  0  0  0  0  0  0
   36.2840   18.8540   30.4630 C   0  0  0  0  0  2  0  0  0  0  0  0
   35.7870   18.8540   31.8900 C   0  0  2  0  0  3  0  0  0  0  0  0
   34.9970   21.0300   32.3390 O   0  0  0  0  0  0  0  0  0  0  0  0
   35.3000   21.9750   32.1780 H   0  0  0  0  0  0  0  0  0  0  0  0
   34.3990   18.6420   31.9200 O   0  0  0  0  0  0  0  0  0  0  0  0
   34.0080   19.3800   32.4400 H   0  0  0  0  0  0  0  0  0  0  0  0
  1  6  1  0  0  0  0
  1 13  1  0  0  0  0
  2  1  2  0  0  0  0
  3  4  2  0  0  0  0
  3  2  1  0  0  0  0
  4  5  1  0  0  0  0
  5  7  1  0  0  0  0
  5  6  2  0  0  0  0
  7  8  1  0  0  0  0
  8  9  1  0  0  0  0
  8 16  1  0  0  0  0
  9 18  1  0  0  0  0
 10 21  1  0  0  0  0
 10 20  1  0  0  0  0
 10  9  1  0  0  0  0
 11 10  1  0  0  0  0
 12 24  1  6  0  0  0
 12 11  1  0  0  0  0
 12  7  1  0  0  0  0
 14  2  1  0  0  0  0
 15  3  1  0  0  0  0
 17  8  1  0  0  0  0
 19  9  1  0  0  0  0
 22 11  1  0  0  0  0
 23 11  1  0  0  0  0
 25 12  1  0  0  0  0
 26 25  2  0  0  0  0
 27 28  2  0  0  0  0
 27 26  1  0  0  0  0
 28 29  1  0  0  0  0
 29 25  1  0  0  0  0
 30 26  1  0  0  0  0
 31 27  1  0  0  0  0
 32 37  1  6  0  0  0
 33 28  1  1  0  0  0
 33 32  1  0  0  0  0
 34 33  1  0  0  0  0
 35 34  1  0  0  0  0
 35 36  1  0  0  0  0
 36 39  1  6  0  0  0
 36 32  1  0  0  0  0
 38 37  1  0  0  0  0
 39 40  1  0  0  0  0
M  END
>  <minimizedAffinity>
-5.69109058

$$$$
