REMARK  Name = 
REMARK  5 active torsions:
REMARK  status: ('A' for Active; 'I' for Inactive)
REMARK    1  A    between atoms: C_2  and  C_14
REMARK    2  A    between atoms: C_3  and  C_8
REMARK    3  A    between atoms: C_12  and  C_26
REMARK    4  A    between atoms: O_24  and  C_25
REMARK    5  A    between atoms: C_29  and  O_30
REMARK                            x       y       z     vdW  Elec       q    Type
REMARK                         _______ _______ _______ _____ _____    ______ ____
ROOT
ATOM      1  C   UNL     1      37.233  31.459  48.588  0.00  0.00    +0.000 A 
ATOM      2  C   UNL     1      37.194  32.511  49.514  0.00  0.00    +0.000 A 
ATOM      3  C   UNL     1      38.149  33.510  49.450  0.00  0.00    +0.000 A 
ATOM      4  C   UNL     1      39.132  33.463  48.476  0.00  0.00    +0.000 A 
ATOM      5  C   UNL     1      39.138  32.415  47.586  0.00  0.00    +0.000 A 
ATOM      6  N   UNL     1      38.200  31.447  47.660  0.00  0.00    +0.000 NA
ATOM      7  H   UNL     1      36.485  32.673  50.324  0.00  0.00    +0.000 HD
ATOM      8  H   UNL     1      38.188  34.354  50.125  0.00  0.00    +0.000 HD
ATOM      9  H   UNL     1      39.891  34.208  48.383  0.00  0.00    +0.000 HD
ENDROOT
BRANCH   1  12
ATOM     10  C   UNL     1      35.164  28.672  50.031  0.00  0.00    +0.000 A 
ATOM     11  C   UNL     1      36.235  29.595  49.853  0.00  0.00    +0.000 A 
ATOM     12  C   UNL     1      36.163  30.504  48.800  0.00  0.00    +0.000 A 
ATOM     13  N   UNL     1      35.054  30.454  47.990  0.00  0.00    +0.000 NA
ATOM     14  C   UNL     1      34.060  29.556  48.200  0.00  0.00    +0.000 A 
ATOM     15  N   UNL     1      34.106  28.674  49.203  0.00  0.00    +0.000 NA
ATOM     16  N   UNL     1      33.029  29.707  47.230  0.00  0.00    +0.000 N 
ATOM     17  H   UNL     1      35.204  27.955  50.848  0.00  0.00    +0.000 HD
ATOM     18  H   UNL     1      33.268  29.624  46.211  0.00  0.00    +0.000 HD
ATOM     19  H   UNL     1      32.028  29.902  47.533  0.00  0.00    +0.000 HD
BRANCH  11  20
ATOM     20  C   UNL     1      37.381  29.552  50.795  0.00  0.00    +0.000 C 
ATOM     21  F   UNL     1      38.582  29.808  50.150  0.00  0.00    +0.000 F 
ATOM     22  F   UNL     1      37.194  30.500  51.761  0.00  0.00    +0.000 F 
ATOM     23  F   UNL     1      37.514  28.325  51.428  0.00  0.00    +0.000 F 
ENDBRANCH  11  20
ENDBRANCH   1  12
BRANCH   5  25
ATOM     24  C   UNL     1      41.055  31.125  46.668  0.00  0.00    +0.000 C 
ATOM     25  C   UNL     1      40.176  32.327  46.526  0.00  0.00    +0.000 C 
ATOM     26  O   UNL     1      41.076  33.415  46.589  0.00  0.00    +0.000 OA
ATOM     27  C   UNL     1      41.975  33.023  45.596  0.00  0.00    +0.000 C 
ATOM     28  C   UNL     1      42.349  31.636  46.037  0.00  0.00    +0.000 C 
BRANCH  24  29
ATOM     29  O   UNL     1      41.337  30.821  48.000  0.00  0.00    +0.000 OA
ATOM     30  H   UNL     1      42.073  30.132  47.962  0.00  0.00    +0.000 HD
ENDBRANCH  24  29
BRANCH  28  31
ATOM     31  O   UNL     1      42.676  30.816  44.944  0.00  0.00    +0.000 OA
ATOM     32  H   UNL     1      43.504  31.154  44.536  0.00  0.00    +0.000 HD
ENDBRANCH  28  31
ENDBRANCH   5  25
TORSDOF 5
