
 OpenBabel03272509503D

 33 35  0  0  1  0  0  0  0  0999 V2000
   37.3210   30.4940   50.9570 C   0  0  0  0  0  0  0  0  0  0  0  0
   37.9880   30.7210   49.7440 C   0  0  0  0  0  0  0  0  0  0  0  0
   37.4370   30.1930   48.5900 C   0  0  0  0  0  0  0  0  0  0  0  0
   36.2810   29.4830   48.6850 N   0  0  0  0  0  0  0  0  0  0  0  0
   35.6580   29.2770   49.8640 C   0  0  0  0  0  0  0  0  0  0  0  0
   36.1980   29.7940   50.9880 N   0  0  0  0  0  0  0  0  0  0  0  0
   37.7870   30.9240   51.8320 H   0  0  0  0  0  0  0  0  0  0  0  0
   38.9040   31.2850   49.6770 H   0  0  0  0  0  0  0  0  0  0  0  0
   37.1540   31.0140   46.2470 C   0  0  1  0  0  3  0  0  0  0  0  0
   38.0750   30.3810   47.2380 C   0  0  1  0  0  3  0  0  0  0  0  0
   39.1050   31.3270   47.3900 O   0  0  0  0  0  0  0  0  0  0  0  0
   39.4710   31.6430   46.0980 C   0  0  0  0  0  2  0  0  0  0  0  0
   38.1560   31.7710   45.3680 C   0  0  2  0  0  3  0  0  0  0  0  0
   36.6030   29.9960   45.4770 O   0  0  0  0  0  0  0  0  0  0  0  0
   37.3190   29.3010   45.3580 H   0  0  0  0  0  0  0  0  0  0  0  0
   37.8250   33.1000   45.2490 O   0  0  0  0  0  0  0  0  0  0  0  0
   36.8930   33.1960   44.9100 H   0  0  0  0  0  0  0  0  0  0  0  0
   34.5160   28.5430   49.7550 O   0  0  0  0  0  0  0  0  0  0  0  0
   33.7790   28.6420   48.5300 C   0  0  0  0  0  0  0  0  0  0  0  0
   34.4330   28.8330   47.6770 H   0  0  0  0  0  0  0  0  0  0  0  0
   33.1070   29.5260   48.6980 H   0  0  0  0  0  0  0  0  0  0  0  0
   32.8630   27.4590   48.3830 C   0  0  0  0  0  0  0  0  0  0  0  0
   33.0480   26.9860   47.3980 H   0  0  0  0  0  0  0  0  0  0  0  0
   33.0520   26.6760   49.1460 H   0  0  0  0  0  0  0  0  0  0  0  0
   31.4280   27.8560   48.3630 C   0  0  0  0  0  0  0  0  0  0  0  0
   30.7350   27.7420   49.5430 C   0  0  0  0  0  0  0  0  0  0  0  0
   29.3950   28.0850   49.6370 C   0  0  0  0  0  0  0  0  0  0  0  0
   28.7690   28.5360   48.5500 N   0  0  0  0  0  0  0  0  0  0  0  0
   29.4590   28.6450   47.3920 C   0  0  0  0  0  0  0  0  0  0  0  0
   30.7600   28.3160   47.2870 N   0  0  0  0  0  0  0  0  0  0  0  0
   31.2210   27.3780   50.4400 H   0  0  0  0  0  0  0  0  0  0  0  0
   28.8810   27.9800   50.5880 H   0  0  0  0  0  0  0  0  0  0  0  0
   28.8960   29.0160   46.5530 H   0  0  0  0  0  0  0  0  0  0  0  0
  1  6  1  0  0  0  0
  1  7  1  0  0  0  0
  2  1  2  0  0  0  0
  3  4  2  0  0  0  0
  3  2  1  0  0  0  0
  4  5  1  0  0  0  0
  5  6  2  0  0  0  0
  8  2  1  0  0  0  0
  9 14  1  6  0  0  0
  9 10  1  0  0  0  0
 10 11  1  0  0  0  0
 10  3  1  1  0  0  0
 12 11  1  0  0  0  0
 13 16  1  1  0  0  0
 13 12  1  0  0  0  0
 13  9  1  0  0  0  0
 15 14  1  0  0  0  0
 17 16  1  0  0  0  0
 18  5  1  0  0  0  0
 19 21  1  0  0  0  0
 19 18  1  0  0  0  0
 20 19  1  0  0  0  0
 22 19  1  0  0  0  0
 22 24  1  0  0  0  0
 23 22  1  0  0  0  0
 25 22  1  0  0  0  0
 25 26  1  0  0  0  0
 26 27  2  0  0  0  0
 26 31  1  0  0  0  0
 27 32  1  0  0  0  0
 28 27  1  0  0  0  0
 29 28  2  0  0  0  0
 30 29  1  0  0  0  0
 30 25  2  0  0  0  0
 33 29  1  0  0  0  0
M  END
>  <minimizedAffinity>
-5.37766933

>  <minimizedRMSD>
0.409780234

$$$$
