
     RDKit          3D

 47 50  0  0  0  0  0  0  0  0999 V2000
   35.1552   29.7801   49.1878 C   0  0  0  0  0  0  0  0  0  0  0  0
   35.8705   30.3103   48.1211 C   0  0  0  0  0  0  0  0  0  0  0  0
   35.3667   30.0769   46.8543 C   0  0  0  0  0  0  0  0  0  0  0  0
   34.2181   29.3532   46.7238 N   0  0  0  0  0  0  0  0  0  0  0  0
   33.5549   28.8580   47.7625 C   0  0  0  0  0  0  0  0  0  0  0  0
   34.0296   29.0749   49.0018 N   0  0  0  0  0  0  0  0  0  0  0  0
   32.3419   28.0957   47.5826 C   0  0  0  0  0  0  0  0  0  0  0  0
   32.2247   26.8335   48.1307 C   0  0  0  0  0  0  0  0  0  0  0  0
   31.1057   26.0469   48.0047 C   0  0  0  0  0  0  0  0  0  0  0  0
   30.0948   26.6102   47.2849 C   0  0  0  0  0  0  0  0  0  0  0  0
   30.1551   27.8998   46.6983 C   0  0  0  0  0  0  0  0  0  0  0  0
   31.3151   28.6153   46.8764 N   0  0  0  0  0  0  0  0  0  0  0  0
   37.0633   31.0558   48.3226 N   0  0  0  0  0  0  0  0  0  0  0  0
   37.4103   31.3128   49.7173 C   0  0  0  0  0  0  0  0  0  0  0  0
   38.5854   32.2115   49.8819 C   0  0  0  0  0  0  0  0  0  0  0  0
   38.6381   33.2617   48.8032 C   0  0  0  0  0  0  0  0  0  0  0  0
   38.8535   32.5248   47.5122 C   0  0  0  0  0  0  0  0  0  0  0  0
   37.8164   31.4876   47.1938 C   0  0  1  0  0  0  0  0  0  0  0  0
   35.4880   29.9222   50.2002 H   0  0  0  0  0  0  0  0  0  0  0  0
   35.8170   30.4256   45.9645 H   0  0  0  0  0  0  0  0  0  0  0  0
   33.0932   26.4646   48.6944 H   0  0  0  0  0  0  0  0  0  0  0  0
   31.0303   25.0747   48.4336 H   0  0  0  0  0  0  0  0  0  0  0  0
   29.1536   26.0822   47.1154 H   0  0  0  0  0  0  0  0  0  0  0  0
   29.3231   28.2987   46.1366 H   0  0  0  0  0  0  0  0  0  0  0  0
   36.5197   31.8394   50.1436 H   0  0  0  0  0  0  0  0  0  0  0  0
   37.5097   30.3541   50.2367 H   0  0  0  0  0  0  0  0  0  0  0  0
   38.5122   32.7299   50.8684 H   0  0  0  0  0  0  0  0  0  0  0  0
   39.5057   31.6168   49.8588 H   0  0  0  0  0  0  0  0  0  0  0  0
   37.7773   33.9323   48.8045 H   0  0  0  0  0  0  0  0  0  0  0  0
   39.5514   33.8601   48.9811 H   0  0  0  0  0  0  0  0  0  0  0  0
   38.8469   33.2944   46.7134 H   0  0  0  0  0  0  0  0  0  0  0  0
   39.8941   32.1373   47.5446 H   0  0  0  0  0  0  0  0  0  0  0  0
   37.1633   31.8470   46.3613 H   0  0  0  0  0  0  0  0  0  0  0  0
   36.5174   29.1026   47.0894 O   0  0  0  0  0  0  0  0  0  0  0  0
   37.8133   29.0243   46.6447 C   0  0  2  0  0  0  0  0  0  0  0  0
   38.6022   30.2793   46.6873 C   0  0  1  0  0  0  0  0  0  0  0  0
   39.0433   30.6075   45.4212 O   0  0  0  0  0  0  0  0  0  0  0  0
   38.6954   29.6294   44.5287 C   0  0  0  0  0  0  0  0  0  0  0  0
   37.9160   28.5646   45.2149 C   0  0  2  0  0  0  0  0  0  0  0  0
   36.6282   28.3709   44.7029 O   0  0  0  0  0  0  0  0  0  0  0  0
   36.4437   28.9332   48.0565 H   0  0  0  0  0  0  0  0  0  0  0  0
   38.3340   28.2331   47.2573 H   0  0  0  0  0  0  0  0  0  0  0  0
   39.5335   30.1403   47.2941 H   0  0  0  0  0  0  0  0  0  0  0  0
   38.1365   29.9801   43.6372 H   0  0  0  0  0  0  0  0  0  0  0  0
   39.6482   29.2153   44.1140 H   0  0  0  0  0  0  0  0  0  0  0  0
   38.4434   27.5856   45.1017 H   0  0  0  0  0  0  0  0  0  0  0  0
   36.1965   27.7321   45.3165 H   0  0  0  0  0  0  0  0  0  0  0  0
  2 13  1  0
  2  1  2  0
  3  2  1  0
  4  3  2  0
  4  5  1  0
  5  6  2  0
  6  1  1  0
  7  5  1  0
  7  8  2  0
  9  8  1  0
 10  9  2  0
 11 12  2  0
 11 10  1  0
 12  7  1  0
 13 14  1  0
 14 15  1  0
 16 15  1  0
 17 16  1  0
 18 17  1  0
 18 13  1  0
  1 19  1  0
  3 20  1  0
  8 21  1  0
  9 22  1  0
 10 23  1  0
 11 24  1  0
 14 25  1  0
 14 26  1  0
 15 27  1  0
 15 28  1  0
 16 29  1  0
 16 30  1  0
 17 31  1  0
 17 32  1  0
 18 33  1  6
 34 35  1  0
 35 36  1  0
 36 37  1  0
 37 38  1  0
 38 39  1  0
 39 40  1  0
 39 35  1  0
 34 41  1  0
 35 42  1  1
 36 43  1  1
 38 44  1  0
 38 45  1  0
 39 46  1  1
 40 47  1  0
 18 36  1  0
M  ISO  8  19  14  20  14  21  14  22  14  23  14  24  14  25  13  26  13
M  ISO  7  27  13  28  13  29  13  30  13  31  13  32  13  33  13
M  END
>  <DihAtoms>  (1) 
16,17,35,34

>  <DihDeg>  (1) 
-59.95301499793483

$$$$
