
     RDKit          3D

 33 35  0  0  0  0  0  0  0  0999 V2000
   38.2653   33.4619   49.5513 Cl  0  0  0  0  0  0  0  0  0  0  0  0
   38.6600   32.5371   48.1199 C   0  0  0  0  0  0  0  0  0  0  0  0
   38.0670   31.2933   48.0753 C   0  0  0  0  0  0  0  0  0  0  0  0
   38.3278   30.4863   46.9631 C   0  0  0  0  0  0  0  0  0  0  0  0
   39.1336   30.8877   45.9466 C   0  0  0  0  0  0  0  0  0  0  0  0
   39.7116   32.1340   46.0188 C   0  0  0  0  0  0  0  0  0  0  0  0
   40.7564   32.6866   44.7324 Cl  0  0  0  0  0  0  0  0  0  0  0  0
   39.4750   32.9368   47.0867 C   0  0  0  0  0  0  0  0  0  0  0  0
   37.7849   29.9765   50.1366 C   0  0  0  0  0  0  0  0  0  0  0  0
   37.1722   30.6532   49.0466 C   0  0  0  0  0  0  0  0  0  0  0  0
   35.7865   30.6682   48.9667 C   0  0  0  0  0  0  0  0  0  0  0  0
   35.0839   30.0311   49.9410 N   0  0  0  0  0  0  0  0  0  0  0  0
   35.6839   29.3954   50.9660 C   0  0  0  0  0  0  0  0  0  0  0  0
   37.0398   29.3670   51.0658 N   0  0  0  0  0  0  0  0  0  0  0  0
   37.9059   29.4909   46.8388 H   0  0  0  0  0  0  0  0  0  0  0  0
   39.3427   30.2725   45.0814 H   0  0  0  0  0  0  0  0  0  0  0  0
   38.8630   29.9680   50.1937 H   0  0  0  0  0  0  0  0  0  0  0  0
   35.3401   31.1881   48.1302 H   0  0  0  0  0  0  0  0  0  0  0  0
   35.1469   28.8934   51.7344 H   0  0  0  0  0  0  0  0  0  0  0  0
   41.8090   33.8894   48.8514 O   0  0  0  0  0  0  0  0  0  0  0  0
   40.6366   34.5764   48.5811 C   0  0  2  0  0  0  0  0  0  0  0  0
   40.0658   34.2722   47.2118 C   0  0  2  0  0  0  0  0  0  0  0  0
   39.1388   35.3173   47.0827 O   0  0  0  0  0  0  0  0  0  0  0  0
   39.9420   36.4353   47.3080 C   0  0  0  0  0  0  0  0  0  0  0  0
   40.8689   36.0859   48.4424 C   0  0  2  0  0  0  0  0  0  0  0  0
   42.1914   36.2301   48.0069 O   0  0  0  0  0  0  0  0  0  0  0  0
   42.5877   34.2102   48.3714 H   0  0  0  0  0  0  0  0  0  0  0  0
   39.9077   34.4610   49.3979 H   0  0  0  0  0  0  0  0  0  0  0  0
   40.8673   34.4716   46.4759 H   0  0  0  0  0  0  0  0  0  0  0  0
   39.2906   37.2924   47.4824 H   0  0  0  0  0  0  0  0  0  0  0  0
   40.5249   36.6147   46.3607 H   0  0  0  0  0  0  0  0  0  0  0  0
   40.6542   36.6288   49.3814 H   0  0  0  0  0  0  0  0  0  0  0  0
   42.2353   36.5455   47.0644 H   0  0  0  0  0  0  0  0  0  0  0  0
  2  1  1  0
  3  2  2  0
  3 10  1  0
  4  3  1  0
  5  6  1  0
  5  4  2  0
  6  8  2  0
  7  6  1  0
  8  2  1  0
  9 14  2  0
 10  9  1  0
 11 10  2  0
 11 12  1  0
 12 13  2  0
 13 14  1  0
  4 15  1  0
  5 16  1  0
  9 17  1  0
 11 18  1  0
 13 19  1  0
 20 21  1  0
 21 22  1  0
 22 23  1  0
 23 24  1  0
 24 25  1  0
 25 26  1  0
 25 21  1  0
 20 27  1  0
 21 28  1  1
 22 29  1  6
 24 30  1  0
 24 31  1  0
 25 32  1  1
 26 33  1  0
  8 22  1  0
M  ISO  5  15  14  16  14  17  14  18  14  19  14
M  END
>  <DihAtoms>  (1) 
5,7,21,20

>  <DihDeg>  (1) 
90.00012316043122

$$$$
