
 OpenBabel03272509503D

 33 35  0  0  1  0  0  0  0  0999 V2000
   37.3280   30.5630   50.9300 C   0  0  0  0  0  0  0  0  0  0  0  0
   38.0090   30.7710   49.7210 C   0  0  0  0  0  0  0  0  0  0  0  0
   37.4770   30.2160   48.5710 C   0  0  0  0  0  0  0  0  0  0  0  0
   36.3250   29.4990   48.6660 N   0  0  0  0  0  0  0  0  0  0  0  0
   35.6880   29.3120   49.8410 C   0  0  0  0  0  0  0  0  0  0  0  0
   36.2110   29.8550   50.9610 N   0  0  0  0  0  0  0  0  0  0  0  0
   37.7800   31.0150   51.8020 H   0  0  0  0  0  0  0  0  0  0  0  0
   38.9220   31.3410   49.6540 H   0  0  0  0  0  0  0  0  0  0  0  0
   37.2890   31.1600   46.2650 C   0  0  1  0  0  3  0  0  0  0  0  0
   38.1300   30.3810   47.2240 C   0  0  1  0  0  3  0  0  0  0  0  0
   39.2680   31.1890   47.4070 O   0  0  0  0  0  0  0  0  0  0  0  0
   39.6650   31.5110   46.1260 C   0  0  0  0  0  2  0  0  0  0  0  0
   38.3750   31.8260   45.4110 C   0  0  2  0  0  3  0  0  0  0  0  0
   36.6200   30.2480   45.4580 O   0  0  0  0  0  0  0  0  0  0  0  0
   37.2460   29.4770   45.3070 H   0  0  0  0  0  0  0  0  0  0  0  0
   38.2050   33.1890   45.3490 O   0  0  0  0  0  0  0  0  0  0  0  0
   37.2910   33.4110   45.0190 H   0  0  0  0  0  0  0  0  0  0  0  0
   34.5530   28.5670   49.7330 O   0  0  0  0  0  0  0  0  0  0  0  0
   33.8270   28.6410   48.5000 C   0  0  0  0  0  0  0  0  0  0  0  0
   34.4900   28.8040   47.6480 H   0  0  0  0  0  0  0  0  0  0  0  0
   33.1620   29.5360   48.6390 H   0  0  0  0  0  0  0  0  0  0  0  0
   32.9020   27.4630   48.3760 C   0  0  0  0  0  0  0  0  0  0  0  0
   33.1110   26.9450   47.4180 H   0  0  0  0  0  0  0  0  0  0  0  0
   33.0580   26.7120   49.1770 H   0  0  0  0  0  0  0  0  0  0  0  0
   31.4730   27.8740   48.2940 C   0  0  0  0  0  0  0  0  0  0  0  0
   30.7170   27.7230   49.4300 C   0  0  0  0  0  0  0  0  0  0  0  0
   29.3750   28.0740   49.4650 C   0  0  0  0  0  0  0  0  0  0  0  0
   28.8140   28.5730   48.3640 N   0  0  0  0  0  0  0  0  0  0  0  0
   29.5650   28.7190   47.2490 C   0  0  0  0  0  0  0  0  0  0  0  0
   30.8680   28.3810   47.2020 N   0  0  0  0  0  0  0  0  0  0  0  0
   31.1500   27.3200   50.3370 H   0  0  0  0  0  0  0  0  0  0  0  0
   28.8110   27.9380   50.3820 H   0  0  0  0  0  0  0  0  0  0  0  0
   29.0510   29.1260   46.3960 H   0  0  0  0  0  0  0  0  0  0  0  0
  1  6  1  0  0  0  0
  1  7  1  0  0  0  0
  2  1  2  0  0  0  0
  3  4  2  0  0  0  0
  3  2  1  0  0  0  0
  4  5  1  0  0  0  0
  5  6  2  0  0  0  0
  8  2  1  0  0  0  0
  9 14  1  6  0  0  0
  9 10  1  0  0  0  0
 10 11  1  0  0  0  0
 10  3  1  1  0  0  0
 12 11  1  0  0  0  0
 13 16  1  1  0  0  0
 13 12  1  0  0  0  0
 13  9  1  0  0  0  0
 15 14  1  0  0  0  0
 17 16  1  0  0  0  0
 18  5  1  0  0  0  0
 19 21  1  0  0  0  0
 19 18  1  0  0  0  0
 20 19  1  0  0  0  0
 22 19  1  0  0  0  0
 22 24  1  0  0  0  0
 23 22  1  0  0  0  0
 25 22  1  0  0  0  0
 25 26  1  0  0  0  0
 26 27  2  0  0  0  0
 26 31  1  0  0  0  0
 27 32  1  0  0  0  0
 28 27  1  0  0  0  0
 29 28  2  0  0  0  0
 30 29  1  0  0  0  0
 30 25  2  0  0  0  0
 33 29  1  0  0  0  0
M  END
>  <minimizedAffinity>
-5.33509636

>  <minimizedRMSD>
0.747885406

$$$$
