
 OpenBabel03272504493D

 27 29  0  0  1  0  0  0  0  0999 V2000
   37.6160   25.1690   32.6940 C   0  0  0  0  0  0  0  0  0  0  0  0
   37.4000   26.5440   32.7030 C   0  0  0  0  0  0  0  0  0  0  0  0
   37.5620   27.2200   33.9270 C   0  0  0  0  0  0  0  0  0  0  0  0
   37.9200   26.4880   35.0330 N   0  0  0  0  0  0  0  0  0  0  0  0
   38.1150   25.1520   34.9640 C   0  0  0  0  0  0  0  0  0  0  0  0
   37.9620   24.5100   33.8010 N   0  0  0  0  0  0  0  0  0  0  0  0
   37.4940   24.6430   31.7620 H   0  0  0  0  0  0  0  0  0  0  0  0
   37.4060   28.2970   33.9870 H   0  0  0  0  0  0  0  0  0  0  0  0
   38.4930   24.4250   36.1640 C   0  0  0  0  0  0  0  0  0  0  0  0
   37.8250   24.6840   37.3540 C   0  0  0  0  0  0  0  0  0  0  0  0
   38.1550   24.0100   38.5220 C   0  0  0  0  0  0  0  0  0  0  0  0
   39.1780   23.0810   38.4160 C   0  0  0  0  0  0  0  0  0  0  0  0
   39.8580   22.8070   37.2360 C   0  0  0  0  0  0  0  0  0  0  0  0
   39.4670   23.5140   36.1430 N   0  0  0  0  0  0  0  0  0  0  0  0
   37.0340   25.4060   37.4230 H   0  0  0  0  0  0  0  0  0  0  0  0
   37.6420   24.2080   39.4430 H   0  0  0  0  0  0  0  0  0  0  0  0
   39.4730   22.5290   39.3030 H   0  0  0  0  0  0  0  0  0  0  0  0
   40.6520   22.0730   37.1920 H   0  0  0  0  0  0  0  0  0  0  0  0
   38.2090   27.7240   30.6730 C   0  0  2  0  0  3  0  0  0  0  0  0
   37.0210   27.2910   31.5070 C   0  0  2  0  0  3  0  0  0  0  0  0
   36.2730   28.4270   31.7530 O   0  0  0  0  0  0  0  0  0  0  0  0
   36.5380   29.3480   30.7770 C   0  0  0  0  0  2  0  0  0  0  0  0
   37.5200   28.7490   29.7920 C   0  0  2  0  0  3  0  0  0  0  0  0
   38.6570   26.7060   29.8390 O   0  0  0  0  0  0  0  0  0  0  0  0
   39.3930   26.1850   30.2070 H   0  0  0  0  0  0  0  0  0  0  0  0
   36.7730   28.1300   28.7940 O   0  0  0  0  0  0  0  0  0  0  0  0
   37.2870   28.0400   27.9480 H   0  0  0  0  0  0  0  0  0  0  0  0
  1  2  2  0  0  0  0
  1  6  1  0  0  0  0
  2  3  1  0  0  0  0
  3  8  1  0  0  0  0
  3  4  2  0  0  0  0
  5  4  1  0  0  0  0
  5  9  1  0  0  0  0
  6  5  2  0  0  0  0
  7  1  1  0  0  0  0
  9 10  1  0  0  0  0
 10 15  1  0  0  0  0
 10 11  2  0  0  0  0
 11 16  1  0  0  0  0
 12 11  1  0  0  0  0
 12 17  1  0  0  0  0
 13 12  2  0  0  0  0
 14  9  2  0  0  0  0
 14 13  1  0  0  0  0
 18 13  1  0  0  0  0
 19 24  1  6  0  0  0
 19 20  1  0  0  0  0
 20 21  1  0  0  0  0
 20  2  1  1  0  0  0
 22 21  1  0  0  0  0
 23 26  1  6  0  0  0
 23 19  1  0  0  0  0
 23 22  1  0  0  0  0
 24 25  1  0  0  0  0
 27 26  1  0  0  0  0
M  END
>  <minimizedAffinity>
-5.36651134

$$$$

 OpenBabel03272504493D

 27 29  0  0  1  0  0  0  0  0999 V2000
   36.9870   26.9640   33.9030 C   0  0  0  0  0  0  0  0  0  0  0  0
   37.6080   26.7000   32.6850 C   0  0  0  0  0  0  0  0  0  0  0  0
   38.5660   25.6710   32.6520 C   0  0  0  0  0  0  0  0  0  0  0  0
   38.8320   24.9910   33.8160 N   0  0  0  0  0  0  0  0  0  0  0  0
   38.1970   25.2920   34.9710 C   0  0  0  0  0  0  0  0  0  0  0  0
   37.2870   26.2710   35.0020 N   0  0  0  0  0  0  0  0  0  0  0  0
   36.2520   27.7510   33.9380 H   0  0  0  0  0  0  0  0  0  0  0  0
   39.0800   25.4250   31.7230 H   0  0  0  0  0  0  0  0  0  0  0  0
   38.5160   24.5420   36.1750 C   0  0  0  0  0  0  0  0  0  0  0  0
   39.5510   23.6160   36.1450 C   0  0  0  0  0  0  0  0  0  0  0  0
   39.8870   22.8810   37.2730 C   0  0  0  0  0  0  0  0  0  0  0  0
   39.1300   23.1320   38.4070 C   0  0  0  0  0  0  0  0  0  0  0  0
   38.0920   24.0530   38.4580 C   0  0  0  0  0  0  0  0  0  0  0  0
   37.8340   24.7270   37.3070 N   0  0  0  0  0  0  0  0  0  0  0  0
   40.1300   23.4300   35.2600 H   0  0  0  0  0  0  0  0  0  0  0  0
   40.6850   22.1640   37.2530 H   0  0  0  0  0  0  0  0  0  0  0  0
   39.3550   22.5810   39.3140 H   0  0  0  0  0  0  0  0  0  0  0  0
   37.5240   24.2220   39.3630 H   0  0  0  0  0  0  0  0  0  0  0  0
   38.4500   27.4710   30.4800 C   0  0  2  0  0  3  0  0  0  0  0  0
   37.3000   27.4430   31.4660 C   0  0  2  0  0  3  0  0  0  0  0  0
   36.9230   28.7570   31.6740 O   0  0  0  0  0  0  0  0  0  0  0  0
   37.3060   29.5010   30.5920 C   0  0  0  0  0  2  0  0  0  0  0  0
   37.9610   28.5880   29.5770 C   0  0  2  0  0  3  0  0  0  0  0  0
   38.5000   26.3160   29.7070 O   0  0  0  0  0  0  0  0  0  0  0  0
   39.1060   25.6350   30.0480 H   0  0  0  0  0  0  0  0  0  0  0  0
   36.9570   28.1390   28.7230 O   0  0  0  0  0  0  0  0  0  0  0  0
   37.3200   27.8530   27.8420 H   0  0  0  0  0  0  0  0  0  0  0  0
  1  7  1  0  0  0  0
  1  6  1  0  0  0  0
  2  1  2  0  0  0  0
  3  2  1  0  0  0  0
  3  4  2  0  0  0  0
  4  5  1  0  0  0  0
  5  6  2  0  0  0  0
  5  9  1  0  0  0  0
  8  3  1  0  0  0  0
  9 14  1  0  0  0  0
 10  9  2  0  0  0  0
 10 11  1  0  0  0  0
 11 12  2  0  0  0  0
 12 13  1  0  0  0  0
 12 17  1  0  0  0  0
 13 18  1  0  0  0  0
 14 13  2  0  0  0  0
 15 10  1  0  0  0  0
 16 11  1  0  0  0  0
 19 24  1  6  0  0  0
 19 20  1  0  0  0  0
 20 21  1  0  0  0  0
 20  2  1  1  0  0  0
 22 21  1  0  0  0  0
 23 26  1  6  0  0  0
 23 19  1  0  0  0  0
 23 22  1  0  0  0  0
 24 25  1  0  0  0  0
 27 26  1  0  0  0  0
M  END
>  <minimizedAffinity>
-5.35517406

$$$$

 OpenBabel03272504493D

 27 29  0  0  1  0  0  0  0  0999 V2000
   36.9130   25.3980   32.3140 C   0  0  0  0  0  0  0  0  0  0  0  0
   35.9220   25.9950   31.5400 C   0  0  0  0  0  0  0  0  0  0  0  0
   35.0150   25.1480   30.8770 C   0  0  0  0  0  0  0  0  0  0  0  0
   35.1590   23.7910   31.0310 N   0  0  0  0  0  0  0  0  0  0  0  0
   36.1440   23.2670   31.7970 C   0  0  0  0  0  0  0  0  0  0  0  0
   37.0050   24.0720   32.4270 N   0  0  0  0  0  0  0  0  0  0  0  0
   37.6120   26.0390   32.8250 H   0  0  0  0  0  0  0  0  0  0  0  0
   34.2210   25.5660   30.2590 H   0  0  0  0  0  0  0  0  0  0  0  0
   36.2520   21.8230   31.9260 C   0  0  0  0  0  0  0  0  0  0  0  0
   35.1160   21.0790   32.2160 C   0  0  0  0  0  0  0  0  0  0  0  0
   35.1780   19.6990   32.3460 C   0  0  0  0  0  0  0  0  0  0  0  0
   36.4300   19.1300   32.1720 C   0  0  0  0  0  0  0  0  0  0  0  0
   37.5780   19.8560   31.8820 C   0  0  0  0  0  0  0  0  0  0  0  0
   37.4230   21.2010   31.7720 N   0  0  0  0  0  0  0  0  0  0  0  0
   34.1520   21.5310   32.3490 H   0  0  0  0  0  0  0  0  0  0  0  0
   34.3030   19.1210   32.5710 H   0  0  0  0  0  0  0  0  0  0  0  0
   36.5300   18.0530   32.2650 H   0  0  0  0  0  0  0  0  0  0  0  0
   38.5390   19.3760   31.7520 H   0  0  0  0  0  0  0  0  0  0  0  0
   36.9390   28.0650   30.6200 C   0  0  2  0  0  3  0  0  0  0  0  0
   35.7970   27.4430   31.3980 C   0  0  2  0  0  3  0  0  0  0  0  0
   35.7090   28.1310   32.5930 O   0  0  0  0  0  0  0  0  0  0  0  0
   36.2580   29.3740   32.4270 C   0  0  0  0  0  2  0  0  0  0  0  0
   36.7140   29.5200   30.9900 C   0  0  2  0  0  3  0  0  0  0  0  0
   36.7500   27.9620   29.2460 O   0  0  0  0  0  0  0  0  0  0  0  0
   37.1910   27.1940   28.8410 H   0  0  0  0  0  0  0  0  0  0  0  0
   35.6480   30.0590   30.2750 O   0  0  0  0  0  0  0  0  0  0  0  0
   35.9520   30.5220   29.4500 H   0  0  0  0  0  0  0  0  0  0  0  0
  1  6  1  0  0  0  0
  1  7  1  0  0  0  0
  2  1  2  0  0  0  0
  3  4  2  0  0  0  0
  3  2  1  0  0  0  0
  4  5  1  0  0  0  0
  5  9  1  0  0  0  0
  5  6  2  0  0  0  0
  8  3  1  0  0  0  0
  9 10  1  0  0  0  0
 10 11  2  0  0  0  0
 10 15  1  0  0  0  0
 11 16  1  0  0  0  0
 12 17  1  0  0  0  0
 12 11  1  0  0  0  0
 13 12  2  0  0  0  0
 14 13  1  0  0  0  0
 14  9  2  0  0  0  0
 18 13  1  0  0  0  0
 19 24  1  6  0  0  0
 19 23  1  0  0  0  0
 19 20  1  0  0  0  0
 20  2  1  1  0  0  0
 20 21  1  0  0  0  0
 22 21  1  0  0  0  0
 23 26  1  6  0  0  0
 23 22  1  0  0  0  0
 25 24  1  0  0  0  0
 27 26  1  0  0  0  0
M  END
>  <minimizedAffinity>
-5.32202625

$$$$

 OpenBabel03272504493D

 27 29  0  0  1  0  0  0  0  0999 V2000
   38.4320   25.7260   35.9560 C   0  0  0  0  0  0  0  0  0  0  0  0
   38.9340   24.6830   35.1820 C   0  0  0  0  0  0  0  0  0  0  0  0
   38.6550   24.7030   33.8030 C   0  0  0  0  0  0  0  0  0  0  0  0
   37.9100   25.7430   33.3040 N   0  0  0  0  0  0  0  0  0  0  0  0
   37.4480   26.7300   34.1060 C   0  0  0  0  0  0  0  0  0  0  0  0
   37.7120   26.7100   35.4160 N   0  0  0  0  0  0  0  0  0  0  0  0
   38.6400   25.7190   37.0130 H   0  0  0  0  0  0  0  0  0  0  0  0
   39.0260   23.9090   33.1540 H   0  0  0  0  0  0  0  0  0  0  0  0
   36.6630   27.8070   33.5270 C   0  0  0  0  0  0  0  0  0  0  0  0
   36.0670   28.7410   34.3650 C   0  0  0  0  0  0  0  0  0  0  0  0
   35.3110   29.7850   33.8520 C   0  0  0  0  0  0  0  0  0  0  0  0
   35.1950   29.8270   32.4710 C   0  0  0  0  0  0  0  0  0  0  0  0
   35.7830   28.9040   31.6150 C   0  0  0  0  0  0  0  0  0  0  0  0
   36.5050   27.9160   32.2060 N   0  0  0  0  0  0  0  0  0  0  0  0
   36.1640   28.6980   35.4330 H   0  0  0  0  0  0  0  0  0  0  0  0
   34.8490   30.5070   34.4960 H   0  0  0  0  0  0  0  0  0  0  0  0
   34.6130   30.6250   32.0220 H   0  0  0  0  0  0  0  0  0  0  0  0
   35.6700   28.9700   30.5410 H   0  0  0  0  0  0  0  0  0  0  0  0
   39.4070   23.3180   37.2030 C   0  0  2  0  0  3  0  0  0  0  0  0
   39.7240   23.5910   35.7470 C   0  0  2  0  0  3  0  0  0  0  0  0
   41.0920   23.7720   35.6650 O   0  0  0  0  0  0  0  0  0  0  0  0
   41.6830   23.1400   36.7240 C   0  0  0  0  0  2  0  0  0  0  0  0
   40.6100   22.4620   37.5510 C   0  0  2  0  0  3  0  0  0  0  0  0
   38.2810   22.5150   37.3480 O   0  0  0  0  0  0  0  0  0  0  0  0
   37.4550   23.0110   37.4960 H   0  0  0  0  0  0  0  0  0  0  0  0
   40.4650   21.1700   37.0540 O   0  0  0  0  0  0  0  0  0  0  0  0
   40.0790   20.5530   37.7320 H   0  0  0  0  0  0  0  0  0  0  0  0
  1  7  1  0  0  0  0
  2  1  2  0  0  0  0
  3  2  1  0  0  0  0
  4  3  2  0  0  0  0
  4  5  1  0  0  0  0
  5  6  2  0  0  0  0
  6  1  1  0  0  0  0
  8  3  1  0  0  0  0
  9  5  1  0  0  0  0
  9 10  1  0  0  0  0
 10 15  1  0  0  0  0
 11 10  2  0  0  0  0
 11 16  1  0  0  0  0
 12 11  1  0  0  0  0
 13 14  1  0  0  0  0
 13 12  2  0  0  0  0
 14  9  2  0  0  0  0
 17 12  1  0  0  0  0
 18 13  1  0  0  0  0
 19 24  1  6  0  0  0
 19 23  1  0  0  0  0
 20  2  1  1  0  0  0
 20 19  1  0  0  0  0
 21 20  1  0  0  0  0
 21 22  1  0  0  0  0
 22 23  1  0  0  0  0
 23 26  1  6  0  0  0
 24 25  1  0  0  0  0
 26 27  1  0  0  0  0
M  END
>  <minimizedAffinity>
-5.10908985

$$$$

 OpenBabel03272504493D

 27 29  0  0  1  0  0  0  0  0999 V2000
   35.0530   25.2170   30.8760 C   0  0  0  0  0  0  0  0  0  0  0  0
   35.8960   26.1280   31.5070 C   0  0  0  0  0  0  0  0  0  0  0  0
   36.9660   25.6100   32.2600 C   0  0  0  0  0  0  0  0  0  0  0  0
   37.1160   24.2460   32.3270 N   0  0  0  0  0  0  0  0  0  0  0  0
   36.2640   23.4090   31.6930 C   0  0  0  0  0  0  0  0  0  0  0  0
   35.2470   23.9010   30.9770 N   0  0  0  0  0  0  0  0  0  0  0  0
   34.2310   25.6040   30.2970 H   0  0  0  0  0  0  0  0  0  0  0  0
   37.6550   26.2810   32.7720 H   0  0  0  0  0  0  0  0  0  0  0  0
   36.4670   21.9740   31.7970 C   0  0  0  0  0  0  0  0  0  0  0  0
   35.3950   21.1180   31.5800 C   0  0  0  0  0  0  0  0  0  0  0  0
   35.5480   19.7420   31.6690 C   0  0  0  0  0  0  0  0  0  0  0  0
   36.8210   19.2930   31.9850 C   0  0  0  0  0  0  0  0  0  0  0  0
   37.9060   20.1320   32.2060 C   0  0  0  0  0  0  0  0  0  0  0  0
   37.6630   21.4650   32.0970 N   0  0  0  0  0  0  0  0  0  0  0  0
   34.4140   21.4770   31.3350 H   0  0  0  0  0  0  0  0  0  0  0  0
   34.7220   19.0780   31.5020 H   0  0  0  0  0  0  0  0  0  0  0  0
   36.9910   18.2240   32.0670 H   0  0  0  0  0  0  0  0  0  0  0  0
   38.8860   19.7440   32.4510 H   0  0  0  0  0  0  0  0  0  0  0  0
   36.8640   28.2810   30.7380 C   0  0  2  0  0  3  0  0  0  0  0  0
   35.7070   27.5730   31.4130 C   0  0  2  0  0  3  0  0  0  0  0  0
   35.5060   28.2050   32.6250 O   0  0  0  0  0  0  0  0  0  0  0  0
   36.0000   29.4780   32.5440 C   0  0  0  0  0  2  0  0  0  0  0  0
   36.5410   29.7060   31.1490 C   0  0  2  0  0  3  0  0  0  0  0  0
   36.7710   28.2270   29.3520 O   0  0  0  0  0  0  0  0  0  0  0  0
   37.2760   27.4990   28.9480 H   0  0  0  0  0  0  0  0  0  0  0  0
   35.4990   30.2230   30.3840 O   0  0  0  0  0  0  0  0  0  0  0  0
   35.8320   30.7340   29.6000 H   0  0  0  0  0  0  0  0  0  0  0  0
  1  6  2  0  0  0  0
  1  2  1  0  0  0  0
  2  3  2  0  0  0  0
  3  4  1  0  0  0  0
  3  8  1  0  0  0  0
  5  9  1  0  0  0  0
  5  4  2  0  0  0  0
  6  5  1  0  0  0  0
  7  1  1  0  0  0  0
  9 14  1  0  0  0  0
 10 11  1  0  0  0  0
 10  9  2  0  0  0  0
 11 12  2  0  0  0  0
 12 17  1  0  0  0  0
 12 13  1  0  0  0  0
 13 18  1  0  0  0  0
 14 13  2  0  0  0  0
 15 10  1  0  0  0  0
 16 11  1  0  0  0  0
 19 24  1  6  0  0  0
 19 23  1  0  0  0  0
 19 20  1  0  0  0  0
 20  2  1  1  0  0  0
 20 21  1  0  0  0  0
 22 21  1  0  0  0  0
 23 26  1  6  0  0  0
 23 22  1  0  0  0  0
 25 24  1  0  0  0  0
 27 26  1  0  0  0  0
M  END
>  <minimizedAffinity>
-5.09526968

$$$$

 OpenBabel03272504493D

 27 29  0  0  1  0  0  0  0  0999 V2000
   36.0920   28.3890   32.0920 C   0  0  0  0  0  0  0  0  0  0  0  0
   36.8810   27.3770   32.6320 C   0  0  0  0  0  0  0  0  0  0  0  0
   37.0700   27.3720   34.0260 C   0  0  0  0  0  0  0  0  0  0  0  0
   36.4700   28.3600   34.7680 N   0  0  0  0  0  0  0  0  0  0  0  0
   35.7130   29.3190   34.1880 C   0  0  0  0  0  0  0  0  0  0  0  0
   35.5340   29.3230   32.8630 N   0  0  0  0  0  0  0  0  0  0  0  0
   35.9420   28.4000   31.0250 H   0  0  0  0  0  0  0  0  0  0  0  0
   37.6790   26.6010   34.4970 H   0  0  0  0  0  0  0  0  0  0  0  0
   35.1010   30.3420   35.0190 C   0  0  0  0  0  0  0  0  0  0  0  0
   35.9100   31.2610   35.6750 C   0  0  0  0  0  0  0  0  0  0  0  0
   35.3640   32.2530   36.4770 C   0  0  0  0  0  0  0  0  0  0  0  0
   33.9810   32.2590   36.5740 C   0  0  0  0  0  0  0  0  0  0  0  0
   33.1540   31.3500   35.9260 C   0  0  0  0  0  0  0  0  0  0  0  0
   33.7760   30.4150   35.1620 N   0  0  0  0  0  0  0  0  0  0  0  0
   36.9800   31.2450   35.5920 H   0  0  0  0  0  0  0  0  0  0  0  0
   35.9850   32.9630   36.9850 H   0  0  0  0  0  0  0  0  0  0  0  0
   33.5060   33.0160   37.1900 H   0  0  0  0  0  0  0  0  0  0  0  0
   32.0770   31.3880   36.0260 H   0  0  0  0  0  0  0  0  0  0  0  0
   36.5840   25.1720   31.5290 C   0  0  2  0  0  3  0  0  0  0  0  0
   37.5050   26.3410   31.8120 C   0  0  2  0  0  3  0  0  0  0  0  0
   38.6670   25.8130   32.3410 O   0  0  0  0  0  0  0  0  0  0  0  0
   38.7850   24.5130   31.9330 C   0  0  0  0  0  2  0  0  0  0  0  0
   37.6140   24.1730   31.0350 C   0  0  2  0  0  3  0  0  0  0  0  0
   35.7260   25.4310   30.4660 O   0  0  0  0  0  0  0  0  0  0  0  0
   34.8510   25.7630   30.7330 H   0  0  0  0  0  0  0  0  0  0  0  0
   38.0030   24.4600   29.7290 O   0  0  0  0  0  0  0  0  0  0  0  0
   37.4750   23.9450   29.0630 H   0  0  0  0  0  0  0  0  0  0  0  0
  1  2  2  0  0  0  0
  1  6  1  0  0  0  0
  2  3  1  0  0  0  0
  3  8  1  0  0  0  0
  3  4  2  0  0  0  0
  5  4  1  0  0  0  0
  5  9  1  0  0  0  0
  6  5  2  0  0  0  0
  7  1  1  0  0  0  0
  9 14  2  0  0  0  0
  9 10  1  0  0  0  0
 10 11  2  0  0  0  0
 11 12  1  0  0  0  0
 11 16  1  0  0  0  0
 12 17  1  0  0  0  0
 13 18  1  0  0  0  0
 13 12  2  0  0  0  0
 14 13  1  0  0  0  0
 15 10  1  0  0  0  0
 19 24  1  6  0  0  0
 19 20  1  0  0  0  0
 20 21  1  0  0  0  0
 20  2  1  1  0  0  0
 22 21  1  0  0  0  0
 23 26  1  6  0  0  0
 23 19  1  0  0  0  0
 23 22  1  0  0  0  0
 24 25  1  0  0  0  0
 27 26  1  0  0  0  0
M  END
>  <minimizedAffinity>
-5.05279541

$$$$

 OpenBabel03272504493D

 27 29  0  0  1  0  0  0  0  0999 V2000
   39.1230   25.4610   34.2020 C   0  0  0  0  0  0  0  0  0  0  0  0
   38.3140   25.5490   35.3320 C   0  0  0  0  0  0  0  0  0  0  0  0
   37.2310   26.4460   35.2880 C   0  0  0  0  0  0  0  0  0  0  0  0
   37.0370   27.1780   34.1420 N   0  0  0  0  0  0  0  0  0  0  0  0
   37.8580   27.0510   33.0740 C   0  0  0  0  0  0  0  0  0  0  0  0
   38.8870   26.1980   33.1160 N   0  0  0  0  0  0  0  0  0  0  0  0
   39.9550   24.7760   34.2260 H   0  0  0  0  0  0  0  0  0  0  0  0
   36.5680   26.5520   36.1460 H   0  0  0  0  0  0  0  0  0  0  0  0
   37.6080   27.8490   31.8860 C   0  0  0  0  0  0  0  0  0  0  0  0
   36.5920   28.7960   31.9040 C   0  0  0  0  0  0  0  0  0  0  0  0
   36.3230   29.5790   30.7900 C   0  0  0  0  0  0  0  0  0  0  0  0
   37.1240   29.3510   29.6820 C   0  0  0  0  0  0  0  0  0  0  0  0
   38.1440   28.4090   29.6430 C   0  0  0  0  0  0  0  0  0  0  0  0
   38.3360   27.6890   30.7790 N   0  0  0  0  0  0  0  0  0  0  0  0
   35.9790   28.9640   32.7690 H   0  0  0  0  0  0  0  0  0  0  0  0
   35.5400   30.3120   30.8000 H   0  0  0  0  0  0  0  0  0  0  0  0
   36.9520   29.9380   28.7850 H   0  0  0  0  0  0  0  0  0  0  0  0
   38.7490   28.2590   28.7590 H   0  0  0  0  0  0  0  0  0  0  0  0
   37.8000   23.4380   36.5350 C   0  0  2  0  0  3  0  0  0  0  0  0
   38.5500   24.7550   36.5340 C   0  0  2  0  0  3  0  0  0  0  0  0
   38.2290   25.3950   37.7160 O   0  0  0  0  0  0  0  0  0  0  0  0
   37.8380   24.4570   38.6320 C   0  0  0  0  0  2  0  0  0  0  0  0
   37.9430   23.0830   38.0030 C   0  0  2  0  0  3  0  0  0  0  0  0
   38.4710   22.4570   35.8120 O   0  0  0  0  0  0  0  0  0  0  0  0
   38.1720   22.3680   34.8900 H   0  0  0  0  0  0  0  0  0  0  0  0
   39.2200   22.6030   38.2790 O   0  0  0  0  0  0  0  0  0  0  0  0
   39.2600   21.6100   38.2400 H   0  0  0  0  0  0  0  0  0  0  0  0
  1  7  1  0  0  0  0
  1  2  1  0  0  0  0
  3  2  2  0  0  0  0
  3  8  1  0  0  0  0
  4  3  1  0  0  0  0
  5  6  1  0  0  0  0
  5  4  2  0  0  0  0
  6  1  2  0  0  0  0
  9 10  1  0  0  0  0
  9  5  1  0  0  0  0
 10 15  1  0  0  0  0
 11 16  1  0  0  0  0
 11 10  2  0  0  0  0
 12 11  1  0  0  0  0
 13 12  2  0  0  0  0
 13 14  1  0  0  0  0
 14  9  2  0  0  0  0
 17 12  1  0  0  0  0
 18 13  1  0  0  0  0
 19 24  1  6  0  0  0
 19 23  1  0  0  0  0
 20  2  1  6  0  0  0
 20 19  1  0  0  0  0
 20 21  1  0  0  0  0
 21 22  1  0  0  0  0
 23 26  1  6  0  0  0
 23 22  1  0  0  0  0
 25 24  1  0  0  0  0
 27 26  1  0  0  0  0
M  END
>  <minimizedAffinity>
-5.04449177

$$$$

 OpenBabel03272504493D

 27 29  0  0  1  0  0  0  0  0999 V2000
   38.3070   26.0420   35.8180 C   0  0  0  0  0  0  0  0  0  0  0  0
   38.5490   24.8830   35.0860 C   0  0  0  0  0  0  0  0  0  0  0  0
   38.0360   24.8210   33.7780 C   0  0  0  0  0  0  0  0  0  0  0  0
   37.3310   25.9000   33.3020 N   0  0  0  0  0  0  0  0  0  0  0  0
   37.1270   27.0010   34.0610 C   0  0  0  0  0  0  0  0  0  0  0  0
   37.6150   27.0600   35.3040 N   0  0  0  0  0  0  0  0  0  0  0  0
   38.6960   26.0990   36.8220 H   0  0  0  0  0  0  0  0  0  0  0  0
   38.1980   23.9350   33.1630 H   0  0  0  0  0  0  0  0  0  0  0  0
   36.3750   28.1150   33.5090 C   0  0  0  0  0  0  0  0  0  0  0  0
   36.4160   28.3530   32.1410 C   0  0  0  0  0  0  0  0  0  0  0  0
   35.7110   29.4060   31.5760 C   0  0  0  0  0  0  0  0  0  0  0  0
   34.9780   30.1870   32.4580 C   0  0  0  0  0  0  0  0  0  0  0  0
   34.9240   29.9650   33.8280 C   0  0  0  0  0  0  0  0  0  0  0  0
   35.6450   28.9120   34.2920 N   0  0  0  0  0  0  0  0  0  0  0  0
   36.9870   27.7420   31.4690 H   0  0  0  0  0  0  0  0  0  0  0  0
   35.7400   29.5940   30.5200 H   0  0  0  0  0  0  0  0  0  0  0  0
   34.4100   31.0230   32.0630 H   0  0  0  0  0  0  0  0  0  0  0  0
   34.3400   30.5970   34.4840 H   0  0  0  0  0  0  0  0  0  0  0  0
   39.0100   23.4850   37.0860 C   0  0  2  0  0  3  0  0  0  0  0  0
   39.3030   23.7530   35.6240 C   0  0  2  0  0  3  0  0  0  0  0  0
   40.6750   23.8730   35.5090 O   0  0  0  0  0  0  0  0  0  0  0  0
   41.2630   23.2070   36.5490 C   0  0  0  0  0  2  0  0  0  0  0  0
   40.1820   22.5730   37.3990 C   0  0  2  0  0  3  0  0  0  0  0  0
   37.8530   22.7320   37.2550 O   0  0  0  0  0  0  0  0  0  0  0  0
   37.0550   23.2630   37.4270 H   0  0  0  0  0  0  0  0  0  0  0  0
   39.9670   21.2920   36.8980 O   0  0  0  0  0  0  0  0  0  0  0  0
   39.5700   20.6880   37.5820 H   0  0  0  0  0  0  0  0  0  0  0  0
  1  7  1  0  0  0  0
  2  1  2  0  0  0  0
  3  2  1  0  0  0  0
  4  3  2  0  0  0  0
  4  5  1  0  0  0  0
  5  6  2  0  0  0  0
  6  1  1  0  0  0  0
  8  3  1  0  0  0  0
  9  5  1  0  0  0  0
  9 14  1  0  0  0  0
 10  9  2  0  0  0  0
 11 10  1  0  0  0  0
 11 12  2  0  0  0  0
 12 13  1  0  0  0  0
 13 14  2  0  0  0  0
 13 18  1  0  0  0  0
 15 10  1  0  0  0  0
 16 11  1  0  0  0  0
 17 12  1  0  0  0  0
 19 24  1  6  0  0  0
 19 23  1  0  0  0  0
 20  2  1  1  0  0  0
 20 19  1  0  0  0  0
 21 20  1  0  0  0  0
 21 22  1  0  0  0  0
 22 23  1  0  0  0  0
 23 26  1  6  0  0  0
 24 25  1  0  0  0  0
 26 27  1  0  0  0  0
M  END
>  <minimizedAffinity>
-5.02896547

$$$$

 OpenBabel03272504493D

 27 29  0  0  1  0  0  0  0  0999 V2000
   37.7620   25.1760   34.4530 C   0  0  0  0  0  0  0  0  0  0  0  0
   38.1900   25.6220   35.7010 C   0  0  0  0  0  0  0  0  0  0  0  0
   38.1310   27.0050   35.9530 C   0  0  0  0  0  0  0  0  0  0  0  0
   37.6580   27.8290   34.9610 N   0  0  0  0  0  0  0  0  0  0  0  0
   37.2570   27.3380   33.7660 C   0  0  0  0  0  0  0  0  0  0  0  0
   37.3130   26.0240   33.5260 N   0  0  0  0  0  0  0  0  0  0  0  0
   37.8040   24.1190   34.2500 H   0  0  0  0  0  0  0  0  0  0  0  0
   38.4530   27.4040   36.9150 H   0  0  0  0  0  0  0  0  0  0  0  0
   36.7650   28.2540   32.7500 C   0  0  0  0  0  0  0  0  0  0  0  0
   35.8100   29.2020   33.0930 C   0  0  0  0  0  0  0  0  0  0  0  0
   35.3160   30.0940   32.1530 C   0  0  0  0  0  0  0  0  0  0  0  0
   35.8340   29.9730   30.8730 C   0  0  0  0  0  0  0  0  0  0  0  0
   36.7890   29.0330   30.5090 C   0  0  0  0  0  0  0  0  0  0  0  0
   37.2150   28.2010   31.4950 N   0  0  0  0  0  0  0  0  0  0  0  0
   35.4160   29.2860   34.0890 H   0  0  0  0  0  0  0  0  0  0  0  0
   34.5780   30.8270   32.4140 H   0  0  0  0  0  0  0  0  0  0  0  0
   35.4780   30.6490   30.1010 H   0  0  0  0  0  0  0  0  0  0  0  0
   37.1700   28.9690   29.4980 H   0  0  0  0  0  0  0  0  0  0  0  0
   39.0680   23.3520   36.1960 C   0  0  2  0  0  3  0  0  0  0  0  0
   38.6870   24.7170   36.7330 C   0  0  2  0  0  3  0  0  0  0  0  0
   37.8080   24.5010   37.7780 O   0  0  0  0  0  0  0  0  0  0  0  0
   38.0160   23.2430   38.2750 C   0  0  0  0  0  2  0  0  0  0  0  0
   39.1490   22.5940   37.5080 C   0  0  2  0  0  3  0  0  0  0  0  0
   40.3440   23.3480   35.6440 O   0  0  0  0  0  0  0  0  0  0  0  0
   40.3610   23.4830   34.6800 H   0  0  0  0  0  0  0  0  0  0  0  0
   40.3270   22.8940   38.1860 O   0  0  0  0  0  0  0  0  0  0  0  0
   41.0460   22.2360   37.9900 H   0  0  0  0  0  0  0  0  0  0  0  0
  1  2  1  0  0  0  0
  2  3  2  0  0  0  0
  3  8  1  0  0  0  0
  4  3  1  0  0  0  0
  5  4  2  0  0  0  0
  6  5  1  0  0  0  0
  6  1  2  0  0  0  0
  7  1  1  0  0  0  0
  9 10  1  0  0  0  0
  9  5  1  0  0  0  0
 10 15  1  0  0  0  0
 11 16  1  0  0  0  0
 11 10  2  0  0  0  0
 12 11  1  0  0  0  0
 13 12  2  0  0  0  0
 13 14  1  0  0  0  0
 14  9  2  0  0  0  0
 17 12  1  0  0  0  0
 18 13  1  0  0  0  0
 19 24  1  1  0  0  0
 19 20  1  0  0  0  0
 19 23  1  0  0  0  0
 20  2  1  6  0  0  0
 20 21  1  0  0  0  0
 21 22  1  0  0  0  0
 23 26  1  1  0  0  0
 23 22  1  0  0  0  0
 25 24  1  0  0  0  0
 27 26  1  0  0  0  0
M  END
>  <minimizedAffinity>
-4.91632462

$$$$
