
 OpenBabel03262520073D

 18 19  0  0  1  0  0  0  0  0999 V2000
   36.7920   29.6820   51.3180 C   0  0  0  0  0  0  0  0  0  0  0  0
   37.3720   30.8770   50.8690 C   0  0  0  0  0  0  0  0  0  0  0  0
   36.8830   31.4600   49.6930 C   0  0  0  0  0  0  0  0  0  0  0  0
   35.8570   30.8250   49.0420 N   0  0  0  0  0  0  0  0  0  0  0  0
   35.3250   29.6740   49.5090 C   0  0  0  0  0  0  0  0  0  0  0  0
   35.7830   29.1040   50.6330 N   0  0  0  0  0  0  0  0  0  0  0  0
   37.2330   29.3020   52.2370 H   0  0  0  0  0  0  0  0  0  0  0  0
   38.1810   31.3780   51.3820 H   0  0  0  0  0  0  0  0  0  0  0  0
   37.2760   32.3840   49.2770 H   0  0  0  0  0  0  0  0  0  0  0  0
   34.0580   29.3870   47.3860 C   0  0  1  0  0  0  0  0  0  0  0  0
   34.2300   28.9650   48.8440 C   0  0  1  0  0  0  0  0  0  0  0  0
   34.4380   27.6170   48.6880 O   0  0  0  0  0  0  0  0  0  0  0  0
   33.4470   27.1880   47.8240 C   0  0  0  0  0  0  0  0  0  0  0  0
   32.9310   28.3960   47.0620 C   0  0  1  0  0  0  0  0  0  0  0  0
   33.5910   30.6600   47.2280 O   0  0  0  0  0  0  0  0  0  0  0  0
   34.3080   31.2670   46.8720 H   0  0  0  0  0  0  0  0  0  0  0  0
   31.7930   28.9330   47.6550 O   0  0  0  0  0  0  0  0  0  0  0  0
   31.3360   28.3190   48.2710 H   0  0  0  0  0  0  0  0  0  0  0  0
  1  7  1  0  0  0  0
  2  1  1  0  0  0  0
  2  8  1  0  0  0  0
  3  2  2  0  0  0  0
  4  5  2  0  0  0  0
  4  3  1  0  0  0  0
  5  6  1  0  0  0  0
  6  1  2  0  0  0  0
  9  3  1  0  0  0  0
 10 15  1  1  0  0  0
 10 11  1  0  0  0  0
 11  5  1  6  0  0  0
 12 11  1  0  0  0  0
 13 12  1  0  0  0  0
 14 10  1  0  0  0  0
 14 17  1  1  0  0  0
 14 13  1  0  0  0  0
 16 15  1  0  0  0  0
 17 18  1  0  0  0  0
M  END
>  <minimizedAffinity>
-4.45795488

>  <minimizedRMSD>
1.70008183

$$$$
