
 OpenBabel03272507503D

 28 30  0  0  1  0  0  0  0  0999 V2000
   36.2240   30.5390   47.1690 C   0  0  0  0  0  0  0  0  0  0  0  0
   36.7920   30.6240   45.8850 C   0  0  0  0  0  0  0  0  0  0  0  0
   35.9900   30.2020   44.8120 C   0  0  0  0  0  0  0  0  0  0  0  0
   34.7430   29.7460   45.0460 N   0  0  0  0  0  0  0  0  0  0  0  0
   34.2270   29.6790   46.2980 C   0  0  0  0  0  0  0  0  0  0  0  0
   34.9670   30.0760   47.3690 N   0  0  0  0  0  0  0  0  0  0  0  0
   36.4610   30.2820   43.8480 H   0  0  0  0  0  0  0  0  0  0  0  0
   33.2290   29.2950   46.2950 H   0  0  0  0  0  0  0  0  0  0  0  0
   38.1110   31.1200   45.7620 N   0  0  0  0  0  0  0  0  0  0  0  0
   38.4460   32.3560   46.1940 C   0  0  0  0  0  0  0  0  0  0  0  0
   39.7440   32.8210   46.0650 C   0  0  0  0  0  0  0  0  0  0  0  0
   40.5990   31.9050   45.4720 C   0  0  0  0  0  0  0  0  0  0  0  0
   41.8160   32.2910   45.3310 O   0  0  0  0  0  0  0  0  0  0  0  0
   40.3060   30.6780   45.0340 N   0  0  0  0  0  0  0  0  0  0  0  0
   39.0140   30.2980   45.1950 C   0  0  0  0  0  0  0  0  0  0  0  0
   38.7090   29.1350   44.7870 O   0  0  0  0  0  0  0  0  0  0  0  0
   37.7140   33.0220   46.6480 H   0  0  0  0  0  0  0  0  0  0  0  0
   40.0880   33.7880   46.3830 H   0  0  0  0  0  0  0  0  0  0  0  0
   41.0430   30.0800   44.6010 H   0  0  0  0  0  0  0  0  0  0  0  0
   37.3760   29.6940   49.1960 C   0  0  1  0  0  0  0  0  0  0  0  0
   36.9130   30.9250   48.4030 C   0  0  2  0  0  0  0  0  0  0  0  0
   36.1240   31.5620   49.3260 O   0  0  0  0  0  0  0  0  0  0  0  0
   37.0780   31.7510   50.3540 C   0  0  0  0  0  0  0  0  0  0  0  0
   37.7120   30.3660   50.5270 C   0  0  1  0  0  0  0  0  0  0  0  0
   36.3290   28.8080   49.4210 O   0  0  0  0  0  0  0  0  0  0  0  0
   35.8310   28.5680   48.6020 H   0  0  0  0  0  0  0  0  0  0  0  0
   37.1200   29.7240   51.6070 O   0  0  0  0  0  0  0  0  0  0  0  0
   36.4340   29.0710   51.3290 H   0  0  0  0  0  0  0  0  0  0  0  0
  1  6  1  0  0  0  0
  2  1  2  0  0  0  0
  3  4  2  0  0  0  0
  3  2  1  0  0  0  0
  4  5  1  0  0  0  0
  5  6  2  0  0  0  0
  7  3  1  0  0  0  0
  8  5  1  0  0  0  0
  9  2  1  0  0  0  0
  9 10  1  0  0  0  0
 10 17  1  0  0  0  0
 11 10  2  0  0  0  0
 11 18  1  0  0  0  0
 12 11  1  0  0  0  0
 13 12  2  0  0  0  0
 14 15  1  0  0  0  0
 14 12  1  0  0  0  0
 15  9  1  0  0  0  0
 16 15  2  0  0  0  0
 19 14  1  0  0  0  0
 20 25  1  1  0  0  0
 20 24  1  0  0  0  0
 21  1  1  6  0  0  0
 21 20  1  0  0  0  0
 21 22  1  0  0  0  0
 22 23  1  0  0  0  0
 23 24  1  0  0  0  0
 24 27  1  1  0  0  0
 26 25  1  0  0  0  0
 28 27  1  0  0  0  0
M  END
>  <minimizedAffinity>
-5.3753109

>  <minimizedRMSD>
3.04909801

$$$$
