
     RDKit          3D

 30 32  0  0  0  0  0  0  0  0999 V2000
   37.0106   31.1580   49.2520 C   0  0  0  0  0  0  0  0  0  0  0  0
   37.3149   32.4497   49.7172 C   0  0  0  0  0  0  0  0  0  0  0  0
   38.2983   33.1182   49.0078 C   0  0  0  0  0  0  0  0  0  0  0  0
   38.9098   32.5361   47.9356 N   0  0  0  0  0  0  0  0  0  0  0  0
   38.5833   31.2906   47.5247 C   0  0  0  0  0  0  0  0  0  0  0  0
   37.6233   30.5947   48.1910 N   0  0  0  0  0  0  0  0  0  0  0  0
   35.9264   30.3978   49.9787 C   0  0  1  0  0  0  0  0  0  0  0  0
   35.7961   28.9521   49.8402 C   0  0  1  0  0  0  0  0  0  0  0  0
   36.4723   29.4918   51.0728 C   0  0  0  0  0  0  0  0  0  0  0  0
   36.8156   32.8747   50.5601 H   0  0  0  0  0  0  0  0  0  0  0  0
   38.5795   34.1177   49.3158 H   0  0  0  0  0  0  0  0  0  0  0  0
   39.0400   30.7911   46.6829 H   0  0  0  0  0  0  0  0  0  0  0  0
   35.0282   30.9935   50.3190 H   0  0  0  0  0  0  0  0  0  0  0  0
   36.4900   28.4935   49.0752 H   0  0  0  0  0  0  0  0  0  0  0  0
   37.5687   29.3530   51.1442 H   0  0  0  0  0  0  0  0  0  0  0  0
   35.9522   29.4842   52.0361 H   0  0  0  0  0  0  0  0  0  0  0  0
   33.5254   28.6992   47.7315 O   0  0  0  0  0  0  0  0  0  0  0  0
   33.4841   29.0205   49.0705 C   0  0  2  0  0  0  0  0  0  0  0  0
   34.4820   28.2465   49.9097 C   0  0  2  0  0  0  0  0  0  0  0  0
   33.9700   28.2660   51.1825 O   0  0  0  0  0  0  0  0  0  0  0  0
   32.6169   28.4603   51.1583 C   0  0  0  0  0  0  0  0  0  0  0  0
   32.1791   28.5418   49.7190 C   0  0  1  0  0  0  0  0  0  0  0  0
   31.1375   29.4082   49.4898 O   0  0  0  0  0  0  0  0  0  0  0  0
   34.1061   29.3403   47.2521 H   0  0  0  0  0  0  0  0  0  0  0  0
   33.6318   30.0990   49.2607 H   0  0  0  0  0  0  0  0  0  0  0  0
   34.5964   27.2102   49.4949 H   0  0  0  0  0  0  0  0  0  0  0  0
   32.0535   27.7413   51.7668 H   0  0  0  0  0  0  0  0  0  0  0  0
   32.4222   29.4819   51.5919 H   0  0  0  0  0  0  0  0  0  0  0  0
   31.9904   27.5008   49.3783 H   0  0  0  0  0  0  0  0  0  0  0  0
   30.7394   29.1401   48.6167 H   0  0  0  0  0  0  0  0  0  0  0  0
  1  2  2  0
  1  7  1  0
  3  2  1  0
  4  3  2  0
  5  4  1  0
  5  6  2  0
  6  1  1  0
  7  9  1  0
  8  7  1  0
  8  9  1  0
  2 10  1  0
  3 11  1  0
  5 12  1  0
  7 13  1  1
  8 14  1  6
  9 15  1  0
  9 16  1  0
 17 18  1  0
 18 19  1  0
 19 20  1  0
 20 21  1  0
 21 22  1  0
 22 23  1  0
 22 18  1  0
 17 24  1  0
 18 25  1  6
 19 26  1  6
 21 27  1  0
 21 28  1  0
 22 29  1  6
 23 30  1  0
  8 19  1  0
M  ISO  7  10  14  11  14  12  14  13  13  14  13  15  13  16  13
M  END
>  <DihAtoms>  (1) 
6,7,18,17

>  <DihDeg>  (1) 
-179.9983756706143

$$$$
