
 OpenBabel03272508033D

 28 30  0  0  1  0  0  0  0  0999 V2000
   38.9190   25.4740   33.9380 C   0  0  0  0  0  0  0  0  0  0  0  0
   40.1030   26.1410   33.9390 C   0  0  0  0  0  0  0  0  0  0  0  0
   40.0670   27.1860   33.0190 C   0  0  0  0  0  0  0  0  0  0  0  0
   38.8240   27.1000   32.4870 N   0  0  0  0  0  0  0  0  0  0  0  0
   38.1460   26.0980   33.0230 N   0  0  0  0  0  0  0  0  0  0  0  0
   40.9560   25.8780   34.5820 H   0  0  0  0  0  0  0  0  0  0  0  0
   40.8700   27.8800   32.8100 H   0  0  0  0  0  0  0  0  0  0  0  0
   38.5320   24.3180   34.7480 C   0  0  0  0  0  0  0  0  0  0  0  0
   38.5450   24.4930   36.1620 C   0  0  0  0  0  0  0  0  0  0  0  0
   38.1780   23.3990   36.9580 C   0  0  0  0  0  0  0  0  0  0  0  0
   37.8330   22.2390   36.3260 N   0  0  0  0  0  0  0  0  0  0  0  0
   37.8320   22.1120   34.9830 C   0  0  0  0  0  0  0  0  0  0  0  0
   38.1860   23.1640   34.2230 N   0  0  0  0  0  0  0  0  0  0  0  0
   38.8300   25.4420   36.5930 H   0  0  0  0  0  0  0  0  0  0  0  0
   37.5450   21.1530   34.5430 H   0  0  0  0  0  0  0  0  0  0  0  0
   38.1810   23.5510   38.4330 C   0  0  0  0  0  0  0  0  0  0  0  0
   37.7970   24.8480   38.6850 F   0  0  0  0  0  0  0  0  0  0  0  0
   37.2870   22.6890   39.0530 F   0  0  0  0  0  0  0  0  0  0  0  0
   39.4410   23.3620   38.9690 F   0  0  0  0  0  0  0  0  0  0  0  0
   37.7070   27.2570   30.2920 C   0  0  2  0  0  3  0  0  0  0  0  0
   38.2980   27.9930   31.4590 C   0  0  1  0  0  3  0  0  0  0  0  0
   37.2420   28.7550   31.9580 O   0  0  0  0  0  0  0  0  0  0  0  0
   36.1140   27.9310   31.8880 C   0  0  0  0  0  2  0  0  0  0  0  0
   36.2360   27.3220   30.5190 C   0  0  2  0  0  3  0  0  0  0  0  0
   38.2290   26.0190   30.0470 O   0  0  0  0  0  0  0  0  0  0  0  0
   38.5860   25.9100   29.1230 H   0  0  0  0  0  0  0  0  0  0  0  0
   35.6400   26.0660   30.4440 O   0  0  0  0  0  0  0  0  0  0  0  0
   34.6460   26.1970   30.5080 H   0  0  0  0  0  0  0  0  0  0  0  0
  1  2  1  0  0  0  0
  1  8  1  0  0  0  0
  2  6  1  0  0  0  0
  3  2  2  0  0  0  0
  4  3  1  0  0  0  0
  4  5  1  0  0  0  0
  5  1  2  0  0  0  0
  7  3  1  0  0  0  0
  8  9  1  0  0  0  0
  9 14  1  0  0  0  0
  9 10  2  0  0  0  0
 10 16  1  0  0  0  0
 11 10  1  0  0  0  0
 12 11  2  0  0  0  0
 13  8  2  0  0  0  0
 13 12  1  0  0  0  0
 15 12  1  0  0  0  0
 16 17  1  0  0  0  0
 16 19  1  0  0  0  0
 16 18  1  0  0  0  0
 20 25  1  1  0  0  0
 20 24  1  0  0  0  0
 20 21  1  0  0  0  0
 21 22  1  0  0  0  0
 21  4  1  1  0  0  0
 23 22  1  0  0  0  0
 24 27  1  1  0  0  0
 24 23  1  0  0  0  0
 26 25  1  0  0  0  0
 27 28  1  0  0  0  0
M  END
>  <minimizedAffinity>
-5.65528107

$$$$

 OpenBabel03272508033D

 28 30  0  0  1  0  0  0  0  0999 V2000
   37.8580   25.3930   35.1650 C   0  0  0  0  0  0  0  0  0  0  0  0
   37.5070   26.7060   35.1850 C   0  0  0  0  0  0  0  0  0  0  0  0
   37.1120   27.1170   33.9150 C   0  0  0  0  0  0  0  0  0  0  0  0
   37.2450   25.9990   33.1610 N   0  0  0  0  0  0  0  0  0  0  0  0
   37.6820   24.9840   33.8900 N   0  0  0  0  0  0  0  0  0  0  0  0
   37.5390   27.3360   36.0850 H   0  0  0  0  0  0  0  0  0  0  0  0
   36.7820   28.1100   33.6390 H   0  0  0  0  0  0  0  0  0  0  0  0
   38.3300   24.5670   36.2770 C   0  0  0  0  0  0  0  0  0  0  0  0
   39.5060   23.7960   36.0490 C   0  0  0  0  0  0  0  0  0  0  0  0
   39.9760   22.9960   37.1000 C   0  0  0  0  0  0  0  0  0  0  0  0
   39.2760   23.0090   38.2730 N   0  0  0  0  0  0  0  0  0  0  0  0
   38.1660   23.7540   38.4510 C   0  0  0  0  0  0  0  0  0  0  0  0
   37.7170   24.5190   37.4400 N   0  0  0  0  0  0  0  0  0  0  0  0
   40.0080   23.8340   35.0940 H   0  0  0  0  0  0  0  0  0  0  0  0
   37.6540   23.7170   39.4160 H   0  0  0  0  0  0  0  0  0  0  0  0
   41.1980   22.1830   36.8930 C   0  0  0  0  0  0  0  0  0  0  0  0
   42.2490   23.0710   36.8670 F   0  0  0  0  0  0  0  0  0  0  0  0
   41.4060   21.2720   37.9200 F   0  0  0  0  0  0  0  0  0  0  0  0
   41.1720   21.5090   35.6860 F   0  0  0  0  0  0  0  0  0  0  0  0
   37.9000   25.0320   30.9860 C   0  0  2  0  0  3  0  0  0  0  0  0
   36.9460   25.9190   31.7340 C   0  0  1  0  0  3  0  0  0  0  0  0
   35.6960   25.3390   31.5220 O   0  0  0  0  0  0  0  0  0  0  0  0
   35.9000   23.9570   31.6050 C   0  0  0  0  0  2  0  0  0  0  0  0
   37.1500   23.7600   30.7950 C   0  0  2  0  0  3  0  0  0  0  0  0
   39.1520   24.9250   31.5220 O   0  0  0  0  0  0  0  0  0  0  0  0
   39.8810   25.1730   30.8900 H   0  0  0  0  0  0  0  0  0  0  0  0
   37.8830   22.6540   31.2160 O   0  0  0  0  0  0  0  0  0  0  0  0
   37.3620   21.8310   30.9690 H   0  0  0  0  0  0  0  0  0  0  0  0
  1  2  1  0  0  0  0
  1  8  1  0  0  0  0
  2  6  1  0  0  0  0
  3  2  2  0  0  0  0
  4  5  1  0  0  0  0
  4  3  1  0  0  0  0
  5  1  2  0  0  0  0
  7  3  1  0  0  0  0
  8 13  1  0  0  0  0
  9  8  2  0  0  0  0
  9 10  1  0  0  0  0
 10 11  2  0  0  0  0
 11 12  1  0  0  0  0
 12 15  1  0  0  0  0
 13 12  2  0  0  0  0
 14  9  1  0  0  0  0
 16 10  1  0  0  0  0
 16 18  1  0  0  0  0
 17 16  1  0  0  0  0
 19 16  1  0  0  0  0
 20 25  1  1  0  0  0
 20 21  1  0  0  0  0
 21  4  1  1  0  0  0
 22 23  1  0  0  0  0
 22 21  1  0  0  0  0
 24 20  1  0  0  0  0
 24 27  1  1  0  0  0
 24 23  1  0  0  0  0
 26 25  1  0  0  0  0
 28 27  1  0  0  0  0
M  END
>  <minimizedAffinity>
-5.58258486

$$$$

 OpenBabel03272508033D

 28 30  0  0  1  0  0  0  0  0999 V2000
   38.0890   25.3680   35.1940 C   0  0  0  0  0  0  0  0  0  0  0  0
   37.4840   26.5830   35.2460 C   0  0  0  0  0  0  0  0  0  0  0  0
   37.2440   27.0550   33.9580 C   0  0  0  0  0  0  0  0  0  0  0  0
   37.7310   26.0730   33.1620 N   0  0  0  0  0  0  0  0  0  0  0  0
   38.2280   25.0800   33.8820 N   0  0  0  0  0  0  0  0  0  0  0  0
   37.2290   27.1020   36.1800 H   0  0  0  0  0  0  0  0  0  0  0  0
   36.7750   27.9950   33.7000 H   0  0  0  0  0  0  0  0  0  0  0  0
   38.5150   24.5210   36.3100 C   0  0  0  0  0  0  0  0  0  0  0  0
   39.7000   23.7550   36.1190 C   0  0  0  0  0  0  0  0  0  0  0  0
   40.1260   22.9370   37.1750 C   0  0  0  0  0  0  0  0  0  0  0  0
   39.3770   22.9290   38.3160 N   0  0  0  0  0  0  0  0  0  0  0  0
   38.2600   23.6710   38.4600 C   0  0  0  0  0  0  0  0  0  0  0  0
   37.8540   24.4540   37.4450 N   0  0  0  0  0  0  0  0  0  0  0  0
   40.2420   23.8110   35.1860 H   0  0  0  0  0  0  0  0  0  0  0  0
   37.7070   23.6160   39.4020 H   0  0  0  0  0  0  0  0  0  0  0  0
   41.3570   22.1280   37.0050 C   0  0  0  0  0  0  0  0  0  0  0  0
   41.2080   21.4500   35.8160 F   0  0  0  0  0  0  0  0  0  0  0  0
   42.4990   22.9140   36.9330 F   0  0  0  0  0  0  0  0  0  0  0  0
   41.5080   21.1980   38.0160 F   0  0  0  0  0  0  0  0  0  0  0  0
   36.8220   25.0460   31.1090 C   0  0  2  0  0  3  0  0  0  0  0  0
   37.7110   26.1010   31.7020 C   0  0  1  0  0  3  0  0  0  0  0  0
   37.1790   27.3030   31.2370 O   0  0  0  0  0  0  0  0  0  0  0  0
   35.7890   27.1520   31.3010 C   0  0  0  0  0  2  0  0  0  0  0  0
   35.5810   25.7780   30.7300 C   0  0  2  0  0  3  0  0  0  0  0  0
   36.6560   23.9200   31.8640 O   0  0  0  0  0  0  0  0  0  0  0  0
   36.9040   23.0790   31.3890 H   0  0  0  0  0  0  0  0  0  0  0  0
   34.4380   25.1640   31.2350 O   0  0  0  0  0  0  0  0  0  0  0  0
   33.6420   25.6500   30.8610 H   0  0  0  0  0  0  0  0  0  0  0  0
  1  2  1  0  0  0  0
  1  8  1  0  0  0  0
  2  6  1  0  0  0  0
  3  2  2  0  0  0  0
  4  5  1  0  0  0  0
  4  3  1  0  0  0  0
  5  1  2  0  0  0  0
  7  3  1  0  0  0  0
  8 13  1  0  0  0  0
  9  8  2  0  0  0  0
  9 10  1  0  0  0  0
 10 11  2  0  0  0  0
 11 12  1  0  0  0  0
 12 15  1  0  0  0  0
 13 12  2  0  0  0  0
 14  9  1  0  0  0  0
 16 10  1  0  0  0  0
 16 19  1  0  0  0  0
 17 16  1  0  0  0  0
 18 16  1  0  0  0  0
 20 21  1  0  0  0  0
 20 25  1  1  0  0  0
 21  4  1  1  0  0  0
 22 23  1  0  0  0  0
 22 21  1  0  0  0  0
 24 20  1  0  0  0  0
 24 27  1  1  0  0  0
 24 23  1  0  0  0  0
 26 25  1  0  0  0  0
 28 27  1  0  0  0  0
M  END
>  <minimizedAffinity>
-5.52487898

$$$$

 OpenBabel03272508033D

 28 30  0  0  1  0  0  0  0  0999 V2000
   37.6580   24.3040   33.0620 C   0  0  0  0  0  0  0  0  0  0  0  0
   37.7370   24.8000   31.8000 C   0  0  0  0  0  0  0  0  0  0  0  0
   37.4080   23.8120   30.8740 C   0  0  0  0  0  0  0  0  0  0  0  0
   37.1370   22.7300   31.6440 N   0  0  0  0  0  0  0  0  0  0  0  0
   37.2820   23.0130   32.9290 N   0  0  0  0  0  0  0  0  0  0  0  0
   38.0210   25.8350   31.5630 H   0  0  0  0  0  0  0  0  0  0  0  0
   37.3880   23.9260   29.7990 H   0  0  0  0  0  0  0  0  0  0  0  0
   37.9190   24.9980   34.3240 C   0  0  0  0  0  0  0  0  0  0  0  0
   37.9260   24.2010   35.5050 C   0  0  0  0  0  0  0  0  0  0  0  0
   38.1740   24.8460   36.7250 C   0  0  0  0  0  0  0  0  0  0  0  0
   38.3920   26.1940   36.7010 N   0  0  0  0  0  0  0  0  0  0  0  0
   38.3780   26.9140   35.5610 C   0  0  0  0  0  0  0  0  0  0  0  0
   38.1400   26.2930   34.3920 N   0  0  0  0  0  0  0  0  0  0  0  0
   37.7450   23.1380   35.4490 H   0  0  0  0  0  0  0  0  0  0  0  0
   38.5610   27.9910   35.6140 H   0  0  0  0  0  0  0  0  0  0  0  0
   38.1880   24.0430   37.9720 C   0  0  0  0  0  0  0  0  0  0  0  0
   37.9450   24.9260   38.9990 F   0  0  0  0  0  0  0  0  0  0  0  0
   37.2030   23.0640   37.9790 F   0  0  0  0  0  0  0  0  0  0  0  0
   39.4180   23.4520   38.1930 F   0  0  0  0  0  0  0  0  0  0  0  0
   36.9580   20.3140   32.1160 C   0  0  2  0  0  3  0  0  0  0  0  0
   36.7380   21.4240   31.1290 C   0  0  1  0  0  3  0  0  0  0  0  0
   35.3680   21.3910   30.8720 O   0  0  0  0  0  0  0  0  0  0  0  0
   34.7560   21.1450   32.1060 C   0  0  0  0  0  2  0  0  0  0  0  0
   35.6060   20.0470   32.6800 C   0  0  2  0  0  3  0  0  0  0  0  0
   37.9640   20.5160   33.0180 O   0  0  0  0  0  0  0  0  0  0  0  0
   38.6540   19.7970   33.0160 H   0  0  0  0  0  0  0  0  0  0  0  0
   35.6100   20.0570   34.0730 O   0  0  0  0  0  0  0  0  0  0  0  0
   34.6960   19.7750   34.3820 H   0  0  0  0  0  0  0  0  0  0  0  0
  1  8  1  0  0  0  0
  2  1  1  0  0  0  0
  3  4  1  0  0  0  0
  3  2  2  0  0  0  0
  4  5  1  0  0  0  0
  5  1  2  0  0  0  0
  6  2  1  0  0  0  0
  7  3  1  0  0  0  0
  8 13  2  0  0  0  0
  8  9  1  0  0  0  0
  9 10  2  0  0  0  0
 10 16  1  0  0  0  0
 11 10  1  0  0  0  0
 12 15  1  0  0  0  0
 12 11  2  0  0  0  0
 13 12  1  0  0  0  0
 14  9  1  0  0  0  0
 16 18  1  0  0  0  0
 16 19  1  0  0  0  0
 16 17  1  0  0  0  0
 20 24  1  0  0  0  0
 20 25  1  1  0  0  0
 21  4  1  1  0  0  0
 21 20  1  0  0  0  0
 22 21  1  0  0  0  0
 22 23  1  0  0  0  0
 23 24  1  0  0  0  0
 24 27  1  1  0  0  0
 26 25  1  0  0  0  0
 27 28  1  0  0  0  0
M  END
>  <minimizedAffinity>
-5.37298155

$$$$

 OpenBabel03272508033D

 28 30  0  0  1  0  0  0  0  0999 V2000
   34.8760   29.5550   34.3480 C   0  0  0  0  0  0  0  0  0  0  0  0
   35.0000   30.8270   34.8090 C   0  0  0  0  0  0  0  0  0  0  0  0
   33.7470   31.3530   35.1110 C   0  0  0  0  0  0  0  0  0  0  0  0
   32.8960   30.3420   34.8100 N   0  0  0  0  0  0  0  0  0  0  0  0
   33.5530   29.2840   34.3630 N   0  0  0  0  0  0  0  0  0  0  0  0
   35.9610   31.3490   34.9190 H   0  0  0  0  0  0  0  0  0  0  0  0
   33.5460   32.3440   35.4950 H   0  0  0  0  0  0  0  0  0  0  0  0
   35.9370   28.6410   33.9190 C   0  0  0  0  0  0  0  0  0  0  0  0
   36.8000   28.1380   34.9350 C   0  0  0  0  0  0  0  0  0  0  0  0
   37.8230   27.2620   34.5470 C   0  0  0  0  0  0  0  0  0  0  0  0
   37.9250   26.9490   33.2220 N   0  0  0  0  0  0  0  0  0  0  0  0
   37.0870   27.4460   32.2890 C   0  0  0  0  0  0  0  0  0  0  0  0
   36.1080   28.2870   32.6640 N   0  0  0  0  0  0  0  0  0  0  0  0
   36.6590   28.4300   35.9650 H   0  0  0  0  0  0  0  0  0  0  0  0
   37.2270   27.1530   31.2440 H   0  0  0  0  0  0  0  0  0  0  0  0
   38.7370   26.7210   35.5820 C   0  0  0  0  0  0  0  0  0  0  0  0
   38.6830   25.3520   35.4630 F   0  0  0  0  0  0  0  0  0  0  0  0
   40.0480   27.1370   35.3960 F   0  0  0  0  0  0  0  0  0  0  0  0
   38.3300   27.0600   36.8590 F   0  0  0  0  0  0  0  0  0  0  0  0
   30.7240   29.4000   34.1100 C   0  0  2  0  0  3  0  0  0  0  0  0
   31.4450   30.4070   34.9600 C   0  0  1  0  0  3  0  0  0  0  0  0
   31.0670   30.0920   36.2650 O   0  0  0  0  0  0  0  0  0  0  0  0
   31.0600   28.6950   36.3300 C   0  0  0  0  0  2  0  0  0  0  0  0
   30.3610   28.3090   35.0570 C   0  0  2  0  0  3  0  0  0  0  0  0
   31.3690   29.0220   32.9660 O   0  0  0  0  0  0  0  0  0  0  0  0
   30.8320   29.1630   32.1390 H   0  0  0  0  0  0  0  0  0  0  0  0
   30.7610   27.0600   34.5920 O   0  0  0  0  0  0  0  0  0  0  0  0
   30.4000   26.3690   35.2260 H   0  0  0  0  0  0  0  0  0  0  0  0
  1  5  2  0  0  0  0
  1  2  1  0  0  0  0
  2  6  1  0  0  0  0
  2  3  2  0  0  0  0
  3  7  1  0  0  0  0
  4  3  1  0  0  0  0
  5  4  1  0  0  0  0
  8  1  1  0  0  0  0
  8  9  1  0  0  0  0
  9 14  1  0  0  0  0
 10  9  2  0  0  0  0
 10 16  1  0  0  0  0
 11 10  1  0  0  0  0
 12 13  1  0  0  0  0
 12 11  2  0  0  0  0
 13  8  2  0  0  0  0
 15 12  1  0  0  0  0
 16 19  1  0  0  0  0
 17 16  1  0  0  0  0
 18 16  1  0  0  0  0
 20 25  1  6  0  0  0
 20 21  1  0  0  0  0
 20 24  1  0  0  0  0
 21  4  1  1  0  0  0
 21 22  1  0  0  0  0
 22 23  1  0  0  0  0
 24 27  1  6  0  0  0
 24 23  1  0  0  0  0
 26 25  1  0  0  0  0
 27 28  1  0  0  0  0
M  END
>  <minimizedAffinity>
-5.35334682

$$$$

 OpenBabel03272508033D

 28 30  0  0  1  0  0  0  0  0999 V2000
   36.1420   28.7190   33.3870 C   0  0  0  0  0  0  0  0  0  0  0  0
   36.0360   29.4980   32.2790 C   0  0  0  0  0  0  0  0  0  0  0  0
   35.4300   30.7110   32.6010 C   0  0  0  0  0  0  0  0  0  0  0  0
   35.1910   30.6050   33.9310 N   0  0  0  0  0  0  0  0  0  0  0  0
   35.6070   29.4390   34.3970 N   0  0  0  0  0  0  0  0  0  0  0  0
   36.3830   29.1970   31.2810 H   0  0  0  0  0  0  0  0  0  0  0  0
   35.2190   31.5210   31.9160 H   0  0  0  0  0  0  0  0  0  0  0  0
   36.7130   27.3750   33.4960 C   0  0  0  0  0  0  0  0  0  0  0  0
   37.1380   26.9620   34.7910 C   0  0  0  0  0  0  0  0  0  0  0  0
   37.6890   25.6790   34.9190 C   0  0  0  0  0  0  0  0  0  0  0  0
   37.7800   24.9110   33.7940 N   0  0  0  0  0  0  0  0  0  0  0  0
   37.3650   25.3380   32.5830 C   0  0  0  0  0  0  0  0  0  0  0  0
   36.8380   26.5690   32.4640 N   0  0  0  0  0  0  0  0  0  0  0  0
   37.0360   27.6250   35.6370 H   0  0  0  0  0  0  0  0  0  0  0  0
   37.4690   24.6700   31.7230 H   0  0  0  0  0  0  0  0  0  0  0  0
   38.1400   25.2210   36.2540 C   0  0  0  0  0  0  0  0  0  0  0  0
   38.3070   26.3570   37.0120 F   0  0  0  0  0  0  0  0  0  0  0  0
   37.2070   24.4010   36.8740 F   0  0  0  0  0  0  0  0  0  0  0  0
   39.3540   24.5620   36.1920 F   0  0  0  0  0  0  0  0  0  0  0  0
   35.4550   32.1530   35.8350 C   0  0  2  0  0  3  0  0  0  0  0  0
   34.5600   31.6400   34.7450 C   0  0  1  0  0  3  0  0  0  0  0  0
   34.2700   32.7670   33.9770 O   0  0  0  0  0  0  0  0  0  0  0  0
   35.4660   33.4900   33.8990 C   0  0  0  0  0  2  0  0  0  0  0  0
   35.9650   33.4520   35.3160 C   0  0  2  0  0  3  0  0  0  0  0  0
   36.3940   31.2720   36.2940 O   0  0  0  0  0  0  0  0  0  0  0  0
   36.3470   31.1120   37.2770 H   0  0  0  0  0  0  0  0  0  0  0  0
   37.3530   33.5350   35.3890 O   0  0  0  0  0  0  0  0  0  0  0  0
   37.6170   34.4660   35.1170 H   0  0  0  0  0  0  0  0  0  0  0  0
  1  8  1  0  0  0  0
  1  5  2  0  0  0  0
  2  3  2  0  0  0  0
  2  1  1  0  0  0  0
  3  4  1  0  0  0  0
  4  5  1  0  0  0  0
  6  2  1  0  0  0  0
  7  3  1  0  0  0  0
  8  9  1  0  0  0  0
  9 10  2  0  0  0  0
  9 14  1  0  0  0  0
 10 16  1  0  0  0  0
 11 10  1  0  0  0  0
 12 11  2  0  0  0  0
 13 12  1  0  0  0  0
 13  8  2  0  0  0  0
 15 12  1  0  0  0  0
 16 18  1  0  0  0  0
 16 17  1  0  0  0  0
 19 16  1  0  0  0  0
 20 25  1  6  0  0  0
 21  4  1  6  0  0  0
 21 20  1  0  0  0  0
 22 21  1  0  0  0  0
 23 22  1  0  0  0  0
 23 24  1  0  0  0  0
 24 27  1  6  0  0  0
 24 20  1  0  0  0  0
 25 26  1  0  0  0  0
 28 27  1  0  0  0  0
M  END
>  <minimizedAffinity>
-5.28136873

$$$$

 OpenBabel03272508033D

 28 30  0  0  1  0  0  0  0  0999 V2000
   35.5910   28.6610   32.3710 C   0  0  0  0  0  0  0  0  0  0  0  0
   35.8420   29.5570   31.3810 C   0  0  0  0  0  0  0  0  0  0  0  0
   34.8340   30.5160   31.3330 C   0  0  0  0  0  0  0  0  0  0  0  0
   33.9920   30.1440   32.3270 N   0  0  0  0  0  0  0  0  0  0  0  0
   34.4310   29.0560   32.9400 N   0  0  0  0  0  0  0  0  0  0  0  0
   36.7220   29.5140   30.7230 H   0  0  0  0  0  0  0  0  0  0  0  0
   34.7760   31.3480   30.6440 H   0  0  0  0  0  0  0  0  0  0  0  0
   36.3900   27.5000   32.7630 C   0  0  0  0  0  0  0  0  0  0  0  0
   37.1490   27.6190   33.9630 C   0  0  0  0  0  0  0  0  0  0  0  0
   37.9220   26.5190   34.3580 C   0  0  0  0  0  0  0  0  0  0  0  0
   37.8980   25.4060   33.5680 N   0  0  0  0  0  0  0  0  0  0  0  0
   37.1650   25.3310   32.4370 C   0  0  0  0  0  0  0  0  0  0  0  0
   36.4250   26.3880   32.0610 N   0  0  0  0  0  0  0  0  0  0  0  0
   37.1200   28.5320   34.5390 H   0  0  0  0  0  0  0  0  0  0  0  0
   37.1930   24.4080   31.8510 H   0  0  0  0  0  0  0  0  0  0  0  0
   38.7230   26.6130   35.6030 C   0  0  0  0  0  0  0  0  0  0  0  0
   38.0770   27.5270   36.4040 F   0  0  0  0  0  0  0  0  0  0  0  0
   38.7970   25.4010   36.2750 F   0  0  0  0  0  0  0  0  0  0  0  0
   40.0010   27.0780   35.3620 F   0  0  0  0  0  0  0  0  0  0  0  0
   31.6740   29.9240   33.1460 C   0  0  2  0  0  3  0  0  0  0  0  0
   32.7620   30.8480   32.6810 C   0  0  1  0  0  3  0  0  0  0  0  0
   32.9750   31.7050   33.7600 O   0  0  0  0  0  0  0  0  0  0  0  0
   32.9000   30.9000   34.9020 C   0  0  0  0  0  2  0  0  0  0  0  0
   31.6880   30.0550   34.6300 C   0  0  2  0  0  3  0  0  0  0  0  0
   31.7220   28.6530   32.6480 O   0  0  0  0  0  0  0  0  0  0  0  0
   30.8880   28.3740   32.1800 H   0  0  0  0  0  0  0  0  0  0  0  0
   31.7550   28.8160   35.2620 O   0  0  0  0  0  0  0  0  0  0  0  0
   31.6620   28.9730   36.2500 H   0  0  0  0  0  0  0  0  0  0  0  0
  1  8  1  0  0  0  0
  1  5  2  0  0  0  0
  2  1  1  0  0  0  0
  3  2  2  0  0  0  0
  3  4  1  0  0  0  0
  4  5  1  0  0  0  0
  6  2  1  0  0  0  0
  7  3  1  0  0  0  0
  8  9  1  0  0  0  0
  9 10  2  0  0  0  0
  9 14  1  0  0  0  0
 10 16  1  0  0  0  0
 11 10  1  0  0  0  0
 12 11  2  0  0  0  0
 13 12  1  0  0  0  0
 13  8  2  0  0  0  0
 15 12  1  0  0  0  0
 16 18  1  0  0  0  0
 16 17  1  0  0  0  0
 19 16  1  0  0  0  0
 20 25  1  1  0  0  0
 20 24  1  0  0  0  0
 21  4  1  1  0  0  0
 21 20  1  0  0  0  0
 21 22  1  0  0  0  0
 22 23  1  0  0  0  0
 24 23  1  0  0  0  0
 24 27  1  1  0  0  0
 26 25  1  0  0  0  0
 27 28  1  0  0  0  0
M  END
>  <minimizedAffinity>
-5.27137232

$$$$

 OpenBabel03272508033D

 28 30  0  0  1  0  0  0  0  0999 V2000
   36.5390   28.4360   33.0720 C   0  0  0  0  0  0  0  0  0  0  0  0
   37.0970   28.3380   31.8370 C   0  0  0  0  0  0  0  0  0  0  0  0
   38.2680   27.5870   31.8970 C   0  0  0  0  0  0  0  0  0  0  0  0
   38.3690   27.2560   33.2070 N   0  0  0  0  0  0  0  0  0  0  0  0
   37.3560   27.7500   33.9010 N   0  0  0  0  0  0  0  0  0  0  0  0
   36.6690   28.7930   30.9320 H   0  0  0  0  0  0  0  0  0  0  0  0
   38.9170   27.3490   31.0650 H   0  0  0  0  0  0  0  0  0  0  0  0
   35.3100   29.1310   33.4560 C   0  0  0  0  0  0  0  0  0  0  0  0
   35.3810   29.9710   34.6050 C   0  0  0  0  0  0  0  0  0  0  0  0
   34.2150   30.6470   34.9910 C   0  0  0  0  0  0  0  0  0  0  0  0
   33.0890   30.4560   34.2420 N   0  0  0  0  0  0  0  0  0  0  0  0
   33.0620   29.6520   33.1590 C   0  0  0  0  0  0  0  0  0  0  0  0
   34.1820   29.0050   32.7910 N   0  0  0  0  0  0  0  0  0  0  0  0
   36.3070   30.0740   35.1510 H   0  0  0  0  0  0  0  0  0  0  0  0
   32.1260   29.5440   32.6040 H   0  0  0  0  0  0  0  0  0  0  0  0
   34.2570   31.5290   36.1830 C   0  0  0  0  0  0  0  0  0  0  0  0
   33.9040   32.7840   35.7430 F   0  0  0  0  0  0  0  0  0  0  0  0
   33.3620   31.1300   37.1660 F   0  0  0  0  0  0  0  0  0  0  0  0
   35.5260   31.6030   36.7260 F   0  0  0  0  0  0  0  0  0  0  0  0
   39.4630   26.4880   35.2810 C   0  0  2  0  0  3  0  0  0  0  0  0
   39.4480   26.4570   33.7800 C   0  0  1  0  0  3  0  0  0  0  0  0
   39.2890   25.1090   33.4630 O   0  0  0  0  0  0  0  0  0  0  0  0
   38.3640   24.6090   34.3860 C   0  0  0  0  0  2  0  0  0  0  0  0
   38.8460   25.1930   35.6840 C   0  0  2  0  0  3  0  0  0  0  0  0
   38.9430   27.6130   35.8560 O   0  0  0  0  0  0  0  0  0  0  0  0
   39.5740   28.0770   36.4720 H   0  0  0  0  0  0  0  0  0  0  0  0
   37.8120   25.3700   36.6000 O   0  0  0  0  0  0  0  0  0  0  0  0
   37.5120   24.4590   36.8990 H   0  0  0  0  0  0  0  0  0  0  0  0
  1  8  1  0  0  0  0
  1  5  2  0  0  0  0
  2  3  2  0  0  0  0
  2  1  1  0  0  0  0
  3  4  1  0  0  0  0
  4  5  1  0  0  0  0
  6  2  1  0  0  0  0
  7  3  1  0  0  0  0
  8  9  1  0  0  0  0
  9 10  2  0  0  0  0
  9 14  1  0  0  0  0
 10 16  1  0  0  0  0
 11 10  1  0  0  0  0
 12 11  2  0  0  0  0
 13 12  1  0  0  0  0
 13  8  2  0  0  0  0
 15 12  1  0  0  0  0
 16 19  1  0  0  0  0
 16 18  1  0  0  0  0
 17 16  1  0  0  0  0
 20 24  1  0  0  0  0
 20 25  1  1  0  0  0
 21  4  1  1  0  0  0
 21 20  1  0  0  0  0
 22 21  1  0  0  0  0
 22 23  1  0  0  0  0
 23 24  1  0  0  0  0
 24 27  1  1  0  0  0
 25 26  1  0  0  0  0
 27 28  1  0  0  0  0
M  END
>  <minimizedAffinity>
-5.21314764

$$$$

 OpenBabel03272508033D

 28 30  0  0  1  0  0  0  0  0999 V2000
   37.1710   26.3130   33.0800 C   0  0  0  0  0  0  0  0  0  0  0  0
   36.9400   25.1260   32.4600 C   0  0  0  0  0  0  0  0  0  0  0  0
   37.7110   24.1220   33.0400 C   0  0  0  0  0  0  0  0  0  0  0  0
   38.3950   24.7680   34.0160 N   0  0  0  0  0  0  0  0  0  0  0  0
   38.0810   26.0540   34.0440 N   0  0  0  0  0  0  0  0  0  0  0  0
   36.2410   24.9970   31.6210 H   0  0  0  0  0  0  0  0  0  0  0  0
   37.7290   23.0810   32.7480 H   0  0  0  0  0  0  0  0  0  0  0  0
   36.5730   27.6160   32.7880 C   0  0  0  0  0  0  0  0  0  0  0  0
   36.2790   28.4510   33.9050 C   0  0  0  0  0  0  0  0  0  0  0  0
   35.7060   29.7050   33.6490 C   0  0  0  0  0  0  0  0  0  0  0  0
   35.4680   30.0420   32.3470 N   0  0  0  0  0  0  0  0  0  0  0  0
   35.7620   29.2240   31.3160 C   0  0  0  0  0  0  0  0  0  0  0  0
   36.3110   28.0220   31.5650 N   0  0  0  0  0  0  0  0  0  0  0  0
   36.4940   28.1170   34.9090 H   0  0  0  0  0  0  0  0  0  0  0  0
   35.5440   29.5580   30.2980 H   0  0  0  0  0  0  0  0  0  0  0  0
   35.3880   30.5960   34.7900 C   0  0  0  0  0  0  0  0  0  0  0  0
   34.2060   30.1310   35.3210 F   0  0  0  0  0  0  0  0  0  0  0  0
   36.3660   30.5600   35.7750 F   0  0  0  0  0  0  0  0  0  0  0  0
   35.1950   31.9040   34.3880 F   0  0  0  0  0  0  0  0  0  0  0  0
   38.8510   24.0500   36.3330 C   0  0  2  0  0  3  0  0  0  0  0  0
   39.3500   24.1340   34.9190 C   0  0  1  0  0  3  0  0  0  0  0  0
   39.5740   22.8080   34.5520 O   0  0  0  0  0  0  0  0  0  0  0  0
   38.5080   22.0800   35.0920 C   0  0  0  0  0  2  0  0  0  0  0  0
   38.4000   22.6390   36.4820 C   0  0  2  0  0  3  0  0  0  0  0  0
   37.9590   25.0160   36.7040 O   0  0  0  0  0  0  0  0  0  0  0  0
   38.2420   25.5360   37.5050 H   0  0  0  0  0  0  0  0  0  0  0  0
   37.1050   22.5560   36.9850 O   0  0  0  0  0  0  0  0  0  0  0  0
   36.9040   21.5850   37.1520 H   0  0  0  0  0  0  0  0  0  0  0  0
  1  5  2  0  0  0  0
  2  3  2  0  0  0  0
  2  1  1  0  0  0  0
  3  4  1  0  0  0  0
  4  5  1  0  0  0  0
  6  2  1  0  0  0  0
  7  3  1  0  0  0  0
  8  1  1  0  0  0  0
  8  9  1  0  0  0  0
  9 14  1  0  0  0  0
 10  9  2  0  0  0  0
 10 16  1  0  0  0  0
 11 10  1  0  0  0  0
 12 13  1  0  0  0  0
 12 11  2  0  0  0  0
 13  8  2  0  0  0  0
 15 12  1  0  0  0  0
 16 17  1  0  0  0  0
 16 18  1  0  0  0  0
 19 16  1  0  0  0  0
 20 24  1  0  0  0  0
 20 25  1  6  0  0  0
 21  4  1  6  0  0  0
 21 20  1  0  0  0  0
 22 21  1  0  0  0  0
 22 23  1  0  0  0  0
 23 24  1  0  0  0  0
 24 27  1  6  0  0  0
 25 26  1  0  0  0  0
 27 28  1  0  0  0  0
M  END
>  <minimizedAffinity>
-5.20904922

$$$$
