
 OpenBabel03272507513D

 32 34  0  0  1  0  0  0  0  0999 V2000
   37.0160   31.5150   48.4590 N   0  0  0  0  0  0  0  0  0  0  0  0
   37.3480   32.2920   49.4850 C   0  0  0  0  0  0  0  0  0  0  0  0
   38.3950   33.2020   49.3640 C   0  0  0  0  0  0  0  0  0  0  0  0
   39.0060   33.2090   48.1470 C   0  0  0  0  0  0  0  0  0  0  0  0
   39.9580   34.0460   48.0550 O   0  0  0  0  0  0  0  0  0  0  0  0
   38.7100   32.4550   47.0970 N   0  0  0  0  0  0  0  0  0  0  0  0
   37.6850   31.5850   47.2670 C   0  0  0  0  0  0  0  0  0  0  0  0
   37.3850   30.8550   46.2760 O   0  0  0  0  0  0  0  0  0  0  0  0
   36.7970   32.2120   50.4210 H   0  0  0  0  0  0  0  0  0  0  0  0
   38.6580   33.8270   50.1960 H   0  0  0  0  0  0  0  0  0  0  0  0
   35.7200   29.9190   49.7550 C   0  0  0  0  0  0  0  0  0  0  0  0
   35.9510   30.5540   48.5190 C   0  0  0  0  0  0  0  0  0  0  0  0
   35.1460   30.2230   47.4150 C   0  0  0  0  0  0  0  0  0  0  0  0
   34.1800   29.3000   47.6060 N   0  0  0  0  0  0  0  0  0  0  0  0
   33.9610   28.7020   48.7670 C   0  0  0  0  0  0  0  0  0  0  0  0
   34.7260   29.0100   49.8310 N   0  0  0  0  0  0  0  0  0  0  0  0
   35.3420   30.7190   46.4930 H   0  0  0  0  0  0  0  0  0  0  0  0
   33.1930   27.9660   48.9230 H   0  0  0  0  0  0  0  0  0  0  0  0
   37.5010   29.4620   51.6080 C   0  0  0  0  0  0  0  0  0  0  0  0
   37.9110   28.3570   51.1910 O   0  0  0  0  0  0  0  0  0  0  0  0
   36.4660   30.1900   50.9210 N   0  0  0  0  0  0  0  0  0  0  0  0
   37.9680   29.8320   52.5050 H   0  0  0  0  0  0  0  0  0  0  0  0
   36.2640   31.1020   51.4330 H   0  0  0  0  0  0  0  0  0  0  0  0
   39.9590   31.1980   45.3790 C   0  0  1  0  0  3  0  0  0  0  0  0
   39.3960   32.5210   45.8590 C   0  0  1  0  0  3  0  0  0  0  0  0
   38.6040   32.8930   44.7860 O   0  0  0  0  0  0  0  0  0  0  0  0
   39.2700   32.5870   43.6360 C   0  0  0  0  0  2  0  0  0  0  0  0
   40.4420   31.6690   44.0020 C   0  0  2  0  0  3  0  0  0  0  0  0
   41.0000   30.7380   46.1520 O   0  0  0  0  0  0  0  0  0  0  0  0
   40.8250   29.7620   46.3450 H   0  0  0  0  0  0  0  0  0  0  0  0
   40.5790   30.6370   43.1020 O   0  0  0  0  0  0  0  0  0  0  0  0
   41.3560   30.1170   43.3650 H   0  0  0  0  0  0  0  0  0  0  0  0
  1 12  1  0  0  0  0
  1  2  1  0  0  0  0
  2  9  1  0  0  0  0
  3  2  2  0  0  0  0
  3 10  1  0  0  0  0
  4  3  1  0  0  0  0
  5  4  2  0  0  0  0
  6  7  1  0  0  0  0
  6  4  1  0  0  0  0
  7  1  1  0  0  0  0
  8  7  2  0  0  0  0
 11 16  1  0  0  0  0
 11 21  1  0  0  0  0
 12 11  2  0  0  0  0
 13 14  2  0  0  0  0
 13 12  1  0  0  0  0
 14 15  1  0  0  0  0
 15 18  1  0  0  0  0
 15 16  2  0  0  0  0
 17 13  1  0  0  0  0
 19 22  1  0  0  0  0
 20 19  2  0  0  0  0
 21 23  1  0  0  0  0
 21 19  1  0  0  0  0
 24 25  1  0  0  0  0
 24 29  1  1  0  0  0
 25  6  1  1  0  0  0
 26 25  1  0  0  0  0
 27 28  1  0  0  0  0
 27 26  1  0  0  0  0
 28 31  1  6  0  0  0
 28 24  1  0  0  0  0
 29 30  1  0  0  0  0
 31 32  1  0  0  0  0
M  END
>  <minimizedAffinity>
-6.97034502

>  <minimizedRMSD>
1.34918869

$$$$
