
     RDKit          3D

 37 39  0  0  0  0  0  0  0  0999 V2000
   35.6456   29.3276   49.8430 C   0  0  0  0  0  0  0  0  0  0  0  0
   35.7437   30.2787   48.8077 C   0  0  0  0  0  0  0  0  0  0  0  0
   34.9070   30.1610   47.6844 C   0  0  0  0  0  0  0  0  0  0  0  0
   34.0421   29.1252   47.6610 N   0  0  0  0  0  0  0  0  0  0  0  0
   33.9480   28.2304   48.6315 C   0  0  0  0  0  0  0  0  0  0  0  0
   34.7445   28.3324   49.7131 N   0  0  0  0  0  0  0  0  0  0  0  0
   37.6426   30.0670   51.3520 C   0  0  0  0  0  0  0  0  0  0  0  0
   38.2106   30.8245   50.5359 O   0  0  0  0  0  0  0  0  0  0  0  0
   36.4329   29.3660   51.0131 N   0  0  0  0  0  0  0  0  0  0  0  0
   36.7123   31.3285   48.9648 N   0  0  0  0  0  0  0  0  0  0  0  0
   36.5578   32.3318   49.8214 C   0  0  0  0  0  0  0  0  0  0  0  0
   37.5368   33.3172   49.9286 C   0  0  0  0  0  0  0  0  0  0  0  0
   38.6076   33.1467   49.1049 C   0  0  0  0  0  0  0  0  0  0  0  0
   39.4911   34.0554   49.2164 O   0  0  0  0  0  0  0  0  0  0  0  0
   38.8044   32.1641   48.2364 N   0  0  0  0  0  0  0  0  0  0  0  0
   37.8228   31.2323   48.1714 C   0  0  0  0  0  0  0  0  0  0  0  0
   37.9901   30.2842   47.3483 O   0  0  0  0  0  0  0  0  0  0  0  0
   35.0023   30.8939   46.9169 H   0  0  0  0  0  0  0  0  0  0  0  0
   33.2605   27.4041   48.6166 H   0  0  0  0  0  0  0  0  0  0  0  0
   38.1128   29.9736   52.3170 H   0  0  0  0  0  0  0  0  0  0  0  0
   36.1103   28.7784   51.8410 H   0  0  0  0  0  0  0  0  0  0  0  0
   35.6628   32.3805   50.4389 H   0  0  0  0  0  0  0  0  0  0  0  0
   37.4066   34.1248   50.6220 H   0  0  0  0  0  0  0  0  0  0  0  0
   40.8660   34.2806   47.6407 O   0  0  0  0  0  0  0  0  0  0  0  0
   41.1110   32.9401   47.8260 C   0  0  1  0  0  0  0  0  0  0  0  0
   39.9509   32.0570   47.4113 C   0  0  1  0  0  0  0  0  0  0  0  0
   40.5404   30.8028   47.4123 O   0  0  0  0  0  0  0  0  0  0  0  0
   41.7903   30.9182   46.8805 C   0  0  0  0  0  0  0  0  0  0  0  0
   42.1411   32.4090   46.8208 C   0  0  2  0  0  0  0  0  0  0  0  0
   43.4393   32.6422   47.2134 O   0  0  0  0  0  0  0  0  0  0  0  0
   41.1482   34.7586   48.4834 H   0  0  0  0  0  0  0  0  0  0  0  0
   41.4383   32.6747   48.8445 H   0  0  0  0  0  0  0  0  0  0  0  0
   39.6756   32.2922   46.3571 H   0  0  0  0  0  0  0  0  0  0  0  0
   41.8156   30.5772   45.8243 H   0  0  0  0  0  0  0  0  0  0  0  0
   42.6054   30.4332   47.4348 H   0  0  0  0  0  0  0  0  0  0  0  0
   41.8641   32.8421   45.8404 H   0  0  0  0  0  0  0  0  0  0  0  0
   43.6108   33.5935   47.1172 H   0  0  0  0  0  0  0  0  0  0  0  0
  1  9  1  0
  2 10  1  0
  2  1  2  0
  3  2  1  0
  4  3  2  0
  4  5  1  0
  5  6  2  0
  6  1  1  0
  8  7  2  0
  9  7  1  0
 10 11  1  0
 11 12  2  0
 13 14  2  0
 13 12  1  0
 15 13  1  0
 16 15  1  0
 16 10  1  0
 17 16  2  0
  3 18  1  0
  5 19  1  0
  7 20  1  0
  9 21  1  0
 11 22  1  0
 12 23  1  0
 24 25  1  0
 25 26  1  0
 26 27  1  0
 27 28  1  0
 28 29  1  0
 29 30  1  0
 29 25  1  0
 24 31  1  0
 25 32  1  1
 26 33  1  6
 28 34  1  0
 28 35  1  0
 29 36  1  6
 30 37  1  0
 15 26  1  0
M  ISO  5  18  14  19  14  20   6  22  14  23  14
M  END
>  <DihAtoms>  (1) 
12,14,25,24

>  <DihDeg>  (1) 
-90.03212737054022

$$$$
