
 OpenBabel03272508013D

 28 30  0  0  1  0  0  0  0  0999 V2000
   35.8070   30.1660   47.5860 C   0  0  0  0  0  0  0  0  0  0  0  0
   35.1860   30.0220   46.3860 C   0  0  0  0  0  0  0  0  0  0  0  0
   34.2360   29.0060   46.4560 C   0  0  0  0  0  0  0  0  0  0  0  0
   34.3300   28.5690   47.7350 N   0  0  0  0  0  0  0  0  0  0  0  0
   35.2500   29.2470   48.4030 N   0  0  0  0  0  0  0  0  0  0  0  0
   35.4150   30.6290   45.4990 H   0  0  0  0  0  0  0  0  0  0  0  0
   33.5950   28.6750   45.6500 H   0  0  0  0  0  0  0  0  0  0  0  0
   36.8640   31.1130   47.9480 C   0  0  0  0  0  0  0  0  0  0  0  0
   37.7710   31.4870   46.9160 C   0  0  0  0  0  0  0  0  0  0  0  0
   38.7910   32.3930   47.2410 C   0  0  0  0  0  0  0  0  0  0  0  0
   38.8470   32.8550   48.5240 N   0  0  0  0  0  0  0  0  0  0  0  0
   37.9680   32.4770   49.4750 C   0  0  0  0  0  0  0  0  0  0  0  0
   36.9910   31.6080   49.1600 N   0  0  0  0  0  0  0  0  0  0  0  0
   37.6660   31.0800   45.9210 H   0  0  0  0  0  0  0  0  0  0  0  0
   38.0720   32.8870   50.4830 H   0  0  0  0  0  0  0  0  0  0  0  0
   39.7510   32.8020   46.1870 C   0  0  0  0  0  0  0  0  0  0  0  0
   40.4160   33.9000   46.6810 F   0  0  0  0  0  0  0  0  0  0  0  0
   40.6760   31.8070   45.9030 F   0  0  0  0  0  0  0  0  0  0  0  0
   39.1100   33.1730   45.0200 F   0  0  0  0  0  0  0  0  0  0  0  0
   32.0710   27.5960   47.9430 C   0  0  2  0  0  3  0  0  0  0  0  0
   33.5240   27.4940   48.3060 C   0  0  1  0  0  3  0  0  0  0  0  0
   33.9200   26.2560   47.8020 O   0  0  0  0  0  0  0  0  0  0  0  0
   33.2890   26.1330   46.5580 C   0  0  0  0  0  2  0  0  0  0  0  0
   31.8900   26.5970   46.8530 C   0  0  2  0  0  3  0  0  0  0  0  0
   31.6110   28.8580   47.6900 O   0  0  0  0  0  0  0  0  0  0  0  0
   30.8360   29.1230   48.2570 H   0  0  0  0  0  0  0  0  0  0  0  0
   31.2700   27.1480   45.7370 O   0  0  0  0  0  0  0  0  0  0  0  0
   31.0920   26.4010   45.0860 H   0  0  0  0  0  0  0  0  0  0  0  0
  1  8  1  0  0  0  0
  1  5  2  0  0  0  0
  2  3  2  0  0  0  0
  2  1  1  0  0  0  0
  3  4  1  0  0  0  0
  4  5  1  0  0  0  0
  6  2  1  0  0  0  0
  7  3  1  0  0  0  0
  8 13  1  0  0  0  0
  9 10  1  0  0  0  0
  9  8  2  0  0  0  0
 10 11  2  0  0  0  0
 11 12  1  0  0  0  0
 12 15  1  0  0  0  0
 13 12  2  0  0  0  0
 14  9  1  0  0  0  0
 16 17  1  0  0  0  0
 16 10  1  0  0  0  0
 18 16  1  0  0  0  0
 19 16  1  0  0  0  0
 20 25  1  6  0  0  0
 20 21  1  0  0  0  0
 21  4  1  6  0  0  0
 22 21  1  0  0  0  0
 23 24  1  0  0  0  0
 23 22  1  0  0  0  0
 24 27  1  6  0  0  0
 24 20  1  0  0  0  0
 25 26  1  0  0  0  0
 28 27  1  0  0  0  0
M  END
>  <minimizedAffinity>
-5.82074022

>  <minimizedRMSD>
7.28415155

$$$$
