
     RDKit          3D

 45 49  0  0  0  0  0  0  0  0999 V2000
   37.1358   30.7423   44.9082 C   0  0  0  0  0  0  0  0  0  0  0  0
   36.8322   29.7557   43.8346 C   0  0  0  0  0  0  0  0  0  0  0  0
   36.2444   31.1492   43.7877 C   0  0  0  0  0  0  0  0  0  0  0  0
   39.7616   33.3362   44.9711 C   0  0  0  0  0  0  0  0  0  0  0  0
   40.9253   32.5938   45.2199 C   0  0  0  0  0  0  0  0  0  0  0  0
   40.8069   31.2008   45.3661 C   0  0  0  0  0  0  0  0  0  0  0  0
   39.5783   30.6405   45.2604 N   0  0  0  0  0  0  0  0  0  0  0  0
   38.4643   31.3827   45.0185 C   0  0  0  0  0  0  0  0  0  0  0  0
   38.5522   32.7281   44.8737 N   0  0  0  0  0  0  0  0  0  0  0  0
   36.5081   30.5385   46.2635 C   0  0  0  0  0  0  0  0  0  0  0  0
   37.1360   30.9362   47.3934 C   0  0  0  0  0  0  0  0  0  0  0  0
   36.5443   30.7418   48.6414 C   0  0  0  0  0  0  0  0  0  0  0  0
   35.2949   30.1293   48.6869 C   0  0  0  0  0  0  0  0  0  0  0  0
   34.6567   29.7240   47.5249 C   0  0  0  0  0  0  0  0  0  0  0  0
   35.2946   29.9464   46.3436 N   0  0  0  0  0  0  0  0  0  0  0  0
   33.3406   29.0731   47.5051 C   0  0  0  0  0  0  0  0  0  0  0  0
   32.3813   29.0346   46.5493 N   0  0  0  0  0  0  0  0  0  0  0  0
   31.3413   28.2983   47.0115 C   0  0  0  0  0  0  0  0  0  0  0  0
   31.6612   27.8740   48.2736 N   0  0  0  0  0  0  0  0  0  0  0  0
   32.8730   28.3484   48.5624 N   0  0  0  0  0  0  0  0  0  0  0  0
   37.6244   29.5590   43.0818 H   0  0  0  0  0  0  0  0  0  0  0  0
   36.1651   28.9077   43.9924 H   0  0  0  0  0  0  0  0  0  0  0  0
   36.6803   31.8626   43.0302 H   0  0  0  0  0  0  0  0  0  0  0  0
   35.1807   31.3188   43.9870 H   0  0  0  0  0  0  0  0  0  0  0  0
   39.8070   34.4050   44.8527 H   0  0  0  0  0  0  0  0  0  0  0  0
   41.8975   33.0871   45.2977 H   0  0  0  0  0  0  0  0  0  0  0  0
   41.6807   30.5943   45.5586 H   0  0  0  0  0  0  0  0  0  0  0  0
   38.1093   31.4143   47.3701 H   0  0  0  0  0  0  0  0  0  0  0  0
   37.0228   31.0495   49.5617 H   0  0  0  0  0  0  0  0  0  0  0  0
   34.7614   29.9375   49.6004 H   0  0  0  0  0  0  0  0  0  0  0  0
   30.4535   28.1283   46.4168 H   0  0  0  0  0  0  0  0  0  0  0  0
   29.1484   27.6525   47.4199 O   0  0  0  0  0  0  0  0  0  0  0  0
   29.4460   26.8024   48.4815 C   0  0  2  0  0  0  0  0  0  0  0  0
   30.7848   27.0517   49.0985 C   0  0  1  0  0  0  0  0  0  0  0  0
   31.3622   25.8567   49.4444 O   0  0  0  0  0  0  0  0  0  0  0  0
   30.6288   24.8090   48.9692 C   0  0  0  0  0  0  0  0  0  0  0  0
   29.5440   25.3556   48.0770 C   0  0  1  0  0  0  0  0  0  0  0  0
   28.3174   24.7517   48.3533 O   0  0  0  0  0  0  0  0  0  0  0  0
   28.4771   27.2261   46.8329 H   0  0  0  0  0  0  0  0  0  0  0  0
   28.5919   26.9409   49.2048 H   0  0  0  0  0  0  0  0  0  0  0  0
   30.5721   27.5712   50.0793 H   0  0  0  0  0  0  0  0  0  0  0  0
   30.1075   24.3475   49.8569 H   0  0  0  0  0  0  0  0  0  0  0  0
   31.2851   24.0647   48.4790 H   0  0  0  0  0  0  0  0  0  0  0  0
   29.8689   25.2287   47.0399 H   0  0  0  0  0  0  0  0  0  0  0  0
   27.9920   24.2617   47.5787 H   0  0  0  0  0  0  0  0  0  0  0  0
  1  8  1  0
  1 10  1  0
  2  1  1  0
  3  2  1  0
  3  1  1  0
  4  5  2  0
  5  6  1  0
  7  6  2  0
  8  7  1  0
  9  4  1  0
  9  8  2  0
 10 15  1  0
 10 11  2  0
 11 12  1  0
 12 13  2  0
 14 13  1  0
 15 14  2  0
 16 14  1  0
 16 20  2  0
 17 18  2  0
 17 16  1  0
 18 19  1  0
 19 20  1  0
  2 21  1  0
  2 22  1  0
  3 23  1  0
  3 24  1  0
  4 25  1  0
  5 26  1  0
  6 27  1  0
 11 28  1  0
 12 29  1  0
 13 30  1  0
 18 31  1  0
 32 33  1  0
 33 34  1  0
 34 35  1  0
 35 36  1  0
 36 37  1  0
 37 38  1  0
 37 33  1  0
 32 39  1  0
 33 40  1  1
 34 41  1  1
 36 42  1  0
 36 43  1  0
 37 44  1  6
 38 45  1  0
 19 34  1  0
M  ISO  8  21  13  22  13  23  13  24  13  25  14  26  14  27  14  28  14
M  ISO  3  29  14  30  14  31  14
M  END
>  <DihAtoms>  (1) 
17,18,33,32

>  <DihDeg>  (1) 
-34.72961395236246

$$$$
