
 OpenBabel03272507523D

 32 34  0  0  1  0  0  0  0  0999 V2000
   36.5130   31.1520   48.6840 N   0  0  0  0  0  0  0  0  0  0  0  0
   36.8290   32.0290   49.6300 C   0  0  0  0  0  0  0  0  0  0  0  0
   37.8940   32.9080   49.4420 C   0  0  0  0  0  0  0  0  0  0  0  0
   38.5360   32.7760   48.2480 C   0  0  0  0  0  0  0  0  0  0  0  0
   39.5040   33.5860   48.0940 O   0  0  0  0  0  0  0  0  0  0  0  0
   38.2560   31.9180   47.2770 N   0  0  0  0  0  0  0  0  0  0  0  0
   37.2130   31.0850   47.5100 C   0  0  0  0  0  0  0  0  0  0  0  0
   36.9280   30.2570   46.5950 O   0  0  0  0  0  0  0  0  0  0  0  0
   36.2530   32.0570   50.5530 H   0  0  0  0  0  0  0  0  0  0  0  0
   38.1440   33.6140   50.2090 H   0  0  0  0  0  0  0  0  0  0  0  0
   35.3040   29.5440   50.0470 C   0  0  0  0  0  0  0  0  0  0  0  0
   35.4310   30.2160   48.8160 C   0  0  0  0  0  0  0  0  0  0  0  0
   34.5130   29.9460   47.7860 C   0  0  0  0  0  0  0  0  0  0  0  0
   33.5440   29.0410   48.0410 N   0  0  0  0  0  0  0  0  0  0  0  0
   33.4220   28.4070   49.1970 C   0  0  0  0  0  0  0  0  0  0  0  0
   34.2960   28.6570   50.1910 N   0  0  0  0  0  0  0  0  0  0  0  0
   34.6330   30.4690   46.8660 H   0  0  0  0  0  0  0  0  0  0  0  0
   32.6520   27.6860   49.4030 H   0  0  0  0  0  0  0  0  0  0  0  0
   37.4680   29.2330   51.4730 C   0  0  0  0  0  0  0  0  0  0  0  0
   38.0600   28.4270   50.7240 O   0  0  0  0  0  0  0  0  0  0  0  0
   36.1670   29.7530   51.1430 N   0  0  0  0  0  0  0  0  0  0  0  0
   37.9890   29.5120   52.3730 H   0  0  0  0  0  0  0  0  0  0  0  0
   35.8400   30.4230   51.9050 H   0  0  0  0  0  0  0  0  0  0  0  0
   38.5170   32.8180   44.9940 C   0  0  1  0  0  3  0  0  0  0  0  0
   38.9760   31.8420   46.0580 C   0  0  1  0  0  3  0  0  0  0  0  0
   40.3200   32.1610   46.1690 O   0  0  0  0  0  0  0  0  0  0  0  0
   40.8090   32.3880   44.9160 C   0  0  0  0  0  2  0  0  0  0  0  0
   39.6170   32.5270   43.9640 C   0  0  2  0  0  3  0  0  0  0  0  0
   37.2670   32.5310   44.4950 O   0  0  0  0  0  0  0  0  0  0  0  0
   36.7430   33.3930   44.4790 H   0  0  0  0  0  0  0  0  0  0  0  0
   39.7980   33.5580   43.0700 O   0  0  0  0  0  0  0  0  0  0  0  0
   39.0310   33.5710   42.4740 H   0  0  0  0  0  0  0  0  0  0  0  0
  1 12  1  0  0  0  0
  1  2  1  0  0  0  0
  2  9  1  0  0  0  0
  3  2  2  0  0  0  0
  3 10  1  0  0  0  0
  4  3  1  0  0  0  0
  5  4  2  0  0  0  0
  6  7  1  0  0  0  0
  6  4  1  0  0  0  0
  7  1  1  0  0  0  0
  8  7  2  0  0  0  0
 11 16  1  0  0  0  0
 11 21  1  0  0  0  0
 12 11  2  0  0  0  0
 13 14  2  0  0  0  0
 13 12  1  0  0  0  0
 14 15  1  0  0  0  0
 15 18  1  0  0  0  0
 15 16  2  0  0  0  0
 17 13  1  0  0  0  0
 19 22  1  0  0  0  0
 20 19  2  0  0  0  0
 21 19  1  0  0  0  0
 21 23  1  0  0  0  0
 24 29  1  6  0  0  0
 24 25  1  0  0  0  0
 25 26  1  0  0  0  0
 25  6  1  1  0  0  0
 27 26  1  0  0  0  0
 28 31  1  6  0  0  0
 28 27  1  0  0  0  0
 28 24  1  0  0  0  0
 30 29  1  0  0  0  0
 32 31  1  0  0  0  0
M  END
>  <minimizedAffinity>
-6.31643486

>  <minimizedRMSD>
1.97326148

$$$$
