
 OpenBabel03272506153D

 28 30  0  0  1  0  0  0  0  0999 V2000
   34.8560   33.1010   42.1780 C   0  0  0  0  0  0  0  0  0  0  0  0
   34.3560   34.3950   41.9570 C   0  0  0  0  0  0  0  0  0  0  0  0
   33.1130   34.7450   42.5480 C   0  0  0  0  0  0  0  0  0  0  0  0
   32.4840   33.8000   43.2940 N   0  0  0  0  0  0  0  0  0  0  0  0
   33.0070   32.5660   43.4780 C   0  0  0  0  0  0  0  0  0  0  0  0
   34.1860   32.2070   42.9270 N   0  0  0  0  0  0  0  0  0  0  0  0
   32.3700   31.5610   44.2530 N   0  0  0  0  0  0  0  0  0  0  0  0
   31.0260   31.6280   44.4070 C   0  0  0  0  0  0  0  0  0  0  0  0
   30.4700   30.6290   45.1670 C   0  0  0  0  0  0  0  0  0  0  0  0
   31.1950   29.6080   45.7490 C   0  0  0  0  0  0  0  0  0  0  0  0
   30.6770   28.6890   46.4490 O   0  0  0  0  0  0  0  0  0  0  0  0
   32.5550   29.5840   45.5650 N   0  0  0  0  0  0  0  0  0  0  0  0
   33.0890   30.5650   44.8210 C   0  0  0  0  0  0  0  0  0  0  0  0
   34.3320   30.5980   44.6140 O   0  0  0  0  0  0  0  0  0  0  0  0
   35.8030   32.8650   41.7130 H   0  0  0  0  0  0  0  0  0  0  0  0
   34.8480   35.1420   41.3690 H   0  0  0  0  0  0  0  0  0  0  0  0
   32.6560   35.7130   42.4330 H   0  0  0  0  0  0  0  0  0  0  0  0
   30.4300   32.4180   43.9620 H   0  0  0  0  0  0  0  0  0  0  0  0
   29.3990   30.6250   45.3280 H   0  0  0  0  0  0  0  0  0  0  0  0
   33.5030   28.6040   47.6290 C   0  0  1  0  0  3  0  0  0  0  0  0
   33.3470   28.5470   46.1480 C   0  0  1  0  0  3  0  0  0  0  0  0
   32.8690   27.2640   45.8250 O   0  0  0  0  0  0  0  0  0  0  0  0
   33.6480   26.4710   46.6780 C   0  0  0  0  0  2  0  0  0  0  0  0
   33.3550   27.1370   48.0080 C   0  0  2  0  0  3  0  0  0  0  0  0
   34.8200   28.9660   47.9930 O   0  0  0  0  0  0  0  0  0  0  0  0
   34.9360   29.9370   48.0360 H   0  0  0  0  0  0  0  0  0  0  0  0
   32.0880   26.8210   48.4380 O   0  0  0  0  0  0  0  0  0  0  0  0
   32.0720   26.0360   49.0070 H   0  0  0  0  0  0  0  0  0  0  0  0
  1  6  1  0  0  0  0
  2  1  2  0  0  0  0
  2  3  1  0  0  0  0
  3  4  2  0  0  0  0
  4  5  1  0  0  0  0
  5  7  1  0  0  0  0
  6  5  2  0  0  0  0
  7  8  1  0  0  0  0
  7 13  1  0  0  0  0
  8  9  2  0  0  0  0
  9 19  1  0  0  0  0
  9 10  1  0  0  0  0
 10 11  2  0  0  0  0
 12 10  1  0  0  0  0
 13 12  1  0  0  0  0
 14 13  2  0  0  0  0
 15  1  1  0  0  0  0
 16  2  1  0  0  0  0
 17  3  1  0  0  0  0
 18  8  1  0  0  0  0
 20 25  1  6  0  0  0
 20 24  1  0  0  0  0
 21 12  1  1  0  0  0
 21 20  1  0  0  0  0
 22 21  1  0  0  0  0
 22 23  1  0  0  0  0
 23 24  1  0  0  0  0
 24 27  1  6  0  0  0
 25 26  1  0  0  0  0
 27 28  1  0  0  0  0
M  END
>  <minimizedAffinity>
-3.35347581

>  <minimizedRMSD>
5.80865097

$$$$
