
 OpenBabel03272505483D

 40 44  0  0  1  0  0  0  0  0999 V2000
   36.4070   30.4590   46.1550 C   0  0  0  0  0  0  0  0  0  0  0  0
   37.0230   30.7520   47.3220 C   0  0  0  0  0  0  0  0  0  0  0  0
   36.3800   30.5300   48.5400 C   0  0  0  0  0  0  0  0  0  0  0  0
   35.0930   30.0010   48.5160 C   0  0  0  0  0  0  0  0  0  0  0  0
   34.4670   29.7030   47.3150 C   0  0  0  0  0  0  0  0  0  0  0  0
   35.1560   29.9460   46.1670 N   0  0  0  0  0  0  0  0  0  0  0  0
   38.0260   31.1640   47.3530 H   0  0  0  0  0  0  0  0  0  0  0  0
   36.8490   30.7540   49.4900 H   0  0  0  0  0  0  0  0  0  0  0  0
   34.5190   29.7960   49.4010 H   0  0  0  0  0  0  0  0  0  0  0  0
   37.0890   30.6950   44.8310 C   0  0  0  0  0  0  0  0  0  0  0  0
   36.8290   29.7350   43.7230 C   0  0  0  0  0  0  0  0  0  0  0  0
   36.2440   31.1290   43.6850 C   0  0  0  0  0  0  0  0  0  0  0  0
   37.6510   29.5550   42.9990 H   0  0  0  0  0  0  0  0  0  0  0  0
   36.1560   28.8840   43.8330 H   0  0  0  0  0  0  0  0  0  0  0  0
   36.7100   31.8600   42.9630 H   0  0  0  0  0  0  0  0  0  0  0  0
   35.1740   31.2950   43.8450 H   0  0  0  0  0  0  0  0  0  0  0  0
   39.7180   33.2800   45.0270 C   0  0  0  0  0  0  0  0  0  0  0  0
   40.8630   32.5340   45.3400 C   0  0  0  0  0  0  0  0  0  0  0  0
   40.7320   31.1420   45.4830 C   0  0  0  0  0  0  0  0  0  0  0  0
   39.5090   30.5850   45.3130 N   0  0  0  0  0  0  0  0  0  0  0  0
   38.4120   31.3310   45.0110 C   0  0  0  0  0  0  0  0  0  0  0  0
   38.5120   32.6760   44.8670 N   0  0  0  0  0  0  0  0  0  0  0  0
   39.7730   34.3480   44.9090 H   0  0  0  0  0  0  0  0  0  0  0  0
   41.8320   33.0240   45.4680 H   0  0  0  0  0  0  0  0  0  0  0  0
   41.5930   30.5330   45.7240 H   0  0  0  0  0  0  0  0  0  0  0  0
   33.1130   29.1440   47.2220 C   0  0  0  0  0  0  0  0  0  0  0  0
   32.1180   29.3670   46.3290 N   0  0  0  0  0  0  0  0  0  0  0  0
   31.0510   28.6040   46.6730 C   0  0  0  0  0  0  0  0  0  0  0  0
   31.3900   27.8980   47.7980 N   0  0  0  0  0  0  0  0  0  0  0  0
   32.6400   28.2320   48.1200 N   0  0  0  0  0  0  0  0  0  0  0  0
   30.1320   28.6150   46.1020 H   0  0  0  0  0  0  0  0  0  0  0  0
   29.8970   27.5100   49.7260 C   0  0  2  0  0  0  0  0  0  0  0  0
   30.4950   26.9640   48.4690 C   0  0  1  0  0  0  0  0  0  0  0  0
   29.4970   26.5120   47.6440 O   0  0  0  0  0  0  0  0  0  0  0  0
   28.2710   26.8510   48.1370 C   0  0  0  0  0  0  0  0  0  0  0  0
   28.4710   27.7620   49.3200 C   0  0  1  0  0  0  0  0  0  0  0  0
   30.5420   28.6470   50.2090 O   0  0  0  0  0  0  0  0  0  0  0  0
   29.9200   29.1650   50.7760 H   0  0  0  0  0  0  0  0  0  0  0  0
   27.6510   27.3860   50.3850 O   0  0  0  0  0  0  0  0  0  0  0  0
   27.0200   28.0950   50.6010 H   0  0  0  0  0  0  0  0  0  0  0  0
  1  6  2  0  0  0  0
  1  2  1  0  0  0  0
  2  7  1  0  0  0  0
  2  3  2  0  0  0  0
  3  8  1  0  0  0  0
  4  3  1  0  0  0  0
  4  9  1  0  0  0  0
  5  4  2  0  0  0  0
  6  5  1  0  0  0  0
 10 21  1  0  0  0  0
 10  1  1  0  0  0  0
 11 14  1  0  0  0  0
 11 10  1  0  0  0  0
 12 11  1  0  0  0  0
 12 16  1  0  0  0  0
 12 10  1  0  0  0  0
 13 11  1  0  0  0  0
 15 12  1  0  0  0  0
 17 18  1  0  0  0  0
 18 24  1  0  0  0  0
 18 19  2  0  0  0  0
 19 25  1  0  0  0  0
 20 19  1  0  0  0  0
 21 20  2  0  0  0  0
 22 21  1  0  0  0  0
 22 17  2  0  0  0  0
 23 17  1  0  0  0  0
 26  5  1  0  0  0  0
 26 30  2  0  0  0  0
 27 28  2  0  0  0  0
 27 26  1  0  0  0  0
 28 29  1  0  0  0  0
 29 30  1  0  0  0  0
 31 28  1  0  0  0  0
 32 37  1  6  0  0  0
 33 29  1  6  0  0  0
 33 32  1  0  0  0  0
 34 35  1  0  0  0  0
 34 33  1  0  0  0  0
 35 36  1  0  0  0  0
 36 32  1  0  0  0  0
 36 39  1  1  0  0  0
 37 38  1  0  0  0  0
 39 40  1  0  0  0  0
M  END
>  <minimizedAffinity>
-6.76039505

>  <minimizedRMSD>
1.22526419

$$$$
