
     RDKit          3D

 33 35  0  0  0  0  0  0  0  0999 V2000
   37.7844   30.6806   50.6075 C   0  0  0  0  0  0  0  0  0  0  0  0
   38.4542   31.6045   49.7877 C   0  0  0  0  0  0  0  0  0  0  0  0
   37.9242   31.8663   48.4972 C   0  0  0  0  0  0  0  0  0  0  0  0
   36.7958   31.2024   48.1348 N   0  0  0  0  0  0  0  0  0  0  0  0
   36.1863   30.3211   48.9599 C   0  0  0  0  0  0  0  0  0  0  0  0
   36.6687   30.0534   50.1921 N   0  0  0  0  0  0  0  0  0  0  0  0
   35.0067   29.6145   48.6057 N   0  0  0  0  0  0  0  0  0  0  0  0
   34.7475   29.4204   47.2911 C   0  0  0  0  0  0  0  0  0  0  0  0
   33.5925   28.7307   47.0127 C   0  0  0  0  0  0  0  0  0  0  0  0
   32.7295   28.2521   47.9782 C   0  0  0  0  0  0  0  0  0  0  0  0
   31.6661   27.6169   47.7163 O   0  0  0  0  0  0  0  0  0  0  0  0
   33.0349   28.4736   49.2978 N   0  0  0  0  0  0  0  0  0  0  0  0
   34.1662   29.1489   49.5592 C   0  0  0  0  0  0  0  0  0  0  0  0
   34.5020   29.3843   50.7508 O   0  0  0  0  0  0  0  0  0  0  0  0
   38.2127   30.5030   51.5842 H   0  0  0  0  0  0  0  0  0  0  0  0
   39.3441   32.1299   50.0701 H   0  0  0  0  0  0  0  0  0  0  0  0
   38.3712   32.5578   47.8037 H   0  0  0  0  0  0  0  0  0  0  0  0
   35.4066   29.7845   46.5100 H   0  0  0  0  0  0  0  0  0  0  0  0
   33.3292   28.5430   45.9804 H   0  0  0  0  0  0  0  0  0  0  0  0
   31.0981   29.4880   51.8722 O   0  0  0  0  0  0  0  0  0  0  0  0
   30.9773   28.8396   50.6224 C   0  0  1  0  0  0  0  0  0  0  0  0
   32.1722   27.9974   50.3319 C   0  0  1  0  0  0  0  0  0  0  0  0
   31.7135   26.6901   50.0846 O   0  0  0  0  0  0  0  0  0  0  0  0
   30.7421   26.5583   51.0841 C   0  0  0  0  0  0  0  0  0  0  0  0
   29.8957   27.7839   50.8020 C   0  0  2  0  0  0  0  0  0  0  0  0
   29.1369   27.5972   49.6711 O   0  0  0  0  0  0  0  0  0  0  0  0
   31.5691   30.3422   51.7996 H   0  0  0  0  0  0  0  0  0  0  0  0
   30.7347   29.6155   49.9018 H   0  0  0  0  0  0  0  0  0  0  0  0
   32.7553   27.9030   51.2823 H   0  0  0  0  0  0  0  0  0  0  0  0
   31.2499   26.6703   52.0511 H   0  0  0  0  0  0  0  0  0  0  0  0
   30.1682   25.6171   50.9908 H   0  0  0  0  0  0  0  0  0  0  0  0
   29.2255   28.0251   51.6650 H   0  0  0  0  0  0  0  0  0  0  0  0
   28.2598   27.2324   49.8654 H   0  0  0  0  0  0  0  0  0  0  0  0
  2  1  2  0
  3  2  1  0
  4  3  2  0
  4  5  1  0
  5  6  2  0
  6  1  1  0
  7  5  1  0
  7 13  1  0
  8  7  1  0
  9  8  2  0
  9 10  1  0
 10 12  1  0
 11 10  2  0
 12 13  1  0
 13 14  2  0
  1 15  1  0
  2 16  1  0
  3 17  1  0
  8 18  1  0
  9 19  1  0
 20 21  1  0
 21 22  1  0
 22 23  1  0
 23 24  1  0
 24 25  1  0
 25 26  1  0
 25 21  1  0
 20 27  1  0
 21 28  1  6
 22 29  1  1
 24 30  1  0
 24 31  1  0
 25 32  1  1
 26 33  1  0
 12 22  1  0
M  ISO  5  15  14  16  14  17  14  18  14  19  14
M  END
>  <DihAtoms>  (1) 
9,11,21,20

>  <DihDeg>  (1) 
129.03675962873805

$$$$
