
     RDKit          3D

 33 35  0  0  0  0  0  0  0  0999 V2000
   37.7844   30.6806   50.6075 C   0  0  0  0  0  0  0  0  0  0  0  0
   38.4542   31.6045   49.7877 C   0  0  0  0  0  0  0  0  0  0  0  0
   37.9242   31.8663   48.4972 C   0  0  0  0  0  0  0  0  0  0  0  0
   36.7958   31.2024   48.1348 N   0  0  0  0  0  0  0  0  0  0  0  0
   36.1863   30.3211   48.9599 C   0  0  0  0  0  0  0  0  0  0  0  0
   36.6687   30.0534   50.1921 N   0  0  0  0  0  0  0  0  0  0  0  0
   35.0067   29.6145   48.6057 N   0  0  0  0  0  0  0  0  0  0  0  0
   34.7475   29.4204   47.2911 C   0  0  0  0  0  0  0  0  0  0  0  0
   33.5925   28.7307   47.0127 C   0  0  0  0  0  0  0  0  0  0  0  0
   32.7295   28.2521   47.9782 C   0  0  0  0  0  0  0  0  0  0  0  0
   31.6661   27.6169   47.7163 O   0  0  0  0  0  0  0  0  0  0  0  0
   33.0349   28.4736   49.2978 N   0  0  0  0  0  0  0  0  0  0  0  0
   34.1662   29.1489   49.5592 C   0  0  0  0  0  0  0  0  0  0  0  0
   34.5020   29.3843   50.7508 O   0  0  0  0  0  0  0  0  0  0  0  0
   38.2127   30.5030   51.5842 H   0  0  0  0  0  0  0  0  0  0  0  0
   39.3441   32.1299   50.0701 H   0  0  0  0  0  0  0  0  0  0  0  0
   38.3712   32.5578   47.8037 H   0  0  0  0  0  0  0  0  0  0  0  0
   35.4066   29.7845   46.5100 H   0  0  0  0  0  0  0  0  0  0  0  0
   33.3292   28.5430   45.9804 H   0  0  0  0  0  0  0  0  0  0  0  0
   31.9358   29.1554   52.4179 O   0  0  0  0  0  0  0  0  0  0  0  0
   31.4380   29.0425   51.1001 C   0  0  1  0  0  0  0  0  0  0  0  0
   32.1722   27.9974   50.3319 C   0  0  1  0  0  0  0  0  0  0  0  0
   31.2173   27.0821   49.8512 O   0  0  0  0  0  0  0  0  0  0  0  0
   30.3854   26.9573   50.9702 C   0  0  0  0  0  0  0  0  0  0  0  0
   30.0573   28.4148   51.2273 C   0  0  2  0  0  0  0  0  0  0  0  0
   29.1681   28.8826   50.2890 O   0  0  0  0  0  0  0  0  0  0  0  0
   32.6911   29.7743   52.4741 H   0  0  0  0  0  0  0  0  0  0  0  0
   31.4399   30.0481   50.6894 H   0  0  0  0  0  0  0  0  0  0  0  0
   32.7717   27.4012   51.0649 H   0  0  0  0  0  0  0  0  0  0  0  0
   30.9981   26.5626   51.7914 H   0  0  0  0  0  0  0  0  0  0  0  0
   29.4842   26.3516   50.7584 H   0  0  0  0  0  0  0  0  0  0  0  0
   29.6312   28.5632   52.2512 H   0  0  0  0  0  0  0  0  0  0  0  0
   28.2448   28.7901   50.5702 H   0  0  0  0  0  0  0  0  0  0  0  0
  2  1  2  0
  3  2  1  0
  4  3  2  0
  4  5  1  0
  5  6  2  0
  6  1  1  0
  7  5  1  0
  7 13  1  0
  8  7  1  0
  9  8  2  0
  9 10  1  0
 10 12  1  0
 11 10  2  0
 12 13  1  0
 13 14  2  0
  1 15  1  0
  2 16  1  0
  3 17  1  0
  8 18  1  0
  9 19  1  0
 20 21  1  0
 21 22  1  0
 22 23  1  0
 23 24  1  0
 24 25  1  0
 25 26  1  0
 25 21  1  0
 20 27  1  0
 21 28  1  6
 22 29  1  1
 24 30  1  0
 24 31  1  0
 25 32  1  1
 26 33  1  0
 12 22  1  0
M  ISO  5  15  14  16  14  17  14  18  14  19  14
M  END
>  <DihAtoms>  (1) 
9,11,21,20

>  <DihDeg>  (1) 
129.03675962873805

$$$$
