REMARK  Name = 
REMARK  6 active torsions:
REMARK  status: ('A' for Active; 'I' for Inactive)
REMARK    1  A    between atoms: N_1  and  C_6
REMARK    2  A    between atoms: C_3  and  C_13
REMARK    3  A    between atoms: C_10  and  S_12
REMARK    4  A    between atoms: S_12  and  C_28
REMARK    5  A    between atoms: O_26  and  C_27
REMARK    6  A    between atoms: C_31  and  O_32
REMARK                            x       y       z     vdW  Elec       q    Type
REMARK                         _______ _______ _______ _____ _____    ______ ____
ROOT
ATOM      1  C   UNL     1      35.292  29.536  47.934  0.00  0.00    +0.000 A 
ATOM      2  C   UNL     1      35.235  29.999  46.603  0.00  0.00    +0.000 A 
ATOM      3  C   UNL     1      34.090  29.666  45.872  0.00  0.00    +0.000 A 
ATOM      4  N   UNL     1      33.122  28.923  46.499  0.00  0.00    +0.000 NA
ATOM      5  C   UNL     1      33.222  28.510  47.761  0.00  0.00    +0.000 A 
ATOM      6  N   UNL     1      34.307  28.814  48.484  0.00  0.00    +0.000 NA
ATOM      7  H   UNL     1      36.022  30.585  46.141  0.00  0.00    +0.000 HD
ATOM      8  H   UNL     1      33.974  29.989  44.832  0.00  0.00    +0.000 HD
ENDROOT
BRANCH   1   9
ATOM      9  N   UNL     1      36.466  29.882  48.688  0.00  0.00    +0.000 N 
ATOM     10  C   UNL     1      37.588  30.661  48.234  0.00  0.00    +0.000 C 
ATOM     11  C   UNL     1      38.098  31.296  49.519  0.00  0.00    +0.000 C 
ATOM     12  C   UNL     1      37.121  30.895  50.592  0.00  0.00    +0.000 C 
ATOM     13  C   UNL     1      36.748  29.518  50.044  0.00  0.00    +0.000 C 
ATOM     14  H   UNL     1      37.211  31.498  47.609  0.00  0.00    +0.000 HD
ATOM     15  H   UNL     1      38.305  29.998  47.744  0.00  0.00    +0.000 HD
ATOM     16  H   UNL     1      39.078  30.824  49.789  0.00  0.00    +0.000 HD
ATOM     17  H   UNL     1      36.206  31.512  50.528  0.00  0.00    +0.000 HD
ATOM     18  H   UNL     1      37.572  30.830  51.590  0.00  0.00    +0.000 HD
ATOM     19  H   UNL     1      37.611  28.841  50.133  0.00  0.00    +0.000 HD
ATOM     20  H   UNL     1      35.858  29.114  50.532  0.00  0.00    +0.000 HD
BRANCH  11  21
ATOM     21  C   UNL     1      38.265  32.773  49.408  0.00  0.00    +0.000 C 
ATOM     22  F   UNL     1      37.086  33.350  49.886  0.00  0.00    +0.000 F 
ATOM     23  F   UNL     1      38.315  33.084  48.056  0.00  0.00    +0.000 F 
ATOM     24  F   UNL     1      39.371  33.259  50.043  0.00  0.00    +0.000 F 
ENDBRANCH  11  21
ENDBRANCH   1   9
BRANCH   5  25
ATOM     25  S   UNL     1      31.923  27.549  48.524  0.00  0.00    +0.000 S 
BRANCH  25  27
ATOM     26  C   UNL     1      32.998  25.290  49.453  0.00  0.00    +0.000 C 
ATOM     27  C   UNL     1      32.296  25.798  48.184  0.00  0.00    +0.000 C 
ATOM     28  O   UNL     1      33.373  25.735  47.300  0.00  0.00    +0.000 OA
ATOM     29  C   UNL     1      34.355  26.455  47.949  0.00  0.00    +0.000 C 
ATOM     30  C   UNL     1      34.183  26.261  49.441  0.00  0.00    +0.000 C 
BRANCH  26  31
ATOM     31  O   UNL     1      33.405  23.976  49.242  0.00  0.00    +0.000 OA
ATOM     32  H   UNL     1      33.868  23.606  50.024  0.00  0.00    +0.000 HD
ENDBRANCH  26  31
BRANCH  30  33
ATOM     33  O   UNL     1      35.298  25.760  50.070  0.00  0.00    +0.000 OA
ATOM     34  H   UNL     1      36.084  26.254  49.719  0.00  0.00    +0.000 HD
ENDBRANCH  30  33
ENDBRANCH  25  27
ENDBRANCH   5  25
TORSDOF 6
