REMARK  Name = 
REMARK  4 active torsions:
REMARK  status: ('A' for Active; 'I' for Inactive)
REMARK    1  A    between atoms: C_5  and  C_7
REMARK    2  A    between atoms: N_10  and  C_19
REMARK    3  A    between atoms: O_17  and  C_18
REMARK    4  A    between atoms: C_22  and  O_23
REMARK                            x       y       z     vdW  Elec       q    Type
REMARK                         _______ _______ _______ _____ _____    ______ ____
ROOT
ATOM      1  C   UNL     1      35.787  30.329  49.319  0.00  0.00    +0.000 A 
ATOM      2  C   UNL     1      35.868  28.948  49.364  0.00  0.00    +0.000 A 
ATOM      3  C   UNL     1      34.647  28.439  49.719  0.00  0.00    +0.000 A 
ATOM      4  N   UNL     1      33.836  29.511  49.886  0.00  0.00    +0.000 N 
ATOM      5  N   UNL     1      34.529  30.634  49.645  0.00  0.00    +0.000 NA
ATOM      6  H   UNL     1      36.768  28.379  49.147  0.00  0.00    +0.000 HD
ATOM      7  H   UNL     1      34.428  27.387  49.828  0.00  0.00    +0.000 HD
ENDROOT
BRANCH   1  12
ATOM      8  C   UNL     1      38.079  33.197  49.392  0.00  0.00    +0.000 A 
ATOM      9  C   UNL     1      38.914  32.931  48.284  0.00  0.00    +0.000 A 
ATOM     10  C   UNL     1      38.679  31.776  47.532  0.00  0.00    +0.000 A 
ATOM     11  N   UNL     1      37.656  30.966  47.907  0.00  0.00    +0.000 NA
ATOM     12  C   UNL     1      36.865  31.250  48.983  0.00  0.00    +0.000 A 
ATOM     13  N   UNL     1      37.090  32.346  49.694  0.00  0.00    +0.000 NA
ATOM     14  H   UNL     1      38.193  34.072  50.029  0.00  0.00    +0.000 HD
ATOM     15  H   UNL     1      39.700  33.654  48.085  0.00  0.00    +0.000 HD
ATOM     16  H   UNL     1      39.321  31.596  46.704  0.00  0.00    +0.000 HD
ENDBRANCH   1  12
BRANCH   4  18
ATOM     17  C   UNL     1      31.545  29.046  49.111  0.00  0.00    +0.000 C 
ATOM     18  C   UNL     1      32.448  29.355  50.269  0.00  0.00    +0.000 C 
ATOM     19  O   UNL     1      32.283  28.354  51.224  0.00  0.00    +0.000 OA
ATOM     20  C   UNL     1      32.166  27.206  50.413  0.00  0.00    +0.000 C 
ATOM     21  C   UNL     1      31.012  27.668  49.514  0.00  0.00    +0.000 C 
BRANCH  17  22
ATOM     22  O   UNL     1      30.473  29.950  49.007  0.00  0.00    +0.000 OA
ATOM     23  H   UNL     1      30.563  30.571  49.773  0.00  0.00    +0.000 HD
ENDBRANCH  17  22
BRANCH  21  24
ATOM     24  O   UNL     1      30.808  26.840  48.435  0.00  0.00    +0.000 OA
ATOM     25  H   UNL     1      30.079  26.195  48.669  0.00  0.00    +0.000 HD
ENDBRANCH  21  24
ENDBRANCH   4  18
TORSDOF 4
