
 OpenBabel03272503293D

 34 36  0  0  1  0  0  0  0  0999 V2000
   34.4300   29.5520   47.2760 C   0  0  0  0  0  0  0  0  0  0  0  0
   35.3420   29.9760   46.2870 C   0  0  0  0  0  0  0  0  0  0  0  0
   34.7960   30.3770   45.0630 C   0  0  0  0  0  0  0  0  0  0  0  0
   33.4330   30.3280   44.9210 N   0  0  0  0  0  0  0  0  0  0  0  0
   32.6130   29.9200   45.8880 C   0  0  0  0  0  0  0  0  0  0  0  0
   33.1070   29.5300   47.0690 N   0  0  0  0  0  0  0  0  0  0  0  0
   36.4160   30.0010   46.4370 H   0  0  0  0  0  0  0  0  0  0  0  0
   35.4410   30.7190   44.2460 H   0  0  0  0  0  0  0  0  0  0  0  0
   34.9890   29.1440   48.5370 N   0  0  0  0  0  0  0  0  0  0  0  0
   36.3820   29.1150   48.8970 C   0  0  0  0  0  0  0  0  0  0  0  0
   36.3450   29.3320   50.4020 C   0  0  2  0  0  0  0  0  0  0  0  0
   34.9010   29.5830   50.7460 C   0  0  0  0  0  0  0  0  0  0  0  0
   34.2650   28.6860   49.6840 C   0  0  0  0  0  0  0  0  0  0  0  0
   36.8790   30.0130   48.4720 H   0  0  0  0  0  0  0  0  0  0  0  0
   36.8080   28.1570   48.5910 H   0  0  0  0  0  0  0  0  0  0  0  0
   36.6310   28.3750   50.9110 H   0  0  0  0  0  0  0  0  0  0  0  0
   34.6180   30.6200   50.4850 H   0  0  0  0  0  0  0  0  0  0  0  0
   34.6330   29.2670   51.7620 H   0  0  0  0  0  0  0  0  0  0  0  0
   34.4680   27.6320   49.9240 H   0  0  0  0  0  0  0  0  0  0  0  0
   33.1960   28.8830   49.5730 H   0  0  0  0  0  0  0  0  0  0  0  0
   37.2480   30.4290   50.8520 C   0  0  0  0  0  0  0  0  0  0  0  0
   36.5660   31.6290   50.6330 F   0  0  0  0  0  0  0  0  0  0  0  0
   38.3340   30.4520   49.9880 F   0  0  0  0  0  0  0  0  0  0  0  0
   37.6760   30.3070   52.1420 F   0  0  0  0  0  0  0  0  0  0  0  0
   30.8430   29.8840   45.6440 S   0  0  0  0  0  0  0  0  0  0  0  0
   28.9780   28.3320   44.5300 C   0  0  2  0  0  3  0  0  0  0  0  0
   30.5020   28.5300   44.4730 C   0  0  2  0  0  3  0  0  0  0  0  0
   30.8990   27.3270   45.0560 O   0  0  0  0  0  0  0  0  0  0  0  0
   30.1920   27.3020   46.2410 C   0  0  0  0  0  2  0  0  0  0  0  0
   28.8650   27.9980   46.0210 C   0  0  2  0  0  3  0  0  0  0  0  0
   28.6400   27.2450   43.7300 O   0  0  0  0  0  0  0  0  0  0  0  0
   27.6740   27.0710   43.7370 H   0  0  0  0  0  0  0  0  0  0  0  0
   27.7720   27.2190   46.3180 O   0  0  0  0  0  0  0  0  0  0  0  0
   27.9580   26.7630   47.1790 H   0  0  0  0  0  0  0  0  0  0  0  0
  1  9  1  0  0  0  0
  2  7  1  0  0  0  0
  2  1  2  0  0  0  0
  3  2  1  0  0  0  0
  4  3  2  0  0  0  0
  4  5  1  0  0  0  0
  5  6  2  0  0  0  0
  6  1  1  0  0  0  0
  8  3  1  0  0  0  0
  9 10  1  0  0  0  0
  9 13  1  0  0  0  0
 10 11  1  0  0  0  0
 11 12  1  0  0  0  0
 11 21  1  0  0  0  0
 11 16  1  1  0  0  0
 12 18  1  0  0  0  0
 13 19  1  0  0  0  0
 13 12  1  0  0  0  0
 14 10  1  0  0  0  0
 15 10  1  0  0  0  0
 17 12  1  0  0  0  0
 20 13  1  0  0  0  0
 21 24  1  0  0  0  0
 22 21  1  0  0  0  0
 23 21  1  0  0  0  0
 25  5  1  0  0  0  0
 26 31  1  6  0  0  0
 26 30  1  0  0  0  0
 27 26  1  0  0  0  0
 27 28  1  0  0  0  0
 27 25  1  1  0  0  0
 28 29  1  0  0  0  0
 30 29  1  0  0  0  0
 30 33  1  6  0  0  0
 31 32  1  0  0  0  0
 33 34  1  0  0  0  0
M  END
>  <minimizedAffinity>
-4.94202185

>  <minimizedRMSD>
4.07198191

$$$$
