
 OpenBabel03272503293D

 34 36  0  0  1  0  0  0  0  0999 V2000
   34.4310   29.4120   47.2150 C   0  0  0  0  0  0  0  0  0  0  0  0
   34.7260   30.0080   45.9710 C   0  0  0  0  0  0  0  0  0  0  0  0
   33.6910   30.0400   45.0300 C   0  0  0  0  0  0  0  0  0  0  0  0
   32.4830   29.4940   45.3870 N   0  0  0  0  0  0  0  0  0  0  0  0
   32.2540   28.9430   46.5770 C   0  0  0  0  0  0  0  0  0  0  0  0
   33.2260   28.8990   47.4960 N   0  0  0  0  0  0  0  0  0  0  0  0
   35.6940   30.4290   45.7250 H   0  0  0  0  0  0  0  0  0  0  0  0
   33.8440   30.4850   44.0420 H   0  0  0  0  0  0  0  0  0  0  0  0
   35.4930   29.3840   48.1840 N   0  0  0  0  0  0  0  0  0  0  0  0
   36.7970   29.9800   48.0570 C   0  0  0  0  0  0  0  0  0  0  0  0
   37.1700   30.2800   49.5010 C   0  0  2  0  0  0  0  0  0  0  0  0
   35.9610   29.9190   50.3230 C   0  0  0  0  0  0  0  0  0  0  0  0
   35.4580   28.7540   49.4700 C   0  0  0  0  0  0  0  0  0  0  0  0
   36.6900   30.9660   47.5590 H   0  0  0  0  0  0  0  0  0  0  0  0
   37.4630   29.2730   47.5580 H   0  0  0  0  0  0  0  0  0  0  0  0
   37.9880   29.5800   49.8140 H   0  0  0  0  0  0  0  0  0  0  0  0
   35.1950   30.7120   50.2470 H   0  0  0  0  0  0  0  0  0  0  0  0
   36.2070   29.6020   51.3440 H   0  0  0  0  0  0  0  0  0  0  0  0
   36.1590   27.9100   49.5500 H   0  0  0  0  0  0  0  0  0  0  0  0
   34.4380   28.4670   49.7360 H   0  0  0  0  0  0  0  0  0  0  0  0
   37.6100   31.6900   49.7040 C   0  0  0  0  0  0  0  0  0  0  0  0
   36.5730   32.3440   50.3730 F   0  0  0  0  0  0  0  0  0  0  0  0
   37.6860   32.2840   48.4520 F   0  0  0  0  0  0  0  0  0  0  0  0
   38.8020   31.8140   50.3560 F   0  0  0  0  0  0  0  0  0  0  0  0
   30.6560   28.2540   46.9830 S   0  0  0  0  0  0  0  0  0  0  0  0
   28.4720   27.2890   45.7900 C   0  0  2  0  0  3  0  0  0  0  0  0
   29.7670   28.0260   45.4090 C   0  0  2  0  0  3  0  0  0  0  0  0
   30.3920   27.0080   44.6880 O   0  0  0  0  0  0  0  0  0  0  0  0
   30.3690   25.9420   45.5630 C   0  0  0  0  0  2  0  0  0  0  0  0
   29.1140   26.0410   46.4050 C   0  0  2  0  0  3  0  0  0  0  0  0
   27.7720   26.9880   44.6260 O   0  0  0  0  0  0  0  0  0  0  0  0
   26.9370   26.5080   44.8150 H   0  0  0  0  0  0  0  0  0  0  0  0
   28.3080   24.9290   46.3370 O   0  0  0  0  0  0  0  0  0  0  0  0
   28.8950   24.1320   46.4090 H   0  0  0  0  0  0  0  0  0  0  0  0
  1  6  1  0  0  0  0
  1  9  1  0  0  0  0
  2  1  2  0  0  0  0
  3  4  2  0  0  0  0
  3  2  1  0  0  0  0
  4  5  1  0  0  0  0
  5 25  1  0  0  0  0
  5  6  2  0  0  0  0
  7  2  1  0  0  0  0
  8  3  1  0  0  0  0
  9 13  1  0  0  0  0
 10  9  1  0  0  0  0
 10 11  1  0  0  0  0
 11 21  1  0  0  0  0
 11 16  1  1  0  0  0
 11 12  1  0  0  0  0
 12 18  1  0  0  0  0
 13 19  1  0  0  0  0
 13 20  1  0  0  0  0
 13 12  1  0  0  0  0
 14 10  1  0  0  0  0
 15 10  1  0  0  0  0
 17 12  1  0  0  0  0
 21 24  1  0  0  0  0
 21 22  1  0  0  0  0
 23 21  1  0  0  0  0
 26 31  1  6  0  0  0
 26 30  1  0  0  0  0
 27 26  1  0  0  0  0
 27 25  1  1  0  0  0
 28 27  1  0  0  0  0
 28 29  1  0  0  0  0
 29 30  1  0  0  0  0
 30 33  1  6  0  0  0
 31 32  1  0  0  0  0
 33 34  1  0  0  0  0
M  END
>  <minimizedAffinity>
-4.94823503

>  <minimizedRMSD>
3.4512248

$$$$
