
 OpenBabel03272510113D

 35 38  0  0  1  0  0  0  0  0999 V2000
   34.0250   28.8050   48.2820 C   0  0  0  0  0  0  0  0  0  0  0  0
   34.6540   28.3690   49.3940 C   0  0  0  0  0  0  0  0  0  0  0  0
   35.8900   28.7950   49.8180 C   0  0  0  0  0  0  0  0  0  0  0  0
   36.5680   29.7290   49.0870 C   0  0  0  0  0  0  0  0  0  0  0  0
   35.9270   30.1910   47.9300 C   0  0  0  0  0  0  0  0  0  0  0  0
   34.7100   29.7340   47.5640 N   0  0  0  0  0  0  0  0  0  0  0  0
   34.1930   27.6280   50.0360 H   0  0  0  0  0  0  0  0  0  0  0  0
   36.3920   28.4460   50.7070 H   0  0  0  0  0  0  0  0  0  0  0  0
   36.3750   30.9320   47.2770 H   0  0  0  0  0  0  0  0  0  0  0  0
   31.9080   27.4770   48.5820 C   0  0  0  0  0  0  0  0  0  0  0  0
   32.7290   28.3490   47.8490 C   0  0  0  0  0  0  0  0  0  0  0  0
   32.2320   28.7850   46.6320 C   0  0  0  0  0  0  0  0  0  0  0  0
   30.9980   28.3560   46.2110 N   0  0  0  0  0  0  0  0  0  0  0  0
   30.2660   27.5170   46.9700 C   0  0  0  0  0  0  0  0  0  0  0  0
   30.7130   27.0740   48.1530 N   0  0  0  0  0  0  0  0  0  0  0  0
   32.2760   27.1250   49.5330 H   0  0  0  0  0  0  0  0  0  0  0  0
   32.8260   29.4650   46.0190 H   0  0  0  0  0  0  0  0  0  0  0  0
   29.3240   27.2920   46.4720 H   0  0  0  0  0  0  0  0  0  0  0  0
   37.8240   30.2770   49.3610 O   0  0  0  0  0  0  0  0  0  0  0  0
   38.3890   31.2450   48.5430 C   0  0  0  0  0  0  0  0  0  0  0  0
   38.5060   32.4960   49.1400 C   0  0  0  0  0  0  0  0  0  0  0  0
   39.0840   33.3680   48.2150 C   0  0  0  0  0  0  0  0  0  0  0  0
   39.2880   32.6200   47.1200 N   0  0  0  0  0  0  0  0  0  0  0  0
   38.8880   31.3870   47.3010 N   0  0  0  0  0  0  0  0  0  0  0  0
   38.2550   32.9200   50.1230 H   0  0  0  0  0  0  0  0  0  0  0  0
   39.3670   34.4110   48.2120 H   0  0  0  0  0  0  0  0  0  0  0  0
   38.9440   32.7950   44.6810 C   0  0  1  0  0  3  0  0  0  0  0  0
   39.8720   33.0080   45.8290 C   0  0  2  0  0  3  0  0  0  0  0  0
   41.0210   32.3180   45.5610 O   0  0  0  0  0  0  0  0  0  0  0  0
   40.7810   31.3220   44.6540 C   0  0  0  0  0  2  0  0  0  0  0  0
   39.3910   31.4850   44.1210 C   0  0  2  0  0  3  0  0  0  0  0  0
   37.6030   32.7880   45.0590 O   0  0  0  0  0  0  0  0  0  0  0  0
   37.1730   33.6100   44.7370 H   0  0  0  0  0  0  0  0  0  0  0  0
   39.3820   31.5390   42.7150 O   0  0  0  0  0  0  0  0  0  0  0  0
   39.1190   30.6870   42.3280 H   0  0  0  0  0  0  0  0  0  0  0  0
  1  2  1  0  0  0  0
  2  3  2  0  0  0  0
  2  7  1  0  0  0  0
  3  8  1  0  0  0  0
  4 19  1  0  0  0  0
  4  3  1  0  0  0  0
  5  4  2  0  0  0  0
  6  5  1  0  0  0  0
  6  1  2  0  0  0  0
  9  5  1  0  0  0  0
 10 16  1  0  0  0  0
 11  1  1  0  0  0  0
 11 10  2  0  0  0  0
 12 11  1  0  0  0  0
 13 12  2  0  0  0  0
 13 14  1  0  0  0  0
 14 15  2  0  0  0  0
 15 10  1  0  0  0  0
 17 12  1  0  0  0  0
 18 14  1  0  0  0  0
 20 21  1  0  0  0  0
 20 19  1  0  0  0  0
 21 25  1  0  0  0  0
 22 21  2  0  0  0  0
 23 24  1  0  0  0  0
 23 22  1  0  0  0  0
 24 20  2  0  0  0  0
 26 22  1  0  0  0  0
 27 32  1  1  0  0  0
 27 28  1  0  0  0  0
 28 23  1  1  0  0  0
 29 28  1  0  0  0  0
 30 29  1  0  0  0  0
 31 34  1  6  0  0  0
 31 30  1  0  0  0  0
 31 27  1  0  0  0  0
 33 32  1  0  0  0  0
 35 34  1  0  0  0  0
M  END
>  <minimizedAffinity>
-6.88749361

>  <minimizedRMSD>
1.95917594

$$$$
