REMARK  Name = 
REMARK  6 active torsions:
REMARK  status: ('A' for Active; 'I' for Inactive)
REMARK    1  A    between atoms: C_1  and  C_8
REMARK    2  A    between atoms: C_4  and  O_13
REMARK    3  A    between atoms: O_13  and  C_14
REMARK    4  A    between atoms: N_17  and  C_29
REMARK    5  A    between atoms: O_27  and  C_28
REMARK    6  A    between atoms: C_32  and  O_33
REMARK                            x       y       z     vdW  Elec       q    Type
REMARK                         _______ _______ _______ _____ _____    ______ ____
ROOT
ATOM      1  C   UNL     1      33.844  28.785  48.278  0.00  0.00    +0.000 A 
ATOM      2  C   UNL     1      34.436  28.430  49.438  0.00  0.00    +0.000 A 
ATOM      3  C   UNL     1      35.705  28.795  49.818  0.00  0.00    +0.000 A 
ATOM      4  C   UNL     1      36.459  29.576  48.989  0.00  0.00    +0.000 A 
ATOM      5  C   UNL     1      35.857  29.953  47.781  0.00  0.00    +0.000 A 
ATOM      6  N   UNL     1      34.604  29.562  47.462  0.00  0.00    +0.000 NA
ATOM      7  H   UNL     1      33.915  27.811  50.159  0.00  0.00    +0.000 HD
ATOM      8  H   UNL     1      36.178  28.511  50.746  0.00  0.00    +0.000 HD
ATOM      9  H   UNL     1      36.365  30.572  47.049  0.00  0.00    +0.000 HD
ENDROOT
BRANCH   1  11
ATOM     10  C   UNL     1      31.634  27.659  48.703  0.00  0.00    +0.000 A 
ATOM     11  C   UNL     1      32.512  28.394  47.892  0.00  0.00    +0.000 A 
ATOM     12  C   UNL     1      32.039  28.756  46.642  0.00  0.00    +0.000 A 
ATOM     13  N   UNL     1      30.771  28.388  46.265  0.00  0.00    +0.000 NA
ATOM     14  C   UNL     1      29.984  27.681  47.099  0.00  0.00    +0.000 A 
ATOM     15  N   UNL     1      30.407  27.313  48.316  0.00  0.00    +0.000 NA
ATOM     16  H   UNL     1      31.982  27.367  49.681  0.00  0.00    +0.000 HD
ATOM     17  H   UNL     1      32.678  29.329  45.968  0.00  0.00    +0.000 HD
ATOM     18  H   UNL     1      29.023  27.486  46.626  0.00  0.00    +0.000 HD
ENDBRANCH   1  11
BRANCH   4  19
ATOM     19  O   UNL     1      37.758  30.043  49.206  0.00  0.00    +0.000 OA
BRANCH  19  20
ATOM     20  C   UNL     1      38.161  31.299  48.776  0.00  0.00    +0.000 A 
ATOM     21  C   UNL     1      37.879  32.324  49.673  0.00  0.00    +0.000 A 
ATOM     22  C   UNL     1      38.332  33.524  49.121  0.00  0.00    +0.000 A 
ATOM     23  N   UNL     1      38.859  33.178  47.936  0.00  0.00    +0.000 N 
ATOM     24  N   UNL     1      38.764  31.890  47.727  0.00  0.00    +0.000 NA
ATOM     25  H   UNL     1      37.405  32.389  50.663  0.00  0.00    +0.000 HD
ATOM     26  H   UNL     1      38.340  34.560  49.429  0.00  0.00    +0.000 HD
BRANCH  23  28
ATOM     27  C   UNL     1      39.543  33.389  45.573  0.00  0.00    +0.000 C 
ATOM     28  C   UNL     1      39.487  34.031  46.918  0.00  0.00    +0.000 C 
ATOM     29  O   UNL     1      40.764  34.376  47.260  0.00  0.00    +0.000 OA
ATOM     30  C   UNL     1      41.668  33.627  46.559  0.00  0.00    +0.000 C 
ATOM     31  C   UNL     1      40.935  32.848  45.511  0.00  0.00    +0.000 C 
BRANCH  27  32
ATOM     32  O   UNL     1      38.576  32.402  45.399  0.00  0.00    +0.000 OA
ATOM     33  H   UNL     1      37.892  32.727  44.774  0.00  0.00    +0.000 HD
ENDBRANCH  27  32
BRANCH  31  34
ATOM     34  O   UNL     1      41.475  33.069  44.231  0.00  0.00    +0.000 OA
ATOM     35  H   UNL     1      42.052  32.335  43.958  0.00  0.00    +0.000 HD
ENDBRANCH  31  34
ENDBRANCH  23  28
ENDBRANCH  19  20
ENDBRANCH   4  19
TORSDOF 6
