
 OpenBabel03272503293D

 34 36  0  0  1  0  0  0  0  0999 V2000
   35.6790   29.7980   47.6210 C   0  0  0  0  0  0  0  0  0  0  0  0
   35.7900   30.2840   46.3020 C   0  0  0  0  0  0  0  0  0  0  0  0
   34.7380   29.9790   45.4320 C   0  0  0  0  0  0  0  0  0  0  0  0
   33.6930   29.2390   45.9230 N   0  0  0  0  0  0  0  0  0  0  0  0
   33.6340   28.8030   47.1800 C   0  0  0  0  0  0  0  0  0  0  0  0
   34.6270   29.0800   48.0350 N   0  0  0  0  0  0  0  0  0  0  0  0
   36.6340   30.8670   45.9490 H   0  0  0  0  0  0  0  0  0  0  0  0
   34.7530   30.3210   44.3910 H   0  0  0  0  0  0  0  0  0  0  0  0
   36.7570   30.1150   48.5180 N   0  0  0  0  0  0  0  0  0  0  0  0
   37.9480   30.8630   48.2100 C   0  0  0  0  0  0  0  0  0  0  0  0
   38.3070   31.4880   49.5500 C   0  0  2  0  0  0  0  0  0  0  0  0
   37.1920   31.1160   50.4900 C   0  0  0  0  0  0  0  0  0  0  0  0
   36.8550   29.7480   49.8990 C   0  0  0  0  0  0  0  0  0  0  0  0
   37.6750   31.7080   47.5430 H   0  0  0  0  0  0  0  0  0  0  0  0
   38.7030   30.1800   47.8150 H   0  0  0  0  0  0  0  0  0  0  0  0
   39.2330   30.9920   49.9420 H   0  0  0  0  0  0  0  0  0  0  0  0
   36.3090   31.7570   50.3110 H   0  0  0  0  0  0  0  0  0  0  0  0
   37.5110   31.0420   51.5370 H   0  0  0  0  0  0  0  0  0  0  0  0
   37.6820   29.0490   50.0960 H   0  0  0  0  0  0  0  0  0  0  0  0
   35.9000   29.3690   50.2700 H   0  0  0  0  0  0  0  0  0  0  0  0
   38.5260   32.9600   49.4620 C   0  0  0  0  0  0  0  0  0  0  0  0
   37.2960   33.5680   49.7230 F   0  0  0  0  0  0  0  0  0  0  0  0
   38.8180   33.2570   48.1370 F   0  0  0  0  0  0  0  0  0  0  0  0
   39.5160   33.4280   50.2770 F   0  0  0  0  0  0  0  0  0  0  0  0
   32.2410   27.8470   47.7630 S   0  0  0  0  0  0  0  0  0  0  0  0
   32.8280   25.8710   46.0670 C   0  0  2  0  0  3  0  0  0  0  0  0
   32.6960   26.0920   47.5830 C   0  0  2  0  0  3  0  0  0  0  0  0
   31.5650   25.3120   47.8190 O   0  0  0  0  0  0  0  0  0  0  0  0
   30.6490   25.8020   46.9110 C   0  0  0  0  0  2  0  0  0  0  0  0
   31.3980   26.2550   45.6740 C   0  0  2  0  0  3  0  0  0  0  0  0
   33.0830   24.5230   45.8330 O   0  0  0  0  0  0  0  0  0  0  0  0
   33.1680   24.3270   44.8760 H   0  0  0  0  0  0  0  0  0  0  0  0
   30.9740   25.6490   44.5150 O   0  0  0  0  0  0  0  0  0  0  0  0
   29.9820   25.6490   44.5240 H   0  0  0  0  0  0  0  0  0  0  0  0
  1  6  1  0  0  0  0
  1  9  1  0  0  0  0
  2  1  2  0  0  0  0
  3  4  2  0  0  0  0
  3  2  1  0  0  0  0
  4  5  1  0  0  0  0
  5 25  1  0  0  0  0
  5  6  2  0  0  0  0
  7  2  1  0  0  0  0
  8  3  1  0  0  0  0
  9 13  1  0  0  0  0
 10  9  1  0  0  0  0
 10 11  1  0  0  0  0
 11 16  1  1  0  0  0
 11 12  1  0  0  0  0
 12 18  1  0  0  0  0
 13 19  1  0  0  0  0
 13 20  1  0  0  0  0
 13 12  1  0  0  0  0
 14 10  1  0  0  0  0
 15 10  1  0  0  0  0
 17 12  1  0  0  0  0
 21 11  1  0  0  0  0
 21 22  1  0  0  0  0
 21 24  1  0  0  0  0
 23 21  1  0  0  0  0
 26 31  1  1  0  0  0
 26 27  1  0  0  0  0
 27 25  1  6  0  0  0
 27 28  1  0  0  0  0
 29 28  1  0  0  0  0
 30 33  1  6  0  0  0
 30 26  1  0  0  0  0
 30 29  1  0  0  0  0
 32 31  1  0  0  0  0
 33 34  1  0  0  0  0
M  END
>  <minimizedAffinity>
-5.29222679

>  <minimizedRMSD>
0.757668138

$$$$
