
 OpenBabel03272510113D

 35 38  0  0  1  0  0  0  0  0999 V2000
   34.0230   28.8050   48.2800 C   0  0  0  0  0  0  0  0  0  0  0  0
   34.6520   28.3690   49.3930 C   0  0  0  0  0  0  0  0  0  0  0  0
   35.8880   28.7940   49.8160 C   0  0  0  0  0  0  0  0  0  0  0  0
   36.5660   29.7280   49.0870 C   0  0  0  0  0  0  0  0  0  0  0  0
   35.9260   30.1900   47.9290 C   0  0  0  0  0  0  0  0  0  0  0  0
   34.7090   29.7340   47.5630 N   0  0  0  0  0  0  0  0  0  0  0  0
   34.1910   27.6270   50.0350 H   0  0  0  0  0  0  0  0  0  0  0  0
   36.3900   28.4450   50.7060 H   0  0  0  0  0  0  0  0  0  0  0  0
   36.3740   30.9320   47.2760 H   0  0  0  0  0  0  0  0  0  0  0  0
   31.9070   27.4760   48.5790 C   0  0  0  0  0  0  0  0  0  0  0  0
   32.7270   28.3490   47.8480 C   0  0  0  0  0  0  0  0  0  0  0  0
   32.2300   28.7870   46.6320 C   0  0  0  0  0  0  0  0  0  0  0  0
   30.9960   28.3580   46.2100 N   0  0  0  0  0  0  0  0  0  0  0  0
   30.2640   27.5180   46.9680 C   0  0  0  0  0  0  0  0  0  0  0  0
   30.7120   27.0730   48.1500 N   0  0  0  0  0  0  0  0  0  0  0  0
   32.2750   27.1230   49.5300 H   0  0  0  0  0  0  0  0  0  0  0  0
   32.8240   29.4670   46.0190 H   0  0  0  0  0  0  0  0  0  0  0  0
   29.3220   27.2940   46.4700 H   0  0  0  0  0  0  0  0  0  0  0  0
   37.8220   30.2760   49.3600 O   0  0  0  0  0  0  0  0  0  0  0  0
   38.3880   31.2440   48.5430 C   0  0  0  0  0  0  0  0  0  0  0  0
   38.5050   32.4940   49.1400 C   0  0  0  0  0  0  0  0  0  0  0  0
   39.0830   33.3670   48.2160 C   0  0  0  0  0  0  0  0  0  0  0  0
   39.2870   32.6190   47.1200 N   0  0  0  0  0  0  0  0  0  0  0  0
   38.8870   31.3860   47.3000 N   0  0  0  0  0  0  0  0  0  0  0  0
   38.2550   32.9180   50.1230 H   0  0  0  0  0  0  0  0  0  0  0  0
   39.3670   34.4100   48.2130 H   0  0  0  0  0  0  0  0  0  0  0  0
   38.9440   32.7940   44.6820 C   0  0  1  0  0  0  0  0  0  0  0  0
   39.8710   33.0080   45.8300 C   0  0  2  0  0  0  0  0  0  0  0  0
   41.0200   32.3180   45.5610 O   0  0  0  0  0  0  0  0  0  0  0  0
   40.7800   31.3220   44.6550 C   0  0  0  0  0  0  0  0  0  0  0  0
   39.3910   31.4840   44.1200 C   0  0  2  0  0  0  0  0  0  0  0  0
   37.6020   32.7870   45.0580 O   0  0  0  0  0  0  0  0  0  0  0  0
   37.1710   33.6070   44.7360 H   0  0  0  0  0  0  0  0  0  0  0  0
   39.3820   31.5390   42.7150 O   0  0  0  0  0  0  0  0  0  0  0  0
   39.1200   30.6870   42.3270 H   0  0  0  0  0  0  0  0  0  0  0  0
  1  2  1  0  0  0  0
  2  3  2  0  0  0  0
  2  7  1  0  0  0  0
  3  8  1  0  0  0  0
  4 19  1  0  0  0  0
  4  3  1  0  0  0  0
  5  4  2  0  0  0  0
  6  5  1  0  0  0  0
  6  1  2  0  0  0  0
  9  5  1  0  0  0  0
 10 16  1  0  0  0  0
 11  1  1  0  0  0  0
 11 10  2  0  0  0  0
 12 11  1  0  0  0  0
 13 12  2  0  0  0  0
 13 14  1  0  0  0  0
 14 15  2  0  0  0  0
 15 10  1  0  0  0  0
 17 12  1  0  0  0  0
 18 14  1  0  0  0  0
 20 21  1  0  0  0  0
 20 19  1  0  0  0  0
 21 25  1  0  0  0  0
 22 21  2  0  0  0  0
 23 24  1  0  0  0  0
 23 22  1  0  0  0  0
 24 20  2  0  0  0  0
 26 22  1  0  0  0  0
 27 32  1  1  0  0  0
 27 28  1  0  0  0  0
 28 23  1  1  0  0  0
 29 28  1  0  0  0  0
 30 29  1  0  0  0  0
 31 34  1  6  0  0  0
 31 30  1  0  0  0  0
 31 27  1  0  0  0  0
 33 32  1  0  0  0  0
 35 34  1  0  0  0  0
M  END
>  <minimizedAffinity>
-6.88849068

>  <minimizedRMSD>
1.00052595

$$$$
