
 OpenBabel03272510123D

 35 38  0  0  1  0  0  0  0  0999 V2000
   35.8360   29.6580   34.1480 C   0  0  0  0  0  0  0  0  0  0  0  0
   35.9630   29.5700   32.8070 C   0  0  0  0  0  0  0  0  0  0  0  0
   36.6070   28.5540   32.1430 C   0  0  0  0  0  0  0  0  0  0  0  0
   37.1760   27.5370   32.8550 C   0  0  0  0  0  0  0  0  0  0  0  0
   37.0510   27.6150   34.2480 C   0  0  0  0  0  0  0  0  0  0  0  0
   36.4060   28.6400   34.8450 N   0  0  0  0  0  0  0  0  0  0  0  0
   35.5430   30.3310   32.1600 H   0  0  0  0  0  0  0  0  0  0  0  0
   36.7080   28.4840   31.0700 H   0  0  0  0  0  0  0  0  0  0  0  0
   37.4650   26.8610   34.9100 H   0  0  0  0  0  0  0  0  0  0  0  0
   33.8740   31.1940   34.5050 C   0  0  0  0  0  0  0  0  0  0  0  0
   35.1580   30.7300   34.8320 C   0  0  0  0  0  0  0  0  0  0  0  0
   35.7910   31.3630   35.8880 C   0  0  0  0  0  0  0  0  0  0  0  0
   35.1530   32.3860   36.5450 N   0  0  0  0  0  0  0  0  0  0  0  0
   33.9190   32.7770   36.1740 C   0  0  0  0  0  0  0  0  0  0  0  0
   33.2740   32.1880   35.1580 N   0  0  0  0  0  0  0  0  0  0  0  0
   33.3620   30.7140   33.6860 H   0  0  0  0  0  0  0  0  0  0  0  0
   36.7910   31.0450   36.1870 H   0  0  0  0  0  0  0  0  0  0  0  0
   33.5820   33.5950   36.8090 H   0  0  0  0  0  0  0  0  0  0  0  0
   37.8650   26.4280   32.3560 O   0  0  0  0  0  0  0  0  0  0  0  0
   38.3300   25.4230   33.1920 C   0  0  0  0  0  0  0  0  0  0  0  0
   39.7160   25.3480   33.2720 C   0  0  0  0  0  0  0  0  0  0  0  0
   40.0470   24.3040   34.1380 C   0  0  0  0  0  0  0  0  0  0  0  0
   38.8670   23.8030   34.5360 N   0  0  0  0  0  0  0  0  0  0  0  0
   37.8660   24.4450   33.9920 N   0  0  0  0  0  0  0  0  0  0  0  0
   40.5570   25.9000   32.8280 H   0  0  0  0  0  0  0  0  0  0  0  0
   40.9650   23.8700   34.5080 H   0  0  0  0  0  0  0  0  0  0  0  0
   38.0650   23.1320   36.7720 C   0  0  1  0  0  3  0  0  0  0  0  0
   38.5970   22.6870   35.4530 C   0  0  2  0  0  3  0  0  0  0  0  0
   39.7180   21.9420   35.6940 O   0  0  0  0  0  0  0  0  0  0  0  0
   40.2420   22.2480   36.9200 C   0  0  0  0  0  2  0  0  0  0  0  0
   39.2760   23.1310   37.6470 C   0  0  2  0  0  3  0  0  0  0  0  0
   37.4430   24.3780   36.7180 O   0  0  0  0  0  0  0  0  0  0  0  0
   36.4730   24.2600   36.8170 H   0  0  0  0  0  0  0  0  0  0  0  0
   38.9500   22.6090   38.9120 O   0  0  0  0  0  0  0  0  0  0  0  0
   39.4440   23.0570   39.6200 H   0  0  0  0  0  0  0  0  0  0  0  0
  1 11  1  0  0  0  0
  1  6  1  0  0  0  0
  2  1  2  0  0  0  0
  3  2  1  0  0  0  0
  3  4  2  0  0  0  0
  4  5  1  0  0  0  0
  5  6  2  0  0  0  0
  5  9  1  0  0  0  0
  7  2  1  0  0  0  0
  8  3  1  0  0  0  0
 10 11  2  0  0  0  0
 10 15  1  0  0  0  0
 11 12  1  0  0  0  0
 12 17  1  0  0  0  0
 12 13  2  0  0  0  0
 14 13  1  0  0  0  0
 14 18  1  0  0  0  0
 15 14  2  0  0  0  0
 16 10  1  0  0  0  0
 19  4  1  0  0  0  0
 19 20  1  0  0  0  0
 20 21  1  0  0  0  0
 20 24  2  0  0  0  0
 21 22  2  0  0  0  0
 22 26  1  0  0  0  0
 22 23  1  0  0  0  0
 24 23  1  0  0  0  0
 25 21  1  0  0  0  0
 27 32  1  6  0  0  0
 27 31  1  0  0  0  0
 28 23  1  6  0  0  0
 28 29  1  0  0  0  0
 28 27  1  0  0  0  0
 29 30  1  0  0  0  0
 30 31  1  0  0  0  0
 31 34  1  1  0  0  0
 32 33  1  0  0  0  0
 34 35  1  0  0  0  0
M  END
>  <minimizedAffinity>
-5.78266144

$$$$

 OpenBabel03272510123D

 35 38  0  0  1  0  0  0  0  0999 V2000
   35.8540   29.3020   34.0830 C   0  0  0  0  0  0  0  0  0  0  0  0
   35.8820   29.3400   32.7340 C   0  0  0  0  0  0  0  0  0  0  0  0
   36.4280   28.3700   31.9300 C   0  0  0  0  0  0  0  0  0  0  0  0
   36.9980   27.2650   32.4970 C   0  0  0  0  0  0  0  0  0  0  0  0
   36.9760   27.2110   33.8970 C   0  0  0  0  0  0  0  0  0  0  0  0
   36.4230   28.1980   34.6360 N   0  0  0  0  0  0  0  0  0  0  0  0
   35.4540   30.1780   32.1960 H   0  0  0  0  0  0  0  0  0  0  0  0
   36.4500   28.4010   30.8510 H   0  0  0  0  0  0  0  0  0  0  0  0
   37.4000   26.3800   34.4510 H   0  0  0  0  0  0  0  0  0  0  0  0
   36.0180   31.2020   35.7250 C   0  0  0  0  0  0  0  0  0  0  0  0
   35.2780   30.3280   34.9150 C   0  0  0  0  0  0  0  0  0  0  0  0
   33.9020   30.4860   34.9340 C   0  0  0  0  0  0  0  0  0  0  0  0
   33.3440   31.4600   35.7230 N   0  0  0  0  0  0  0  0  0  0  0  0
   34.1200   32.2640   36.4760 C   0  0  0  0  0  0  0  0  0  0  0  0
   35.4540   32.1410   36.4830 N   0  0  0  0  0  0  0  0  0  0  0  0
   37.0910   31.0960   35.7250 H   0  0  0  0  0  0  0  0  0  0  0  0
   33.2750   29.8340   34.3230 H   0  0  0  0  0  0  0  0  0  0  0  0
   33.5000   32.9680   37.0280 H   0  0  0  0  0  0  0  0  0  0  0  0
   37.5960   26.1850   31.8440 O   0  0  0  0  0  0  0  0  0  0  0  0
   37.0650   24.9050   31.9180 C   0  0  0  0  0  0  0  0  0  0  0  0
   35.8520   24.7540   31.2550 C   0  0  0  0  0  0  0  0  0  0  0  0
   35.4320   23.4310   31.4080 C   0  0  0  0  0  0  0  0  0  0  0  0
   36.3930   22.8500   32.1430 N   0  0  0  0  0  0  0  0  0  0  0  0
   37.3440   23.6970   32.4440 N   0  0  0  0  0  0  0  0  0  0  0  0
   35.1920   25.4130   30.6720 H   0  0  0  0  0  0  0  0  0  0  0  0
   34.5800   22.8510   31.0850 H   0  0  0  0  0  0  0  0  0  0  0  0
   37.0390   20.5340   31.5870 C   0  0  1  0  0  3  0  0  0  0  0  0
   36.4860   21.4620   32.6150 C   0  0  2  0  0  3  0  0  0  0  0  0
   35.2690   20.9710   32.9970 O   0  0  0  0  0  0  0  0  0  0  0  0
   34.7600   20.1470   32.0310 C   0  0  0  0  0  2  0  0  0  0  0  0
   35.8160   19.9090   30.9980 C   0  0  2  0  0  3  0  0  0  0  0  0
   37.8250   21.1780   30.6350 O   0  0  0  0  0  0  0  0  0  0  0  0
   38.7660   20.9420   30.7770 H   0  0  0  0  0  0  0  0  0  0  0  0
   36.0360   18.5350   30.7910 O   0  0  0  0  0  0  0  0  0  0  0  0
   35.5880   18.2210   29.9870 H   0  0  0  0  0  0  0  0  0  0  0  0
  1  6  1  0  0  0  0
  1 11  1  0  0  0  0
  2  1  2  0  0  0  0
  3  4  2  0  0  0  0
  3  2  1  0  0  0  0
  4  5  1  0  0  0  0
  5  9  1  0  0  0  0
  5  6  2  0  0  0  0
  7  2  1  0  0  0  0
  8  3  1  0  0  0  0
 10 15  1  0  0  0  0
 11 12  1  0  0  0  0
 11 10  2  0  0  0  0
 12 13  2  0  0  0  0
 13 14  1  0  0  0  0
 14 15  2  0  0  0  0
 14 18  1  0  0  0  0
 16 10  1  0  0  0  0
 17 12  1  0  0  0  0
 19 20  1  0  0  0  0
 19  4  1  0  0  0  0
 20 24  2  0  0  0  0
 21 22  2  0  0  0  0
 21 20  1  0  0  0  0
 22 23  1  0  0  0  0
 23 24  1  0  0  0  0
 25 21  1  0  0  0  0
 26 22  1  0  0  0  0
 27 32  1  6  0  0  0
 27 28  1  0  0  0  0
 28 23  1  6  0  0  0
 28 29  1  0  0  0  0
 30 29  1  0  0  0  0
 31 34  1  1  0  0  0
 31 27  1  0  0  0  0
 31 30  1  0  0  0  0
 32 33  1  0  0  0  0
 35 34  1  0  0  0  0
M  END
>  <minimizedAffinity>
-5.77707672

$$$$

 OpenBabel03272510123D

 35 38  0  0  1  0  0  0  0  0999 V2000
   38.2530   25.5540   35.2800 C   0  0  0  0  0  0  0  0  0  0  0  0
   38.0380   26.8010   35.7500 C   0  0  0  0  0  0  0  0  0  0  0  0
   37.3740   27.7940   35.0710 C   0  0  0  0  0  0  0  0  0  0  0  0
   36.8760   27.5430   33.8240 C   0  0  0  0  0  0  0  0  0  0  0  0
   37.0910   26.2520   33.3240 C   0  0  0  0  0  0  0  0  0  0  0  0
   37.7530   25.3160   34.0390 N   0  0  0  0  0  0  0  0  0  0  0  0
   38.3970   27.0930   36.7300 H   0  0  0  0  0  0  0  0  0  0  0  0
   37.2030   28.7920   35.4470 H   0  0  0  0  0  0  0  0  0  0  0  0
   36.7380   25.9440   32.3450 H   0  0  0  0  0  0  0  0  0  0  0  0
   40.1670   23.9510   35.5940 C   0  0  0  0  0  0  0  0  0  0  0  0
   38.9520   24.5220   36.0020 C   0  0  0  0  0  0  0  0  0  0  0  0
   38.4130   24.0440   37.1850 C   0  0  0  0  0  0  0  0  0  0  0  0
   39.0720   23.0610   37.8800 N   0  0  0  0  0  0  0  0  0  0  0  0
   40.2370   22.5590   37.4250 C   0  0  0  0  0  0  0  0  0  0  0  0
   40.7890   22.9970   36.2850 N   0  0  0  0  0  0  0  0  0  0  0  0
   40.6040   24.3090   34.6750 H   0  0  0  0  0  0  0  0  0  0  0  0
   37.4700   24.4520   37.5520 H   0  0  0  0  0  0  0  0  0  0  0  0
   40.6040   21.7950   38.1080 H   0  0  0  0  0  0  0  0  0  0  0  0
   36.1780   28.4220   32.9920 O   0  0  0  0  0  0  0  0  0  0  0  0
   35.4730   29.5020   33.5030 C   0  0  0  0  0  0  0  0  0  0  0  0
   34.1030   29.2870   33.6080 C   0  0  0  0  0  0  0  0  0  0  0  0
   33.5180   30.4430   34.1300 C   0  0  0  0  0  0  0  0  0  0  0  0
   34.5420   31.2910   34.3140 N   0  0  0  0  0  0  0  0  0  0  0  0
   35.6800   30.7540   33.9530 N   0  0  0  0  0  0  0  0  0  0  0  0
   33.4220   28.4530   33.3830 H   0  0  0  0  0  0  0  0  0  0  0  0
   32.5150   30.7510   34.3860 H   0  0  0  0  0  0  0  0  0  0  0  0
   35.0380   32.7560   36.2380 C   0  0  1  0  0  3  0  0  0  0  0  0
   34.5250   32.6620   34.8410 C   0  0  2  0  0  3  0  0  0  0  0  0
   33.2670   33.1970   34.8300 O   0  0  0  0  0  0  0  0  0  0  0  0
   32.7260   33.1760   36.0860 C   0  0  0  0  0  2  0  0  0  0  0  0
   33.7900   32.7730   37.0600 C   0  0  2  0  0  3  0  0  0  0  0  0
   35.8910   31.7090   36.5790 O   0  0  0  0  0  0  0  0  0  0  0  0
   36.8100   32.0480   36.6440 H   0  0  0  0  0  0  0  0  0  0  0  0
   33.9180   33.7080   38.1020 O   0  0  0  0  0  0  0  0  0  0  0  0
   33.4700   33.4040   38.9100 H   0  0  0  0  0  0  0  0  0  0  0  0
  1  2  1  0  0  0  0
  1 11  1  0  0  0  0
  2  7  1  0  0  0  0
  3  8  1  0  0  0  0
  3  2  2  0  0  0  0
  4  3  1  0  0  0  0
  5  4  2  0  0  0  0
  5  6  1  0  0  0  0
  6  1  2  0  0  0  0
  9  5  1  0  0  0  0
 10 11  2  0  0  0  0
 10 15  1  0  0  0  0
 11 12  1  0  0  0  0
 12 17  1  0  0  0  0
 12 13  2  0  0  0  0
 14 13  1  0  0  0  0
 14 18  1  0  0  0  0
 15 14  2  0  0  0  0
 16 10  1  0  0  0  0
 19 20  1  0  0  0  0
 19  4  1  0  0  0  0
 20 21  1  0  0  0  0
 20 24  2  0  0  0  0
 21 22  2  0  0  0  0
 22 23  1  0  0  0  0
 22 26  1  0  0  0  0
 24 23  1  0  0  0  0
 25 21  1  0  0  0  0
 27 32  1  1  0  0  0
 27 31  1  0  0  0  0
 28 23  1  1  0  0  0
 28 27  1  0  0  0  0
 29 28  1  0  0  0  0
 29 30  1  0  0  0  0
 30 31  1  0  0  0  0
 31 34  1  1  0  0  0
 32 33  1  0  0  0  0
 34 35  1  0  0  0  0
M  END
>  <minimizedAffinity>
-5.72479677

$$$$

 OpenBabel03272510123D

 35 38  0  0  1  0  0  0  0  0999 V2000
   35.3170   28.9320   32.4300 C   0  0  0  0  0  0  0  0  0  0  0  0
   35.8920   28.5890   33.6030 C   0  0  0  0  0  0  0  0  0  0  0  0
   37.0400   27.8440   33.7280 C   0  0  0  0  0  0  0  0  0  0  0  0
   37.6790   27.3960   32.6070 C   0  0  0  0  0  0  0  0  0  0  0  0
   37.0930   27.7440   31.3830 C   0  0  0  0  0  0  0  0  0  0  0  0
   35.9620   28.4800   31.3230 N   0  0  0  0  0  0  0  0  0  0  0  0
   35.4560   28.8990   34.5450 H   0  0  0  0  0  0  0  0  0  0  0  0
   37.4990   27.5700   34.6660 H   0  0  0  0  0  0  0  0  0  0  0  0
   37.5170   27.4410   30.4310 H   0  0  0  0  0  0  0  0  0  0  0  0
   34.0020   30.8950   31.5640 C   0  0  0  0  0  0  0  0  0  0  0  0
   34.1120   29.7130   32.3140 C   0  0  0  0  0  0  0  0  0  0  0  0
   32.9700   29.2940   32.9740 C   0  0  0  0  0  0  0  0  0  0  0  0
   31.8170   30.0320   32.8690 N   0  0  0  0  0  0  0  0  0  0  0  0
   31.7870   31.1580   32.1300 C   0  0  0  0  0  0  0  0  0  0  0  0
   32.8720   31.5950   31.4770 N   0  0  0  0  0  0  0  0  0  0  0  0
   34.8800   31.2400   31.0420 H   0  0  0  0  0  0  0  0  0  0  0  0
   32.9960   28.3810   33.5710 H   0  0  0  0  0  0  0  0  0  0  0  0
   30.7930   31.6000   32.1680 H   0  0  0  0  0  0  0  0  0  0  0  0
   38.8480   26.6320   32.5400 O   0  0  0  0  0  0  0  0  0  0  0  0
   39.1490   25.6770   33.5000 C   0  0  0  0  0  0  0  0  0  0  0  0
   40.3870   25.8530   34.1080 C   0  0  0  0  0  0  0  0  0  0  0  0
   40.5630   24.8310   35.0440 C   0  0  0  0  0  0  0  0  0  0  0  0
   39.4430   24.0960   34.9620 N   0  0  0  0  0  0  0  0  0  0  0  0
   38.6170   24.5780   34.0690 N   0  0  0  0  0  0  0  0  0  0  0  0
   41.2070   26.5790   34.0160 H   0  0  0  0  0  0  0  0  0  0  0  0
   41.3380   24.5510   35.7420 H   0  0  0  0  0  0  0  0  0  0  0  0
   38.2010   23.1820   36.8890 C   0  0  1  0  0  3  0  0  0  0  0  0
   39.0710   22.8900   35.7140 C   0  0  2  0  0  3  0  0  0  0  0  0
   40.1680   22.2170   36.1750 O   0  0  0  0  0  0  0  0  0  0  0  0
   40.3540   22.4600   37.5080 C   0  0  0  0  0  2  0  0  0  0  0  0
   39.1640   23.2020   38.0310 C   0  0  2  0  0  3  0  0  0  0  0  0
   37.4940   24.3760   36.7630 O   0  0  0  0  0  0  0  0  0  0  0  0
   36.5450   24.1760   36.6150 H   0  0  0  0  0  0  0  0  0  0  0  0
   38.5990   22.5530   39.1440 O   0  0  0  0  0  0  0  0  0  0  0  0
   38.8660   22.9780   39.9770 H   0  0  0  0  0  0  0  0  0  0  0  0
  1  2  1  0  0  0  0
  2  3  2  0  0  0  0
  2  7  1  0  0  0  0
  3  8  1  0  0  0  0
  4  3  1  0  0  0  0
  5  4  2  0  0  0  0
  6  5  1  0  0  0  0
  6  1  2  0  0  0  0
  9  5  1  0  0  0  0
 10 11  1  0  0  0  0
 11  1  1  0  0  0  0
 11 12  2  0  0  0  0
 12 17  1  0  0  0  0
 13 12  1  0  0  0  0
 14 18  1  0  0  0  0
 14 13  2  0  0  0  0
 15 10  2  0  0  0  0
 15 14  1  0  0  0  0
 16 10  1  0  0  0  0
 19  4  1  0  0  0  0
 19 20  1  0  0  0  0
 20 24  2  0  0  0  0
 20 21  1  0  0  0  0
 21 22  2  0  0  0  0
 22 26  1  0  0  0  0
 23 22  1  0  0  0  0
 24 23  1  0  0  0  0
 25 21  1  0  0  0  0
 27 32  1  6  0  0  0
 27 31  1  0  0  0  0
 28 23  1  1  0  0  0
 28 29  1  0  0  0  0
 28 27  1  0  0  0  0
 29 30  1  0  0  0  0
 30 31  1  0  0  0  0
 31 34  1  1  0  0  0
 33 32  1  0  0  0  0
 34 35  1  0  0  0  0
M  END
>  <minimizedAffinity>
-5.71589088

$$$$

 OpenBabel03272510123D

 35 38  0  0  1  0  0  0  0  0999 V2000
   38.1330   25.5110   35.1910 C   0  0  0  0  0  0  0  0  0  0  0  0
   37.8730   26.7840   35.5560 C   0  0  0  0  0  0  0  0  0  0  0  0
   37.2490   27.7180   34.7640 C   0  0  0  0  0  0  0  0  0  0  0  0
   36.8440   27.3730   33.5060 C   0  0  0  0  0  0  0  0  0  0  0  0
   37.1060   26.0540   33.1140 C   0  0  0  0  0  0  0  0  0  0  0  0
   37.7250   25.1800   33.9370 N   0  0  0  0  0  0  0  0  0  0  0  0
   38.1580   27.1490   36.5360 H   0  0  0  0  0  0  0  0  0  0  0  0
   37.0420   28.7360   35.0570 H   0  0  0  0  0  0  0  0  0  0  0  0
   36.8270   25.6740   32.1370 H   0  0  0  0  0  0  0  0  0  0  0  0
   39.9900   23.8930   35.7060 C   0  0  0  0  0  0  0  0  0  0  0  0
   38.7890   24.5420   36.0310 C   0  0  0  0  0  0  0  0  0  0  0  0
   38.2200   24.2110   37.2500 C   0  0  0  0  0  0  0  0  0  0  0  0
   38.8390   23.2890   38.0580 N   0  0  0  0  0  0  0  0  0  0  0  0
   39.9920   22.7050   37.6780 C   0  0  0  0  0  0  0  0  0  0  0  0
   40.5720   23.0010   36.5060 N   0  0  0  0  0  0  0  0  0  0  0  0
   40.4510   24.1360   34.7620 H   0  0  0  0  0  0  0  0  0  0  0  0
   37.2860   24.6850   37.5560 H   0  0  0  0  0  0  0  0  0  0  0  0
   40.3250   22.0080   38.4440 H   0  0  0  0  0  0  0  0  0  0  0  0
   36.1980   28.1820   32.5670 O   0  0  0  0  0  0  0  0  0  0  0  0
   35.5370   29.3440   32.9400 C   0  0  0  0  0  0  0  0  0  0  0  0
   35.9690   30.4830   32.2700 C   0  0  0  0  0  0  0  0  0  0  0  0
   35.2290   31.5710   32.7360 C   0  0  0  0  0  0  0  0  0  0  0  0
   34.3950   31.0510   33.6510 N   0  0  0  0  0  0  0  0  0  0  0  0
   34.5670   29.7600   33.7760 N   0  0  0  0  0  0  0  0  0  0  0  0
   36.7230   30.6990   31.4990 H   0  0  0  0  0  0  0  0  0  0  0  0
   35.2000   32.6310   32.5260 H   0  0  0  0  0  0  0  0  0  0  0  0
   33.6380   31.6040   35.9340 C   0  0  1  0  0  3  0  0  0  0  0  0
   33.3820   31.7280   34.4710 C   0  0  2  0  0  3  0  0  0  0  0  0
   32.1260   31.2440   34.2320 O   0  0  0  0  0  0  0  0  0  0  0  0
   31.7400   30.3980   35.2360 C   0  0  0  0  0  2  0  0  0  0  0  0
   32.7450   30.4770   36.3430 C   0  0  2  0  0  3  0  0  0  0  0  0
   34.9770   31.3650   36.2360 O   0  0  0  0  0  0  0  0  0  0  0  0
   35.3650   32.1690   36.6420 H   0  0  0  0  0  0  0  0  0  0  0  0
   32.1350   30.7750   37.5750 O   0  0  0  0  0  0  0  0  0  0  0  0
   32.0270   29.9770   38.1200 H   0  0  0  0  0  0  0  0  0  0  0  0
  1  2  1  0  0  0  0
  1 11  1  0  0  0  0
  2  7  1  0  0  0  0
  3  8  1  0  0  0  0
  3  2  2  0  0  0  0
  4  3  1  0  0  0  0
  5  4  2  0  0  0  0
  5  6  1  0  0  0  0
  6  1  2  0  0  0  0
  9  5  1  0  0  0  0
 10 11  2  0  0  0  0
 10 15  1  0  0  0  0
 11 12  1  0  0  0  0
 12 17  1  0  0  0  0
 12 13  2  0  0  0  0
 14 13  1  0  0  0  0
 14 18  1  0  0  0  0
 15 14  2  0  0  0  0
 16 10  1  0  0  0  0
 19 20  1  0  0  0  0
 19  4  1  0  0  0  0
 20 24  2  0  0  0  0
 21 22  2  0  0  0  0
 21 20  1  0  0  0  0
 22 23  1  0  0  0  0
 23 24  1  0  0  0  0
 25 21  1  0  0  0  0
 26 22  1  0  0  0  0
 27 32  1  6  0  0  0
 27 31  1  0  0  0  0
 28 23  1  6  0  0  0
 28 27  1  0  0  0  0
 29 28  1  0  0  0  0
 29 30  1  0  0  0  0
 30 31  1  0  0  0  0
 31 34  1  1  0  0  0
 32 33  1  0  0  0  0
 34 35  1  0  0  0  0
M  END
>  <minimizedAffinity>
-5.7099371

$$$$

 OpenBabel03272510123D

 35 38  0  0  1  0  0  0  0  0999 V2000
   36.1150   23.1450   31.8080 C   0  0  0  0  0  0  0  0  0  0  0  0
   35.2400   23.9830   31.2130 C   0  0  0  0  0  0  0  0  0  0  0  0
   35.3900   25.3460   31.1280 C   0  0  0  0  0  0  0  0  0  0  0  0
   36.4930   25.9390   31.6720 C   0  0  0  0  0  0  0  0  0  0  0  0
   37.4110   25.0810   32.2930 C   0  0  0  0  0  0  0  0  0  0  0  0
   37.2080   23.7460   32.3460 N   0  0  0  0  0  0  0  0  0  0  0  0
   34.3350   23.6040   30.7530 H   0  0  0  0  0  0  0  0  0  0  0  0
   34.6900   26.0170   30.6520 H   0  0  0  0  0  0  0  0  0  0  0  0
   38.3210   25.4440   32.7580 H   0  0  0  0  0  0  0  0  0  0  0  0
   36.1370   20.8310   30.8210 C   0  0  0  0  0  0  0  0  0  0  0  0
   35.9440   21.7170   31.8910 C   0  0  0  0  0  0  0  0  0  0  0  0
   35.5660   21.1520   33.0980 C   0  0  0  0  0  0  0  0  0  0  0  0
   35.4010   19.7920   33.1870 N   0  0  0  0  0  0  0  0  0  0  0  0
   35.6040   19.0030   32.1140 C   0  0  0  0  0  0  0  0  0  0  0  0
   35.9710   19.5130   30.9300 N   0  0  0  0  0  0  0  0  0  0  0  0
   36.4320   21.2490   29.8720 H   0  0  0  0  0  0  0  0  0  0  0  0
   35.4020   21.7930   33.9660 H   0  0  0  0  0  0  0  0  0  0  0  0
   35.4250   17.9630   32.3790 H   0  0  0  0  0  0  0  0  0  0  0  0
   36.8140   27.2990   31.6810 O   0  0  0  0  0  0  0  0  0  0  0  0
   36.0560   28.2210   32.3900 C   0  0  0  0  0  0  0  0  0  0  0  0
   36.3310   28.2540   33.7530 C   0  0  0  0  0  0  0  0  0  0  0  0
   35.5050   29.2150   34.3410 C   0  0  0  0  0  0  0  0  0  0  0  0
   34.7810   29.7110   33.3260 N   0  0  0  0  0  0  0  0  0  0  0  0
   35.0930   29.1400   32.1910 N   0  0  0  0  0  0  0  0  0  0  0  0
   37.0160   27.7200   34.4260 H   0  0  0  0  0  0  0  0  0  0  0  0
   35.3540   29.5930   35.3420 H   0  0  0  0  0  0  0  0  0  0  0  0
   32.4870   30.3410   32.6670 C   0  0  1  0  0  3  0  0  0  0  0  0
   33.7460   30.7540   33.3500 C   0  0  2  0  0  3  0  0  0  0  0  0
   34.1730   31.9100   32.7590 O   0  0  0  0  0  0  0  0  0  0  0  0
   33.6440   32.0300   31.5040 C   0  0  0  0  0  2  0  0  0  0  0  0
   32.6160   30.9580   31.3120 C   0  0  2  0  0  3  0  0  0  0  0  0
   32.3220   28.9590   32.6130 O   0  0  0  0  0  0  0  0  0  0  0  0
   31.6030   28.6950   33.2270 H   0  0  0  0  0  0  0  0  0  0  0  0
   31.3780   31.4950   30.9130 O   0  0  0  0  0  0  0  0  0  0  0  0
   31.2400   31.3950   29.9550 H   0  0  0  0  0  0  0  0  0  0  0  0
  1 11  1  0  0  0  0
  1  6  1  0  0  0  0
  2  1  2  0  0  0  0
  3  2  1  0  0  0  0
  3  4  2  0  0  0  0
  4 19  1  0  0  0  0
  4  5  1  0  0  0  0
  5  6  2  0  0  0  0
  5  9  1  0  0  0  0
  7  2  1  0  0  0  0
  8  3  1  0  0  0  0
 10 15  2  0  0  0  0
 10 11  1  0  0  0  0
 11 12  2  0  0  0  0
 12 13  1  0  0  0  0
 12 17  1  0  0  0  0
 14 18  1  0  0  0  0
 14 13  2  0  0  0  0
 15 14  1  0  0  0  0
 16 10  1  0  0  0  0
 19 20  1  0  0  0  0
 20 21  1  0  0  0  0
 21 22  2  0  0  0  0
 21 25  1  0  0  0  0
 22 26  1  0  0  0  0
 23 22  1  0  0  0  0
 24 20  2  0  0  0  0
 24 23  1  0  0  0  0
 27 32  1  6  0  0  0
 27 28  1  0  0  0  0
 28 23  1  6  0  0  0
 29 28  1  0  0  0  0
 30 29  1  0  0  0  0
 31 34  1  1  0  0  0
 31 30  1  0  0  0  0
 31 27  1  0  0  0  0
 32 33  1  0  0  0  0
 35 34  1  0  0  0  0
M  END
>  <minimizedAffinity>
-5.52493906

$$$$

 OpenBabel03272510123D

 35 38  0  0  1  0  0  0  0  0999 V2000
   36.1750   23.4100   31.6800 C   0  0  0  0  0  0  0  0  0  0  0  0
   35.3620   24.3080   31.0840 C   0  0  0  0  0  0  0  0  0  0  0  0
   35.5310   25.6710   31.1230 C   0  0  0  0  0  0  0  0  0  0  0  0
   36.5890   26.2000   31.8070 C   0  0  0  0  0  0  0  0  0  0  0  0
   37.4420   25.2800   32.4310 C   0  0  0  0  0  0  0  0  0  0  0  0
   37.2240   23.9490   32.3570 N   0  0  0  0  0  0  0  0  0  0  0  0
   34.4970   23.9820   30.5190 H   0  0  0  0  0  0  0  0  0  0  0  0
   34.8810   26.3880   30.6460 H   0  0  0  0  0  0  0  0  0  0  0  0
   38.3120   25.5900   32.9990 H   0  0  0  0  0  0  0  0  0  0  0  0
   34.9270   21.3010   32.2500 C   0  0  0  0  0  0  0  0  0  0  0  0
   35.9850   21.9830   31.6310 C   0  0  0  0  0  0  0  0  0  0  0  0
   36.8930   21.2060   30.9310 C   0  0  0  0  0  0  0  0  0  0  0  0
   36.7210   19.8450   30.8780 N   0  0  0  0  0  0  0  0  0  0  0  0
   35.6780   19.2590   31.4990 C   0  0  0  0  0  0  0  0  0  0  0  0
   34.7790   19.9780   32.1850 N   0  0  0  0  0  0  0  0  0  0  0  0
   34.2080   21.8870   32.8000 H   0  0  0  0  0  0  0  0  0  0  0  0
   37.7370   21.6820   30.4290 H   0  0  0  0  0  0  0  0  0  0  0  0
   35.7110   18.1820   31.3440 H   0  0  0  0  0  0  0  0  0  0  0  0
   36.9190   27.5500   31.9540 O   0  0  0  0  0  0  0  0  0  0  0  0
   35.9440   28.5340   32.0270 C   0  0  0  0  0  0  0  0  0  0  0  0
   36.0850   29.5450   31.0830 C   0  0  0  0  0  0  0  0  0  0  0  0
   35.0490   30.4620   31.2670 C   0  0  0  0  0  0  0  0  0  0  0  0
   34.3380   29.9730   32.2960 N   0  0  0  0  0  0  0  0  0  0  0  0
   34.8500   28.8550   32.7430 N   0  0  0  0  0  0  0  0  0  0  0  0
   36.7950   29.7650   30.2730 H   0  0  0  0  0  0  0  0  0  0  0  0
   34.7420   31.3840   30.7950 H   0  0  0  0  0  0  0  0  0  0  0  0
   33.2450   30.6180   34.4130 C   0  0  1  0  0  3  0  0  0  0  0  0
   33.1310   30.5200   32.9300 C   0  0  2  0  0  3  0  0  0  0  0  0
   32.0240   29.7680   32.6530 O   0  0  0  0  0  0  0  0  0  0  0  0
   31.6980   28.9820   33.7240 C   0  0  0  0  0  2  0  0  0  0  0  0
   32.5440   29.3880   34.8910 C   0  0  2  0  0  3  0  0  0  0  0  0
   34.5640   30.6900   34.8560 O   0  0  0  0  0  0  0  0  0  0  0  0
   34.7470   31.5970   35.1830 H   0  0  0  0  0  0  0  0  0  0  0  0
   31.7580   29.6940   36.0170 O   0  0  0  0  0  0  0  0  0  0  0  0
   31.7450   28.9590   36.6520 H   0  0  0  0  0  0  0  0  0  0  0  0
  1  6  1  0  0  0  0
  2  3  1  0  0  0  0
  2  1  2  0  0  0  0
  3  4  2  0  0  0  0
  4 19  1  0  0  0  0
  4  5  1  0  0  0  0
  5  9  1  0  0  0  0
  6  5  2  0  0  0  0
  7  2  1  0  0  0  0
  8  3  1  0  0  0  0
 10 16  1  0  0  0  0
 11  1  1  0  0  0  0
 11 10  2  0  0  0  0
 12 11  1  0  0  0  0
 13 12  2  0  0  0  0
 13 14  1  0  0  0  0
 14 15  2  0  0  0  0
 15 10  1  0  0  0  0
 17 12  1  0  0  0  0
 18 14  1  0  0  0  0
 19 20  1  0  0  0  0
 20 24  2  0  0  0  0
 21 22  2  0  0  0  0
 21 20  1  0  0  0  0
 22 23  1  0  0  0  0
 23 24  1  0  0  0  0
 25 21  1  0  0  0  0
 26 22  1  0  0  0  0
 27 32  1  6  0  0  0
 27 31  1  0  0  0  0
 28 23  1  1  0  0  0
 28 27  1  0  0  0  0
 29 28  1  0  0  0  0
 29 30  1  0  0  0  0
 30 31  1  0  0  0  0
 31 34  1  1  0  0  0
 32 33  1  0  0  0  0
 34 35  1  0  0  0  0
M  END
>  <minimizedAffinity>
-5.48543167

$$$$

 OpenBabel03272510123D

 35 38  0  0  1  0  0  0  0  0999 V2000
   36.3500   30.0880   31.4670 C   0  0  0  0  0  0  0  0  0  0  0  0
   36.9650   28.8960   31.3210 C   0  0  0  0  0  0  0  0  0  0  0  0
   37.0650   27.9370   32.3000 C   0  0  0  0  0  0  0  0  0  0  0  0
   36.5140   28.1680   33.5290 C   0  0  0  0  0  0  0  0  0  0  0  0
   35.8720   29.4020   33.6950 C   0  0  0  0  0  0  0  0  0  0  0  0
   35.8060   30.3060   32.6930 N   0  0  0  0  0  0  0  0  0  0  0  0
   37.4310   28.6240   30.3810 H   0  0  0  0  0  0  0  0  0  0  0  0
   37.5560   26.9830   32.1840 H   0  0  0  0  0  0  0  0  0  0  0  0
   35.4010   29.6900   34.6290 H   0  0  0  0  0  0  0  0  0  0  0  0
   35.3900   32.1900   30.4700 C   0  0  0  0  0  0  0  0  0  0  0  0
   36.2530   31.0850   30.4300 C   0  0  0  0  0  0  0  0  0  0  0  0
   37.0560   30.9710   29.3080 C   0  0  0  0  0  0  0  0  0  0  0  0
   36.9720   31.9150   28.3150 N   0  0  0  0  0  0  0  0  0  0  0  0
   36.1170   32.9510   28.4230 C   0  0  0  0  0  0  0  0  0  0  0  0
   35.3250   33.0950   29.4940 N   0  0  0  0  0  0  0  0  0  0  0  0
   34.7560   32.2990   31.3350 H   0  0  0  0  0  0  0  0  0  0  0  0
   37.7480   30.1310   29.2230 H   0  0  0  0  0  0  0  0  0  0  0  0
   36.1930   33.5880   27.5440 H   0  0  0  0  0  0  0  0  0  0  0  0
   36.5160   27.3170   34.6370 O   0  0  0  0  0  0  0  0  0  0  0  0
   37.5440   26.4120   34.8580 C   0  0  0  0  0  0  0  0  0  0  0  0
   38.7440   26.9980   35.2470 C   0  0  0  0  0  0  0  0  0  0  0  0
   39.6850   25.9840   35.4330 C   0  0  0  0  0  0  0  0  0  0  0  0
   39.0250   24.8490   35.1540 N   0  0  0  0  0  0  0  0  0  0  0  0
   37.7830   25.0870   34.8190 N   0  0  0  0  0  0  0  0  0  0  0  0
   39.0890   28.0260   35.4290 H   0  0  0  0  0  0  0  0  0  0  0  0
   40.7250   25.9410   35.7270 H   0  0  0  0  0  0  0  0  0  0  0  0
   39.1160   22.7300   36.4170 C   0  0  1  0  0  3  0  0  0  0  0  0
   39.5140   23.4640   35.1820 C   0  0  2  0  0  3  0  0  0  0  0  0
   40.8760   23.4010   35.0890 O   0  0  0  0  0  0  0  0  0  0  0  0
   41.4290   23.1580   36.3160 C   0  0  0  0  0  2  0  0  0  0  0  0
   40.3320   22.8320   37.2810 C   0  0  2  0  0  3  0  0  0  0  0  0
   37.9800   23.2590   37.0260 O   0  0  0  0  0  0  0  0  0  0  0  0
   37.2280   22.6430   36.8980 H   0  0  0  0  0  0  0  0  0  0  0  0
   40.5610   21.6040   37.9280 O   0  0  0  0  0  0  0  0  0  0  0  0
   40.9150   21.7350   38.8240 H   0  0  0  0  0  0  0  0  0  0  0  0
  1  6  1  0  0  0  0
  2  1  2  0  0  0  0
  2  3  1  0  0  0  0
  3  4  2  0  0  0  0
  4  5  1  0  0  0  0
  4 19  1  0  0  0  0
  5  9  1  0  0  0  0
  6  5  2  0  0  0  0
  7  2  1  0  0  0  0
  8  3  1  0  0  0  0
 10 16  1  0  0  0  0
 11 10  1  0  0  0  0
 11  1  1  0  0  0  0
 12 11  2  0  0  0  0
 13 14  2  0  0  0  0
 13 12  1  0  0  0  0
 14 15  1  0  0  0  0
 15 10  2  0  0  0  0
 17 12  1  0  0  0  0
 18 14  1  0  0  0  0
 19 20  1  0  0  0  0
 20 21  1  0  0  0  0
 21 25  1  0  0  0  0
 21 22  2  0  0  0  0
 22 26  1  0  0  0  0
 23 22  1  0  0  0  0
 24 20  2  0  0  0  0
 24 23  1  0  0  0  0
 27 32  1  1  0  0  0
 27 31  1  0  0  0  0
 28 23  1  1  0  0  0
 28 27  1  0  0  0  0
 29 28  1  0  0  0  0
 29 30  1  0  0  0  0
 30 31  1  0  0  0  0
 31 34  1  6  0  0  0
 33 32  1  0  0  0  0
 34 35  1  0  0  0  0
M  END
>  <minimizedAffinity>
-5.40157557

$$$$

 OpenBabel03272510123D

 35 38  0  0  1  0  0  0  0  0999 V2000
   35.9740   29.1580   34.2200 C   0  0  0  0  0  0  0  0  0  0  0  0
   36.0190   29.0900   32.8730 C   0  0  0  0  0  0  0  0  0  0  0  0
   36.7270   28.1560   32.1550 C   0  0  0  0  0  0  0  0  0  0  0  0
   37.4530   27.2060   32.8160 C   0  0  0  0  0  0  0  0  0  0  0  0
   37.4150   27.2630   34.2150 C   0  0  0  0  0  0  0  0  0  0  0  0
   36.7000   28.2070   34.8660 N   0  0  0  0  0  0  0  0  0  0  0  0
   35.4750   29.8020   32.2640 H   0  0  0  0  0  0  0  0  0  0  0  0
   36.7630   28.1020   31.0780 H   0  0  0  0  0  0  0  0  0  0  0  0
   37.9540   26.5580   34.8390 H   0  0  0  0  0  0  0  0  0  0  0  0
   33.8280   30.2420   34.9630 C   0  0  0  0  0  0  0  0  0  0  0  0
   35.2280   30.1430   34.9600 C   0  0  0  0  0  0  0  0  0  0  0  0
   35.9120   31.0680   35.7310 C   0  0  0  0  0  0  0  0  0  0  0  0
   35.2100   32.0110   36.4400 N   0  0  0  0  0  0  0  0  0  0  0  0
   33.8640   32.0450   36.3930 C   0  0  0  0  0  0  0  0  0  0  0  0
   33.1670   31.1670   35.6580 N   0  0  0  0  0  0  0  0  0  0  0  0
   33.2750   29.5320   34.3690 H   0  0  0  0  0  0  0  0  0  0  0  0
   37.0020   31.0390   35.7680 H   0  0  0  0  0  0  0  0  0  0  0  0
   33.4910   32.8560   37.0150 H   0  0  0  0  0  0  0  0  0  0  0  0
   38.2270   26.1840   32.2590 O   0  0  0  0  0  0  0  0  0  0  0  0
   38.2280   24.9020   32.7880 C   0  0  0  0  0  0  0  0  0  0  0  0
   37.3070   24.0430   32.1970 C   0  0  0  0  0  0  0  0  0  0  0  0
   37.4120   22.7970   32.8190 C   0  0  0  0  0  0  0  0  0  0  0  0
   38.3750   22.9540   33.7400 N   0  0  0  0  0  0  0  0  0  0  0  0
   38.8540   24.1710   33.7300 N   0  0  0  0  0  0  0  0  0  0  0  0
   36.5590   24.1290   31.3960 H   0  0  0  0  0  0  0  0  0  0  0  0
   36.9230   21.8390   32.7120 H   0  0  0  0  0  0  0  0  0  0  0  0
   38.5110   22.2530   36.1030 C   0  0  1  0  0  3  0  0  0  0  0  0
   38.9120   21.9740   34.6940 C   0  0  2  0  0  3  0  0  0  0  0  0
   40.2770   21.9240   34.6600 O   0  0  0  0  0  0  0  0  0  0  0  0
   40.8090   22.5980   35.7250 C   0  0  0  0  0  2  0  0  0  0  0  0
   39.7010   22.9630   36.6630 C   0  0  2  0  0  3  0  0  0  0  0  0
   37.3420   23.0050   36.2000 O   0  0  0  0  0  0  0  0  0  0  0  0
   36.6150   22.4320   36.5280 H   0  0  0  0  0  0  0  0  0  0  0  0
   39.9570   22.5070   37.9690 O   0  0  0  0  0  0  0  0  0  0  0  0
   40.2850   23.2240   38.5380 H   0  0  0  0  0  0  0  0  0  0  0  0
  1  6  1  0  0  0  0
  1 11  1  0  0  0  0
  2  1  2  0  0  0  0
  3  4  2  0  0  0  0
  3  2  1  0  0  0  0
  4  5  1  0  0  0  0
  5  9  1  0  0  0  0
  5  6  2  0  0  0  0
  7  2  1  0  0  0  0
  8  3  1  0  0  0  0
 10 15  1  0  0  0  0
 11 10  2  0  0  0  0
 11 12  1  0  0  0  0
 12 17  1  0  0  0  0
 12 13  2  0  0  0  0
 14 13  1  0  0  0  0
 14 18  1  0  0  0  0
 15 14  2  0  0  0  0
 16 10  1  0  0  0  0
 19 20  1  0  0  0  0
 19  4  1  0  0  0  0
 20 24  2  0  0  0  0
 21 20  1  0  0  0  0
 21 22  2  0  0  0  0
 22 23  1  0  0  0  0
 24 23  1  0  0  0  0
 25 21  1  0  0  0  0
 26 22  1  0  0  0  0
 27 32  1  6  0  0  0
 27 31  1  0  0  0  0
 28 23  1  6  0  0  0
 28 27  1  0  0  0  0
 29 28  1  0  0  0  0
 29 30  1  0  0  0  0
 30 31  1  0  0  0  0
 31 34  1  1  0  0  0
 32 33  1  0  0  0  0
 34 35  1  0  0  0  0
M  END
>  <minimizedAffinity>
-5.36939907

$$$$
