
     RDKit          3D

 33 35  0  0  0  0  0  0  0  0999 V2000
   37.4915   30.2503   51.3318 C   0  0  0  0  0  0  0  0  0  0  0  0
   38.1633   30.9747   50.3100 C   0  0  0  0  0  0  0  0  0  0  0  0
   37.8214   30.7208   48.9775 C   0  0  0  0  0  0  0  0  0  0  0  0
   36.8697   29.7981   48.7304 N   0  0  0  0  0  0  0  0  0  0  0  0
   36.2317   29.1089   49.7059 C   0  0  0  0  0  0  0  0  0  0  0  0
   36.5455   29.3383   51.0053 N   0  0  0  0  0  0  0  0  0  0  0  0
   38.4476   31.4097   47.9178 N   0  0  0  0  0  0  0  0  0  0  0  0
   38.6756   30.8242   46.7259 C   0  0  0  0  0  0  0  0  0  0  0  0
   39.2959   31.5155   45.6865 C   0  0  0  0  0  0  0  0  0  0  0  0
   39.6810   32.8483   45.9136 C   0  0  0  0  0  0  0  0  0  0  0  0
   40.2389   33.5014   45.0100 O   0  0  0  0  0  0  0  0  0  0  0  0
   39.4412   33.4226   47.1265 N   0  0  0  0  0  0  0  0  0  0  0  0
   38.8381   32.6734   48.0614 C   0  0  0  0  0  0  0  0  0  0  0  0
   38.6365   33.2488   49.1644 O   0  0  0  0  0  0  0  0  0  0  0  0
   37.7180   30.4094   52.3790 H   0  0  0  0  0  0  0  0  0  0  0  0
   38.8849   31.6454   50.6828 H   0  0  0  0  0  0  0  0  0  0  0  0
   35.4804   28.3866   49.4071 H   0  0  0  0  0  0  0  0  0  0  0  0
   38.3510   29.7965   46.6275 H   0  0  0  0  0  0  0  0  0  0  0  0
   39.4641   31.0199   44.7453 H   0  0  0  0  0  0  0  0  0  0  0  0
   40.6726   35.5826   49.5119 O   0  0  0  0  0  0  0  0  0  0  0  0
   39.5364   35.2653   48.7697 C   0  0  2  0  0  0  0  0  0  0  0  0
   39.8297   34.7940   47.3816 C   0  0  2  0  0  0  0  0  0  0  0  0
   39.1556   35.6467   46.5025 O   0  0  0  0  0  0  0  0  0  0  0  0
   39.4160   36.8979   47.1067 C   0  0  0  0  0  0  0  0  0  0  0  0
   38.8424   36.6053   48.4948 C   0  0  2  0  0  0  0  0  0  0  0  0
   39.1539   37.5679   49.4258 O   0  0  0  0  0  0  0  0  0  0  0  0
   41.4961   35.5600   48.9963 H   0  0  0  0  0  0  0  0  0  0  0  0
   38.8694   34.5746   49.3189 H   0  0  0  0  0  0  0  0  0  0  0  0
   40.9057   34.9527   47.1767 H   0  0  0  0  0  0  0  0  0  0  0  0
   38.9290   37.7247   46.5959 H   0  0  0  0  0  0  0  0  0  0  0  0
   40.5174   36.9647   47.2031 H   0  0  0  0  0  0  0  0  0  0  0  0
   37.7423   36.4737   48.3961 H   0  0  0  0  0  0  0  0  0  0  0  0
   38.3032   37.8422   49.8890 H   0  0  0  0  0  0  0  0  0  0  0  0
  2  1  2  0
  3  2  1  0
  4  3  2  0
  4  5  1  0
  5  6  2  0
  6  1  1  0
  7 13  1  0
  7  3  1  0
  8  7  1  0
  9 10  1  0
  9  8  2  0
 10 12  1  0
 11 10  2  0
 12 13  1  0
 13 14  2  0
  1 15  1  0
  2 16  1  0
  5 17  1  0
  8 18  1  0
  9 19  1  0
 20 21  1  0
 21 22  1  0
 22 23  1  0
 23 24  1  0
 24 25  1  0
 25 26  1  0
 25 21  1  0
 20 27  1  0
 21 28  1  1
 22 29  1  6
 24 30  1  0
 24 31  1  0
 25 32  1  6
 26 33  1  0
 12 22  1  0
M  ISO  5  15  14  16  14  17  14  18  14  19  14
M  END
>  <DihAtoms>  (1) 
9,11,21,20

>  <DihDeg>  (1) 
-103.26035675477937

$$$$
