
 OpenBabel03272502273D

 40 43  0  0  1  0  0  0  0  0999 V2000
   35.3470   20.4450   33.3780 C   0  0  0  0  0  0  0  0  0  0  0  0
   36.2610   20.7570   34.3980 C   0  0  0  0  0  0  0  0  0  0  0  0
   37.1560   21.7740   34.1590 C   0  0  0  0  0  0  0  0  0  0  0  0
   37.1000   22.4000   32.9740 N   0  0  0  0  0  0  0  0  0  0  0  0
   36.2240   22.0960   32.0050 C   0  0  0  0  0  0  0  0  0  0  0  0
   35.3460   21.1170   32.2070 N   0  0  0  0  0  0  0  0  0  0  0  0
   34.6220   19.6500   33.5200 H   0  0  0  0  0  0  0  0  0  0  0  0
   36.2720   20.2360   35.3250 H   0  0  0  0  0  0  0  0  0  0  0  0
   38.1420   22.2090   35.1320 C   0  0  0  0  0  0  0  0  0  0  0  0
   39.5060   22.1500   34.8550 C   0  0  0  0  0  0  0  0  0  0  0  0
   40.4640   22.5570   35.7370 C   0  0  0  0  0  0  0  0  0  0  0  0
   40.0830   23.0470   36.9450 N   0  0  0  0  0  0  0  0  0  0  0  0
   38.7740   23.0980   37.1990 C   0  0  0  0  0  0  0  0  0  0  0  0
   37.8100   22.7040   36.3480 N   0  0  0  0  0  0  0  0  0  0  0  0
   39.8420   21.7650   33.9000 H   0  0  0  0  0  0  0  0  0  0  0  0
   41.5200   22.4980   35.4900 H   0  0  0  0  0  0  0  0  0  0  0  0
   38.3270   23.6300   38.5140 C   0  0  0  0  0  0  0  0  0  0  0  0
   37.9380   24.9640   38.3160 F   0  0  0  0  0  0  0  0  0  0  0  0
   37.3110   22.8910   39.0330 F   0  0  0  0  0  0  0  0  0  0  0  0
   39.3700   23.7030   39.4210 F   0  0  0  0  0  0  0  0  0  0  0  0
   36.3000   22.8450   30.8330 O   0  0  0  0  0  0  0  0  0  0  0  0
   39.4390   24.6490   30.2130 N   0  0  0  0  0  0  0  0  0  0  0  0
   38.6110   23.5980   30.3100 C   0  0  0  0  0  0  0  0  0  0  0  0
   37.2990   23.7800   30.6760 C   0  0  0  0  0  0  0  0  0  0  0  0
   36.8780   25.0710   30.9330 C   0  0  0  0  0  0  0  0  0  0  0  0
   35.7250   25.4770   31.2730 O   0  0  0  0  0  0  0  0  0  0  0  0
   37.7300   26.1090   30.8320 N   0  0  0  0  0  0  0  0  0  0  0  0
   39.0340   25.8920   30.4630 C   0  0  0  0  0  0  0  0  0  0  0  0
   39.8890   26.8170   30.3420 O   0  0  0  0  0  0  0  0  0  0  0  0
   40.4360   24.4370   29.9260 H   0  0  0  0  0  0  0  0  0  0  0  0
   38.8770   22.5620   30.1220 H   0  0  0  0  0  0  0  0  0  0  0  0
   36.5260   28.1880   30.1510 C   0  0  1  0  0  3  0  0  0  0  0  0
   37.4240   27.4830   31.0740 C   0  0  1  0  0  3  0  0  0  0  0  0
   36.8280   27.7190   32.3020 O   0  0  0  0  0  0  0  0  0  0  0  0
   36.4960   29.0480   32.3020 C   0  0  0  0  0  2  0  0  0  0  0  0
   36.5850   29.5620   30.8580 C   0  0  2  0  0  3  0  0  0  0  0  0
   36.9790   28.3070   28.8430 O   0  0  0  0  0  0  0  0  0  0  0  0
   37.4700   29.1680   28.7870 H   0  0  0  0  0  0  0  0  0  0  0  0
   35.4490   30.3160   30.5380 O   0  0  0  0  0  0  0  0  0  0  0  0
   35.0430   30.6640   31.3710 H   0  0  0  0  0  0  0  0  0  0  0  0
  1  7  1  0  0  0  0
  1  2  1  0  0  0  0
  2  8  1  0  0  0  0
  3  2  2  0  0  0  0
  3  9  1  0  0  0  0
  4  3  1  0  0  0  0
  5  6  1  0  0  0  0
  5  4  2  0  0  0  0
  6  1  2  0  0  0  0
  9 14  1  0  0  0  0
 10  9  2  0  0  0  0
 10 11  1  0  0  0  0
 11 12  2  0  0  0  0
 12 13  1  0  0  0  0
 13 17  1  0  0  0  0
 14 13  2  0  0  0  0
 15 10  1  0  0  0  0
 16 11  1  0  0  0  0
 17 19  1  0  0  0  0
 17 20  1  0  0  0  0
 18 17  1  0  0  0  0
 21  5  1  0  0  0  0
 22 23  1  0  0  0  0
 22 28  1  0  0  0  0
 23 24  2  0  0  0  0
 24 21  1  0  0  0  0
 24 25  1  0  0  0  0
 25 26  2  0  0  0  0
 27 25  1  0  0  0  0
 28 27  1  0  0  0  0
 29 28  2  0  0  0  0
 30 22  1  0  0  0  0
 31 23  1  0  0  0  0
 32 37  1  6  0  0  0
 32 36  1  0  0  0  0
 32 33  1  0  0  0  0
 33 27  1  6  0  0  0
 33 34  1  0  0  0  0
 35 34  1  0  0  0  0
 36 39  1  6  0  0  0
 36 35  1  0  0  0  0
 38 37  1  0  0  0  0
 39 40  1  0  0  0  0
M  END
>  <minimizedAffinity>
-7.27986097

$$$$

 OpenBabel03272502273D

 40 43  0  0  1  0  0  0  0  0999 V2000
   36.6180   24.5540   31.4690 C   0  0  0  0  0  0  0  0  0  0  0  0
   37.1780   23.7880   32.5040 C   0  0  0  0  0  0  0  0  0  0  0  0
   37.8930   24.4550   33.4730 C   0  0  0  0  0  0  0  0  0  0  0  0
   38.0100   25.7860   33.3670 N   0  0  0  0  0  0  0  0  0  0  0  0
   37.4720   26.5110   32.3740 C   0  0  0  0  0  0  0  0  0  0  0  0
   36.7750   25.8930   31.4230 N   0  0  0  0  0  0  0  0  0  0  0  0
   36.0460   24.0720   30.6830 H   0  0  0  0  0  0  0  0  0  0  0  0
   37.0620   22.7310   32.5520 H   0  0  0  0  0  0  0  0  0  0  0  0
   38.5100   23.7880   34.6050 C   0  0  0  0  0  0  0  0  0  0  0  0
   39.5280   22.8550   34.4290 C   0  0  0  0  0  0  0  0  0  0  0  0
   40.1400   22.2130   35.4650 C   0  0  0  0  0  0  0  0  0  0  0  0
   39.7490   22.4910   36.7360 N   0  0  0  0  0  0  0  0  0  0  0  0
   38.7720   23.3870   36.8930 C   0  0  0  0  0  0  0  0  0  0  0  0
   38.1530   24.0320   35.8890 N   0  0  0  0  0  0  0  0  0  0  0  0
   39.8640   22.6120   33.4270 H   0  0  0  0  0  0  0  0  0  0  0  0
   40.9320   21.4900   35.2930 H   0  0  0  0  0  0  0  0  0  0  0  0
   38.3230   23.7110   38.2730 C   0  0  0  0  0  0  0  0  0  0  0  0
   37.9660   25.0680   38.2900 F   0  0  0  0  0  0  0  0  0  0  0  0
   37.2840   22.9220   38.6590 F   0  0  0  0  0  0  0  0  0  0  0  0
   39.3570   23.6110   39.1880 F   0  0  0  0  0  0  0  0  0  0  0  0
   37.6870   27.8860   32.4130 O   0  0  0  0  0  0  0  0  0  0  0  0
   35.5390   30.1570   30.4840 N   0  0  0  0  0  0  0  0  0  0  0  0
   36.5680   29.3300   30.7270 C   0  0  0  0  0  0  0  0  0  0  0  0
   36.7130   28.7510   31.9640 C   0  0  0  0  0  0  0  0  0  0  0  0
   35.7700   29.0510   32.9290 C   0  0  0  0  0  0  0  0  0  0  0  0
   35.6960   28.6330   34.1250 O   0  0  0  0  0  0  0  0  0  0  0  0
   34.7490   29.8870   32.6610 N   0  0  0  0  0  0  0  0  0  0  0  0
   34.6310   30.4480   31.4130 C   0  0  0  0  0  0  0  0  0  0  0  0
   33.6980   31.2370   31.0870 O   0  0  0  0  0  0  0  0  0  0  0  0
   35.4870   30.5680   29.5100 H   0  0  0  0  0  0  0  0  0  0  0  0
   37.3400   29.0530   30.0170 H   0  0  0  0  0  0  0  0  0  0  0  0
   32.5650   29.3910   33.7670 C   0  0  1  0  0  3  0  0  0  0  0  0
   33.7160   30.2810   33.5650 C   0  0  1  0  0  3  0  0  0  0  0  0
   34.1550   30.4940   34.8620 O   0  0  0  0  0  0  0  0  0  0  0  0
   33.0250   30.7330   35.5990 C   0  0  0  0  0  2  0  0  0  0  0  0
   31.8110   30.2980   34.7660 C   0  0  2  0  0  3  0  0  0  0  0  0
   31.7780   29.1610   32.6460 O   0  0  0  0  0  0  0  0  0  0  0  0
   31.0600   29.8460   32.6540 H   0  0  0  0  0  0  0  0  0  0  0  0
   30.9350   29.5310   35.5450 O   0  0  0  0  0  0  0  0  0  0  0  0
   31.0760   29.7450   36.5010 H   0  0  0  0  0  0  0  0  0  0  0  0
  1  2  1  0  0  0  0
  2  8  1  0  0  0  0
  2  3  2  0  0  0  0
  3  9  1  0  0  0  0
  4  3  1  0  0  0  0
  5 21  1  0  0  0  0
  5  4  2  0  0  0  0
  6  1  2  0  0  0  0
  6  5  1  0  0  0  0
  7  1  1  0  0  0  0
  9 14  1  0  0  0  0
 10  9  2  0  0  0  0
 10 11  1  0  0  0  0
 11 12  2  0  0  0  0
 12 13  1  0  0  0  0
 13 17  1  0  0  0  0
 14 13  2  0  0  0  0
 15 10  1  0  0  0  0
 16 11  1  0  0  0  0
 17 18  1  0  0  0  0
 17 19  1  0  0  0  0
 17 20  1  0  0  0  0
 22 23  1  0  0  0  0
 22 28  1  0  0  0  0
 23 24  2  0  0  0  0
 24 21  1  0  0  0  0
 24 25  1  0  0  0  0
 25 26  2  0  0  0  0
 27 25  1  0  0  0  0
 28 27  1  0  0  0  0
 29 28  2  0  0  0  0
 30 22  1  0  0  0  0
 31 23  1  0  0  0  0
 32 37  1  6  0  0  0
 32 36  1  0  0  0  0
 33 27  1  6  0  0  0
 33 32  1  0  0  0  0
 33 34  1  0  0  0  0
 34 35  1  0  0  0  0
 36 39  1  1  0  0  0
 36 35  1  0  0  0  0
 37 38  1  0  0  0  0
 39 40  1  0  0  0  0
M  END
>  <minimizedAffinity>
-6.99423647

$$$$

 OpenBabel03272502273D

 40 43  0  0  1  0  0  0  0  0999 V2000
   36.9190   29.0320   30.4300 C   0  0  0  0  0  0  0  0  0  0  0  0
   36.2750   29.7670   31.4390 C   0  0  0  0  0  0  0  0  0  0  0  0
   35.4680   29.0750   32.3120 C   0  0  0  0  0  0  0  0  0  0  0  0
   35.3480   27.7500   32.1460 N   0  0  0  0  0  0  0  0  0  0  0  0
   35.9670   27.0540   31.1800 C   0  0  0  0  0  0  0  0  0  0  0  0
   36.7540   27.6970   30.3200 N   0  0  0  0  0  0  0  0  0  0  0  0
   37.5650   29.5350   29.7180 H   0  0  0  0  0  0  0  0  0  0  0  0
   36.3970   30.8190   31.5370 H   0  0  0  0  0  0  0  0  0  0  0  0
   34.7570   29.7070   33.4090 C   0  0  0  0  0  0  0  0  0  0  0  0
   33.4140   29.4350   33.6530 C   0  0  0  0  0  0  0  0  0  0  0  0
   32.7120   30.0000   34.6770 C   0  0  0  0  0  0  0  0  0  0  0  0
   33.3430   30.8710   35.5070 N   0  0  0  0  0  0  0  0  0  0  0  0
   34.6300   31.1240   35.2630 C   0  0  0  0  0  0  0  0  0  0  0  0
   35.3430   30.5810   34.2620 N   0  0  0  0  0  0  0  0  0  0  0  0
   32.8820   28.7440   33.0090 H   0  0  0  0  0  0  0  0  0  0  0  0
   31.6640   29.7660   34.8400 H   0  0  0  0  0  0  0  0  0  0  0  0
   35.3470   32.0730   36.1560 C   0  0  0  0  0  0  0  0  0  0  0  0
   35.1270   33.3660   35.6560 F   0  0  0  0  0  0  0  0  0  0  0  0
   34.9260   31.9630   37.4440 F   0  0  0  0  0  0  0  0  0  0  0  0
   36.7190   31.9030   36.0920 F   0  0  0  0  0  0  0  0  0  0  0  0
   35.7350   25.6820   31.1470 O   0  0  0  0  0  0  0  0  0  0  0  0
   38.0870   24.1580   33.5220 N   0  0  0  0  0  0  0  0  0  0  0  0
   37.4470   25.1380   32.8660 C   0  0  0  0  0  0  0  0  0  0  0  0
   36.4950   24.8350   31.9240 C   0  0  0  0  0  0  0  0  0  0  0  0
   36.2300   23.4990   31.6860 C   0  0  0  0  0  0  0  0  0  0  0  0
   35.3960   22.9860   30.8790 O   0  0  0  0  0  0  0  0  0  0  0  0
   36.8880   22.5340   32.3560 N   0  0  0  0  0  0  0  0  0  0  0  0
   37.8320   22.8720   33.2930 C   0  0  0  0  0  0  0  0  0  0  0  0
   38.4860   22.0220   33.9640 O   0  0  0  0  0  0  0  0  0  0  0  0
   38.8080   24.4620   34.2360 H   0  0  0  0  0  0  0  0  0  0  0  0
   37.6070   26.2030   33.0050 H   0  0  0  0  0  0  0  0  0  0  0  0
   35.4960   20.4950   32.7330 C   0  0  1  0  0  3  0  0  0  0  0  0
   36.7120   21.1250   32.2030 C   0  0  1  0  0  3  0  0  0  0  0  0
   36.7140   20.6980   30.8850 O   0  0  0  0  0  0  0  0  0  0  0  0
   36.4080   19.3630   30.9290 C   0  0  0  0  0  2  0  0  0  0  0  0
   35.8520   19.0470   32.3240 C   0  0  2  0  0  3  0  0  0  0  0  0
   35.3300   20.5720   34.1090 O   0  0  0  0  0  0  0  0  0  0  0  0
   35.7410   19.7550   34.4950 H   0  0  0  0  0  0  0  0  0  0  0  0
   34.6870   18.2770   32.2210 O   0  0  0  0  0  0  0  0  0  0  0  0
   34.6860   17.8010   31.3530 H   0  0  0  0  0  0  0  0  0  0  0  0
  1  2  1  0  0  0  0
  2  8  1  0  0  0  0
  2  3  2  0  0  0  0
  3  9  1  0  0  0  0
  4  3  1  0  0  0  0
  5  4  2  0  0  0  0
  6  1  2  0  0  0  0
  6  5  1  0  0  0  0
  7  1  1  0  0  0  0
  9 10  2  0  0  0  0
  9 14  1  0  0  0  0
 10 11  1  0  0  0  0
 11 16  1  0  0  0  0
 11 12  2  0  0  0  0
 13 12  1  0  0  0  0
 13 17  1  0  0  0  0
 14 13  2  0  0  0  0
 15 10  1  0  0  0  0
 17 19  1  0  0  0  0
 18 17  1  0  0  0  0
 20 17  1  0  0  0  0
 21  5  1  0  0  0  0
 21 24  1  0  0  0  0
 22 30  1  0  0  0  0
 23 31  1  0  0  0  0
 23 22  1  0  0  0  0
 24 23  2  0  0  0  0
 25 24  1  0  0  0  0
 25 27  1  0  0  0  0
 26 25  2  0  0  0  0
 27 28  1  0  0  0  0
 28 22  1  0  0  0  0
 28 29  2  0  0  0  0
 32 37  1  1  0  0  0
 33 27  1  6  0  0  0
 33 32  1  0  0  0  0
 34 35  1  0  0  0  0
 34 33  1  0  0  0  0
 35 36  1  0  0  0  0
 36 39  1  6  0  0  0
 36 32  1  0  0  0  0
 37 38  1  0  0  0  0
 40 39  1  0  0  0  0
M  END
>  <minimizedAffinity>
-6.98288631

$$$$

 OpenBabel03272502273D

 40 43  0  0  1  0  0  0  0  0999 V2000
   39.9690   26.9420   32.3330 C   0  0  0  0  0  0  0  0  0  0  0  0
   39.8530   25.8680   33.2310 C   0  0  0  0  0  0  0  0  0  0  0  0
   38.5840   25.4840   33.6000 C   0  0  0  0  0  0  0  0  0  0  0  0
   37.5450   26.1550   33.0820 N   0  0  0  0  0  0  0  0  0  0  0  0
   37.6650   27.1800   32.2240 C   0  0  0  0  0  0  0  0  0  0  0  0
   38.8800   27.5740   31.8500 N   0  0  0  0  0  0  0  0  0  0  0  0
   40.9500   27.2810   32.0140 H   0  0  0  0  0  0  0  0  0  0  0  0
   40.7040   25.3610   33.6190 H   0  0  0  0  0  0  0  0  0  0  0  0
   38.3200   24.3820   34.5070 C   0  0  0  0  0  0  0  0  0  0  0  0
   37.9430   23.1280   34.0310 C   0  0  0  0  0  0  0  0  0  0  0  0
   37.6950   22.0640   34.8480 C   0  0  0  0  0  0  0  0  0  0  0  0
   37.8190   22.2210   36.1910 N   0  0  0  0  0  0  0  0  0  0  0  0
   38.1800   23.4260   36.6350 C   0  0  0  0  0  0  0  0  0  0  0  0
   38.4300   24.4900   35.8520 N   0  0  0  0  0  0  0  0  0  0  0  0
   37.8360   22.9710   32.9640 H   0  0  0  0  0  0  0  0  0  0  0  0
   37.4030   21.0990   34.4440 H   0  0  0  0  0  0  0  0  0  0  0  0
   38.3240   23.6280   38.1010 C   0  0  0  0  0  0  0  0  0  0  0  0
   37.3240   22.8700   38.7290 F   0  0  0  0  0  0  0  0  0  0  0  0
   39.5620   23.2690   38.5360 F   0  0  0  0  0  0  0  0  0  0  0  0
   38.0550   24.9350   38.4710 F   0  0  0  0  0  0  0  0  0  0  0  0
   36.4840   27.7680   31.7800 O   0  0  0  0  0  0  0  0  0  0  0  0
   36.2660   31.4300   31.5860 N   0  0  0  0  0  0  0  0  0  0  0  0
   36.5700   30.1830   31.1950 C   0  0  0  0  0  0  0  0  0  0  0  0
   36.2580   29.1100   31.9950 C   0  0  0  0  0  0  0  0  0  0  0  0
   35.6290   29.3690   33.1980 C   0  0  0  0  0  0  0  0  0  0  0  0
   35.2420   28.5470   34.0840 O   0  0  0  0  0  0  0  0  0  0  0  0
   35.3370   30.6300   33.5690 N   0  0  0  0  0  0  0  0  0  0  0  0
   35.6610   31.6790   32.7450 C   0  0  0  0  0  0  0  0  0  0  0  0
   35.4150   32.8880   33.0240 O   0  0  0  0  0  0  0  0  0  0  0  0
   36.5340   32.2100   30.9210 H   0  0  0  0  0  0  0  0  0  0  0  0
   37.0620   29.9130   30.2660 H   0  0  0  0  0  0  0  0  0  0  0  0
   35.4600   31.7980   35.7730 C   0  0  1  0  0  3  0  0  0  0  0  0
   34.6970   31.0300   34.7810 C   0  0  1  0  0  3  0  0  0  0  0  0
   33.5780   31.8250   34.5900 O   0  0  0  0  0  0  0  0  0  0  0  0
   33.1810   32.2100   35.8430 C   0  0  0  0  0  2  0  0  0  0  0  0
   34.3280   31.9140   36.8190 C   0  0  2  0  0  3  0  0  0  0  0  0
   36.5540   31.1470   36.3260 O   0  0  0  0  0  0  0  0  0  0  0  0
   36.2330   30.6920   37.1480 H   0  0  0  0  0  0  0  0  0  0  0  0
   34.5550   33.0150   37.6530 O   0  0  0  0  0  0  0  0  0  0  0  0
   33.7320   33.5650   37.7000 H   0  0  0  0  0  0  0  0  0  0  0  0
  1  2  1  0  0  0  0
  2  3  2  0  0  0  0
  2  8  1  0  0  0  0
  3  9  1  0  0  0  0
  4  3  1  0  0  0  0
  5  4  2  0  0  0  0
  6  5  1  0  0  0  0
  6  1  2  0  0  0  0
  7  1  1  0  0  0  0
  9 14  1  0  0  0  0
 10  9  2  0  0  0  0
 10 11  1  0  0  0  0
 11 12  2  0  0  0  0
 12 13  1  0  0  0  0
 13 17  1  0  0  0  0
 14 13  2  0  0  0  0
 15 10  1  0  0  0  0
 16 11  1  0  0  0  0
 17 20  1  0  0  0  0
 17 19  1  0  0  0  0
 17 18  1  0  0  0  0
 21 24  1  0  0  0  0
 21  5  1  0  0  0  0
 22 28  1  0  0  0  0
 23 22  1  0  0  0  0
 23 24  2  0  0  0  0
 24 25  1  0  0  0  0
 25 27  1  0  0  0  0
 25 26  2  0  0  0  0
 28 29  2  0  0  0  0
 28 27  1  0  0  0  0
 30 22  1  0  0  0  0
 31 23  1  0  0  0  0
 32 37  1  1  0  0  0
 32 36  1  0  0  0  0
 33 27  1  6  0  0  0
 33 32  1  0  0  0  0
 34 33  1  0  0  0  0
 34 35  1  0  0  0  0
 35 36  1  0  0  0  0
 36 39  1  1  0  0  0
 37 38  1  0  0  0  0
 39 40  1  0  0  0  0
M  END
>  <minimizedAffinity>
-6.81026173

$$$$

 OpenBabel03272502273D

 40 43  0  0  1  0  0  0  0  0999 V2000
   39.5520   27.0900   32.3060 C   0  0  0  0  0  0  0  0  0  0  0  0
   39.5680   25.9980   33.1880 C   0  0  0  0  0  0  0  0  0  0  0  0
   38.3550   25.5100   33.6160 C   0  0  0  0  0  0  0  0  0  0  0  0
   37.2410   26.1050   33.1680 N   0  0  0  0  0  0  0  0  0  0  0  0
   37.2340   27.1490   32.3250 C   0  0  0  0  0  0  0  0  0  0  0  0
   38.3920   27.6430   31.8940 N   0  0  0  0  0  0  0  0  0  0  0  0
   40.4840   27.5100   31.9410 H   0  0  0  0  0  0  0  0  0  0  0  0
   40.4760   25.5530   33.5200 H   0  0  0  0  0  0  0  0  0  0  0  0
   38.2280   24.3760   34.5140 C   0  0  0  0  0  0  0  0  0  0  0  0
   38.0590   23.0830   34.0270 C   0  0  0  0  0  0  0  0  0  0  0  0
   37.9450   21.9900   34.8350 C   0  0  0  0  0  0  0  0  0  0  0  0
   37.9970   22.1580   36.1820 N   0  0  0  0  0  0  0  0  0  0  0  0
   38.1580   23.4010   36.6370 C   0  0  0  0  0  0  0  0  0  0  0  0
   38.2740   24.4940   35.8630 N   0  0  0  0  0  0  0  0  0  0  0  0
   38.0140   22.9150   32.9570 H   0  0  0  0  0  0  0  0  0  0  0  0
   37.8140   20.9940   34.4230 H   0  0  0  0  0  0  0  0  0  0  0  0
   38.2200   23.6160   38.1080 C   0  0  0  0  0  0  0  0  0  0  0  0
   38.0340   24.9870   38.3400 F   0  0  0  0  0  0  0  0  0  0  0  0
   37.2870   22.8730   38.7610 F   0  0  0  0  0  0  0  0  0  0  0  0
   39.4790   23.3440   38.6150 F   0  0  0  0  0  0  0  0  0  0  0  0
   35.9880   27.6490   31.9570 O   0  0  0  0  0  0  0  0  0  0  0  0
   35.5950   31.1990   31.0990 N   0  0  0  0  0  0  0  0  0  0  0  0
   35.8510   29.8970   30.9030 C   0  0  0  0  0  0  0  0  0  0  0  0
   35.7660   29.0090   31.9470 C   0  0  0  0  0  0  0  0  0  0  0  0
   35.4110   29.5080   33.1870 C   0  0  0  0  0  0  0  0  0  0  0  0
   35.2620   28.8840   34.2810 O   0  0  0  0  0  0  0  0  0  0  0  0
   35.1630   30.8210   33.3590 N   0  0  0  0  0  0  0  0  0  0  0  0
   35.2550   31.6810   32.2930 C   0  0  0  0  0  0  0  0  0  0  0  0
   35.0320   32.9230   32.3760 O   0  0  0  0  0  0  0  0  0  0  0  0
   35.6780   31.8280   30.2510 H   0  0  0  0  0  0  0  0  0  0  0  0
   36.1330   29.4420   29.9590 H   0  0  0  0  0  0  0  0  0  0  0  0
   33.5970   30.9990   35.2960 C   0  0  1  0  0  3  0  0  0  0  0  0
   34.7940   31.4600   34.5800 C   0  0  1  0  0  3  0  0  0  0  0  0
   35.7670   31.3980   35.5640 O   0  0  0  0  0  0  0  0  0  0  0  0
   35.1940   31.9400   36.6850 C   0  0  0  0  0  2  0  0  0  0  0  0
   33.6780   32.0170   36.4570 C   0  0  2  0  0  3  0  0  0  0  0  0
   32.3950   31.1480   34.6170 O   0  0  0  0  0  0  0  0  0  0  0  0
   32.0260   32.0320   34.8760 H   0  0  0  0  0  0  0  0  0  0  0  0
   32.9920   31.5270   37.5740 O   0  0  0  0  0  0  0  0  0  0  0  0
   33.5750   31.5960   38.3720 H   0  0  0  0  0  0  0  0  0  0  0  0
  1  2  1  0  0  0  0
  2  8  1  0  0  0  0
  2  3  2  0  0  0  0
  3  9  1  0  0  0  0
  4  3  1  0  0  0  0
  5  4  2  0  0  0  0
  6  1  2  0  0  0  0
  6  5  1  0  0  0  0
  7  1  1  0  0  0  0
  9 14  1  0  0  0  0
 10  9  2  0  0  0  0
 10 11  1  0  0  0  0
 11 12  2  0  0  0  0
 12 13  1  0  0  0  0
 13 17  1  0  0  0  0
 14 13  2  0  0  0  0
 15 10  1  0  0  0  0
 16 11  1  0  0  0  0
 17 18  1  0  0  0  0
 17 20  1  0  0  0  0
 17 19  1  0  0  0  0
 21  5  1  0  0  0  0
 22 28  1  0  0  0  0
 23 22  1  0  0  0  0
 23 24  2  0  0  0  0
 24 21  1  0  0  0  0
 24 25  1  0  0  0  0
 25 27  1  0  0  0  0
 25 26  2  0  0  0  0
 28 29  2  0  0  0  0
 28 27  1  0  0  0  0
 30 22  1  0  0  0  0
 31 23  1  0  0  0  0
 32 37  1  6  0  0  0
 32 36  1  0  0  0  0
 33 27  1  6  0  0  0
 33 32  1  0  0  0  0
 33 34  1  0  0  0  0
 34 35  1  0  0  0  0
 36 35  1  0  0  0  0
 36 39  1  1  0  0  0
 37 38  1  0  0  0  0
 39 40  1  0  0  0  0
M  END
>  <minimizedAffinity>
-6.70961285

$$$$

 OpenBabel03272502273D

 40 43  0  0  1  0  0  0  0  0999 V2000
   36.8560   29.2720   30.5780 C   0  0  0  0  0  0  0  0  0  0  0  0
   36.3120   29.9660   31.6700 C   0  0  0  0  0  0  0  0  0  0  0  0
   35.5710   29.2430   32.5760 C   0  0  0  0  0  0  0  0  0  0  0  0
   35.4160   27.9290   32.3600 N   0  0  0  0  0  0  0  0  0  0  0  0
   35.9400   27.2730   31.3130 C   0  0  0  0  0  0  0  0  0  0  0  0
   36.6610   27.9470   30.4200 N   0  0  0  0  0  0  0  0  0  0  0  0
   37.4480   29.8010   29.8370 H   0  0  0  0  0  0  0  0  0  0  0  0
   36.4580   31.0110   31.8060 H   0  0  0  0  0  0  0  0  0  0  0  0
   34.9650   29.8310   33.7580 C   0  0  0  0  0  0  0  0  0  0  0  0
   35.6280   30.8040   34.5020 C   0  0  0  0  0  0  0  0  0  0  0  0
   35.0920   31.3890   35.6110 C   0  0  0  0  0  0  0  0  0  0  0  0
   33.8520   31.0140   36.0200 N   0  0  0  0  0  0  0  0  0  0  0  0
   33.2270   30.0810   35.2990 C   0  0  0  0  0  0  0  0  0  0  0  0
   33.7330   29.4900   34.2030 N   0  0  0  0  0  0  0  0  0  0  0  0
   36.6190   31.1250   34.2020 H   0  0  0  0  0  0  0  0  0  0  0  0
   35.6360   32.1450   36.1690 H   0  0  0  0  0  0  0  0  0  0  0  0
   31.8680   29.6510   35.7230 C   0  0  0  0  0  0  0  0  0  0  0  0
   31.8170   29.7370   37.1220 F   0  0  0  0  0  0  0  0  0  0  0  0
   30.9000   30.4120   35.1460 F   0  0  0  0  0  0  0  0  0  0  0  0
   31.6420   28.3130   35.4470 F   0  0  0  0  0  0  0  0  0  0  0  0
   35.6840   25.9060   31.2370 O   0  0  0  0  0  0  0  0  0  0  0  0
   38.1590   24.2500   33.3880 N   0  0  0  0  0  0  0  0  0  0  0  0
   37.4970   25.2660   32.8140 C   0  0  0  0  0  0  0  0  0  0  0  0
   36.4770   25.0160   31.9280 C   0  0  0  0  0  0  0  0  0  0  0  0
   36.1700   23.6960   31.6590 C   0  0  0  0  0  0  0  0  0  0  0  0
   35.2730   23.2300   30.8920 O   0  0  0  0  0  0  0  0  0  0  0  0
   36.8510   22.6930   32.2460 N   0  0  0  0  0  0  0  0  0  0  0  0
   37.8640   22.9780   33.1280 C   0  0  0  0  0  0  0  0  0  0  0  0
   38.5440   22.0910   33.7200 O   0  0  0  0  0  0  0  0  0  0  0  0
   38.9330   24.5130   34.0610 H   0  0  0  0  0  0  0  0  0  0  0  0
   37.6880   26.3210   32.9810 H   0  0  0  0  0  0  0  0  0  0  0  0
   35.4290   20.6740   32.6090 C   0  0  1  0  0  3  0  0  0  0  0  0
   36.6370   21.2950   32.0520 C   0  0  1  0  0  3  0  0  0  0  0  0
   36.5760   20.9150   30.7210 O   0  0  0  0  0  0  0  0  0  0  0  0
   36.2420   19.5860   30.7320 C   0  0  0  0  0  2  0  0  0  0  0  0
   35.7350   19.2340   32.1370 C   0  0  2  0  0  3  0  0  0  0  0  0
   35.3190   20.7070   33.9930 O   0  0  0  0  0  0  0  0  0  0  0  0
   35.7270   19.8680   34.3340 H   0  0  0  0  0  0  0  0  0  0  0  0
   34.5490   18.4930   32.0560 O   0  0  0  0  0  0  0  0  0  0  0  0
   34.5020   18.0480   31.1730 H   0  0  0  0  0  0  0  0  0  0  0  0
  1  2  1  0  0  0  0
  2  8  1  0  0  0  0
  2  3  2  0  0  0  0
  3  9  1  0  0  0  0
  4  3  1  0  0  0  0
  5  4  2  0  0  0  0
  6  1  2  0  0  0  0
  6  5  1  0  0  0  0
  7  1  1  0  0  0  0
  9 14  2  0  0  0  0
  9 10  1  0  0  0  0
 10 11  2  0  0  0  0
 11 12  1  0  0  0  0
 11 16  1  0  0  0  0
 13 17  1  0  0  0  0
 13 12  2  0  0  0  0
 14 13  1  0  0  0  0
 15 10  1  0  0  0  0
 17 18  1  0  0  0  0
 19 17  1  0  0  0  0
 20 17  1  0  0  0  0
 21  5  1  0  0  0  0
 21 24  1  0  0  0  0
 22 30  1  0  0  0  0
 23 31  1  0  0  0  0
 23 22  1  0  0  0  0
 24 23  2  0  0  0  0
 25 24  1  0  0  0  0
 25 27  1  0  0  0  0
 26 25  2  0  0  0  0
 27 28  1  0  0  0  0
 28 22  1  0  0  0  0
 28 29  2  0  0  0  0
 32 37  1  1  0  0  0
 33 27  1  6  0  0  0
 33 32  1  0  0  0  0
 34 35  1  0  0  0  0
 34 33  1  0  0  0  0
 35 36  1  0  0  0  0
 36 39  1  6  0  0  0
 36 32  1  0  0  0  0
 37 38  1  0  0  0  0
 40 39  1  0  0  0  0
M  END
>  <minimizedAffinity>
-6.6968503

$$$$

 OpenBabel03272502273D

 40 43  0  0  1  0  0  0  0  0999 V2000
   35.9380   25.6070   31.3620 C   0  0  0  0  0  0  0  0  0  0  0  0
   36.7320   24.8710   32.2560 C   0  0  0  0  0  0  0  0  0  0  0  0
   37.5010   25.5780   33.1520 C   0  0  0  0  0  0  0  0  0  0  0  0
   37.4440   26.9170   33.1160 N   0  0  0  0  0  0  0  0  0  0  0  0
   36.6820   27.6130   32.2580 C   0  0  0  0  0  0  0  0  0  0  0  0
   35.9280   26.9570   31.3790 N   0  0  0  0  0  0  0  0  0  0  0  0
   35.3160   25.0940   30.6360 H   0  0  0  0  0  0  0  0  0  0  0  0
   36.7490   23.8070   32.2520 H   0  0  0  0  0  0  0  0  0  0  0  0
   38.3540   24.9430   34.1400 C   0  0  0  0  0  0  0  0  0  0  0  0
   39.6550   24.5550   33.8310 C   0  0  0  0  0  0  0  0  0  0  0  0
   40.4920   23.9650   34.7320 C   0  0  0  0  0  0  0  0  0  0  0  0
   40.0480   23.7400   35.9960 N   0  0  0  0  0  0  0  0  0  0  0  0
   38.8000   24.1160   36.2800 C   0  0  0  0  0  0  0  0  0  0  0  0
   37.9550   24.6990   35.4120 N   0  0  0  0  0  0  0  0  0  0  0  0
   40.0390   24.7210   32.8310 H   0  0  0  0  0  0  0  0  0  0  0  0
   41.5020   23.6740   34.4580 H   0  0  0  0  0  0  0  0  0  0  0  0
   38.2860   23.8830   37.6570 C   0  0  0  0  0  0  0  0  0  0  0  0
   39.2370   23.1050   38.3330 F   0  0  0  0  0  0  0  0  0  0  0  0
   38.0520   25.0530   38.3080 F   0  0  0  0  0  0  0  0  0  0  0  0
   37.1390   23.1070   37.6540 F   0  0  0  0  0  0  0  0  0  0  0  0
   36.7380   29.0010   32.3530 O   0  0  0  0  0  0  0  0  0  0  0  0
   33.8160   31.0410   31.4650 N   0  0  0  0  0  0  0  0  0  0  0  0
   34.9530   30.3560   31.2760 C   0  0  0  0  0  0  0  0  0  0  0  0
   35.5770   29.7420   32.3350 C   0  0  0  0  0  0  0  0  0  0  0  0
   34.9900   29.8590   33.5810 C   0  0  0  0  0  0  0  0  0  0  0  0
   35.3750   29.3760   34.6890 O   0  0  0  0  0  0  0  0  0  0  0  0
   33.8490   30.5560   33.7460 N   0  0  0  0  0  0  0  0  0  0  0  0
   33.2510   31.1560   32.6660 C   0  0  0  0  0  0  0  0  0  0  0  0
   32.1780   31.8220   32.7420 O   0  0  0  0  0  0  0  0  0  0  0  0
   33.3880   31.4890   30.6060 H   0  0  0  0  0  0  0  0  0  0  0  0
   35.4640   30.2250   30.3280 H   0  0  0  0  0  0  0  0  0  0  0  0
   32.6010   29.5920   35.6820 C   0  0  1  0  0  3  0  0  0  0  0  0
   33.1480   30.7560   34.9730 C   0  0  1  0  0  3  0  0  0  0  0  0
   33.9030   31.3720   35.9580 O   0  0  0  0  0  0  0  0  0  0  0  0
   33.1200   31.3620   37.0830 C   0  0  0  0  0  2  0  0  0  0  0  0
   31.9660   30.3770   36.8520 C   0  0  2  0  0  3  0  0  0  0  0  0
   31.6220   28.8790   35.0020 O   0  0  0  0  0  0  0  0  0  0  0  0
   30.7470   29.2650   35.2690 H   0  0  0  0  0  0  0  0  0  0  0  0
   31.8110   29.5390   37.9640 O   0  0  0  0  0  0  0  0  0  0  0  0
   32.1900   29.9840   38.7630 H   0  0  0  0  0  0  0  0  0  0  0  0
  1  6  2  0  0  0  0
  1  2  1  0  0  0  0
  2  3  2  0  0  0  0
  3  9  1  0  0  0  0
  4  3  1  0  0  0  0
  5 21  1  0  0  0  0
  5  4  2  0  0  0  0
  6  5  1  0  0  0  0
  7  1  1  0  0  0  0
  8  2  1  0  0  0  0
  9 14  1  0  0  0  0
 10  9  2  0  0  0  0
 10 11  1  0  0  0  0
 11 12  2  0  0  0  0
 12 13  1  0  0  0  0
 13 17  1  0  0  0  0
 14 13  2  0  0  0  0
 15 10  1  0  0  0  0
 16 11  1  0  0  0  0
 17 19  1  0  0  0  0
 17 18  1  0  0  0  0
 20 17  1  0  0  0  0
 22 28  1  0  0  0  0
 23 22  1  0  0  0  0
 23 24  2  0  0  0  0
 24 21  1  0  0  0  0
 24 25  1  0  0  0  0
 25 27  1  0  0  0  0
 25 26  2  0  0  0  0
 28 29  2  0  0  0  0
 28 27  1  0  0  0  0
 30 22  1  0  0  0  0
 31 23  1  0  0  0  0
 32 37  1  6  0  0  0
 32 36  1  0  0  0  0
 33 27  1  6  0  0  0
 33 32  1  0  0  0  0
 33 34  1  0  0  0  0
 34 35  1  0  0  0  0
 36 35  1  0  0  0  0
 36 39  1  1  0  0  0
 37 38  1  0  0  0  0
 39 40  1  0  0  0  0
M  END
>  <minimizedAffinity>
-6.68367577

$$$$

 OpenBabel03272502273D

 40 43  0  0  1  0  0  0  0  0999 V2000
   37.0460   28.9690   29.8120 C   0  0  0  0  0  0  0  0  0  0  0  0
   36.1070   29.5370   30.6880 C   0  0  0  0  0  0  0  0  0  0  0  0
   36.1570   29.1530   32.0090 C   0  0  0  0  0  0  0  0  0  0  0  0
   37.0940   28.2660   32.3740 N   0  0  0  0  0  0  0  0  0  0  0  0
   37.9880   27.7280   31.5310 C   0  0  0  0  0  0  0  0  0  0  0  0
   37.9640   28.0800   30.2470 N   0  0  0  0  0  0  0  0  0  0  0  0
   37.0450   29.2400   28.7620 H   0  0  0  0  0  0  0  0  0  0  0  0
   35.3780   30.2380   30.3580 H   0  0  0  0  0  0  0  0  0  0  0  0
   35.2570   29.6740   33.0220 C   0  0  0  0  0  0  0  0  0  0  0  0
   33.9110   29.3190   33.0450 C   0  0  0  0  0  0  0  0  0  0  0  0
   33.0340   29.7780   33.9840 C   0  0  0  0  0  0  0  0  0  0  0  0
   33.4840   30.6210   34.9500 N   0  0  0  0  0  0  0  0  0  0  0  0
   34.7750   30.9540   34.9170 C   0  0  0  0  0  0  0  0  0  0  0  0
   35.6590   30.5160   34.0030 N   0  0  0  0  0  0  0  0  0  0  0  0
   33.5210   28.6480   32.2890 H   0  0  0  0  0  0  0  0  0  0  0  0
   31.9900   29.4810   33.9740 H   0  0  0  0  0  0  0  0  0  0  0  0
   35.2960   31.8750   35.9620 C   0  0  0  0  0  0  0  0  0  0  0  0
   36.6680   31.6160   36.1030 F   0  0  0  0  0  0  0  0  0  0  0  0
   35.0700   33.1770   35.6390 F   0  0  0  0  0  0  0  0  0  0  0  0
   34.7590   31.5980   37.2070 F   0  0  0  0  0  0  0  0  0  0  0  0
   38.8950   26.8210   32.0730 O   0  0  0  0  0  0  0  0  0  0  0  0
   37.7040   23.3460   32.0780 N   0  0  0  0  0  0  0  0  0  0  0  0
   38.0680   24.5320   31.5660 C   0  0  0  0  0  0  0  0  0  0  0  0
   38.4860   25.5450   32.3940 C   0  0  0  0  0  0  0  0  0  0  0  0
   38.5150   25.2930   33.7530 C   0  0  0  0  0  0  0  0  0  0  0  0
   38.8690   26.0650   34.6960 O   0  0  0  0  0  0  0  0  0  0  0  0
   38.1410   24.0960   34.2420 N   0  0  0  0  0  0  0  0  0  0  0  0
   37.7310   23.1040   33.3870 C   0  0  0  0  0  0  0  0  0  0  0  0
   37.3700   21.9540   33.7720 O   0  0  0  0  0  0  0  0  0  0  0  0
   37.3930   22.6090   31.3840 H   0  0  0  0  0  0  0  0  0  0  0  0
   38.0690   24.7940   30.5130 H   0  0  0  0  0  0  0  0  0  0  0  0
   39.3690   23.2760   36.2560 C   0  0  1  0  0  3  0  0  0  0  0  0
   38.1210   23.7110   35.6170 C   0  0  1  0  0  3  0  0  0  0  0  0
   37.6840   24.7080   36.4740 O   0  0  0  0  0  0  0  0  0  0  0  0
   37.8530   24.2080   37.7380 C   0  0  0  0  0  2  0  0  0  0  0  0
   38.7640   22.9770   37.6470 C   0  0  2  0  0  3  0  0  0  0  0  0
   39.9450   22.1260   35.7310 O   0  0  0  0  0  0  0  0  0  0  0  0
   39.5870   21.3610   36.2530 H   0  0  0  0  0  0  0  0  0  0  0  0
   39.7630   23.0350   38.6270 O   0  0  0  0  0  0  0  0  0  0  0  0
   39.4580   23.6150   39.3700 H   0  0  0  0  0  0  0  0  0  0  0  0
  1  6  2  0  0  0  0
  1  2  1  0  0  0  0
  2  3  2  0  0  0  0
  3  4  1  0  0  0  0
  3  9  1  0  0  0  0
  5 21  1  0  0  0  0
  5  4  2  0  0  0  0
  6  5  1  0  0  0  0
  7  1  1  0  0  0  0
  8  2  1  0  0  0  0
  9 10  2  0  0  0  0
  9 14  1  0  0  0  0
 10 11  1  0  0  0  0
 11 12  2  0  0  0  0
 13 12  1  0  0  0  0
 13 17  1  0  0  0  0
 14 13  2  0  0  0  0
 15 10  1  0  0  0  0
 16 11  1  0  0  0  0
 17 18  1  0  0  0  0
 17 20  1  0  0  0  0
 19 17  1  0  0  0  0
 21 24  1  0  0  0  0
 22 28  1  0  0  0  0
 23 22  1  0  0  0  0
 23 24  2  0  0  0  0
 24 25  1  0  0  0  0
 25 27  1  0  0  0  0
 25 26  2  0  0  0  0
 28 29  2  0  0  0  0
 28 27  1  0  0  0  0
 30 22  1  0  0  0  0
 31 23  1  0  0  0  0
 32 37  1  6  0  0  0
 32 36  1  0  0  0  0
 33 27  1  6  0  0  0
 33 32  1  0  0  0  0
 33 34  1  0  0  0  0
 34 35  1  0  0  0  0
 36 35  1  0  0  0  0
 36 39  1  1  0  0  0
 37 38  1  0  0  0  0
 39 40  1  0  0  0  0
M  END
>  <minimizedAffinity>
-6.66900539

$$$$

 OpenBabel03272502273D

 40 43  0  0  1  0  0  0  0  0999 V2000
   37.3330   28.6810   29.6980 C   0  0  0  0  0  0  0  0  0  0  0  0
   36.2940   29.2130   30.4780 C   0  0  0  0  0  0  0  0  0  0  0  0
   36.2830   28.9020   31.8180 C   0  0  0  0  0  0  0  0  0  0  0  0
   37.2590   28.1140   32.2920 N   0  0  0  0  0  0  0  0  0  0  0  0
   38.2490   27.6090   31.5400 C   0  0  0  0  0  0  0  0  0  0  0  0
   38.2850   27.8930   30.2400 N   0  0  0  0  0  0  0  0  0  0  0  0
   37.3830   28.8980   28.6360 H   0  0  0  0  0  0  0  0  0  0  0  0
   35.5380   29.8360   30.0630 H   0  0  0  0  0  0  0  0  0  0  0  0
   35.2780   29.3980   32.7410 C   0  0  0  0  0  0  0  0  0  0  0  0
   35.5930   30.3400   33.7170 C   0  0  0  0  0  0  0  0  0  0  0  0
   34.6770   30.8390   34.5960 C   0  0  0  0  0  0  0  0  0  0  0  0
   33.3920   30.4050   34.5260 N   0  0  0  0  0  0  0  0  0  0  0  0
   33.1020   29.5030   33.5870 C   0  0  0  0  0  0  0  0  0  0  0  0
   33.9850   28.9960   32.7090 N   0  0  0  0  0  0  0  0  0  0  0  0
   36.6100   30.7060   33.7980 H   0  0  0  0  0  0  0  0  0  0  0  0
   34.9570   31.5730   35.3460 H   0  0  0  0  0  0  0  0  0  0  0  0
   31.7020   29.0100   33.4860 C   0  0  0  0  0  0  0  0  0  0  0  0
   31.7170   27.8690   32.6700 F   0  0  0  0  0  0  0  0  0  0  0  0
   31.1800   28.7340   34.7110 F   0  0  0  0  0  0  0  0  0  0  0  0
   30.8870   29.9070   32.8170 F   0  0  0  0  0  0  0  0  0  0  0  0
   39.1840   26.8080   32.1890 O   0  0  0  0  0  0  0  0  0  0  0  0
   37.8370   23.4270   32.6870 N   0  0  0  0  0  0  0  0  0  0  0  0
   38.0940   24.5770   32.0470 C   0  0  0  0  0  0  0  0  0  0  0  0
   38.8170   25.5680   32.6660 C   0  0  0  0  0  0  0  0  0  0  0  0
   39.2600   25.3310   33.9530 C   0  0  0  0  0  0  0  0  0  0  0  0
   39.9440   26.0860   34.7100 O   0  0  0  0  0  0  0  0  0  0  0  0
   38.9860   24.1680   34.5760 N   0  0  0  0  0  0  0  0  0  0  0  0
   38.2620   23.1980   33.9280 C   0  0  0  0  0  0  0  0  0  0  0  0
   37.9700   22.0820   34.4470 O   0  0  0  0  0  0  0  0  0  0  0  0
   37.2750   22.7060   32.1520 H   0  0  0  0  0  0  0  0  0  0  0  0
   37.7770   24.8260   31.0400 H   0  0  0  0  0  0  0  0  0  0  0  0
   38.3420   23.5460   36.9070 C   0  0  1  0  0  3  0  0  0  0  0  0
   39.3780   23.8020   35.8990 C   0  0  1  0  0  3  0  0  0  0  0  0
   40.1410   22.6470   35.9600 O   0  0  0  0  0  0  0  0  0  0  0  0
   40.3100   22.3870   37.2940 C   0  0  0  0  0  2  0  0  0  0  0  0
   39.3030   23.2400   38.0790 C   0  0  2  0  0  3  0  0  0  0  0  0
   37.5320   24.6280   37.2270 O   0  0  0  0  0  0  0  0  0  0  0  0
   37.9570   25.0860   37.9980 H   0  0  0  0  0  0  0  0  0  0  0  0
   38.6520   22.4610   39.0430 O   0  0  0  0  0  0  0  0  0  0  0  0
   39.2160   21.6780   39.2670 H   0  0  0  0  0  0  0  0  0  0  0  0
  1  6  2  0  0  0  0
  1  2  1  0  0  0  0
  2  3  2  0  0  0  0
  3  4  1  0  0  0  0
  3  9  1  0  0  0  0
  5 21  1  0  0  0  0
  5  4  2  0  0  0  0
  6  5  1  0  0  0  0
  7  1  1  0  0  0  0
  8  2  1  0  0  0  0
  9 10  1  0  0  0  0
 10 15  1  0  0  0  0
 10 11  2  0  0  0  0
 11 16  1  0  0  0  0
 12 11  1  0  0  0  0
 13 12  2  0  0  0  0
 14  9  2  0  0  0  0
 14 13  1  0  0  0  0
 17 13  1  0  0  0  0
 17 19  1  0  0  0  0
 18 17  1  0  0  0  0
 20 17  1  0  0  0  0
 21 24  1  0  0  0  0
 22 28  1  0  0  0  0
 23 24  2  0  0  0  0
 23 22  1  0  0  0  0
 24 25  1  0  0  0  0
 25 27  1  0  0  0  0
 25 26  2  0  0  0  0
 28 29  2  0  0  0  0
 28 27  1  0  0  0  0
 30 22  1  0  0  0  0
 31 23  1  0  0  0  0
 32 37  1  1  0  0  0
 32 36  1  0  0  0  0
 33 27  1  6  0  0  0
 33 34  1  0  0  0  0
 33 32  1  0  0  0  0
 34 35  1  0  0  0  0
 35 36  1  0  0  0  0
 36 39  1  1  0  0  0
 37 38  1  0  0  0  0
 39 40  1  0  0  0  0
M  END
>  <minimizedAffinity>
-6.62918425

$$$$
