
 OpenBabel03272503313D

 34 36  0  0  1  0  0  0  0  0999 V2000
   36.4830   27.4170   33.4120 C   0  0  0  0  0  0  0  0  0  0  0  0
   36.5410   26.6720   32.2150 C   0  0  0  0  0  0  0  0  0  0  0  0
   37.2550   25.4700   32.2580 C   0  0  0  0  0  0  0  0  0  0  0  0
   37.8380   25.1130   33.4480 N   0  0  0  0  0  0  0  0  0  0  0  0
   37.7540   25.8510   34.5530 C   0  0  0  0  0  0  0  0  0  0  0  0
   37.0770   27.0060   34.5400 N   0  0  0  0  0  0  0  0  0  0  0  0
   36.0660   26.9880   31.2930 H   0  0  0  0  0  0  0  0  0  0  0  0
   37.3440   24.8380   31.3690 H   0  0  0  0  0  0  0  0  0  0  0  0
   35.7460   28.6500   33.3700 N   0  0  0  0  0  0  0  0  0  0  0  0
   35.0890   29.3030   34.4710 C   0  0  0  0  0  0  0  0  0  0  0  0
   35.1400   30.7700   34.0710 C   0  0  2  0  0  0  0  0  0  0  0  0
   35.9440   30.8210   32.7990 C   0  0  0  0  0  0  0  0  0  0  0  0
   35.5210   29.4720   32.2190 C   0  0  0  0  0  0  0  0  0  0  0  0
   35.7290   29.2110   35.3740 H   0  0  0  0  0  0  0  0  0  0  0  0
   34.0790   28.8990   34.5720 H   0  0  0  0  0  0  0  0  0  0  0  0
   34.1050   31.1070   33.8070 H   0  0  0  0  0  0  0  0  0  0  0  0
   37.0230   30.7370   33.0230 H   0  0  0  0  0  0  0  0  0  0  0  0
   35.6660   31.6540   32.1410 H   0  0  0  0  0  0  0  0  0  0  0  0
   34.4610   29.5140   31.9260 H   0  0  0  0  0  0  0  0  0  0  0  0
   36.1640   29.1660   31.3900 H   0  0  0  0  0  0  0  0  0  0  0  0
   35.6950   31.6440   35.1440 C   0  0  0  0  0  0  0  0  0  0  0  0
   36.5410   32.5630   34.5190 F   0  0  0  0  0  0  0  0  0  0  0  0
   36.5170   30.8550   35.9370 F   0  0  0  0  0  0  0  0  0  0  0  0
   34.7460   32.2550   35.9120 F   0  0  0  0  0  0  0  0  0  0  0  0
   38.5310   25.3270   36.0740 S   0  0  0  0  0  0  0  0  0  0  0  0
   38.1810   23.6010   38.0800 C   0  0  2  0  0  3  0  0  0  0  0  0
   37.4540   24.0490   36.8010 C   0  0  2  0  0  3  0  0  0  0  0  0
   37.5860   22.8790   36.0540 O   0  0  0  0  0  0  0  0  0  0  0  0
   38.9420   22.6310   36.0940 C   0  0  0  0  0  2  0  0  0  0  0  0
   39.4790   23.1170   37.4240 C   0  0  2  0  0  3  0  0  0  0  0  0
   37.4690   22.5510   38.6520 O   0  0  0  0  0  0  0  0  0  0  0  0
   37.8980   22.2210   39.4700 H   0  0  0  0  0  0  0  0  0  0  0  0
   40.1220   22.1460   38.1530 O   0  0  0  0  0  0  0  0  0  0  0  0
   40.7130   21.6480   37.5290 H   0  0  0  0  0  0  0  0  0  0  0  0
  1  6  1  0  0  0  0
  2  3  1  0  0  0  0
  2  1  2  0  0  0  0
  3  4  2  0  0  0  0
  4  5  1  0  0  0  0
  5 25  1  0  0  0  0
  6  5  2  0  0  0  0
  7  2  1  0  0  0  0
  8  3  1  0  0  0  0
  9  1  1  0  0  0  0
  9 10  1  0  0  0  0
 10 15  1  0  0  0  0
 10 14  1  0  0  0  0
 11 16  1  6  0  0  0
 11 10  1  0  0  0  0
 11 21  1  0  0  0  0
 12 17  1  0  0  0  0
 12 11  1  0  0  0  0
 13 12  1  0  0  0  0
 13  9  1  0  0  0  0
 18 12  1  0  0  0  0
 19 13  1  0  0  0  0
 20 13  1  0  0  0  0
 21 24  1  0  0  0  0
 21 23  1  0  0  0  0
 22 21  1  0  0  0  0
 26 31  1  6  0  0  0
 27 25  1  6  0  0  0
 27 26  1  0  0  0  0
 28 29  1  0  0  0  0
 28 27  1  0  0  0  0
 29 30  1  0  0  0  0
 30 26  1  0  0  0  0
 30 33  1  1  0  0  0
 31 32  1  0  0  0  0
 34 33  1  0  0  0  0
M  END
>  <minimizedAffinity>
-6.08363199

$$$$

 OpenBabel03272503313D

 34 36  0  0  1  0  0  0  0  0999 V2000
   36.1060   29.2950   32.1480 C   0  0  0  0  0  0  0  0  0  0  0  0
   36.2340   29.3350   30.7440 C   0  0  0  0  0  0  0  0  0  0  0  0
   36.7580   28.1930   30.1300 C   0  0  0  0  0  0  0  0  0  0  0  0
   37.1030   27.1340   30.9310 N   0  0  0  0  0  0  0  0  0  0  0  0
   36.9610   27.1440   32.2550 C   0  0  0  0  0  0  0  0  0  0  0  0
   36.4630   28.2240   32.8700 N   0  0  0  0  0  0  0  0  0  0  0  0
   35.9500   30.1920   30.1440 H   0  0  0  0  0  0  0  0  0  0  0  0
   36.8880   28.1490   29.0430 H   0  0  0  0  0  0  0  0  0  0  0  0
   35.5630   30.4660   32.7810 N   0  0  0  0  0  0  0  0  0  0  0  0
   35.0650   30.5710   34.1270 C   0  0  0  0  0  0  0  0  0  0  0  0
   35.3200   32.0320   34.4670 C   0  0  2  0  0  0  0  0  0  0  0  0
   36.0610   32.6050   33.2880 C   0  0  0  0  0  0  0  0  0  0  0  0
   35.4120   31.7620   32.1910 C   0  0  0  0  0  0  0  0  0  0  0  0
   35.7260   29.9820   34.7980 H   0  0  0  0  0  0  0  0  0  0  0  0
   34.0120   30.2830   34.1390 H   0  0  0  0  0  0  0  0  0  0  0  0
   34.3360   32.5670   34.5140 H   0  0  0  0  0  0  0  0  0  0  0  0
   37.1250   32.3040   33.3200 H   0  0  0  0  0  0  0  0  0  0  0  0
   35.8830   33.6770   33.1400 H   0  0  0  0  0  0  0  0  0  0  0  0
   34.3580   32.0580   32.0760 H   0  0  0  0  0  0  0  0  0  0  0  0
   35.9610   31.8280   31.2490 H   0  0  0  0  0  0  0  0  0  0  0  0
   36.0510   32.2080   35.7540 C   0  0  0  0  0  0  0  0  0  0  0  0
   36.6160   30.9700   36.0700 F   0  0  0  0  0  0  0  0  0  0  0  0
   35.1030   32.4510   36.7380 F   0  0  0  0  0  0  0  0  0  0  0  0
   36.9780   33.2090   35.7370 F   0  0  0  0  0  0  0  0  0  0  0  0
   37.4240   25.7300   33.2450 S   0  0  0  0  0  0  0  0  0  0  0  0
   38.6320   27.2780   35.0530 C   0  0  2  0  0  3  0  0  0  0  0  0
   37.4570   26.2900   34.9790 C   0  0  2  0  0  3  0  0  0  0  0  0
   37.9820   25.2660   35.7670 O   0  0  0  0  0  0  0  0  0  0  0  0
   39.2060   25.0160   35.1820 C   0  0  0  0  0  2  0  0  0  0  0  0
   39.7430   26.3150   34.6190 C   0  0  2  0  0  3  0  0  0  0  0  0
   38.7900   27.6850   36.3740 O   0  0  0  0  0  0  0  0  0  0  0  0
   39.5360   28.3130   36.4780 H   0  0  0  0  0  0  0  0  0  0  0  0
   40.9800   26.6640   35.1050 O   0  0  0  0  0  0  0  0  0  0  0  0
   41.5440   25.8470   35.0970 H   0  0  0  0  0  0  0  0  0  0  0  0
  1  9  1  0  0  0  0
  1  6  1  0  0  0  0
  2  1  2  0  0  0  0
  3  2  1  0  0  0  0
  3  4  2  0  0  0  0
  4  5  1  0  0  0  0
  5  6  2  0  0  0  0
  5 25  1  0  0  0  0
  7  2  1  0  0  0  0
  8  3  1  0  0  0  0
  9 10  1  0  0  0  0
 10 15  1  0  0  0  0
 10 11  1  0  0  0  0
 10 14  1  0  0  0  0
 11 16  1  1  0  0  0
 11 21  1  0  0  0  0
 12 17  1  0  0  0  0
 12 11  1  0  0  0  0
 13  9  1  0  0  0  0
 13 12  1  0  0  0  0
 18 12  1  0  0  0  0
 19 13  1  0  0  0  0
 20 13  1  0  0  0  0
 21 22  1  0  0  0  0
 21 23  1  0  0  0  0
 24 21  1  0  0  0  0
 26 31  1  1  0  0  0
 27 25  1  6  0  0  0
 27 26  1  0  0  0  0
 27 28  1  0  0  0  0
 29 28  1  0  0  0  0
 30 26  1  0  0  0  0
 30 33  1  1  0  0  0
 30 29  1  0  0  0  0
 31 32  1  0  0  0  0
 34 33  1  0  0  0  0
M  END
>  <minimizedAffinity>
-5.93119383

$$$$

 OpenBabel03272503313D

 34 36  0  0  1  0  0  0  0  0999 V2000
   36.4820   27.3890   33.4670 C   0  0  0  0  0  0  0  0  0  0  0  0
   36.5120   26.6510   32.2660 C   0  0  0  0  0  0  0  0  0  0  0  0
   37.2220   25.4460   32.2880 C   0  0  0  0  0  0  0  0  0  0  0  0
   37.8280   25.0800   33.4630 N   0  0  0  0  0  0  0  0  0  0  0  0
   37.7700   25.8120   34.5740 C   0  0  0  0  0  0  0  0  0  0  0  0
   37.0970   26.9700   34.5810 N   0  0  0  0  0  0  0  0  0  0  0  0
   36.0200   26.9730   31.3550 H   0  0  0  0  0  0  0  0  0  0  0  0
   37.2910   24.8180   31.3930 H   0  0  0  0  0  0  0  0  0  0  0  0
   35.7480   28.6250   33.4470 N   0  0  0  0  0  0  0  0  0  0  0  0
   34.8380   29.0740   32.4270 C   0  0  0  0  0  0  0  0  0  0  0  0
   33.8760   29.9620   33.2030 C   0  0  2  0  0  0  0  0  0  0  0  0
   34.2770   29.8380   34.6480 C   0  0  0  0  0  0  0  0  0  0  0  0
   35.7800   29.6530   34.4430 C   0  0  0  0  0  0  0  0  0  0  0  0
   34.2380   28.2070   32.0780 H   0  0  0  0  0  0  0  0  0  0  0  0
   35.4040   29.5940   31.6500 H   0  0  0  0  0  0  0  0  0  0  0  0
   34.0580   31.0290   32.9130 H   0  0  0  0  0  0  0  0  0  0  0  0
   33.9030   28.8870   35.0700 H   0  0  0  0  0  0  0  0  0  0  0  0
   34.0520   30.7330   35.2420 H   0  0  0  0  0  0  0  0  0  0  0  0
   36.2190   30.5920   34.0730 H   0  0  0  0  0  0  0  0  0  0  0  0
   36.2740   29.3010   35.3510 H   0  0  0  0  0  0  0  0  0  0  0  0
   32.4470   29.6140   32.9640 C   0  0  0  0  0  0  0  0  0  0  0  0
   31.9740   30.4930   31.9870 F   0  0  0  0  0  0  0  0  0  0  0  0
   31.7450   29.9260   34.1210 F   0  0  0  0  0  0  0  0  0  0  0  0
   32.2390   28.3080   32.6270 F   0  0  0  0  0  0  0  0  0  0  0  0
   38.5760   25.2780   36.0760 S   0  0  0  0  0  0  0  0  0  0  0  0
   38.2390   23.5720   38.1020 C   0  0  2  0  0  3  0  0  0  0  0  0
   37.4920   24.0260   36.8380 C   0  0  2  0  0  3  0  0  0  0  0  0
   37.5820   22.8490   36.0960 O   0  0  0  0  0  0  0  0  0  0  0  0
   38.9340   22.5740   36.1060 C   0  0  0  0  0  2  0  0  0  0  0  0
   39.5120   23.0580   37.4190 C   0  0  2  0  0  3  0  0  0  0  0  0
   37.5210   22.5410   38.6980 O   0  0  0  0  0  0  0  0  0  0  0  0
   37.9620   22.2080   39.5090 H   0  0  0  0  0  0  0  0  0  0  0  0
   40.1530   22.0800   38.1410 O   0  0  0  0  0  0  0  0  0  0  0  0
   40.7190   21.5660   37.5060 H   0  0  0  0  0  0  0  0  0  0  0  0
  1  6  1  0  0  0  0
  2  3  1  0  0  0  0
  2  1  2  0  0  0  0
  3  4  2  0  0  0  0
  4  5  1  0  0  0  0
  5  6  2  0  0  0  0
  5 25  1  0  0  0  0
  7  2  1  0  0  0  0
  8  3  1  0  0  0  0
  9  1  1  0  0  0  0
  9 13  1  0  0  0  0
 10 11  1  0  0  0  0
 10  9  1  0  0  0  0
 11 16  1  6  0  0  0
 11 12  1  0  0  0  0
 12 17  1  0  0  0  0
 12 18  1  0  0  0  0
 13 12  1  0  0  0  0
 13 20  1  0  0  0  0
 14 10  1  0  0  0  0
 15 10  1  0  0  0  0
 19 13  1  0  0  0  0
 21 11  1  0  0  0  0
 21 23  1  0  0  0  0
 22 21  1  0  0  0  0
 24 21  1  0  0  0  0
 26 31  1  6  0  0  0
 27 25  1  6  0  0  0
 27 26  1  0  0  0  0
 28 29  1  0  0  0  0
 28 27  1  0  0  0  0
 29 30  1  0  0  0  0
 30 26  1  0  0  0  0
 30 33  1  1  0  0  0
 31 32  1  0  0  0  0
 34 33  1  0  0  0  0
M  END
>  <minimizedAffinity>
-5.89314699

$$$$

 OpenBabel03272503313D

 34 36  0  0  1  0  0  0  0  0999 V2000
   37.0870   24.1510   32.4270 C   0  0  0  0  0  0  0  0  0  0  0  0
   36.6140   25.4180   32.0270 C   0  0  0  0  0  0  0  0  0  0  0  0
   36.9350   26.4970   32.8570 C   0  0  0  0  0  0  0  0  0  0  0  0
   37.6770   26.2420   33.9830 N   0  0  0  0  0  0  0  0  0  0  0  0
   38.1020   25.0250   34.3170 C   0  0  0  0  0  0  0  0  0  0  0  0
   37.8090   23.9740   33.5410 N   0  0  0  0  0  0  0  0  0  0  0  0
   36.0290   25.5810   31.1290 H   0  0  0  0  0  0  0  0  0  0  0  0
   36.6030   27.5120   32.6140 H   0  0  0  0  0  0  0  0  0  0  0  0
   36.7620   23.0420   31.5720 N   0  0  0  0  0  0  0  0  0  0  0  0
   37.6530   22.0040   31.1230 C   0  0  0  0  0  0  0  0  0  0  0  0
   36.7170   20.8210   30.9230 C   0  0  2  0  0  0  0  0  0  0  0  0
   35.3650   21.2810   31.3980 C   0  0  0  0  0  0  0  0  0  0  0  0
   35.4820   22.7520   30.9990 C   0  0  0  0  0  0  0  0  0  0  0  0
   38.3240   21.7240   31.9620 H   0  0  0  0  0  0  0  0  0  0  0  0
   38.1570   22.3390   30.2130 H   0  0  0  0  0  0  0  0  0  0  0  0
   36.6180   20.6240   29.8240 H   0  0  0  0  0  0  0  0  0  0  0  0
   35.3200   21.2630   32.5030 H   0  0  0  0  0  0  0  0  0  0  0  0
   34.5310   20.7840   30.8880 H   0  0  0  0  0  0  0  0  0  0  0  0
   35.4770   22.8360   29.9020 H   0  0  0  0  0  0  0  0  0  0  0  0
   34.7010   23.3610   31.4610 H   0  0  0  0  0  0  0  0  0  0  0  0
   37.1880   19.5880   31.6150 C   0  0  0  0  0  0  0  0  0  0  0  0
   38.5040   19.8280   32.0180 F   0  0  0  0  0  0  0  0  0  0  0  0
   37.2640   18.5820   30.6620 F   0  0  0  0  0  0  0  0  0  0  0  0
   36.3940   19.1930   32.6530 F   0  0  0  0  0  0  0  0  0  0  0  0
   39.0700   24.7580   35.7950 S   0  0  0  0  0  0  0  0  0  0  0  0
   38.9770   23.3860   38.0830 C   0  0  2  0  0  3  0  0  0  0  0  0
   38.0380   23.7730   36.9280 C   0  0  2  0  0  3  0  0  0  0  0  0
   37.8460   22.5090   36.3710 O   0  0  0  0  0  0  0  0  0  0  0  0
   39.1330   22.0570   36.1670 C   0  0  0  0  0  2  0  0  0  0  0  0
   40.0180   22.6210   37.2580 C   0  0  2  0  0  3  0  0  0  0  0  0
   38.2900   22.5460   38.9540 O   0  0  0  0  0  0  0  0  0  0  0  0
   38.8500   22.2620   39.7070 H   0  0  0  0  0  0  0  0  0  0  0  0
   40.6850   21.6630   37.9850 O   0  0  0  0  0  0  0  0  0  0  0  0
   41.0480   21.0020   37.3410 H   0  0  0  0  0  0  0  0  0  0  0  0
  1  6  1  0  0  0  0
  2  1  2  0  0  0  0
  2  3  1  0  0  0  0
  3  4  2  0  0  0  0
  4  5  1  0  0  0  0
  5 25  1  0  0  0  0
  6  5  2  0  0  0  0
  7  2  1  0  0  0  0
  8  3  1  0  0  0  0
  9  1  1  0  0  0  0
 10  9  1  0  0  0  0
 10 14  1  0  0  0  0
 11 16  1  6  0  0  0
 11 10  1  0  0  0  0
 11 12  1  0  0  0  0
 11 21  1  0  0  0  0
 12 17  1  0  0  0  0
 13 12  1  0  0  0  0
 13 20  1  0  0  0  0
 13  9  1  0  0  0  0
 15 10  1  0  0  0  0
 18 12  1  0  0  0  0
 19 13  1  0  0  0  0
 21 22  1  0  0  0  0
 21 24  1  0  0  0  0
 23 21  1  0  0  0  0
 26 31  1  1  0  0  0
 27 25  1  6  0  0  0
 27 26  1  0  0  0  0
 28 27  1  0  0  0  0
 29 28  1  0  0  0  0
 29 30  1  0  0  0  0
 30 33  1  1  0  0  0
 30 26  1  0  0  0  0
 31 32  1  0  0  0  0
 34 33  1  0  0  0  0
M  END
>  <minimizedAffinity>
-5.87828779

$$$$

 OpenBabel03272503313D

 34 36  0  0  1  0  0  0  0  0999 V2000
   36.8970   27.7380   33.2130 C   0  0  0  0  0  0  0  0  0  0  0  0
   37.3240   27.4050   31.9110 C   0  0  0  0  0  0  0  0  0  0  0  0
   38.2240   26.3400   31.8000 C   0  0  0  0  0  0  0  0  0  0  0  0
   38.6180   25.7090   32.9530 N   0  0  0  0  0  0  0  0  0  0  0  0
   38.1840   26.0610   34.1620 C   0  0  0  0  0  0  0  0  0  0  0  0
   37.3220   27.0770   34.2980 N   0  0  0  0  0  0  0  0  0  0  0  0
   36.9910   27.9280   31.0220 H   0  0  0  0  0  0  0  0  0  0  0  0
   38.6020   26.0230   30.8220 H   0  0  0  0  0  0  0  0  0  0  0  0
   35.9680   28.8290   33.3280 N   0  0  0  0  0  0  0  0  0  0  0  0
   35.2710   29.2500   34.5150 C   0  0  0  0  0  0  0  0  0  0  0  0
   35.0640   30.7380   34.2720 C   0  0  2  0  0  0  0  0  0  0  0  0
   35.7830   31.0490   32.9870 C   0  0  0  0  0  0  0  0  0  0  0  0
   35.5560   29.7140   32.2800 C   0  0  0  0  0  0  0  0  0  0  0  0
   35.9620   29.1760   35.3800 H   0  0  0  0  0  0  0  0  0  0  0  0
   34.3460   28.6760   34.6050 H   0  0  0  0  0  0  0  0  0  0  0  0
   33.9750   30.9230   34.0800 H   0  0  0  0  0  0  0  0  0  0  0  0
   36.8720   31.1240   33.1650 H   0  0  0  0  0  0  0  0  0  0  0  0
   35.3420   31.8860   32.4320 H   0  0  0  0  0  0  0  0  0  0  0  0
   34.4900   29.6080   32.0280 H   0  0  0  0  0  0  0  0  0  0  0  0
   36.1970   29.6040   31.4030 H   0  0  0  0  0  0  0  0  0  0  0  0
   35.5230   31.5800   35.4130 C   0  0  0  0  0  0  0  0  0  0  0  0
   36.0750   32.7390   34.8640 F   0  0  0  0  0  0  0  0  0  0  0  0
   36.5770   30.9130   36.0230 F   0  0  0  0  0  0  0  0  0  0  0  0
   34.5500   31.8570   36.3300 F   0  0  0  0  0  0  0  0  0  0  0  0
   38.7290   25.1960   35.6270 S   0  0  0  0  0  0  0  0  0  0  0  0
   37.4770   23.1510   36.8010 C   0  0  2  0  0  3  0  0  0  0  0  0
   38.1600   23.4720   35.4620 C   0  0  2  0  0  3  0  0  0  0  0  0
   39.2630   22.6270   35.5720 O   0  0  0  0  0  0  0  0  0  0  0  0
   39.8070   22.9760   36.7900 C   0  0  0  0  0  2  0  0  0  0  0  0
   38.6830   23.3940   37.7150 C   0  0  2  0  0  3  0  0  0  0  0  0
   37.0930   21.8140   36.7960 O   0  0  0  0  0  0  0  0  0  0  0  0
   36.6580   21.5550   37.6360 H   0  0  0  0  0  0  0  0  0  0  0  0
   38.6270   22.6740   38.8840 O   0  0  0  0  0  0  0  0  0  0  0  0
   39.5540   22.5980   39.2300 H   0  0  0  0  0  0  0  0  0  0  0  0
  1  9  1  0  0  0  0
  1  6  1  0  0  0  0
  2  1  2  0  0  0  0
  3  2  1  0  0  0  0
  3  4  2  0  0  0  0
  4  5  1  0  0  0  0
  5  6  2  0  0  0  0
  5 25  1  0  0  0  0
  7  2  1  0  0  0  0
  8  3  1  0  0  0  0
  9 10  1  0  0  0  0
 10 15  1  0  0  0  0
 10 14  1  0  0  0  0
 11 16  1  6  0  0  0
 11 10  1  0  0  0  0
 11 21  1  0  0  0  0
 12 17  1  0  0  0  0
 12 11  1  0  0  0  0
 13 12  1  0  0  0  0
 13  9  1  0  0  0  0
 18 12  1  0  0  0  0
 19 13  1  0  0  0  0
 20 13  1  0  0  0  0
 21 23  1  0  0  0  0
 21 24  1  0  0  0  0
 22 21  1  0  0  0  0
 26 31  1  6  0  0  0
 26 30  1  0  0  0  0
 27 28  1  0  0  0  0
 27 25  1  1  0  0  0
 27 26  1  0  0  0  0
 28 29  1  0  0  0  0
 29 30  1  0  0  0  0
 30 33  1  1  0  0  0
 31 32  1  0  0  0  0
 33 34  1  0  0  0  0
M  END
>  <minimizedAffinity>
-5.85975981

$$$$

 OpenBabel03272503313D

 34 36  0  0  1  0  0  0  0  0999 V2000
   37.4250   26.8850   33.6970 C   0  0  0  0  0  0  0  0  0  0  0  0
   37.4830   26.8270   32.2890 C   0  0  0  0  0  0  0  0  0  0  0  0
   36.6740   27.7300   31.5910 C   0  0  0  0  0  0  0  0  0  0  0  0
   35.8960   28.5920   32.3210 N   0  0  0  0  0  0  0  0  0  0  0  0
   35.8770   28.6090   33.6520 C   0  0  0  0  0  0  0  0  0  0  0  0
   36.6410   27.7560   34.3470 N   0  0  0  0  0  0  0  0  0  0  0  0
   38.1120   26.1300   31.7460 H   0  0  0  0  0  0  0  0  0  0  0  0
   36.6650   27.7440   30.4960 H   0  0  0  0  0  0  0  0  0  0  0  0
   38.2590   25.9610   34.4160 N   0  0  0  0  0  0  0  0  0  0  0  0
   38.6760   26.0600   35.7910 C   0  0  0  0  0  0  0  0  0  0  0  0
   38.8610   24.6040   36.1910 C   0  0  2  0  0  0  0  0  0  0  0  0
   38.4110   23.7910   35.0060 C   0  0  0  0  0  0  0  0  0  0  0  0
   38.8400   24.7570   33.9030 C   0  0  0  0  0  0  0  0  0  0  0  0
   37.8230   26.4360   36.3950 H   0  0  0  0  0  0  0  0  0  0  0  0
   39.5870   26.6610   35.8430 H   0  0  0  0  0  0  0  0  0  0  0  0
   39.9560   24.4020   36.3170 H   0  0  0  0  0  0  0  0  0  0  0  0
   37.3070   23.7480   34.9680 H   0  0  0  0  0  0  0  0  0  0  0  0
   38.9200   22.8230   34.9230 H   0  0  0  0  0  0  0  0  0  0  0  0
   39.9390   24.8000   33.8580 H   0  0  0  0  0  0  0  0  0  0  0  0
   38.4010   24.4940   32.9380 H   0  0  0  0  0  0  0  0  0  0  0  0
   38.1380   24.2520   37.4450 C   0  0  0  0  0  0  0  0  0  0  0  0
   38.8170   23.1720   38.0140 F   0  0  0  0  0  0  0  0  0  0  0  0
   36.8900   23.7630   37.0810 F   0  0  0  0  0  0  0  0  0  0  0  0
   37.9980   25.2910   38.3190 F   0  0  0  0  0  0  0  0  0  0  0  0
   34.8450   29.7610   34.5470 S   0  0  0  0  0  0  0  0  0  0  0  0
   36.1820   31.7700   35.6890 C   0  0  2  0  0  3  0  0  0  0  0  0
   35.5820   31.4120   34.3200 C   0  0  2  0  0  3  0  0  0  0  0  0
   34.5550   32.3550   34.2780 O   0  0  0  0  0  0  0  0  0  0  0  0
   33.8860   32.1430   35.4650 C   0  0  0  0  0  2  0  0  0  0  0  0
   34.8880   31.6990   36.5090 C   0  0  2  0  0  3  0  0  0  0  0  0
   36.6860   33.0650   35.6310 O   0  0  0  0  0  0  0  0  0  0  0  0
   37.0740   33.3460   36.4860 H   0  0  0  0  0  0  0  0  0  0  0  0
   34.9160   32.4950   37.6290 O   0  0  0  0  0  0  0  0  0  0  0  0
   33.9750   32.6760   37.8880 H   0  0  0  0  0  0  0  0  0  0  0  0
  1  6  1  0  0  0  0
  1  9  1  0  0  0  0
  2  1  2  0  0  0  0
  3  2  1  0  0  0  0
  3  4  2  0  0  0  0
  4  5  1  0  0  0  0
  5  6  2  0  0  0  0
  5 25  1  0  0  0  0
  7  2  1  0  0  0  0
  8  3  1  0  0  0  0
  9 10  1  0  0  0  0
 10 15  1  0  0  0  0
 10 11  1  0  0  0  0
 10 14  1  0  0  0  0
 11 16  1  1  0  0  0
 11 21  1  0  0  0  0
 12 11  1  0  0  0  0
 13  9  1  0  0  0  0
 13 12  1  0  0  0  0
 17 12  1  0  0  0  0
 18 12  1  0  0  0  0
 19 13  1  0  0  0  0
 20 13  1  0  0  0  0
 21 22  1  0  0  0  0
 21 24  1  0  0  0  0
 23 21  1  0  0  0  0
 26 31  1  6  0  0  0
 26 30  1  0  0  0  0
 27 25  1  1  0  0  0
 27 26  1  0  0  0  0
 28 27  1  0  0  0  0
 28 29  1  0  0  0  0
 29 30  1  0  0  0  0
 30 33  1  1  0  0  0
 31 32  1  0  0  0  0
 33 34  1  0  0  0  0
M  END
>  <minimizedAffinity>
-5.69034052

$$$$

 OpenBabel03272503313D

 34 36  0  0  1  0  0  0  0  0999 V2000
   37.7560   27.1950   32.5750 C   0  0  0  0  0  0  0  0  0  0  0  0
   36.7480   27.9850   33.1640 C   0  0  0  0  0  0  0  0  0  0  0  0
   36.4840   27.7580   34.5180 C   0  0  0  0  0  0  0  0  0  0  0  0
   37.2180   26.7940   35.1620 N   0  0  0  0  0  0  0  0  0  0  0  0
   38.1630   26.0730   34.5610 C   0  0  0  0  0  0  0  0  0  0  0  0
   38.4360   26.2700   33.2650 N   0  0  0  0  0  0  0  0  0  0  0  0
   36.1880   28.7390   32.6210 H   0  0  0  0  0  0  0  0  0  0  0  0
   35.7140   28.3320   35.0450 H   0  0  0  0  0  0  0  0  0  0  0  0
   38.0320   27.4310   31.1840 N   0  0  0  0  0  0  0  0  0  0  0  0
   37.2290   28.1870   30.2590 C   0  0  0  0  0  0  0  0  0  0  0  0
   38.2590   28.7050   29.2660 C   0  0  2  0  0  0  0  0  0  0  0  0
   39.5990   28.2750   29.8010 C   0  0  0  0  0  0  0  0  0  0  0  0
   39.1650   26.9590   30.4450 C   0  0  0  0  0  0  0  0  0  0  0  0
   36.8320   29.0830   30.7810 H   0  0  0  0  0  0  0  0  0  0  0  0
   36.4750   27.5280   29.8220 H   0  0  0  0  0  0  0  0  0  0  0  0
   38.1200   28.1700   28.2910 H   0  0  0  0  0  0  0  0  0  0  0  0
   39.9120   28.9370   30.6290 H   0  0  0  0  0  0  0  0  0  0  0  0
   40.3520   28.1190   29.0180 H   0  0  0  0  0  0  0  0  0  0  0  0
   38.8910   26.2380   29.6600 H   0  0  0  0  0  0  0  0  0  0  0  0
   39.9300   26.5640   31.1170 H   0  0  0  0  0  0  0  0  0  0  0  0
   38.1650   30.1770   29.0490 C   0  0  0  0  0  0  0  0  0  0  0  0
   37.2190   30.3780   28.0420 F   0  0  0  0  0  0  0  0  0  0  0  0
   39.3770   30.5960   28.5160 F   0  0  0  0  0  0  0  0  0  0  0  0
   37.8770   30.8900   30.1770 F   0  0  0  0  0  0  0  0  0  0  0  0
   39.0900   24.8350   35.4550 S   0  0  0  0  0  0  0  0  0  0  0  0
   38.5820   23.5240   37.7250 C   0  0  2  0  0  3  0  0  0  0  0  0
   37.8790   23.8510   36.3980 C   0  0  2  0  0  3  0  0  0  0  0  0
   37.8290   22.5680   35.8560 O   0  0  0  0  0  0  0  0  0  0  0  0
   39.1410   22.1480   35.9220 C   0  0  0  0  0  2  0  0  0  0  0  0
   39.7820   22.7670   37.1450 C   0  0  2  0  0  3  0  0  0  0  0  0
   37.7570   22.6890   38.4730 O   0  0  0  0  0  0  0  0  0  0  0  0
   38.1660   22.4430   39.3300 H   0  0  0  0  0  0  0  0  0  0  0  0
   40.3150   21.8510   38.0200 O   0  0  0  0  0  0  0  0  0  0  0  0
   40.8140   21.1820   37.4810 H   0  0  0  0  0  0  0  0  0  0  0  0
  1  2  2  0  0  0  0
  1  6  1  0  0  0  0
  2  3  1  0  0  0  0
  3  8  1  0  0  0  0
  3  4  2  0  0  0  0
  5  4  1  0  0  0  0
  5 25  1  0  0  0  0
  6  5  2  0  0  0  0
  7  2  1  0  0  0  0
  9  1  1  0  0  0  0
 10 14  1  0  0  0  0
 10  9  1  0  0  0  0
 11 16  1  6  0  0  0
 11 12  1  0  0  0  0
 11 10  1  0  0  0  0
 12 13  1  0  0  0  0
 12 17  1  0  0  0  0
 13 20  1  0  0  0  0
 13  9  1  0  0  0  0
 15 10  1  0  0  0  0
 18 12  1  0  0  0  0
 19 13  1  0  0  0  0
 21 11  1  0  0  0  0
 21 24  1  0  0  0  0
 22 21  1  0  0  0  0
 23 21  1  0  0  0  0
 26 31  1  1  0  0  0
 27 25  1  6  0  0  0
 27 26  1  0  0  0  0
 28 29  1  0  0  0  0
 28 27  1  0  0  0  0
 29 30  1  0  0  0  0
 30 26  1  0  0  0  0
 30 33  1  1  0  0  0
 31 32  1  0  0  0  0
 34 33  1  0  0  0  0
M  END
>  <minimizedAffinity>
-5.51161957

$$$$

 OpenBabel03272503313D

 34 36  0  0  1  0  0  0  0  0999 V2000
   36.9980   26.2040   33.2530 C   0  0  0  0  0  0  0  0  0  0  0  0
   36.6880   27.5790   33.2160 C   0  0  0  0  0  0  0  0  0  0  0  0
   36.9690   28.3160   34.3710 C   0  0  0  0  0  0  0  0  0  0  0  0
   37.5180   27.6520   35.4380 N   0  0  0  0  0  0  0  0  0  0  0  0
   37.7950   26.3500   35.4230 C   0  0  0  0  0  0  0  0  0  0  0  0
   37.5360   25.6200   34.3310 N   0  0  0  0  0  0  0  0  0  0  0  0
   36.2530   28.0690   32.3520 H   0  0  0  0  0  0  0  0  0  0  0  0
   36.7550   29.3890   34.4180 H   0  0  0  0  0  0  0  0  0  0  0  0
   36.7150   25.4460   32.0650 N   0  0  0  0  0  0  0  0  0  0  0  0
   37.4410   24.3050   31.5710 C   0  0  0  0  0  0  0  0  0  0  0  0
   36.3720   23.5260   30.8190 C   0  0  2  0  0  0  0  0  0  0  0  0
   35.0810   24.2630   31.0590 C   0  0  0  0  0  0  0  0  0  0  0  0
   35.6490   25.6790   31.1370 C   0  0  0  0  0  0  0  0  0  0  0  0
   37.7320   23.6680   32.4330 H   0  0  0  0  0  0  0  0  0  0  0  0
   38.2670   24.6540   30.9480 H   0  0  0  0  0  0  0  0  0  0  0  0
   36.5800   23.6000   29.7200 H   0  0  0  0  0  0  0  0  0  0  0  0
   34.6880   24.0300   32.0660 H   0  0  0  0  0  0  0  0  0  0  0  0
   34.3590   24.1550   30.2400 H   0  0  0  0  0  0  0  0  0  0  0  0
   36.0080   25.9870   30.1430 H   0  0  0  0  0  0  0  0  0  0  0  0
   34.9230   26.3860   31.5470 H   0  0  0  0  0  0  0  0  0  0  0  0
   36.3080   22.0930   31.2240 C   0  0  0  0  0  0  0  0  0  0  0  0
   37.2980   21.4240   30.5010 F   0  0  0  0  0  0  0  0  0  0  0  0
   35.1000   21.5870   30.7640 F   0  0  0  0  0  0  0  0  0  0  0  0
   36.4230   21.8870   32.5680 F   0  0  0  0  0  0  0  0  0  0  0  0
   38.5170   25.5430   36.8450 S   0  0  0  0  0  0  0  0  0  0  0  0
   37.6700   23.0170   36.6680 C   0  0  2  0  0  3  0  0  0  0  0  0
   38.9240   23.8420   36.3330 C   0  0  2  0  0  3  0  0  0  0  0  0
   39.8010   23.2930   37.2680 O   0  0  0  0  0  0  0  0  0  0  0  0
   39.1160   23.4260   38.4580 C   0  0  0  0  0  2  0  0  0  0  0  0
   37.6350   23.2930   38.1750 C   0  0  2  0  0  3  0  0  0  0  0  0
   37.9310   21.6780   36.3940 O   0  0  0  0  0  0  0  0  0  0  0  0
   37.1610   21.1050   36.6000 H   0  0  0  0  0  0  0  0  0  0  0  0
   37.0180   22.2950   38.8920 O   0  0  0  0  0  0  0  0  0  0  0  0
   37.3430   22.3580   39.8280 H   0  0  0  0  0  0  0  0  0  0  0  0
  1  6  1  0  0  0  0
  2  1  2  0  0  0  0
  2  3  1  0  0  0  0
  3  8  1  0  0  0  0
  3  4  2  0  0  0  0
  5  4  1  0  0  0  0
  5 25  1  0  0  0  0
  6  5  2  0  0  0  0
  7  2  1  0  0  0  0
  9  1  1  0  0  0  0
 10  9  1  0  0  0  0
 10 14  1  0  0  0  0
 11 16  1  6  0  0  0
 11 12  1  0  0  0  0
 11 21  1  0  0  0  0
 11 10  1  0  0  0  0
 12 13  1  0  0  0  0
 12 17  1  0  0  0  0
 13 20  1  0  0  0  0
 13  9  1  0  0  0  0
 15 10  1  0  0  0  0
 18 12  1  0  0  0  0
 19 13  1  0  0  0  0
 21 24  1  0  0  0  0
 22 21  1  0  0  0  0
 23 21  1  0  0  0  0
 26 31  1  1  0  0  0
 26 30  1  0  0  0  0
 27 26  1  0  0  0  0
 27 25  1  1  0  0  0
 27 28  1  0  0  0  0
 28 29  1  0  0  0  0
 30 29  1  0  0  0  0
 30 33  1  1  0  0  0
 31 32  1  0  0  0  0
 33 34  1  0  0  0  0
M  END
>  <minimizedAffinity>
-5.51012659

$$$$

 OpenBabel03272503313D

 34 36  0  0  1  0  0  0  0  0999 V2000
   37.8920   24.6890   34.5610 C   0  0  0  0  0  0  0  0  0  0  0  0
   38.1230   24.4720   35.9350 C   0  0  0  0  0  0  0  0  0  0  0  0
   38.2130   23.1410   36.3540 C   0  0  0  0  0  0  0  0  0  0  0  0
   38.0710   22.1590   35.4060 N   0  0  0  0  0  0  0  0  0  0  0  0
   37.8550   22.4150   34.1170 C   0  0  0  0  0  0  0  0  0  0  0  0
   37.7640   23.6800   33.6880 N   0  0  0  0  0  0  0  0  0  0  0  0
   38.2300   25.2760   36.6560 H   0  0  0  0  0  0  0  0  0  0  0  0
   38.3900   22.8930   37.4060 H   0  0  0  0  0  0  0  0  0  0  0  0
   37.8040   26.0570   34.1290 N   0  0  0  0  0  0  0  0  0  0  0  0
   37.7070   26.5320   32.7730 C   0  0  0  0  0  0  0  0  0  0  0  0
   36.9440   27.8390   32.9300 C   0  0  2  0  0  0  0  0  0  0  0  0
   36.5720   27.9270   34.3860 C   0  0  0  0  0  0  0  0  0  0  0  0
   37.7950   27.2180   34.9660 C   0  0  0  0  0  0  0  0  0  0  0  0
   37.0360   25.8530   32.2050 H   0  0  0  0  0  0  0  0  0  0  0  0
   38.7130   26.6450   32.3640 H   0  0  0  0  0  0  0  0  0  0  0  0
   37.6440   28.6910   32.7280 H   0  0  0  0  0  0  0  0  0  0  0  0
   35.7050   27.2750   34.6010 H   0  0  0  0  0  0  0  0  0  0  0  0
   36.4840   28.9570   34.7520 H   0  0  0  0  0  0  0  0  0  0  0  0
   38.6860   27.8500   34.8290 H   0  0  0  0  0  0  0  0  0  0  0  0
   37.6460   26.9420   36.0130 H   0  0  0  0  0  0  0  0  0  0  0  0
   35.7640   27.9320   32.0230 C   0  0  0  0  0  0  0  0  0  0  0  0
   36.1330   28.7690   30.9660 F   0  0  0  0  0  0  0  0  0  0  0  0
   34.7660   28.6100   32.7090 F   0  0  0  0  0  0  0  0  0  0  0  0
   35.2990   26.7260   31.5860 F   0  0  0  0  0  0  0  0  0  0  0  0
   37.6840   21.0920   32.9280 S   0  0  0  0  0  0  0  0  0  0  0  0
   35.9080   19.2150   32.2570 C   0  0  2  0  0  3  0  0  0  0  0  0
   35.9340   20.5860   32.9520 C   0  0  2  0  0  3  0  0  0  0  0  0
   35.2430   21.3290   31.9960 O   0  0  0  0  0  0  0  0  0  0  0  0
   35.9380   21.0680   30.8330 C   0  0  0  0  0  2  0  0  0  0  0  0
   36.4790   19.6560   30.9050 C   0  0  2  0  0  3  0  0  0  0  0  0
   34.5860   18.7960   32.1470 O   0  0  0  0  0  0  0  0  0  0  0  0
   34.5140   17.9250   31.7000 H   0  0  0  0  0  0  0  0  0  0  0  0
   36.0800   18.8520   29.8640 O   0  0  0  0  0  0  0  0  0  0  0  0
   36.1750   19.3800   29.0280 H   0  0  0  0  0  0  0  0  0  0  0  0
  1  2  1  0  0  0  0
  2  3  2  0  0  0  0
  2  7  1  0  0  0  0
  3  8  1  0  0  0  0
  4  3  1  0  0  0  0
  5  4  2  0  0  0  0
  6  5  1  0  0  0  0
  6  1  2  0  0  0  0
  9  1  1  0  0  0  0
  9 13  1  0  0  0  0
 10 11  1  0  0  0  0
 10  9  1  0  0  0  0
 11 16  1  6  0  0  0
 11 12  1  0  0  0  0
 12 17  1  0  0  0  0
 12 18  1  0  0  0  0
 12 13  1  0  0  0  0
 13 20  1  0  0  0  0
 14 10  1  0  0  0  0
 15 10  1  0  0  0  0
 19 13  1  0  0  0  0
 21 23  1  0  0  0  0
 21 11  1  0  0  0  0
 22 21  1  0  0  0  0
 24 21  1  0  0  0  0
 25  5  1  0  0  0  0
 26 31  1  6  0  0  0
 26 27  1  0  0  0  0
 27 25  1  6  0  0  0
 28 27  1  0  0  0  0
 29 30  1  0  0  0  0
 29 28  1  0  0  0  0
 30 33  1  6  0  0  0
 30 26  1  0  0  0  0
 32 31  1  0  0  0  0
 34 33  1  0  0  0  0
M  END
>  <minimizedAffinity>
-5.42562962

$$$$
