
 OpenBabel03272503513D

 37 39  0  0  1  0  0  0  0  0999 V2000
   37.5190   24.1680   32.2680 C   0  0  1  0  0  0  0  0  0  0  0  0
   37.0430   25.5240   32.8420 C   0  0  2  0  0  0  0  0  0  0  0  0
   36.4570   26.1270   31.7760 O   0  0  0  0  0  0  0  0  0  0  0  0
   35.6770   25.1370   31.2000 C   0  0  0  0  0  0  0  0  0  0  0  0
   36.3850   23.8190   31.3630 C   0  0  2  0  0  0  0  0  0  0  0  0
   37.6080   23.4810   33.1350 H   0  0  0  0  0  0  0  0  0  0  0  0
   36.3040   25.2740   33.6520 H   0  0  0  0  0  0  0  0  0  0  0  0
   34.6840   25.1860   31.6790 H   0  0  0  0  0  0  0  0  0  0  0  0
   35.6350   25.3650   30.1090 H   0  0  0  0  0  0  0  0  0  0  0  0
   36.6860   23.3800   30.3840 H   0  0  0  0  0  0  0  0  0  0  0  0
   38.7410   24.3150   31.6370 O   0  0  0  0  0  0  0  0  0  0  0  0
   39.3560   23.5930   31.9510 H   0  0  0  0  0  0  0  0  0  0  0  0
   38.1770   26.1030   33.3320 O   0  0  0  0  0  0  0  0  0  0  0  0
   39.3860   27.1230   35.4430 O   0  0  0  0  0  0  0  0  0  0  0  0
   38.0370   26.6560   34.9140 P   0  0  1  0  0  0  0  0  0  0  0  0
   37.0440   28.0260   34.9600 O   0  0  0  0  0  0  0  0  0  0  0  0
   36.1160   27.6860   34.7790 H   0  0  0  0  0  0  0  0  0  0  0  0
   37.3570   25.3840   35.8240 O   0  0  0  0  0  0  0  0  0  0  0  0
   38.1300   24.5190   36.5760 C   0  0  0  0  0  0  0  0  0  0  0  0
   37.9810   24.3180   37.9630 C   0  0  0  0  0  0  0  0  0  0  0  0
   38.8360   23.4140   38.5850 C   0  0  0  0  0  0  0  0  0  0  0  0
   39.7670   22.7720   37.8260 N   0  0  0  0  0  0  0  0  0  0  0  0
   39.8910   22.9840   36.4860 C   0  0  0  0  0  0  0  0  0  0  0  0
   39.0620   23.8650   35.8610 N   0  0  0  0  0  0  0  0  0  0  0  0
   37.2170   24.8730   38.4610 H   0  0  0  0  0  0  0  0  0  0  0  0
   38.7370   23.2460   39.6460 H   0  0  0  0  0  0  0  0  0  0  0  0
   40.6570   22.4350   35.9530 H   0  0  0  0  0  0  0  0  0  0  0  0
   35.5490   22.8890   31.9590 O   0  0  0  0  0  0  0  0  0  0  0  0
   35.5370   20.5590   31.3440 C   0  0  2  0  0  3  0  0  0  0  0  0
   36.1400   21.6490   32.1780 C   0  0  2  0  0  3  0  0  0  0  0  0
   36.1440   21.2580   33.4970 O   0  0  0  0  0  0  0  0  0  0  0  0
   35.4440   20.0760   33.6070 C   0  0  0  0  0  2  0  0  0  0  0  0
   35.6100   19.3720   32.2850 C   0  0  1  0  0  3  0  0  0  0  0  0
   36.3000   20.2230   30.2320 O   0  0  0  0  0  0  0  0  0  0  0  0
   36.7850   21.0350   29.9160 H   0  0  0  0  0  0  0  0  0  0  0  0
   34.5430   18.5220   32.0010 O   0  0  0  0  0  0  0  0  0  0  0  0
   34.1630   18.7480   31.1130 H   0  0  0  0  0  0  0  0  0  0  0  0
  1  2  1  0  0  0  0
  1  6  1  1  0  0  0
  2 13  1  0  0  0  0
  2  7  1  1  0  0  0
  3  2  1  0  0  0  0
  4  5  1  0  0  0  0
  4  8  1  0  0  0  0
  4  3  1  0  0  0  0
  5 10  1  6  0  0  0
  5 28  1  0  0  0  0
  5  1  1  0  0  0  0
  9  4  1  0  0  0  0
 11 12  1  0  0  0  0
 11  1  1  0  0  0  0
 13 15  1  0  0  0  0
 15 16  1  0  0  0  0
 15 14  2  1  0  0  0
 15 18  1  0  0  0  0
 17 16  1  0  0  0  0
 18 19  1  0  0  0  0
 19 20  1  0  0  0  0
 20 25  1  0  0  0  0
 20 21  2  0  0  0  0
 21 26  1  0  0  0  0
 22 21  1  0  0  0  0
 23 22  2  0  0  0  0
 24 23  1  0  0  0  0
 24 19  2  0  0  0  0
 27 23  1  0  0  0  0
 29 34  1  6  0  0  0
 29 30  1  0  0  0  0
 29 33  1  0  0  0  0
 30 28  1  1  0  0  0
 30 31  1  0  0  0  0
 31 32  1  0  0  0  0
 33 36  1  6  0  0  0
 33 32  1  0  0  0  0
 35 34  1  0  0  0  0
 37 36  1  0  0  0  0
M  END
>  <minimizedAffinity>
-5.92339182

$$$$

 OpenBabel03272503513D

 37 39  0  0  1  0  0  0  0  0999 V2000
   38.5020   25.5790   33.4380 C   0  0  1  0  0  0  0  0  0  0  0  0
   37.2390   26.1610   32.7600 C   0  0  2  0  0  0  0  0  0  0  0  0
   37.0410   25.3320   31.7030 O   0  0  0  0  0  0  0  0  0  0  0  0
   37.2040   24.0580   32.2230 C   0  0  0  0  0  0  0  0  0  0  0  0
   38.2640   24.1120   33.2900 C   0  0  2  0  0  0  0  0  0  0  0  0
   38.4680   25.9180   34.4950 H   0  0  0  0  0  0  0  0  0  0  0  0
   36.4160   26.0870   33.5230 H   0  0  0  0  0  0  0  0  0  0  0  0
   36.2150   23.7230   32.5770 H   0  0  0  0  0  0  0  0  0  0  0  0
   37.5960   23.4280   31.3910 H   0  0  0  0  0  0  0  0  0  0  0  0
   39.1660   23.5180   33.0170 H   0  0  0  0  0  0  0  0  0  0  0  0
   39.6430   26.0470   32.8140 O   0  0  0  0  0  0  0  0  0  0  0  0
   40.2830   26.3700   33.5100 H   0  0  0  0  0  0  0  0  0  0  0  0
   37.5710   27.4540   32.4780 O   0  0  0  0  0  0  0  0  0  0  0  0
   36.9990   29.6140   31.0770 O   0  0  0  0  0  0  0  0  0  0  0  0
   36.4750   28.2410   31.4740 P   0  0  1  0  0  0  0  0  0  0  0  0
   36.3120   27.3900   30.0180 O   0  0  0  0  0  0  0  0  0  0  0  0
   35.8080   26.5540   30.2560 H   0  0  0  0  0  0  0  0  0  0  0  0
   34.9910   28.2990   32.3120 O   0  0  0  0  0  0  0  0  0  0  0  0
   34.6780   29.3180   33.1900 C   0  0  0  0  0  0  0  0  0  0  0  0
   35.4970   29.7250   34.2630 C   0  0  0  0  0  0  0  0  0  0  0  0
   35.0480   30.7700   35.0650 C   0  0  0  0  0  0  0  0  0  0  0  0
   33.8470   31.3420   34.7740 N   0  0  0  0  0  0  0  0  0  0  0  0
   33.0730   30.9300   33.7310 C   0  0  0  0  0  0  0  0  0  0  0  0
   33.4980   29.9100   32.9350 N   0  0  0  0  0  0  0  0  0  0  0  0
   36.4200   29.2080   34.4000 H   0  0  0  0  0  0  0  0  0  0  0  0
   35.6610   31.0950   35.8900 H   0  0  0  0  0  0  0  0  0  0  0  0
   32.1320   31.4360   33.5660 H   0  0  0  0  0  0  0  0  0  0  0  0
   37.7900   23.5700   34.4730 O   0  0  0  0  0  0  0  0  0  0  0  0
   39.5170   23.2160   36.1150 C   0  0  2  0  0  3  0  0  0  0  0  0
   38.3970   24.0780   35.6170 C   0  0  2  0  0  3  0  0  0  0  0  0
   37.5220   24.3240   36.6500 O   0  0  0  0  0  0  0  0  0  0  0  0
   37.8950   23.5580   37.7330 C   0  0  0  0  0  2  0  0  0  0  0  0
   39.3860   23.3760   37.6180 C   0  0  1  0  0  3  0  0  0  0  0  0
   40.7790   23.6930   35.7810 O   0  0  0  0  0  0  0  0  0  0  0  0
   40.7200   24.1730   34.9080 H   0  0  0  0  0  0  0  0  0  0  0  0
   39.8250   22.2010   38.2240 O   0  0  0  0  0  0  0  0  0  0  0  0
   40.3470   21.6640   37.5740 H   0  0  0  0  0  0  0  0  0  0  0  0
  1  6  1  1  0  0  0
  2  1  1  0  0  0  0
  2  7  1  1  0  0  0
  3  4  1  0  0  0  0
  3  2  1  0  0  0  0
  4  8  1  0  0  0  0
  4  5  1  0  0  0  0
  5 10  1  6  0  0  0
  5  1  1  0  0  0  0
  5 28  1  0  0  0  0
  9  4  1  0  0  0  0
 11  1  1  0  0  0  0
 11 12  1  0  0  0  0
 13  2  1  0  0  0  0
 15 14  2  6  0  0  0
 15 18  1  0  0  0  0
 15 13  1  0  0  0  0
 16 17  1  0  0  0  0
 16 15  1  0  0  0  0
 18 19  1  0  0  0  0
 19 20  1  0  0  0  0
 20 25  1  0  0  0  0
 20 21  2  0  0  0  0
 21 26  1  0  0  0  0
 22 21  1  0  0  0  0
 23 22  2  0  0  0  0
 24 19  2  0  0  0  0
 24 23  1  0  0  0  0
 27 23  1  0  0  0  0
 29 34  1  6  0  0  0
 29 33  1  0  0  0  0
 30 28  1  6  0  0  0
 30 29  1  0  0  0  0
 30 31  1  0  0  0  0
 31 32  1  0  0  0  0
 33 32  1  0  0  0  0
 33 36  1  1  0  0  0
 35 34  1  0  0  0  0
 37 36  1  0  0  0  0
M  END
>  <minimizedAffinity>
-5.2709713

$$$$

 OpenBabel03272503513D

 37 39  0  0  1  0  0  0  0  0999 V2000
   37.9590   23.0180   34.9860 C   0  0  1  0  0  0  0  0  0  0  0  0
   39.0250   24.1140   34.7540 C   0  0  2  0  0  0  0  0  0  0  0  0
   40.1970   23.4590   34.9570 O   0  0  0  0  0  0  0  0  0  0  0  0
   40.0540   22.2650   34.2680 C   0  0  0  0  0  0  0  0  0  0  0  0
   38.6160   21.8320   34.3610 C   0  0  2  0  0  0  0  0  0  0  0  0
   37.0520   23.3490   34.4380 H   0  0  0  0  0  0  0  0  0  0  0  0
   38.9000   24.4460   33.6860 H   0  0  0  0  0  0  0  0  0  0  0  0
   40.4150   22.4380   33.2410 H   0  0  0  0  0  0  0  0  0  0  0  0
   40.6690   21.5120   34.8150 H   0  0  0  0  0  0  0  0  0  0  0  0
   38.4990   20.8800   34.9280 H   0  0  0  0  0  0  0  0  0  0  0  0
   37.6890   22.8870   36.3360 O   0  0  0  0  0  0  0  0  0  0  0  0
   36.6990   22.8830   36.4700 H   0  0  0  0  0  0  0  0  0  0  0  0
   38.7030   25.0960   35.6440 O   0  0  0  0  0  0  0  0  0  0  0  0
   38.5060   27.6990   36.0200 O   0  0  0  0  0  0  0  0  0  0  0  0
   38.5070   26.6150   34.9510 P   0  0  1  0  0  0  0  0  0  0  0  0
   39.8330   26.9720   33.9590 O   0  0  0  0  0  0  0  0  0  0  0  0
   39.7350   26.3690   33.1610 H   0  0  0  0  0  0  0  0  0  0  0  0
   37.0660   26.5600   34.0400 O   0  0  0  0  0  0  0  0  0  0  0  0
   36.9420   27.1880   32.8160 C   0  0  0  0  0  0  0  0  0  0  0  0
   36.0730   28.2680   32.5570 C   0  0  0  0  0  0  0  0  0  0  0  0
   36.0580   28.7980   31.2720 C   0  0  0  0  0  0  0  0  0  0  0  0
   36.8780   28.2490   30.3330 N   0  0  0  0  0  0  0  0  0  0  0  0
   37.7100   27.2050   30.6080 C   0  0  0  0  0  0  0  0  0  0  0  0
   37.7380   26.6750   31.8610 N   0  0  0  0  0  0  0  0  0  0  0  0
   35.4740   28.6200   33.3670 H   0  0  0  0  0  0  0  0  0  0  0  0
   35.4000   29.6240   31.0550 H   0  0  0  0  0  0  0  0  0  0  0  0
   38.3310   26.8260   29.8070 H   0  0  0  0  0  0  0  0  0  0  0  0
   38.0990   21.5930   33.0990 O   0  0  0  0  0  0  0  0  0  0  0  0
   36.0010   20.4140   33.2330 C   0  0  2  0  0  3  0  0  0  0  0  0
   36.7150   21.7150   33.0170 C   0  0  2  0  0  3  0  0  0  0  0  0
   36.2740   22.2830   31.8450 O   0  0  0  0  0  0  0  0  0  0  0  0
   35.4540   21.3820   31.2000 C   0  0  0  0  0  2  0  0  0  0  0  0
   34.8240   20.5460   32.2840 C   0  0  1  0  0  3  0  0  0  0  0  0
   35.4620   20.2800   34.5060 O   0  0  0  0  0  0  0  0  0  0  0  0
   36.0390   20.7740   35.1540 H   0  0  0  0  0  0  0  0  0  0  0  0
   34.4780   19.2730   31.8380 O   0  0  0  0  0  0  0  0  0  0  0  0
   34.8880   18.5890   32.4260 H   0  0  0  0  0  0  0  0  0  0  0  0
  1  6  1  6  0  0  0
  1 11  1  0  0  0  0
  2  7  1  6  0  0  0
  2  3  1  0  0  0  0
  2  1  1  0  0  0  0
  2 13  1  0  0  0  0
  4  5  1  0  0  0  0
  4  9  1  0  0  0  0
  4  3  1  0  0  0  0
  5 10  1  1  0  0  0
  5  1  1  0  0  0  0
  8  4  1  0  0  0  0
 11 12  1  0  0  0  0
 15 13  1  0  0  0  0
 15 14  2  1  0  0  0
 16 15  1  0  0  0  0
 17 16  1  0  0  0  0
 18 15  1  0  0  0  0
 19 18  1  0  0  0  0
 20 19  1  0  0  0  0
 20 25  1  0  0  0  0
 21 20  2  0  0  0  0
 22 23  2  0  0  0  0
 22 21  1  0  0  0  0
 23 24  1  0  0  0  0
 24 19  2  0  0  0  0
 26 21  1  0  0  0  0
 27 23  1  0  0  0  0
 28  5  1  0  0  0  0
 29 34  1  1  0  0  0
 30 28  1  6  0  0  0
 30 29  1  0  0  0  0
 31 30  1  0  0  0  0
 32 31  1  0  0  0  0
 32 33  1  0  0  0  0
 33 36  1  6  0  0  0
 33 29  1  0  0  0  0
 34 35  1  0  0  0  0
 36 37  1  0  0  0  0
M  END
>  <minimizedAffinity>
-5.10614729

$$$$

 OpenBabel03272503513D

 37 39  0  0  1  0  0  0  0  0999 V2000
   38.2190   22.9740   32.9450 C   0  0  1  0  0  0  0  0  0  0  0  0
   36.9600   23.4030   32.1560 C   0  0  2  0  0  0  0  0  0  0  0  0
   36.3680   22.2220   31.8430 O   0  0  0  0  0  0  0  0  0  0  0  0
   36.4150   21.4860   33.0170 C   0  0  0  0  0  0  0  0  0  0  0  0
   37.6900   21.8270   33.7400 C   0  0  2  0  0  0  0  0  0  0  0  0
   38.5000   23.8440   33.5740 H   0  0  0  0  0  0  0  0  0  0  0  0
   36.3420   24.0160   32.8690 H   0  0  0  0  0  0  0  0  0  0  0  0
   35.4940   21.7130   33.5790 H   0  0  0  0  0  0  0  0  0  0  0  0
   36.4760   20.4150   32.7130 H   0  0  0  0  0  0  0  0  0  0  0  0
   38.3770   20.9530   33.8150 H   0  0  0  0  0  0  0  0  0  0  0  0
   39.2450   22.6520   32.0760 O   0  0  0  0  0  0  0  0  0  0  0  0
   40.0810   23.1110   32.3770 H   0  0  0  0  0  0  0  0  0  0  0  0
   37.4450   24.1450   31.1180 O   0  0  0  0  0  0  0  0  0  0  0  0
   39.2490   25.9530   31.7740 O   0  0  0  0  0  0  0  0  0  0  0  0
   37.7640   25.7490   31.5110 P   0  0  1  0  0  0  0  0  0  0  0  0
   37.4050   26.7480   30.1910 O   0  0  0  0  0  0  0  0  0  0  0  0
   36.4030   26.7480   30.1250 H   0  0  0  0  0  0  0  0  0  0  0  0
   36.7790   26.1350   32.8490 O   0  0  0  0  0  0  0  0  0  0  0  0
   36.3160   27.4160   33.0780 C   0  0  0  0  0  0  0  0  0  0  0  0
   36.4890   28.1230   34.2860 C   0  0  0  0  0  0  0  0  0  0  0  0
   35.9650   29.4080   34.3690 C   0  0  0  0  0  0  0  0  0  0  0  0
   35.3140   29.9160   33.2860 N   0  0  0  0  0  0  0  0  0  0  0  0
   35.1590   29.2120   32.1290 C   0  0  0  0  0  0  0  0  0  0  0  0
   35.6670   27.9530   32.0300 N   0  0  0  0  0  0  0  0  0  0  0  0
   37.0170   27.6300   35.0720 H   0  0  0  0  0  0  0  0  0  0  0  0
   36.0880   29.9650   35.2850 H   0  0  0  0  0  0  0  0  0  0  0  0
   34.6290   29.6860   31.3140 H   0  0  0  0  0  0  0  0  0  0  0  0
   37.4200   22.2160   35.0420 O   0  0  0  0  0  0  0  0  0  0  0  0
   39.6300   22.0530   35.9900 C   0  0  2  0  0  3  0  0  0  0  0  0
   38.4530   22.9190   35.6530 C   0  0  2  0  0  3  0  0  0  0  0  0
   38.0670   23.6130   36.7760 O   0  0  0  0  0  0  0  0  0  0  0  0
   38.7910   23.1470   37.8520 C   0  0  0  0  0  2  0  0  0  0  0  0
   40.1060   22.6700   37.2910 C   0  0  1  0  0  3  0  0  0  0  0  0
   40.6840   22.1720   35.0930 O   0  0  0  0  0  0  0  0  0  0  0  0
   40.3150   22.3760   34.1880 H   0  0  0  0  0  0  0  0  0  0  0  0
   40.6800   21.6670   38.0670 O   0  0  0  0  0  0  0  0  0  0  0  0
   40.8760   20.8760   37.5010 H   0  0  0  0  0  0  0  0  0  0  0  0
  1  6  1  1  0  0  0
  1  5  1  0  0  0  0
  2  7  1  1  0  0  0
  2  1  1  0  0  0  0
  3  2  1  0  0  0  0
  3  4  1  0  0  0  0
  4  8  1  0  0  0  0
  4  5  1  0  0  0  0
  5 10  1  6  0  0  0
  5 28  1  0  0  0  0
  9  4  1  0  0  0  0
 11 12  1  0  0  0  0
 11  1  1  0  0  0  0
 13 15  1  0  0  0  0
 13  2  1  0  0  0  0
 15 14  2  1  0  0  0
 15 18  1  0  0  0  0
 16 15  1  0  0  0  0
 17 16  1  0  0  0  0
 18 19  1  0  0  0  0
 19 20  1  0  0  0  0
 20 21  2  0  0  0  0
 20 25  1  0  0  0  0
 21 26  1  0  0  0  0
 22 21  1  0  0  0  0
 23 22  2  0  0  0  0
 24 23  1  0  0  0  0
 24 19  2  0  0  0  0
 27 23  1  0  0  0  0
 29 34  1  6  0  0  0
 29 33  1  0  0  0  0
 30 28  1  1  0  0  0
 30 29  1  0  0  0  0
 30 31  1  0  0  0  0
 31 32  1  0  0  0  0
 33 32  1  0  0  0  0
 33 36  1  1  0  0  0
 35 34  1  0  0  0  0
 37 36  1  0  0  0  0
M  END
>  <minimizedAffinity>
-5.09566355

$$$$

 OpenBabel03272503513D

 37 39  0  0  1  0  0  0  0  0999 V2000
   35.9620   27.4200   31.2450 C   0  0  1  0  0  0  0  0  0  0  0  0
   36.3550   26.0690   31.8890 C   0  0  2  0  0  0  0  0  0  0  0  0
   37.6650   26.2400   32.2020 O   0  0  0  0  0  0  0  0  0  0  0  0
   37.7240   27.4970   32.7820 C   0  0  0  0  0  0  0  0  0  0  0  0
   36.7150   28.3820   32.1020 C   0  0  2  0  0  0  0  0  0  0  0  0
   34.8610   27.5070   31.3600 H   0  0  0  0  0  0  0  0  0  0  0  0
   35.7070   25.9610   32.8020 H   0  0  0  0  0  0  0  0  0  0  0  0
   37.5600   27.3620   33.8650 H   0  0  0  0  0  0  0  0  0  0  0  0
   38.7370   27.9020   32.5520 H   0  0  0  0  0  0  0  0  0  0  0  0
   37.1960   29.2220   31.5500 H   0  0  0  0  0  0  0  0  0  0  0  0
   36.3130   27.4360   29.9080 O   0  0  0  0  0  0  0  0  0  0  0  0
   35.5350   27.7640   29.3730 H   0  0  0  0  0  0  0  0  0  0  0  0
   36.0640   25.1400   30.9330 O   0  0  0  0  0  0  0  0  0  0  0  0
   38.0340   23.5140   30.2740 O   0  0  0  0  0  0  0  0  0  0  0  0
   36.8120   23.6520   31.1710 P   0  0  1  0  0  0  0  0  0  0  0  0
   37.4090   23.5530   32.7530 O   0  0  0  0  0  0  0  0  0  0  0  0
   36.5950   23.4700   33.3370 H   0  0  0  0  0  0  0  0  0  0  0  0
   35.6300   22.4550   30.8930 O   0  0  0  0  0  0  0  0  0  0  0  0
   35.6580   21.2290   31.5290 C   0  0  0  0  0  0  0  0  0  0  0  0
   35.9200   20.0020   30.8840 C   0  0  0  0  0  0  0  0  0  0  0  0
   35.9140   18.8460   31.6580 C   0  0  0  0  0  0  0  0  0  0  0  0
   35.6560   18.9570   32.9910 N   0  0  0  0  0  0  0  0  0  0  0  0
   35.4060   20.1550   33.5900 C   0  0  0  0  0  0  0  0  0  0  0  0
   35.4090   21.2960   32.8480 N   0  0  0  0  0  0  0  0  0  0  0  0
   36.1100   20.0300   29.8350 H   0  0  0  0  0  0  0  0  0  0  0  0
   36.1120   17.8990   31.1830 H   0  0  0  0  0  0  0  0  0  0  0  0
   35.2100   20.1590   34.6540 H   0  0  0  0  0  0  0  0  0  0  0  0
   35.8760   28.9680   33.0360 O   0  0  0  0  0  0  0  0  0  0  0  0
   34.7110   30.7970   31.9860 C   0  0  2  0  0  3  0  0  0  0  0  0
   34.6580   29.3970   32.5190 C   0  0  2  0  0  3  0  0  0  0  0  0
   33.6080   29.2890   33.4010 O   0  0  0  0  0  0  0  0  0  0  0  0
   33.0770   30.5440   33.6090 C   0  0  0  0  0  2  0  0  0  0  0  0
   33.3290   31.3160   32.3400 C   0  0  1  0  0  3  0  0  0  0  0  0
   34.8090   30.8630   30.6010 O   0  0  0  0  0  0  0  0  0  0  0  0
   35.3160   30.0670   30.2760 H   0  0  0  0  0  0  0  0  0  0  0  0
   33.4210   32.6880   32.5630 O   0  0  0  0  0  0  0  0  0  0  0  0
   34.2740   33.0310   32.1920 H   0  0  0  0  0  0  0  0  0  0  0  0
  1  6  1  1  0  0  0
  1  2  1  0  0  0  0
  1  5  1  0  0  0  0
  2  3  1  0  0  0  0
  2  7  1  1  0  0  0
  3  4  1  0  0  0  0
  4  8  1  0  0  0  0
  5 10  1  6  0  0  0
  5  4  1  0  0  0  0
  5 28  1  0  0  0  0
  9  4  1  0  0  0  0
 11  1  1  0  0  0  0
 12 11  1  0  0  0  0
 13 15  1  0  0  0  0
 13  2  1  0  0  0  0
 15 14  2  6  0  0  0
 15 16  1  0  0  0  0
 16 17  1  0  0  0  0
 18 15  1  0  0  0  0
 18 19  1  0  0  0  0
 19 24  1  0  0  0  0
 20 19  2  0  0  0  0
 20 21  1  0  0  0  0
 21 22  2  0  0  0  0
 22 23  1  0  0  0  0
 23 27  1  0  0  0  0
 24 23  2  0  0  0  0
 25 20  1  0  0  0  0
 26 21  1  0  0  0  0
 29 34  1  6  0  0  0
 29 33  1  0  0  0  0
 29 30  1  0  0  0  0
 30 28  1  1  0  0  0
 30 31  1  0  0  0  0
 31 32  1  0  0  0  0
 33 36  1  1  0  0  0
 33 32  1  0  0  0  0
 35 34  1  0  0  0  0
 37 36  1  0  0  0  0
M  END
>  <minimizedAffinity>
-5.09354687

$$$$

 OpenBabel03272503513D

 37 39  0  0  1  0  0  0  0  0999 V2000
   39.3070   26.3810   32.7510 C   0  0  1  0  0  0  0  0  0  0  0  0
   37.8460   26.8870   32.7920 C   0  0  2  0  0  0  0  0  0  0  0  0
   37.1270   25.7990   32.4130 O   0  0  0  0  0  0  0  0  0  0  0  0
   37.6750   24.7500   33.1340 C   0  0  0  0  0  0  0  0  0  0  0  0
   39.1530   24.9940   33.2810 C   0  0  2  0  0  0  0  0  0  0  0  0
   39.8820   27.0430   33.4330 H   0  0  0  0  0  0  0  0  0  0  0  0
   37.6490   27.1780   33.8610 H   0  0  0  0  0  0  0  0  0  0  0  0
   37.1240   24.6890   34.0880 H   0  0  0  0  0  0  0  0  0  0  0  0
   37.5450   23.8370   32.5070 H   0  0  0  0  0  0  0  0  0  0  0  0
   39.7610   24.2230   32.7550 H   0  0  0  0  0  0  0  0  0  0  0  0
   39.8070   26.4580   31.4640 O   0  0  0  0  0  0  0  0  0  0  0  0
   40.7060   26.8940   31.4920 H   0  0  0  0  0  0  0  0  0  0  0  0
   37.8330   27.9600   31.9500 O   0  0  0  0  0  0  0  0  0  0  0  0
   36.4360   29.4150   30.2510 O   0  0  0  0  0  0  0  0  0  0  0  0
   36.3720   28.1880   31.1500 P   0  0  1  0  0  0  0  0  0  0  0  0
   36.0760   26.8880   30.1060 O   0  0  0  0  0  0  0  0  0  0  0  0
   35.8620   26.1110   30.7060 H   0  0  0  0  0  0  0  0  0  0  0  0
   35.1630   28.2900   32.3490 O   0  0  0  0  0  0  0  0  0  0  0  0
   35.0220   29.3980   33.1620 C   0  0  0  0  0  0  0  0  0  0  0  0
   35.7210   29.5930   34.3710 C   0  0  0  0  0  0  0  0  0  0  0  0
   35.4730   30.7610   35.0850 C   0  0  0  0  0  0  0  0  0  0  0  0
   34.5740   31.6520   34.5820 N   0  0  0  0  0  0  0  0  0  0  0  0
   33.9110   31.4400   33.4100 C   0  0  0  0  0  0  0  0  0  0  0  0
   34.1420   30.3020   32.6990 N   0  0  0  0  0  0  0  0  0  0  0  0
   36.4040   28.8300   34.6720 H   0  0  0  0  0  0  0  0  0  0  0  0
   35.9980   30.9290   36.0120 H   0  0  0  0  0  0  0  0  0  0  0  0
   33.2120   32.1960   33.0780 H   0  0  0  0  0  0  0  0  0  0  0  0
   39.5250   24.9330   34.6140 O   0  0  0  0  0  0  0  0  0  0  0  0
   38.6820   24.1370   36.7260 C   0  0  2  0  0  3  0  0  0  0  0  0
   39.0190   23.8320   35.2970 C   0  0  2  0  0  3  0  0  0  0  0  0
   39.8340   22.7250   35.2520 O   0  0  0  0  0  0  0  0  0  0  0  0
   40.1860   22.3850   36.5400 C   0  0  0  0  0  2  0  0  0  0  0  0
   39.0440   22.8340   37.4140 C   0  0  1  0  0  3  0  0  0  0  0  0
   37.3240   24.3310   36.9480 O   0  0  0  0  0  0  0  0  0  0  0  0
   36.9170   24.7260   36.1280 H   0  0  0  0  0  0  0  0  0  0  0  0
   39.4540   23.1240   38.7130 O   0  0  0  0  0  0  0  0  0  0  0  0
   39.1680   24.0420   38.9570 H   0  0  0  0  0  0  0  0  0  0  0  0
  1  2  1  0  0  0  0
  1  5  1  0  0  0  0
  1  6  1  1  0  0  0
  2  7  1  1  0  0  0
  3  2  1  0  0  0  0
  3  4  1  0  0  0  0
  4  5  1  0  0  0  0
  4  8  1  0  0  0  0
  5 10  1  6  0  0  0
  5 28  1  0  0  0  0
  9  4  1  0  0  0  0
 11 12  1  0  0  0  0
 11  1  1  0  0  0  0
 13  2  1  0  0  0  0
 15 14  2  6  0  0  0
 15 13  1  0  0  0  0
 15 18  1  0  0  0  0
 16 17  1  0  0  0  0
 16 15  1  0  0  0  0
 18 19  1  0  0  0  0
 19 20  1  0  0  0  0
 20 25  1  0  0  0  0
 20 21  2  0  0  0  0
 21 26  1  0  0  0  0
 22 21  1  0  0  0  0
 23 22  2  0  0  0  0
 24 19  2  0  0  0  0
 24 23  1  0  0  0  0
 27 23  1  0  0  0  0
 29 34  1  6  0  0  0
 29 33  1  0  0  0  0
 30 28  1  1  0  0  0
 30 29  1  0  0  0  0
 31 30  1  0  0  0  0
 31 32  1  0  0  0  0
 32 33  1  0  0  0  0
 33 36  1  1  0  0  0
 35 34  1  0  0  0  0
 36 37  1  0  0  0  0
M  END
>  <minimizedAffinity>
-5.06468964

$$$$

 OpenBabel03272503513D

 37 39  0  0  1  0  0  0  0  0999 V2000
   37.4340   26.3290   33.8380 C   0  0  1  0  0  0  0  0  0  0  0  0
   38.9290   26.5430   33.5030 C   0  0  2  0  0  0  0  0  0  0  0  0
   39.3250   27.4660   34.4170 O   0  0  0  0  0  0  0  0  0  0  0  0
   38.7860   27.0260   35.6150 C   0  0  0  0  0  0  0  0  0  0  0  0
   37.4560   26.3810   35.3290 C   0  0  2  0  0  0  0  0  0  0  0  0
   37.1710   25.3250   33.4440 H   0  0  0  0  0  0  0  0  0  0  0  0
   39.4270   25.5460   33.6600 H   0  0  0  0  0  0  0  0  0  0  0  0
   39.5290   26.3570   36.0790 H   0  0  0  0  0  0  0  0  0  0  0  0
   38.5930   27.9390   36.2260 H   0  0  0  0  0  0  0  0  0  0  0  0
   36.6100   26.9410   35.7900 H   0  0  0  0  0  0  0  0  0  0  0  0
   36.6620   27.3050   33.2350 O   0  0  0  0  0  0  0  0  0  0  0  0
   35.8910   26.8680   32.7730 H   0  0  0  0  0  0  0  0  0  0  0  0
   38.9340   26.9270   32.1940 O   0  0  0  0  0  0  0  0  0  0  0  0
   40.1230   26.1320   29.9780 O   0  0  0  0  0  0  0  0  0  0  0  0
   39.2160   25.6720   31.1110 P   0  0  1  0  0  0  0  0  0  0  0  0
   40.0650   24.4250   31.8810 O   0  0  0  0  0  0  0  0  0  0  0  0
   39.4050   24.0070   32.5120 H   0  0  0  0  0  0  0  0  0  0  0  0
   37.6900   25.1270   30.5780 O   0  0  0  0  0  0  0  0  0  0  0  0
   37.2130   23.8650   30.8740 C   0  0  0  0  0  0  0  0  0  0  0  0
   35.9500   23.6030   31.4430 C   0  0  0  0  0  0  0  0  0  0  0  0
   35.6070   22.2770   31.6850 C   0  0  0  0  0  0  0  0  0  0  0  0
   36.5040   21.3050   31.3630 N   0  0  0  0  0  0  0  0  0  0  0  0
   37.7200   21.5830   30.8140 C   0  0  0  0  0  0  0  0  0  0  0  0
   38.0710   22.8750   30.5690 N   0  0  0  0  0  0  0  0  0  0  0  0
   35.3240   24.4410   31.6560 H   0  0  0  0  0  0  0  0  0  0  0  0
   34.6450   22.0570   32.1200 H   0  0  0  0  0  0  0  0  0  0  0  0
   38.3770   20.7540   30.5860 H   0  0  0  0  0  0  0  0  0  0  0  0
   37.4110   25.1050   35.8660 O   0  0  0  0  0  0  0  0  0  0  0  0
   39.3090   23.6520   36.1680 C   0  0  2  0  0  3  0  0  0  0  0  0
   38.4880   24.7940   36.6880 C   0  0  2  0  0  3  0  0  0  0  0  0
   38.1380   24.5400   37.9940 O   0  0  0  0  0  0  0  0  0  0  0  0
   38.5240   23.2550   38.3110 C   0  0  0  0  0  2  0  0  0  0  0  0
   39.7260   22.9600   37.4520 C   0  0  1  0  0  3  0  0  0  0  0  0
   40.4830   24.0500   35.5410 O   0  0  0  0  0  0  0  0  0  0  0  0
   40.3340   24.9390   35.1130 H   0  0  0  0  0  0  0  0  0  0  0  0
   39.8690   21.5990   37.1900 O   0  0  0  0  0  0  0  0  0  0  0  0
   39.9240   21.4510   36.2110 H   0  0  0  0  0  0  0  0  0  0  0  0
  1  6  1  6  0  0  0
  1  5  1  0  0  0  0
  2  7  1  1  0  0  0
  2  1  1  0  0  0  0
  2  3  1  0  0  0  0
  3  4  1  0  0  0  0
  4  8  1  0  0  0  0
  4  9  1  0  0  0  0
  5  4  1  0  0  0  0
  5 10  1  1  0  0  0
  5 28  1  0  0  0  0
 11  1  1  0  0  0  0
 12 11  1  0  0  0  0
 13  2  1  0  0  0  0
 15 14  2  6  0  0  0
 15 16  1  0  0  0  0
 15 13  1  0  0  0  0
 16 17  1  0  0  0  0
 18 19  1  0  0  0  0
 18 15  1  0  0  0  0
 19 20  1  0  0  0  0
 20 25  1  0  0  0  0
 20 21  2  0  0  0  0
 21 26  1  0  0  0  0
 22 21  1  0  0  0  0
 23 22  2  0  0  0  0
 24 23  1  0  0  0  0
 24 19  2  0  0  0  0
 27 23  1  0  0  0  0
 29 34  1  1  0  0  0
 29 30  1  0  0  0  0
 29 33  1  0  0  0  0
 30 28  1  6  0  0  0
 30 31  1  0  0  0  0
 31 32  1  0  0  0  0
 33 36  1  6  0  0  0
 33 32  1  0  0  0  0
 35 34  1  0  0  0  0
 37 36  1  0  0  0  0
M  END
>  <minimizedAffinity>
-5.05485153

$$$$

 OpenBabel03272503513D

 37 39  0  0  1  0  0  0  0  0999 V2000
   36.6970   27.7180   32.5020 C   0  0  1  0  0  0  0  0  0  0  0  0
   36.8300   27.1680   33.9410 C   0  0  2  0  0  0  0  0  0  0  0  0
   37.0490   28.2830   34.6840 O   0  0  0  0  0  0  0  0  0  0  0  0
   36.1220   29.2010   34.2170 C   0  0  0  0  0  0  0  0  0  0  0  0
   35.9380   28.9810   32.7400 C   0  0  2  0  0  0  0  0  0  0  0  0
   36.1130   26.9620   31.9360 H   0  0  0  0  0  0  0  0  0  0  0  0
   35.8440   26.6820   34.1800 H   0  0  0  0  0  0  0  0  0  0  0  0
   35.2060   29.0720   34.8170 H   0  0  0  0  0  0  0  0  0  0  0  0
   36.5820   30.2080   34.3520 H   0  0  0  0  0  0  0  0  0  0  0  0
   36.2820   29.8540   32.1380 H   0  0  0  0  0  0  0  0  0  0  0  0
   37.9460   27.8900   31.9350 O   0  0  0  0  0  0  0  0  0  0  0  0
   37.9460   27.4850   31.0210 H   0  0  0  0  0  0  0  0  0  0  0  0
   37.8500   26.2650   33.8670 O   0  0  0  0  0  0  0  0  0  0  0  0
   40.2080   27.4270   34.0880 O   0  0  0  0  0  0  0  0  0  0  0  0
   39.1620   26.6280   34.8550 P   0  0  1  0  0  0  0  0  0  0  0  0
   38.6700   27.6410   36.1190 O   0  0  0  0  0  0  0  0  0  0  0  0
   38.1150   27.0600   36.7220 H   0  0  0  0  0  0  0  0  0  0  0  0
   39.7520   25.1470   35.4590 O   0  0  0  0  0  0  0  0  0  0  0  0
   38.9490   24.0300   35.5860 C   0  0  0  0  0  0  0  0  0  0  0  0
   38.9130   22.9640   34.6630 C   0  0  0  0  0  0  0  0  0  0  0  0
   38.0510   21.9050   34.9250 C   0  0  0  0  0  0  0  0  0  0  0  0
   37.2900   21.9500   36.0540 N   0  0  0  0  0  0  0  0  0  0  0  0
   37.3420   22.9920   36.9300 C   0  0  0  0  0  0  0  0  0  0  0  0
   38.1810   24.0370   36.6900 N   0  0  0  0  0  0  0  0  0  0  0  0
   39.5530   23.0300   33.8120 H   0  0  0  0  0  0  0  0  0  0  0  0
   38.0100   21.0800   34.2320 H   0  0  0  0  0  0  0  0  0  0  0  0
   36.7050   22.9540   37.8040 H   0  0  0  0  0  0  0  0  0  0  0  0
   34.5970   28.8120   32.4380 O   0  0  0  0  0  0  0  0  0  0  0  0
   32.3690   29.4230   33.1240 C   0  0  2  0  0  3  0  0  0  0  0  0
   33.7810   29.8550   32.8620 C   0  0  2  0  0  3  0  0  0  0  0  0
   33.7710   30.9370   32.0120 O   0  0  0  0  0  0  0  0  0  0  0  0
   32.4810   31.1390   31.5710 C   0  0  0  0  0  2  0  0  0  0  0  0
   31.5840   30.6410   32.6750 C   0  0  1  0  0  3  0  0  0  0  0  0
   32.0800   29.2490   34.4710 O   0  0  0  0  0  0  0  0  0  0  0  0
   32.9080   28.9470   34.9410 H   0  0  0  0  0  0  0  0  0  0  0  0
   30.3470   30.2140   32.1980 O   0  0  0  0  0  0  0  0  0  0  0  0
   30.1740   29.2860   32.5010 H   0  0  0  0  0  0  0  0  0  0  0  0
  1  6  1  6  0  0  0
  1  5  1  0  0  0  0
  1  2  1  0  0  0  0
  2  7  1  1  0  0  0
  2  3  1  0  0  0  0
  4  9  1  0  0  0  0
  4  3  1  0  0  0  0
  4  8  1  0  0  0  0
  5 10  1  6  0  0  0
  5  4  1  0  0  0  0
 11  1  1  0  0  0  0
 12 11  1  0  0  0  0
 13  2  1  0  0  0  0
 13 15  1  0  0  0  0
 15 14  2  6  0  0  0
 15 18  1  0  0  0  0
 15 16  1  0  0  0  0
 16 17  1  0  0  0  0
 18 19  1  0  0  0  0
 19 24  1  0  0  0  0
 20 21  1  0  0  0  0
 20 19  2  0  0  0  0
 21 22  2  0  0  0  0
 22 23  1  0  0  0  0
 23 27  1  0  0  0  0
 24 23  2  0  0  0  0
 25 20  1  0  0  0  0
 26 21  1  0  0  0  0
 28  5  1  0  0  0  0
 29 34  1  1  0  0  0
 30 28  1  6  0  0  0
 30 29  1  0  0  0  0
 31 30  1  0  0  0  0
 32 31  1  0  0  0  0
 32 33  1  0  0  0  0
 33 36  1  6  0  0  0
 33 29  1  0  0  0  0
 34 35  1  0  0  0  0
 36 37  1  0  0  0  0
M  END
>  <minimizedAffinity>
-5.04833078

$$$$

 OpenBabel03272503513D

 37 39  0  0  1  0  0  0  0  0999 V2000
   37.9620   23.4750   32.6320 C   0  0  1  0  0  0  0  0  0  0  0  0
   36.6290   24.1050   32.1610 C   0  0  2  0  0  0  0  0  0  0  0  0
   35.9830   23.0660   31.5720 O   0  0  0  0  0  0  0  0  0  0  0  0
   36.1480   22.0080   32.4520 C   0  0  0  0  0  0  0  0  0  0  0  0
   37.5040   22.1320   33.0940 C   0  0  2  0  0  0  0  0  0  0  0  0
   38.3290   24.1160   33.4610 H   0  0  0  0  0  0  0  0  0  0  0  0
   36.1090   24.4600   33.0930 H   0  0  0  0  0  0  0  0  0  0  0  0
   35.3020   22.0380   33.1580 H   0  0  0  0  0  0  0  0  0  0  0  0
   36.1530   21.0820   31.8310 H   0  0  0  0  0  0  0  0  0  0  0  0
   38.1770   21.2880   32.8200 H   0  0  0  0  0  0  0  0  0  0  0  0
   38.8760   23.4500   31.5950 O   0  0  0  0  0  0  0  0  0  0  0  0
   39.7490   23.8090   31.9240 H   0  0  0  0  0  0  0  0  0  0  0  0
   37.0080   25.1350   31.3510 O   0  0  0  0  0  0  0  0  0  0  0  0
   36.8650   26.4600   33.6280 O   0  0  0  0  0  0  0  0  0  0  0  0
   37.1210   26.6190   32.1350 P   0  0  1  0  0  0  0  0  0  0  0  0
   38.7020   27.2150   32.0170 O   0  0  0  0  0  0  0  0  0  0  0  0
   38.8110   27.4830   31.0550 H   0  0  0  0  0  0  0  0  0  0  0  0
   36.0180   27.6690   31.3670 O   0  0  0  0  0  0  0  0  0  0  0  0
   36.4310   28.7290   30.5850 C   0  0  0  0  0  0  0  0  0  0  0  0
   36.0770   30.0750   30.8130 C   0  0  0  0  0  0  0  0  0  0  0  0
   36.5710   31.0360   29.9370 C   0  0  0  0  0  0  0  0  0  0  0  0
   37.3670   30.6300   28.9090 N   0  0  0  0  0  0  0  0  0  0  0  0
   37.6950   29.3220   28.7090 C   0  0  0  0  0  0  0  0  0  0  0  0
   37.2210   28.3690   29.5580 N   0  0  0  0  0  0  0  0  0  0  0  0
   35.4480   30.2820   31.6500 H   0  0  0  0  0  0  0  0  0  0  0  0
   36.3120   32.0700   30.0960 H   0  0  0  0  0  0  0  0  0  0  0  0
   38.3320   29.0820   27.8690 H   0  0  0  0  0  0  0  0  0  0  0  0
   37.3910   22.1000   34.4750 O   0  0  0  0  0  0  0  0  0  0  0  0
   39.4230   22.1790   35.7670 C   0  0  2  0  0  3  0  0  0  0  0  0
   38.2880   22.9310   35.1390 C   0  0  2  0  0  3  0  0  0  0  0  0
   37.7030   23.7390   36.0860 O   0  0  0  0  0  0  0  0  0  0  0  0
   38.2590   23.4520   37.3140 C   0  0  0  0  0  2  0  0  0  0  0  0
   39.6630   22.9810   37.0330 C   0  0  1  0  0  3  0  0  0  0  0  0
   40.6040   22.2410   35.0370 O   0  0  0  0  0  0  0  0  0  0  0  0
   40.3790   22.3090   34.0670 H   0  0  0  0  0  0  0  0  0  0  0  0
   40.1380   22.1170   38.0160 O   0  0  0  0  0  0  0  0  0  0  0  0
   40.4490   21.2730   37.5970 H   0  0  0  0  0  0  0  0  0  0  0  0
  1  5  1  0  0  0  0
  1  6  1  1  0  0  0
  2  1  1  0  0  0  0
  2  7  1  1  0  0  0
  3  2  1  0  0  0  0
  3  4  1  0  0  0  0
  4  5  1  0  0  0  0
  4  8  1  0  0  0  0
  5 10  1  6  0  0  0
  5 28  1  0  0  0  0
  9  4  1  0  0  0  0
 11 12  1  0  0  0  0
 11  1  1  0  0  0  0
 13 15  1  0  0  0  0
 13  2  1  0  0  0  0
 15 14  2  1  0  0  0
 16 15  1  0  0  0  0
 17 16  1  0  0  0  0
 18 15  1  0  0  0  0
 19 20  1  0  0  0  0
 19 18  1  0  0  0  0
 20 25  1  0  0  0  0
 21 26  1  0  0  0  0
 21 20  2  0  0  0  0
 22 21  1  0  0  0  0
 23 22  2  0  0  0  0
 23 24  1  0  0  0  0
 24 19  2  0  0  0  0
 27 23  1  0  0  0  0
 29 34  1  6  0  0  0
 29 33  1  0  0  0  0
 30 28  1  1  0  0  0
 30 29  1  0  0  0  0
 30 31  1  0  0  0  0
 31 32  1  0  0  0  0
 33 32  1  0  0  0  0
 33 36  1  1  0  0  0
 35 34  1  0  0  0  0
 37 36  1  0  0  0  0
M  END
>  <minimizedAffinity>
-5.01752234

$$$$
