
 OpenBabel03272509183D

 33 35  0  0  1  0  0  0  0  0999 V2000
   38.1260   31.3730   47.9000 C   0  0  0  0  0  0  0  0  0  0  0  0
   37.2160   31.5640   48.9430 C   0  0  0  0  0  0  0  0  0  0  0  0
   37.3890   32.7550   49.6440 C   0  0  0  0  0  0  0  0  0  0  0  0
   38.4030   33.6560   49.3010 C   0  0  0  0  0  0  0  0  0  0  0  0
   39.2550   33.3670   48.2430 C   0  0  0  0  0  0  0  0  0  0  0  0
   39.1170   32.2060   47.5300 C   0  0  0  0  0  0  0  0  0  0  0  0
   36.7000   32.9340   50.4580 H   0  0  0  0  0  0  0  0  0  0  0  0
   38.4430   34.5430   49.9100 H   0  0  0  0  0  0  0  0  0  0  0  0
   39.9700   34.1500   48.1080 H   0  0  0  0  0  0  0  0  0  0  0  0
   35.0900   30.4530   48.4500 C   0  0  0  0  0  0  0  0  0  0  0  0
   36.1820   30.6340   49.2850 C   0  0  0  0  0  0  0  0  0  0  0  0
   36.2190   29.8730   50.4590 C   0  0  0  0  0  0  0  0  0  0  0  0
   35.1930   29.0130   50.7070 N   0  0  0  0  0  0  0  0  0  0  0  0
   34.1530   28.8740   49.8640 C   0  0  0  0  0  0  0  0  0  0  0  0
   34.1030   29.5900   48.7420 N   0  0  0  0  0  0  0  0  0  0  0  0
   34.9750   30.9970   47.5190 H   0  0  0  0  0  0  0  0  0  0  0  0
   33.4400   28.1460   50.2300 H   0  0  0  0  0  0  0  0  0  0  0  0
   37.3590   30.0120   51.4070 C   0  0  0  0  0  0  0  0  0  0  0  0
   36.9850   30.1480   52.4450 H   0  0  0  0  0  0  0  0  0  0  0  0
   37.9160   30.9270   51.1330 H   0  0  0  0  0  0  0  0  0  0  0  0
   38.0400   29.1450   51.3200 H   0  0  0  0  0  0  0  0  0  0  0  0
   38.0110   30.1860   47.1450 O   0  0  0  0  0  0  0  0  0  0  0  0
   38.3230   29.3010   47.5510 H   0  0  0  0  0  0  0  0  0  0  0  0
   39.9710   31.9430   46.4900 O   0  0  0  0  0  0  0  0  0  0  0  0
   39.7210   30.8510   44.3870 C   0  0  1  0  0  3  0  0  0  0  0  0
   39.7240   32.1700   45.1360 C   0  0  1  0  0  3  0  0  0  0  0  0
   38.3710   32.5910   45.0600 O   0  0  0  0  0  0  0  0  0  0  0  0
   38.1830   32.4910   43.6740 C   0  0  0  0  0  2  0  0  0  0  0  0
   38.5670   31.0320   43.4360 C   0  0  1  0  0  3  0  0  0  0  0  0
   40.8970   30.5960   43.7140 O   0  0  0  0  0  0  0  0  0  0  0  0
   41.6190   31.2510   43.9630 H   0  0  0  0  0  0  0  0  0  0  0  0
   38.9370   30.8150   42.1090 O   0  0  0  0  0  0  0  0  0  0  0  0
   38.4670   31.5120   41.5830 H   0  0  0  0  0  0  0  0  0  0  0  0
  1  2  1  0  0  0  0
  2 11  1  0  0  0  0
  2  3  2  0  0  0  0
  3  7  1  0  0  0  0
  4  3  1  0  0  0  0
  4  8  1  0  0  0  0
  5  4  2  0  0  0  0
  6  1  2  0  0  0  0
  6  5  1  0  0  0  0
  9  5  1  0  0  0  0
 10 15  2  0  0  0  0
 10 11  1  0  0  0  0
 11 12  2  0  0  0  0
 12 13  1  0  0  0  0
 12 18  1  0  0  0  0
 14 17  1  0  0  0  0
 14 13  2  0  0  0  0
 15 14  1  0  0  0  0
 16 10  1  0  0  0  0
 18 19  1  0  0  0  0
 20 18  1  0  0  0  0
 21 18  1  0  0  0  0
 22 23  1  0  0  0  0
 22  1  1  0  0  0  0
 24  6  1  0  0  0  0
 25 30  1  6  0  0  0
 25 26  1  0  0  0  0
 26 24  1  1  0  0  0
 27 26  1  0  0  0  0
 28 27  1  0  0  0  0
 29 32  1  6  0  0  0
 29 28  1  0  0  0  0
 29 25  1  0  0  0  0
 30 31  1  0  0  0  0
 33 32  1  0  0  0  0
M  END
>  <minimizedAffinity>
-6.82379532

>  <minimizedRMSD>
2.53721094

$$$$
