
 OpenBabel03272509453D

 19 20  0  0  1  0  0  0  0  0999 V2000
   38.3210   22.1620   34.6790 O   0  0  0  0  0  0  0  0  0  0  0  0
   36.5400   21.7680   31.5310 C   0  0  0  0  0  0  0  0  0  0  0  0
   35.4530   20.9920   31.9970 C   0  0  0  0  0  0  0  0  0  0  0  0
   35.3830   20.6450   33.3480 C   0  0  0  0  0  0  0  0  0  0  0  0
   36.3960   21.0890   34.1610 N   0  0  0  0  0  0  0  0  0  0  0  0
   37.4210   21.8280   33.6890 C   0  0  0  0  0  0  0  0  0  0  0  0
   37.4850   22.1620   32.3760 N   0  0  0  0  0  0  0  0  0  0  0  0
   36.6140   22.0470   30.4880 H   0  0  0  0  0  0  0  0  0  0  0  0
   34.6800   20.6740   31.2880 H   0  0  0  0  0  0  0  0  0  0  0  0
   34.5800   20.0640   33.7300 H   0  0  0  0  0  0  0  0  0  0  0  0
   37.7950   23.4020   36.7150 C   0  0  2  0  0  3  0  0  0  0  0  0
   38.1360   23.4420   35.2620 C   0  0  1  0  0  3  0  0  0  0  0  0
   39.3770   24.0680   35.2060 O   0  0  0  0  0  0  0  0  0  0  0  0
   40.1050   23.3790   36.1750 C   0  0  0  0  0  2  0  0  0  0  0  0
   39.1800   23.4450   37.3710 C   0  0  2  0  0  3  0  0  0  0  0  0
   37.0720   22.2890   37.0970 O   0  0  0  0  0  0  0  0  0  0  0  0
   36.2970   22.6110   37.6560 H   0  0  0  0  0  0  0  0  0  0  0  0
   39.3610   22.3130   38.1660 O   0  0  0  0  0  0  0  0  0  0  0  0
   39.8950   21.6260   37.6560 H   0  0  0  0  0  0  0  0  0  0  0  0
  2  3  2  0  0  0  0
  2  7  1  0  0  0  0
  3  4  1  0  0  0  0
  4 10  1  0  0  0  0
  4  5  2  0  0  0  0
  6  5  1  0  0  0  0
  6  1  1  0  0  0  0
  7  6  2  0  0  0  0
  8  2  1  0  0  0  0
  9  3  1  0  0  0  0
 11 16  1  6  0  0  0
 11 15  1  0  0  0  0
 12  1  1  1  0  0  0
 12 11  1  0  0  0  0
 13 12  1  0  0  0  0
 13 14  1  0  0  0  0
 14 15  1  0  0  0  0
 15 18  1  1  0  0  0
 16 17  1  0  0  0  0
 19 18  1  0  0  0  0
M  END
>  <minimizedAffinity>
-4.18299055

$$$$

 OpenBabel03272509453D

 19 20  0  0  1  0  0  0  0  0999 V2000
   39.6130   24.4530   35.7660 O   0  0  0  0  0  0  0  0  0  0  0  0
   41.0300   27.1530   33.7820 C   0  0  0  0  0  0  0  0  0  0  0  0
   40.4050   26.8610   32.5470 C   0  0  0  0  0  0  0  0  0  0  0  0
   39.5400   25.7680   32.4550 C   0  0  0  0  0  0  0  0  0  0  0  0
   39.3440   25.0270   33.5930 N   0  0  0  0  0  0  0  0  0  0  0  0
   39.9540   25.3290   34.7580 C   0  0  0  0  0  0  0  0  0  0  0  0
   40.7940   26.3910   34.8430 N   0  0  0  0  0  0  0  0  0  0  0  0
   41.7050   27.9940   33.8750 H   0  0  0  0  0  0  0  0  0  0  0  0
   40.6100   27.4980   31.6790 H   0  0  0  0  0  0  0  0  0  0  0  0
   39.0550   25.5220   31.5430 H   0  0  0  0  0  0  0  0  0  0  0  0
   38.0210   22.7520   36.4970 C   0  0  2  0  0  3  0  0  0  0  0  0
   38.2550   24.0420   35.7810 C   0  0  1  0  0  3  0  0  0  0  0  0
   37.5760   24.9940   36.5340 O   0  0  0  0  0  0  0  0  0  0  0  0
   38.0070   24.7150   37.8300 C   0  0  0  0  0  2  0  0  0  0  0  0
   37.7590   23.2250   37.9310 C   0  0  2  0  0  3  0  0  0  0  0  0
   39.0760   21.8650   36.4260 O   0  0  0  0  0  0  0  0  0  0  0  0
   38.6970   20.9660   36.1700 H   0  0  0  0  0  0  0  0  0  0  0  0
   38.6920   22.6530   38.7960 O   0  0  0  0  0  0  0  0  0  0  0  0
   39.4340   23.3120   38.9750 H   0  0  0  0  0  0  0  0  0  0  0  0
  2  8  1  0  0  0  0
  2  7  1  0  0  0  0
  3  2  2  0  0  0  0
  4  3  1  0  0  0  0
  4  5  2  0  0  0  0
  5  6  1  0  0  0  0
  6  7  2  0  0  0  0
  6  1  1  0  0  0  0
  9  3  1  0  0  0  0
 10  4  1  0  0  0  0
 11 16  1  1  0  0  0
 11 15  1  0  0  0  0
 12  1  1  1  0  0  0
 12 11  1  0  0  0  0
 12 13  1  0  0  0  0
 13 14  1  0  0  0  0
 14 15  1  0  0  0  0
 15 18  1  1  0  0  0
 17 16  1  0  0  0  0
 18 19  1  0  0  0  0
M  END
>  <minimizedAffinity>
-4.12554407

$$$$

 OpenBabel03272509453D

 19 20  0  0  1  0  0  0  0  0999 V2000
   38.5360   23.0860   34.0900 O   0  0  0  0  0  0  0  0  0  0  0  0
   35.9410   22.5930   31.5890 C   0  0  0  0  0  0  0  0  0  0  0  0
   35.7060   23.9480   31.2550 C   0  0  0  0  0  0  0  0  0  0  0  0
   36.4390   24.9510   31.8940 C   0  0  0  0  0  0  0  0  0  0  0  0
   37.3620   24.5530   32.8280 N   0  0  0  0  0  0  0  0  0  0  0  0
   37.5640   23.2530   33.1260 C   0  0  0  0  0  0  0  0  0  0  0  0
   36.8510   22.2820   32.5040 N   0  0  0  0  0  0  0  0  0  0  0  0
   35.3840   21.8000   31.1070 H   0  0  0  0  0  0  0  0  0  0  0  0
   34.9520   24.1900   30.4980 H   0  0  0  0  0  0  0  0  0  0  0  0
   36.2870   25.9770   31.6660 H   0  0  0  0  0  0  0  0  0  0  0  0
   38.2260   22.9980   36.5100 C   0  0  2  0  0  3  0  0  0  0  0  0
   38.3480   23.8350   35.2800 C   0  0  1  0  0  3  0  0  0  0  0  0
   39.5200   24.5630   35.4610 O   0  0  0  0  0  0  0  0  0  0  0  0
   40.4280   23.5780   35.8450 C   0  0  0  0  0  2  0  0  0  0  0  0
   39.6850   22.8830   36.9660 C   0  0  2  0  0  3  0  0  0  0  0  0
   37.6480   21.7620   36.3000 O   0  0  0  0  0  0  0  0  0  0  0  0
   36.9420   21.6350   37.0090 H   0  0  0  0  0  0  0  0  0  0  0  0
   40.0620   21.5410   37.0150 O   0  0  0  0  0  0  0  0  0  0  0  0
   40.5620   21.3010   36.1730 H   0  0  0  0  0  0  0  0  0  0  0  0
  2  7  1  0  0  0  0
  3  2  2  0  0  0  0
  3  4  1  0  0  0  0
  4  5  2  0  0  0  0
  5  6  1  0  0  0  0
  6  1  1  0  0  0  0
  7  6  2  0  0  0  0
  8  2  1  0  0  0  0
  9  3  1  0  0  0  0
 10  4  1  0  0  0  0
 11 16  1  6  0  0  0
 11 15  1  0  0  0  0
 12  1  1  6  0  0  0
 12 13  1  0  0  0  0
 12 11  1  0  0  0  0
 13 14  1  0  0  0  0
 14 15  1  0  0  0  0
 15 18  1  6  0  0  0
 16 17  1  0  0  0  0
 19 18  1  0  0  0  0
M  END
>  <minimizedAffinity>
-4.08364773

$$$$

 OpenBabel03272509453D

 19 20  0  0  1  0  0  0  0  0999 V2000
   36.0400   26.3180   31.0430 O   0  0  0  0  0  0  0  0  0  0  0  0
   35.6640   22.7360   31.5570 C   0  0  0  0  0  0  0  0  0  0  0  0
   36.9480   22.3230   31.1300 C   0  0  0  0  0  0  0  0  0  0  0  0
   37.8690   23.2790   30.6930 C   0  0  0  0  0  0  0  0  0  0  0  0
   37.4620   24.5900   30.7040 N   0  0  0  0  0  0  0  0  0  0  0  0
   36.2310   24.9540   31.1160 C   0  0  0  0  0  0  0  0  0  0  0  0
   35.3410   24.0240   31.5400 N   0  0  0  0  0  0  0  0  0  0  0  0
   34.9360   22.0120   31.8990 H   0  0  0  0  0  0  0  0  0  0  0  0
   37.2020   21.2570   31.1500 H   0  0  0  0  0  0  0  0  0  0  0  0
   38.8400   23.0020   30.3660 H   0  0  0  0  0  0  0  0  0  0  0  0
   37.3320   28.3030   30.4510 C   0  0  2  0  0  3  0  0  0  0  0  0
   37.1820   27.1080   31.3340 C   0  0  1  0  0  3  0  0  0  0  0  0
   36.9700   27.6310   32.6050 O   0  0  0  0  0  0  0  0  0  0  0  0
   35.9760   28.5800   32.3760 C   0  0  0  0  0  2  0  0  0  0  0  0
   36.5540   29.3730   31.2250 C   0  0  2  0  0  3  0  0  0  0  0  0
   36.8450   28.1270   29.1710 O   0  0  0  0  0  0  0  0  0  0  0  0
   37.5510   28.4560   28.5320 H   0  0  0  0  0  0  0  0  0  0  0  0
   35.5200   29.8710   30.4320 O   0  0  0  0  0  0  0  0  0  0  0  0
   34.6560   29.4130   30.6800 H   0  0  0  0  0  0  0  0  0  0  0  0
  1  6  1  0  0  0  0
  2  8  1  0  0  0  0
  3  9  1  0  0  0  0
  3  2  2  0  0  0  0
  4  5  2  0  0  0  0
  4  3  1  0  0  0  0
  5  6  1  0  0  0  0
  6  7  2  0  0  0  0
  7  2  1  0  0  0  0
 10  4  1  0  0  0  0
 11 16  1  6  0  0  0
 11 15  1  0  0  0  0
 11 12  1  0  0  0  0
 12  1  1  6  0  0  0
 12 13  1  0  0  0  0
 14 13  1  0  0  0  0
 15 18  1  6  0  0  0
 15 14  1  0  0  0  0
 17 16  1  0  0  0  0
 18 19  1  0  0  0  0
M  END
>  <minimizedAffinity>
-3.89220452

$$$$

 OpenBabel03272509453D

 19 20  0  0  1  0  0  0  0  0999 V2000
   35.7410   22.0570   31.2440 O   0  0  0  0  0  0  0  0  0  0  0  0
   35.5440   25.6900   31.2170 C   0  0  0  0  0  0  0  0  0  0  0  0
   36.6070   25.9680   32.1090 C   0  0  0  0  0  0  0  0  0  0  0  0
   37.3300   24.9120   32.6680 C   0  0  0  0  0  0  0  0  0  0  0  0
   36.9580   23.6400   32.3110 N   0  0  0  0  0  0  0  0  0  0  0  0
   35.9390   23.4050   31.4590 C   0  0  0  0  0  0  0  0  0  0  0  0
   35.2400   24.4330   30.9180 N   0  0  0  0  0  0  0  0  0  0  0  0
   34.9700   26.4930   30.7730 H   0  0  0  0  0  0  0  0  0  0  0  0
   36.8470   27.0100   32.3470 H   0  0  0  0  0  0  0  0  0  0  0  0
   38.1340   25.0860   33.3400 H   0  0  0  0  0  0  0  0  0  0  0  0
   36.2660   20.1730   32.7040 C   0  0  2  0  0  3  0  0  0  0  0  0
   36.7590   21.2050   31.7450 C   0  0  1  0  0  3  0  0  0  0  0  0
   37.2230   20.4810   30.6520 O   0  0  0  0  0  0  0  0  0  0  0  0
   36.1680   19.6050   30.4040 C   0  0  0  0  0  2  0  0  0  0  0  0
   35.9270   19.0050   31.7720 C   0  0  2  0  0  3  0  0  0  0  0  0
   35.1790   20.5710   33.4570 O   0  0  0  0  0  0  0  0  0  0  0  0
   35.3770   20.3390   34.4180 H   0  0  0  0  0  0  0  0  0  0  0  0
   34.5790   18.6690   31.9050 O   0  0  0  0  0  0  0  0  0  0  0  0
   34.0510   19.0970   31.1600 H   0  0  0  0  0  0  0  0  0  0  0  0
  1  6  1  0  0  0  0
  2  3  1  0  0  0  0
  3  9  1  0  0  0  0
  3  4  2  0  0  0  0
  4 10  1  0  0  0  0
  5  4  1  0  0  0  0
  6  5  2  0  0  0  0
  7  2  2  0  0  0  0
  7  6  1  0  0  0  0
  8  2  1  0  0  0  0
 11 16  1  6  0  0  0
 12  1  1  6  0  0  0
 12 11  1  0  0  0  0
 13 12  1  0  0  0  0
 14 13  1  0  0  0  0
 14 15  1  0  0  0  0
 15 18  1  6  0  0  0
 15 11  1  0  0  0  0
 16 17  1  0  0  0  0
 19 18  1  0  0  0  0
M  END
>  <minimizedAffinity>
-3.88526773

$$$$

 OpenBabel03272509453D

 19 20  0  0  1  0  0  0  0  0999 V2000
   37.8450   24.8770   34.6750 O   0  0  0  0  0  0  0  0  0  0  0  0
   36.7210   27.2990   32.2040 C   0  0  0  0  0  0  0  0  0  0  0  0
   36.3490   28.3440   33.0830 C   0  0  0  0  0  0  0  0  0  0  0  0
   36.5000   28.1710   34.4610 C   0  0  0  0  0  0  0  0  0  0  0  0
   37.0110   26.9710   34.8890 N   0  0  0  0  0  0  0  0  0  0  0  0
   37.3560   25.9920   34.0270 C   0  0  0  0  0  0  0  0  0  0  0  0
   37.2080   26.1640   32.6910 N   0  0  0  0  0  0  0  0  0  0  0  0
   36.6110   27.4120   31.1340 H   0  0  0  0  0  0  0  0  0  0  0  0
   35.9490   29.2760   32.6680 H   0  0  0  0  0  0  0  0  0  0  0  0
   36.2320   28.9360   35.1470 H   0  0  0  0  0  0  0  0  0  0  0  0
   38.5180   24.1860   36.9180 C   0  0  2  0  0  3  0  0  0  0  0  0
   38.6920   25.1410   35.7830 C   0  0  1  0  0  3  0  0  0  0  0  0
   39.9890   24.9230   35.3310 O   0  0  0  0  0  0  0  0  0  0  0  0
   40.0370   23.5350   35.2160 C   0  0  0  0  0  2  0  0  0  0  0  0
   39.5300   23.0880   36.5700 C   0  0  2  0  0  3  0  0  0  0  0  0
   37.2360   23.6900   37.0510 O   0  0  0  0  0  0  0  0  0  0  0  0
   36.9800   23.7770   38.0230 H   0  0  0  0  0  0  0  0  0  0  0  0
   38.8730   21.8630   36.4430 O   0  0  0  0  0  0  0  0  0  0  0  0
   38.7010   21.6730   35.4680 H   0  0  0  0  0  0  0  0  0  0  0  0
  2  7  2  0  0  0  0
  2  3  1  0  0  0  0
  3  4  2  0  0  0  0
  4  5  1  0  0  0  0
  4 10  1  0  0  0  0
  6  1  1  0  0  0  0
  6  5  2  0  0  0  0
  7  6  1  0  0  0  0
  8  2  1  0  0  0  0
  9  3  1  0  0  0  0
 11 16  1  6  0  0  0
 12  1  1  6  0  0  0
 12 11  1  0  0  0  0
 13 12  1  0  0  0  0
 14 13  1  0  0  0  0
 14 15  1  0  0  0  0
 15 18  1  6  0  0  0
 15 11  1  0  0  0  0
 16 17  1  0  0  0  0
 19 18  1  0  0  0  0
M  END
>  <minimizedAffinity>
-3.80902529

$$$$

 OpenBabel03272509453D

 19 20  0  0  1  0  0  0  0  0999 V2000
   38.5240   25.2390   36.1070 O   0  0  0  0  0  0  0  0  0  0  0  0
   36.9840   28.1620   34.5840 C   0  0  0  0  0  0  0  0  0  0  0  0
   36.7000   27.6150   33.3100 C   0  0  0  0  0  0  0  0  0  0  0  0
   37.0450   26.2880   33.0390 C   0  0  0  0  0  0  0  0  0  0  0  0
   37.6520   25.5810   34.0460 N   0  0  0  0  0  0  0  0  0  0  0  0
   37.9110   26.1300   35.2510 C   0  0  0  0  0  0  0  0  0  0  0  0
   37.5740   27.4170   35.5110 N   0  0  0  0  0  0  0  0  0  0  0  0
   36.7250   29.1870   34.8150 H   0  0  0  0  0  0  0  0  0  0  0  0
   36.2120   28.2410   32.5550 H   0  0  0  0  0  0  0  0  0  0  0  0
   36.8460   25.8480   32.0930 H   0  0  0  0  0  0  0  0  0  0  0  0
   39.1300   22.8760   36.1820 C   0  0  2  0  0  3  0  0  0  0  0  0
   38.0570   23.9020   36.0310 C   0  0  1  0  0  3  0  0  0  0  0  0
   37.2350   23.7220   37.1390 O   0  0  0  0  0  0  0  0  0  0  0  0
   38.1520   23.6790   38.1880 C   0  0  0  0  0  2  0  0  0  0  0  0
   39.1450   22.6480   37.6980 C   0  0  2  0  0  3  0  0  0  0  0  0
   40.3640   23.2700   35.7030 O   0  0  0  0  0  0  0  0  0  0  0  0
   40.7180   22.5200   35.1300 H   0  0  0  0  0  0  0  0  0  0  0  0
   40.4110   22.9380   38.2070 O   0  0  0  0  0  0  0  0  0  0  0  0
   40.4130   23.8690   38.5940 H   0  0  0  0  0  0  0  0  0  0  0  0
  2  8  1  0  0  0  0
  2  7  1  0  0  0  0
  3  2  2  0  0  0  0
  4  3  1  0  0  0  0
  4  5  2  0  0  0  0
  5  6  1  0  0  0  0
  6  7  2  0  0  0  0
  6  1  1  0  0  0  0
  9  3  1  0  0  0  0
 10  4  1  0  0  0  0
 11 16  1  1  0  0  0
 11 15  1  0  0  0  0
 12  1  1  1  0  0  0
 12 11  1  0  0  0  0
 12 13  1  0  0  0  0
 13 14  1  0  0  0  0
 15 14  1  0  0  0  0
 15 18  1  1  0  0  0
 17 16  1  0  0  0  0
 18 19  1  0  0  0  0
M  END
>  <minimizedAffinity>
-3.75690627

$$$$

 OpenBabel03272509453D

 19 20  0  0  1  0  0  0  0  0999 V2000
   37.8360   25.2810   35.0730 O   0  0  0  0  0  0  0  0  0  0  0  0
   40.0180   22.9870   36.8640 C   0  0  0  0  0  0  0  0  0  0  0  0
   39.3730   23.0180   38.1230 C   0  0  0  0  0  0  0  0  0  0  0  0
   38.2370   23.8130   38.2950 C   0  0  0  0  0  0  0  0  0  0  0  0
   37.8050   24.5310   37.2080 N   0  0  0  0  0  0  0  0  0  0  0  0
   38.4410   24.4820   36.0200 C   0  0  0  0  0  0  0  0  0  0  0  0
   39.5430   23.7100   35.8570 N   0  0  0  0  0  0  0  0  0  0  0  0
   40.8990   22.3790   36.7090 H   0  0  0  0  0  0  0  0  0  0  0  0
   39.7760   22.4160   38.9460 H   0  0  0  0  0  0  0  0  0  0  0  0
   37.7300   23.8580   39.2270 H   0  0  0  0  0  0  0  0  0  0  0  0
   38.4760   26.7010   33.1930 C   0  0  2  0  0  3  0  0  0  0  0  0
   38.5930   26.4050   34.6520 C   0  0  1  0  0  3  0  0  0  0  0  0
   38.0240   27.5060   35.2830 O   0  0  0  0  0  0  0  0  0  0  0  0
   36.8210   27.6570   34.5970 C   0  0  0  0  0  2  0  0  0  0  0  0
   37.2780   27.6560   33.1540 C   0  0  2  0  0  3  0  0  0  0  0  0
   38.2800   25.5860   32.4020 O   0  0  0  0  0  0  0  0  0  0  0  0
   38.9290   25.6450   31.6320 H   0  0  0  0  0  0  0  0  0  0  0  0
   36.2740   27.1220   32.3450 O   0  0  0  0  0  0  0  0  0  0  0  0
   35.5820   26.6690   32.9230 H   0  0  0  0  0  0  0  0  0  0  0  0
  1  6  1  0  0  0  0
  2  3  1  0  0  0  0
  3  4  2  0  0  0  0
  3  9  1  0  0  0  0
  4 10  1  0  0  0  0
  5  4  1  0  0  0  0
  6  5  2  0  0  0  0
  7  6  1  0  0  0  0
  7  2  2  0  0  0  0
  8  2  1  0  0  0  0
 11 16  1  6  0  0  0
 11 12  1  0  0  0  0
 12  1  1  6  0  0  0
 12 13  1  0  0  0  0
 14 13  1  0  0  0  0
 15 18  1  6  0  0  0
 15 11  1  0  0  0  0
 15 14  1  0  0  0  0
 17 16  1  0  0  0  0
 18 19  1  0  0  0  0
M  END
>  <minimizedAffinity>
-3.74873924

$$$$

 OpenBabel03272509453D

 19 20  0  0  1  0  0  0  0  0999 V2000
   38.0060   24.9150   34.7880 O   0  0  0  0  0  0  0  0  0  0  0  0
   36.4980   28.1840   34.2670 C   0  0  0  0  0  0  0  0  0  0  0  0
   36.5960   28.2430   32.8570 C   0  0  0  0  0  0  0  0  0  0  0  0
   37.1660   27.1730   32.1620 C   0  0  0  0  0  0  0  0  0  0  0  0
   37.6070   26.1070   32.9060 N   0  0  0  0  0  0  0  0  0  0  0  0
   37.5000   26.0800   34.2500 C   0  0  0  0  0  0  0  0  0  0  0  0
   36.9460   27.1190   34.9210 N   0  0  0  0  0  0  0  0  0  0  0  0
   36.0600   29.0010   34.8250 H   0  0  0  0  0  0  0  0  0  0  0  0
   36.2210   29.1280   32.3300 H   0  0  0  0  0  0  0  0  0  0  0  0
   37.2550   27.1860   31.1040 H   0  0  0  0  0  0  0  0  0  0  0  0
   38.5760   24.0480   36.9980 C   0  0  2  0  0  3  0  0  0  0  0  0
   38.8120   25.0790   35.9440 C   0  0  1  0  0  3  0  0  0  0  0  0
   40.1220   24.8680   35.5290 O   0  0  0  0  0  0  0  0  0  0  0  0
   40.1510   23.4910   35.3140 C   0  0  0  0  0  2  0  0  0  0  0  0
   39.5810   22.9570   36.6100 C   0  0  2  0  0  3  0  0  0  0  0  0
   37.2810   23.5700   37.0440 O   0  0  0  0  0  0  0  0  0  0  0  0
   36.9860   23.5910   38.0080 H   0  0  0  0  0  0  0  0  0  0  0  0
   38.9080   21.7590   36.3680 O   0  0  0  0  0  0  0  0  0  0  0  0
   38.7730   21.6440   35.3750 H   0  0  0  0  0  0  0  0  0  0  0  0
  2  8  1  0  0  0  0
  2  7  1  0  0  0  0
  3  2  2  0  0  0  0
  4  3  1  0  0  0  0
  4  5  2  0  0  0  0
  5  6  1  0  0  0  0
  6  1  1  0  0  0  0
  6  7  2  0  0  0  0
  9  3  1  0  0  0  0
 10  4  1  0  0  0  0
 11 16  1  6  0  0  0
 12  1  1  6  0  0  0
 12 11  1  0  0  0  0
 13 12  1  0  0  0  0
 14 13  1  0  0  0  0
 14 15  1  0  0  0  0
 15 18  1  6  0  0  0
 15 11  1  0  0  0  0
 16 17  1  0  0  0  0
 19 18  1  0  0  0  0
M  END
>  <minimizedAffinity>
-3.71310759

$$$$
