
 OpenBabel03272508263D

 38 41  0  0  1  0  0  0  0  0999 V2000
   33.9920   28.9620   47.3420 C   0  0  2  0  0  0  0  0  0  0  0  0
   34.7220   28.2270   48.4540 C   0  0  2  0  0  0  0  0  0  0  0  0
   33.8090   28.0660   49.4510 O   0  0  0  0  0  0  0  0  0  0  0  0
   32.5430   28.1030   48.9590 C   0  0  0  0  0  0  0  0  0  0  0  0
   32.6230   28.2830   47.4580 C   0  0  1  0  0  0  0  0  0  0  0  0
   33.8740   30.0330   47.5420 H   0  0  0  0  0  0  0  0  0  0  0  0
   35.0190   27.2400   48.0860 H   0  0  0  0  0  0  0  0  0  0  0  0
   32.0780   27.1030   49.1330 H   0  0  0  0  0  0  0  0  0  0  0  0
   31.8920   28.8660   49.4480 H   0  0  0  0  0  0  0  0  0  0  0  0
   32.6910   27.3200   46.9380 H   0  0  0  0  0  0  0  0  0  0  0  0
   35.7700   30.5170   49.0360 C   0  0  1  0  0  0  0  0  0  0  0  0
   35.8720   29.0880   48.8720 C   0  0  1  0  0  0  0  0  0  0  0  0
   35.9870   29.6170   50.2630 C   0  0  0  0  0  0  0  0  0  0  0  0
   34.8500   31.1110   49.1870 H   0  0  0  0  0  0  0  0  0  0  0  0
   36.8480   28.7060   48.4550 H   0  0  0  0  0  0  0  0  0  0  0  0
   36.9570   29.6520   50.7750 H   0  0  0  0  0  0  0  0  0  0  0  0
   35.1380   29.3610   50.9070 H   0  0  0  0  0  0  0  0  0  0  0  0
   36.9610   31.4270   48.7910 C   0  0  0  0  0  0  0  0  0  0  0  0
   37.1760   32.4760   49.6870 C   0  0  0  0  0  0  0  0  0  0  0  0
   38.2560   33.2840   49.4080 C   0  0  0  0  0  0  0  0  0  0  0  0
   39.0500   33.0490   48.3150 N   0  0  0  0  0  0  0  0  0  0  0  0
   38.8090   32.0200   47.4660 C   0  0  0  0  0  0  0  0  0  0  0  0
   37.7500   31.1990   47.7090 N   0  0  0  0  0  0  0  0  0  0  0  0
   36.5270   32.6220   50.5310 H   0  0  0  0  0  0  0  0  0  0  0  0
   38.4750   34.1200   50.0740 H   0  0  0  0  0  0  0  0  0  0  0  0
   39.4310   31.8300   46.6020 H   0  0  0  0  0  0  0  0  0  0  0  0
   34.5450   28.7770   46.0900 O   0  0  0  0  0  0  0  0  0  0  0  0
   35.2220   28.0650   46.1520 H   0  0  0  0  0  0  0  0  0  0  0  0
   31.6250   29.0480   46.9220 O   0  0  0  0  0  0  0  0  0  0  0  0
   31.0870   29.5120   44.6790 C   0  0  2  0  0  3  0  0  0  0  0  0
   31.0360   28.5100   45.7950 C   0  0  1  0  0  3  0  0  0  0  0  0
   31.7850   27.4130   45.4030 O   0  0  0  0  0  0  0  0  0  0  0  0
   31.8920   27.4180   44.0410 C   0  0  0  0  0  2  0  0  0  0  0  0
   31.1690   28.5970   43.4750 C   0  0  2  0  0  3  0  0  0  0  0  0
   32.1970   30.3450   44.7390 O   0  0  0  0  0  0  0  0  0  0  0  0
   32.9680   29.9580   45.1900 H   0  0  0  0  0  0  0  0  0  0  0  0
   31.8410   29.1980   42.4160 O   0  0  0  0  0  0  0  0  0  0  0  0
   32.4800   29.8830   42.7280 H   0  0  0  0  0  0  0  0  0  0  0  0
  1  5  1  0  0  0  0
  1  6  1  1  0  0  0
  1  2  1  0  0  0  0
  2  7  1  6  0  0  0
  2 12  1  0  0  0  0
  2  3  1  0  0  0  0
  4  8  1  0  0  0  0
  4  9  1  0  0  0  0
  4  3  1  0  0  0  0
  5 10  1  6  0  0  0
  5  4  1  0  0  0  0
 11 14  1  6  0  0  0
 11 13  1  0  0  0  0
 12 15  1  6  0  0  0
 12 11  1  0  0  0  0
 12 13  1  0  0  0  0
 13 16  1  0  0  0  0
 13 17  1  0  0  0  0
 18 11  1  0  0  0  0
 18 19  1  0  0  0  0
 19 24  1  0  0  0  0
 20 19  2  0  0  0  0
 20 25  1  0  0  0  0
 21 20  1  0  0  0  0
 22 23  1  0  0  0  0
 22 21  2  0  0  0  0
 23 18  2  0  0  0  0
 26 22  1  0  0  0  0
 27 28  1  0  0  0  0
 27  1  1  0  0  0  0
 29  5  1  0  0  0  0
 30 35  1  1  0  0  0
 30 31  1  0  0  0  0
 31 29  1  1  0  0  0
 32 31  1  0  0  0  0
 33 32  1  0  0  0  0
 34 37  1  6  0  0  0
 34 33  1  0  0  0  0
 34 30  1  0  0  0  0
 35 36  1  0  0  0  0
 37 38  1  0  0  0  0
M  END
>  <minimizedAffinity>
-4.78431463

>  <minimizedRMSD>
0.67675972

$$$$
