
 OpenBabel03272509183D

 33 35  0  0  1  0  0  0  0  0999 V2000
   37.2690   31.4300   46.9700 C   0  0  0  0  0  0  0  0  0  0  0  0
   37.0060   31.0530   48.2890 C   0  0  0  0  0  0  0  0  0  0  0  0
   37.8210   31.6690   49.2360 C   0  0  0  0  0  0  0  0  0  0  0  0
   38.8100   32.5820   48.8530 C   0  0  0  0  0  0  0  0  0  0  0  0
   38.9880   32.8870   47.5110 C   0  0  0  0  0  0  0  0  0  0  0  0
   38.2070   32.3020   46.5510 C   0  0  0  0  0  0  0  0  0  0  0  0
   37.6420   31.3990   50.2680 H   0  0  0  0  0  0  0  0  0  0  0  0
   39.3800   32.9970   49.6690 H   0  0  0  0  0  0  0  0  0  0  0  0
   39.7770   33.5970   47.3850 H   0  0  0  0  0  0  0  0  0  0  0  0
   34.7590   30.1130   48.0290 C   0  0  0  0  0  0  0  0  0  0  0  0
   35.9910   30.1170   48.6680 C   0  0  0  0  0  0  0  0  0  0  0  0
   36.1830   29.1740   49.6840 C   0  0  0  0  0  0  0  0  0  0  0  0
   35.1640   28.3220   49.9810 N   0  0  0  0  0  0  0  0  0  0  0  0
   33.9860   28.3580   49.3310 C   0  0  0  0  0  0  0  0  0  0  0  0
   33.7860   29.2490   48.3600 N   0  0  0  0  0  0  0  0  0  0  0  0
   34.5190   30.8050   47.2290 H   0  0  0  0  0  0  0  0  0  0  0  0
   33.3030   27.6060   49.7050 H   0  0  0  0  0  0  0  0  0  0  0  0
   37.4790   29.1170   50.4170 C   0  0  0  0  0  0  0  0  0  0  0  0
   37.3020   29.0950   51.5150 H   0  0  0  0  0  0  0  0  0  0  0  0
   38.0360   30.0450   50.1910 H   0  0  0  0  0  0  0  0  0  0  0  0
   38.0770   28.2520   50.0750 H   0  0  0  0  0  0  0  0  0  0  0  0
   36.4810   30.8450   45.9560 O   0  0  0  0  0  0  0  0  0  0  0  0
   36.6490   29.8730   45.6890 H   0  0  0  0  0  0  0  0  0  0  0  0
   38.4020   32.6180   45.2310 O   0  0  0  0  0  0  0  0  0  0  0  0
   39.7920   30.7700   44.6540 C   0  0  1  0  0  3  0  0  0  0  0  0
   39.4870   32.2420   44.4390 C   0  0  1  0  0  3  0  0  0  0  0  0
   39.0160   32.2840   43.1010 O   0  0  0  0  0  0  0  0  0  0  0  0
   40.0750   31.6150   42.4700 C   0  0  0  0  0  2  0  0  0  0  0  0
   40.0950   30.3040   43.2550 C   0  0  1  0  0  3  0  0  0  0  0  0
   40.8530   30.5460   45.5050 O   0  0  0  0  0  0  0  0  0  0  0  0
   41.1450   31.3880   45.9670 H   0  0  0  0  0  0  0  0  0  0  0  0
   41.3380   29.6800   43.1640 O   0  0  0  0  0  0  0  0  0  0  0  0
   41.7340   29.9920   42.3120 H   0  0  0  0  0  0  0  0  0  0  0  0
  1  2  1  0  0  0  0
  2 11  1  0  0  0  0
  2  3  2  0  0  0  0
  3  7  1  0  0  0  0
  4  3  1  0  0  0  0
  4  8  1  0  0  0  0
  5  4  2  0  0  0  0
  6  1  2  0  0  0  0
  6  5  1  0  0  0  0
  9  5  1  0  0  0  0
 10 15  2  0  0  0  0
 10 11  1  0  0  0  0
 11 12  2  0  0  0  0
 12 13  1  0  0  0  0
 12 18  1  0  0  0  0
 14 17  1  0  0  0  0
 14 13  2  0  0  0  0
 15 14  1  0  0  0  0
 16 10  1  0  0  0  0
 18 19  1  0  0  0  0
 20 18  1  0  0  0  0
 21 18  1  0  0  0  0
 22  1  1  0  0  0  0
 23 22  1  0  0  0  0
 24  6  1  0  0  0  0
 25 30  1  1  0  0  0
 26 25  1  0  0  0  0
 26 24  1  1  0  0  0
 27 26  1  0  0  0  0
 28 27  1  0  0  0  0
 28 29  1  0  0  0  0
 29 32  1  1  0  0  0
 29 25  1  0  0  0  0
 30 31  1  0  0  0  0
 33 32  1  0  0  0  0
M  END
>  <minimizedAffinity>
-6.85590553

>  <minimizedRMSD>
3.16750741

$$$$
