
 OpenBabel03262521093D

 24 25  0  0  1  0  0  0  0  0999 V2000
   35.5150   30.0810   46.5230 O   0  0  0  0  0  0  0  0  0  0  0  0
   34.3130   29.9180   47.4380 P   0  0  1  0  0  0  0  0  0  0  0  0
   34.0080   28.2850   47.7530 O   0  0  0  0  0  0  0  0  0  0  0  0
   33.7020   27.8960   46.8790 H   0  0  0  0  0  0  0  0  0  0  0  0
   34.5530   30.6730   48.9520 O   0  0  0  0  0  0  0  0  0  0  0  0
   35.7340   30.5390   49.6690 C   0  0  0  0  0  0  0  0  0  0  0  0
   35.9730   29.5570   50.6510 C   0  0  0  0  0  0  0  0  0  0  0  0
   37.2090   29.5560   51.2790 C   0  0  0  0  0  0  0  0  0  0  0  0
   38.1370   30.4900   50.9320 N   0  0  0  0  0  0  0  0  0  0  0  0
   37.8670   31.4240   49.9770 C   0  0  0  0  0  0  0  0  0  0  0  0
   36.6700   31.4430   49.3530 N   0  0  0  0  0  0  0  0  0  0  0  0
   35.1550   28.8670   50.8400 H   0  0  0  0  0  0  0  0  0  0  0  0
   37.3740   28.7960   52.0290 H   0  0  0  0  0  0  0  0  0  0  0  0
   38.6210   32.1640   49.7110 H   0  0  0  0  0  0  0  0  0  0  0  0
   33.0110   30.6450   46.6410 O   0  0  0  0  0  0  0  0  0  0  0  0
   31.0750   29.5540   45.7150 C   0  0  1  0  0  0  0  0  0  0  0  0
   32.5310   29.8980   45.5770 C   0  0  2  0  0  0  0  0  0  0  0  0
   33.1520   28.6840   45.4280 O   0  0  0  0  0  0  0  0  0  0  0  0
   32.3740   28.1030   44.3990 C   0  0  0  0  0  0  0  0  0  0  0  0
   30.9520   28.2940   44.8870 C   0  0  2  0  0  0  0  0  0  0  0  0
   30.7150   29.2690   47.0330 O   0  0  0  0  0  0  0  0  0  0  0  0
   31.2720   29.7480   47.6990 H   0  0  0  0  0  0  0  0  0  0  0  0
   30.0390   28.5130   43.8860 O   0  0  0  0  0  0  0  0  0  0  0  0
   30.2700   27.9100   43.1320 H   0  0  0  0  0  0  0  0  0  0  0  0
  2  1  2  6  0  0  0
  2  3  1  0  0  0  0
  2  5  1  0  0  0  0
  4  3  1  0  0  0  0
  5  6  1  0  0  0  0
  6  7  1  0  0  0  0
  7 12  1  0  0  0  0
  7  8  2  0  0  0  0
  8 13  1  0  0  0  0
  9  8  1  0  0  0  0
 10  9  2  0  0  0  0
 11  6  2  0  0  0  0
 11 10  1  0  0  0  0
 14 10  1  0  0  0  0
 15  2  1  0  0  0  0
 16 21  1  1  0  0  0
 17 16  1  0  0  0  0
 17 15  1  1  0  0  0
 18 17  1  0  0  0  0
 19 20  1  0  0  0  0
 19 18  1  0  0  0  0
 20 23  1  6  0  0  0
 20 16  1  0  0  0  0
 21 22  1  0  0  0  0
 24 23  1  0  0  0  0
M  END
>  <minimizedAffinity>
-4.03646755

>  <minimizedRMSD>
1.44165802

$$$$
