
     RDKit          3D

 43 46  0  0  0  0  0  0  0  0999 V2000
   35.8171   30.5392   49.0698 C   0  0  1  0  0  0  0  0  0  0  0  0
   35.9061   29.1177   48.8373 C   0  0  1  0  0  0  0  0  0  0  0  0
   36.0732   29.5828   50.2464 C   0  0  0  0  0  0  0  0  0  0  0  0
   37.0035   31.4551   48.8240 C   0  0  0  0  0  0  0  0  0  0  0  0
   37.1934   32.5259   49.6995 C   0  0  0  0  0  0  0  0  0  0  0  0
   38.2704   33.3378   49.4209 C   0  0  0  0  0  0  0  0  0  0  0  0
   39.0851   33.0866   48.3467 N   0  0  0  0  0  0  0  0  0  0  0  0
   38.8678   32.0356   47.5181 C   0  0  0  0  0  0  0  0  0  0  0  0
   37.8133   31.2102   47.7615 N   0  0  0  0  0  0  0  0  0  0  0  0
   33.9692   29.0710   47.3749 C   0  0  2  0  0  0  0  0  0  0  0  0
   34.7380   28.2808   48.4212 C   0  0  2  0  0  0  0  0  0  0  0  0
   33.8630   28.0732   49.4431 O   0  0  0  0  0  0  0  0  0  0  0  0
   32.5793   28.1369   49.0023 C   0  0  0  0  0  0  0  0  0  0  0  0
   32.6030   28.3898   47.5101 C   0  0  1  0  0  0  0  0  0  0  0  0
   34.4741   28.9469   46.0960 O   0  0  0  0  0  0  0  0  0  0  0  0
   31.5894   29.1834   47.0502 O   0  0  0  0  0  0  0  0  0  0  0  0
   34.9061   31.1285   49.2802 H   0  0  0  0  0  0  0  0  0  0  0  0
   36.8649   28.7516   48.3692 H   0  0  0  0  0  0  0  0  0  0  0  0
   37.0614   29.5912   50.7240 H   0  0  0  0  0  0  0  0  0  0  0  0
   35.2459   29.3002   50.9066 H   0  0  0  0  0  0  0  0  0  0  0  0
   36.5284   32.6843   50.5289 H   0  0  0  0  0  0  0  0  0  0  0  0
   38.4694   34.1912   50.0714 H   0  0  0  0  0  0  0  0  0  0  0  0
   39.5066   31.8328   46.6695 H   0  0  0  0  0  0  0  0  0  0  0  0
   33.8633   30.1318   47.6317 H   0  0  0  0  0  0  0  0  0  0  0  0
   35.0171   27.3133   47.9954 H   0  0  0  0  0  0  0  0  0  0  0  0
   32.1167   27.1312   49.1446 H   0  0  0  0  0  0  0  0  0  0  0  0
   31.9503   28.8766   49.5516 H   0  0  0  0  0  0  0  0  0  0  0  0
   32.6481   27.4538   46.9410 H   0  0  0  0  0  0  0  0  0  0  0  0
   35.1504   28.2307   46.0972 H   0  0  0  0  0  0  0  0  0  0  0  0
   32.6760   29.6133   44.7252 O   0  0  0  0  0  0  0  0  0  0  0  0
   31.3340   29.2552   44.7123 C   0  0  2  0  0  0  0  0  0  0  0  0
   30.8719   28.6415   46.0023 C   0  0  1  0  0  0  0  0  0  0  0  0
   31.1553   27.2872   45.9431 O   0  0  0  0  0  0  0  0  0  0  0  0
   31.2952   26.9232   44.6341 C   0  0  0  0  0  0  0  0  0  0  0  0
   31.0953   28.1104   43.7490 C   0  0  2  0  0  0  0  0  0  0  0  0
   31.9759   28.1508   42.6729 O   0  0  0  0  0  0  0  0  0  0  0  0
   33.2271   29.0930   45.3356 H   0  0  0  0  0  0  0  0  0  0  0  0
   30.7448   30.1595   44.4382 H   0  0  0  0  0  0  0  0  0  0  0  0
   29.7836   28.7346   46.0925 H   0  0  0  0  0  0  0  0  0  0  0  0
   30.4803   26.2017   44.3922 H   0  0  0  0  0  0  0  0  0  0  0  0
   32.2603   26.4065   44.4028 H   0  0  0  0  0  0  0  0  0  0  0  0
   30.0641   28.1745   43.3423 H   0  0  0  0  0  0  0  0  0  0  0  0
   32.8193   28.6085   42.9059 H   0  0  0  0  0  0  0  0  0  0  0  0
  1  3  1  0
  2  1  1  0
  2  3  1  0
  4  1  1  0
  4  5  2  0
  6  5  1  0
  7  6  2  0
  8  9  2  0
  8  7  1  0
  9  4  1  0
 10 15  1  0
 10 14  1  0
 10 11  1  0
 11  2  1  0
 11 12  1  0
 13 12  1  0
 14 16  1  0
 14 13  1  0
  1 17  1  1
  2 18  1  6
  3 19  1  0
  3 20  1  0
  5 21  1  0
  6 22  1  0
  8 23  1  0
 10 24  1  1
 11 25  1  6
 13 26  1  0
 13 27  1  0
 14 28  1  6
 15 29  1  0
 30 31  1  0
 31 32  1  0
 32 33  1  0
 33 34  1  0
 34 35  1  0
 35 36  1  0
 35 31  1  0
 30 37  1  0
 31 38  1  6
 32 39  1  1
 34 40  1  0
 34 41  1  0
 35 42  1  6
 36 43  1  0
 16 32  1  0
M  ISO  8  17  13  18  13  19  13  20  13  21  14  22  14  23  14  24  13
M  ISO  5  25  13  26  13  27  13  28  13  29   3
M  END
>  <DihAtoms>  (1) 
13,15,31,30

>  <DihDeg>  (1) 
124.18438754169313

$$$$
