
     RDKit          3D

 24 25  0  0  0  0  0  0  0  0999 V2000
   37.3255   30.2320   51.4336 C   0  0  0  0  0  0  0  0  0  0  0  0
   38.0693   30.7293   50.3376 C   0  0  0  0  0  0  0  0  0  0  0  0
   37.7000   30.3742   49.0378 C   0  0  0  0  0  0  0  0  0  0  0  0
   36.6137   29.5457   48.9003 N   0  0  0  0  0  0  0  0  0  0  0  0
   35.9236   29.0870   49.9640 C   0  0  0  0  0  0  0  0  0  0  0  0
   36.2847   29.4336   51.2241 N   0  0  0  0  0  0  0  0  0  0  0  0
   34.8751   28.2733   49.5915 O   0  0  0  0  0  0  0  0  0  0  0  0
   37.5942   30.4944   52.4486 H   0  0  0  0  0  0  0  0  0  0  0  0
   38.9249   31.3866   50.5262 H   0  0  0  0  0  0  0  0  0  0  0  0
   38.2370   30.7302   48.1936 H   0  0  0  0  0  0  0  0  0  0  0  0
   34.0474   30.0058   51.5254 O   0  0  0  0  0  0  0  0  0  0  0  0
   33.3873   28.7952   51.4561 C   0  0  2  0  0  0  0  0  0  0  0  0
   34.1012   27.7516   50.6613 C   0  0  1  0  0  0  0  0  0  0  0  0
   33.0893   27.0027   50.0687 O   0  0  0  0  0  0  0  0  0  0  0  0
   32.2642   27.9885   49.5292 C   0  0  0  0  0  0  0  0  0  0  0  0
   32.0512   28.9056   50.7129 C   0  0  2  0  0  0  0  0  0  0  0  0
   31.8673   30.2136   50.2645 O   0  0  0  0  0  0  0  0  0  0  0  0
   34.0511   30.2919   52.4924 H   0  0  0  0  0  0  0  0  0  0  0  0
   33.2009   28.3729   52.4724 H   0  0  0  0  0  0  0  0  0  0  0  0
   34.7239   27.1310   51.3548 H   0  0  0  0  0  0  0  0  0  0  0  0
   32.6935   28.4955   48.6651 H   0  0  0  0  0  0  0  0  0  0  0  0
   31.3078   27.4819   49.2247 H   0  0  0  0  0  0  0  0  0  0  0  0
   31.2343   28.5338   51.3461 H   0  0  0  0  0  0  0  0  0  0  0  0
   32.1316   30.2773   49.2932 H   0  0  0  0  0  0  0  0  0  0  0  0
  2  1  2  0
  3  2  1  0
  4  3  2  0
  4  5  1  0
  5  6  2  0
  6  1  1  0
  7  5  1  0
  1  8  1  0
  2  9  1  0
  3 10  1  0
 11 12  1  0
 12 13  1  0
 13 14  1  0
 14 15  1  0
 15 16  1  0
 16 17  1  0
 16 12  1  0
 11 18  1  0
 12 19  1  1
 13 20  1  1
 15 21  1  0
 15 22  1  0
 16 23  1  1
 17 24  1  0
  7 13  1  0
M  ISO  3   8  14   9  14  10  14
M  END
>  <DihAtoms>  (1) 
4,6,12,11

>  <DihDeg>  (1) 
123.71827117221825

$$$$
