
 OpenBabel03262521443D

 46 49  0  0  1  0  0  0  0  0999 V2000
   37.7470   30.5890   45.1040 C   0  0  2  0  0  0  0  0  0  0  0  0
   38.6010   31.2310   46.1810 C   0  0  2  0  0  0  0  0  0  0  0  0
   40.0300   30.9380   45.8690 C   0  0  0  0  0  0  0  0  0  0  0  0
   40.2420   30.8700   44.5230 O   0  0  0  0  0  0  0  0  0  0  0  0
   39.4990   31.8490   43.8860 C   0  0  0  0  0  0  0  0  0  0  0  0
   38.0720   31.4120   43.8280 C   0  0  2  0  0  0  0  0  0  0  0  0
   38.1280   29.5610   44.9340 H   0  0  0  0  0  0  0  0  0  0  0  0
   38.4400   32.2790   45.8790 H   0  0  0  0  0  0  0  0  0  0  0  0
   40.7330   31.6920   46.2980 H   0  0  0  0  0  0  0  0  0  0  0  0
   40.3610   29.9760   46.3660 H   0  0  0  0  0  0  0  0  0  0  0  0
   39.8770   31.8690   42.8390 H   0  0  0  0  0  0  0  0  0  0  0  0
   39.6800   32.8250   44.3270 H   0  0  0  0  0  0  0  0  0  0  0  0
   37.8790   30.7960   42.9340 H   0  0  0  0  0  0  0  0  0  0  0  0
   36.4050   30.6690   45.2520 O   0  0  0  0  0  0  0  0  0  0  0  0
   36.0770   29.7790   45.5710 H   0  0  0  0  0  0  0  0  0  0  0  0
   38.2620   30.9520   47.4700 O   0  0  0  0  0  0  0  0  0  0  0  0
   37.5620   31.9430   48.0330 C   0  0  1  0  0  0  0  0  0  0  0  0
   36.8100   31.5570   49.2810 C   0  0  2  0  0  0  0  0  0  0  0  0
   38.0220   31.1570   50.1330 C   0  0  0  0  0  0  0  0  0  0  0  0
   38.9940   32.0980   49.9050 O   0  0  0  0  0  0  0  0  0  0  0  0
   38.6440   32.7700   48.8010 C   0  0  0  0  0  0  0  0  0  0  0  0
   37.2170   32.7790   47.3810 H   0  0  0  0  0  0  0  0  0  0  0  0
   36.3460   32.4660   49.6730 H   0  0  0  0  0  0  0  0  0  0  0  0
   38.3090   30.1360   49.8780 H   0  0  0  0  0  0  0  0  0  0  0  0
   37.6840   31.2800   51.1860 H   0  0  0  0  0  0  0  0  0  0  0  0
   39.1860   33.5040   48.3210 H   0  0  0  0  0  0  0  0  0  0  0  0
   37.8760   33.4970   49.2910 H   0  0  0  0  0  0  0  0  0  0  0  0
   35.9040   30.4230   49.0530 C   0  0  0  0  0  0  0  0  0  0  0  0
   34.9250   30.5560   48.0680 C   0  0  0  0  0  0  0  0  0  0  0  0
   34.0550   29.4470   47.8850 C   0  0  0  0  0  0  0  0  0  0  0  0
   34.2260   28.3340   48.6700 N   0  0  0  0  0  0  0  0  0  0  0  0
   35.1920   28.2540   49.6130 C   0  0  0  0  0  0  0  0  0  0  0  0
   36.0240   29.2990   49.7970 N   0  0  0  0  0  0  0  0  0  0  0  0
   34.7960   31.4280   47.4570 H   0  0  0  0  0  0  0  0  0  0  0  0
   33.2820   29.4980   47.1360 H   0  0  0  0  0  0  0  0  0  0  0  0
   35.2950   27.3600   50.2120 H   0  0  0  0  0  0  0  0  0  0  0  0
   37.2810   32.5620   43.8040 O   0  0  0  0  0  0  0  0  0  0  0  0
   36.5370   33.4810   41.7260 C   0  0  2  0  0  0  0  0  0  0  0  0
   36.2720   32.5580   42.8980 C   0  0  1  0  0  0  0  0  0  0  0  0
   36.1840   31.2700   42.3840 O   0  0  0  0  0  0  0  0  0  0  0  0
   36.4750   31.2610   41.0550 C   0  0  0  0  0  0  0  0  0  0  0  0
   36.1280   32.6300   40.5080 C   0  0  1  0  0  0  0  0  0  0  0  0
   37.8750   33.8530   41.6150 O   0  0  0  0  0  0  0  0  0  0  0  0
   37.9670   34.8340   41.7160 H   0  0  0  0  0  0  0  0  0  0  0  0
   34.7730   32.6710   40.2690 O   0  0  0  0  0  0  0  0  0  0  0  0
   34.4100   31.7380   40.1340 H   0  0  0  0  0  0  0  0  0  0  0  0
  1  7  1  6  0  0  0
  1 14  1  0  0  0  0
  1  2  1  0  0  0  0
  2  8  1  6  0  0  0
  2 16  1  0  0  0  0
  3  2  1  0  0  0  0
  3  9  1  0  0  0  0
  3 10  1  0  0  0  0
  4  3  1  0  0  0  0
  5 12  1  0  0  0  0
  5  4  1  0  0  0  0
  6 13  1  6  0  0  0
  6  5  1  0  0  0  0
  6  1  1  0  0  0  0
 11  5  1  0  0  0  0
 14 15  1  0  0  0  0
 16 17  1  0  0  0  0
 17 22  1  6  0  0  0
 17 21  1  0  0  0  0
 17 18  1  0  0  0  0
 18 23  1  1  0  0  0
 18 19  1  0  0  0  0
 19 25  1  0  0  0  0
 20 19  1  0  0  0  0
 21 27  1  0  0  0  0
 21 20  1  0  0  0  0
 24 19  1  0  0  0  0
 26 21  1  0  0  0  0
 28 18  1  0  0  0  0
 28 33  1  0  0  0  0
 29 28  2  0  0  0  0
 30 29  1  0  0  0  0
 30 31  2  0  0  0  0
 31 32  1  0  0  0  0
 32 33  2  0  0  0  0
 32 36  1  0  0  0  0
 34 29  1  0  0  0  0
 35 30  1  0  0  0  0
 37  6  1  0  0  0  0
 38 43  1  6  0  0  0
 38 39  1  0  0  0  0
 39 37  1  1  0  0  0
 40 39  1  0  0  0  0
 41 40  1  0  0  0  0
 42 45  1  1  0  0  0
 42 41  1  0  0  0  0
 42 38  1  0  0  0  0
 43 44  1  0  0  0  0
 46 45  1  0  0  0  0
M  END
>  <minimizedAffinity>
-5.44682598

>  <minimizedRMSD>
3.36838603

$$$$
