
 OpenBabel03272501063D

 30 32  0  0  1  0  0  0  0  0999 V2000
   37.8190   25.5430   35.4670 C   0  0  2  0  0  0  0  0  0  0  0  0
   38.3020   25.9150   34.0720 C   0  0  2  0  0  0  0  0  0  0  0  0
   37.8090   27.3040   33.9620 C   0  0  0  0  0  0  0  0  0  0  0  0
   37.9930   27.8760   35.2170 O   0  0  0  0  0  0  0  0  0  0  0  0
   38.1530   26.8920   36.1420 C   0  0  0  0  0  0  0  0  0  0  0  0
   36.7330   25.3960   35.5070 H   0  0  0  0  0  0  0  0  0  0  0  0
   39.4220   25.8580   34.1600 H   0  0  0  0  0  0  0  0  0  0  0  0
   38.3810   27.8500   33.1820 H   0  0  0  0  0  0  0  0  0  0  0  0
   36.7190   27.2590   33.7330 H   0  0  0  0  0  0  0  0  0  0  0  0
   39.2050   26.8350   36.4760 H   0  0  0  0  0  0  0  0  0  0  0  0
   37.4960   27.0040   37.0220 H   0  0  0  0  0  0  0  0  0  0  0  0
   36.3010   24.2310   31.3500 C   0  0  0  0  0  0  0  0  0  0  0  0
   36.6570   25.2070   32.3090 C   0  0  0  0  0  0  0  0  0  0  0  0
   37.8510   24.9900   33.0480 C   0  0  0  0  0  0  0  0  0  0  0  0
   38.5690   23.8580   32.7800 N   0  0  0  0  0  0  0  0  0  0  0  0
   38.2050   22.9580   31.8710 C   0  0  0  0  0  0  0  0  0  0  0  0
   37.0650   23.1290   31.1400 N   0  0  0  0  0  0  0  0  0  0  0  0
   35.3940   24.3640   30.7650 H   0  0  0  0  0  0  0  0  0  0  0  0
   36.0510   26.0850   32.4760 H   0  0  0  0  0  0  0  0  0  0  0  0
   38.8780   22.1150   31.7750 H   0  0  0  0  0  0  0  0  0  0  0  0
   38.5840   24.5440   36.0230 O   0  0  0  0  0  0  0  0  0  0  0  0
   38.9420   22.2180   36.2060 C   0  0  2  0  0  3  0  0  0  0  0  0
   37.9670   23.3390   36.2200 C   0  0  1  0  0  3  0  0  0  0  0  0
   37.6620   23.2790   37.6670 O   0  0  0  0  0  0  0  0  0  0  0  0
   38.9240   23.3410   38.2540 C   0  0  0  0  0  2  0  0  0  0  0  0
   39.9070   22.6940   37.3120 C   0  0  1  0  0  3  0  0  0  0  0  0
   39.6640   22.1140   35.0570 O   0  0  0  0  0  0  0  0  0  0  0  0
   39.7000   21.2170   34.6820 H   0  0  0  0  0  0  0  0  0  0  0  0
   40.5800   21.6370   37.8700 O   0  0  0  0  0  0  0  0  0  0  0  0
   41.5560   21.8120   37.8550 H   0  0  0  0  0  0  0  0  0  0  0  0
  1  6  1  1  0  0  0
  1 21  1  0  0  0  0
  1  5  1  0  0  0  0
  2  7  1  1  0  0  0
  2  1  1  0  0  0  0
  3  2  1  0  0  0  0
  3  4  1  0  0  0  0
  4  5  1  0  0  0  0
  5 10  1  0  0  0  0
  5 11  1  0  0  0  0
  8  3  1  0  0  0  0
  9  3  1  0  0  0  0
 12 13  1  0  0  0  0
 13 19  1  0  0  0  0
 13 14  2  0  0  0  0
 14  2  1  0  0  0  0
 15 14  1  0  0  0  0
 16 15  2  0  0  0  0
 17 12  2  0  0  0  0
 17 16  1  0  0  0  0
 18 12  1  0  0  0  0
 20 16  1  0  0  0  0
 22 27  1  6  0  0  0
 22 23  1  0  0  0  0
 22 26  1  0  0  0  0
 23 21  1  1  0  0  0
 23 24  1  0  0  0  0
 24 25  1  0  0  0  0
 26 29  1  1  0  0  0
 26 25  1  0  0  0  0
 28 27  1  0  0  0  0
 30 29  1  0  0  0  0
M  END
>  <minimizedAffinity>
-4.96882153

$$$$

 OpenBabel03272501063D

 30 32  0  0  1  0  0  0  0  0999 V2000
   38.7940   25.2720   34.8870 C   0  0  2  0  0  0  0  0  0  0  0  0
   39.6870   26.5050   34.8960 C   0  0  2  0  0  0  0  0  0  0  0  0
   39.0000   27.3620   33.9080 C   0  0  0  0  0  0  0  0  0  0  0  0
   37.6370   27.1720   34.1190 O   0  0  0  0  0  0  0  0  0  0  0  0
   37.4460   26.0250   34.8240 C   0  0  0  0  0  0  0  0  0  0  0  0
   38.9050   24.6840   33.9690 H   0  0  0  0  0  0  0  0  0  0  0  0
   39.5890   26.8920   35.9480 H   0  0  0  0  0  0  0  0  0  0  0  0
   39.2870   28.4230   34.0600 H   0  0  0  0  0  0  0  0  0  0  0  0
   39.2710   26.9920   32.8920 H   0  0  0  0  0  0  0  0  0  0  0  0
   37.1500   26.2480   35.8650 H   0  0  0  0  0  0  0  0  0  0  0  0
   36.7010   25.3490   34.3700 H   0  0  0  0  0  0  0  0  0  0  0  0
   43.2540   26.6830   33.6710 C   0  0  0  0  0  0  0  0  0  0  0  0
   41.9180   27.0890   33.8970 C   0  0  0  0  0  0  0  0  0  0  0  0
   41.0810   26.2000   34.6240 C   0  0  0  0  0  0  0  0  0  0  0  0
   41.6230   25.0210   35.0520 N   0  0  0  0  0  0  0  0  0  0  0  0
   42.8840   24.6690   34.8210 C   0  0  0  0  0  0  0  0  0  0  0  0
   43.7220   25.4930   34.1270 N   0  0  0  0  0  0  0  0  0  0  0  0
   43.9230   27.3380   33.1180 H   0  0  0  0  0  0  0  0  0  0  0  0
   41.5450   28.0360   33.5360 H   0  0  0  0  0  0  0  0  0  0  0  0
   43.1640   23.7040   35.2240 H   0  0  0  0  0  0  0  0  0  0  0  0
   38.8790   24.5720   36.0670 O   0  0  0  0  0  0  0  0  0  0  0  0
   39.3060   22.2520   36.1570 C   0  0  2  0  0  3  0  0  0  0  0  0
   38.2930   23.3350   36.0890 C   0  0  1  0  0  3  0  0  0  0  0  0
   37.7710   23.1640   37.4630 O   0  0  0  0  0  0  0  0  0  0  0  0
   38.9230   23.2280   38.2430 C   0  0  0  0  0  2  0  0  0  0  0  0
   40.0670   22.6820   37.4280 C   0  0  1  0  0  3  0  0  0  0  0  0
   40.2020   22.2530   35.1320 O   0  0  0  0  0  0  0  0  0  0  0  0
   40.3340   21.3860   34.7100 H   0  0  0  0  0  0  0  0  0  0  0  0
   40.6930   21.6120   38.0170 O   0  0  0  0  0  0  0  0  0  0  0  0
   41.6500   21.8200   38.1660 H   0  0  0  0  0  0  0  0  0  0  0  0
  1  6  1  6  0  0  0
  1  2  1  0  0  0  0
  1 21  1  0  0  0  0
  2  7  1  1  0  0  0
  3  8  1  0  0  0  0
  3  4  1  0  0  0  0
  3  2  1  0  0  0  0
  4  5  1  0  0  0  0
  5  1  1  0  0  0  0
  5 10  1  0  0  0  0
  9  3  1  0  0  0  0
 11  5  1  0  0  0  0
 12 13  2  0  0  0  0
 12 17  1  0  0  0  0
 13 14  1  0  0  0  0
 14  2  1  0  0  0  0
 14 15  2  0  0  0  0
 16 15  1  0  0  0  0
 16 20  1  0  0  0  0
 17 16  2  0  0  0  0
 18 12  1  0  0  0  0
 19 13  1  0  0  0  0
 22 27  1  6  0  0  0
 22 26  1  0  0  0  0
 23 21  1  1  0  0  0
 23 22  1  0  0  0  0
 23 24  1  0  0  0  0
 24 25  1  0  0  0  0
 26 29  1  1  0  0  0
 26 25  1  0  0  0  0
 28 27  1  0  0  0  0
 29 30  1  0  0  0  0
M  END
>  <minimizedAffinity>
-4.87614679

$$$$

 OpenBabel03272501063D

 30 32  0  0  1  0  0  0  0  0999 V2000
   37.5830   23.7700   33.1170 C   0  0  2  0  0  0  0  0  0  0  0  0
   37.6070   22.8390   31.9120 C   0  0  2  0  0  0  0  0  0  0  0  0
   37.1440   23.7460   30.8420 C   0  0  0  0  0  0  0  0  0  0  0  0
   37.7340   24.9790   31.1030 O   0  0  0  0  0  0  0  0  0  0  0  0
   38.1530   25.0130   32.3970 C   0  0  0  0  0  0  0  0  0  0  0  0
   36.5630   23.9990   33.4470 H   0  0  0  0  0  0  0  0  0  0  0  0
   38.6950   22.5690   31.8120 H   0  0  0  0  0  0  0  0  0  0  0  0
   37.4530   23.3540   29.8510 H   0  0  0  0  0  0  0  0  0  0  0  0
   36.0370   23.8400   30.9330 H   0  0  0  0  0  0  0  0  0  0  0  0
   39.2540   24.9440   32.4550 H   0  0  0  0  0  0  0  0  0  0  0  0
   37.8140   25.9090   32.9460 H   0  0  0  0  0  0  0  0  0  0  0  0
   35.8180   19.5600   31.3660 C   0  0  0  0  0  0  0  0  0  0  0  0
   36.6100   20.6930   31.0670 C   0  0  0  0  0  0  0  0  0  0  0  0
   36.8270   21.6300   32.1120 C   0  0  0  0  0  0  0  0  0  0  0  0
   36.2590   21.3720   33.3280 N   0  0  0  0  0  0  0  0  0  0  0  0
   35.5180   20.2960   33.5760 C   0  0  0  0  0  0  0  0  0  0  0  0
   35.2840   19.3710   32.5990 N   0  0  0  0  0  0  0  0  0  0  0  0
   35.6300   18.8210   30.5900 H   0  0  0  0  0  0  0  0  0  0  0  0
   37.0360   20.8430   30.0860 H   0  0  0  0  0  0  0  0  0  0  0  0
   35.1370   20.2330   34.5870 H   0  0  0  0  0  0  0  0  0  0  0  0
   38.4570   23.3610   34.0960 O   0  0  0  0  0  0  0  0  0  0  0  0
   38.2960   22.7470   36.3700 C   0  0  2  0  0  3  0  0  0  0  0  0
   38.2260   23.8330   35.3590 C   0  0  1  0  0  3  0  0  0  0  0  0
   39.4730   24.5200   35.7630 O   0  0  0  0  0  0  0  0  0  0  0  0
   40.4160   23.4940   35.7360 C   0  0  0  0  0  2  0  0  0  0  0  0
   39.7110   22.2060   36.0790 C   0  0  1  0  0  3  0  0  0  0  0  0
   37.4220   21.7250   36.1590 O   0  0  0  0  0  0  0  0  0  0  0  0
   36.9120   21.4610   36.9450 H   0  0  0  0  0  0  0  0  0  0  0  0
   40.2360   21.5760   37.1780 O   0  0  0  0  0  0  0  0  0  0  0  0
   40.5510   20.6690   36.9300 H   0  0  0  0  0  0  0  0  0  0  0  0
  1  6  1  1  0  0  0
  1 21  1  0  0  0  0
  2  7  1  6  0  0  0
  2 14  1  0  0  0  0
  2  1  1  0  0  0  0
  3  9  1  0  0  0  0
  3  4  1  0  0  0  0
  3  2  1  0  0  0  0
  4  5  1  0  0  0  0
  5 10  1  0  0  0  0
  5 11  1  0  0  0  0
  5  1  1  0  0  0  0
  8  3  1  0  0  0  0
 12 17  1  0  0  0  0
 13 12  2  0  0  0  0
 13 14  1  0  0  0  0
 14 15  2  0  0  0  0
 15 16  1  0  0  0  0
 16 20  1  0  0  0  0
 17 16  2  0  0  0  0
 18 12  1  0  0  0  0
 19 13  1  0  0  0  0
 22 27  1  6  0  0  0
 23 21  1  6  0  0  0
 23 24  1  0  0  0  0
 23 22  1  0  0  0  0
 25 24  1  0  0  0  0
 25 26  1  0  0  0  0
 26 22  1  0  0  0  0
 26 29  1  1  0  0  0
 27 28  1  0  0  0  0
 30 29  1  0  0  0  0
M  END
>  <minimizedAffinity>
-4.79318857

$$$$

 OpenBabel03272501063D

 30 32  0  0  1  0  0  0  0  0999 V2000
   38.5660   22.9830   33.2280 C   0  0  2  0  0  0  0  0  0  0  0  0
   37.2550   22.7790   32.4790 C   0  0  2  0  0  0  0  0  0  0  0  0
   37.6880   21.8840   31.3870 C   0  0  0  0  0  0  0  0  0  0  0  0
   38.6070   21.0050   31.9530 O   0  0  0  0  0  0  0  0  0  0  0  0
   39.0620   21.5230   33.1250 C   0  0  0  0  0  0  0  0  0  0  0  0
   39.2640   23.6250   32.6790 H   0  0  0  0  0  0  0  0  0  0  0  0
   36.6020   22.2590   33.2340 H   0  0  0  0  0  0  0  0  0  0  0  0
   36.8140   21.3400   30.9720 H   0  0  0  0  0  0  0  0  0  0  0  0
   38.2000   22.5090   30.6190 H   0  0  0  0  0  0  0  0  0  0  0  0
   38.6400   20.9760   33.9870 H   0  0  0  0  0  0  0  0  0  0  0  0
   40.1640   21.5330   33.2040 H   0  0  0  0  0  0  0  0  0  0  0  0
   34.9800   25.3300   30.8760 C   0  0  0  0  0  0  0  0  0  0  0  0
   35.4980   24.0590   31.2200 C   0  0  0  0  0  0  0  0  0  0  0  0
   36.6290   24.0260   32.0780 C   0  0  0  0  0  0  0  0  0  0  0  0
   37.1350   25.2200   32.5110 N   0  0  0  0  0  0  0  0  0  0  0  0
   36.6250   26.3990   32.1680 C   0  0  0  0  0  0  0  0  0  0  0  0
   35.5380   26.4740   31.3450 N   0  0  0  0  0  0  0  0  0  0  0  0
   34.1140   25.3930   30.2210 H   0  0  0  0  0  0  0  0  0  0  0  0
   35.0530   23.1470   30.8480 H   0  0  0  0  0  0  0  0  0  0  0  0
   37.1370   27.2530   32.5910 H   0  0  0  0  0  0  0  0  0  0  0  0
   38.3550   23.3090   34.5470 O   0  0  0  0  0  0  0  0  0  0  0  0
   38.5210   25.0790   36.1000 C   0  0  2  0  0  3  0  0  0  0  0  0
   39.2070   24.2280   35.0940 C   0  0  1  0  0  3  0  0  0  0  0  0
   40.0450   23.4750   36.0540 O   0  0  0  0  0  0  0  0  0  0  0  0
   39.1120   22.9940   36.9690 C   0  0  0  0  0  2  0  0  0  0  0  0
   37.9800   23.9860   37.0450 C   0  0  1  0  0  3  0  0  0  0  0  0
   37.4480   25.7650   35.6200 O   0  0  0  0  0  0  0  0  0  0  0  0
   37.4360   26.7100   35.8510 H   0  0  0  0  0  0  0  0  0  0  0  0
   37.7730   24.4810   38.3070 O   0  0  0  0  0  0  0  0  0  0  0  0
   36.8510   24.2730   38.6050 H   0  0  0  0  0  0  0  0  0  0  0  0
  1  6  1  6  0  0  0
  1 21  1  0  0  0  0
  2  1  1  0  0  0  0
  2  7  1  1  0  0  0
  3  4  1  0  0  0  0
  3  2  1  0  0  0  0
  4  5  1  0  0  0  0
  5 11  1  0  0  0  0
  5  1  1  0  0  0  0
  5 10  1  0  0  0  0
  8  3  1  0  0  0  0
  9  3  1  0  0  0  0
 12 13  2  0  0  0  0
 12 17  1  0  0  0  0
 13 14  1  0  0  0  0
 14  2  1  0  0  0  0
 14 15  2  0  0  0  0
 16 15  1  0  0  0  0
 16 20  1  0  0  0  0
 17 16  2  0  0  0  0
 18 12  1  0  0  0  0
 19 13  1  0  0  0  0
 22 27  1  6  0  0  0
 22 26  1  0  0  0  0
 23 21  1  1  0  0  0
 23 24  1  0  0  0  0
 23 22  1  0  0  0  0
 24 25  1  0  0  0  0
 25 26  1  0  0  0  0
 26 29  1  1  0  0  0
 27 28  1  0  0  0  0
 29 30  1  0  0  0  0
M  END
>  <minimizedAffinity>
-4.55897856

$$$$

 OpenBabel03272501063D

 30 32  0  0  1  0  0  0  0  0999 V2000
   38.1140   25.4670   34.0100 C   0  0  2  0  0  0  0  0  0  0  0  0
   37.7330   25.5550   35.4820 C   0  0  2  0  0  0  0  0  0  0  0  0
   38.0130   26.9770   35.7640 C   0  0  0  0  0  0  0  0  0  0  0  0
   37.6080   27.6790   34.6330 O   0  0  0  0  0  0  0  0  0  0  0  0
   37.5030   26.8200   33.5830 C   0  0  0  0  0  0  0  0  0  0  0  0
   39.1990   25.5140   33.8570 H   0  0  0  0  0  0  0  0  0  0  0  0
   36.6330   25.3200   35.4810 H   0  0  0  0  0  0  0  0  0  0  0  0
   37.4510   27.3040   36.6640 H   0  0  0  0  0  0  0  0  0  0  0  0
   39.1150   27.0870   35.8910 H   0  0  0  0  0  0  0  0  0  0  0  0
   36.4430   26.6320   33.3340 H   0  0  0  0  0  0  0  0  0  0  0  0
   38.0360   27.1630   32.6790 H   0  0  0  0  0  0  0  0  0  0  0  0
   38.7950   23.3640   38.3680 C   0  0  0  0  0  0  0  0  0  0  0  0
   38.0330   24.3110   37.6450 C   0  0  0  0  0  0  0  0  0  0  0  0
   38.4310   24.5860   36.3090 C   0  0  0  0  0  0  0  0  0  0  0  0
   39.5180   23.9190   35.8180 N   0  0  0  0  0  0  0  0  0  0  0  0
   40.2150   23.0340   36.5250 C   0  0  0  0  0  0  0  0  0  0  0  0
   39.8660   22.7410   37.8120 N   0  0  0  0  0  0  0  0  0  0  0  0
   38.5190   23.1280   39.3930 H   0  0  0  0  0  0  0  0  0  0  0  0
   37.1800   24.8060   38.0850 H   0  0  0  0  0  0  0  0  0  0  0  0
   41.0490   22.5910   35.9980 H   0  0  0  0  0  0  0  0  0  0  0  0
   37.4580   24.4400   33.3730 O   0  0  0  0  0  0  0  0  0  0  0  0
   37.9840   22.2820   32.5740 C   0  0  2  0  0  3  0  0  0  0  0  0
   38.1710   23.7480   32.4320 C   0  0  1  0  0  3  0  0  0  0  0  0
   37.4140   23.8940   31.1690 O   0  0  0  0  0  0  0  0  0  0  0  0
   36.1930   23.2940   31.4680 C   0  0  0  0  0  2  0  0  0  0  0  0
   36.4460   22.2020   32.4760 C   0  0  1  0  0  3  0  0  0  0  0  0
   38.3370   21.7830   33.7900 O   0  0  0  0  0  0  0  0  0  0  0  0
   38.9050   20.9940   33.7530 H   0  0  0  0  0  0  0  0  0  0  0  0
   36.0400   20.9630   32.0490 O   0  0  0  0  0  0  0  0  0  0  0  0
   35.3640   20.5950   32.6740 H   0  0  0  0  0  0  0  0  0  0  0  0
  1  6  1  6  0  0  0
  1  2  1  0  0  0  0
  2  7  1  1  0  0  0
  2  3  1  0  0  0  0
  2 14  1  0  0  0  0
  3  9  1  0  0  0  0
  3  8  1  0  0  0  0
  4  3  1  0  0  0  0
  5  1  1  0  0  0  0
  5  4  1  0  0  0  0
 10  5  1  0  0  0  0
 11  5  1  0  0  0  0
 12 18  1  0  0  0  0
 13 19  1  0  0  0  0
 13 12  2  0  0  0  0
 14 13  1  0  0  0  0
 15 14  2  0  0  0  0
 15 16  1  0  0  0  0
 16 17  2  0  0  0  0
 17 12  1  0  0  0  0
 20 16  1  0  0  0  0
 21  1  1  0  0  0  0
 22 27  1  1  0  0  0
 23 22  1  0  0  0  0
 23 21  1  1  0  0  0
 24 25  1  0  0  0  0
 24 23  1  0  0  0  0
 25 26  1  0  0  0  0
 26 29  1  6  0  0  0
 26 22  1  0  0  0  0
 28 27  1  0  0  0  0
 29 30  1  0  0  0  0
M  END
>  <minimizedAffinity>
-4.54086542

$$$$

 OpenBabel03272501063D

 30 32  0  0  1  0  0  0  0  0999 V2000
   40.5230   25.1550   34.7950 C   0  0  2  0  0  0  0  0  0  0  0  0
   40.0370   24.7710   33.4040 C   0  0  2  0  0  0  0  0  0  0  0  0
   41.2690   24.9590   32.6110 C   0  0  0  0  0  0  0  0  0  0  0  0
   42.3140   24.5080   33.4120 O   0  0  0  0  0  0  0  0  0  0  0  0
   41.8980   24.4570   34.7060 C   0  0  0  0  0  0  0  0  0  0  0  0
   40.6880   26.2340   34.8960 H   0  0  0  0  0  0  0  0  0  0  0  0
   39.7540   23.6880   33.5150 H   0  0  0  0  0  0  0  0  0  0  0  0
   41.2060   24.3790   31.6660 H   0  0  0  0  0  0  0  0  0  0  0  0
   41.3910   26.0520   32.4270 H   0  0  0  0  0  0  0  0  0  0  0  0
   41.7520   23.4110   35.0310 H   0  0  0  0  0  0  0  0  0  0  0  0
   42.5820   24.9650   35.4090 H   0  0  0  0  0  0  0  0  0  0  0  0
   37.7010   27.5880   32.4770 C   0  0  0  0  0  0  0  0  0  0  0  0
   38.8950   26.9480   32.8830 C   0  0  0  0  0  0  0  0  0  0  0  0
   38.8750   25.5310   32.9770 C   0  0  0  0  0  0  0  0  0  0  0  0
   37.7090   24.8880   32.6680 N   0  0  0  0  0  0  0  0  0  0  0  0
   36.6030   25.5210   32.2900 C   0  0  0  0  0  0  0  0  0  0  0  0
   36.5790   26.8820   32.1880 N   0  0  0  0  0  0  0  0  0  0  0  0
   37.6800   28.6720   32.3940 H   0  0  0  0  0  0  0  0  0  0  0  0
   39.7890   27.5100   33.1120 H   0  0  0  0  0  0  0  0  0  0  0  0
   35.7610   24.8730   32.0810 H   0  0  0  0  0  0  0  0  0  0  0  0
   39.7660   24.5650   35.7800 O   0  0  0  0  0  0  0  0  0  0  0  0
   39.7930   22.5320   36.9800 C   0  0  2  0  0  3  0  0  0  0  0  0
   39.5760   23.2140   35.6790 C   0  0  1  0  0  3  0  0  0  0  0  0
   38.1090   23.0190   35.6300 O   0  0  0  0  0  0  0  0  0  0  0  0
   37.6870   23.5320   36.8540 C   0  0  0  0  0  2  0  0  0  0  0  0
   38.7900   23.3110   37.8570 C   0  0  1  0  0  3  0  0  0  0  0  0
   41.0300   22.7230   37.5160 O   0  0  0  0  0  0  0  0  0  0  0  0
   41.4680   21.9090   37.8200 H   0  0  0  0  0  0  0  0  0  0  0  0
   38.3980   22.5680   38.9410 O   0  0  0  0  0  0  0  0  0  0  0  0
   38.5260   23.0900   39.7730 H   0  0  0  0  0  0  0  0  0  0  0  0
  1  6  1  1  0  0  0
  1 21  1  0  0  0  0
  2  7  1  1  0  0  0
  2  1  1  0  0  0  0
  3  2  1  0  0  0  0
  3  4  1  0  0  0  0
  4  5  1  0  0  0  0
  5  1  1  0  0  0  0
  5 10  1  0  0  0  0
  5 11  1  0  0  0  0
  8  3  1  0  0  0  0
  9  3  1  0  0  0  0
 12 13  1  0  0  0  0
 13 14  2  0  0  0  0
 13 19  1  0  0  0  0
 14  2  1  0  0  0  0
 15 14  1  0  0  0  0
 16 15  2  0  0  0  0
 17 16  1  0  0  0  0
 17 12  2  0  0  0  0
 18 12  1  0  0  0  0
 20 16  1  0  0  0  0
 22 27  1  1  0  0  0
 22 26  1  0  0  0  0
 23 21  1  1  0  0  0
 23 22  1  0  0  0  0
 24 23  1  0  0  0  0
 24 25  1  0  0  0  0
 25 26  1  0  0  0  0
 26 29  1  1  0  0  0
 27 28  1  0  0  0  0
 29 30  1  0  0  0  0
M  END
>  <minimizedAffinity>
-4.48707771

$$$$

 OpenBabel03272501063D

 30 32  0  0  1  0  0  0  0  0999 V2000
   37.6080   23.7110   33.1880 C   0  0  2  0  0  0  0  0  0  0  0  0
   37.7340   22.8220   31.9580 C   0  0  2  0  0  0  0  0  0  0  0  0
   37.4620   23.7910   30.8770 C   0  0  0  0  0  0  0  0  0  0  0  0
   38.0800   24.9770   31.2610 O   0  0  0  0  0  0  0  0  0  0  0  0
   38.3320   24.9420   32.5970 C   0  0  0  0  0  0  0  0  0  0  0  0
   36.5680   23.9890   33.3970 H   0  0  0  0  0  0  0  0  0  0  0  0
   38.8090   22.4910   31.9840 H   0  0  0  0  0  0  0  0  0  0  0  0
   37.8720   23.4150   29.9170 H   0  0  0  0  0  0  0  0  0  0  0  0
   36.3590   23.9470   30.8320 H   0  0  0  0  0  0  0  0  0  0  0  0
   39.4110   24.8060   32.7900 H   0  0  0  0  0  0  0  0  0  0  0  0
   37.9750   25.8370   33.1360 H   0  0  0  0  0  0  0  0  0  0  0  0
   34.7130   20.5660   32.1560 C   0  0  0  0  0  0  0  0  0  0  0  0
   35.4570   21.7670   32.0910 C   0  0  0  0  0  0  0  0  0  0  0  0
   36.8710   21.6550   32.0090 C   0  0  0  0  0  0  0  0  0  0  0  0
   37.4110   20.3990   31.9980 N   0  0  0  0  0  0  0  0  0  0  0  0
   36.6820   19.2890   32.0620 C   0  0  0  0  0  0  0  0  0  0  0  0
   35.3210   19.3530   32.1420 N   0  0  0  0  0  0  0  0  0  0  0  0
   33.6290   20.6130   32.2190 H   0  0  0  0  0  0  0  0  0  0  0  0
   34.9740   22.7330   32.1000 H   0  0  0  0  0  0  0  0  0  0  0  0
   37.2560   18.3710   32.0440 H   0  0  0  0  0  0  0  0  0  0  0  0
   38.3260   23.2170   34.2510 O   0  0  0  0  0  0  0  0  0  0  0  0
   38.9310   24.1040   36.3530 C   0  0  2  0  0  3  0  0  0  0  0  0
   39.1610   24.0950   34.8860 C   0  0  1  0  0  3  0  0  0  0  0  0
   40.4830   23.4320   34.9270 O   0  0  0  0  0  0  0  0  0  0  0  0
   40.2330   22.2870   35.6790 C   0  0  0  0  0  2  0  0  0  0  0  0
   39.1350   22.6060   36.6620 C   0  0  1  0  0  3  0  0  0  0  0  0
   37.6610   24.4230   36.7220 O   0  0  0  0  0  0  0  0  0  0  0  0
   37.6000   25.0970   37.4210 H   0  0  0  0  0  0  0  0  0  0  0  0
   39.5020   22.4150   37.9690 O   0  0  0  0  0  0  0  0  0  0  0  0
   38.9050   21.7490   38.3940 H   0  0  0  0  0  0  0  0  0  0  0  0
  1  6  1  1  0  0  0
  1 21  1  0  0  0  0
  2  7  1  6  0  0  0
  2 14  1  0  0  0  0
  2  1  1  0  0  0  0
  3  4  1  0  0  0  0
  3  2  1  0  0  0  0
  4  5  1  0  0  0  0
  5 10  1  0  0  0  0
  5 11  1  0  0  0  0
  5  1  1  0  0  0  0
  8  3  1  0  0  0  0
  9  3  1  0  0  0  0
 12 18  1  0  0  0  0
 13 19  1  0  0  0  0
 13 12  2  0  0  0  0
 14 13  1  0  0  0  0
 15 14  2  0  0  0  0
 15 16  1  0  0  0  0
 16 17  2  0  0  0  0
 17 12  1  0  0  0  0
 20 16  1  0  0  0  0
 22 26  1  0  0  0  0
 22 27  1  6  0  0  0
 23 21  1  6  0  0  0
 23 24  1  0  0  0  0
 23 22  1  0  0  0  0
 24 25  1  0  0  0  0
 25 26  1  0  0  0  0
 26 29  1  1  0  0  0
 27 28  1  0  0  0  0
 29 30  1  0  0  0  0
M  END
>  <minimizedAffinity>
-4.42145109

$$$$

 OpenBabel03272501063D

 30 32  0  0  1  0  0  0  0  0999 V2000
   38.1050   22.7120   32.8990 C   0  0  2  0  0  0  0  0  0  0  0  0
   37.3650   24.0190   32.6510 C   0  0  2  0  0  0  0  0  0  0  0  0
   36.2980   23.5720   31.7330 C   0  0  0  0  0  0  0  0  0  0  0  0
   35.8930   22.3230   32.1940 O   0  0  0  0  0  0  0  0  0  0  0  0
   36.8530   21.8130   33.0130 C   0  0  0  0  0  0  0  0  0  0  0  0
   38.6850   22.3890   32.0270 H   0  0  0  0  0  0  0  0  0  0  0  0
   36.9740   24.2960   33.6690 H   0  0  0  0  0  0  0  0  0  0  0  0
   35.4570   24.2970   31.7440 H   0  0  0  0  0  0  0  0  0  0  0  0
   36.7470   23.4630   30.7190 H   0  0  0  0  0  0  0  0  0  0  0  0
   36.5270   21.8450   34.0680 H   0  0  0  0  0  0  0  0  0  0  0  0
   37.1510   20.7820   32.7540 H   0  0  0  0  0  0  0  0  0  0  0  0
   38.9220   27.3920   31.9770 C   0  0  0  0  0  0  0  0  0  0  0  0
   38.0330   26.4380   32.5260 C   0  0  0  0  0  0  0  0  0  0  0  0
   38.2300   25.0790   32.1630 C   0  0  0  0  0  0  0  0  0  0  0  0
   39.2600   24.7890   31.3130 N   0  0  0  0  0  0  0  0  0  0  0  0
   40.0780   25.7110   30.8140 C   0  0  0  0  0  0  0  0  0  0  0  0
   39.9230   27.0280   31.1370 N   0  0  0  0  0  0  0  0  0  0  0  0
   38.8010   28.4420   32.2330 H   0  0  0  0  0  0  0  0  0  0  0  0
   37.2360   26.7270   33.1960 H   0  0  0  0  0  0  0  0  0  0  0  0
   40.8450   25.3240   30.1550 H   0  0  0  0  0  0  0  0  0  0  0  0
   38.7760   22.7260   34.0990 O   0  0  0  0  0  0  0  0  0  0  0  0
   38.1720   22.8230   36.3800 C   0  0  2  0  0  3  0  0  0  0  0  0
   38.2640   23.5330   35.0780 C   0  0  1  0  0  3  0  0  0  0  0  0
   39.3640   24.4450   35.4610 O   0  0  0  0  0  0  0  0  0  0  0  0
   40.3390   23.5720   35.9390 C   0  0  0  0  0  2  0  0  0  0  0  0
   39.6410   22.3810   36.5430 C   0  0  1  0  0  3  0  0  0  0  0  0
   37.4120   21.6940   36.3530 O   0  0  0  0  0  0  0  0  0  0  0  0
   36.7620   21.6280   37.0740 H   0  0  0  0  0  0  0  0  0  0  0  0
   39.9540   22.1790   37.8630 O   0  0  0  0  0  0  0  0  0  0  0  0
   40.3560   21.2820   37.9820 H   0  0  0  0  0  0  0  0  0  0  0  0
  1  6  1  6  0  0  0
  1  5  1  0  0  0  0
  1 21  1  0  0  0  0
  2  1  1  0  0  0  0
  2  7  1  1  0  0  0
  3  8  1  0  0  0  0
  3  4  1  0  0  0  0
  3  2  1  0  0  0  0
  4  5  1  0  0  0  0
  5 10  1  0  0  0  0
  9  3  1  0  0  0  0
 11  5  1  0  0  0  0
 12 18  1  0  0  0  0
 12 13  1  0  0  0  0
 13 19  1  0  0  0  0
 14 13  2  0  0  0  0
 14  2  1  0  0  0  0
 15 14  1  0  0  0  0
 16 17  1  0  0  0  0
 16 15  2  0  0  0  0
 17 12  2  0  0  0  0
 20 16  1  0  0  0  0
 22 27  1  6  0  0  0
 22 26  1  0  0  0  0
 23 21  1  6  0  0  0
 23 24  1  0  0  0  0
 23 22  1  0  0  0  0
 24 25  1  0  0  0  0
 25 26  1  0  0  0  0
 26 29  1  1  0  0  0
 27 28  1  0  0  0  0
 29 30  1  0  0  0  0
M  END
>  <minimizedAffinity>
-4.40113401

$$$$

 OpenBabel03272501063D

 30 32  0  0  1  0  0  0  0  0999 V2000
   38.9570   25.2650   34.8280 C   0  0  2  0  0  0  0  0  0  0  0  0
   39.3410   26.7330   34.6930 C   0  0  2  0  0  0  0  0  0  0  0  0
   38.0250   27.3480   34.4280 C   0  0  0  0  0  0  0  0  0  0  0  0
   37.1160   26.6730   35.2370 O   0  0  0  0  0  0  0  0  0  0  0  0
   37.6590   25.4910   35.6350 C   0  0  0  0  0  0  0  0  0  0  0  0
   38.6920   24.8130   33.8660 H   0  0  0  0  0  0  0  0  0  0  0  0
   39.7440   26.9920   35.7110 H   0  0  0  0  0  0  0  0  0  0  0  0
   38.0550   28.4310   34.6710 H   0  0  0  0  0  0  0  0  0  0  0  0
   37.7740   27.1630   33.3580 H   0  0  0  0  0  0  0  0  0  0  0  0
   37.9430   25.5290   36.7020 H   0  0  0  0  0  0  0  0  0  0  0  0
   36.9980   24.6230   35.4640 H   0  0  0  0  0  0  0  0  0  0  0  0
   42.6650   27.2780   32.9880 C   0  0  0  0  0  0  0  0  0  0  0  0
   41.7480   27.0300   34.0360 C   0  0  0  0  0  0  0  0  0  0  0  0
   40.3710   26.9620   33.6950 C   0  0  0  0  0  0  0  0  0  0  0  0
   40.0300   27.1390   32.3830 N   0  0  0  0  0  0  0  0  0  0  0  0
   40.9180   27.3720   31.4210 C   0  0  0  0  0  0  0  0  0  0  0  0
   42.2510   27.4460   31.7070 N   0  0  0  0  0  0  0  0  0  0  0  0
   43.7280   27.3370   33.2120 H   0  0  0  0  0  0  0  0  0  0  0  0
   42.0770   26.8950   35.0560 H   0  0  0  0  0  0  0  0  0  0  0  0
   40.4920   27.4910   30.4330 H   0  0  0  0  0  0  0  0  0  0  0  0
   39.8630   24.5690   35.5930 O   0  0  0  0  0  0  0  0  0  0  0  0
   41.3670   22.7840   35.9460 C   0  0  2  0  0  3  0  0  0  0  0  0
   40.4340   23.4680   35.0150 C   0  0  1  0  0  3  0  0  0  0  0  0
   39.3870   22.4220   35.0260 O   0  0  0  0  0  0  0  0  0  0  0  0
   39.1370   22.2480   36.3860 C   0  0  0  0  0  2  0  0  0  0  0  0
   40.4150   22.5290   37.1330 C   0  0  1  0  0  3  0  0  0  0  0  0
   42.3820   23.5670   36.4030 O   0  0  0  0  0  0  0  0  0  0  0  0
   43.2640   23.1610   36.3430 H   0  0  0  0  0  0  0  0  0  0  0  0
   40.8440   21.4720   37.8950 O   0  0  0  0  0  0  0  0  0  0  0  0
   40.9010   21.7410   38.8460 H   0  0  0  0  0  0  0  0  0  0  0  0
  1  6  1  6  0  0  0
  1 21  1  0  0  0  0
  1  5  1  0  0  0  0
  2  1  1  0  0  0  0
  2  7  1  1  0  0  0
  3  8  1  0  0  0  0
  3  2  1  0  0  0  0
  3  4  1  0  0  0  0
  4  5  1  0  0  0  0
  5 10  1  0  0  0  0
  9  3  1  0  0  0  0
 11  5  1  0  0  0  0
 12 18  1  0  0  0  0
 12 13  1  0  0  0  0
 13 19  1  0  0  0  0
 14 13  2  0  0  0  0
 14  2  1  0  0  0  0
 15 14  1  0  0  0  0
 16 17  1  0  0  0  0
 16 15  2  0  0  0  0
 17 12  2  0  0  0  0
 20 16  1  0  0  0  0
 22 27  1  1  0  0  0
 22 26  1  0  0  0  0
 23 24  1  0  0  0  0
 23 21  1  1  0  0  0
 23 22  1  0  0  0  0
 24 25  1  0  0  0  0
 25 26  1  0  0  0  0
 26 29  1  6  0  0  0
 28 27  1  0  0  0  0
 29 30  1  0  0  0  0
M  END
>  <minimizedAffinity>
-4.39977694

$$$$
