
     RDKit          3D

 38 40  0  0  0  0  0  0  0  0999 V2000
   36.9905   31.5600   48.6561 C   0  0  1  0  0  0  0  0  0  0  0  0
   36.2609   30.8781   47.6093 C   0  0  0  0  0  0  0  0  0  0  0  0
   37.1893   30.1181   48.4886 C   0  0  2  0  0  0  0  0  0  0  0  0
   38.1562   32.4456   48.3232 C   0  0  0  0  0  0  0  0  0  0  0  0
   38.5486   33.3526   49.3370 C   0  0  0  0  0  0  0  0  0  0  0  0
   39.6091   34.1650   49.0061 C   0  0  0  0  0  0  0  0  0  0  0  0
   40.1978   34.0541   47.7704 N   0  0  0  0  0  0  0  0  0  0  0  0
   39.7829   33.1677   46.8350 C   0  0  0  0  0  0  0  0  0  0  0  0
   38.7295   32.3455   47.1352 N   0  0  0  0  0  0  0  0  0  0  0  0
   40.3696   33.0518   45.5671 N   0  0  0  0  0  0  0  0  0  0  0  0
   36.5793   29.3136   49.4617 O   0  0  0  0  0  0  0  0  0  0  0  0
   34.6004   27.6867   49.7033 O   0  0  0  0  0  0  0  0  0  0  0  0
   34.9987   28.9722   49.0457 P   0  0  1  0  0  0  0  0  0  0  0  0
   33.9614   30.1693   49.7077 O   0  0  0  0  0  0  0  0  0  0  0  0
   34.8788   28.9267   47.3677 O   0  0  0  0  0  0  0  0  0  0  0  0
   36.5193   31.8414   49.6611 H   0  0  0  0  0  0  0  0  0  0  0  0
   35.2336   31.1584   47.7132 H   0  0  0  0  0  0  0  0  0  0  0  0
   36.6160   31.0543   46.5707 H   0  0  0  0  0  0  0  0  0  0  0  0
   37.9130   29.5858   47.8999 H   0  0  0  0  0  0  0  0  0  0  0  0
   38.0812   33.4326   50.3037 H   0  0  0  0  0  0  0  0  0  0  0  0
   40.0248   34.9070   49.6694 H   0  0  0  0  0  0  0  0  0  0  0  0
   39.9131   33.8590   45.0613 H   0  0  0  0  0  0  0  0  0  0  0  0
   41.0388   32.2693   45.4744 H   0  0  0  0  0  0  0  0  0  0  0  0
   33.3945   29.8446   50.4182 H   0  0  0  0  0  0  0  0  0  0  0  0
   32.8375   26.3849   46.7593 O   0  0  0  0  0  0  0  0  0  0  0  0
   33.0038   27.5012   47.6070 C   0  0  1  0  0  0  0  0  0  0  0  0
   33.6142   28.6550   46.8964 C   0  0  1  0  0  0  0  0  0  0  0  0
   32.7517   29.7272   46.9678 O   0  0  0  0  0  0  0  0  0  0  0  0
   31.4797   29.2434   47.2045 C   0  0  0  0  0  0  0  0  0  0  0  0
   31.6299   27.9683   47.9928 C   0  0  2  0  0  0  0  0  0  0  0  0
   31.5745   28.2368   49.3593 O   0  0  0  0  0  0  0  0  0  0  0  0
   33.7353   26.0506   46.4983 H   0  0  0  0  0  0  0  0  0  0  0  0
   33.5828   27.1582   48.5014 H   0  0  0  0  0  0  0  0  0  0  0  0
   33.7276   28.3810   45.8121 H   0  0  0  0  0  0  0  0  0  0  0  0
   30.8852   29.0817   46.2743 H   0  0  0  0  0  0  0  0  0  0  0  0
   30.9312   30.0102   47.7930 H   0  0  0  0  0  0  0  0  0  0  0  0
   30.8302   27.2621   47.6656 H   0  0  0  0  0  0  0  0  0  0  0  0
   30.6948   27.8936   49.7019 H   0  0  0  0  0  0  0  0  0  0  0  0
  2  3  1  0
  2  1  1  0
  3  1  1  0
  3 11  1  0
  4  1  1  0
  4  5  2  0
  6  5  1  0
  7  6  2  0
  8  9  2  0
  8  7  1  0
  9  4  1  0
 10  8  1  0
 13 11  1  6
 13 12  2  0
 13 14  1  0
 15 13  1  0
  1 16  1  1
  2 17  1  0
  2 18  1  0
  3 19  1  6
  5 20  1  0
  6 21  1  0
 10 22  1  0
 10 23  1  0
 14 24  1  0
 25 26  1  0
 26 27  1  0
 27 28  1  0
 28 29  1  0
 29 30  1  0
 30 31  1  0
 30 26  1  0
 25 32  1  0
 26 33  1  1
 27 34  1  6
 29 35  1  0
 29 36  1  0
 30 37  1  6
 31 38  1  0
 15 27  1  0
M  ISO  7  16  13  17  13  18  13  19  13  20  14  21  14  24   3
M  END
>  <DihAtoms>  (1) 
12,14,26,25

>  <DihDeg>  (1) 
117.96159422467666

$$$$
