
 OpenBabel03262521443D

 46 49  0  0  1  0  0  0  0  0999 V2000
   38.5710   23.3800   32.3410 C   0  0  2  0  0  0  0  0  0  0  0  0
   37.2530   24.1220   32.2250 C   0  0  2  0  0  0  0  0  0  0  0  0
   36.2280   23.1620   31.7210 C   0  0  0  0  0  0  0  0  0  0  0  0
   36.4720   21.8940   32.1660 O   0  0  0  0  0  0  0  0  0  0  0  0
   36.9070   21.9390   33.4800 C   0  0  0  0  0  0  0  0  0  0  0  0
   38.3360   22.3750   33.5010 C   0  0  2  0  0  0  0  0  0  0  0  0
   38.7090   22.7830   31.4160 H   0  0  0  0  0  0  0  0  0  0  0  0
   37.0570   24.2250   33.3060 H   0  0  0  0  0  0  0  0  0  0  0  0
   35.1870   23.4420   32.0140 H   0  0  0  0  0  0  0  0  0  0  0  0
   36.1840   23.1770   30.5900 H   0  0  0  0  0  0  0  0  0  0  0  0
   36.8830   20.8830   33.8310 H   0  0  0  0  0  0  0  0  0  0  0  0
   36.2240   22.5150   34.0970 H   0  0  0  0  0  0  0  0  0  0  0  0
   39.0170   21.5160   33.3870 H   0  0  0  0  0  0  0  0  0  0  0  0
   39.6550   24.1020   32.7040 O   0  0  0  0  0  0  0  0  0  0  0  0
   40.2040   24.2670   31.8840 H   0  0  0  0  0  0  0  0  0  0  0  0
   37.2760   25.2970   31.5380 O   0  0  0  0  0  0  0  0  0  0  0  0
   36.5170   26.2340   32.1140 C   0  0  1  0  0  0  0  0  0  0  0  0
   37.2520   27.4920   32.5030 C   0  0  2  0  0  0  0  0  0  0  0  0
   37.7030   27.9070   31.0960 C   0  0  0  0  0  0  0  0  0  0  0  0
   36.6370   27.6910   30.2590 O   0  0  0  0  0  0  0  0  0  0  0  0
   35.7750   26.9010   30.9110 C   0  0  0  0  0  0  0  0  0  0  0  0
   35.5970   25.9080   32.6530 H   0  0  0  0  0  0  0  0  0  0  0  0
   36.5080   28.1930   32.8920 H   0  0  0  0  0  0  0  0  0  0  0  0
   38.6040   27.3490   30.8380 H   0  0  0  0  0  0  0  0  0  0  0  0
   37.8570   29.0080   31.1590 H   0  0  0  0  0  0  0  0  0  0  0  0
   34.8990   26.5000   30.5440 H   0  0  0  0  0  0  0  0  0  0  0  0
   35.2630   27.7230   31.5600 H   0  0  0  0  0  0  0  0  0  0  0  0
   38.3940   27.2160   33.3850 C   0  0  0  0  0  0  0  0  0  0  0  0
   38.1300   26.8890   34.7150 C   0  0  0  0  0  0  0  0  0  0  0  0
   39.2590   26.6440   35.5440 C   0  0  0  0  0  0  0  0  0  0  0  0
   40.5140   26.7400   34.9990 N   0  0  0  0  0  0  0  0  0  0  0  0
   40.7180   27.0600   33.7000 C   0  0  0  0  0  0  0  0  0  0  0  0
   39.6560   27.2950   32.9030 N   0  0  0  0  0  0  0  0  0  0  0  0
   37.1460   26.8160   35.1350 H   0  0  0  0  0  0  0  0  0  0  0  0
   39.1090   26.3870   36.5800 H   0  0  0  0  0  0  0  0  0  0  0  0
   41.7230   27.1270   33.3080 H   0  0  0  0  0  0  0  0  0  0  0  0
   38.5610   23.0150   34.7220 O   0  0  0  0  0  0  0  0  0  0  0  0
   40.6020   22.4850   35.8470 C   0  0  2  0  0  3  0  0  0  0  0  0
   39.1140   22.2440   35.6900 C   0  0  1  0  0  3  0  0  0  0  0  0
   38.5190   22.6020   36.8940 O   0  0  0  0  0  0  0  0  0  0  0  0
   39.4350   23.1440   37.7410 C   0  0  0  0  0  2  0  0  0  0  0  0
   40.7860   22.5650   37.3750 C   0  0  1  0  0  3  0  0  0  0  0  0
   41.0290   23.6720   35.2560 O   0  0  0  0  0  0  0  0  0  0  0  0
   41.6810   23.4810   34.5370 H   0  0  0  0  0  0  0  0  0  0  0  0
   40.8980   21.3240   37.9580 O   0  0  0  0  0  0  0  0  0  0  0  0
   40.2880   21.2540   38.7590 H   0  0  0  0  0  0  0  0  0  0  0  0
  1  7  1  6  0  0  0
  1 14  1  0  0  0  0
  1  6  1  0  0  0  0
  2  1  1  0  0  0  0
  2  8  1  1  0  0  0
  3  9  1  0  0  0  0
  3  4  1  0  0  0  0
  3  2  1  0  0  0  0
  4  5  1  0  0  0  0
  5  6  1  0  0  0  0
  5 11  1  0  0  0  0
  5 12  1  0  0  0  0
  6 13  1  6  0  0  0
  6 37  1  0  0  0  0
 10  3  1  0  0  0  0
 15 14  1  0  0  0  0
 16 17  1  0  0  0  0
 16  2  1  0  0  0  0
 17 18  1  0  0  0  0
 17 22  1  1  0  0  0
 18 23  1  1  0  0  0
 18 28  1  0  0  0  0
 19 25  1  0  0  0  0
 19 18  1  0  0  0  0
 20 21  1  0  0  0  0
 20 19  1  0  0  0  0
 21 27  1  0  0  0  0
 21 17  1  0  0  0  0
 24 19  1  0  0  0  0
 26 21  1  0  0  0  0
 28 29  1  0  0  0  0
 29 34  1  0  0  0  0
 29 30  2  0  0  0  0
 30 35  1  0  0  0  0
 31 30  1  0  0  0  0
 32 31  2  0  0  0  0
 33 28  2  0  0  0  0
 33 32  1  0  0  0  0
 36 32  1  0  0  0  0
 38 43  1  6  0  0  0
 38 42  1  0  0  0  0
 39 37  1  6  0  0  0
 39 38  1  0  0  0  0
 39 40  1  0  0  0  0
 40 41  1  0  0  0  0
 42 41  1  0  0  0  0
 42 45  1  1  0  0  0
 44 43  1  0  0  0  0
 45 46  1  0  0  0  0
M  END
>  <minimizedAffinity>
-5.62426472

$$$$

 OpenBabel03262521443D

 46 49  0  0  1  0  0  0  0  0999 V2000
   38.3640   22.9460   35.6330 C   0  0  2  0  0  0  0  0  0  0  0  0
   38.4380   24.3720   36.1440 C   0  0  2  0  0  0  0  0  0  0  0  0
   38.0360   24.3670   37.5810 C   0  0  0  0  0  0  0  0  0  0  0  0
   38.4070   23.2070   38.1970 O   0  0  0  0  0  0  0  0  0  0  0  0
   39.6570   22.8200   37.7450 C   0  0  0  0  0  0  0  0  0  0  0  0
   39.5130   22.2190   36.3840 C   0  0  2  0  0  0  0  0  0  0  0  0
   37.4120   22.5040   35.9910 H   0  0  0  0  0  0  0  0  0  0  0  0
   39.5370   24.4630   36.1430 H   0  0  0  0  0  0  0  0  0  0  0  0
   38.4650   25.2230   38.1570 H   0  0  0  0  0  0  0  0  0  0  0  0
   36.9210   24.5270   37.6880 H   0  0  0  0  0  0  0  0  0  0  0  0
   39.9760   22.0030   38.4310 H   0  0  0  0  0  0  0  0  0  0  0  0
   40.3720   23.6320   37.8330 H   0  0  0  0  0  0  0  0  0  0  0  0
   39.2890   21.1410   36.4460 H   0  0  0  0  0  0  0  0  0  0  0  0
   38.6120   22.7470   34.3190 O   0  0  0  0  0  0  0  0  0  0  0  0
   37.7350   22.6020   33.8590 H   0  0  0  0  0  0  0  0  0  0  0  0
   37.7890   25.3150   35.4060 O   0  0  0  0  0  0  0  0  0  0  0  0
   38.6350   26.1760   34.8320 C   0  0  1  0  0  0  0  0  0  0  0  0
   38.1340   26.8000   33.5540 C   0  0  2  0  0  0  0  0  0  0  0  0
   36.9060   27.5090   34.1420 C   0  0  0  0  0  0  0  0  0  0  0  0
   37.3010   28.0590   35.3360 O   0  0  0  0  0  0  0  0  0  0  0  0
   38.4610   27.4820   35.6740 C   0  0  0  0  0  0  0  0  0  0  0  0
   39.7250   26.0540   35.0310 H   0  0  0  0  0  0  0  0  0  0  0  0
   38.8840   27.5290   33.2340 H   0  0  0  0  0  0  0  0  0  0  0  0
   36.0900   26.7900   34.2220 H   0  0  0  0  0  0  0  0  0  0  0  0
   36.7000   28.3500   33.4430 H   0  0  0  0  0  0  0  0  0  0  0  0
   38.9970   27.6250   36.5430 H   0  0  0  0  0  0  0  0  0  0  0  0
   39.1630   28.1230   35.0000 H   0  0  0  0  0  0  0  0  0  0  0  0
   37.7560   25.7900   32.5570 C   0  0  0  0  0  0  0  0  0  0  0  0
   38.7750   25.1830   31.8220 C   0  0  0  0  0  0  0  0  0  0  0  0
   38.3730   24.2230   30.8540 C   0  0  0  0  0  0  0  0  0  0  0  0
   37.0360   23.9540   30.7030 N   0  0  0  0  0  0  0  0  0  0  0  0
   36.0850   24.5700   31.4420 C   0  0  0  0  0  0  0  0  0  0  0  0
   36.4520   25.4830   32.3630 N   0  0  0  0  0  0  0  0  0  0  0  0
   39.8190   25.3980   31.9440 H   0  0  0  0  0  0  0  0  0  0  0  0
   39.1220   23.7250   30.2590 H   0  0  0  0  0  0  0  0  0  0  0  0
   35.0410   24.3310   31.2930 H   0  0  0  0  0  0  0  0  0  0  0  0
   40.7160   22.4260   35.7050 O   0  0  0  0  0  0  0  0  0  0  0  0
   42.9490   22.6590   36.5250 C   0  0  2  0  0  3  0  0  0  0  0  0
   41.5840   23.2780   36.3040 C   0  0  1  0  0  3  0  0  0  0  0  0
   41.7640   24.3560   35.4460 O   0  0  0  0  0  0  0  0  0  0  0  0
   43.0520   24.4160   35.0130 C   0  0  0  0  0  2  0  0  0  0  0  0
   43.9160   23.7720   36.0770 C   0  0  1  0  0  3  0  0  0  0  0  0
   43.1600   21.5140   35.7610 O   0  0  0  0  0  0  0  0  0  0  0  0
   43.3050   20.7310   36.3490 H   0  0  0  0  0  0  0  0  0  0  0  0
   44.1470   24.6990   37.0680 O   0  0  0  0  0  0  0  0  0  0  0  0
   44.0440   25.6360   36.7050 H   0  0  0  0  0  0  0  0  0  0  0  0
  1  7  1  1  0  0  0
  1  2  1  0  0  0  0
  1  6  1  0  0  0  0
  2  8  1  6  0  0  0
  2  3  1  0  0  0  0
  3 10  1  0  0  0  0
  3  9  1  0  0  0  0
  3  4  1  0  0  0  0
  5 12  1  0  0  0  0
  5  4  1  0  0  0  0
  5 11  1  0  0  0  0
  6 13  1  1  0  0  0
  6  5  1  0  0  0  0
 14  1  1  0  0  0  0
 15 14  1  0  0  0  0
 16  2  1  0  0  0  0
 17 22  1  6  0  0  0
 17 16  1  0  0  0  0
 17 21  1  0  0  0  0
 18 23  1  6  0  0  0
 18 19  1  0  0  0  0
 18 17  1  0  0  0  0
 19 24  1  0  0  0  0
 19 20  1  0  0  0  0
 20 21  1  0  0  0  0
 21 26  1  0  0  0  0
 25 19  1  0  0  0  0
 27 21  1  0  0  0  0
 28 18  1  0  0  0  0
 29 34  1  0  0  0  0
 29 28  2  0  0  0  0
 30 29  1  0  0  0  0
 31 30  2  0  0  0  0
 31 32  1  0  0  0  0
 32 33  2  0  0  0  0
 33 28  1  0  0  0  0
 35 30  1  0  0  0  0
 36 32  1  0  0  0  0
 37  6  1  0  0  0  0
 38 43  1  6  0  0  0
 39 37  1  6  0  0  0
 39 38  1  0  0  0  0
 40 39  1  0  0  0  0
 41 40  1  0  0  0  0
 41 42  1  0  0  0  0
 42 38  1  0  0  0  0
 42 45  1  1  0  0  0
 43 44  1  0  0  0  0
 46 45  1  0  0  0  0
M  END
>  <minimizedAffinity>
-5.53561211

$$$$

 OpenBabel03262521443D

 46 49  0  0  1  0  0  0  0  0999 V2000
   38.3360   23.9300   31.0230 C   0  0  2  0  0  0  0  0  0  0  0  0
   38.2970   24.8140   32.2560 C   0  0  2  0  0  0  0  0  0  0  0  0
   37.3350   25.9250   31.9940 C   0  0  0  0  0  0  0  0  0  0  0  0
   36.3110   25.5170   31.1890 O   0  0  0  0  0  0  0  0  0  0  0  0
   35.9300   24.2320   31.5360 C   0  0  0  0  0  0  0  0  0  0  0  0
   36.9320   23.2670   30.9920 C   0  0  2  0  0  0  0  0  0  0  0  0
   38.4040   24.5890   30.1330 H   0  0  0  0  0  0  0  0  0  0  0  0
   37.7640   24.1080   32.9150 H   0  0  0  0  0  0  0  0  0  0  0  0
   36.8970   26.3510   32.9290 H   0  0  0  0  0  0  0  0  0  0  0  0
   37.8630   26.8140   31.5350 H   0  0  0  0  0  0  0  0  0  0  0  0
   34.9750   24.0540   30.9920 H   0  0  0  0  0  0  0  0  0  0  0  0
   35.7280   24.1600   32.6010 H   0  0  0  0  0  0  0  0  0  0  0  0
   36.6850   22.9760   29.9580 H   0  0  0  0  0  0  0  0  0  0  0  0
   39.2180   22.9050   31.0270 O   0  0  0  0  0  0  0  0  0  0  0  0
   39.9950   23.1670   30.4530 H   0  0  0  0  0  0  0  0  0  0  0  0
   39.4980   25.2420   32.7340 O   0  0  0  0  0  0  0  0  0  0  0  0
   39.3800   26.3440   33.4800 C   0  0  1  0  0  0  0  0  0  0  0  0
   39.9530   26.2320   34.8700 C   0  0  2  0  0  0  0  0  0  0  0  0
   41.4100   25.9660   34.4690 C   0  0  0  0  0  0  0  0  0  0  0  0
   41.6950   26.8130   33.4270 O   0  0  0  0  0  0  0  0  0  0  0  0
   40.5270   27.2700   32.9570 C   0  0  0  0  0  0  0  0  0  0  0  0
   38.5480   27.0490   33.2490 H   0  0  0  0  0  0  0  0  0  0  0  0
   39.8570   27.2150   35.3400 H   0  0  0  0  0  0  0  0  0  0  0  0
   41.5220   24.9060   34.2350 H   0  0  0  0  0  0  0  0  0  0  0  0
   42.0130   26.3010   35.3420 H   0  0  0  0  0  0  0  0  0  0  0  0
   40.3810   27.8780   32.1380 H   0  0  0  0  0  0  0  0  0  0  0  0
   40.3470   28.1020   33.7520 H   0  0  0  0  0  0  0  0  0  0  0  0
   39.3770   25.1060   35.6170 C   0  0  0  0  0  0  0  0  0  0  0  0
   40.1290   23.9350   35.7180 C   0  0  0  0  0  0  0  0  0  0  0  0
   39.5350   22.8590   36.4320 C   0  0  0  0  0  0  0  0  0  0  0  0
   38.2840   23.0320   36.9700 N   0  0  0  0  0  0  0  0  0  0  0  0
   37.5950   24.1890   36.8440 C   0  0  0  0  0  0  0  0  0  0  0  0
   38.1460   25.2170   36.1690 N   0  0  0  0  0  0  0  0  0  0  0  0
   41.1060   23.8060   35.2950 H   0  0  0  0  0  0  0  0  0  0  0  0
   40.0750   21.9330   36.5390 H   0  0  0  0  0  0  0  0  0  0  0  0
   36.6110   24.2860   37.2820 H   0  0  0  0  0  0  0  0  0  0  0  0
   36.9300   22.1470   31.8260 O   0  0  0  0  0  0  0  0  0  0  0  0
   36.0540   20.0220   31.1680 C   0  0  2  0  0  3  0  0  0  0  0  0
   35.8080   21.3870   31.7780 C   0  0  1  0  0  3  0  0  0  0  0  0
   35.3970   21.1730   33.0890 O   0  0  0  0  0  0  0  0  0  0  0  0
   35.4680   19.8530   33.4060 C   0  0  0  0  0  2  0  0  0  0  0  0
   35.3040   19.0700   32.1190 C   0  0  1  0  0  3  0  0  0  0  0  0
   37.4030   19.6790   31.1230 O   0  0  0  0  0  0  0  0  0  0  0  0
   37.6950   19.5560   30.1840 H   0  0  0  0  0  0  0  0  0  0  0  0
   33.9610   18.9870   31.8300 O   0  0  0  0  0  0  0  0  0  0  0  0
   33.4110   19.0980   32.6700 H   0  0  0  0  0  0  0  0  0  0  0  0
  1  7  1  6  0  0  0
  1 14  1  0  0  0  0
  1  2  1  0  0  0  0
  2 16  1  0  0  0  0
  2  8  1  1  0  0  0
  3  2  1  0  0  0  0
  3  9  1  0  0  0  0
  4  5  1  0  0  0  0
  4  3  1  0  0  0  0
  5 12  1  0  0  0  0
  6 13  1  6  0  0  0
  6  1  1  0  0  0  0
  6  5  1  0  0  0  0
  6 37  1  0  0  0  0
 10  3  1  0  0  0  0
 11  5  1  0  0  0  0
 15 14  1  0  0  0  0
 16 17  1  0  0  0  0
 17 22  1  6  0  0  0
 17 18  1  0  0  0  0
 18 23  1  1  0  0  0
 18 28  1  0  0  0  0
 19 18  1  0  0  0  0
 19 25  1  0  0  0  0
 20 19  1  0  0  0  0
 21 20  1  0  0  0  0
 21 17  1  0  0  0  0
 21 27  1  0  0  0  0
 24 19  1  0  0  0  0
 26 21  1  0  0  0  0
 28 29  2  0  0  0  0
 28 33  1  0  0  0  0
 29 30  1  0  0  0  0
 30 35  1  0  0  0  0
 30 31  2  0  0  0  0
 32 31  1  0  0  0  0
 32 36  1  0  0  0  0
 33 32  2  0  0  0  0
 34 29  1  0  0  0  0
 38 43  1  1  0  0  0
 38 39  1  0  0  0  0
 38 42  1  0  0  0  0
 39 37  1  1  0  0  0
 39 40  1  0  0  0  0
 40 41  1  0  0  0  0
 42 45  1  6  0  0  0
 42 41  1  0  0  0  0
 44 43  1  0  0  0  0
 45 46  1  0  0  0  0
M  END
>  <minimizedAffinity>
-5.44362831

$$$$

 OpenBabel03262521443D

 46 49  0  0  1  0  0  0  0  0999 V2000
   37.5940   24.6160   31.6510 C   0  0  2  0  0  0  0  0  0  0  0  0
   36.9080   25.5710   32.6090 C   0  0  2  0  0  0  0  0  0  0  0  0
   36.0390   26.4810   31.8070 C   0  0  0  0  0  0  0  0  0  0  0  0
   35.5350   25.8470   30.7080 O   0  0  0  0  0  0  0  0  0  0  0  0
   35.1940   24.5470   31.0380 C   0  0  0  0  0  0  0  0  0  0  0  0
   36.4390   23.7250   31.1180 C   0  0  2  0  0  0  0  0  0  0  0  0
   37.9720   25.2070   30.7920 H   0  0  0  0  0  0  0  0  0  0  0  0
   36.2250   24.8380   33.0700 H   0  0  0  0  0  0  0  0  0  0  0  0
   35.1850   26.8980   32.3940 H   0  0  0  0  0  0  0  0  0  0  0  0
   36.6070   27.4100   31.4970 H   0  0  0  0  0  0  0  0  0  0  0  0
   34.6080   24.1690   30.1690 H   0  0  0  0  0  0  0  0  0  0  0  0
   34.5500   24.5230   31.9120 H   0  0  0  0  0  0  0  0  0  0  0  0
   36.7130   23.3190   30.1300 H   0  0  0  0  0  0  0  0  0  0  0  0
   38.4970   23.7570   32.1770 O   0  0  0  0  0  0  0  0  0  0  0  0
   39.4110   24.1010   31.9600 H   0  0  0  0  0  0  0  0  0  0  0  0
   37.7120   26.2300   33.4890 O   0  0  0  0  0  0  0  0  0  0  0  0
   37.2390   26.1810   34.7380 C   0  0  1  0  0  0  0  0  0  0  0  0
   38.2260   25.6960   35.7700 C   0  0  2  0  0  0  0  0  0  0  0  0
   39.2680   26.8090   35.5950 C   0  0  0  0  0  0  0  0  0  0  0  0
   38.5720   27.9860   35.4760 O   0  0  0  0  0  0  0  0  0  0  0  0
   37.2980   27.6700   35.2140 C   0  0  0  0  0  0  0  0  0  0  0  0
   36.1400   26.0570   34.8800 H   0  0  0  0  0  0  0  0  0  0  0  0
   37.7380   25.7740   36.7460 H   0  0  0  0  0  0  0  0  0  0  0  0
   39.9000   26.5670   34.7400 H   0  0  0  0  0  0  0  0  0  0  0  0
   39.8140   26.8440   36.5640 H   0  0  0  0  0  0  0  0  0  0  0  0
   36.5250   28.3200   35.0090 H   0  0  0  0  0  0  0  0  0  0  0  0
   36.9630   27.4330   36.3050 H   0  0  0  0  0  0  0  0  0  0  0  0
   38.7740   24.3750   35.4330 C   0  0  0  0  0  0  0  0  0  0  0  0
   40.1450   24.2780   35.1920 C   0  0  0  0  0  0  0  0  0  0  0  0
   40.6390   22.9900   34.8510 C   0  0  0  0  0  0  0  0  0  0  0  0
   39.7590   21.9400   34.7820 N   0  0  0  0  0  0  0  0  0  0  0  0
   38.4360   22.0850   35.0250 C   0  0  0  0  0  0  0  0  0  0  0  0
   37.9540   23.3020   35.3480 N   0  0  0  0  0  0  0  0  0  0  0  0
   40.8280   25.1030   35.2480 H   0  0  0  0  0  0  0  0  0  0  0  0
   41.6920   22.8610   34.6560 H   0  0  0  0  0  0  0  0  0  0  0  0
   37.7740   21.2330   34.9590 H   0  0  0  0  0  0  0  0  0  0  0  0
   36.1990   22.6870   32.0200 O   0  0  0  0  0  0  0  0  0  0  0  0
   36.9740   20.5480   31.2880 C   0  0  2  0  0  3  0  0  0  0  0  0
   35.8170   21.5100   31.4660 C   0  0  1  0  0  3  0  0  0  0  0  0
   34.9260   20.9090   32.3470 O   0  0  0  0  0  0  0  0  0  0  0  0
   35.4370   19.7440   32.8280 C   0  0  0  0  0  2  0  0  0  0  0  0
   36.3980   19.2090   31.7860 C   0  0  1  0  0  3  0  0  0  0  0  0
   38.0930   20.8920   32.0420 O   0  0  0  0  0  0  0  0  0  0  0  0
   38.8610   21.0830   31.4480 H   0  0  0  0  0  0  0  0  0  0  0  0
   35.6700   18.5550   30.8190 O   0  0  0  0  0  0  0  0  0  0  0  0
   34.7820   18.2490   31.1910 H   0  0  0  0  0  0  0  0  0  0  0  0
  1  7  1  6  0  0  0
  1 14  1  0  0  0  0
  1  2  1  0  0  0  0
  2  8  1  1  0  0  0
  2 16  1  0  0  0  0
  3  9  1  0  0  0  0
  3  2  1  0  0  0  0
  4  5  1  0  0  0  0
  4  3  1  0  0  0  0
  5  6  1  0  0  0  0
  5 12  1  0  0  0  0
  6 13  1  6  0  0  0
  6  1  1  0  0  0  0
  6 37  1  0  0  0  0
 10  3  1  0  0  0  0
 11  5  1  0  0  0  0
 15 14  1  0  0  0  0
 16 17  1  0  0  0  0
 17 22  1  1  0  0  0
 17 21  1  0  0  0  0
 17 18  1  0  0  0  0
 18 23  1  1  0  0  0
 19 18  1  0  0  0  0
 19 25  1  0  0  0  0
 20 19  1  0  0  0  0
 21 20  1  0  0  0  0
 21 27  1  0  0  0  0
 24 19  1  0  0  0  0
 26 21  1  0  0  0  0
 28 18  1  0  0  0  0
 29 34  1  0  0  0  0
 29 28  2  0  0  0  0
 30 29  1  0  0  0  0
 31 30  2  0  0  0  0
 31 32  1  0  0  0  0
 32 33  2  0  0  0  0
 33 28  1  0  0  0  0
 35 30  1  0  0  0  0
 36 32  1  0  0  0  0
 38 39  1  0  0  0  0
 38 42  1  0  0  0  0
 38 43  1  1  0  0  0
 39 37  1  1  0  0  0
 39 40  1  0  0  0  0
 40 41  1  0  0  0  0
 42 45  1  6  0  0  0
 42 41  1  0  0  0  0
 44 43  1  0  0  0  0
 45 46  1  0  0  0  0
M  END
>  <minimizedAffinity>
-5.37985277

$$$$

 OpenBabel03262521443D

 46 49  0  0  1  0  0  0  0  0999 V2000
   38.1340   24.9380   34.9420 C   0  0  2  0  0  0  0  0  0  0  0  0
   37.5820   25.9100   33.9160 C   0  0  2  0  0  0  0  0  0  0  0  0
   37.0880   27.1150   34.6440 C   0  0  0  0  0  0  0  0  0  0  0  0
   37.8350   27.3640   35.7580 O   0  0  0  0  0  0  0  0  0  0  0  0
   39.1710   27.1220   35.4860 C   0  0  0  0  0  0  0  0  0  0  0  0
   39.4040   25.6460   35.4860 C   0  0  2  0  0  0  0  0  0  0  0  0
   37.4100   24.8800   35.7810 H   0  0  0  0  0  0  0  0  0  0  0  0
   38.5490   26.2050   33.4730 H   0  0  0  0  0  0  0  0  0  0  0  0
   37.0840   28.0350   34.0110 H   0  0  0  0  0  0  0  0  0  0  0  0
   35.9980   26.9970   34.9230 H   0  0  0  0  0  0  0  0  0  0  0  0
   39.7270   27.5400   36.3550 H   0  0  0  0  0  0  0  0  0  0  0  0
   39.4900   27.6540   34.5950 H   0  0  0  0  0  0  0  0  0  0  0  0
   39.6260   25.2770   36.5010 H   0  0  0  0  0  0  0  0  0  0  0  0
   38.5580   23.7360   34.4890 O   0  0  0  0  0  0  0  0  0  0  0  0
   37.8580   23.0580   34.7150 H   0  0  0  0  0  0  0  0  0  0  0  0
   36.6810   25.4080   33.0280 O   0  0  0  0  0  0  0  0  0  0  0  0
   37.1690   25.3610   31.7850 C   0  0  1  0  0  0  0  0  0  0  0  0
   36.5640   24.2950   30.9060 C   0  0  2  0  0  0  0  0  0  0  0  0
   35.1170   24.8070   30.9340 C   0  0  0  0  0  0  0  0  0  0  0  0
   35.1780   26.1730   30.8070 O   0  0  0  0  0  0  0  0  0  0  0  0
   36.4420   26.5380   31.0570 C   0  0  0  0  0  0  0  0  0  0  0  0
   38.2040   25.7380   31.6120 H   0  0  0  0  0  0  0  0  0  0  0  0
   36.9960   24.4150   29.9090 H   0  0  0  0  0  0  0  0  0  0  0  0
   34.6380   24.4570   31.8500 H   0  0  0  0  0  0  0  0  0  0  0  0
   34.6550   24.4090   30.0030 H   0  0  0  0  0  0  0  0  0  0  0  0
   36.8140   27.4980   31.1050 H   0  0  0  0  0  0  0  0  0  0  0  0
   36.8900   26.2930   30.0100 H   0  0  0  0  0  0  0  0  0  0  0  0
   36.6810   22.9570   31.5000 C   0  0  0  0  0  0  0  0  0  0  0  0
   35.5050   22.2820   31.8300 C   0  0  0  0  0  0  0  0  0  0  0  0
   35.6560   20.9960   32.4180 C   0  0  0  0  0  0  0  0  0  0  0  0
   36.9210   20.5040   32.6200 N   0  0  0  0  0  0  0  0  0  0  0  0
   38.0310   21.1980   32.2810 C   0  0  0  0  0  0  0  0  0  0  0  0
   37.9030   22.4190   31.7230 N   0  0  0  0  0  0  0  0  0  0  0  0
   34.5200   22.6720   31.6700 H   0  0  0  0  0  0  0  0  0  0  0  0
   34.7780   20.4340   32.6920 H   0  0  0  0  0  0  0  0  0  0  0  0
   39.0110   20.7770   32.4570 H   0  0  0  0  0  0  0  0  0  0  0  0
   40.4790   25.3920   34.6320 O   0  0  0  0  0  0  0  0  0  0  0  0
   42.7770   25.8330   35.1180 C   0  0  2  0  0  3  0  0  0  0  0  0
   41.4440   26.3430   34.6100 C   0  0  1  0  0  3  0  0  0  0  0  0
   41.6330   26.7110   33.2830 O   0  0  0  0  0  0  0  0  0  0  0  0
   42.8860   26.3860   32.8670 C   0  0  0  0  0  2  0  0  0  0  0  0
   43.7810   26.3880   34.0890 C   0  0  1  0  0  3  0  0  0  0  0  0
   42.8540   24.4430   35.1510 O   0  0  0  0  0  0  0  0  0  0  0  0
   42.9880   24.1290   36.0800 H   0  0  0  0  0  0  0  0  0  0  0  0
   44.1460   27.6870   34.3570 O   0  0  0  0  0  0  0  0  0  0  0  0
   44.0810   28.2520   33.5220 H   0  0  0  0  0  0  0  0  0  0  0  0
  1  6  1  0  0  0  0
  1  7  1  1  0  0  0
  2  8  1  6  0  0  0
  2  3  1  0  0  0  0
  2  1  1  0  0  0  0
  3 10  1  0  0  0  0
  3  4  1  0  0  0  0
  5  6  1  0  0  0  0
  5  4  1  0  0  0  0
  5 11  1  0  0  0  0
  6 13  1  1  0  0  0
  9  3  1  0  0  0  0
 12  5  1  0  0  0  0
 14 15  1  0  0  0  0
 14  1  1  0  0  0  0
 16  2  1  0  0  0  0
 17 22  1  6  0  0  0
 17 16  1  0  0  0  0
 18 23  1  6  0  0  0
 18 19  1  0  0  0  0
 18 28  1  0  0  0  0
 18 17  1  0  0  0  0
 19 24  1  0  0  0  0
 20 19  1  0  0  0  0
 20 21  1  0  0  0  0
 21 26  1  0  0  0  0
 21 17  1  0  0  0  0
 25 19  1  0  0  0  0
 27 21  1  0  0  0  0
 28 33  2  0  0  0  0
 28 29  1  0  0  0  0
 29 30  2  0  0  0  0
 30 31  1  0  0  0  0
 30 35  1  0  0  0  0
 32 36  1  0  0  0  0
 32 31  2  0  0  0  0
 33 32  1  0  0  0  0
 34 29  1  0  0  0  0
 37  6  1  0  0  0  0
 38 43  1  6  0  0  0
 39 37  1  6  0  0  0
 39 38  1  0  0  0  0
 40 39  1  0  0  0  0
 41 40  1  0  0  0  0
 41 42  1  0  0  0  0
 42 45  1  1  0  0  0
 42 38  1  0  0  0  0
 43 44  1  0  0  0  0
 46 45  1  0  0  0  0
M  END
>  <minimizedAffinity>
-5.32429075

$$$$

 OpenBabel03262521443D

 46 49  0  0  1  0  0  0  0  0999 V2000
   39.5800   23.0580   32.7980 C   0  0  2  0  0  0  0  0  0  0  0  0
   38.7980   23.9750   31.8770 C   0  0  2  0  0  0  0  0  0  0  0  0
   37.8320   23.1380   31.1070 C   0  0  0  0  0  0  0  0  0  0  0  0
   37.3960   22.0760   31.8450 O   0  0  0  0  0  0  0  0  0  0  0  0
   37.1990   22.4720   33.1570 C   0  0  0  0  0  0  0  0  0  0  0  0
   38.5260   22.5790   33.8340 C   0  0  2  0  0  0  0  0  0  0  0  0
   39.8880   22.1670   32.2130 H   0  0  0  0  0  0  0  0  0  0  0  0
   38.2010   24.4780   32.6560 H   0  0  0  0  0  0  0  0  0  0  0  0
   36.9400   23.7120   30.7570 H   0  0  0  0  0  0  0  0  0  0  0  0
   38.2940   22.7780   30.1390 H   0  0  0  0  0  0  0  0  0  0  0  0
   36.6540   21.6280   33.6380 H   0  0  0  0  0  0  0  0  0  0  0  0
   36.5660   23.3520   33.2080 H   0  0  0  0  0  0  0  0  0  0  0  0
   38.8390   21.6100   34.2560 H   0  0  0  0  0  0  0  0  0  0  0  0
   40.5730   23.6160   33.5270 O   0  0  0  0  0  0  0  0  0  0  0  0
   41.4430   23.3740   33.0970 H   0  0  0  0  0  0  0  0  0  0  0  0
   39.5300   24.8140   31.0930 O   0  0  0  0  0  0  0  0  0  0  0  0
   38.8310   25.8900   30.7160 C   0  0  1  0  0  0  0  0  0  0  0  0
   39.2290   27.1750   31.3970 C   0  0  2  0  0  0  0  0  0  0  0  0
   40.6790   27.2290   30.8960 C   0  0  0  0  0  0  0  0  0  0  0  0
   40.6550   26.8640   29.5730 O   0  0  0  0  0  0  0  0  0  0  0  0
   39.4700   26.2830   29.3430 C   0  0  0  0  0  0  0  0  0  0  0  0
   37.7990   25.7350   30.3230 H   0  0  0  0  0  0  0  0  0  0  0  0
   38.6360   27.9760   30.9480 H   0  0  0  0  0  0  0  0  0  0  0  0
   41.2950   26.5910   31.5310 H   0  0  0  0  0  0  0  0  0  0  0  0
   40.9550   28.3070   30.9360 H   0  0  0  0  0  0  0  0  0  0  0  0
   39.1520   25.8420   28.4680 H   0  0  0  0  0  0  0  0  0  0  0  0
   38.8360   27.2530   29.2200 H   0  0  0  0  0  0  0  0  0  0  0  0
   39.1600   27.0690   32.8600 C   0  0  0  0  0  0  0  0  0  0  0  0
   37.9130   27.2130   33.4690 C   0  0  0  0  0  0  0  0  0  0  0  0
   37.8850   27.1230   34.8870 C   0  0  0  0  0  0  0  0  0  0  0  0
   39.0610   26.9020   35.5600 N   0  0  0  0  0  0  0  0  0  0  0  0
   40.2460   26.7670   34.9230 C   0  0  0  0  0  0  0  0  0  0  0  0
   40.2870   26.8520   33.5780 N   0  0  0  0  0  0  0  0  0  0  0  0
   36.9980   27.3860   32.9370 H   0  0  0  0  0  0  0  0  0  0  0  0
   36.9460   27.2270   35.4060 H   0  0  0  0  0  0  0  0  0  0  0  0
   41.1510   26.5950   35.4890 H   0  0  0  0  0  0  0  0  0  0  0  0
   38.4040   23.5330   34.8460 O   0  0  0  0  0  0  0  0  0  0  0  0
   39.3680   22.8030   36.9080 C   0  0  2  0  0  3  0  0  0  0  0  0
   38.1230   23.0430   36.0780 C   0  0  1  0  0  3  0  0  0  0  0  0
   37.3740   24.0050   36.7450 O   0  0  0  0  0  0  0  0  0  0  0  0
   38.0510   24.4770   37.8260 C   0  0  0  0  0  2  0  0  0  0  0  0
   38.9900   23.3810   38.2860 C   0  0  1  0  0  3  0  0  0  0  0  0
   40.4910   23.4610   36.4120 O   0  0  0  0  0  0  0  0  0  0  0  0
   41.1870   22.8050   36.1560 H   0  0  0  0  0  0  0  0  0  0  0  0
   38.2750   22.4900   39.0520 O   0  0  0  0  0  0  0  0  0  0  0  0
   37.4580   22.9370   39.4440 H   0  0  0  0  0  0  0  0  0  0  0  0
  1  7  1  6  0  0  0
  1 14  1  0  0  0  0
  1  6  1  0  0  0  0
  2  8  1  1  0  0  0
  2  1  1  0  0  0  0
  3  4  1  0  0  0  0
  3  2  1  0  0  0  0
  4  5  1  0  0  0  0
  5 12  1  0  0  0  0
  5 11  1  0  0  0  0
  5  6  1  0  0  0  0
  6 13  1  1  0  0  0
  6 37  1  0  0  0  0
  9  3  1  0  0  0  0
 10  3  1  0  0  0  0
 15 14  1  0  0  0  0
 16  2  1  0  0  0  0
 17 22  1  6  0  0  0
 17 16  1  0  0  0  0
 17 18  1  0  0  0  0
 18 23  1  6  0  0  0
 18 28  1  0  0  0  0
 19 25  1  0  0  0  0
 19 18  1  0  0  0  0
 19 24  1  0  0  0  0
 20 19  1  0  0  0  0
 21 20  1  0  0  0  0
 21 17  1  0  0  0  0
 26 21  1  0  0  0  0
 27 21  1  0  0  0  0
 28 29  2  0  0  0  0
 28 33  1  0  0  0  0
 29 30  1  0  0  0  0
 30 35  1  0  0  0  0
 30 31  2  0  0  0  0
 32 36  1  0  0  0  0
 32 31  1  0  0  0  0
 33 32  2  0  0  0  0
 34 29  1  0  0  0  0
 38 43  1  6  0  0  0
 38 42  1  0  0  0  0
 39 37  1  6  0  0  0
 39 40  1  0  0  0  0
 39 38  1  0  0  0  0
 40 41  1  0  0  0  0
 41 42  1  0  0  0  0
 42 45  1  1  0  0  0
 44 43  1  0  0  0  0
 45 46  1  0  0  0  0
M  END
>  <minimizedAffinity>
-5.30060816

$$$$

 OpenBabel03262521443D

 46 49  0  0  1  0  0  0  0  0999 V2000
   38.5480   26.6130   31.8920 C   0  0  2  0  0  0  0  0  0  0  0  0
   37.1940   27.2660   32.0900 C   0  0  2  0  0  0  0  0  0  0  0  0
   36.1910   26.4940   31.3000 C   0  0  0  0  0  0  0  0  0  0  0  0
   36.5130   25.1690   31.2470 O   0  0  0  0  0  0  0  0  0  0  0  0
   37.0070   24.7610   32.4740 C   0  0  0  0  0  0  0  0  0  0  0  0
   38.4140   25.2440   32.6130 C   0  0  2  0  0  0  0  0  0  0  0  0
   38.6690   26.3990   30.8100 H   0  0  0  0  0  0  0  0  0  0  0  0
   37.0450   26.9600   33.1400 H   0  0  0  0  0  0  0  0  0  0  0  0
   35.1530   26.5870   31.7030 H   0  0  0  0  0  0  0  0  0  0  0  0
   36.0930   26.9150   30.2540 H   0  0  0  0  0  0  0  0  0  0  0  0
   37.0470   23.6500   32.4190 H   0  0  0  0  0  0  0  0  0  0  0  0
   36.3290   25.0330   33.2770 H   0  0  0  0  0  0  0  0  0  0  0  0
   39.1270   24.5260   32.1760 H   0  0  0  0  0  0  0  0  0  0  0  0
   39.6150   27.2170   32.4630 O   0  0  0  0  0  0  0  0  0  0  0  0
   40.1160   27.7000   31.7440 H   0  0  0  0  0  0  0  0  0  0  0  0
   37.1310   28.6090   31.8760 O   0  0  0  0  0  0  0  0  0  0  0  0
   36.2220   28.9310   30.9510 C   0  0  1  0  0  0  0  0  0  0  0  0
   35.4660   30.2070   31.2220 C   0  0  2  0  0  0  0  0  0  0  0  0
   36.6660   31.1630   31.2020 C   0  0  0  0  0  0  0  0  0  0  0  0
   37.4620   30.7760   30.1530 O   0  0  0  0  0  0  0  0  0  0  0  0
   37.0750   29.5460   29.7930 C   0  0  0  0  0  0  0  0  0  0  0  0
   35.7770   28.1080   30.3430 H   0  0  0  0  0  0  0  0  0  0  0  0
   34.8150   30.3860   30.3610 H   0  0  0  0  0  0  0  0  0  0  0  0
   37.1550   31.1340   32.1770 H   0  0  0  0  0  0  0  0  0  0  0  0
   36.2360   32.1560   30.9420 H   0  0  0  0  0  0  0  0  0  0  0  0
   37.5050   28.9420   29.0770 H   0  0  0  0  0  0  0  0  0  0  0  0
   36.1530   29.8500   29.1480 H   0  0  0  0  0  0  0  0  0  0  0  0
   34.8030   30.1880   32.5330 C   0  0  0  0  0  0  0  0  0  0  0  0
   35.3580   30.9560   33.5570 C   0  0  0  0  0  0  0  0  0  0  0  0
   34.7020   30.9020   34.8170 C   0  0  0  0  0  0  0  0  0  0  0  0
   33.5850   30.1160   34.9490 N   0  0  0  0  0  0  0  0  0  0  0  0
   33.0850   29.3900   33.9240 C   0  0  0  0  0  0  0  0  0  0  0  0
   33.6980   29.4310   32.7240 N   0  0  0  0  0  0  0  0  0  0  0  0
   36.2320   31.5680   33.4480 H   0  0  0  0  0  0  0  0  0  0  0  0
   35.0910   31.4770   35.6410 H   0  0  0  0  0  0  0  0  0  0  0  0
   32.2020   28.7810   34.0670 H   0  0  0  0  0  0  0  0  0  0  0  0
   38.6670   25.4110   33.9760 O   0  0  0  0  0  0  0  0  0  0  0  0
   39.2020   23.5370   35.3600 C   0  0  2  0  0  3  0  0  0  0  0  0
   38.1440   24.4590   34.7870 C   0  0  1  0  0  3  0  0  0  0  0  0
   37.5530   25.1100   35.8630 O   0  0  0  0  0  0  0  0  0  0  0  0
   38.1880   24.7960   37.0240 C   0  0  0  0  0  2  0  0  0  0  0  0
   38.8030   23.4230   36.8440 C   0  0  1  0  0  3  0  0  0  0  0  0
   40.4910   24.0520   35.2550 O   0  0  0  0  0  0  0  0  0  0  0  0
   41.0510   23.4620   34.6890 H   0  0  0  0  0  0  0  0  0  0  0  0
   37.8260   22.4780   37.0560 O   0  0  0  0  0  0  0  0  0  0  0  0
   37.0870   22.8570   37.6320 H   0  0  0  0  0  0  0  0  0  0  0  0
  1  7  1  6  0  0  0
  1  2  1  0  0  0  0
  1 14  1  0  0  0  0
  1  6  1  0  0  0  0
  2  8  1  1  0  0  0
  3  9  1  0  0  0  0
  3  2  1  0  0  0  0
  4  3  1  0  0  0  0
  4  5  1  0  0  0  0
  5  6  1  0  0  0  0
  5 12  1  0  0  0  0
  6 13  1  6  0  0  0
  6 37  1  0  0  0  0
 10  3  1  0  0  0  0
 11  5  1  0  0  0  0
 15 14  1  0  0  0  0
 16  2  1  0  0  0  0
 17 22  1  6  0  0  0
 17 18  1  0  0  0  0
 17 16  1  0  0  0  0
 18 23  1  6  0  0  0
 18 28  1  0  0  0  0
 19 18  1  0  0  0  0
 19 24  1  0  0  0  0
 20 19  1  0  0  0  0
 21 20  1  0  0  0  0
 21 17  1  0  0  0  0
 25 19  1  0  0  0  0
 26 21  1  0  0  0  0
 27 21  1  0  0  0  0
 28 33  2  0  0  0  0
 28 29  1  0  0  0  0
 29 30  2  0  0  0  0
 30 31  1  0  0  0  0
 30 35  1  0  0  0  0
 32 36  1  0  0  0  0
 32 31  2  0  0  0  0
 33 32  1  0  0  0  0
 34 29  1  0  0  0  0
 38 43  1  1  0  0  0
 38 42  1  0  0  0  0
 39 37  1  6  0  0  0
 39 38  1  0  0  0  0
 39 40  1  0  0  0  0
 40 41  1  0  0  0  0
 42 41  1  0  0  0  0
 42 45  1  6  0  0  0
 44 43  1  0  0  0  0
 45 46  1  0  0  0  0
M  END
>  <minimizedAffinity>
-5.19013453

$$$$

 OpenBabel03262521443D

 46 49  0  0  1  0  0  0  0  0999 V2000
   39.6470   26.3080   34.3090 C   0  0  2  0  0  0  0  0  0  0  0  0
   38.8260   25.5790   35.3560 C   0  0  2  0  0  0  0  0  0  0  0  0
   38.1810   26.6030   36.2290 C   0  0  0  0  0  0  0  0  0  0  0  0
   37.8820   27.7360   35.5290 O   0  0  0  0  0  0  0  0  0  0  0  0
   37.4200   27.3950   34.2690 C   0  0  0  0  0  0  0  0  0  0  0  0
   38.5840   27.0050   33.4170 C   0  0  2  0  0  0  0  0  0  0  0  0
   40.2180   27.1100   34.8210 H   0  0  0  0  0  0  0  0  0  0  0  0
   38.0300   25.2190   34.6820 H   0  0  0  0  0  0  0  0  0  0  0  0
   37.2460   26.2340   36.7160 H   0  0  0  0  0  0  0  0  0  0  0  0
   38.8430   26.8530   37.1130 H   0  0  0  0  0  0  0  0  0  0  0  0
   37.0060   28.3380   33.8450 H   0  0  0  0  0  0  0  0  0  0  0  0
   36.6130   26.6720   34.3320 H   0  0  0  0  0  0  0  0  0  0  0  0
   39.0330   27.8850   32.9280 H   0  0  0  0  0  0  0  0  0  0  0  0
   40.3830   25.5500   33.4650 O   0  0  0  0  0  0  0  0  0  0  0  0
   41.3380   25.5980   33.7630 H   0  0  0  0  0  0  0  0  0  0  0  0
   39.4650   24.6000   36.0540 O   0  0  0  0  0  0  0  0  0  0  0  0
   38.6820   23.5370   36.2640 C   0  0  1  0  0  0  0  0  0  0  0  0
   39.2970   22.2130   35.8870 C   0  0  2  0  0  0  0  0  0  0  0  0
   40.4810   22.2540   36.8620 C   0  0  0  0  0  0  0  0  0  0  0  0
   39.9960   22.7310   38.0540 O   0  0  0  0  0  0  0  0  0  0  0  0
   38.8040   23.2860   37.8040 C   0  0  0  0  0  0  0  0  0  0  0  0
   37.5770   23.6890   36.2580 H   0  0  0  0  0  0  0  0  0  0  0  0
   38.5870   21.4330   36.1750 H   0  0  0  0  0  0  0  0  0  0  0  0
   41.2780   22.8560   36.4230 H   0  0  0  0  0  0  0  0  0  0  0  0
   40.7570   21.1870   37.0210 H   0  0  0  0  0  0  0  0  0  0  0  0
   38.2000   23.7910   38.4690 H   0  0  0  0  0  0  0  0  0  0  0  0
   38.1700   22.3090   37.7900 H   0  0  0  0  0  0  0  0  0  0  0  0
   39.7420   22.1890   34.4870 C   0  0  0  0  0  0  0  0  0  0  0  0
   41.1010   21.9960   34.2360 C   0  0  0  0  0  0  0  0  0  0  0  0
   41.4990   21.9950   32.8720 C   0  0  0  0  0  0  0  0  0  0  0  0
   40.5450   22.1800   31.9030 N   0  0  0  0  0  0  0  0  0  0  0  0
   39.2380   22.3630   32.1980 C   0  0  0  0  0  0  0  0  0  0  0  0
   38.8470   22.3670   33.4880 N   0  0  0  0  0  0  0  0  0  0  0  0
   41.8420   21.8520   34.9980 H   0  0  0  0  0  0  0  0  0  0  0  0
   42.5380   21.8490   32.6230 H   0  0  0  0  0  0  0  0  0  0  0  0
   38.5160   22.5060   31.4060 H   0  0  0  0  0  0  0  0  0  0  0  0
   38.1180   26.1020   32.4590 O   0  0  0  0  0  0  0  0  0  0  0  0
   36.1920   26.5400   31.1130 C   0  0  2  0  0  3  0  0  0  0  0  0
   36.7700   25.9680   32.3920 C   0  0  1  0  0  3  0  0  0  0  0  0
   36.4900   24.6070   32.3870 O   0  0  0  0  0  0  0  0  0  0  0  0
   35.9100   24.2400   31.2130 C   0  0  0  0  0  2  0  0  0  0  0  0
   35.1940   25.4550   30.6630 C   0  0  1  0  0  3  0  0  0  0  0  0
   37.1490   26.7430   30.1220 O   0  0  0  0  0  0  0  0  0  0  0  0
   37.2050   27.7040   29.8920 H   0  0  0  0  0  0  0  0  0  0  0  0
   33.9770   25.5640   31.2950 O   0  0  0  0  0  0  0  0  0  0  0  0
   33.6820   24.6670   31.6520 H   0  0  0  0  0  0  0  0  0  0  0  0
  1  7  1  1  0  0  0
  1  2  1  0  0  0  0
  2  8  1  6  0  0  0
  2 16  1  0  0  0  0
  2  3  1  0  0  0  0
  3  9  1  0  0  0  0
  3 10  1  0  0  0  0
  4  3  1  0  0  0  0
  5 12  1  0  0  0  0
  5  4  1  0  0  0  0
  6 13  1  6  0  0  0
  6  5  1  0  0  0  0
  6  1  1  0  0  0  0
 11  5  1  0  0  0  0
 14 15  1  0  0  0  0
 14  1  1  0  0  0  0
 16 17  1  0  0  0  0
 17 22  1  6  0  0  0
 17 21  1  0  0  0  0
 18 23  1  1  0  0  0
 18 17  1  0  0  0  0
 18 19  1  0  0  0  0
 19 25  1  0  0  0  0
 19 20  1  0  0  0  0
 21 20  1  0  0  0  0
 21 26  1  0  0  0  0
 24 19  1  0  0  0  0
 27 21  1  0  0  0  0
 28 18  1  0  0  0  0
 29 28  1  0  0  0  0
 29 34  1  0  0  0  0
 30 29  2  0  0  0  0
 31 32  2  0  0  0  0
 31 30  1  0  0  0  0
 32 33  1  0  0  0  0
 33 28  2  0  0  0  0
 35 30  1  0  0  0  0
 36 32  1  0  0  0  0
 37  6  1  0  0  0  0
 38 43  1  6  0  0  0
 38 39  1  0  0  0  0
 39 37  1  6  0  0  0
 40 39  1  0  0  0  0
 41 40  1  0  0  0  0
 42 38  1  0  0  0  0
 42 41  1  0  0  0  0
 42 45  1  1  0  0  0
 44 43  1  0  0  0  0
 45 46  1  0  0  0  0
M  END
>  <minimizedAffinity>
-5.17463923

$$$$

 OpenBabel03262521443D

 46 49  0  0  1  0  0  0  0  0999 V2000
   35.9980   24.7810   30.8370 C   0  0  2  0  0  0  0  0  0  0  0  0
   36.8790   23.6600   31.3560 C   0  0  2  0  0  0  0  0  0  0  0  0
   38.1180   23.6280   30.5250 C   0  0  0  0  0  0  0  0  0  0  0  0
   38.4670   24.8780   30.1020 O   0  0  0  0  0  0  0  0  0  0  0  0
   38.2440   25.7910   31.1190 C   0  0  0  0  0  0  0  0  0  0  0  0
   36.7790   26.0720   31.2030 C   0  0  2  0  0  0  0  0  0  0  0  0
   35.9790   24.7150   29.7300 H   0  0  0  0  0  0  0  0  0  0  0  0
   37.1710   24.1420   32.3050 H   0  0  0  0  0  0  0  0  0  0  0  0
   38.9910   23.1820   31.0610 H   0  0  0  0  0  0  0  0  0  0  0  0
   37.9890   22.9370   29.6370 H   0  0  0  0  0  0  0  0  0  0  0  0
   38.7380   26.7300   30.7820 H   0  0  0  0  0  0  0  0  0  0  0  0
   38.7210   25.4720   32.0400 H   0  0  0  0  0  0  0  0  0  0  0  0
   36.4890   26.8850   30.5170 H   0  0  0  0  0  0  0  0  0  0  0  0
   34.7810   24.9230   31.4080 O   0  0  0  0  0  0  0  0  0  0  0  0
   34.1000   24.5480   30.7780 H   0  0  0  0  0  0  0  0  0  0  0  0
   36.2910   22.4400   31.4950 O   0  0  0  0  0  0  0  0  0  0  0  0
   37.1370   21.4390   31.2340 C   0  0  1  0  0  0  0  0  0  0  0  0
   37.4370   20.5410   32.4070 C   0  0  2  0  0  0  0  0  0  0  0  0
   36.0080   20.0350   32.6470 C   0  0  0  0  0  0  0  0  0  0  0  0
   35.4670   19.7780   31.4120 O   0  0  0  0  0  0  0  0  0  0  0  0
   36.2450   20.3810   30.5050 C   0  0  0  0  0  0  0  0  0  0  0  0
   37.8660   21.5710   30.4010 H   0  0  0  0  0  0  0  0  0  0  0  0
   38.0760   19.7330   32.0410 H   0  0  0  0  0  0  0  0  0  0  0  0
   35.4660   20.7790   33.2330 H   0  0  0  0  0  0  0  0  0  0  0  0
   36.1340   19.0580   33.1630 H   0  0  0  0  0  0  0  0  0  0  0  0
   36.0870   20.4360   29.4880 H   0  0  0  0  0  0  0  0  0  0  0  0
   37.0830   19.5740   30.4480 H   0  0  0  0  0  0  0  0  0  0  0  0
   37.9520   21.2920   33.5610 C   0  0  0  0  0  0  0  0  0  0  0  0
   37.1190   21.4380   34.6710 C   0  0  0  0  0  0  0  0  0  0  0  0
   37.6420   22.1840   35.7620 C   0  0  0  0  0  0  0  0  0  0  0  0
   38.9080   22.7050   35.6620 N   0  0  0  0  0  0  0  0  0  0  0  0
   39.6770   22.5350   34.5620 C   0  0  0  0  0  0  0  0  0  0  0  0
   39.1930   21.8300   33.5200 N   0  0  0  0  0  0  0  0  0  0  0  0
   36.1310   21.0280   34.7420 H   0  0  0  0  0  0  0  0  0  0  0  0
   37.0390   22.3260   36.6440 H   0  0  0  0  0  0  0  0  0  0  0  0
   40.6690   22.9620   34.5210 H   0  0  0  0  0  0  0  0  0  0  0  0
   36.4960   26.4280   32.5230 O   0  0  0  0  0  0  0  0  0  0  0  0
   37.4560   27.8680   34.1710 C   0  0  2  0  0  3  0  0  0  0  0  0
   37.5760   26.6210   33.3190 C   0  0  1  0  0  3  0  0  0  0  0  0
   37.6450   25.5420   34.1930 O   0  0  0  0  0  0  0  0  0  0  0  0
   37.4670   25.9510   35.4780 C   0  0  0  0  0  2  0  0  0  0  0  0
   37.9250   27.3930   35.5600 C   0  0  1  0  0  3  0  0  0  0  0  0
   36.1530   28.3520   34.2530 O   0  0  0  0  0  0  0  0  0  0  0  0
   36.0990   29.2610   33.8660 H   0  0  0  0  0  0  0  0  0  0  0  0
   39.2960   27.4060   35.6860 O   0  0  0  0  0  0  0  0  0  0  0  0
   39.6230   26.5320   36.0730 H   0  0  0  0  0  0  0  0  0  0  0  0
  1  7  1  6  0  0  0
  1  6  1  0  0  0  0
  1  2  1  0  0  0  0
  1 14  1  0  0  0  0
  2 16  1  0  0  0  0
  2  8  1  1  0  0  0
  3  9  1  0  0  0  0
  3  2  1  0  0  0  0
  4  3  1  0  0  0  0
  4  5  1  0  0  0  0
  5  6  1  0  0  0  0
  5 12  1  0  0  0  0
  6 13  1  6  0  0  0
  6 37  1  0  0  0  0
 10  3  1  0  0  0  0
 11  5  1  0  0  0  0
 15 14  1  0  0  0  0
 17 22  1  6  0  0  0
 17 16  1  0  0  0  0
 17 18  1  0  0  0  0
 18 23  1  6  0  0  0
 18 19  1  0  0  0  0
 18 28  1  0  0  0  0
 19 25  1  0  0  0  0
 19 24  1  0  0  0  0
 20 19  1  0  0  0  0
 21 17  1  0  0  0  0
 21 20  1  0  0  0  0
 26 21  1  0  0  0  0
 27 21  1  0  0  0  0
 28 29  1  0  0  0  0
 29 34  1  0  0  0  0
 29 30  2  0  0  0  0
 30 35  1  0  0  0  0
 31 30  1  0  0  0  0
 32 31  2  0  0  0  0
 33 28  2  0  0  0  0
 33 32  1  0  0  0  0
 36 32  1  0  0  0  0
 38 43  1  1  0  0  0
 38 42  1  0  0  0  0
 39 37  1  6  0  0  0
 39 38  1  0  0  0  0
 39 40  1  0  0  0  0
 40 41  1  0  0  0  0
 41 42  1  0  0  0  0
 42 45  1  6  0  0  0
 44 43  1  0  0  0  0
 45 46  1  0  0  0  0
M  END
>  <minimizedAffinity>
-5.10016012

$$$$
