
 OpenBabel03272509453D

 19 20  0  0  1  0  0  0  0  0999 V2000
   35.3700   28.7690   48.2410 O   0  0  0  0  0  0  0  0  0  0  0  0
   36.9320   29.8690   51.3370 C   0  0  0  0  0  0  0  0  0  0  0  0
   37.9650   30.6630   50.7850 C   0  0  0  0  0  0  0  0  0  0  0  0
   38.0750   30.7820   49.3970 C   0  0  0  0  0  0  0  0  0  0  0  0
   37.1540   30.1060   48.6370 N   0  0  0  0  0  0  0  0  0  0  0  0
   36.1800   29.3560   49.1910 C   0  0  0  0  0  0  0  0  0  0  0  0
   36.0760   29.2430   50.5380 N   0  0  0  0  0  0  0  0  0  0  0  0
   36.8290   29.7630   52.4090 H   0  0  0  0  0  0  0  0  0  0  0  0
   38.6640   31.1740   51.4560 H   0  0  0  0  0  0  0  0  0  0  0  0
   38.8380   31.3700   48.9510 H   0  0  0  0  0  0  0  0  0  0  0  0
   32.9690   28.9540   47.8410 C   0  0  2  0  0  3  0  0  0  0  0  0
   34.0720   28.4100   48.6870 C   0  0  1  0  0  3  0  0  0  0  0  0
   33.9870   27.0280   48.5350 O   0  0  0  0  0  0  0  0  0  0  0  0
   33.9000   26.8850   47.1510 C   0  0  0  0  0  2  0  0  0  0  0  0
   32.7810   27.8410   46.8030 C   0  0  2  0  0  3  0  0  0  0  0  0
   33.2520   30.1720   47.2550 O   0  0  0  0  0  0  0  0  0  0  0  0
   32.4620   30.7760   47.4170 H   0  0  0  0  0  0  0  0  0  0  0  0
   32.9850   28.3530   45.5210 O   0  0  0  0  0  0  0  0  0  0  0  0
   33.9230   28.1400   45.2180 H   0  0  0  0  0  0  0  0  0  0  0  0
  1  6  1  0  0  0  0
  2  8  1  0  0  0  0
  3  2  1  0  0  0  0
  3  9  1  0  0  0  0
  4  3  2  0  0  0  0
  5  6  2  0  0  0  0
  5  4  1  0  0  0  0
  6  7  1  0  0  0  0
  7  2  2  0  0  0  0
 10  4  1  0  0  0  0
 11 16  1  6  0  0  0
 11 12  1  0  0  0  0
 12  1  1  6  0  0  0
 13 12  1  0  0  0  0
 14 13  1  0  0  0  0
 15 18  1  6  0  0  0
 15 14  1  0  0  0  0
 15 11  1  0  0  0  0
 16 17  1  0  0  0  0
 19 18  1  0  0  0  0
M  END
>  <minimizedAffinity>
-3.70359516

>  <minimizedRMSD>
2.1132791

$$$$
