
 OpenBabel03272509183D

 33 35  0  0  1  0  0  0  0  0999 V2000
   37.2450   31.3820   46.9310 C   0  0  0  0  0  0  0  0  0  0  0  0
   36.9690   30.9680   48.2370 C   0  0  0  0  0  0  0  0  0  0  0  0
   37.7810   31.5500   49.2070 C   0  0  0  0  0  0  0  0  0  0  0  0
   38.7790   32.4670   48.8590 C   0  0  0  0  0  0  0  0  0  0  0  0
   38.9700   32.8090   47.5280 C   0  0  0  0  0  0  0  0  0  0  0  0
   38.1920   32.2580   46.5450 C   0  0  0  0  0  0  0  0  0  0  0  0
   37.5920   31.2520   50.2300 H   0  0  0  0  0  0  0  0  0  0  0  0
   39.3450   32.8540   49.6900 H   0  0  0  0  0  0  0  0  0  0  0  0
   39.7650   33.5170   47.4280 H   0  0  0  0  0  0  0  0  0  0  0  0
   34.7540   29.9890   47.8690 C   0  0  0  0  0  0  0  0  0  0  0  0
   35.9440   30.0290   48.5810 C   0  0  0  0  0  0  0  0  0  0  0  0
   36.0860   29.1180   49.6340 C   0  0  0  0  0  0  0  0  0  0  0  0
   35.0610   28.2600   49.8930 N   0  0  0  0  0  0  0  0  0  0  0  0
   33.9250   28.2610   49.1720 C   0  0  0  0  0  0  0  0  0  0  0  0
   33.7730   29.1210   48.1650 N   0  0  0  0  0  0  0  0  0  0  0  0
   34.5540   30.6540   47.0360 H   0  0  0  0  0  0  0  0  0  0  0  0
   33.2290   27.5110   49.5260 H   0  0  0  0  0  0  0  0  0  0  0  0
   37.3340   29.1010   50.4450 C   0  0  0  0  0  0  0  0  0  0  0  0
   37.0910   29.1070   51.5310 H   0  0  0  0  0  0  0  0  0  0  0  0
   37.8930   30.0290   50.2260 H   0  0  0  0  0  0  0  0  0  0  0  0
   37.9630   28.2350   50.1660 H   0  0  0  0  0  0  0  0  0  0  0  0
   36.4610   30.8310   45.8950 O   0  0  0  0  0  0  0  0  0  0  0  0
   36.6240   29.8660   45.6010 H   0  0  0  0  0  0  0  0  0  0  0  0
   38.3990   32.6110   45.2360 O   0  0  0  0  0  0  0  0  0  0  0  0
   39.7940   30.7670   44.6550 C   0  0  1  0  0  0  0  0  0  0  0  0
   39.4800   32.2370   44.4380 C   0  0  1  0  0  0  0  0  0  0  0  0
   39.0000   32.2730   43.1040 O   0  0  0  0  0  0  0  0  0  0  0  0
   40.0580   31.6070   42.4670 C   0  0  0  0  0  0  0  0  0  0  0  0
   40.0900   30.2990   43.2550 C   0  0  1  0  0  0  0  0  0  0  0  0
   40.8620   30.5510   45.5000 O   0  0  0  0  0  0  0  0  0  0  0  0
   41.1530   31.3970   45.9570 H   0  0  0  0  0  0  0  0  0  0  0  0
   41.3360   29.6800   43.1580 O   0  0  0  0  0  0  0  0  0  0  0  0
   41.7240   29.9930   42.3020 H   0  0  0  0  0  0  0  0  0  0  0  0
  1  2  1  0  0  0  0
  2 11  1  0  0  0  0
  2  3  2  0  0  0  0
  3  7  1  0  0  0  0
  4  3  1  0  0  0  0
  4  8  1  0  0  0  0
  5  4  2  0  0  0  0
  6  1  2  0  0  0  0
  6  5  1  0  0  0  0
  9  5  1  0  0  0  0
 10 15  2  0  0  0  0
 10 11  1  0  0  0  0
 11 12  2  0  0  0  0
 12 13  1  0  0  0  0
 12 18  1  0  0  0  0
 14 17  1  0  0  0  0
 14 13  2  0  0  0  0
 15 14  1  0  0  0  0
 16 10  1  0  0  0  0
 18 19  1  0  0  0  0
 20 18  1  0  0  0  0
 21 18  1  0  0  0  0
 22  1  1  0  0  0  0
 23 22  1  0  0  0  0
 24  6  1  0  0  0  0
 25 30  1  1  0  0  0
 26 25  1  0  0  0  0
 26 24  1  1  0  0  0
 27 26  1  0  0  0  0
 28 27  1  0  0  0  0
 28 29  1  0  0  0  0
 29 32  1  1  0  0  0
 29 25  1  0  0  0  0
 30 31  1  0  0  0  0
 33 32  1  0  0  0  0
M  END
>  <minimizedAffinity>
-6.98751402

>  <minimizedRMSD>
3.01288104

$$$$
