
 OpenBabel03272509453D

 19 20  0  0  1  0  0  0  0  0999 V2000
   34.9080   28.8150   47.9850 O   0  0  0  0  0  0  0  0  0  0  0  0
   36.3090   29.5410   51.2630 C   0  0  0  0  0  0  0  0  0  0  0  0
   37.5090   30.1650   50.8480 C   0  0  0  0  0  0  0  0  0  0  0  0
   37.7770   30.3060   49.4840 C   0  0  0  0  0  0  0  0  0  0  0  0
   36.8380   29.8190   48.6090 N   0  0  0  0  0  0  0  0  0  0  0  0
   35.7030   29.2270   49.0330 C   0  0  0  0  0  0  0  0  0  0  0  0
   35.4470   29.0930   50.3580 N   0  0  0  0  0  0  0  0  0  0  0  0
   36.0830   29.4210   52.3140 H   0  0  0  0  0  0  0  0  0  0  0  0
   38.2120   30.5310   51.6060 H   0  0  0  0  0  0  0  0  0  0  0  0
   38.6680   30.7700   49.1400 H   0  0  0  0  0  0  0  0  0  0  0  0
   32.5350   28.5350   47.4820 C   0  0  2  0  0  3  0  0  0  0  0  0
   33.6940   28.1810   48.3550 C   0  0  1  0  0  3  0  0  0  0  0  0
   33.8960   26.8210   48.1430 O   0  0  0  0  0  0  0  0  0  0  0  0
   33.8900   26.7300   46.7520 C   0  0  0  0  0  2  0  0  0  0  0  0
   32.6150   27.4600   46.3920 C   0  0  2  0  0  3  0  0  0  0  0  0
   32.5880   29.8110   46.9600 O   0  0  0  0  0  0  0  0  0  0  0  0
   31.6860   30.2360   47.1100 H   0  0  0  0  0  0  0  0  0  0  0  0
   32.7580   28.0630   45.1430 O   0  0  0  0  0  0  0  0  0  0  0  0
   33.7300   28.0580   44.8750 H   0  0  0  0  0  0  0  0  0  0  0  0
  1  6  1  0  0  0  0
  2  8  1  0  0  0  0
  3  2  1  0  0  0  0
  3  9  1  0  0  0  0
  4  3  2  0  0  0  0
  5  6  2  0  0  0  0
  5  4  1  0  0  0  0
  6  7  1  0  0  0  0
  7  2  2  0  0  0  0
 10  4  1  0  0  0  0
 11 16  1  6  0  0  0
 11 12  1  0  0  0  0
 12  1  1  6  0  0  0
 13 12  1  0  0  0  0
 14 13  1  0  0  0  0
 15 18  1  6  0  0  0
 15 14  1  0  0  0  0
 15 11  1  0  0  0  0
 16 17  1  0  0  0  0
 19 18  1  0  0  0  0
M  END
>  <minimizedAffinity>
-3.76678777

>  <minimizedRMSD>
2.30135989

$$$$
