
     RDKit          3D

 47 50  0  0  0  0  0  0  0  0999 V2000
   37.1003   29.8353   47.0980 C   0  0  0  0  0  0  0  0  0  0  0  0
   34.7011   30.0050   47.5935 C   0  0  0  0  0  0  0  0  0  0  0  0
   35.7384   30.0243   46.7020 C   0  0  0  0  0  0  0  0  0  0  0  0
   35.3420   30.1769   45.4140 C   0  0  0  0  0  0  0  0  0  0  0  0
   34.0589   30.2954   45.0426 N   0  0  0  0  0  0  0  0  0  0  0  0
   33.0618   30.2735   45.9046 C   0  0  0  0  0  0  0  0  0  0  0  0
   33.3681   30.1274   47.1952 N   0  0  0  0  0  0  0  0  0  0  0  0
   34.9581   30.0093   49.0975 C   0  0  0  0  0  0  0  0  0  0  0  0
   34.0064   29.6416   50.0369 C   0  0  0  0  0  0  0  0  0  0  0  0
   34.8663   28.4868   49.5546 C   0  0  0  0  0  0  0  0  0  0  0  0
   38.0637   30.9070   46.7526 C   0  0  0  0  0  0  0  0  0  0  0  0
   39.5770   33.1262   46.0620 F   0  0  0  0  0  0  0  0  0  0  0  0
   39.1560   32.9196   47.3177 C   0  0  0  0  0  0  0  0  0  0  0  0
   38.3948   31.8432   47.7793 C   0  0  0  0  0  0  0  0  0  0  0  0
   38.0955   31.8205   49.1006 C   0  0  0  0  0  0  0  0  0  0  0  0
   38.4849   32.7775   49.9794 C   0  0  0  0  0  0  0  0  0  0  0  0
   39.2534   33.8667   49.5146 C   0  0  0  0  0  0  0  0  0  0  0  0
   39.5874   33.9122   48.1405 C   0  0  0  0  0  0  0  0  0  0  0  0
   40.3510   35.0167   47.8642 O   0  0  0  0  0  0  0  0  0  0  0  0
   37.4755   28.8965   46.5796 H   0  0  0  0  0  0  0  0  0  0  0  0
   37.1534   29.5585   48.1696 H   0  0  0  0  0  0  0  0  0  0  0  0
   36.0638   30.2126   44.5858 H   0  0  0  0  0  0  0  0  0  0  0  0
   32.0555   30.3731   45.5358 H   0  0  0  0  0  0  0  0  0  0  0  0
   35.8724   30.4163   49.4495 H   0  0  0  0  0  0  0  0  0  0  0  0
   32.9177   29.6179   49.7268 H   0  0  0  0  0  0  0  0  0  0  0  0
   34.0862   29.8431   51.1036 H   0  0  0  0  0  0  0  0  0  0  0  0
   34.3659   27.7873   48.9067 H   0  0  0  0  0  0  0  0  0  0  0  0
   35.7002   28.1444   50.1598 H   0  0  0  0  0  0  0  0  0  0  0  0
   39.0008   30.5128   46.3036 H   0  0  0  0  0  0  0  0  0  0  0  0
   37.5925   31.4859   45.9026 H   0  0  0  0  0  0  0  0  0  0  0  0
   37.6047   31.0388   49.5961 H   0  0  0  0  0  0  0  0  0  0  0  0
   38.2564   32.7927   51.0482 H   0  0  0  0  0  0  0  0  0  0  0  0
   39.5594   34.6358   50.2474 H   0  0  0  0  0  0  0  0  0  0  0  0
   39.0017   34.4426   45.4921 O   0  0  0  0  0  0  0  0  0  0  0  0
   40.3674   34.5810   45.4903 C   0  0  2  0  0  0  0  0  0  0  0  0
   40.8656   35.4238   46.6769 C   0  0  1  0  0  0  0  0  0  0  0  0
   40.2496   36.6658   46.2798 O   0  0  0  0  0  0  0  0  0  0  0  0
   40.8388   36.8467   45.0316 C   0  0  0  0  0  0  0  0  0  0  0  0
   40.7812   35.5006   44.3452 C   0  0  2  0  0  0  0  0  0  0  0  0
   39.8993   35.4845   43.2926 O   0  0  0  0  0  0  0  0  0  0  0  0
   38.7690   33.5911   45.0541 H   0  0  0  0  0  0  0  0  0  0  0  0
   40.9212   33.6235   45.4945 H   0  0  0  0  0  0  0  0  0  0  0  0
   41.9386   35.5087   46.5619 H   0  0  0  0  0  0  0  0  0  0  0  0
   40.2637   37.5990   44.4466 H   0  0  0  0  0  0  0  0  0  0  0  0
   41.8909   37.1623   45.2300 H   0  0  0  0  0  0  0  0  0  0  0  0
   41.8070   35.2143   44.0364 H   0  0  0  0  0  0  0  0  0  0  0  0
   38.9750   35.5040   43.5875 H   0  0  0  0  0  0  0  0  0  0  0  0
  2  8  1  0
  3  1  1  0
  3  2  1  0
  4  3  2  0
  5  4  1  0
  5  6  2  0
  6  7  1  0
  7  2  2  0
  8 10  1  0
  8  9  1  0
 10  9  1  0
 11  1  1  0
 11 14  1  0
 12 13  1  0
 13 14  2  0
 13 18  1  0
 14 15  1  0
 15 16  2  0
 17 16  1  0
 18 17  2  0
 19 18  1  0
  1 20  1  0
  1 21  1  0
  4 22  1  0
  6 23  1  0
  8 24  1  0
  9 25  1  0
  9 26  1  0
 10 27  1  0
 10 28  1  0
 11 29  1  0
 11 30  1  0
 15 31  1  0
 16 32  1  0
 17 33  1  0
 34 35  1  0
 35 36  1  0
 36 37  1  0
 37 38  1  0
 38 39  1  0
 39 40  1  0
 39 35  1  0
 34 41  1  0
 35 42  1  6
 36 43  1  1
 38 44  1  0
 38 45  1  0
 39 46  1  6
 40 47  1  0
 19 36  1  0
M  ISO  8  20   8  21   8  22  14  23  14  24  13  25  13  26  13  27  13
M  ISO  6  28  13  29   8  30   8  31  14  32  14  33  14
M  END
>  <DihAtoms>  (1) 
17,18,35,34

>  <DihDeg>  (1) 
127.2502819321283

$$$$
