
 OpenBabel03272503003D

 34 36  0  0  1  0  0  0  0  0999 V2000
   36.9360   22.7350   32.0850 N   0  0  0  0  0  0  0  0  0  0  0  0
   37.4990   21.8750   31.0660 C   0  0  0  0  0  0  0  0  0  0  0  0
   36.9650   20.5140   30.9500 C   0  0  0  0  0  0  0  0  0  0  0  0
   36.3550   19.8890   32.1460 C   0  0  0  0  0  0  0  0  0  0  0  0
   35.8910   20.8690   33.1790 C   0  0  0  0  0  0  0  0  0  0  0  0
   36.9100   22.0040   33.3290 C   0  0  1  0  0  0  0  0  0  0  0  0
   38.5940   21.8400   31.2720 H   0  0  0  0  0  0  0  0  0  0  0  0
   37.4120   22.4070   30.0950 H   0  0  0  0  0  0  0  0  0  0  0  0
   37.7840   19.8410   30.6050 H   0  0  0  0  0  0  0  0  0  0  0  0
   36.2120   20.4920   30.1240 H   0  0  0  0  0  0  0  0  0  0  0  0
   37.0570   19.1840   32.6760 H   0  0  0  0  0  0  0  0  0  0  0  0
   35.4750   19.2610   31.8650 H   0  0  0  0  0  0  0  0  0  0  0  0
   34.9120   21.3200   32.9410 H   0  0  0  0  0  0  0  0  0  0  0  0
   35.7510   20.3440   34.1450 H   0  0  0  0  0  0  0  0  0  0  0  0
   36.6080   22.6090   34.2030 H   0  0  0  0  0  0  0  0  0  0  0  0
   36.4890   24.0730   31.8690 C   0  0  0  0  0  0  0  0  0  0  0  0
   37.1120   25.1970   32.4340 C   0  0  0  0  0  0  0  0  0  0  0  0
   36.5630   26.4420   32.1310 C   0  0  0  0  0  0  0  0  0  0  0  0
   35.4790   26.5030   31.3250 N   0  0  0  0  0  0  0  0  0  0  0  0
   34.9160   25.3990   30.8060 C   0  0  0  0  0  0  0  0  0  0  0  0
   35.4290   24.1950   31.0840 N   0  0  0  0  0  0  0  0  0  0  0  0
   37.9580   25.0440   33.0540 H   0  0  0  0  0  0  0  0  0  0  0  0
   37.0150   27.3260   32.5480 H   0  0  0  0  0  0  0  0  0  0  0  0
   34.0420   25.4730   30.1570 H   0  0  0  0  0  0  0  0  0  0  0  0
   38.1220   21.3470   33.5620 O   0  0  0  0  0  0  0  0  0  0  0  0
   37.7430   22.5000   35.6400 C   0  0  2  0  0  3  0  0  0  0  0  0
   38.7580   21.9930   34.6070 C   0  0  2  0  0  3  0  0  0  0  0  0
   39.3370   23.1990   34.2130 O   0  0  0  0  0  0  0  0  0  0  0  0
   39.7130   23.7590   35.4230 C   0  0  0  0  0  2  0  0  0  0  0  0
   38.6830   23.3850   36.4580 C   0  0  2  0  0  3  0  0  0  0  0  0
   37.1930   21.4770   36.3840 O   0  0  0  0  0  0  0  0  0  0  0  0
   37.0190   20.7320   35.7680 H   0  0  0  0  0  0  0  0  0  0  0  0
   39.2630   22.5650   37.4220 O   0  0  0  0  0  0  0  0  0  0  0  0
   40.2230   22.7490   37.5250 H   0  0  0  0  0  0  0  0  0  0  0  0
  1  6  1  0  0  0  0
  2  7  1  0  0  0  0
  2  1  1  0  0  0  0
  3  2  1  0  0  0  0
  3  4  1  0  0  0  0
  4 11  1  0  0  0  0
  4  5  1  0  0  0  0
  5  6  1  0  0  0  0
  5 14  1  0  0  0  0
  6 25  1  0  0  0  0
  6 15  1  1  0  0  0
  8  2  1  0  0  0  0
  9  3  1  0  0  0  0
 10  3  1  0  0  0  0
 12  4  1  0  0  0  0
 13  5  1  0  0  0  0
 16  1  1  0  0  0  0
 16 17  1  0  0  0  0
 17 22  1  0  0  0  0
 18 17  2  0  0  0  0
 18 23  1  0  0  0  0
 19 18  1  0  0  0  0
 20 21  1  0  0  0  0
 20 19  2  0  0  0  0
 21 16  2  0  0  0  0
 24 20  1  0  0  0  0
 26 31  1  1  0  0  0
 26 30  1  0  0  0  0
 27 25  1  6  0  0  0
 27 26  1  0  0  0  0
 28 27  1  0  0  0  0
 28 29  1  0  0  0  0
 29 30  1  0  0  0  0
 30 33  1  1  0  0  0
 32 31  1  0  0  0  0
 33 34  1  0  0  0  0
M  END
>  <minimizedAffinity>
-5.11592102

$$$$

 OpenBabel03272503003D

 34 36  0  0  1  0  0  0  0  0999 V2000
   38.0410   25.7190   33.4630 N   0  0  0  0  0  0  0  0  0  0  0  0
   36.9230   26.6160   33.6700 C   0  0  0  0  0  0  0  0  0  0  0  0
   37.1320   27.7750   34.5440 C   0  0  0  0  0  0  0  0  0  0  0  0
   38.1780   27.6950   35.5890 C   0  0  0  0  0  0  0  0  0  0  0  0
   39.2350   26.6680   35.3190 C   0  0  0  0  0  0  0  0  0  0  0  0
   38.6020   25.3920   34.7520 C   0  0  1  0  0  0  0  0  0  0  0  0
   36.0960   25.9820   34.0670 H   0  0  0  0  0  0  0  0  0  0  0  0
   36.5710   26.9470   32.6700 H   0  0  0  0  0  0  0  0  0  0  0  0
   36.1700   28.0100   35.0560 H   0  0  0  0  0  0  0  0  0  0  0  0
   37.3430   28.6710   33.9100 H   0  0  0  0  0  0  0  0  0  0  0  0
   37.7600   27.4540   36.6080 H   0  0  0  0  0  0  0  0  0  0  0  0
   38.6940   28.6770   35.7150 H   0  0  0  0  0  0  0  0  0  0  0  0
   40.0030   27.0130   34.6050 H   0  0  0  0  0  0  0  0  0  0  0  0
   39.7780   26.4460   36.2590 H   0  0  0  0  0  0  0  0  0  0  0  0
   39.3890   24.6170   34.7190 H   0  0  0  0  0  0  0  0  0  0  0  0
   38.4890   25.2540   32.1910 C   0  0  0  0  0  0  0  0  0  0  0  0
   39.4860   25.8980   31.4400 C   0  0  0  0  0  0  0  0  0  0  0  0
   39.8210   25.3250   30.2140 C   0  0  0  0  0  0  0  0  0  0  0  0
   39.1800   24.2030   29.8170 N   0  0  0  0  0  0  0  0  0  0  0  0
   38.2310   23.6210   30.5690 C   0  0  0  0  0  0  0  0  0  0  0  0
   37.8960   24.1550   31.7500 N   0  0  0  0  0  0  0  0  0  0  0  0
   39.9290   26.7740   31.8390 H   0  0  0  0  0  0  0  0  0  0  0  0
   40.5810   25.7930   29.6120 H   0  0  0  0  0  0  0  0  0  0  0  0
   37.7280   22.7150   30.2280 H   0  0  0  0  0  0  0  0  0  0  0  0
   37.6060   25.0650   35.6760 O   0  0  0  0  0  0  0  0  0  0  0  0
   37.6660   23.1170   37.0880 C   0  0  2  0  0  3  0  0  0  0  0  0
   38.2230   24.5140   36.7850 C   0  0  2  0  0  3  0  0  0  0  0  0
   37.8880   25.1780   37.9650 O   0  0  0  0  0  0  0  0  0  0  0  0
   38.4250   24.3500   38.9360 C   0  0  0  0  0  2  0  0  0  0  0  0
   38.2930   22.9230   38.4690 C   0  0  2  0  0  3  0  0  0  0  0  0
   38.0860   22.1720   36.1750 O   0  0  0  0  0  0  0  0  0  0  0  0
   38.0530   22.5930   35.2870 H   0  0  0  0  0  0  0  0  0  0  0  0
   39.5570   22.3790   38.2580 O   0  0  0  0  0  0  0  0  0  0  0  0
   40.2310   22.7920   38.8430 H   0  0  0  0  0  0  0  0  0  0  0  0
  1  2  1  0  0  0  0
  1  6  1  0  0  0  0
  2  7  1  0  0  0  0
  2  3  1  0  0  0  0
  3  9  1  0  0  0  0
  3  4  1  0  0  0  0
  4 12  1  0  0  0  0
  4 11  1  0  0  0  0
  5  4  1  0  0  0  0
  5 14  1  0  0  0  0
  6 15  1  6  0  0  0
  6  5  1  0  0  0  0
  6 25  1  0  0  0  0
  8  2  1  0  0  0  0
 10  3  1  0  0  0  0
 13  5  1  0  0  0  0
 16  1  1  0  0  0  0
 17 22  1  0  0  0  0
 17 16  2  0  0  0  0
 18 17  1  0  0  0  0
 19 18  2  0  0  0  0
 19 20  1  0  0  0  0
 20 21  2  0  0  0  0
 21 16  1  0  0  0  0
 23 18  1  0  0  0  0
 24 20  1  0  0  0  0
 26 31  1  6  0  0  0
 26 30  1  0  0  0  0
 27 25  1  6  0  0  0
 27 26  1  0  0  0  0
 27 28  1  0  0  0  0
 28 29  1  0  0  0  0
 30 33  1  6  0  0  0
 30 29  1  0  0  0  0
 32 31  1  0  0  0  0
 33 34  1  0  0  0  0
M  END
>  <minimizedAffinity>
-5.10496807

$$$$

 OpenBabel03272503003D

 34 36  0  0  1  0  0  0  0  0999 V2000
   38.1640   22.7090   35.9770 N   0  0  0  0  0  0  0  0  0  0  0  0
   39.5830   22.5200   36.1930 C   0  0  0  0  0  0  0  0  0  0  0  0
   40.0680   22.5210   37.5760 C   0  0  0  0  0  0  0  0  0  0  0  0
   39.2880   23.2540   38.6000 C   0  0  0  0  0  0  0  0  0  0  0  0
   37.8530   23.4750   38.2320 C   0  0  0  0  0  0  0  0  0  0  0  0
   37.7370   23.8510   36.7500 C   0  0  1  0  0  0  0  0  0  0  0  0
   40.0870   23.3270   35.6100 H   0  0  0  0  0  0  0  0  0  0  0  0
   39.8760   21.5780   35.6830 H   0  0  0  0  0  0  0  0  0  0  0  0
   41.1030   22.9370   37.5890 H   0  0  0  0  0  0  0  0  0  0  0  0
   40.1820   21.4630   37.9190 H   0  0  0  0  0  0  0  0  0  0  0  0
   39.7140   24.2710   38.8290 H   0  0  0  0  0  0  0  0  0  0  0  0
   39.3000   22.7110   39.5770 H   0  0  0  0  0  0  0  0  0  0  0  0
   37.2170   22.5910   38.4090 H   0  0  0  0  0  0  0  0  0  0  0  0
   37.4320   24.2790   38.8690 H   0  0  0  0  0  0  0  0  0  0  0  0
   36.6920   24.1570   36.5650 H   0  0  0  0  0  0  0  0  0  0  0  0
   37.3500   21.8920   35.1380 C   0  0  0  0  0  0  0  0  0  0  0  0
   36.2600   21.1430   35.6090 C   0  0  0  0  0  0  0  0  0  0  0  0
   35.5560   20.3910   34.6700 C   0  0  0  0  0  0  0  0  0  0  0  0
   35.9520   20.4190   33.3770 N   0  0  0  0  0  0  0  0  0  0  0  0
   37.0030   21.1500   32.9710 C   0  0  0  0  0  0  0  0  0  0  0  0
   37.6910   21.8790   33.8570 N   0  0  0  0  0  0  0  0  0  0  0  0
   36.0290   21.1890   36.6430 H   0  0  0  0  0  0  0  0  0  0  0  0
   34.7140   19.8050   34.9970 H   0  0  0  0  0  0  0  0  0  0  0  0
   37.3040   21.1570   31.9220 H   0  0  0  0  0  0  0  0  0  0  0  0
   38.6160   24.9280   36.6000 O   0  0  0  0  0  0  0  0  0  0  0  0
   38.7760   25.9830   34.4440 C   0  0  2  0  0  3  0  0  0  0  0  0
   38.0120   25.8520   35.7680 C   0  0  2  0  0  3  0  0  0  0  0  0
   38.1240   27.1560   36.2500 O   0  0  0  0  0  0  0  0  0  0  0  0
   37.6580   27.9100   35.1860 C   0  0  0  0  0  2  0  0  0  0  0  0
   38.0770   27.2320   33.9060 C   0  0  2  0  0  3  0  0  0  0  0  0
   38.6060   24.8850   33.6270 O   0  0  0  0  0  0  0  0  0  0  0  0
   38.6410   24.0880   34.2010 H   0  0  0  0  0  0  0  0  0  0  0  0
   36.9500   26.7910   33.2180 O   0  0  0  0  0  0  0  0  0  0  0  0
   36.1660   27.3550   33.4070 H   0  0  0  0  0  0  0  0  0  0  0  0
  1  2  1  0  0  0  0
  1  6  1  0  0  0  0
  2  3  1  0  0  0  0
  3  9  1  0  0  0  0
  3 10  1  0  0  0  0
  3  4  1  0  0  0  0
  4 11  1  0  0  0  0
  4 12  1  0  0  0  0
  5 13  1  0  0  0  0
  5  4  1  0  0  0  0
  5 14  1  0  0  0  0
  6 15  1  6  0  0  0
  6  5  1  0  0  0  0
  7  2  1  0  0  0  0
  8  2  1  0  0  0  0
 16 17  1  0  0  0  0
 16  1  1  0  0  0  0
 17 22  1  0  0  0  0
 18 23  1  0  0  0  0
 18 17  2  0  0  0  0
 19 18  1  0  0  0  0
 20 19  2  0  0  0  0
 20 21  1  0  0  0  0
 21 16  2  0  0  0  0
 24 20  1  0  0  0  0
 25  6  1  0  0  0  0
 26 31  1  6  0  0  0
 26 27  1  0  0  0  0
 27 28  1  0  0  0  0
 27 25  1  1  0  0  0
 29 28  1  0  0  0  0
 30 33  1  6  0  0  0
 30 26  1  0  0  0  0
 30 29  1  0  0  0  0
 31 32  1  0  0  0  0
 33 34  1  0  0  0  0
M  END
>  <minimizedAffinity>
-5.08669043

$$$$

 OpenBabel03272503003D

 34 36  0  0  1  0  0  0  0  0999 V2000
   38.1800   25.7590   33.4270 N   0  0  0  0  0  0  0  0  0  0  0  0
   39.4080   25.7070   32.6610 C   0  0  0  0  0  0  0  0  0  0  0  0
   39.6860   24.4860   31.8990 C   0  0  0  0  0  0  0  0  0  0  0  0
   39.0840   23.2130   32.3580 C   0  0  0  0  0  0  0  0  0  0  0  0
   37.8720   23.3860   33.2210 C   0  0  0  0  0  0  0  0  0  0  0  0
   38.0800   24.5450   34.2010 C   0  0  1  0  0  0  0  0  0  0  0  0
   40.2280   25.8970   33.3930 H   0  0  0  0  0  0  0  0  0  0  0  0
   39.4190   26.5910   31.9890 H   0  0  0  0  0  0  0  0  0  0  0  0
   40.7900   24.3360   31.8610 H   0  0  0  0  0  0  0  0  0  0  0  0
   39.3840   24.6490   30.8350 H   0  0  0  0  0  0  0  0  0  0  0  0
   39.8030   22.5780   32.9500 H   0  0  0  0  0  0  0  0  0  0  0  0
   38.7860   22.5760   31.4900 H   0  0  0  0  0  0  0  0  0  0  0  0
   36.9530   23.5880   32.6440 H   0  0  0  0  0  0  0  0  0  0  0  0
   37.6770   22.4430   33.7710 H   0  0  0  0  0  0  0  0  0  0  0  0
   37.2360   24.5330   34.9150 H   0  0  0  0  0  0  0  0  0  0  0  0
   37.2470   26.8370   33.4000 C   0  0  0  0  0  0  0  0  0  0  0  0
   36.9930   27.6680   34.5040 C   0  0  0  0  0  0  0  0  0  0  0  0
   36.0540   28.6820   34.3270 C   0  0  0  0  0  0  0  0  0  0  0  0
   35.4450   28.8120   33.1270 N   0  0  0  0  0  0  0  0  0  0  0  0
   35.7190   27.9930   32.0980 C   0  0  0  0  0  0  0  0  0  0  0  0
   36.6190   27.0140   32.2470 N   0  0  0  0  0  0  0  0  0  0  0  0
   37.5230   27.4840   35.4030 H   0  0  0  0  0  0  0  0  0  0  0  0
   35.8340   29.3380   35.1530 H   0  0  0  0  0  0  0  0  0  0  0  0
   35.2160   28.1170   31.1380 H   0  0  0  0  0  0  0  0  0  0  0  0
   39.2870   24.2430   34.8380 O   0  0  0  0  0  0  0  0  0  0  0  0
   38.2000   22.9140   36.5240 C   0  0  2  0  0  3  0  0  0  0  0  0
   39.0390   24.1570   36.1960 C   0  0  2  0  0  3  0  0  0  0  0  0
   38.1820   25.1620   36.6440 O   0  0  0  0  0  0  0  0  0  0  0  0
   37.9070   24.7630   37.9420 C   0  0  0  0  0  2  0  0  0  0  0  0
   37.8540   23.2570   37.9740 C   0  0  2  0  0  3  0  0  0  0  0  0
   38.9230   21.7460   36.4110 O   0  0  0  0  0  0  0  0  0  0  0  0
   39.4850   21.8290   35.6090 H   0  0  0  0  0  0  0  0  0  0  0  0
   38.8970   22.7670   38.7560 O   0  0  0  0  0  0  0  0  0  0  0  0
   39.1520   23.4050   39.4600 H   0  0  0  0  0  0  0  0  0  0  0  0
  1  6  1  0  0  0  0
  2  7  1  0  0  0  0
  2  1  1  0  0  0  0
  3  4  1  0  0  0  0
  3  2  1  0  0  0  0
  4 11  1  0  0  0  0
  4  5  1  0  0  0  0
  5 14  1  0  0  0  0
  5  6  1  0  0  0  0
  6 25  1  0  0  0  0
  6 15  1  1  0  0  0
  8  2  1  0  0  0  0
  9  3  1  0  0  0  0
 10  3  1  0  0  0  0
 12  4  1  0  0  0  0
 13  5  1  0  0  0  0
 16  1  1  0  0  0  0
 16 17  1  0  0  0  0
 17 22  1  0  0  0  0
 18 17  2  0  0  0  0
 18 23  1  0  0  0  0
 19 18  1  0  0  0  0
 20 21  1  0  0  0  0
 20 19  2  0  0  0  0
 21 16  2  0  0  0  0
 24 20  1  0  0  0  0
 26 31  1  1  0  0  0
 26 30  1  0  0  0  0
 27 25  1  6  0  0  0
 27 26  1  0  0  0  0
 27 28  1  0  0  0  0
 28 29  1  0  0  0  0
 29 30  1  0  0  0  0
 30 33  1  1  0  0  0
 32 31  1  0  0  0  0
 33 34  1  0  0  0  0
M  END
>  <minimizedAffinity>
-5.08257341

$$$$

 OpenBabel03272503003D

 34 36  0  0  1  0  0  0  0  0999 V2000
   37.8620   25.5380   33.2320 N   0  0  0  0  0  0  0  0  0  0  0  0
   39.2570   25.7400   33.5640 C   0  0  0  0  0  0  0  0  0  0  0  0
   39.5680   26.3450   34.8620 C   0  0  0  0  0  0  0  0  0  0  0  0
   38.5560   27.2200   35.4970 C   0  0  0  0  0  0  0  0  0  0  0  0
   37.1570   26.9890   35.0120 C   0  0  0  0  0  0  0  0  0  0  0  0
   37.1530   26.7670   33.4950 C   0  0  1  0  0  0  0  0  0  0  0  0
   39.6750   26.3650   32.7410 H   0  0  0  0  0  0  0  0  0  0  0  0
   39.7690   24.7600   33.4630 H   0  0  0  0  0  0  0  0  0  0  0  0
   40.5040   26.9420   34.7600 H   0  0  0  0  0  0  0  0  0  0  0  0
   39.8270   25.5330   35.5860 H   0  0  0  0  0  0  0  0  0  0  0  0
   38.7660   28.3160   35.3390 H   0  0  0  0  0  0  0  0  0  0  0  0
   38.5490   27.0860   36.6060 H   0  0  0  0  0  0  0  0  0  0  0  0
   36.6720   26.1190   35.4850 H   0  0  0  0  0  0  0  0  0  0  0  0
   36.5290   27.8630   35.2770 H   0  0  0  0  0  0  0  0  0  0  0  0
   36.0990   26.7600   33.1640 H   0  0  0  0  0  0  0  0  0  0  0  0
   37.3100   24.3210   32.7330 C   0  0  0  0  0  0  0  0  0  0  0  0
   37.7510   23.0490   33.1350 C   0  0  0  0  0  0  0  0  0  0  0  0
   37.1150   21.9500   32.5610 C   0  0  0  0  0  0  0  0  0  0  0  0
   36.1250   22.1590   31.6640 N   0  0  0  0  0  0  0  0  0  0  0  0
   35.7360   23.3940   31.3080 C   0  0  0  0  0  0  0  0  0  0  0  0
   36.3340   24.4630   31.8490 N   0  0  0  0  0  0  0  0  0  0  0  0
   38.5350   22.9910   33.8470 H   0  0  0  0  0  0  0  0  0  0  0  0
   37.4280   20.9600   32.8460 H   0  0  0  0  0  0  0  0  0  0  0  0
   34.9350   23.5380   30.5820 H   0  0  0  0  0  0  0  0  0  0  0  0
   37.8380   27.8730   32.9850 O   0  0  0  0  0  0  0  0  0  0  0  0
   38.2330   28.3710   30.6640 C   0  0  2  0  0  3  0  0  0  0  0  0
   37.2170   28.2480   31.8070 C   0  0  2  0  0  3  0  0  0  0  0  0
   36.7330   29.5550   31.8530 O   0  0  0  0  0  0  0  0  0  0  0  0
   36.3610   29.7820   30.5390 C   0  0  0  0  0  2  0  0  0  0  0  0
   37.3320   29.0610   29.6400 C   0  0  2  0  0  3  0  0  0  0  0  0
   38.6890   27.1440   30.2300 O   0  0  0  0  0  0  0  0  0  0  0  0
   38.8310   26.5880   31.0280 H   0  0  0  0  0  0  0  0  0  0  0  0
   36.6690   28.0500   28.9490 O   0  0  0  0  0  0  0  0  0  0  0  0
   35.7200   28.2690   28.8080 H   0  0  0  0  0  0  0  0  0  0  0  0
  1  6  1  0  0  0  0
  1  2  1  0  0  0  0
  2  3  1  0  0  0  0
  3  4  1  0  0  0  0
  3 10  1  0  0  0  0
  4 12  1  0  0  0  0
  5 14  1  0  0  0  0
  5 13  1  0  0  0  0
  5  4  1  0  0  0  0
  6 15  1  6  0  0  0
  6  5  1  0  0  0  0
  7  2  1  0  0  0  0
  8  2  1  0  0  0  0
  9  3  1  0  0  0  0
 11  4  1  0  0  0  0
 16 17  1  0  0  0  0
 16  1  1  0  0  0  0
 17 22  1  0  0  0  0
 18 23  1  0  0  0  0
 18 17  2  0  0  0  0
 19 18  1  0  0  0  0
 20 19  2  0  0  0  0
 20 21  1  0  0  0  0
 21 16  2  0  0  0  0
 24 20  1  0  0  0  0
 25  6  1  0  0  0  0
 26 31  1  6  0  0  0
 26 27  1  0  0  0  0
 27 28  1  0  0  0  0
 27 25  1  1  0  0  0
 29 28  1  0  0  0  0
 30 33  1  6  0  0  0
 30 29  1  0  0  0  0
 30 26  1  0  0  0  0
 31 32  1  0  0  0  0
 34 33  1  0  0  0  0
M  END
>  <minimizedAffinity>
-4.91297388

$$$$

 OpenBabel03272503003D

 34 36  0  0  1  0  0  0  0  0999 V2000
   38.6680   25.8410   33.2970 N   0  0  0  0  0  0  0  0  0  0  0  0
   37.2890   26.0980   33.6530 C   0  0  0  0  0  0  0  0  0  0  0  0
   37.0290   27.0890   34.7020 C   0  0  0  0  0  0  0  0  0  0  0  0
   38.0810   27.3420   35.7140 C   0  0  0  0  0  0  0  0  0  0  0  0
   39.4590   26.9520   35.2730 C   0  0  0  0  0  0  0  0  0  0  0  0
   39.4160   25.6230   34.5120 C   0  0  1  0  0  0  0  0  0  0  0  0
   36.8640   25.1100   33.9480 H   0  0  0  0  0  0  0  0  0  0  0  0
   36.7490   26.3720   32.7230 H   0  0  0  0  0  0  0  0  0  0  0  0
   36.1060   26.7900   35.2520 H   0  0  0  0  0  0  0  0  0  0  0  0
   36.7700   28.0640   34.2200 H   0  0  0  0  0  0  0  0  0  0  0  0
   37.8950   26.7970   36.6830 H   0  0  0  0  0  0  0  0  0  0  0  0
   38.1150   28.4230   35.9940 H   0  0  0  0  0  0  0  0  0  0  0  0
   39.9350   27.7030   34.6210 H   0  0  0  0  0  0  0  0  0  0  0  0
   40.1170   26.8690   36.1620 H   0  0  0  0  0  0  0  0  0  0  0  0
   40.4600   25.3000   34.3480 H   0  0  0  0  0  0  0  0  0  0  0  0
   39.1740   25.8140   31.9630 C   0  0  0  0  0  0  0  0  0  0  0  0
   38.8130   26.7480   30.9790 C   0  0  0  0  0  0  0  0  0  0  0  0
   39.3910   26.5950   29.7210 C   0  0  0  0  0  0  0  0  0  0  0  0
   40.2530   25.5740   29.5130 N   0  0  0  0  0  0  0  0  0  0  0  0
   40.5700   24.7030   30.4860 C   0  0  0  0  0  0  0  0  0  0  0  0
   40.0270   24.8330   31.7010 N   0  0  0  0  0  0  0  0  0  0  0  0
   38.1270   27.5140   31.2410 H   0  0  0  0  0  0  0  0  0  0  0  0
   39.1350   27.2930   28.9420 H   0  0  0  0  0  0  0  0  0  0  0  0
   41.2690   23.8870   30.2960 H   0  0  0  0  0  0  0  0  0  0  0  0
   38.7450   24.7540   35.3770 O   0  0  0  0  0  0  0  0  0  0  0  0
   39.5270   23.4260   37.2250 C   0  0  2  0  0  3  0  0  0  0  0  0
   39.6240   23.7450   35.7270 C   0  0  2  0  0  3  0  0  0  0  0  0
   40.9570   24.1480   35.6430 O   0  0  0  0  0  0  0  0  0  0  0  0
   41.6270   23.0870   36.2300 C   0  0  0  0  0  2  0  0  0  0  0  0
   40.7700   22.5440   37.3450 C   0  0  2  0  0  3  0  0  0  0  0  0
   38.3660   22.7570   37.5470 O   0  0  0  0  0  0  0  0  0  0  0  0
   37.6400   23.1690   37.0290 H   0  0  0  0  0  0  0  0  0  0  0  0
   40.3670   21.2470   37.0370 O   0  0  0  0  0  0  0  0  0  0  0  0
   41.0230   20.7900   36.4650 H   0  0  0  0  0  0  0  0  0  0  0  0
  1  2  1  0  0  0  0
  1  6  1  0  0  0  0
  2  7  1  0  0  0  0
  2  3  1  0  0  0  0
  3  9  1  0  0  0  0
  3  4  1  0  0  0  0
  4 12  1  0  0  0  0
  4 11  1  0  0  0  0
  5  4  1  0  0  0  0
  5 14  1  0  0  0  0
  6 15  1  6  0  0  0
  6  5  1  0  0  0  0
  6 25  1  0  0  0  0
  8  2  1  0  0  0  0
 10  3  1  0  0  0  0
 13  5  1  0  0  0  0
 16  1  1  0  0  0  0
 17 22  1  0  0  0  0
 17 16  2  0  0  0  0
 18 17  1  0  0  0  0
 19 18  2  0  0  0  0
 19 20  1  0  0  0  0
 20 21  2  0  0  0  0
 21 16  1  0  0  0  0
 23 18  1  0  0  0  0
 24 20  1  0  0  0  0
 26 30  1  0  0  0  0
 26 31  1  6  0  0  0
 27 25  1  1  0  0  0
 27 26  1  0  0  0  0
 28 27  1  0  0  0  0
 28 29  1  0  0  0  0
 29 30  1  0  0  0  0
 30 33  1  6  0  0  0
 32 31  1  0  0  0  0
 34 33  1  0  0  0  0
M  END
>  <minimizedAffinity>
-4.85867071

$$$$

 OpenBabel03272503003D

 34 36  0  0  1  0  0  0  0  0999 V2000
   39.6200   26.4730   34.2310 N   0  0  0  0  0  0  0  0  0  0  0  0
   38.6010   26.2980   33.2180 C   0  0  0  0  0  0  0  0  0  0  0  0
   37.4060   27.1430   33.2990 C   0  0  0  0  0  0  0  0  0  0  0  0
   37.0040   27.6770   34.6210 C   0  0  0  0  0  0  0  0  0  0  0  0
   38.1170   27.7270   35.6230 C   0  0  0  0  0  0  0  0  0  0  0  0
   38.9770   26.4630   35.5240 C   0  0  1  0  0  0  0  0  0  0  0  0
   38.3120   25.2210   33.2630 H   0  0  0  0  0  0  0  0  0  0  0  0
   39.0910   26.4170   32.2280 H   0  0  0  0  0  0  0  0  0  0  0  0
   36.5390   26.5690   32.8960 H   0  0  0  0  0  0  0  0  0  0  0  0
   37.5270   28.0050   32.5980 H   0  0  0  0  0  0  0  0  0  0  0  0
   36.1770   27.0800   35.1000 H   0  0  0  0  0  0  0  0  0  0  0  0
   36.5950   28.7120   34.5270 H   0  0  0  0  0  0  0  0  0  0  0  0
   38.7790   28.6000   35.4940 H   0  0  0  0  0  0  0  0  0  0  0  0
   37.6880   27.8250   36.6410 H   0  0  0  0  0  0  0  0  0  0  0  0
   39.6790   26.4700   36.3770 H   0  0  0  0  0  0  0  0  0  0  0  0
   41.0140   26.6270   33.9690 C   0  0  0  0  0  0  0  0  0  0  0  0
   41.5250   27.4920   32.9870 C   0  0  0  0  0  0  0  0  0  0  0  0
   42.9110   27.5380   32.8470 C   0  0  0  0  0  0  0  0  0  0  0  0
   43.6780   26.7630   33.6460 N   0  0  0  0  0  0  0  0  0  0  0  0
   43.1450   25.9490   34.5730 C   0  0  0  0  0  0  0  0  0  0  0  0
   41.8160   25.8910   34.7240 N   0  0  0  0  0  0  0  0  0  0  0  0
   40.8390   28.0590   32.4110 H   0  0  0  0  0  0  0  0  0  0  0  0
   43.3370   28.1890   32.1030 H   0  0  0  0  0  0  0  0  0  0  0  0
   43.7840   25.3330   35.2070 H   0  0  0  0  0  0  0  0  0  0  0  0
   38.0600   25.4140   35.6310 O   0  0  0  0  0  0  0  0  0  0  0  0
   39.0110   23.2910   36.2450 C   0  0  2  0  0  3  0  0  0  0  0  0
   38.4340   24.6340   36.7100 C   0  0  2  0  0  3  0  0  0  0  0  0
   37.3390   24.1920   37.4520 O   0  0  0  0  0  0  0  0  0  0  0  0
   37.9150   23.2810   38.3210 C   0  0  0  0  0  2  0  0  0  0  0  0
   39.0370   22.5800   37.5980 C   0  0  2  0  0  3  0  0  0  0  0  0
   40.2660   23.4210   35.6890 O   0  0  0  0  0  0  0  0  0  0  0  0
   40.2550   24.2320   35.1340 H   0  0  0  0  0  0  0  0  0  0  0  0
   40.2530   22.9030   38.1940 O   0  0  0  0  0  0  0  0  0  0  0  0
   40.1460   23.1030   39.1510 H   0  0  0  0  0  0  0  0  0  0  0  0
  1  6  1  0  0  0  0
  2  7  1  0  0  0  0
  2  3  1  0  0  0  0
  2  1  1  0  0  0  0
  3  4  1  0  0  0  0
  4 11  1  0  0  0  0
  4  5  1  0  0  0  0
  5 14  1  0  0  0  0
  6  5  1  0  0  0  0
  6 25  1  0  0  0  0
  6 15  1  1  0  0  0
  8  2  1  0  0  0  0
  9  3  1  0  0  0  0
 10  3  1  0  0  0  0
 12  4  1  0  0  0  0
 13  5  1  0  0  0  0
 16  1  1  0  0  0  0
 16 21  1  0  0  0  0
 17 16  2  0  0  0  0
 18 17  1  0  0  0  0
 18 19  2  0  0  0  0
 19 20  1  0  0  0  0
 20 21  2  0  0  0  0
 20 24  1  0  0  0  0
 22 17  1  0  0  0  0
 23 18  1  0  0  0  0
 26 31  1  1  0  0  0
 26 27  1  0  0  0  0
 26 30  1  0  0  0  0
 27 25  1  6  0  0  0
 27 28  1  0  0  0  0
 28 29  1  0  0  0  0
 30 33  1  1  0  0  0
 30 29  1  0  0  0  0
 32 31  1  0  0  0  0
 33 34  1  0  0  0  0
M  END
>  <minimizedAffinity>
-4.85755253

$$$$

 OpenBabel03272503003D

 34 36  0  0  1  0  0  0  0  0999 V2000
   39.3280   24.8620   34.7220 N   0  0  0  0  0  0  0  0  0  0  0  0
   40.5680   24.7420   33.9850 C   0  0  0  0  0  0  0  0  0  0  0  0
   41.1310   25.9610   33.3950 C   0  0  0  0  0  0  0  0  0  0  0  0
   40.2140   27.0750   33.0610 C   0  0  0  0  0  0  0  0  0  0  0  0
   38.9200   27.0490   33.8170 C   0  0  0  0  0  0  0  0  0  0  0  0
   38.3950   25.6130   33.9170 C   0  0  1  0  0  0  0  0  0  0  0  0
   40.3740   23.9870   33.1880 H   0  0  0  0  0  0  0  0  0  0  0  0
   41.3110   24.2610   34.6560 H   0  0  0  0  0  0  0  0  0  0  0  0
   41.6700   25.6850   32.4590 H   0  0  0  0  0  0  0  0  0  0  0  0
   41.9250   26.3570   34.0750 H   0  0  0  0  0  0  0  0  0  0  0  0
   39.9390   27.1030   31.9690 H   0  0  0  0  0  0  0  0  0  0  0  0
   40.6950   28.0630   33.2620 H   0  0  0  0  0  0  0  0  0  0  0  0
   39.0060   27.4520   34.8400 H   0  0  0  0  0  0  0  0  0  0  0  0
   38.1830   27.6960   33.3010 H   0  0  0  0  0  0  0  0  0  0  0  0
   37.3740   25.6610   34.3370 H   0  0  0  0  0  0  0  0  0  0  0  0
   39.0970   24.3210   36.0220 C   0  0  0  0  0  0  0  0  0  0  0  0
   38.0560   24.7480   36.8630 C   0  0  0  0  0  0  0  0  0  0  0  0
   37.9540   24.1250   38.1060 C   0  0  0  0  0  0  0  0  0  0  0  0
   38.8440   23.1610   38.4330 N   0  0  0  0  0  0  0  0  0  0  0  0
   39.8240   22.7840   37.5950 C   0  0  0  0  0  0  0  0  0  0  0  0
   39.9390   23.3700   36.3970 N   0  0  0  0  0  0  0  0  0  0  0  0
   37.4100   25.5120   36.5150 H   0  0  0  0  0  0  0  0  0  0  0  0
   37.1680   24.4280   38.7770 H   0  0  0  0  0  0  0  0  0  0  0  0
   40.5310   22.0030   37.8800 H   0  0  0  0  0  0  0  0  0  0  0  0
   38.3790   25.1600   32.5950 O   0  0  0  0  0  0  0  0  0  0  0  0
   37.3230   23.3090   31.4770 C   0  0  2  0  0  3  0  0  0  0  0  0
   37.1610   24.5430   32.3740 C   0  0  2  0  0  3  0  0  0  0  0  0
   36.3090   25.3150   31.5850 O   0  0  0  0  0  0  0  0  0  0  0  0
   35.2710   24.4380   31.3200 C   0  0  0  0  0  2  0  0  0  0  0  0
   35.8450   23.0510   31.1850 C   0  0  2  0  0  3  0  0  0  0  0  0
   37.9280   22.2570   32.1320 O   0  0  0  0  0  0  0  0  0  0  0  0
   38.6530   22.6340   32.6780 H   0  0  0  0  0  0  0  0  0  0  0  0
   35.3710   22.2450   32.2170 O   0  0  0  0  0  0  0  0  0  0  0  0
   34.4820   22.5340   32.5230 H   0  0  0  0  0  0  0  0  0  0  0  0
  1 16  1  0  0  0  0
  2  8  1  0  0  0  0
  2  1  1  0  0  0  0
  3  2  1  0  0  0  0
  3 10  1  0  0  0  0
  4 12  1  0  0  0  0
  4  3  1  0  0  0  0
  4  5  1  0  0  0  0
  5  6  1  0  0  0  0
  5 13  1  0  0  0  0
  6 15  1  1  0  0  0
  6  1  1  0  0  0  0
  7  2  1  0  0  0  0
  9  3  1  0  0  0  0
 11  4  1  0  0  0  0
 14  5  1  0  0  0  0
 16 21  2  0  0  0  0
 16 17  1  0  0  0  0
 17 18  2  0  0  0  0
 18 19  1  0  0  0  0
 18 23  1  0  0  0  0
 20 24  1  0  0  0  0
 20 19  2  0  0  0  0
 21 20  1  0  0  0  0
 22 17  1  0  0  0  0
 25  6  1  0  0  0  0
 26 31  1  1  0  0  0
 26 27  1  0  0  0  0
 27 25  1  6  0  0  0
 28 27  1  0  0  0  0
 29 28  1  0  0  0  0
 30 29  1  0  0  0  0
 30 26  1  0  0  0  0
 30 33  1  1  0  0  0
 31 32  1  0  0  0  0
 33 34  1  0  0  0  0
M  END
>  <minimizedAffinity>
-4.85611248

$$$$

 OpenBabel03272503003D

 34 36  0  0  1  0  0  0  0  0999 V2000
   37.3750   27.4880   33.5600 N   0  0  0  0  0  0  0  0  0  0  0  0
   37.2790   27.3410   34.9970 C   0  0  0  0  0  0  0  0  0  0  0  0
   38.5280   27.3260   35.7660 C   0  0  0  0  0  0  0  0  0  0  0  0
   39.7700   26.8880   35.0910 C   0  0  0  0  0  0  0  0  0  0  0  0
   39.7260   26.9970   33.5970 C   0  0  0  0  0  0  0  0  0  0  0  0
   38.3570   26.5490   33.0740 C   0  0  1  0  0  0  0  0  0  0  0  0
   36.7160   26.3930   35.1660 H   0  0  0  0  0  0  0  0  0  0  0  0
   36.6060   28.1400   35.3710 H   0  0  0  0  0  0  0  0  0  0  0  0
   38.3870   26.6730   36.6580 H   0  0  0  0  0  0  0  0  0  0  0  0
   38.7030   28.3480   36.1860 H   0  0  0  0  0  0  0  0  0  0  0  0
   40.0380   25.8180   35.3200 H   0  0  0  0  0  0  0  0  0  0  0  0
   40.6480   27.4840   35.4410 H   0  0  0  0  0  0  0  0  0  0  0  0
   39.9120   28.0210   33.2310 H   0  0  0  0  0  0  0  0  0  0  0  0
   40.5310   26.3720   33.1610 H   0  0  0  0  0  0  0  0  0  0  0  0
   38.4240   26.4950   31.9720 H   0  0  0  0  0  0  0  0  0  0  0  0
   36.6170   28.4140   32.7830 C   0  0  0  0  0  0  0  0  0  0  0  0
   35.5710   29.1900   33.3070 C   0  0  0  0  0  0  0  0  0  0  0  0
   34.9220   30.0520   32.4250 C   0  0  0  0  0  0  0  0  0  0  0  0
   35.3230   30.0970   31.1350 N   0  0  0  0  0  0  0  0  0  0  0  0
   36.3310   29.3360   30.6770 C   0  0  0  0  0  0  0  0  0  0  0  0
   36.9670   28.5020   31.5080 N   0  0  0  0  0  0  0  0  0  0  0  0
   35.3310   29.0820   34.3340 H   0  0  0  0  0  0  0  0  0  0  0  0
   34.1130   30.6610   32.7930 H   0  0  0  0  0  0  0  0  0  0  0  0
   36.6380   29.3890   29.6310 H   0  0  0  0  0  0  0  0  0  0  0  0
   38.1740   25.2820   33.6340 O   0  0  0  0  0  0  0  0  0  0  0  0
   37.8140   23.0700   32.7580 C   0  0  2  0  0  3  0  0  0  0  0  0
   37.3900   24.5450   32.7640 C   0  0  2  0  0  3  0  0  0  0  0  0
   37.6210   24.8760   31.4300 O   0  0  0  0  0  0  0  0  0  0  0  0
   36.9160   23.8960   30.7520 C   0  0  0  0  0  2  0  0  0  0  0  0
   37.0110   22.6140   31.5390 C   0  0  2  0  0  3  0  0  0  0  0  0
   37.4480   22.4110   33.9130 O   0  0  0  0  0  0  0  0  0  0  0  0
   37.6170   23.0240   34.6620 H   0  0  0  0  0  0  0  0  0  0  0  0
   35.7490   22.2550   32.0060 O   0  0  0  0  0  0  0  0  0  0  0  0
   35.0370   22.5790   31.4100 H   0  0  0  0  0  0  0  0  0  0  0  0
  1  2  1  0  0  0  0
  2  7  1  0  0  0  0
  2  8  1  0  0  0  0
  2  3  1  0  0  0  0
  3 10  1  0  0  0  0
  3  9  1  0  0  0  0
  4 11  1  0  0  0  0
  4 12  1  0  0  0  0
  4  3  1  0  0  0  0
  5  4  1  0  0  0  0
  6 15  1  6  0  0  0
  6  1  1  0  0  0  0
  6  5  1  0  0  0  0
  6 25  1  0  0  0  0
 13  5  1  0  0  0  0
 14  5  1  0  0  0  0
 16 17  1  0  0  0  0
 16  1  1  0  0  0  0
 17 22  1  0  0  0  0
 18 23  1  0  0  0  0
 18 17  2  0  0  0  0
 19 18  1  0  0  0  0
 20 19  2  0  0  0  0
 20 21  1  0  0  0  0
 21 16  2  0  0  0  0
 24 20  1  0  0  0  0
 26 27  1  0  0  0  0
 26 31  1  1  0  0  0
 27 25  1  1  0  0  0
 28 27  1  0  0  0  0
 29 28  1  0  0  0  0
 29 30  1  0  0  0  0
 30 33  1  1  0  0  0
 30 26  1  0  0  0  0
 31 32  1  0  0  0  0
 34 33  1  0  0  0  0
M  END
>  <minimizedAffinity>
-4.81482458

$$$$
