REMARK  Name = 
REMARK  7 active torsions:
REMARK  status: ('A' for Active; 'I' for Inactive)
REMARK    1  A    between atoms: S_1  and  C_6
REMARK    2  A    between atoms: S_1  and  C_9
REMARK    3  A    between atoms: C_8  and  O_13
REMARK    4  A    between atoms: C_12  and  O_14
REMARK    5  A    between atoms: O_14  and  C_26
REMARK    6  A    between atoms: O_24  and  C_25
REMARK    7  A    between atoms: C_29  and  O_30
REMARK                            x       y       z     vdW  Elec       q    Type
REMARK                         _______ _______ _______ _____ _____    ______ ____
ROOT
ATOM      1  C   UNL     1      32.395  28.355  47.472  0.00  0.00    +0.000 C 
ATOM      2  C   UNL     1      33.633  28.402  48.341  0.00  0.00    +0.000 C 
ATOM      3  O   UNL     1      34.191  27.152  48.349  0.00  0.00    +0.000 OA
ATOM      4  C   UNL     1      33.552  26.370  47.413  0.00  0.00    +0.000 C 
ATOM      5  C   UNL     1      32.848  27.323  46.465  0.00  0.00    +0.000 C 
ATOM      6  H   UNL     1      31.529  27.934  48.011  0.00  0.00    +0.000 HD
ATOM      7  H   UNL     1      33.408  28.709  49.371  0.00  0.00    +0.000 HD
ATOM      8  H   UNL     1      34.335  25.764  46.912  0.00  0.00    +0.000 HD
ATOM      9  H   UNL     1      32.798  25.743  47.926  0.00  0.00    +0.000 HD
ATOM     10  H   UNL     1      33.519  27.742  45.703  0.00  0.00    +0.000 HD
ENDROOT
BRANCH   1  11
ATOM     11  O   UNL     1      32.130  29.592  46.903  0.00  0.00    +0.000 OA
ATOM     12  H   UNL     1      31.362  29.974  47.412  0.00  0.00    +0.000 HD
ENDBRANCH   1  11
BRANCH   2  13
ATOM     13  S   UNL     1      34.804  29.537  47.513  0.00  0.00    +0.000 S 
BRANCH  13  18
ATOM     14  C   UNL     1      37.364  29.474  50.539  0.00  0.00    +0.000 A 
ATOM     15  C   UNL     1      37.975  30.735  50.519  0.00  0.00    +0.000 A 
ATOM     16  C   UNL     1      37.576  31.632  49.531  0.00  0.00    +0.000 A 
ATOM     17  N   UNL     1      36.626  31.263  48.636  0.00  0.00    +0.000 NA
ATOM     18  C   UNL     1      36.057  30.027  48.691  0.00  0.00    +0.000 A 
ATOM     19  N   UNL     1      36.420  29.141  49.632  0.00  0.00    +0.000 NA
ATOM     20  H   UNL     1      37.683  28.794  51.309  0.00  0.00    +0.000 HD
ATOM     21  H   UNL     1      38.734  31.051  51.222  0.00  0.00    +0.000 HD
ATOM     22  H   UNL     1      37.965  32.622  49.408  0.00  0.00    +0.000 HD
ENDBRANCH  13  18
ENDBRANCH   2  13
BRANCH   5  23
ATOM     23  O   UNL     1      31.784  26.707  45.822  0.00  0.00    +0.000 OA
BRANCH  23  25
ATOM     24  C   UNL     1      32.238  25.446  43.822  0.00  0.00    +0.000 C 
ATOM     25  C   UNL     1      31.870  26.794  44.441  0.00  0.00    +0.000 C 
ATOM     26  O   UNL     1      32.839  27.684  44.061  0.00  0.00    +0.000 OA
ATOM     27  C   UNL     1      33.605  27.139  43.046  0.00  0.00    +0.000 C 
ATOM     28  C   UNL     1      32.804  25.959  42.497  0.00  0.00    +0.000 C 
BRANCH  24  29
ATOM     29  O   UNL     1      31.099  24.677  43.593  0.00  0.00    +0.000 OA
ATOM     30  H   UNL     1      30.463  25.303  43.128  0.00  0.00    +0.000 HD
ENDBRANCH  24  29
BRANCH  28  31
ATOM     31  O   UNL     1      33.571  25.030  41.848  0.00  0.00    +0.000 OA
ATOM     32  H   UNL     1      33.301  25.079  40.876  0.00  0.00    +0.000 HD
ENDBRANCH  28  31
ENDBRANCH  23  25
ENDBRANCH   5  23
TORSDOF 7
