
 OpenBabel03272506423D

 32 34  0  0  1  0  0  0  0  0999 V2000
   32.3800   28.3400   47.5690 C   0  0  2  0  0  0  0  0  0  0  0  0
   33.6580   28.3490   48.3810 C   0  0  1  0  0  0  0  0  0  0  0  0
   34.2070   27.0970   48.3180 O   0  0  0  0  0  0  0  0  0  0  0  0
   33.5210   26.3530   47.3840 C   0  0  0  0  0  0  0  0  0  0  0  0
   32.7800   27.3430   46.5060 C   0  0  1  0  0  0  0  0  0  0  0  0
   31.5380   27.9030   48.1320 H   0  0  0  0  0  0  0  0  0  0  0  0
   33.4830   28.6190   49.4310 H   0  0  0  0  0  0  0  0  0  0  0  0
   34.2760   25.7620   46.8260 H   0  0  0  0  0  0  0  0  0  0  0  0
   32.7870   25.7110   47.9090 H   0  0  0  0  0  0  0  0  0  0  0  0
   33.4170   27.7870   45.7290 H   0  0  0  0  0  0  0  0  0  0  0  0
   32.0970   29.5980   47.0590 O   0  0  0  0  0  0  0  0  0  0  0  0
   31.3560   29.9650   47.6170 H   0  0  0  0  0  0  0  0  0  0  0  0
   34.7960   29.5080   47.5410 S   0  0  0  0  0  0  0  0  0  0  0  0
   37.3850   29.4790   50.5430 C   0  0  0  0  0  0  0  0  0  0  0  0
   37.9960   30.7390   50.5030 C   0  0  0  0  0  0  0  0  0  0  0  0
   37.5870   31.6250   49.5090 C   0  0  0  0  0  0  0  0  0  0  0  0
   36.6290   31.2460   48.6270 N   0  0  0  0  0  0  0  0  0  0  0  0
   36.0600   30.0110   48.7020 C   0  0  0  0  0  0  0  0  0  0  0  0
   36.4330   29.1360   49.6490 N   0  0  0  0  0  0  0  0  0  0  0  0
   37.7120   28.8070   51.3170 H   0  0  0  0  0  0  0  0  0  0  0  0
   38.7620   31.0630   51.1950 H   0  0  0  0  0  0  0  0  0  0  0  0
   37.9750   32.6140   49.3710 H   0  0  0  0  0  0  0  0  0  0  0  0
   31.6830   26.7560   45.8910 O   0  0  0  0  0  0  0  0  0  0  0  0
   30.2780   27.9660   44.3540 C   0  0  2  0  0  3  0  0  0  0  0  0
   31.5450   27.1370   44.5650 C   0  0  2  0  0  3  0  0  0  0  0  0
   31.4480   26.0460   43.7440 O   0  0  0  0  0  0  0  0  0  0  0  0
   30.4240   26.2330   42.8340 C   0  0  0  0  0  2  0  0  0  0  0  0
   30.1070   27.7280   42.8530 C   0  0  1  0  0  3  0  0  0  0  0  0
   30.5200   29.3150   44.6030 O   0  0  0  0  0  0  0  0  0  0  0  0
   31.3610   29.5180   44.0880 H   0  0  0  0  0  0  0  0  0  0  0  0
   28.8490   28.0270   42.4050 O   0  0  0  0  0  0  0  0  0  0  0  0
   28.9760   28.5290   41.5380 H   0  0  0  0  0  0  0  0  0  0  0  0
  1  6  1  1  0  0  0
  1  2  1  0  0  0  0
  2  7  1  1  0  0  0
  3  2  1  0  0  0  0
  4  9  1  0  0  0  0
  4  3  1  0  0  0  0
  5 10  1  6  0  0  0
  5  4  1  0  0  0  0
  5  1  1  0  0  0  0
  8  4  1  0  0  0  0
 11  1  1  0  0  0  0
 11 12  1  0  0  0  0
 13  2  1  0  0  0  0
 13 18  1  0  0  0  0
 14 20  1  0  0  0  0
 15 14  1  0  0  0  0
 15 21  1  0  0  0  0
 16 15  2  0  0  0  0
 17 18  2  0  0  0  0
 17 16  1  0  0  0  0
 18 19  1  0  0  0  0
 19 14  2  0  0  0  0
 22 16  1  0  0  0  0
 23  5  1  0  0  0  0
 24 25  1  0  0  0  0
 24 29  1  6  0  0  0
 25 23  1  1  0  0  0
 26 25  1  0  0  0  0
 27 28  1  0  0  0  0
 27 26  1  0  0  0  0
 28 31  1  1  0  0  0
 28 24  1  0  0  0  0
 30 29  1  0  0  0  0
 32 31  1  0  0  0  0
M  END
>  <minimizedAffinity>
-3.80746222

>  <minimizedRMSD>
0.594512641

$$$$
