
 OpenBabel03272506423D

 32 34  0  0  1  0  0  0  0  0999 V2000
   32.3820   28.3430   47.5690 C   0  0  2  0  0  0  0  0  0  0  0  0
   33.6590   28.3510   48.3810 C   0  0  1  0  0  0  0  0  0  0  0  0
   34.2070   27.0980   48.3190 O   0  0  0  0  0  0  0  0  0  0  0  0
   33.5200   26.3540   47.3860 C   0  0  0  0  0  0  0  0  0  0  0  0
   32.7800   27.3450   46.5060 C   0  0  1  0  0  0  0  0  0  0  0  0
   31.5380   27.9070   48.1320 H   0  0  0  0  0  0  0  0  0  0  0  0
   33.4840   28.6220   49.4310 H   0  0  0  0  0  0  0  0  0  0  0  0
   34.2750   25.7620   46.8280 H   0  0  0  0  0  0  0  0  0  0  0  0
   32.7860   25.7140   47.9100 H   0  0  0  0  0  0  0  0  0  0  0  0
   33.4190   27.7870   45.7290 H   0  0  0  0  0  0  0  0  0  0  0  0
   32.1000   29.6010   47.0570 O   0  0  0  0  0  0  0  0  0  0  0  0
   31.3590   29.9690   47.6150 H   0  0  0  0  0  0  0  0  0  0  0  0
   34.7990   29.5080   47.5410 S   0  0  0  0  0  0  0  0  0  0  0  0
   37.3880   29.4790   50.5430 C   0  0  0  0  0  0  0  0  0  0  0  0
   37.9970   30.7400   50.5040 C   0  0  0  0  0  0  0  0  0  0  0  0
   37.5880   31.6270   49.5100 C   0  0  0  0  0  0  0  0  0  0  0  0
   36.6300   31.2470   48.6280 N   0  0  0  0  0  0  0  0  0  0  0  0
   36.0630   30.0120   48.7020 C   0  0  0  0  0  0  0  0  0  0  0  0
   36.4350   29.1360   49.6480 N   0  0  0  0  0  0  0  0  0  0  0  0
   37.7150   28.8070   51.3170 H   0  0  0  0  0  0  0  0  0  0  0  0
   38.7630   31.0640   51.1960 H   0  0  0  0  0  0  0  0  0  0  0  0
   37.9750   32.6150   49.3730 H   0  0  0  0  0  0  0  0  0  0  0  0
   31.6830   26.7590   45.8910 O   0  0  0  0  0  0  0  0  0  0  0  0
   30.2780   27.9680   44.3550 C   0  0  2  0  0  3  0  0  0  0  0  0
   31.5450   27.1400   44.5650 C   0  0  2  0  0  3  0  0  0  0  0  0
   31.4490   26.0490   43.7440 O   0  0  0  0  0  0  0  0  0  0  0  0
   30.4250   26.2350   42.8340 C   0  0  0  0  0  2  0  0  0  0  0  0
   30.1070   27.7290   42.8530 C   0  0  1  0  0  3  0  0  0  0  0  0
   30.5190   29.3170   44.6030 O   0  0  0  0  0  0  0  0  0  0  0  0
   31.3600   29.5210   44.0890 H   0  0  0  0  0  0  0  0  0  0  0  0
   28.8490   28.0280   42.4050 O   0  0  0  0  0  0  0  0  0  0  0  0
   28.9760   28.5310   41.5380 H   0  0  0  0  0  0  0  0  0  0  0  0
  1  6  1  1  0  0  0
  1  2  1  0  0  0  0
  2  7  1  1  0  0  0
  3  2  1  0  0  0  0
  4  9  1  0  0  0  0
  4  3  1  0  0  0  0
  5 10  1  6  0  0  0
  5  4  1  0  0  0  0
  5  1  1  0  0  0  0
  8  4  1  0  0  0  0
 11  1  1  0  0  0  0
 11 12  1  0  0  0  0
 13  2  1  0  0  0  0
 13 18  1  0  0  0  0
 14 20  1  0  0  0  0
 15 14  1  0  0  0  0
 15 21  1  0  0  0  0
 16 15  2  0  0  0  0
 17 18  2  0  0  0  0
 17 16  1  0  0  0  0
 18 19  1  0  0  0  0
 19 14  2  0  0  0  0
 22 16  1  0  0  0  0
 23  5  1  0  0  0  0
 24 25  1  0  0  0  0
 24 29  1  6  0  0  0
 25 23  1  1  0  0  0
 26 25  1  0  0  0  0
 27 28  1  0  0  0  0
 27 26  1  0  0  0  0
 28 31  1  1  0  0  0
 28 24  1  0  0  0  0
 30 29  1  0  0  0  0
 32 31  1  0  0  0  0
M  END
>  <minimizedAffinity>
-3.80696678

>  <minimizedRMSD>
1.0042311

$$$$
