
 OpenBabel03272506423D

 32 34  0  0  1  0  0  0  0  0999 V2000
   32.3850   28.3240   47.5100 C   0  0  2  0  0  0  0  0  0  0  0  0
   33.6510   28.2530   48.3360 C   0  0  1  0  0  0  0  0  0  0  0  0
   34.1830   27.0010   48.1840 O   0  0  0  0  0  0  0  0  0  0  0  0
   33.4980   26.3400   47.1900 C   0  0  0  0  0  0  0  0  0  0  0  0
   32.7830   27.4050   46.3790 C   0  0  1  0  0  0  0  0  0  0  0  0
   31.5280   27.8600   48.0290 H   0  0  0  0  0  0  0  0  0  0  0  0
   33.4660   28.4460   49.4010 H   0  0  0  0  0  0  0  0  0  0  0  0
   34.2520   25.7810   46.5970 H   0  0  0  0  0  0  0  0  0  0  0  0
   32.7490   25.6720   47.6550 H   0  0  0  0  0  0  0  0  0  0  0  0
   33.4370   27.8950   45.6460 H   0  0  0  0  0  0  0  0  0  0  0  0
   32.1260   29.6220   47.0930 O   0  0  0  0  0  0  0  0  0  0  0  0
   31.3840   29.9570   47.6680 H   0  0  0  0  0  0  0  0  0  0  0  0
   34.8170   29.4540   47.5990 S   0  0  0  0  0  0  0  0  0  0  0  0
   37.3390   29.3180   50.6550 C   0  0  0  0  0  0  0  0  0  0  0  0
   37.8340   30.6240   50.7710 C   0  0  0  0  0  0  0  0  0  0  0  0
   37.3660   31.5760   49.8680 C   0  0  0  0  0  0  0  0  0  0  0  0
   36.4630   31.2150   48.9220 N   0  0  0  0  0  0  0  0  0  0  0  0
   36.0080   29.9340   48.8440 C   0  0  0  0  0  0  0  0  0  0  0  0
   36.4390   28.9940   49.7010 N   0  0  0  0  0  0  0  0  0  0  0  0
   37.7100   28.5960   51.3610 H   0  0  0  0  0  0  0  0  0  0  0  0
   38.5530   30.9350   51.5160 H   0  0  0  0  0  0  0  0  0  0  0  0
   37.6650   32.6040   49.8510 H   0  0  0  0  0  0  0  0  0  0  0  0
   31.6860   26.8830   45.7090 O   0  0  0  0  0  0  0  0  0  0  0  0
   30.0460   28.1580   44.4920 C   0  0  2  0  0  3  0  0  0  0  0  0
   31.4380   27.5260   44.5060 C   0  0  2  0  0  3  0  0  0  0  0  0
   31.4880   26.6490   43.4570 O   0  0  0  0  0  0  0  0  0  0  0  0
   30.4130   26.8640   42.6140 C   0  0  0  0  0  2  0  0  0  0  0  0
   29.8580   28.2410   42.9760 C   0  0  1  0  0  3  0  0  0  0  0  0
   30.0740   29.4360   45.0440 O   0  0  0  0  0  0  0  0  0  0  0  0
   30.8510   29.8880   44.5910 H   0  0  0  0  0  0  0  0  0  0  0  0
   28.5520   28.4200   42.6090 O   0  0  0  0  0  0  0  0  0  0  0  0
   28.5620   29.1190   41.8800 H   0  0  0  0  0  0  0  0  0  0  0  0
  1  6  1  1  0  0  0
  1  2  1  0  0  0  0
  2  7  1  1  0  0  0
  3  2  1  0  0  0  0
  4  9  1  0  0  0  0
  4  3  1  0  0  0  0
  5 10  1  6  0  0  0
  5  4  1  0  0  0  0
  5  1  1  0  0  0  0
  8  4  1  0  0  0  0
 11  1  1  0  0  0  0
 11 12  1  0  0  0  0
 13  2  1  0  0  0  0
 13 18  1  0  0  0  0
 14 15  1  0  0  0  0
 14 20  1  0  0  0  0
 15 21  1  0  0  0  0
 16 15  2  0  0  0  0
 17 16  1  0  0  0  0
 18 17  2  0  0  0  0
 18 19  1  0  0  0  0
 19 14  2  0  0  0  0
 22 16  1  0  0  0  0
 23  5  1  0  0  0  0
 24 25  1  0  0  0  0
 24 29  1  6  0  0  0
 25 23  1  1  0  0  0
 26 25  1  0  0  0  0
 27 28  1  0  0  0  0
 27 26  1  0  0  0  0
 28 31  1  1  0  0  0
 28 24  1  0  0  0  0
 30 29  1  0  0  0  0
 32 31  1  0  0  0  0
M  END
>  <minimizedAffinity>
-3.83282447

>  <minimizedRMSD>
0.975824654

$$$$
