
 OpenBabel03272507333D

 36 39  0  0  1  0  0  0  0  0999 V2000
   35.8380   29.1230   49.7940 C   0  0  0  0  0  0  0  0  0  0  0  0
   34.7730   29.6060   50.5220 C   0  0  0  0  0  0  0  0  0  0  0  0
   33.6090   29.0200   50.0020 C   0  0  0  0  0  0  0  0  0  0  0  0
   34.0470   28.2080   48.9800 C   0  0  0  0  0  0  0  0  0  0  0  0
   35.3560   28.3000   48.8930 O   0  0  0  0  0  0  0  0  0  0  0  0
   34.6820   30.3020   51.3570 H   0  0  0  0  0  0  0  0  0  0  0  0
   32.5630   29.1380   50.2940 H   0  0  0  0  0  0  0  0  0  0  0  0
   37.2080   29.5250   50.0670 C   0  0  0  0  0  0  0  0  0  0  0  0
   37.8300   28.9720   50.9850 O   0  0  0  0  0  0  0  0  0  0  0  0
   37.7620   30.5580   49.2370 C   0  0  0  0  0  0  0  0  0  0  0  0
   38.0970   31.7500   49.8560 C   0  0  0  0  0  0  0  0  0  0  0  0
   38.6380   32.7790   49.0780 C   0  0  0  0  0  0  0  0  0  0  0  0
   38.8090   32.5480   47.7350 N   0  0  0  0  0  0  0  0  0  0  0  0
   38.4760   31.3850   47.1720 C   0  0  0  0  0  0  0  0  0  0  0  0
   37.9550   30.3920   47.9100 N   0  0  0  0  0  0  0  0  0  0  0  0
   37.9830   31.9830   50.9040 H   0  0  0  0  0  0  0  0  0  0  0  0
   38.9080   33.7150   49.5210 H   0  0  0  0  0  0  0  0  0  0  0  0
   38.6500   31.3010   46.1020 H   0  0  0  0  0  0  0  0  0  0  0  0
   33.2000   27.3740   48.1270 C   0  0  0  0  0  0  0  0  0  0  0  0
   31.9450   27.3530   48.3590 O   0  0  0  0  0  0  0  0  0  0  0  0
   33.7980   26.5630   47.0170 C   0  0  1  0  0  0  0  0  0  0  0  0
   33.8030   25.0330   47.4160 C   0  0  0  0  0  0  0  0  0  0  0  0
   32.9990   25.5720   46.2930 C   0  0  2  0  0  0  0  0  0  0  0  0
   34.8620   26.8460   46.7950 H   0  0  0  0  0  0  0  0  0  0  0  0
   33.2410   24.7480   48.3020 H   0  0  0  0  0  0  0  0  0  0  0  0
   34.6960   24.4610   47.1800 H   0  0  0  0  0  0  0  0  0  0  0  0
   31.9000   25.6540   46.4170 H   0  0  0  0  0  0  0  0  0  0  0  0
   33.7790   23.8230   44.7110 C   0  0  2  0  0  3  0  0  0  0  0  0
   33.3910   25.3010   44.8640 C   0  0  2  0  0  3  0  0  0  0  0  0
   34.5740   25.9040   44.4960 O   0  0  0  0  0  0  0  0  0  0  0  0
   34.9790   25.2780   43.3400 C   0  0  0  0  0  2  0  0  0  0  0  0
   34.3310   23.9100   43.2810 C   0  0  1  0  0  3  0  0  0  0  0  0
   32.7100   22.9730   44.8120 O   0  0  0  0  0  0  0  0  0  0  0  0
   32.6280   22.7260   45.7770 H   0  0  0  0  0  0  0  0  0  0  0  0
   35.1950   22.8890   42.9760 O   0  0  0  0  0  0  0  0  0  0  0  0
   34.7700   22.1950   42.3780 H   0  0  0  0  0  0  0  0  0  0  0  0
  1  8  1  0  0  0  0
  1  2  2  0  0  0  0
  2  6  1  0  0  0  0
  3  7  1  0  0  0  0
  3  2  1  0  0  0  0
  4  3  2  0  0  0  0
  5  4  1  0  0  0  0
  5  1  1  0  0  0  0
  8  9  2  0  0  0  0
 10 11  1  0  0  0  0
 10  8  1  0  0  0  0
 11 16  1  0  0  0  0
 12 17  1  0  0  0  0
 12 11  2  0  0  0  0
 13 12  1  0  0  0  0
 14 13  2  0  0  0  0
 14 15  1  0  0  0  0
 15 10  2  0  0  0  0
 18 14  1  0  0  0  0
 19 20  2  0  0  0  0
 19  4  1  0  0  0  0
 21 24  1  6  0  0  0
 21 22  1  0  0  0  0
 21 19  1  0  0  0  0
 22 25  1  0  0  0  0
 23 27  1  1  0  0  0
 23 21  1  0  0  0  0
 23 22  1  0  0  0  0
 26 22  1  0  0  0  0
 28 33  1  6  0  0  0
 28 29  1  0  0  0  0
 29 30  1  1  0  0  0
 29 23  1  0  0  0  0
 31 30  1  0  0  0  0
 32 35  1  1  0  0  0
 32 31  1  0  0  0  0
 32 28  1  0  0  0  0
 33 34  1  0  0  0  0
 36 35  1  0  0  0  0
M  END
>  <minimizedAffinity>
-4.93806505

>  <minimizedRMSD>
0.475546926

$$$$
