
 OpenBabel03272507333D

 36 39  0  0  1  0  0  0  0  0999 V2000
   35.8890   29.1900   49.7870 C   0  0  0  0  0  0  0  0  0  0  0  0
   34.8490   29.6180   50.5840 C   0  0  0  0  0  0  0  0  0  0  0  0
   33.6690   29.0640   50.0670 C   0  0  0  0  0  0  0  0  0  0  0  0
   34.0720   28.3240   48.9780 C   0  0  0  0  0  0  0  0  0  0  0  0
   35.3770   28.4270   48.8510 O   0  0  0  0  0  0  0  0  0  0  0  0
   34.7870   30.2560   51.4660 H   0  0  0  0  0  0  0  0  0  0  0  0
   32.6340   29.1570   50.4040 H   0  0  0  0  0  0  0  0  0  0  0  0
   37.2670   29.5780   50.0380 C   0  0  0  0  0  0  0  0  0  0  0  0
   37.9010   29.0140   50.9400 O   0  0  0  0  0  0  0  0  0  0  0  0
   37.8140   30.6130   49.2050 C   0  0  0  0  0  0  0  0  0  0  0  0
   38.1300   31.8130   49.8190 C   0  0  0  0  0  0  0  0  0  0  0  0
   38.6640   32.8430   49.0380 C   0  0  0  0  0  0  0  0  0  0  0  0
   38.8470   32.6060   47.6980 N   0  0  0  0  0  0  0  0  0  0  0  0
   38.5310   31.4360   47.1400 C   0  0  0  0  0  0  0  0  0  0  0  0
   38.0180   30.4410   47.8810 N   0  0  0  0  0  0  0  0  0  0  0  0
   38.0070   32.0510   50.8650 H   0  0  0  0  0  0  0  0  0  0  0  0
   38.9200   33.7850   49.4770 H   0  0  0  0  0  0  0  0  0  0  0  0
   38.7140   31.3480   46.0710 H   0  0  0  0  0  0  0  0  0  0  0  0
   33.1960   27.5460   48.1020 C   0  0  0  0  0  0  0  0  0  0  0  0
   31.9390   27.5780   48.3210 O   0  0  0  0  0  0  0  0  0  0  0  0
   33.7680   26.7270   46.9830 C   0  0  1  0  0  0  0  0  0  0  0  0
   33.7560   25.1960   47.3810 C   0  0  0  0  0  0  0  0  0  0  0  0
   32.9450   25.7490   46.2680 C   0  0  2  0  0  0  0  0  0  0  0  0
   34.8330   26.9950   46.7480 H   0  0  0  0  0  0  0  0  0  0  0  0
   33.2010   24.9180   48.2730 H   0  0  0  0  0  0  0  0  0  0  0  0
   34.6370   24.6120   47.1320 H   0  0  0  0  0  0  0  0  0  0  0  0
   31.8490   25.8470   46.4070 H   0  0  0  0  0  0  0  0  0  0  0  0
   33.5280   23.9670   44.6400 C   0  0  2  0  0  3  0  0  0  0  0  0
   33.3150   25.4750   44.8340 C   0  0  2  0  0  3  0  0  0  0  0  0
   34.5640   25.9450   44.4910 O   0  0  0  0  0  0  0  0  0  0  0  0
   34.9020   25.3090   43.3190 C   0  0  0  0  0  2  0  0  0  0  0  0
   34.0990   24.0300   43.2160 C   0  0  1  0  0  3  0  0  0  0  0  0
   32.3660   23.2460   44.7100 O   0  0  0  0  0  0  0  0  0  0  0  0
   32.2470   22.9820   45.6680 H   0  0  0  0  0  0  0  0  0  0  0  0
   34.8390   22.9220   42.8850 O   0  0  0  0  0  0  0  0  0  0  0  0
   34.3410   22.3020   42.2640 H   0  0  0  0  0  0  0  0  0  0  0  0
  1  8  1  0  0  0  0
  1  2  2  0  0  0  0
  2  6  1  0  0  0  0
  3  7  1  0  0  0  0
  3  2  1  0  0  0  0
  4  3  2  0  0  0  0
  5  4  1  0  0  0  0
  5  1  1  0  0  0  0
  8  9  2  0  0  0  0
 10 11  1  0  0  0  0
 10  8  1  0  0  0  0
 11 16  1  0  0  0  0
 12 17  1  0  0  0  0
 12 11  2  0  0  0  0
 13 12  1  0  0  0  0
 14 13  2  0  0  0  0
 14 15  1  0  0  0  0
 15 10  2  0  0  0  0
 18 14  1  0  0  0  0
 19 20  2  0  0  0  0
 19  4  1  0  0  0  0
 21 24  1  6  0  0  0
 21 22  1  0  0  0  0
 21 19  1  0  0  0  0
 22 25  1  0  0  0  0
 23 27  1  1  0  0  0
 23 21  1  0  0  0  0
 23 22  1  0  0  0  0
 26 22  1  0  0  0  0
 28 33  1  6  0  0  0
 28 29  1  0  0  0  0
 29 30  1  1  0  0  0
 29 23  1  0  0  0  0
 31 30  1  0  0  0  0
 32 35  1  1  0  0  0
 32 31  1  0  0  0  0
 32 28  1  0  0  0  0
 33 34  1  0  0  0  0
 36 35  1  0  0  0  0
M  END
>  <minimizedAffinity>
-4.94456434

>  <minimizedRMSD>
0.674567938

$$$$
