
 OpenBabel03272507333D

 36 39  0  0  1  0  0  0  0  0999 V2000
   35.8760   29.2140   49.8400 C   0  0  0  0  0  0  0  0  0  0  0  0
   34.9540   29.7250   50.7280 C   0  0  0  0  0  0  0  0  0  0  0  0
   33.6890   29.2690   50.3280 C   0  0  0  0  0  0  0  0  0  0  0  0
   33.9260   28.5000   49.2100 C   0  0  0  0  0  0  0  0  0  0  0  0
   35.2180   28.4970   48.9610 O   0  0  0  0  0  0  0  0  0  0  0  0
   35.0270   30.3650   51.6080 H   0  0  0  0  0  0  0  0  0  0  0  0
   32.7010   29.4460   50.7600 H   0  0  0  0  0  0  0  0  0  0  0  0
   37.2980   29.4880   49.9580 C   0  0  0  0  0  0  0  0  0  0  0  0
   37.9840   28.8120   50.7370 O   0  0  0  0  0  0  0  0  0  0  0  0
   37.8270   30.5480   49.1460 C   0  0  0  0  0  0  0  0  0  0  0  0
   38.1770   31.7220   49.7920 C   0  0  0  0  0  0  0  0  0  0  0  0
   38.6940   32.7760   49.0320 C   0  0  0  0  0  0  0  0  0  0  0  0
   38.8280   32.5880   47.6790 N   0  0  0  0  0  0  0  0  0  0  0  0
   38.4800   31.4430   47.0880 C   0  0  0  0  0  0  0  0  0  0  0  0
   37.9820   30.4250   47.8090 N   0  0  0  0  0  0  0  0  0  0  0  0
   38.0930   31.9210   50.8500 H   0  0  0  0  0  0  0  0  0  0  0  0
   38.9760   33.6980   49.4970 H   0  0  0  0  0  0  0  0  0  0  0  0
   38.6240   31.3930   46.0110 H   0  0  0  0  0  0  0  0  0  0  0  0
   32.9120   27.7970   48.4250 C   0  0  0  0  0  0  0  0  0  0  0  0
   31.7280   27.7230   48.8960 O   0  0  0  0  0  0  0  0  0  0  0  0
   33.2630   27.1750   47.1070 C   0  0  1  0  0  0  0  0  0  0  0  0
   33.7310   25.6800   47.3290 C   0  0  0  0  0  0  0  0  0  0  0  0
   32.5010   26.0390   46.5830 C   0  0  2  0  0  0  0  0  0  0  0  0
   34.1040   27.7060   46.5850 H   0  0  0  0  0  0  0  0  0  0  0  0
   33.5740   25.2510   48.3150 H   0  0  0  0  0  0  0  0  0  0  0  0
   34.5940   25.3410   46.7630 H   0  0  0  0  0  0  0  0  0  0  0  0
   31.5170   25.8560   47.0610 H   0  0  0  0  0  0  0  0  0  0  0  0
   31.0120   26.1900   44.6010 C   0  0  2  0  0  3  0  0  0  0  0  0
   32.4390   25.9010   45.0840 C   0  0  2  0  0  3  0  0  0  0  0  0
   32.5880   24.6020   44.6470 O   0  0  0  0  0  0  0  0  0  0  0  0
   32.1430   24.5860   43.3450 C   0  0  0  0  0  2  0  0  0  0  0  0
   31.2050   25.7560   43.1410 C   0  0  1  0  0  3  0  0  0  0  0  0
   30.6610   27.5090   44.7160 O   0  0  0  0  0  0  0  0  0  0  0  0
   30.2470   27.6210   45.6190 H   0  0  0  0  0  0  0  0  0  0  0  0
   30.0260   25.4320   42.5160 O   0  0  0  0  0  0  0  0  0  0  0  0
   29.7230   26.1530   41.8780 H   0  0  0  0  0  0  0  0  0  0  0  0
  1  8  1  0  0  0  0
  1  2  2  0  0  0  0
  2  6  1  0  0  0  0
  3  2  1  0  0  0  0
  3  7  1  0  0  0  0
  4  3  2  0  0  0  0
  5  4  1  0  0  0  0
  5  1  1  0  0  0  0
  8  9  2  0  0  0  0
 10 11  1  0  0  0  0
 10  8  1  0  0  0  0
 11 16  1  0  0  0  0
 12 17  1  0  0  0  0
 12 11  2  0  0  0  0
 13 12  1  0  0  0  0
 14 13  2  0  0  0  0
 14 15  1  0  0  0  0
 15 10  2  0  0  0  0
 18 14  1  0  0  0  0
 19 20  2  0  0  0  0
 19  4  1  0  0  0  0
 21 24  1  6  0  0  0
 21 22  1  0  0  0  0
 21 19  1  0  0  0  0
 22 25  1  0  0  0  0
 23 27  1  1  0  0  0
 23 21  1  0  0  0  0
 23 22  1  0  0  0  0
 26 22  1  0  0  0  0
 28 33  1  6  0  0  0
 28 29  1  0  0  0  0
 29 30  1  1  0  0  0
 29 23  1  0  0  0  0
 31 30  1  0  0  0  0
 32 35  1  1  0  0  0
 32 31  1  0  0  0  0
 32 28  1  0  0  0  0
 33 34  1  0  0  0  0
 36 35  1  0  0  0  0
M  END
>  <minimizedAffinity>
-4.89872408

>  <minimizedRMSD>
0.784995854

$$$$
