
 OpenBabel03272507353D

 36 39  0  0  1  0  0  0  0  0999 V2000
   36.1510   25.9760   31.8720 C   0  0  0  0  0  0  0  0  0  0  0  0
   36.1950   27.3050   31.5110 C   0  0  0  0  0  0  0  0  0  0  0  0
   36.8080   28.0050   32.5620 C   0  0  0  0  0  0  0  0  0  0  0  0
   37.1020   27.0440   33.5030 C   0  0  0  0  0  0  0  0  0  0  0  0
   36.7000   25.8740   33.0580 O   0  0  0  0  0  0  0  0  0  0  0  0
   35.8660   27.8610   30.6330 H   0  0  0  0  0  0  0  0  0  0  0  0
   37.0320   29.0690   32.6710 H   0  0  0  0  0  0  0  0  0  0  0  0
   35.5750   24.9590   31.0080 C   0  0  0  0  0  0  0  0  0  0  0  0
   34.5370   25.2130   30.3820 O   0  0  0  0  0  0  0  0  0  0  0  0
   36.2620   23.7000   30.9350 C   0  0  0  0  0  0  0  0  0  0  0  0
   37.6090   23.7350   30.6150 C   0  0  0  0  0  0  0  0  0  0  0  0
   38.3090   22.5270   30.5340 C   0  0  0  0  0  0  0  0  0  0  0  0
   37.6190   21.3660   30.7780 N   0  0  0  0  0  0  0  0  0  0  0  0
   36.3200   21.3690   31.0850 C   0  0  0  0  0  0  0  0  0  0  0  0
   35.6390   22.5230   31.1650 N   0  0  0  0  0  0  0  0  0  0  0  0
   38.1980   24.6180   30.4140 H   0  0  0  0  0  0  0  0  0  0  0  0
   39.3510   22.5150   30.2880 H   0  0  0  0  0  0  0  0  0  0  0  0
   35.8650   20.3970   31.2610 H   0  0  0  0  0  0  0  0  0  0  0  0
   37.7580   27.2800   34.7890 C   0  0  0  0  0  0  0  0  0  0  0  0
   37.5570   28.3970   35.3730 O   0  0  0  0  0  0  0  0  0  0  0  0
   38.6480   26.2360   35.3950 C   0  0  1  0  0  0  0  0  0  0  0  0
   38.1070   25.8370   36.8260 C   0  0  0  0  0  0  0  0  0  0  0  0
   38.1440   24.8920   35.6840 C   0  0  2  0  0  0  0  0  0  0  0  0
   39.7050   26.5910   35.5320 H   0  0  0  0  0  0  0  0  0  0  0  0
   37.1200   26.2000   37.1040 H   0  0  0  0  0  0  0  0  0  0  0  0
   38.8400   25.7140   37.6180 H   0  0  0  0  0  0  0  0  0  0  0  0
   37.1890   24.6180   35.1900 H   0  0  0  0  0  0  0  0  0  0  0  0
   39.0350   22.9350   36.9270 C   0  0  2  0  0  3  0  0  0  0  0  0
   39.1480   23.7700   35.6430 C   0  0  2  0  0  3  0  0  0  0  0  0
   40.4540   24.1980   35.7440 O   0  0  0  0  0  0  0  0  0  0  0  0
   41.1950   23.0860   36.0670 C   0  0  0  0  0  2  0  0  0  0  0  0
   40.2790   22.0650   36.7080 C   0  0  1  0  0  3  0  0  0  0  0  0
   37.8810   22.1990   36.9910 O   0  0  0  0  0  0  0  0  0  0  0  0
   37.1980   22.7700   37.4470 H   0  0  0  0  0  0  0  0  0  0  0  0
   40.7660   21.5200   37.8700 O   0  0  0  0  0  0  0  0  0  0  0  0
   40.5430   20.5390   37.9530 H   0  0  0  0  0  0  0  0  0  0  0  0
  1  5  1  0  0  0  0
  2  1  2  0  0  0  0
  2  3  1  0  0  0  0
  3  7  1  0  0  0  0
  3  4  2  0  0  0  0
  4 19  1  0  0  0  0
  5  4  1  0  0  0  0
  6  2  1  0  0  0  0
  8  1  1  0  0  0  0
  9  8  2  0  0  0  0
 10  8  1  0  0  0  0
 10 15  1  0  0  0  0
 11 10  2  0  0  0  0
 12 11  1  0  0  0  0
 12 13  2  0  0  0  0
 13 14  1  0  0  0  0
 14 15  2  0  0  0  0
 14 18  1  0  0  0  0
 16 11  1  0  0  0  0
 17 12  1  0  0  0  0
 19 20  2  0  0  0  0
 19 21  1  0  0  0  0
 21 24  1  6  0  0  0
 21 23  1  0  0  0  0
 21 22  1  0  0  0  0
 22 25  1  0  0  0  0
 22 26  1  0  0  0  0
 23 27  1  6  0  0  0
 23 22  1  0  0  0  0
 28 33  1  6  0  0  0
 29 23  1  0  0  0  0
 29 30  1  1  0  0  0
 29 28  1  0  0  0  0
 30 31  1  0  0  0  0
 31 32  1  0  0  0  0
 32 28  1  0  0  0  0
 32 35  1  1  0  0  0
 33 34  1  0  0  0  0
 35 36  1  0  0  0  0
M  END
>  <minimizedAffinity>
-6.15169239

$$$$

 OpenBabel03272507353D

 36 39  0  0  1  0  0  0  0  0999 V2000
   36.5620   25.6410   31.7280 C   0  0  0  0  0  0  0  0  0  0  0  0
   36.3140   26.9850   31.5540 C   0  0  0  0  0  0  0  0  0  0  0  0
   37.3210   27.6890   32.2310 C   0  0  0  0  0  0  0  0  0  0  0  0
   38.1270   26.7150   32.7790 C   0  0  0  0  0  0  0  0  0  0  0  0
   37.6450   25.5340   32.4600 O   0  0  0  0  0  0  0  0  0  0  0  0
   35.5410   27.5480   31.0300 H   0  0  0  0  0  0  0  0  0  0  0  0
   37.4870   28.7630   32.3390 H   0  0  0  0  0  0  0  0  0  0  0  0
   35.7060   24.6150   31.1550 C   0  0  0  0  0  0  0  0  0  0  0  0
   34.6220   24.9420   30.6520 O   0  0  0  0  0  0  0  0  0  0  0  0
   36.1840   23.2620   31.2100 C   0  0  0  0  0  0  0  0  0  0  0  0
   35.3640   22.3300   31.8240 C   0  0  0  0  0  0  0  0  0  0  0  0
   35.7970   21.0020   31.8970 C   0  0  0  0  0  0  0  0  0  0  0  0
   37.0190   20.6940   31.3530 N   0  0  0  0  0  0  0  0  0  0  0  0
   37.7840   21.6180   30.7680 C   0  0  0  0  0  0  0  0  0  0  0  0
   37.3760   22.8950   30.6930 N   0  0  0  0  0  0  0  0  0  0  0  0
   34.3970   22.5190   32.2670 H   0  0  0  0  0  0  0  0  0  0  0  0
   35.1910   20.2540   32.3650 H   0  0  0  0  0  0  0  0  0  0  0  0
   38.7340   21.2730   30.3670 H   0  0  0  0  0  0  0  0  0  0  0  0
   39.3260   26.9510   33.5830 C   0  0  0  0  0  0  0  0  0  0  0  0
   40.3400   27.4780   33.0150 O   0  0  0  0  0  0  0  0  0  0  0  0
   39.3580   26.5730   35.0330 C   0  0  1  0  0  0  0  0  0  0  0  0
   38.2890   27.4230   35.8310 C   0  0  0  0  0  0  0  0  0  0  0  0
   38.1980   25.9510   35.6760 C   0  0  2  0  0  0  0  0  0  0  0  0
   40.3550   26.7690   35.5130 H   0  0  0  0  0  0  0  0  0  0  0  0
   37.5780   28.0020   35.2470 H   0  0  0  0  0  0  0  0  0  0  0  0
   38.5900   27.8200   36.7970 H   0  0  0  0  0  0  0  0  0  0  0  0
   37.4320   25.5360   34.9900 H   0  0  0  0  0  0  0  0  0  0  0  0
   37.5910   23.7870   36.7310 C   0  0  2  0  0  3  0  0  0  0  0  0
   38.4800   25.0340   36.8370 C   0  0  2  0  0  3  0  0  0  0  0  0
   38.0540   25.5360   38.0480 O   0  0  0  0  0  0  0  0  0  0  0  0
   38.0320   24.4680   38.9150 C   0  0  0  0  0  2  0  0  0  0  0  0
   37.9170   23.1930   38.1070 C   0  0  1  0  0  3  0  0  0  0  0  0
   37.9490   22.9560   35.7010 O   0  0  0  0  0  0  0  0  0  0  0  0
   37.4250   23.2490   34.9000 H   0  0  0  0  0  0  0  0  0  0  0  0
   36.9570   22.3220   38.5590 O   0  0  0  0  0  0  0  0  0  0  0  0
   37.2490   21.3590   38.4810 H   0  0  0  0  0  0  0  0  0  0  0  0
  1  5  1  0  0  0  0
  2  1  2  0  0  0  0
  2  3  1  0  0  0  0
  3  7  1  0  0  0  0
  3  4  2  0  0  0  0
  4 19  1  0  0  0  0
  5  4  1  0  0  0  0
  6  2  1  0  0  0  0
  8 10  1  0  0  0  0
  8  1  1  0  0  0  0
  9  8  2  0  0  0  0
 10 11  1  0  0  0  0
 11 12  2  0  0  0  0
 11 16  1  0  0  0  0
 12 17  1  0  0  0  0
 13 12  1  0  0  0  0
 14 13  2  0  0  0  0
 15 14  1  0  0  0  0
 15 10  2  0  0  0  0
 18 14  1  0  0  0  0
 19 21  1  0  0  0  0
 20 19  2  0  0  0  0
 21 24  1  1  0  0  0
 21 23  1  0  0  0  0
 21 22  1  0  0  0  0
 22 26  1  0  0  0  0
 23 27  1  6  0  0  0
 23 22  1  0  0  0  0
 23 29  1  0  0  0  0
 25 22  1  0  0  0  0
 28 33  1  6  0  0  0
 28 29  1  0  0  0  0
 28 32  1  0  0  0  0
 29 30  1  1  0  0  0
 30 31  1  0  0  0  0
 32 35  1  1  0  0  0
 32 31  1  0  0  0  0
 34 33  1  0  0  0  0
 36 35  1  0  0  0  0
M  END
>  <minimizedAffinity>
-5.87265253

$$$$

 OpenBabel03272507353D

 36 39  0  0  1  0  0  0  0  0999 V2000
   37.8330   25.6950   35.7630 C   0  0  0  0  0  0  0  0  0  0  0  0
   38.3160   26.8940   36.2390 C   0  0  0  0  0  0  0  0  0  0  0  0
   37.9660   27.8860   35.3110 C   0  0  0  0  0  0  0  0  0  0  0  0
   37.2830   27.2180   34.3190 C   0  0  0  0  0  0  0  0  0  0  0  0
   37.2310   25.9400   34.6240 O   0  0  0  0  0  0  0  0  0  0  0  0
   38.8730   27.1840   37.1310 H   0  0  0  0  0  0  0  0  0  0  0  0
   38.1580   28.9620   35.3140 H   0  0  0  0  0  0  0  0  0  0  0  0
   38.0190   24.4460   36.4810 C   0  0  0  0  0  0  0  0  0  0  0  0
   37.0820   23.9830   37.1470 O   0  0  0  0  0  0  0  0  0  0  0  0
   39.3050   23.8150   36.3710 C   0  0  0  0  0  0  0  0  0  0  0  0
   39.6770   22.9610   37.3960 C   0  0  0  0  0  0  0  0  0  0  0  0
   40.9230   22.3300   37.3220 C   0  0  0  0  0  0  0  0  0  0  0  0
   41.7140   22.5940   36.2310 N   0  0  0  0  0  0  0  0  0  0  0  0
   41.3230   23.4230   35.2610 C   0  0  0  0  0  0  0  0  0  0  0  0
   40.1290   24.0330   35.3230 N   0  0  0  0  0  0  0  0  0  0  0  0
   39.0960   22.7200   38.2730 H   0  0  0  0  0  0  0  0  0  0  0  0
   41.2450   21.6640   38.0950 H   0  0  0  0  0  0  0  0  0  0  0  0
   42.0210   23.5650   34.4390 H   0  0  0  0  0  0  0  0  0  0  0  0
   36.7060   27.8260   33.1200 C   0  0  0  0  0  0  0  0  0  0  0  0
   36.7960   27.1900   32.0180 O   0  0  0  0  0  0  0  0  0  0  0  0
   36.0350   29.1650   33.1910 C   0  0  1  0  0  0  0  0  0  0  0  0
   34.5110   29.0210   32.7910 C   0  0  0  0  0  0  0  0  0  0  0  0
   34.9560   29.4170   34.1500 C   0  0  2  0  0  0  0  0  0  0  0  0
   36.4870   29.9170   32.4910 H   0  0  0  0  0  0  0  0  0  0  0  0
   34.1130   28.0130   32.7020 H   0  0  0  0  0  0  0  0  0  0  0  0
   34.0930   29.7870   32.1440 H   0  0  0  0  0  0  0  0  0  0  0  0
   34.8620   28.6820   34.9740 H   0  0  0  0  0  0  0  0  0  0  0  0
   35.3530   30.9570   36.0570 C   0  0  2  0  0  3  0  0  0  0  0  0
   34.7970   30.8350   34.6310 C   0  0  2  0  0  3  0  0  0  0  0  0
   33.4850   31.1970   34.8470 O   0  0  0  0  0  0  0  0  0  0  0  0
   33.5270   32.3360   35.6170 C   0  0  0  0  0  2  0  0  0  0  0  0
   34.8550   32.3790   36.3430 C   0  0  1  0  0  3  0  0  0  0  0  0
   36.7180   30.8560   36.1130 O   0  0  0  0  0  0  0  0  0  0  0  0
   36.9300   29.8860   36.2430 H   0  0  0  0  0  0  0  0  0  0  0  0
   34.7570   32.6560   37.6840 O   0  0  0  0  0  0  0  0  0  0  0  0
   35.5090   33.2470   38.0070 H   0  0  0  0  0  0  0  0  0  0  0  0
  1  2  2  0  0  0  0
  1  8  1  0  0  0  0
  2  6  1  0  0  0  0
  3  7  1  0  0  0  0
  3  2  1  0  0  0  0
  4  5  1  0  0  0  0
  4  3  2  0  0  0  0
  5  1  1  0  0  0  0
  8  9  2  0  0  0  0
 10  8  1  0  0  0  0
 10 11  1  0  0  0  0
 11 16  1  0  0  0  0
 12 11  2  0  0  0  0
 12 17  1  0  0  0  0
 13 12  1  0  0  0  0
 14 15  1  0  0  0  0
 14 13  2  0  0  0  0
 15 10  2  0  0  0  0
 18 14  1  0  0  0  0
 19 21  1  0  0  0  0
 19  4  1  0  0  0  0
 20 19  2  0  0  0  0
 21 24  1  6  0  0  0
 21 23  1  0  0  0  0
 22 21  1  0  0  0  0
 22 23  1  0  0  0  0
 23 29  1  0  0  0  0
 23 27  1  1  0  0  0
 25 22  1  0  0  0  0
 26 22  1  0  0  0  0
 28 33  1  6  0  0  0
 28 32  1  0  0  0  0
 29 30  1  1  0  0  0
 29 28  1  0  0  0  0
 30 31  1  0  0  0  0
 31 32  1  0  0  0  0
 32 35  1  1  0  0  0
 33 34  1  0  0  0  0
 35 36  1  0  0  0  0
M  END
>  <minimizedAffinity>
-5.83214426

$$$$

 OpenBabel03272507353D

 36 39  0  0  1  0  0  0  0  0999 V2000
   35.9840   29.0280   32.2860 C   0  0  0  0  0  0  0  0  0  0  0  0
   37.0450   29.0640   31.4070 C   0  0  0  0  0  0  0  0  0  0  0  0
   37.6280   27.7880   31.4010 C   0  0  0  0  0  0  0  0  0  0  0  0
   36.8740   27.0490   32.2860 C   0  0  0  0  0  0  0  0  0  0  0  0
   35.9260   27.8150   32.7800 O   0  0  0  0  0  0  0  0  0  0  0  0
   37.4740   29.8390   30.7720 H   0  0  0  0  0  0  0  0  0  0  0  0
   38.4840   27.4010   30.8440 H   0  0  0  0  0  0  0  0  0  0  0  0
   35.1500   30.1910   32.5400 C   0  0  0  0  0  0  0  0  0  0  0  0
   34.1190   30.3540   31.8720 O   0  0  0  0  0  0  0  0  0  0  0  0
   35.5840   31.0930   33.5690 C   0  0  0  0  0  0  0  0  0  0  0  0
   35.5640   30.6200   34.8700 C   0  0  0  0  0  0  0  0  0  0  0  0
   35.9780   31.4720   35.8990 C   0  0  0  0  0  0  0  0  0  0  0  0
   36.3860   32.7390   35.5590 N   0  0  0  0  0  0  0  0  0  0  0  0
   36.3940   33.1620   34.2940 C   0  0  0  0  0  0  0  0  0  0  0  0
   35.9970   32.3510   33.3000 N   0  0  0  0  0  0  0  0  0  0  0  0
   35.2530   29.6370   35.1910 H   0  0  0  0  0  0  0  0  0  0  0  0
   35.9760   31.1430   36.9170 H   0  0  0  0  0  0  0  0  0  0  0  0
   36.7340   34.1810   34.1280 H   0  0  0  0  0  0  0  0  0  0  0  0
   37.0870   25.6420   32.6240 C   0  0  0  0  0  0  0  0  0  0  0  0
   36.2830   24.7770   32.1410 O   0  0  0  0  0  0  0  0  0  0  0  0
   38.2180   25.2360   33.5200 C   0  0  1  0  0  0  0  0  0  0  0  0
   37.9310   25.7220   34.9970 C   0  0  0  0  0  0  0  0  0  0  0  0
   38.0070   24.2900   34.6180 C   0  0  2  0  0  0  0  0  0  0  0  0
   39.2010   25.6850   33.2130 H   0  0  0  0  0  0  0  0  0  0  0  0
   36.9350   26.0990   35.2120 H   0  0  0  0  0  0  0  0  0  0  0  0
   38.7630   26.1520   35.5490 H   0  0  0  0  0  0  0  0  0  0  0  0
   37.0680   23.7020   34.5750 H   0  0  0  0  0  0  0  0  0  0  0  0
   38.8480   22.6660   36.2990 C   0  0  2  0  0  3  0  0  0  0  0  0
   39.1880   23.4470   35.0210 C   0  0  2  0  0  3  0  0  0  0  0  0
   40.2640   24.1860   35.4650 O   0  0  0  0  0  0  0  0  0  0  0  0
   41.0830   23.3040   36.1300 C   0  0  0  0  0  2  0  0  0  0  0  0
   40.2530   22.1180   36.5770 C   0  0  1  0  0  3  0  0  0  0  0  0
   37.9270   21.6730   36.0930 O   0  0  0  0  0  0  0  0  0  0  0  0
   37.0250   22.0800   36.2470 H   0  0  0  0  0  0  0  0  0  0  0  0
   40.4420   21.7590   37.8880 O   0  0  0  0  0  0  0  0  0  0  0  0
   40.4240   20.7580   38.0150 H   0  0  0  0  0  0  0  0  0  0  0  0
  1  8  1  0  0  0  0
  1  5  1  0  0  0  0
  2  1  2  0  0  0  0
  3  2  1  0  0  0  0
  3  4  2  0  0  0  0
  4 19  1  0  0  0  0
  4  5  1  0  0  0  0
  6  2  1  0  0  0  0
  7  3  1  0  0  0  0
  8 10  1  0  0  0  0
  9  8  2  0  0  0  0
 10 11  1  0  0  0  0
 11 16  1  0  0  0  0
 11 12  2  0  0  0  0
 12 17  1  0  0  0  0
 13 12  1  0  0  0  0
 14 13  2  0  0  0  0
 15 10  2  0  0  0  0
 15 14  1  0  0  0  0
 18 14  1  0  0  0  0
 19 21  1  0  0  0  0
 20 19  2  0  0  0  0
 21 24  1  6  0  0  0
 21 23  1  0  0  0  0
 21 22  1  0  0  0  0
 22 25  1  0  0  0  0
 22 26  1  0  0  0  0
 23 27  1  6  0  0  0
 23 22  1  0  0  0  0
 23 29  1  0  0  0  0
 28 33  1  6  0  0  0
 28 32  1  0  0  0  0
 29 30  1  1  0  0  0
 29 28  1  0  0  0  0
 30 31  1  0  0  0  0
 31 32  1  0  0  0  0
 32 35  1  1  0  0  0
 33 34  1  0  0  0  0
 35 36  1  0  0  0  0
M  END
>  <minimizedAffinity>
-5.73844719

$$$$

 OpenBabel03272507353D

 36 39  0  0  1  0  0  0  0  0999 V2000
   35.4180   28.9710   33.0360 C   0  0  0  0  0  0  0  0  0  0  0  0
   35.9130   29.2420   31.7790 C   0  0  0  0  0  0  0  0  0  0  0  0
   37.0700   28.4680   31.6080 C   0  0  0  0  0  0  0  0  0  0  0  0
   37.2050   27.7660   32.7850 C   0  0  0  0  0  0  0  0  0  0  0  0
   36.2180   28.0920   33.5910 O   0  0  0  0  0  0  0  0  0  0  0  0
   35.5930   29.8950   30.9660 H   0  0  0  0  0  0  0  0  0  0  0  0
   37.7540   28.3910   30.7590 H   0  0  0  0  0  0  0  0  0  0  0  0
   34.2150   29.6060   33.5480 C   0  0  0  0  0  0  0  0  0  0  0  0
   33.1380   29.4250   32.9620 O   0  0  0  0  0  0  0  0  0  0  0  0
   34.3560   30.4180   34.7230 C   0  0  0  0  0  0  0  0  0  0  0  0
   35.5930   31.0010   34.9410 C   0  0  0  0  0  0  0  0  0  0  0  0
   35.7670   31.7980   36.0770 C   0  0  0  0  0  0  0  0  0  0  0  0
   34.6940   31.9590   36.9200 N   0  0  0  0  0  0  0  0  0  0  0  0
   33.5150   31.3830   36.6790 C   0  0  0  0  0  0  0  0  0  0  0  0
   33.3390   30.6160   35.5910 N   0  0  0  0  0  0  0  0  0  0  0  0
   36.4660   30.9070   34.3130 H   0  0  0  0  0  0  0  0  0  0  0  0
   36.7080   32.2640   36.2790 H   0  0  0  0  0  0  0  0  0  0  0  0
   32.7290   31.5720   37.4060 H   0  0  0  0  0  0  0  0  0  0  0  0
   38.2680   26.8100   33.0930 C   0  0  0  0  0  0  0  0  0  0  0  0
   39.3000   26.7930   32.3430 O   0  0  0  0  0  0  0  0  0  0  0  0
   38.1380   25.8740   34.2570 C   0  0  1  0  0  0  0  0  0  0  0  0
   37.9840   24.3900   33.7350 C   0  0  0  0  0  0  0  0  0  0  0  0
   39.1540   24.8520   34.5190 C   0  0  2  0  0  0  0  0  0  0  0  0
   37.2380   26.0920   34.8930 H   0  0  0  0  0  0  0  0  0  0  0  0
   38.1680   24.2130   32.6780 H   0  0  0  0  0  0  0  0  0  0  0  0
   37.2490   23.7620   34.2300 H   0  0  0  0  0  0  0  0  0  0  0  0
   40.1230   24.9900   33.9980 H   0  0  0  0  0  0  0  0  0  0  0  0
   40.2930   23.2340   36.0200 C   0  0  2  0  0  3  0  0  0  0  0  0
   39.3350   24.4320   35.9540 C   0  0  2  0  0  3  0  0  0  0  0  0
   38.2050   23.8720   36.5090 O   0  0  0  0  0  0  0  0  0  0  0  0
   38.6230   23.2170   37.6440 C   0  0  0  0  0  2  0  0  0  0  0  0
   40.0980   22.9040   37.5050 C   0  0  1  0  0  3  0  0  0  0  0  0
   41.5890   23.5640   35.7200 O   0  0  0  0  0  0  0  0  0  0  0  0
   41.6970   23.4420   34.7330 H   0  0  0  0  0  0  0  0  0  0  0  0
   40.4330   21.6100   37.8180 O   0  0  0  0  0  0  0  0  0  0  0  0
   41.3190   21.5520   38.2980 H   0  0  0  0  0  0  0  0  0  0  0  0
  1  8  1  0  0  0  0
  1  5  1  0  0  0  0
  2  1  2  0  0  0  0
  3  2  1  0  0  0  0
  3  4  2  0  0  0  0
  4 19  1  0  0  0  0
  4  5  1  0  0  0  0
  6  2  1  0  0  0  0
  7  3  1  0  0  0  0
  8 10  1  0  0  0  0
  9  8  2  0  0  0  0
 10 11  2  0  0  0  0
 10 15  1  0  0  0  0
 11 12  1  0  0  0  0
 12 17  1  0  0  0  0
 12 13  2  0  0  0  0
 14 13  1  0  0  0  0
 14 18  1  0  0  0  0
 15 14  2  0  0  0  0
 16 11  1  0  0  0  0
 19 21  1  0  0  0  0
 20 19  2  0  0  0  0
 21 23  1  0  0  0  0
 21 24  1  1  0  0  0
 22 26  1  0  0  0  0
 22 21  1  0  0  0  0
 22 23  1  0  0  0  0
 23 27  1  6  0  0  0
 23 29  1  0  0  0  0
 25 22  1  0  0  0  0
 28 33  1  1  0  0  0
 28 32  1  0  0  0  0
 29 28  1  0  0  0  0
 29 30  1  6  0  0  0
 30 31  1  0  0  0  0
 32 31  1  0  0  0  0
 32 35  1  6  0  0  0
 34 33  1  0  0  0  0
 35 36  1  0  0  0  0
M  END
>  <minimizedAffinity>
-5.72900772

$$$$

 OpenBabel03272507353D

 36 39  0  0  1  0  0  0  0  0999 V2000
   37.2450   23.4300   31.4120 C   0  0  0  0  0  0  0  0  0  0  0  0
   36.1380   24.1500   31.0210 C   0  0  0  0  0  0  0  0  0  0  0  0
   36.2650   25.4400   31.5590 C   0  0  0  0  0  0  0  0  0  0  0  0
   37.4560   25.4200   32.2490 C   0  0  0  0  0  0  0  0  0  0  0  0
   37.9940   24.2250   32.1370 O   0  0  0  0  0  0  0  0  0  0  0  0
   35.2580   23.9160   30.4210 H   0  0  0  0  0  0  0  0  0  0  0  0
   35.6060   26.3080   31.4850 H   0  0  0  0  0  0  0  0  0  0  0  0
   37.4400   22.0420   31.0280 C   0  0  0  0  0  0  0  0  0  0  0  0
   38.2340   21.7710   30.1160 O   0  0  0  0  0  0  0  0  0  0  0  0
   36.6850   21.0540   31.7470 C   0  0  0  0  0  0  0  0  0  0  0  0
   36.3410   19.9020   31.0590 C   0  0  0  0  0  0  0  0  0  0  0  0
   35.6040   18.9190   31.7270 C   0  0  0  0  0  0  0  0  0  0  0  0
   35.2610   19.1510   33.0360 N   0  0  0  0  0  0  0  0  0  0  0  0
   35.6110   20.2720   33.6690 C   0  0  0  0  0  0  0  0  0  0  0  0
   36.3180   21.2230   33.0350 N   0  0  0  0  0  0  0  0  0  0  0  0
   36.5840   19.6710   30.0330 H   0  0  0  0  0  0  0  0  0  0  0  0
   35.3190   18.0160   31.2280 H   0  0  0  0  0  0  0  0  0  0  0  0
   35.2920   20.3610   34.7040 H   0  0  0  0  0  0  0  0  0  0  0  0
   38.0350   26.5430   32.9870 C   0  0  0  0  0  0  0  0  0  0  0  0
   38.0930   27.6790   32.4090 O   0  0  0  0  0  0  0  0  0  0  0  0
   38.5530   26.3530   34.3810 C   0  0  1  0  0  0  0  0  0  0  0  0
   37.5700   27.0370   35.4140 C   0  0  0  0  0  0  0  0  0  0  0  0
   37.7990   25.5730   35.3650 C   0  0  2  0  0  0  0  0  0  0  0  0
   39.5650   26.8160   34.5370 H   0  0  0  0  0  0  0  0  0  0  0  0
   36.6080   27.3750   35.0370 H   0  0  0  0  0  0  0  0  0  0  0  0
   38.0180   27.6000   36.2280 H   0  0  0  0  0  0  0  0  0  0  0  0
   36.9990   24.9240   34.9560 H   0  0  0  0  0  0  0  0  0  0  0  0
   39.1740   23.5700   35.8810 C   0  0  2  0  0  3  0  0  0  0  0  0
   38.6000   24.8820   36.4370 C   0  0  2  0  0  3  0  0  0  0  0  0
   37.8290   24.3940   37.4700 O   0  0  0  0  0  0  0  0  0  0  0  0
   38.6220   23.4940   38.1440 C   0  0  0  0  0  2  0  0  0  0  0  0
   39.7080   23.0100   37.2060 C   0  0  1  0  0  3  0  0  0  0  0  0
   40.1650   23.7650   34.9550 O   0  0  0  0  0  0  0  0  0  0  0  0
   39.7190   23.8080   34.0600 H   0  0  0  0  0  0  0  0  0  0  0  0
   39.8720   21.6470   37.1870 O   0  0  0  0  0  0  0  0  0  0  0  0
   40.8420   21.3810   37.1060 H   0  0  0  0  0  0  0  0  0  0  0  0
  1  5  1  0  0  0  0
  2  1  2  0  0  0  0
  2  3  1  0  0  0  0
  3  4  2  0  0  0  0
  4 19  1  0  0  0  0
  5  4  1  0  0  0  0
  6  2  1  0  0  0  0
  7  3  1  0  0  0  0
  8  1  1  0  0  0  0
  8 10  1  0  0  0  0
  9  8  2  0  0  0  0
 10 15  1  0  0  0  0
 11 12  1  0  0  0  0
 11 10  2  0  0  0  0
 12 13  2  0  0  0  0
 13 14  1  0  0  0  0
 14 18  1  0  0  0  0
 15 14  2  0  0  0  0
 16 11  1  0  0  0  0
 17 12  1  0  0  0  0
 19 21  1  0  0  0  0
 20 19  2  0  0  0  0
 21 24  1  1  0  0  0
 21 23  1  0  0  0  0
 21 22  1  0  0  0  0
 22 26  1  0  0  0  0
 23 27  1  6  0  0  0
 23 22  1  0  0  0  0
 23 29  1  0  0  0  0
 25 22  1  0  0  0  0
 28 33  1  6  0  0  0
 28 29  1  0  0  0  0
 28 32  1  0  0  0  0
 29 30  1  1  0  0  0
 30 31  1  0  0  0  0
 32 35  1  6  0  0  0
 32 31  1  0  0  0  0
 34 33  1  0  0  0  0
 36 35  1  0  0  0  0
M  END
>  <minimizedAffinity>
-5.64625549

$$$$

 OpenBabel03272507353D

 36 39  0  0  1  0  0  0  0  0999 V2000
   38.0140   26.3040   34.1240 C   0  0  0  0  0  0  0  0  0  0  0  0
   38.5980   27.0370   33.1130 C   0  0  0  0  0  0  0  0  0  0  0  0
   37.9090   26.7390   31.9280 C   0  0  0  0  0  0  0  0  0  0  0  0
   36.9380   25.8360   32.3000 C   0  0  0  0  0  0  0  0  0  0  0  0
   37.0380   25.6100   33.5910 O   0  0  0  0  0  0  0  0  0  0  0  0
   39.4270   27.7430   33.0740 H   0  0  0  0  0  0  0  0  0  0  0  0
   38.0560   27.1060   30.9090 H   0  0  0  0  0  0  0  0  0  0  0  0
   38.4840   26.3720   35.4980 C   0  0  0  0  0  0  0  0  0  0  0  0
   38.6470   27.4790   36.0290 O   0  0  0  0  0  0  0  0  0  0  0  0
   38.7330   25.1240   36.1640 C   0  0  0  0  0  0  0  0  0  0  0  0
   39.6950   24.2960   35.6110 C   0  0  0  0  0  0  0  0  0  0  0  0
   39.9620   23.0720   36.2320 C   0  0  0  0  0  0  0  0  0  0  0  0
   39.2520   22.7570   37.3640 N   0  0  0  0  0  0  0  0  0  0  0  0
   38.3310   23.5800   37.8710 C   0  0  0  0  0  0  0  0  0  0  0  0
   38.0670   24.7570   37.2810 N   0  0  0  0  0  0  0  0  0  0  0  0
   40.2800   24.4950   34.7260 H   0  0  0  0  0  0  0  0  0  0  0  0
   40.6980   22.4060   35.8340 H   0  0  0  0  0  0  0  0  0  0  0  0
   37.8230   23.2390   38.7700 H   0  0  0  0  0  0  0  0  0  0  0  0
   35.9520   25.2250   31.4080 C   0  0  0  0  0  0  0  0  0  0  0  0
   35.1790   25.9940   30.7460 O   0  0  0  0  0  0  0  0  0  0  0  0
   35.8540   23.7340   31.2870 C   0  0  1  0  0  0  0  0  0  0  0  0
   37.1960   23.1570   30.6800 C   0  0  0  0  0  0  0  0  0  0  0  0
   36.7370   22.8550   32.0580 C   0  0  2  0  0  0  0  0  0  0  0  0
   35.0210   23.4050   30.6090 H   0  0  0  0  0  0  0  0  0  0  0  0
   38.0400   23.8370   30.6050 H   0  0  0  0  0  0  0  0  0  0  0  0
   37.1070   22.3790   29.9280 H   0  0  0  0  0  0  0  0  0  0  0  0
   37.2650   23.3290   32.9100 H   0  0  0  0  0  0  0  0  0  0  0  0
   36.8370   20.4380   31.4990 C   0  0  2  0  0  3  0  0  0  0  0  0
   36.1960   21.4940   32.4110 C   0  0  2  0  0  3  0  0  0  0  0  0
   34.8680   21.3290   32.0820 O   0  0  0  0  0  0  0  0  0  0  0  0
   34.6360   19.9740   32.1080 C   0  0  0  0  0  2  0  0  0  0  0  0
   35.9550   19.2540   31.9170 C   0  0  1  0  0  3  0  0  0  0  0  0
   38.1640   20.2260   31.7690 O   0  0  0  0  0  0  0  0  0  0  0  0
   38.6800   20.8610   31.1930 H   0  0  0  0  0  0  0  0  0  0  0  0
   35.9210   18.2510   30.9810 O   0  0  0  0  0  0  0  0  0  0  0  0
   36.4810   17.4570   31.2530 H   0  0  0  0  0  0  0  0  0  0  0  0
  1  8  1  0  0  0  0
  2  1  2  0  0  0  0
  3  4  2  0  0  0  0
  3  2  1  0  0  0  0
  4  5  1  0  0  0  0
  5  1  1  0  0  0  0
  6  2  1  0  0  0  0
  7  3  1  0  0  0  0
  8  9  2  0  0  0  0
  8 10  1  0  0  0  0
 10 15  1  0  0  0  0
 11 10  2  0  0  0  0
 11 12  1  0  0  0  0
 12 13  2  0  0  0  0
 13 14  1  0  0  0  0
 14 18  1  0  0  0  0
 15 14  2  0  0  0  0
 16 11  1  0  0  0  0
 17 12  1  0  0  0  0
 19  4  1  0  0  0  0
 20 19  2  0  0  0  0
 21 24  1  6  0  0  0
 21 19  1  0  0  0  0
 21 23  1  0  0  0  0
 22 21  1  0  0  0  0
 22 23  1  0  0  0  0
 23 29  1  0  0  0  0
 23 27  1  1  0  0  0
 25 22  1  0  0  0  0
 26 22  1  0  0  0  0
 28 33  1  1  0  0  0
 28 32  1  0  0  0  0
 28 29  1  0  0  0  0
 29 30  1  6  0  0  0
 30 31  1  0  0  0  0
 32 35  1  6  0  0  0
 32 31  1  0  0  0  0
 34 33  1  0  0  0  0
 35 36  1  0  0  0  0
M  END
>  <minimizedAffinity>
-5.63105869

$$$$

 OpenBabel03272507353D

 36 39  0  0  1  0  0  0  0  0999 V2000
   38.1660   25.2790   35.9360 C   0  0  0  0  0  0  0  0  0  0  0  0
   38.3000   26.6320   36.1580 C   0  0  0  0  0  0  0  0  0  0  0  0
   37.8670   27.2930   34.9990 C   0  0  0  0  0  0  0  0  0  0  0  0
   37.4900   26.2870   34.1380 C   0  0  0  0  0  0  0  0  0  0  0  0
   37.6840   25.1270   34.7260 O   0  0  0  0  0  0  0  0  0  0  0  0
   38.6540   27.2280   37.0010 H   0  0  0  0  0  0  0  0  0  0  0  0
   37.8130   28.3590   34.7670 H   0  0  0  0  0  0  0  0  0  0  0  0
   38.5270   24.2910   36.9390 C   0  0  0  0  0  0  0  0  0  0  0  0
   37.8750   24.2290   37.9910 O   0  0  0  0  0  0  0  0  0  0  0  0
   39.6380   23.4320   36.6380 C   0  0  0  0  0  0  0  0  0  0  0  0
   40.0760   22.5930   37.6490 C   0  0  0  0  0  0  0  0  0  0  0  0
   41.1570   21.7440   37.3920 C   0  0  0  0  0  0  0  0  0  0  0  0
   41.7270   21.7890   36.1430 N   0  0  0  0  0  0  0  0  0  0  0  0
   41.2790   22.6100   35.1920 C   0  0  0  0  0  0  0  0  0  0  0  0
   40.2420   23.4300   35.4300 N   0  0  0  0  0  0  0  0  0  0  0  0
   39.6650   22.5180   38.6440 H   0  0  0  0  0  0  0  0  0  0  0  0
   41.5240   21.0820   38.1480 H   0  0  0  0  0  0  0  0  0  0  0  0
   41.7980   22.5710   34.2370 H   0  0  0  0  0  0  0  0  0  0  0  0
   36.9600   26.4720   32.7870 C   0  0  0  0  0  0  0  0  0  0  0  0
   36.2700   25.5280   32.2750 O   0  0  0  0  0  0  0  0  0  0  0  0
   37.2300   27.7360   32.0280 C   0  0  1  0  0  0  0  0  0  0  0  0
   38.6290   27.6330   31.2970 C   0  0  0  0  0  0  0  0  0  0  0  0
   37.3410   27.7290   30.5680 C   0  0  2  0  0  0  0  0  0  0  0  0
   37.2740   28.6420   32.6910 H   0  0  0  0  0  0  0  0  0  0  0  0
   39.1080   26.6570   31.2770 H   0  0  0  0  0  0  0  0  0  0  0  0
   39.2700   28.5090   31.3250 H   0  0  0  0  0  0  0  0  0  0  0  0
   36.9500   26.8260   30.0580 H   0  0  0  0  0  0  0  0  0  0  0  0
   38.0100   29.3330   28.7930 C   0  0  2  0  0  3  0  0  0  0  0  0
   36.9520   28.9980   29.8540 C   0  0  2  0  0  3  0  0  0  0  0  0
   37.0360   30.1220   30.6470 O   0  0  0  0  0  0  0  0  0  0  0  0
   37.0250   31.1950   29.7880 C   0  0  0  0  0  2  0  0  0  0  0  0
   37.4870   30.7270   28.4240 C   0  0  1  0  0  3  0  0  0  0  0  0
   37.9990   28.4680   27.7300 O   0  0  0  0  0  0  0  0  0  0  0  0
   38.6340   27.7270   27.9540 H   0  0  0  0  0  0  0  0  0  0  0  0
   38.4420   31.5250   27.8460 O   0  0  0  0  0  0  0  0  0  0  0  0
   38.3120   31.6130   26.8480 H   0  0  0  0  0  0  0  0  0  0  0  0
  1  2  2  0  0  0  0
  1  8  1  0  0  0  0
  2  6  1  0  0  0  0
  3  2  1  0  0  0  0
  4  5  1  0  0  0  0
  4  3  2  0  0  0  0
  5  1  1  0  0  0  0
  7  3  1  0  0  0  0
  8  9  2  0  0  0  0
 10  8  1  0  0  0  0
 10 11  1  0  0  0  0
 11 16  1  0  0  0  0
 12 11  2  0  0  0  0
 12 17  1  0  0  0  0
 13 12  1  0  0  0  0
 14 15  1  0  0  0  0
 14 13  2  0  0  0  0
 15 10  2  0  0  0  0
 18 14  1  0  0  0  0
 19  4  1  0  0  0  0
 20 19  2  0  0  0  0
 21 24  1  1  0  0  0
 21 19  1  0  0  0  0
 22 26  1  0  0  0  0
 22 21  1  0  0  0  0
 23 27  1  6  0  0  0
 23 22  1  0  0  0  0
 23 21  1  0  0  0  0
 25 22  1  0  0  0  0
 28 33  1  6  0  0  0
 28 29  1  0  0  0  0
 29 23  1  0  0  0  0
 29 30  1  1  0  0  0
 31 30  1  0  0  0  0
 32 35  1  1  0  0  0
 32 28  1  0  0  0  0
 32 31  1  0  0  0  0
 33 34  1  0  0  0  0
 36 35  1  0  0  0  0
M  END
>  <minimizedAffinity>
-5.61560345

$$$$

 OpenBabel03272507353D

 36 39  0  0  1  0  0  0  0  0999 V2000
   36.3070   26.3170   31.0430 C   0  0  0  0  0  0  0  0  0  0  0  0
   35.0930   25.6880   30.8690 C   0  0  0  0  0  0  0  0  0  0  0  0
   35.2820   24.3270   31.1540 C   0  0  0  0  0  0  0  0  0  0  0  0
   36.6130   24.2160   31.4880 C   0  0  0  0  0  0  0  0  0  0  0  0
   37.1730   25.4040   31.4080 O   0  0  0  0  0  0  0  0  0  0  0  0
   34.1000   26.0300   30.5760 H   0  0  0  0  0  0  0  0  0  0  0  0
   34.5770   23.4930   31.1350 H   0  0  0  0  0  0  0  0  0  0  0  0
   36.4750   27.7450   30.8310 C   0  0  0  0  0  0  0  0  0  0  0  0
   36.9940   28.1450   29.7790 O   0  0  0  0  0  0  0  0  0  0  0  0
   36.0180   28.6190   31.8750 C   0  0  0  0  0  0  0  0  0  0  0  0
   36.2730   28.2270   33.1790 C   0  0  0  0  0  0  0  0  0  0  0  0
   35.8410   29.0530   34.2220 C   0  0  0  0  0  0  0  0  0  0  0  0
   35.1850   30.2140   33.8940 N   0  0  0  0  0  0  0  0  0  0  0  0
   34.9570   30.5600   32.6260 C   0  0  0  0  0  0  0  0  0  0  0  0
   35.3670   29.7740   31.6180 N   0  0  0  0  0  0  0  0  0  0  0  0
   36.7830   27.3280   33.4910 H   0  0  0  0  0  0  0  0  0  0  0  0
   36.0200   28.7830   35.2420 H   0  0  0  0  0  0  0  0  0  0  0  0
   34.4290   31.4980   32.4700 H   0  0  0  0  0  0  0  0  0  0  0  0
   37.2990   22.9820   31.8710 C   0  0  0  0  0  0  0  0  0  0  0  0
   37.4480   22.0750   30.9860 O   0  0  0  0  0  0  0  0  0  0  0  0
   37.8020   22.7920   33.2700 C   0  0  1  0  0  0  0  0  0  0  0  0
   39.3830   22.7500   33.2690 C   0  0  0  0  0  0  0  0  0  0  0  0
   38.6040   23.8260   33.9290 C   0  0  2  0  0  0  0  0  0  0  0  0
   37.4500   21.8320   33.7340 H   0  0  0  0  0  0  0  0  0  0  0  0
   39.8870   23.0330   32.3480 H   0  0  0  0  0  0  0  0  0  0  0  0
   39.8610   22.0030   33.8960 H   0  0  0  0  0  0  0  0  0  0  0  0
   38.5790   24.8290   33.4580 H   0  0  0  0  0  0  0  0  0  0  0  0
   39.7150   23.1810   36.0540 C   0  0  2  0  0  3  0  0  0  0  0  0
   38.5110   23.9000   35.4300 C   0  0  2  0  0  3  0  0  0  0  0  0
   37.4800   23.1500   35.9540 O   0  0  0  0  0  0  0  0  0  0  0  0
   37.7500   23.0150   37.2960 C   0  0  0  0  0  2  0  0  0  0  0  0
   39.2350   23.2160   37.5110 C   0  0  1  0  0  3  0  0  0  0  0  0
   40.8960   23.8520   35.8720 O   0  0  0  0  0  0  0  0  0  0  0  0
   41.2910   23.5140   35.0180 H   0  0  0  0  0  0  0  0  0  0  0  0
   39.8270   22.2600   38.2970 O   0  0  0  0  0  0  0  0  0  0  0  0
   40.5340   22.6480   38.9040 H   0  0  0  0  0  0  0  0  0  0  0  0
  1  5  1  0  0  0  0
  2  1  2  0  0  0  0
  2  3  1  0  0  0  0
  3  4  2  0  0  0  0
  4 19  1  0  0  0  0
  5  4  1  0  0  0  0
  6  2  1  0  0  0  0
  7  3  1  0  0  0  0
  8  1  1  0  0  0  0
  8 10  1  0  0  0  0
  9  8  2  0  0  0  0
 10 11  1  0  0  0  0
 11 16  1  0  0  0  0
 11 12  2  0  0  0  0
 12 17  1  0  0  0  0
 13 12  1  0  0  0  0
 14 13  2  0  0  0  0
 15 10  2  0  0  0  0
 15 14  1  0  0  0  0
 18 14  1  0  0  0  0
 19 21  1  0  0  0  0
 20 19  2  0  0  0  0
 21 24  1  1  0  0  0
 21 23  1  0  0  0  0
 22 21  1  0  0  0  0
 22 26  1  0  0  0  0
 22 23  1  0  0  0  0
 23 27  1  6  0  0  0
 23 29  1  0  0  0  0
 25 22  1  0  0  0  0
 28 33  1  1  0  0  0
 28 32  1  0  0  0  0
 29 30  1  1  0  0  0
 29 28  1  0  0  0  0
 30 31  1  0  0  0  0
 31 32  1  0  0  0  0
 32 35  1  1  0  0  0
 34 33  1  0  0  0  0
 35 36  1  0  0  0  0
M  END
>  <minimizedAffinity>
-5.50205374

$$$$
