
 OpenBabel03272507323D

 36 39  0  0  1  0  0  0  0  0999 V2000
   35.8970   29.2640   49.8080 C   0  0  0  0  0  0  0  0  0  0  0  0
   34.9810   29.7540   50.7130 C   0  0  0  0  0  0  0  0  0  0  0  0
   33.7180   29.2810   50.3290 C   0  0  0  0  0  0  0  0  0  0  0  0
   33.9500   28.5230   49.2030 C   0  0  0  0  0  0  0  0  0  0  0  0
   35.2370   28.5430   48.9340 O   0  0  0  0  0  0  0  0  0  0  0  0
   35.0580   30.3880   51.5970 H   0  0  0  0  0  0  0  0  0  0  0  0
   32.7340   29.4380   50.7770 H   0  0  0  0  0  0  0  0  0  0  0  0
   37.3170   29.5610   49.9060 C   0  0  0  0  0  0  0  0  0  0  0  0
   38.0120   28.9350   50.7180 O   0  0  0  0  0  0  0  0  0  0  0  0
   37.8310   30.5820   49.0360 C   0  0  0  0  0  0  0  0  0  0  0  0
   38.1970   31.7820   49.6210 C   0  0  0  0  0  0  0  0  0  0  0  0
   38.7000   32.7990   48.8040 C   0  0  0  0  0  0  0  0  0  0  0  0
   38.8050   32.5500   47.4580 N   0  0  0  0  0  0  0  0  0  0  0  0
   38.4440   31.3800   46.9270 C   0  0  0  0  0  0  0  0  0  0  0  0
   37.9580   30.3980   47.7040 N   0  0  0  0  0  0  0  0  0  0  0  0
   38.1350   32.0290   50.6710 H   0  0  0  0  0  0  0  0  0  0  0  0
   38.9930   33.7400   49.2210 H   0  0  0  0  0  0  0  0  0  0  0  0
   38.5650   31.2810   45.8510 H   0  0  0  0  0  0  0  0  0  0  0  0
   32.9350   27.8100   48.4280 C   0  0  0  0  0  0  0  0  0  0  0  0
   31.7560   27.7270   48.9090 O   0  0  0  0  0  0  0  0  0  0  0  0
   33.2800   27.1870   47.1080 C   0  0  1  0  0  0  0  0  0  0  0  0
   33.7450   25.6910   47.3280 C   0  0  0  0  0  0  0  0  0  0  0  0
   32.5130   26.0540   46.5860 C   0  0  2  0  0  0  0  0  0  0  0  0
   34.1210   27.7160   46.5840 H   0  0  0  0  0  0  0  0  0  0  0  0
   33.5890   25.2620   48.3150 H   0  0  0  0  0  0  0  0  0  0  0  0
   34.6050   25.3500   46.7590 H   0  0  0  0  0  0  0  0  0  0  0  0
   31.5310   25.8740   47.0670 H   0  0  0  0  0  0  0  0  0  0  0  0
   31.0180   26.2090   44.6090 C   0  0  2  0  0  3  0  0  0  0  0  0
   32.4470   25.9170   45.0870 C   0  0  2  0  0  3  0  0  0  0  0  0
   32.5910   24.6190   44.6490 O   0  0  0  0  0  0  0  0  0  0  0  0
   32.1420   24.6030   43.3490 C   0  0  0  0  0  2  0  0  0  0  0  0
   31.2050   25.7760   43.1490 C   0  0  1  0  0  3  0  0  0  0  0  0
   30.6690   27.5290   44.7260 O   0  0  0  0  0  0  0  0  0  0  0  0
   30.2600   27.6400   45.6310 H   0  0  0  0  0  0  0  0  0  0  0  0
   30.0240   25.4550   42.5280 O   0  0  0  0  0  0  0  0  0  0  0  0
   29.7200   26.1770   41.8910 H   0  0  0  0  0  0  0  0  0  0  0  0
  1  8  1  0  0  0  0
  1  2  2  0  0  0  0
  2  6  1  0  0  0  0
  3  2  1  0  0  0  0
  3  7  1  0  0  0  0
  4  3  2  0  0  0  0
  5  4  1  0  0  0  0
  5  1  1  0  0  0  0
  8  9  2  0  0  0  0
 10 11  1  0  0  0  0
 10  8  1  0  0  0  0
 11 16  1  0  0  0  0
 12 17  1  0  0  0  0
 12 11  2  0  0  0  0
 13 12  1  0  0  0  0
 14 13  2  0  0  0  0
 14 15  1  0  0  0  0
 15 10  2  0  0  0  0
 18 14  1  0  0  0  0
 19 20  2  0  0  0  0
 19  4  1  0  0  0  0
 21 24  1  6  0  0  0
 21 22  1  0  0  0  0
 21 19  1  0  0  0  0
 22 25  1  0  0  0  0
 23 27  1  1  0  0  0
 23 21  1  0  0  0  0
 23 22  1  0  0  0  0
 26 22  1  0  0  0  0
 28 33  1  6  0  0  0
 28 29  1  0  0  0  0
 29 30  1  1  0  0  0
 29 23  1  0  0  0  0
 31 30  1  0  0  0  0
 32 35  1  1  0  0  0
 32 31  1  0  0  0  0
 32 28  1  0  0  0  0
 33 34  1  0  0  0  0
 36 35  1  0  0  0  0
M  END
>  <minimizedAffinity>
-4.89106655

>  <minimizedRMSD>
1.33848286

$$$$
