
 OpenBabel03272507313D

 29 31  0  0  0  0  0  0  0  0999 V2000
   35.9610   29.5540   49.8410 C   0  0  0  0  0  0  0  0  0  0  0  0
   34.8100   29.5500   50.5930 C   0  0  0  0  0  0  0  0  0  0  0  0
   33.8660   28.8020   49.8720 C   0  0  0  0  0  0  0  0  0  0  0  0
   34.5260   28.4030   48.7170 C   0  0  0  0  0  0  0  0  0  0  0  0
   35.7320   28.8630   48.7510 O   0  0  0  0  0  0  0  0  0  0  0  0
   34.5740   29.9950   51.5510 H   0  0  0  0  0  0  0  0  0  0  0  0
   32.8460   28.5640   50.1160 H   0  0  0  0  0  0  0  0  0  0  0  0
   33.8950   27.5900   47.6720 C   0  0  0  0  0  0  0  0  0  0  0  0
   33.8900   26.3330   47.7280 O   0  0  0  0  0  0  0  0  0  0  0  0
   33.2480   28.1300   46.5350 N   0  0  0  0  0  0  0  0  0  0  0  0
   33.3520   27.2340   45.4260 C   0  0  0  0  0  3  0  0  0  0  0  0
   34.4180   27.0520   45.1030 H   0  0  0  0  0  0  0  0  0  0  0  0
   32.7040   27.9380   44.2280 C   0  0  0  0  0  3  0  0  0  0  0  0
   32.6620   27.2000   43.4060 H   0  0  0  0  0  0  0  0  0  0  0  0
   31.3580   28.3070   44.5430 N   0  0  0  0  0  0  0  0  0  0  0  0
   30.7870   27.4310   44.5680 H   0  0  0  0  0  0  0  0  0  0  0  0
   31.1780   29.0260   45.7650 C   0  0  0  0  0  2  0  0  0  0  0  0
   32.5460   29.3850   46.3620 C   0  0  0  0  0  2  0  0  0  0  0  0
   37.1630   30.2380   50.2790 C   0  0  0  0  0  0  0  0  0  0  0  0
   37.5560   30.0720   51.4550 O   0  0  0  0  0  0  0  0  0  0  0  0
   37.8350   31.0780   49.3110 C   0  0  0  0  0  0  0  0  0  0  0  0
   38.1050   32.3870   49.7080 C   0  0  0  0  0  0  0  0  0  0  0  0
   38.7560   33.2270   48.7930 C   0  0  0  0  0  0  0  0  0  0  0  0
   39.0860   32.7170   47.5650 N   0  0  0  0  0  0  0  0  0  0  0  0
   38.8030   31.4400   47.2210 C   0  0  0  0  0  0  0  0  0  0  0  0
   38.1870   30.6420   48.0880 N   0  0  0  0  0  0  0  0  0  0  0  0
   37.8670   32.8320   50.6590 H   0  0  0  0  0  0  0  0  0  0  0  0
   38.9810   34.2480   49.0690 H   0  0  0  0  0  0  0  0  0  0  0  0
   39.1190   31.1680   46.2220 H   0  0  0  0  0  0  0  0  0  0  0  0
  1 19  1  0  0  0  0
  1  2  2  0  0  0  0
  2  6  1  0  0  0  0
  3  7  1  0  0  0  0
  3  2  1  0  0  0  0
  4  5  1  0  0  0  0
  4  3  2  0  0  0  0
  5  1  1  0  0  0  0
  8  9  2  0  0  0  0
  8  4  1  0  0  0  0
 10  8  1  0  0  0  0
 11 10  1  0  0  0  0
 12 11  1  0  0  0  0
 13 15  1  0  0  0  0
 13 11  1  0  0  0  0
 14 13  1  0  0  0  0
 15 16  1  0  0  0  0
 15 17  1  0  0  0  0
 17 18  1  0  0  0  0
 18 10  1  0  0  0  0
 19 20  2  0  0  0  0
 21 22  1  0  0  0  0
 21 19  1  0  0  0  0
 22 27  1  0  0  0  0
 23 28  1  0  0  0  0
 23 22  2  0  0  0  0
 24 23  1  0  0  0  0
 25 24  2  0  0  0  0
 25 26  1  0  0  0  0
 26 21  2  0  0  0  0
 29 25  1  0  0  0  0
M  END
>  <minimizedAffinity>
-5.31571341

>  <minimizedRMSD>
2.3189466

$$$$
