
 OpenBabel03272508583D

 40 43  0  0  1  0  0  0  0  0999 V2000
   38.3390   31.9040   44.4970 C   0  0  0  0  0  0  0  0  0  0  0  0
   37.2370   32.4550   44.4050 O   0  0  0  0  0  0  0  0  0  0  0  0
   38.9250   31.6210   45.7990 N   0  0  0  0  0  0  0  0  0  0  0  0
   39.9090   31.3520   45.9460 H   0  0  0  0  0  0  0  0  0  0  0  0
   39.1260   31.5030   43.3110 C   0  0  0  0  0  0  0  0  0  0  0  0
   40.1190   30.5720   43.4440 C   0  0  0  0  0  0  0  0  0  0  0  0
   40.8350   30.2220   42.3180 C   0  0  0  0  0  0  0  0  0  0  0  0
   40.5040   30.8380   41.1240 C   0  0  0  0  0  0  0  0  0  0  0  0
   39.4970   31.7850   40.9770 C   0  0  0  0  0  0  0  0  0  0  0  0
   38.8420   32.0770   42.1110 N   0  0  0  0  0  0  0  0  0  0  0  0
   40.3630   30.1030   44.3820 H   0  0  0  0  0  0  0  0  0  0  0  0
   41.6240   29.4920   42.3880 H   0  0  0  0  0  0  0  0  0  0  0  0
   41.1030   30.5200   40.2830 H   0  0  0  0  0  0  0  0  0  0  0  0
   39.2020   32.3870   39.6910 C   0  0  0  0  0  0  0  0  0  0  0  0
   38.8300   33.5820   39.6570 O   0  0  0  0  0  0  0  0  0  0  0  0
   39.2880   31.7520   38.4270 N   0  0  0  0  0  0  0  0  0  0  0  0
   40.1950   32.3100   37.4450 C   0  0  0  0  0  3  0  0  0  0  0  0
   40.8500   33.0560   37.8950 H   0  0  0  0  0  0  0  0  0  0  0  0
   39.3430   32.9550   36.3740 C   0  0  0  0  0  3  0  0  0  0  0  0
   39.9200   32.9780   35.4180 H   0  0  0  0  0  0  0  0  0  0  0  0
   38.1280   32.1920   36.1710 N   0  0  0  0  0  0  0  0  0  0  0  0
   37.8080   32.2500   35.1840 H   0  0  0  0  0  0  0  0  0  0  0  0
   38.4020   30.7760   36.4540 C   0  0  0  0  0  2  0  0  0  0  0  0
   38.5690   30.5800   37.9670 C   0  0  0  0  0  2  0  0  0  0  0  0
   38.4370   31.0940   48.1810 C   0  0  2  0  0  0  0  0  0  0  0  0
   38.6770   32.5590   48.1020 C   0  0  0  0  0  0  0  0  0  0  0  0
   38.0680   31.7240   46.9560 C   0  0  1  0  0  0  0  0  0  0  0  0
   39.3530   30.4750   48.2610 H   0  0  0  0  0  0  0  0  0  0  0  0
   38.0210   33.2190   48.6850 H   0  0  0  0  0  0  0  0  0  0  0  0
   39.7060   32.9010   47.9870 H   0  0  0  0  0  0  0  0  0  0  0  0
   37.0030   31.9870   46.7790 H   0  0  0  0  0  0  0  0  0  0  0  0
   35.0690   30.2240   49.5040 C   0  0  0  0  0  0  0  0  0  0  0  0
   35.4100   29.5380   50.7180 C   0  0  0  0  0  0  0  0  0  0  0  0
   36.8150   29.3970   51.0620 C   0  0  0  0  0  0  0  0  0  0  0  0
   37.7620   29.9210   50.2210 N   0  0  0  0  0  0  0  0  0  0  0  0
   37.3530   30.5600   49.0850 C   0  0  0  0  0  0  0  0  0  0  0  0
   36.0280   30.7280   48.6990 N   0  0  0  0  0  0  0  0  0  0  0  0
   34.0240   30.2960   49.3050 H   0  0  0  0  0  0  0  0  0  0  0  0
   34.6660   29.1310   51.3700 H   0  0  0  0  0  0  0  0  0  0  0  0
   37.0540   28.8890   51.9620 H   0  0  0  0  0  0  0  0  0  0  0  0
  1  3  1  0  0  0  0
  2  1  2  0  0  0  0
  3  4  1  0  0  0  0
  3 27  1  0  0  0  0
  5  6  1  0  0  0  0
  5  1  1  0  0  0  0
  6 11  1  0  0  0  0
  7 12  1  0  0  0  0
  7  6  2  0  0  0  0
  8  7  1  0  0  0  0
  9  8  2  0  0  0  0
  9 10  1  0  0  0  0
 10  5  2  0  0  0  0
 13  8  1  0  0  0  0
 14  9  1  0  0  0  0
 15 14  2  0  0  0  0
 16 14  1  0  0  0  0
 17 18  1  0  0  0  0
 17 16  1  0  0  0  0
 19 17  1  0  0  0  0
 20 19  1  0  0  0  0
 21 19  1  0  0  0  0
 21 23  1  0  0  0  0
 22 21  1  0  0  0  0
 23 24  1  0  0  0  0
 24 16  1  0  0  0  0
 25 28  1  6  0  0  0
 25 36  1  0  0  0  0
 26 25  1  0  0  0  0
 26 29  1  0  0  0  0
 27 31  1  6  0  0  0
 27 26  1  0  0  0  0
 27 25  1  0  0  0  0
 30 26  1  0  0  0  0
 32 33  1  0  0  0  0
 33 34  2  0  0  0  0
 33 39  1  0  0  0  0
 34 40  1  0  0  0  0
 35 34  1  0  0  0  0
 36 35  2  0  0  0  0
 37 36  1  0  0  0  0
 37 32  2  0  0  0  0
 38 32  1  0  0  0  0
M  END
>  <minimizedAffinity>
-5.13880634

>  <minimizedRMSD>
0.036496684

$$$$
