
     RDKit          3D

 38 40  0  0  0  0  0  0  0  0999 V2000
   38.1113   31.1840   47.8899 C   0  0  0  0  0  0  0  0  0  0  0  0
   38.4012   30.3756   46.7916 C   0  0  0  0  0  0  0  0  0  0  0  0
   39.1882   30.8132   45.7380 C   0  0  0  0  0  0  0  0  0  0  0  0
   39.7169   32.1343   45.7791 C   0  0  0  0  0  0  0  0  0  0  0  0
   39.4089   32.8955   46.8744 C   0  0  0  0  0  0  0  0  0  0  0  0
   38.6418   32.4688   47.9096 C   0  0  0  0  0  0  0  0  0  0  0  0
   37.8508   29.9746   49.9705 C   0  0  0  0  0  0  0  0  0  0  0  0
   37.2278   30.6024   48.8783 C   0  0  0  0  0  0  0  0  0  0  0  0
   35.8248   30.5985   48.8646 C   0  0  0  0  0  0  0  0  0  0  0  0
   35.1437   30.0138   49.8639 N   0  0  0  0  0  0  0  0  0  0  0  0
   35.7564   29.4207   50.8964 C   0  0  0  0  0  0  0  0  0  0  0  0
   37.1019   29.4048   50.9430 N   0  0  0  0  0  0  0  0  0  0  0  0
   39.3569   34.2752   49.2298 C   0  0  0  0  0  0  0  0  0  0  0  0
   40.3769   34.2884   48.4567 O   0  0  0  0  0  0  0  0  0  0  0  0
   38.3612   33.2541   49.0302 N   0  0  0  0  0  0  0  0  0  0  0  0
   38.0019   29.3599   46.7449 H   0  0  0  0  0  0  0  0  0  0  0  0
   39.3557   30.0916   44.9201 H   0  0  0  0  0  0  0  0  0  0  0  0
   40.2948   32.3055   44.8935 H   0  0  0  0  0  0  0  0  0  0  0  0
   39.8686   33.8354   46.6528 H   0  0  0  0  0  0  0  0  0  0  0  0
   38.9177   29.8842   50.1419 H   0  0  0  0  0  0  0  0  0  0  0  0
   35.3990   31.0914   48.0075 H   0  0  0  0  0  0  0  0  0  0  0  0
   35.1250   28.9772   51.6535 H   0  0  0  0  0  0  0  0  0  0  0  0
   37.5512   33.1093   49.6155 H   0  0  0  0  0  0  0  0  0  0  0  0
   39.1461   35.2321   50.2978 N   0  0  0  0  0  0  0  0  0  0  0  0
   39.8084   36.5089   50.5349 C   0  0  1  0  0  0  0  0  0  0  0  0
   40.6361   36.6787   49.7862 H   0  0  0  0  0  0  0  0  0  0  0  0
   40.2629   36.7080   51.9390 C   0  0  1  0  0  0  0  0  0  0  0  0
   41.3850   36.6817   51.9165 H   0  0  0  0  0  0  0  0  0  0  0  0
   39.8280   35.6776   52.8341 N   0  0  0  0  0  0  0  0  0  0  0  0
   40.4444   34.8494   52.8793 H   0  0  0  0  0  0  0  0  0  0  0  0
   38.4344   35.3300   52.6484 C   0  0  0  0  0  0  0  0  0  0  0  0
   38.1303   34.8572   51.2626 C   0  0  0  0  0  0  0  0  0  0  0  0
   39.0430   37.2953   50.2683 H   0  0  0  0  0  0  0  0  0  0  0  0
   39.9708   37.6980   52.3309 H   0  0  0  0  0  0  0  0  0  0  0  0
   37.8208   36.2448   52.8974 H   0  0  0  0  0  0  0  0  0  0  0  0
   38.1893   34.5602   53.4107 H   0  0  0  0  0  0  0  0  0  0  0  0
   37.1763   35.3332   50.9231 H   0  0  0  0  0  0  0  0  0  0  0  0
   37.9205   33.7667   51.2690 H   0  0  0  0  0  0  0  0  0  0  0  0
  1  6  1  0
  1  8  1  0
  2  1  2  0
  3  4  2  0
  3  2  1  0
  4  5  1  0
  5  6  2  0
  6 15  1  0
  7 12  2  0
  8  9  2  0
  8  7  1  0
  9 10  1  0
 10 11  2  0
 11 12  1  0
 14 13  2  0
 15 13  1  0
  2 16  1  0
  3 17  1  0
  4 18  1  0
  5 19  1  0
  7 20  1  0
  9 21  1  0
 11 22  1  0
 15 23  1  0
 24 25  1  0
 25 26  1  6
 25 27  1  0
 27 28  1  6
 27 29  1  0
 29 30  1  0
 29 31  1  0
 31 32  1  0
 32 24  1  0
 25 33  1  0
 27 34  1  0
 31 35  1  0
 31 36  1  0
 32 37  1  0
 32 38  1  0
 13 24  1  0
M  ISO  8  16  14  17  14  18  14  19  14  20  14  21  14  22  14  26   8
M  ISO  2  28   8  30   5
M  END
>  <DihAtoms>  (1) 
13,12,23,24

>  <DihDeg>  (1) 
-179.99880589662916

$$$$
