REMARK  Name = 
REMARK  3 active torsions:
REMARK  status: ('A' for Active; 'I' for Inactive)
REMARK    1  A    between atoms: C_1  and  C_3
REMARK    2  A    between atoms: C_1  and  C_9
REMARK    3  A    between atoms: C_12  and  C_14
REMARK                            x       y       z     vdW  Elec       q    Type
REMARK                         _______ _______ _______ _____ _____    ______ ____
ROOT
ATOM      1  C   UNL     1      35.919  29.574  49.901  0.00  0.00    +0.000 A 
ATOM      2  C   UNL     1      34.677  29.902  50.391  0.00  0.00    +0.000 A 
ATOM      3  C   UNL     1      33.764  29.034  49.772  0.00  0.00    +0.000 A 
ATOM      4  C   UNL     1      34.534  28.232  48.939  0.00  0.00    +0.000 A 
ATOM      5  O   UNL     1      35.770  28.586  49.053  0.00  0.00    +0.000 OA
ATOM      6  H   UNL     1      34.358  30.651  51.104  0.00  0.00    +0.000 HD
ATOM      7  H   UNL     1      32.696  28.965  49.883  0.00  0.00    +0.000 HD
ENDROOT
BRANCH   4   8
ATOM      8  C   UNL     1      33.968  27.174  48.096  0.00  0.00    +0.000 C 
ATOM      9  O   UNL     1      32.738  26.907  48.111  0.00  0.00    +0.000 OA
ATOM     10  N   UNL     1      34.732  26.377  47.210  0.00  0.00    +0.000 N 
ATOM     11  C   UNL     1      34.915  25.065  47.747  0.00  0.00    +0.000 C 
ATOM     12  H   UNL     1      35.489  25.061  48.718  0.00  0.00    +0.000 HD
ATOM     13  C   UNL     1      35.819  24.310  46.765  0.00  0.00    +0.000 C 
ATOM     14  H   UNL     1      35.855  23.259  47.107  0.00  0.00    +0.000 HD
ATOM     15  N   UNL     1      35.241  24.318  45.457  0.00  0.00    +0.000 NA
ATOM     16  H   UNL     1      34.415  23.677  45.471  0.00  0.00    +0.000 HD
ATOM     17  C   UNL     1      34.840  25.598  44.960  0.00  0.00    +0.000 C 
ATOM     18  C   UNL     1      35.311  26.697  45.922  0.00  0.00    +0.000 C 
ENDBRANCH   4   8
BRANCH   1  19
ATOM     19  C   UNL     1      37.120  30.271  50.323  0.00  0.00    +0.000 C 
ATOM     20  O   UNL     1      37.510  30.138  51.505  0.00  0.00    +0.000 OA
BRANCH  19  21
ATOM     21  C   UNL     1      37.794  31.084  49.334  0.00  0.00    +0.000 A 
ATOM     22  C   UNL     1      38.109  32.388  49.714  0.00  0.00    +0.000 A 
ATOM     23  C   UNL     1      38.763  33.202  48.778  0.00  0.00    +0.000 A 
ATOM     24  N   UNL     1      39.053  32.673  47.548  0.00  0.00    +0.000 NA
ATOM     25  C   UNL     1      38.728  31.401  47.221  0.00  0.00    +0.000 A 
ATOM     26  N   UNL     1      38.108  30.628  48.108  0.00  0.00    +0.000 NA
ATOM     27  H   UNL     1      37.903  32.847  50.665  0.00  0.00    +0.000 HD
ATOM     28  H   UNL     1      39.022  34.218  49.040  0.00  0.00    +0.000 HD
ATOM     29  H   UNL     1      39.015  31.112  46.218  0.00  0.00    +0.000 HD
ENDBRANCH  19  21
ENDBRANCH   1  19
TORSDOF 3
