
 OpenBabel03272507313D

 29 31  0  0  0  0  0  0  0  0999 V2000
   35.7810   29.2790   49.7740 C   0  0  0  0  0  0  0  0  0  0  0  0
   34.8610   30.0740   50.4170 C   0  0  0  0  0  0  0  0  0  0  0  0
   33.5950   29.5780   50.0670 C   0  0  0  0  0  0  0  0  0  0  0  0
   33.8470   28.5030   49.2240 C   0  0  0  0  0  0  0  0  0  0  0  0
   35.1240   28.3740   49.0900 O   0  0  0  0  0  0  0  0  0  0  0  0
   34.9780   30.9250   51.0740 H   0  0  0  0  0  0  0  0  0  0  0  0
   32.6170   29.9200   50.3590 H   0  0  0  0  0  0  0  0  0  0  0  0
   32.7860   27.6900   48.6220 C   0  0  0  0  0  0  0  0  0  0  0  0
   31.6060   27.7170   49.0600 O   0  0  0  0  0  0  0  0  0  0  0  0
   32.9840   26.8220   47.5210 N   0  0  0  0  0  0  0  0  0  0  0  0
   33.7640   27.4650   46.5110 C   0  0  0  0  0  3  0  0  0  0  0  0
   33.2630   28.3800   46.0790 H   0  0  0  0  0  0  0  0  0  0  0  0
   33.8510   26.4870   45.3330 C   0  0  0  0  0  3  0  0  0  0  0  0
   34.5610   26.9230   44.6050 H   0  0  0  0  0  0  0  0  0  0  0  0
   34.3960   25.2380   45.7690 N   0  0  0  0  0  0  0  0  0  0  0  0
   35.4140   25.3840   45.9570 H   0  0  0  0  0  0  0  0  0  0  0  0
   33.7780   24.6560   46.9200 C   0  0  0  0  0  2  0  0  0  0  0  0
   32.5310   25.4640   47.3020 C   0  0  0  0  0  2  0  0  0  0  0  0
   37.2090   29.4980   49.9050 C   0  0  0  0  0  0  0  0  0  0  0  0
   37.8600   28.7760   50.6940 O   0  0  0  0  0  0  0  0  0  0  0  0
   37.7930   30.5510   49.1030 C   0  0  0  0  0  0  0  0  0  0  0  0
   38.1500   31.7180   49.7770 C   0  0  0  0  0  0  0  0  0  0  0  0
   38.7180   32.7580   49.0270 C   0  0  0  0  0  0  0  0  0  0  0  0
   38.8890   32.5700   47.6810 N   0  0  0  0  0  0  0  0  0  0  0  0
   38.5270   31.4200   47.0670 C   0  0  0  0  0  0  0  0  0  0  0  0
   37.9880   30.4330   47.7770 N   0  0  0  0  0  0  0  0  0  0  0  0
   38.0360   31.9120   50.8290 H   0  0  0  0  0  0  0  0  0  0  0  0
   39.0060   33.6770   49.5180 H   0  0  0  0  0  0  0  0  0  0  0  0
   38.7170   31.4050   46.0020 H   0  0  0  0  0  0  0  0  0  0  0  0
  1 19  1  0  0  0  0
  1  2  2  0  0  0  0
  2  6  1  0  0  0  0
  3  7  1  0  0  0  0
  3  2  1  0  0  0  0
  4  3  2  0  0  0  0
  5  4  1  0  0  0  0
  5  1  1  0  0  0  0
  8  9  2  0  0  0  0
  8  4  1  0  0  0  0
 10  8  1  0  0  0  0
 11 10  1  0  0  0  0
 12 11  1  0  0  0  0
 13 15  1  0  0  0  0
 13 11  1  0  0  0  0
 14 13  1  0  0  0  0
 15 16  1  0  0  0  0
 15 17  1  0  0  0  0
 17 18  1  0  0  0  0
 18 10  1  0  0  0  0
 19 20  2  0  0  0  0
 21 22  1  0  0  0  0
 21 19  1  0  0  0  0
 22 27  1  0  0  0  0
 23 28  1  0  0  0  0
 23 22  2  0  0  0  0
 24 23  1  0  0  0  0
 25 24  2  0  0  0  0
 25 26  1  0  0  0  0
 26 21  2  0  0  0  0
 29 25  1  0  0  0  0
M  END
>  <minimizedAffinity>
-5.15481997

>  <minimizedRMSD>
1.41983831

$$$$
