
 OpenBabel03272508583D

 40 43  0  0  1  0  0  0  0  0999 V2000
   38.3310   31.8970   44.5030 C   0  0  0  0  0  0  0  0  0  0  0  0
   37.2220   32.4330   44.4080 O   0  0  0  0  0  0  0  0  0  0  0  0
   38.9220   31.6310   45.8070 N   0  0  0  0  0  0  0  0  0  0  0  0
   39.9100   31.3760   45.9550 H   0  0  0  0  0  0  0  0  0  0  0  0
   39.1220   31.4970   43.3190 C   0  0  0  0  0  0  0  0  0  0  0  0
   40.1390   30.5940   43.4610 C   0  0  0  0  0  0  0  0  0  0  0  0
   40.8580   30.2450   42.3370 C   0  0  0  0  0  0  0  0  0  0  0  0
   40.5050   30.8320   41.1350 C   0  0  0  0  0  0  0  0  0  0  0  0
   39.4730   31.7510   40.9790 C   0  0  0  0  0  0  0  0  0  0  0  0
   38.8170   32.0440   42.1120 N   0  0  0  0  0  0  0  0  0  0  0  0
   40.3990   30.1460   44.4050 H   0  0  0  0  0  0  0  0  0  0  0  0
   41.6650   29.5350   42.4150 H   0  0  0  0  0  0  0  0  0  0  0  0
   41.1070   30.5160   40.2960 H   0  0  0  0  0  0  0  0  0  0  0  0
   39.1560   32.3240   39.6850 C   0  0  0  0  0  0  0  0  0  0  0  0
   38.9590   33.5580   39.6060 O   0  0  0  0  0  0  0  0  0  0  0  0
   39.0390   31.6200   38.4600 N   0  0  0  0  0  0  0  0  0  0  0  0
   39.6730   32.1850   37.2870 C   0  0  0  0  0  3  0  0  0  0  0  0
   40.3380   33.0060   37.5570 H   0  0  0  0  0  0  0  0  0  0  0  0
   38.5660   32.6940   36.3890 C   0  0  0  0  0  3  0  0  0  0  0  0
   38.9330   32.7020   35.3340 H   0  0  0  0  0  0  0  0  0  0  0  0
   37.4090   31.8280   36.4790 N   0  0  0  0  0  0  0  0  0  0  0  0
   36.8900   31.7990   35.5790 H   0  0  0  0  0  0  0  0  0  0  0  0
   37.8590   30.4570   36.7620 C   0  0  0  0  0  2  0  0  0  0  0  0
   38.3480   30.3690   38.2140 C   0  0  0  0  0  2  0  0  0  0  0  0
   38.4350   31.1020   48.1870 C   0  0  2  0  0  0  0  0  0  0  0  0
   38.6730   32.5670   48.1110 C   0  0  0  0  0  0  0  0  0  0  0  0
   38.0650   31.7330   46.9630 C   0  0  1  0  0  0  0  0  0  0  0  0
   39.3520   30.4840   48.2670 H   0  0  0  0  0  0  0  0  0  0  0  0
   38.0170   33.2250   48.6940 H   0  0  0  0  0  0  0  0  0  0  0  0
   39.7020   32.9100   47.9960 H   0  0  0  0  0  0  0  0  0  0  0  0
   37.0000   31.9950   46.7870 H   0  0  0  0  0  0  0  0  0  0  0  0
   35.0690   30.2250   49.5090 C   0  0  0  0  0  0  0  0  0  0  0  0
   35.4100   29.5400   50.7240 C   0  0  0  0  0  0  0  0  0  0  0  0
   36.8150   29.4030   51.0690 C   0  0  0  0  0  0  0  0  0  0  0  0
   37.7620   29.9280   50.2280 N   0  0  0  0  0  0  0  0  0  0  0  0
   37.3520   30.5660   49.0920 C   0  0  0  0  0  0  0  0  0  0  0  0
   36.0260   30.7300   48.7050 N   0  0  0  0  0  0  0  0  0  0  0  0
   34.0230   30.2940   49.3090 H   0  0  0  0  0  0  0  0  0  0  0  0
   34.6670   29.1310   51.3760 H   0  0  0  0  0  0  0  0  0  0  0  0
   37.0550   28.8960   51.9690 H   0  0  0  0  0  0  0  0  0  0  0  0
  1  3  1  0  0  0  0
  2  1  2  0  0  0  0
  3  4  1  0  0  0  0
  3 27  1  0  0  0  0
  5  6  1  0  0  0  0
  5  1  1  0  0  0  0
  6 11  1  0  0  0  0
  7 12  1  0  0  0  0
  7  6  2  0  0  0  0
  8  7  1  0  0  0  0
  9  8  2  0  0  0  0
  9 10  1  0  0  0  0
 10  5  2  0  0  0  0
 13  8  1  0  0  0  0
 14  9  1  0  0  0  0
 15 14  2  0  0  0  0
 16 14  1  0  0  0  0
 17 18  1  0  0  0  0
 17 16  1  0  0  0  0
 19 21  1  0  0  0  0
 19 17  1  0  0  0  0
 20 19  1  0  0  0  0
 21 23  1  0  0  0  0
 22 21  1  0  0  0  0
 23 24  1  0  0  0  0
 24 16  1  0  0  0  0
 25 28  1  6  0  0  0
 25 36  1  0  0  0  0
 26 25  1  0  0  0  0
 26 29  1  0  0  0  0
 27 31  1  6  0  0  0
 27 26  1  0  0  0  0
 27 25  1  0  0  0  0
 30 26  1  0  0  0  0
 32 33  1  0  0  0  0
 33 34  2  0  0  0  0
 33 39  1  0  0  0  0
 34 40  1  0  0  0  0
 35 34  1  0  0  0  0
 36 35  2  0  0  0  0
 37 36  1  0  0  0  0
 37 32  2  0  0  0  0
 38 32  1  0  0  0  0
M  END
>  <minimizedAffinity>
-5.11348772

>  <minimizedRMSD>
0.206540272

$$$$
