
 OpenBabel03272508583D

 40 43  0  0  1  0  0  0  0  0999 V2000
   38.3630   31.7890   44.5380 C   0  0  0  0  0  0  0  0  0  0  0  0
   37.3490   32.4840   44.4180 O   0  0  0  0  0  0  0  0  0  0  0  0
   38.8310   31.3730   45.8530 N   0  0  0  0  0  0  0  0  0  0  0  0
   39.7620   30.9700   46.0370 H   0  0  0  0  0  0  0  0  0  0  0  0
   39.1590   31.3400   43.3760 C   0  0  0  0  0  0  0  0  0  0  0  0
   40.2790   30.5820   43.5770 C   0  0  0  0  0  0  0  0  0  0  0  0
   41.0000   30.1830   42.4700 C   0  0  0  0  0  0  0  0  0  0  0  0
   40.5420   30.5750   41.2250 C   0  0  0  0  0  0  0  0  0  0  0  0
   39.4040   31.3450   41.0090 C   0  0  0  0  0  0  0  0  0  0  0  0
   38.7530   31.6980   42.1270 N   0  0  0  0  0  0  0  0  0  0  0  0
   40.6200   30.2860   44.5540 H   0  0  0  0  0  0  0  0  0  0  0  0
   41.8870   29.5850   42.5950 H   0  0  0  0  0  0  0  0  0  0  0  0
   41.1520   30.2290   40.4030 H   0  0  0  0  0  0  0  0  0  0  0  0
   38.9820   31.7160   39.6720 C   0  0  0  0  0  0  0  0  0  0  0  0
   39.3990   32.7920   39.1870 O   0  0  0  0  0  0  0  0  0  0  0  0
   38.1200   30.9730   38.8260 N   0  0  0  0  0  0  0  0  0  0  0  0
   37.5500   31.6440   37.6760 C   0  0  0  0  0  3  0  0  0  0  0  0
   38.0310   32.6070   37.5060 H   0  0  0  0  0  0  0  0  0  0  0  0
   36.0790   31.8470   37.9660 C   0  0  0  0  0  3  0  0  0  0  0  0
   35.5270   31.9150   36.9990 H   0  0  0  0  0  0  0  0  0  0  0  0
   35.5590   30.7290   38.7270 N   0  0  0  0  0  0  0  0  0  0  0  0
   34.5610   30.5530   38.5010 H   0  0  0  0  0  0  0  0  0  0  0  0
   36.3050   29.5160   38.3650 C   0  0  0  0  0  2  0  0  0  0  0  0
   37.7170   29.5860   38.9620 C   0  0  0  0  0  2  0  0  0  0  0  0
   38.2060   30.9030   48.2140 C   0  0  2  0  0  0  0  0  0  0  0  0
   38.5300   32.3510   48.1330 C   0  0  0  0  0  0  0  0  0  0  0  0
   37.9290   31.5380   46.9680 C   0  0  1  0  0  0  0  0  0  0  0  0
   39.0810   30.2350   48.3420 H   0  0  0  0  0  0  0  0  0  0  0  0
   37.8870   33.0530   48.6790 H   0  0  0  0  0  0  0  0  0  0  0  0
   39.5810   32.6340   48.0630 H   0  0  0  0  0  0  0  0  0  0  0  0
   36.8890   31.8580   46.7390 H   0  0  0  0  0  0  0  0  0  0  0  0
   34.7450   30.1110   49.3300 C   0  0  0  0  0  0  0  0  0  0  0  0
   34.9870   29.5490   50.6280 C   0  0  0  0  0  0  0  0  0  0  0  0
   36.3590   29.4630   51.1000 C   0  0  0  0  0  0  0  0  0  0  0  0
   37.3700   29.9190   50.2940 N   0  0  0  0  0  0  0  0  0  0  0  0
   37.0530   30.4410   49.0720 C   0  0  0  0  0  0  0  0  0  0  0  0
   35.7640   30.5500   48.5630 N   0  0  0  0  0  0  0  0  0  0  0  0
   33.7200   30.1470   49.0380 H   0  0  0  0  0  0  0  0  0  0  0  0
   34.1940   29.1940   51.2530 H   0  0  0  0  0  0  0  0  0  0  0  0
   36.5250   29.0470   52.0610 H   0  0  0  0  0  0  0  0  0  0  0  0
  1  3  1  0  0  0  0
  2  1  2  0  0  0  0
  3  4  1  0  0  0  0
  3 27  1  0  0  0  0
  5  6  1  0  0  0  0
  5  1  1  0  0  0  0
  6 11  1  0  0  0  0
  7 12  1  0  0  0  0
  7  6  2  0  0  0  0
  8  7  1  0  0  0  0
  9  8  2  0  0  0  0
  9 10  1  0  0  0  0
 10  5  2  0  0  0  0
 13  8  1  0  0  0  0
 14  9  1  0  0  0  0
 15 14  2  0  0  0  0
 16 24  1  0  0  0  0
 16 14  1  0  0  0  0
 17 19  1  0  0  0  0
 17 16  1  0  0  0  0
 18 17  1  0  0  0  0
 19 21  1  0  0  0  0
 20 19  1  0  0  0  0
 22 21  1  0  0  0  0
 23 21  1  0  0  0  0
 23 24  1  0  0  0  0
 25 28  1  6  0  0  0
 25 36  1  0  0  0  0
 26 25  1  0  0  0  0
 26 29  1  0  0  0  0
 27 31  1  6  0  0  0
 27 26  1  0  0  0  0
 27 25  1  0  0  0  0
 30 26  1  0  0  0  0
 32 33  1  0  0  0  0
 33 34  2  0  0  0  0
 33 39  1  0  0  0  0
 34 40  1  0  0  0  0
 35 34  1  0  0  0  0
 36 35  2  0  0  0  0
 37 36  1  0  0  0  0
 37 32  2  0  0  0  0
 38 32  1  0  0  0  0
M  END
>  <minimizedAffinity>
-5.00384092

>  <minimizedRMSD>
1.15276849

$$$$
