
 OpenBabel03272508583D

 40 43  0  0  1  0  0  0  0  0999 V2000
   38.3560   31.8920   44.5030 C   0  0  0  0  0  0  0  0  0  0  0  0
   37.2620   32.4580   44.4070 O   0  0  0  0  0  0  0  0  0  0  0  0
   38.9300   31.5960   45.8080 N   0  0  0  0  0  0  0  0  0  0  0  0
   39.9100   31.3140   45.9590 H   0  0  0  0  0  0  0  0  0  0  0  0
   39.1440   31.4840   43.3210 C   0  0  0  0  0  0  0  0  0  0  0  0
   40.1340   30.5510   43.4580 C   0  0  0  0  0  0  0  0  0  0  0  0
   40.8520   30.1960   42.3350 C   0  0  0  0  0  0  0  0  0  0  0  0
   40.5240   30.8080   41.1380 C   0  0  0  0  0  0  0  0  0  0  0  0
   39.5190   31.7570   40.9860 C   0  0  0  0  0  0  0  0  0  0  0  0
   38.8630   32.0550   42.1180 N   0  0  0  0  0  0  0  0  0  0  0  0
   40.3750   30.0850   44.3980 H   0  0  0  0  0  0  0  0  0  0  0  0
   41.6380   29.4630   42.4100 H   0  0  0  0  0  0  0  0  0  0  0  0
   41.1240   30.4850   40.3000 H   0  0  0  0  0  0  0  0  0  0  0  0
   39.2290   32.3550   39.6970 C   0  0  0  0  0  0  0  0  0  0  0  0
   38.6840   33.4810   39.6660 O   0  0  0  0  0  0  0  0  0  0  0  0
   39.4990   31.7860   38.4270 N   0  0  0  0  0  0  0  0  0  0  0  0
   40.6130   32.3160   37.6680 C   0  0  0  0  0  3  0  0  0  0  0  0
   41.2280   32.9730   38.2810 H   0  0  0  0  0  0  0  0  0  0  0  0
   40.0270   33.0940   36.5090 C   0  0  0  0  0  3  0  0  0  0  0  0
   40.7730   33.1170   35.6780 H   0  0  0  0  0  0  0  0  0  0  0  0
   38.8170   32.4530   36.0370 N   0  0  0  0  0  0  0  0  0  0  0  0
   38.6910   32.5950   35.0150 H   0  0  0  0  0  0  0  0  0  0  0  0
   38.9240   31.0040   36.2620 C   0  0  0  0  0  2  0  0  0  0  0  0
   38.7910   30.7100   37.7620 C   0  0  0  0  0  2  0  0  0  0  0  0
   38.4340   31.0890   48.1920 C   0  0  2  0  0  0  0  0  0  0  0  0
   38.6700   32.5540   48.1010 C   0  0  0  0  0  0  0  0  0  0  0  0
   38.0680   31.7070   46.9600 C   0  0  1  0  0  0  0  0  0  0  0  0
   39.3520   30.4740   48.2810 H   0  0  0  0  0  0  0  0  0  0  0  0
   38.0100   33.2170   48.6760 H   0  0  0  0  0  0  0  0  0  0  0  0
   39.6980   32.8970   47.9880 H   0  0  0  0  0  0  0  0  0  0  0  0
   37.0030   31.9660   46.7770 H   0  0  0  0  0  0  0  0  0  0  0  0
   35.0630   30.2300   49.5140 C   0  0  0  0  0  0  0  0  0  0  0  0
   35.4020   29.5460   50.7300 C   0  0  0  0  0  0  0  0  0  0  0  0
   36.8050   29.4030   51.0760 C   0  0  0  0  0  0  0  0  0  0  0  0
   37.7550   29.9230   50.2340 N   0  0  0  0  0  0  0  0  0  0  0  0
   37.3480   30.5600   49.0960 C   0  0  0  0  0  0  0  0  0  0  0  0
   36.0240   30.7300   48.7090 N   0  0  0  0  0  0  0  0  0  0  0  0
   34.0180   30.3040   49.3140 H   0  0  0  0  0  0  0  0  0  0  0  0
   34.6560   29.1420   51.3830 H   0  0  0  0  0  0  0  0  0  0  0  0
   37.0420   28.8970   51.9770 H   0  0  0  0  0  0  0  0  0  0  0  0
  1  3  1  0  0  0  0
  2  1  2  0  0  0  0
  3  4  1  0  0  0  0
  3 27  1  0  0  0  0
  5  6  1  0  0  0  0
  5  1  1  0  0  0  0
  6 11  1  0  0  0  0
  7 12  1  0  0  0  0
  7  6  2  0  0  0  0
  8  7  1  0  0  0  0
  9  8  2  0  0  0  0
  9 10  1  0  0  0  0
 10  5  2  0  0  0  0
 13  8  1  0  0  0  0
 14  9  1  0  0  0  0
 15 14  2  0  0  0  0
 16 14  1  0  0  0  0
 17 18  1  0  0  0  0
 17 16  1  0  0  0  0
 19 17  1  0  0  0  0
 20 19  1  0  0  0  0
 21 23  1  0  0  0  0
 21 19  1  0  0  0  0
 22 21  1  0  0  0  0
 23 24  1  0  0  0  0
 24 16  1  0  0  0  0
 25 28  1  6  0  0  0
 25 36  1  0  0  0  0
 26 25  1  0  0  0  0
 26 29  1  0  0  0  0
 27 31  1  6  0  0  0
 27 26  1  0  0  0  0
 27 25  1  0  0  0  0
 30 26  1  0  0  0  0
 32 33  1  0  0  0  0
 33 34  2  0  0  0  0
 33 39  1  0  0  0  0
 34 40  1  0  0  0  0
 35 34  1  0  0  0  0
 36 35  2  0  0  0  0
 37 36  1  0  0  0  0
 37 32  2  0  0  0  0
 38 32  1  0  0  0  0
M  END
>  <minimizedAffinity>
-5.17082453

>  <minimizedRMSD>
0.180046082

$$$$
