
 OpenBabel03272508583D

 40 43  0  0  1  0  0  0  0  0999 V2000
   38.3150   31.8910   44.4930 C   0  0  0  0  0  0  0  0  0  0  0  0
   37.1960   32.4070   44.4000 O   0  0  0  0  0  0  0  0  0  0  0  0
   38.9170   31.6490   45.7970 N   0  0  0  0  0  0  0  0  0  0  0  0
   39.9100   31.4120   45.9410 H   0  0  0  0  0  0  0  0  0  0  0  0
   39.1060   31.4930   43.3090 C   0  0  0  0  0  0  0  0  0  0  0  0
   40.1490   30.6220   43.4570 C   0  0  0  0  0  0  0  0  0  0  0  0
   40.8680   30.2740   42.3320 C   0  0  0  0  0  0  0  0  0  0  0  0
   40.4860   30.8290   41.1230 C   0  0  0  0  0  0  0  0  0  0  0  0
   39.4270   31.7150   40.9620 C   0  0  0  0  0  0  0  0  0  0  0  0
   38.7730   32.0100   42.0950 N   0  0  0  0  0  0  0  0  0  0  0  0
   40.4320   30.2000   44.4060 H   0  0  0  0  0  0  0  0  0  0  0  0
   41.6960   29.5900   42.4140 H   0  0  0  0  0  0  0  0  0  0  0  0
   41.0900   30.5150   40.2840 H   0  0  0  0  0  0  0  0  0  0  0  0
   39.0820   32.2560   39.6610 C   0  0  0  0  0  0  0  0  0  0  0  0
   39.0560   33.4980   39.5140 O   0  0  0  0  0  0  0  0  0  0  0  0
   38.7560   31.5100   38.5000 N   0  0  0  0  0  0  0  0  0  0  0  0
   39.0760   32.0840   37.2090 C   0  0  0  0  0  3  0  0  0  0  0  0
   39.7180   32.9570   37.3180 H   0  0  0  0  0  0  0  0  0  0  0  0
   37.7660   32.4850   36.5680 C   0  0  0  0  0  3  0  0  0  0  0  0
   37.8930   32.4880   35.4590 H   0  0  0  0  0  0  0  0  0  0  0  0
   36.7250   31.5410   36.9190 N   0  0  0  0  0  0  0  0  0  0  0  0
   36.0280   31.4480   36.1540 H   0  0  0  0  0  0  0  0  0  0  0  0
   37.3300   30.2150   37.1150 C   0  0  0  0  0  2  0  0  0  0  0  0
   38.1260   30.2060   38.4270 C   0  0  0  0  0  2  0  0  0  0  0  0
   38.4370   31.1060   48.1760 C   0  0  2  0  0  0  0  0  0  0  0  0
   38.6820   32.5710   48.1070 C   0  0  0  0  0  0  0  0  0  0  0  0
   38.0650   31.7470   46.9570 C   0  0  1  0  0  0  0  0  0  0  0  0
   39.3510   30.4830   48.2480 H   0  0  0  0  0  0  0  0  0  0  0  0
   38.0310   33.2290   48.6980 H   0  0  0  0  0  0  0  0  0  0  0  0
   39.7120   32.9090   47.9910 H   0  0  0  0  0  0  0  0  0  0  0  0
   37.0010   32.0160   46.7870 H   0  0  0  0  0  0  0  0  0  0  0  0
   35.0720   30.2290   49.5000 C   0  0  0  0  0  0  0  0  0  0  0  0
   35.4140   29.5440   50.7140 C   0  0  0  0  0  0  0  0  0  0  0  0
   36.8190   29.4060   51.0570 C   0  0  0  0  0  0  0  0  0  0  0  0
   37.7650   29.9320   50.2160 N   0  0  0  0  0  0  0  0  0  0  0  0
   37.3540   30.5700   49.0800 C   0  0  0  0  0  0  0  0  0  0  0  0
   36.0290   30.7350   48.6950 N   0  0  0  0  0  0  0  0  0  0  0  0
   34.0260   30.2980   49.3010 H   0  0  0  0  0  0  0  0  0  0  0  0
   34.6710   29.1340   51.3660 H   0  0  0  0  0  0  0  0  0  0  0  0
   37.0600   28.8980   51.9570 H   0  0  0  0  0  0  0  0  0  0  0  0
  1  3  1  0  0  0  0
  2  1  2  0  0  0  0
  3  4  1  0  0  0  0
  3 27  1  0  0  0  0
  5  6  1  0  0  0  0
  5  1  1  0  0  0  0
  6 11  1  0  0  0  0
  7 12  1  0  0  0  0
  7  6  2  0  0  0  0
  8  7  1  0  0  0  0
  9  8  2  0  0  0  0
  9 10  1  0  0  0  0
 10  5  2  0  0  0  0
 13  8  1  0  0  0  0
 14  9  1  0  0  0  0
 15 14  2  0  0  0  0
 16 14  1  0  0  0  0
 17 18  1  0  0  0  0
 17 16  1  0  0  0  0
 19 21  1  0  0  0  0
 19 17  1  0  0  0  0
 20 19  1  0  0  0  0
 21 23  1  0  0  0  0
 22 21  1  0  0  0  0
 23 24  1  0  0  0  0
 24 16  1  0  0  0  0
 25 28  1  6  0  0  0
 25 36  1  0  0  0  0
 26 25  1  0  0  0  0
 26 29  1  0  0  0  0
 27 31  1  6  0  0  0
 27 26  1  0  0  0  0
 27 25  1  0  0  0  0
 30 26  1  0  0  0  0
 32 33  1  0  0  0  0
 33 34  2  0  0  0  0
 33 39  1  0  0  0  0
 34 40  1  0  0  0  0
 35 34  1  0  0  0  0
 36 35  2  0  0  0  0
 37 36  1  0  0  0  0
 37 32  2  0  0  0  0
 38 32  1  0  0  0  0
M  END
>  <minimizedAffinity>
-5.07865524

>  <minimizedRMSD>
0.435107887

$$$$
