
 OpenBabel03272507313D

 29 31  0  0  0  0  0  0  0  0999 V2000
   35.8450   29.1400   49.7930 C   0  0  0  0  0  0  0  0  0  0  0  0
   34.7810   29.6470   50.5000 C   0  0  0  0  0  0  0  0  0  0  0  0
   33.6300   29.0370   49.9770 C   0  0  0  0  0  0  0  0  0  0  0  0
   34.0910   28.1930   48.9740 C   0  0  0  0  0  0  0  0  0  0  0  0
   35.3770   28.2910   48.9120 O   0  0  0  0  0  0  0  0  0  0  0  0
   34.7280   30.3650   51.3080 H   0  0  0  0  0  0  0  0  0  0  0  0
   32.5980   29.1620   50.2540 H   0  0  0  0  0  0  0  0  0  0  0  0
   33.2050   27.3550   48.1600 C   0  0  0  0  0  0  0  0  0  0  0  0
   32.0070   27.1490   48.4890 O   0  0  0  0  0  0  0  0  0  0  0  0
   33.6030   26.7180   46.9610 N   0  0  0  0  0  0  0  0  0  0  0  0
   33.7920   25.3170   47.1750 C   0  0  0  0  0  3  0  0  0  0  0  0
   34.6110   25.0900   47.9170 H   0  0  0  0  0  0  0  0  0  0  0  0
   34.3010   24.7340   45.8520 C   0  0  0  0  0  3  0  0  0  0  0  0
   34.3220   23.6350   45.9740 H   0  0  0  0  0  0  0  0  0  0  0  0
   33.3840   25.0330   44.7960 N   0  0  0  0  0  0  0  0  0  0  0  0
   32.5330   24.4420   44.9380 H   0  0  0  0  0  0  0  0  0  0  0  0
   32.9950   26.4050   44.6770 C   0  0  0  0  0  2  0  0  0  0  0  0
   33.8290   27.2630   45.6380 C   0  0  0  0  0  2  0  0  0  0  0  0
   37.2120   29.5480   50.0640 C   0  0  0  0  0  0  0  0  0  0  0  0
   37.8280   29.0000   51.0060 O   0  0  0  0  0  0  0  0  0  0  0  0
   37.7750   30.5740   49.2150 C   0  0  0  0  0  0  0  0  0  0  0  0
   38.1190   31.7740   49.8370 C   0  0  0  0  0  0  0  0  0  0  0  0
   38.6690   32.7890   49.0410 C   0  0  0  0  0  0  0  0  0  0  0  0
   38.8340   32.5470   47.7030 N   0  0  0  0  0  0  0  0  0  0  0  0
   38.4850   31.3680   47.1400 C   0  0  0  0  0  0  0  0  0  0  0  0
   37.9650   30.4040   47.8940 N   0  0  0  0  0  0  0  0  0  0  0  0
   38.0090   32.0100   50.8810 H   0  0  0  0  0  0  0  0  0  0  0  0
   38.9470   33.7310   49.4920 H   0  0  0  0  0  0  0  0  0  0  0  0
   38.6700   31.3110   46.0750 H   0  0  0  0  0  0  0  0  0  0  0  0
  1 19  1  0  0  0  0
  1  2  2  0  0  0  0
  2  6  1  0  0  0  0
  3  7  1  0  0  0  0
  3  2  1  0  0  0  0
  4  3  2  0  0  0  0
  5  4  1  0  0  0  0
  5  1  1  0  0  0  0
  8  9  2  0  0  0  0
  8  4  1  0  0  0  0
 10 11  1  0  0  0  0
 10  8  1  0  0  0  0
 11 12  1  0  0  0  0
 13 14  1  0  0  0  0
 13 11  1  0  0  0  0
 15 16  1  0  0  0  0
 15 13  1  0  0  0  0
 17 15  1  0  0  0  0
 17 18  1  0  0  0  0
 18 10  1  0  0  0  0
 19 20  2  0  0  0  0
 21 22  1  0  0  0  0
 21 19  1  0  0  0  0
 22 27  1  0  0  0  0
 23 28  1  0  0  0  0
 23 22  2  0  0  0  0
 24 23  1  0  0  0  0
 25 24  2  0  0  0  0
 25 26  1  0  0  0  0
 26 21  2  0  0  0  0
 29 25  1  0  0  0  0
M  END
>  <minimizedAffinity>
-5.17477226

>  <minimizedRMSD>
1.04991829

$$$$
