
 OpenBabel03272507423D

 41 44  0  0  0  0  0  0  0  0999 V2000
   36.6190   31.1730   50.0680 C   0  0  0  0  0  0  0  0  0  0  0  0
   35.5500   30.3170   49.8060 C   0  0  0  0  0  0  0  0  0  0  0  0
   35.3410   29.1910   50.5740 C   0  0  0  0  0  0  0  0  0  0  0  0
   36.2150   28.9540   51.5920 N   0  0  0  0  0  0  0  0  0  0  0  0
   37.2580   29.8050   51.8330 C   0  0  0  0  0  0  0  0  0  0  0  0
   37.4430   30.8770   51.0870 N   0  0  0  0  0  0  0  0  0  0  0  0
   34.5480   28.4900   50.4390 H   0  0  0  0  0  0  0  0  0  0  0  0
   37.9240   29.5660   52.6580 H   0  0  0  0  0  0  0  0  0  0  0  0
   34.1910   29.3460   48.0180 C   0  0  0  0  0  0  0  0  0  0  0  0
   34.5910   28.1200   47.9650 O   0  0  0  0  0  0  0  0  0  0  0  0
   34.6030   30.4790   48.7860 N   0  0  0  0  0  0  0  0  0  0  0  0
   34.1670   31.3580   48.5320 H   0  0  0  0  0  0  0  0  0  0  0  0
   33.1200   29.4570   47.0730 N   0  0  0  0  0  0  0  0  0  0  0  0
   32.3140   28.2760   46.8270 C   0  0  0  0  0  0  0  0  0  0  0  0
   32.4190   27.5360   47.6440 H   0  0  0  0  0  0  0  0  0  0  0  0
   30.8730   28.7860   46.7080 C   0  0  0  0  0  0  0  0  0  0  0  0
   30.6900   29.5270   47.5180 H   0  0  0  0  0  0  0  0  0  0  0  0
   30.7880   29.5030   45.4570 N   0  0  0  0  0  0  0  0  0  0  0  0
   29.8640   29.8580   45.2060 H   0  0  0  0  0  0  0  0  0  0  0  0
   31.9120   30.3310   45.1870 C   0  0  0  0  0  0  0  0  0  0  0  0
   32.7920   30.6500   46.3560 C   0  0  0  0  0  0  0  0  0  0  0  0
   36.6610   32.2220   49.2090 O   0  0  0  0  0  0  0  0  0  0  0  0
   38.1840   32.1970   47.2580 C   0  0  0  0  0  0  0  0  0  0  0  0
   37.7930   32.6370   48.5210 C   0  0  0  0  0  0  0  0  0  0  0  0
   38.5510   33.5660   49.2070 C   0  0  0  0  0  0  0  0  0  0  0  0
   39.7180   34.0660   48.6250 C   0  0  0  0  0  0  0  0  0  0  0  0
   40.0960   33.6190   47.3680 C   0  0  0  0  0  0  0  0  0  0  0  0
   39.3150   32.6960   46.7200 C   0  0  0  0  0  0  0  0  0  0  0  0
   38.3200   33.9480   50.1680 H   0  0  0  0  0  0  0  0  0  0  0  0
   40.3250   34.7930   49.1430 H   0  0  0  0  0  0  0  0  0  0  0  0
   41.0020   34.0030   46.9060 H   0  0  0  0  0  0  0  0  0  0  0  0
   39.7430   32.2390   45.3820 C   0  0  0  0  0  0  0  0  0  0  0  0
   40.5680   31.2070   45.0190 C   0  0  0  0  0  0  0  0  0  0  0  0
   40.6460   31.1970   43.6320 C   0  0  0  0  0  0  0  0  0  0  0  0
   39.8440   32.2510   43.2200 C   0  0  0  0  0  0  0  0  0  0  0  0
   39.3240   32.8460   44.2760 O   0  0  0  0  0  0  0  0  0  0  0  0
   41.0450   30.5500   45.7340 H   0  0  0  0  0  0  0  0  0  0  0  0
   41.2430   30.4670   43.1270 H   0  0  0  0  0  0  0  0  0  0  0  0
   39.7180   32.4810   42.1700 H   0  0  0  0  0  0  0  0  0  0  0  0
   36.6750   30.4760   46.0950 N   0  0  0  0  0  0  0  0  0  0  0  0
   37.3450   31.2370   46.6200 C   0  0  0  0  0  0  0  0  0  0  0  0
  1  6  1  0  0  0  0
  2  1  2  0  0  0  0
  2  3  1  0  0  0  0
  3  4  2  0  0  0  0
  4  5  1  0  0  0  0
  5  8  1  0  0  0  0
  6  5  2  0  0  0  0
  7  3  1  0  0  0  0
  9 11  1  0  0  0  0
 10  9  2  0  0  0  0
 11  2  1  0  0  0  0
 12 11  1  0  0  0  0
 13  9  1  0  0  0  0
 14 13  1  0  0  0  0
 14 15  1  0  0  0  0
 16 14  1  0  0  0  0
 16 17  1  0  0  0  0
 18 16  1  0  0  0  0
 19 18  1  0  0  0  0
 20 18  1  0  0  0  0
 20 21  1  0  0  0  0
 21 13  1  0  0  0  0
 22  1  1  0  0  0  0
 23 24  1  0  0  0  0
 24 25  2  0  0  0  0
 24 22  1  0  0  0  0
 25 29  1  0  0  0  0
 26 30  1  0  0  0  0
 26 25  1  0  0  0  0
 27 26  2  0  0  0  0
 28 23  2  0  0  0  0
 28 27  1  0  0  0  0
 31 27  1  0  0  0  0
 32 28  1  0  0  0  0
 33 32  2  0  0  0  0
 33 37  1  0  0  0  0
 34 33  1  0  0  0  0
 35 34  2  0  0  0  0
 35 36  1  0  0  0  0
 36 32  1  0  0  0  0
 38 34  1  0  0  0  0
 39 35  1  0  0  0  0
 40 41  3  0  0  0  0
 41 23  1  0  0  0  0
M  END
>  <minimizedAffinity>
-6.31761217

>  <minimizedRMSD>
0.388026685

$$$$
