
 OpenBabel03272500543D

 32 34  0  0  0  0  0  0  0  0999 V2000
   35.0720   29.7740   47.8310 C   0  0  0  0  0  0  0  0  0  0  0  0
   33.9140   29.0400   48.0800 C   0  0  0  0  0  0  0  0  0  0  0  0
   32.9880   28.7580   47.0880 C   0  0  0  0  0  0  0  0  0  0  0  0
   33.2280   29.2380   45.7690 C   0  0  0  0  0  0  0  0  0  0  0  0
   34.3760   29.9550   45.5670 C   0  0  0  0  0  0  0  0  0  0  0  0
   35.2880   30.2290   46.5350 C   0  0  0  0  0  0  0  0  0  0  0  0
   33.7140   28.6650   49.0870 H   0  0  0  0  0  0  0  0  0  0  0  0
   32.1070   28.1680   47.3930 H   0  0  0  0  0  0  0  0  0  0  0  0
   32.4210   28.9340   45.1350 H   0  0  0  0  0  0  0  0  0  0  0  0
   34.3070   30.2380   44.5370 H   0  0  0  0  0  0  0  0  0  0  0  0
   37.1600   30.4550   45.1360 C   0  0  0  0  0  0  0  0  0  0  0  0
   36.6940   29.4250   44.5360 O   0  0  0  0  0  0  0  0  0  0  0  0
   36.4660   30.9410   46.3000 N   0  0  0  0  0  0  0  0  0  0  0  0
   36.7750   31.7030   46.8870 H   0  0  0  0  0  0  0  0  0  0  0  0
   38.3510   31.1630   44.7090 N   0  0  0  0  0  0  0  0  0  0  0  0
   39.0630   31.0860   43.4390 C   0  0  0  0  0  3  0  0  0  0  0  0
   38.6120   30.2950   42.7710 H   0  0  0  0  0  0  0  0  0  0  0  0
   40.5390   30.9380   43.5760 C   0  0  0  0  0  3  0  0  0  0  0  0
   40.7880   29.9020   43.2250 H   0  0  0  0  0  0  0  0  0  0  0  0
   41.0040   31.0570   44.9260 N   0  0  0  0  0  0  0  0  0  0  0  0
   40.9860   30.1810   45.4730 H   0  0  0  0  0  0  0  0  0  0  0  0
   40.3960   32.1690   45.6290 C   0  0  0  0  0  2  0  0  0  0  0  0
   38.9050   32.0750   45.6910 C   0  0  0  0  0  2  0  0  0  0  0  0
   36.4340   28.9010   49.6320 C   0  0  0  0  0  0  0  0  0  0  0  0
   35.9080   30.0320   48.9840 C   0  0  0  0  0  0  0  0  0  0  0  0
   36.2500   31.2830   49.5210 C   0  0  0  0  0  0  0  0  0  0  0  0
   37.0430   31.3560   50.6020 N   0  0  0  0  0  0  0  0  0  0  0  0
   37.5340   30.2670   51.2050 C   0  0  0  0  0  0  0  0  0  0  0  0
   37.2270   29.0490   50.7180 N   0  0  0  0  0  0  0  0  0  0  0  0
   36.2740   27.8650   49.3550 H   0  0  0  0  0  0  0  0  0  0  0  0
   35.8220   32.1140   48.9890 H   0  0  0  0  0  0  0  0  0  0  0  0
   38.1640   30.4240   52.0700 H   0  0  0  0  0  0  0  0  0  0  0  0
  1  2  1  0  0  0  0
  1 25  1  0  0  0  0
  2  7  1  0  0  0  0
  3  8  1  0  0  0  0
  3  2  2  0  0  0  0
  4  3  1  0  0  0  0
  5  4  2  0  0  0  0
  5  6  1  0  0  0  0
  6  1  2  0  0  0  0
  9  4  1  0  0  0  0
 10  5  1  0  0  0  0
 11 13  1  0  0  0  0
 12 11  2  0  0  0  0
 13  6  1  0  0  0  0
 13 14  1  0  0  0  0
 15 11  1  0  0  0  0
 15 23  1  0  0  0  0
 16 18  1  0  0  0  0
 16 15  1  0  0  0  0
 17 16  1  0  0  0  0
 18 20  1  0  0  0  0
 19 18  1  0  0  0  0
 20 21  1  0  0  0  0
 20 22  1  0  0  0  0
 22 23  1  0  0  0  0
 24 29  1  0  0  0  0
 25 26  1  0  0  0  0
 25 24  2  0  0  0  0
 26 27  2  0  0  0  0
 27 28  1  0  0  0  0
 28 32  1  0  0  0  0
 29 28  2  0  0  0  0
 30 24  1  0  0  0  0
 31 26  1  0  0  0  0
M  END
>  <minimizedAffinity>
-5.77772665

>  <minimizedRMSD>
5.87628746

$$$$
