REMARK  Name = 
REMARK  1 active torsions:
REMARK  status: ('A' for Active; 'I' for Inactive)
REMARK    1  A    between atoms: C_5  and  C_7
REMARK                            x       y       z     vdW  Elec       q    Type
REMARK                         _______ _______ _______ _____ _____    ______ ____
ROOT
ATOM      1  C   UNL     1      34.828  28.317  49.481  0.00  0.00    +0.000 C 
ATOM      2  O   UNL     1      33.623  28.711  49.564  0.00  0.00    +0.000 OA
ATOM      3  N   UNL     1      34.955  26.961  49.062  0.00  0.00    +0.000 N 
ATOM      4  C   UNL     1      35.386  26.714  47.699  0.00  0.00    +0.000 C 
ATOM      5  H   UNL     1      36.444  26.364  47.681  0.00  0.00    +0.000 HD
ATOM      6  C   UNL     1      34.548  25.550  47.186  0.00  0.00    +0.000 C 
ATOM      7  H   UNL     1      34.225  25.830  46.155  0.00  0.00    +0.000 HD
ATOM      8  N   UNL     1      33.339  25.431  47.955  0.00  0.00    +0.000 NA
ATOM      9  H   UNL     1      32.563  24.966  47.490  0.00  0.00    +0.000 HD
ATOM     10  C   UNL     1      33.564  25.031  49.321  0.00  0.00    +0.000 C 
ATOM     11  C   UNL     1      34.678  25.821  49.919  0.00  0.00    +0.000 C 
ENDROOT
BRANCH   1  16
ATOM     12  C   UNL     1      37.266  30.184  51.419  0.00  0.00    +0.000 A 
ATOM     13  C   UNL     1      38.097  30.759  50.451  0.00  0.00    +0.000 A 
ATOM     14  C   UNL     1      37.807  30.494  49.101  0.00  0.00    +0.000 A 
ATOM     15  N   UNL     1      36.743  29.701  48.839  0.00  0.00    +0.000 NA
ATOM     16  C   UNL     1      35.965  29.165  49.784  0.00  0.00    +0.000 A 
ATOM     17  N   UNL     1      36.220  29.402  51.080  0.00  0.00    +0.000 NA
ATOM     18  H   UNL     1      37.421  30.339  52.483  0.00  0.00    +0.000 HD
ATOM     19  H   UNL     1      38.917  31.375  50.779  0.00  0.00    +0.000 HD
ATOM     20  H   UNL     1      38.443  30.933  48.344  0.00  0.00    +0.000 HD
ENDBRANCH   1  16
TORSDOF 1
