REMARK  Name = 
REMARK  4 active torsions:
REMARK  status: ('A' for Active; 'I' for Inactive)
REMARK    1  A    between atoms: C_1  and  O_12
REMARK    2  A    between atoms: C_3  and  C_7
REMARK    3  A    between atoms: N_10  and  C_23
REMARK    4  A    between atoms: O_12  and  C_13
REMARK                            x       y       z     vdW  Elec       q    Type
REMARK                         _______ _______ _______ _____ _____    ______ ____
ROOT
ATOM      1  C   UNL     1      39.086  31.490  46.307  0.00  0.00    +0.000 A 
ATOM      2  C   UNL     1      39.775  30.681  45.447  0.00  0.00    +0.000 A 
ATOM      3  C   UNL     1      40.778  31.490  44.937  0.00  0.00    +0.000 A 
ATOM      4  N   UNL     1      40.684  32.715  45.470  0.00  0.00    +0.000 N 
ATOM      5  N   UNL     1      39.651  32.713  46.305  0.00  0.00    +0.000 NA
ATOM      6  H   UNL     1      39.631  29.661  45.184  0.00  0.00    +0.000 HD
ATOM      7  H   UNL     1      41.560  31.269  44.220  0.00  0.00    +0.000 HD
ENDROOT
BRANCH   4  10
ATOM      8  H   UNL     1      42.062  34.957  43.589  0.00  0.00    +0.000 HD
ATOM      9  N   UNL     1      41.195  34.508  43.959  0.00  0.00    +0.000 NA
ATOM     10  C   UNL     1      41.524  33.881  45.224  0.00  0.00    +0.000 C 
ATOM     11  C   UNL     1      41.358  34.912  46.318  0.00  0.00    +0.000 C 
ATOM     12  H   UNL     1      41.869  34.650  47.247  0.00  0.00    +0.000 HD
ATOM     13  N   UNL     1      39.932  35.075  46.509  0.00  0.00    +0.000 NA
ATOM     14  H   UNL     1      39.487  34.300  47.025  0.00  0.00    +0.000 HD
ATOM     15  C   UNL     1      39.283  35.377  45.269  0.00  0.00    +0.000 C 
ATOM     16  C   UNL     1      40.203  35.543  44.096  0.00  0.00    +0.000 C 
ENDBRANCH   4  10
BRANCH   1  19
ATOM     17  C   UNL     1      36.800  30.741  49.185  0.00  0.00    +0.000 A 
ATOM     18  C   UNL     1      37.944  31.126  48.480  0.00  0.00    +0.000 A 
ATOM     19  C   UNL     1      37.931  31.102  47.098  0.00  0.00    +0.000 A 
ATOM     20  N   UNL     1      36.794  30.701  46.482  0.00  0.00    +0.000 NA
ATOM     21  C   UNL     1      35.693  30.331  47.193  0.00  0.00    +0.000 A 
ATOM     22  N   UNL     1      35.688  30.348  48.518  0.00  0.00    +0.000 NA
ATOM     23  H   UNL     1      38.857  31.448  48.936  0.00  0.00    +0.000 HD
ATOM     24  H   UNL     1      34.831  30.025  46.637  0.00  0.00    +0.000 HD
BRANCH  17  25
ATOM     25  O   UNL     1      36.965  30.818  50.558  0.00  0.00    +0.000 OA
BRANCH  25  26
ATOM     26  C   UNL     1      36.943  29.706  51.414  0.00  0.00    +0.000 C 
ATOM     27  F   UNL     1      35.664  29.257  51.655  0.00  0.00    +0.000 F 
ATOM     28  F   UNL     1      37.568  30.041  52.592  0.00  0.00    +0.000 F 
ATOM     29  F   UNL     1      37.672  28.689  50.822  0.00  0.00    +0.000 F 
ENDBRANCH  25  26
ENDBRANCH  17  25
ENDBRANCH   1  19
TORSDOF 4
