
 OpenBabel03272503393D

 29 31  0  0  1  0  0  0  0  0999 V2000
   36.8950   30.2680   45.5800 C   0  0  0  0  0  0  0  0  0  0  0  0
   36.4220   29.8780   44.3580 C   0  0  0  0  0  0  0  0  0  0  0  0
   37.5150   29.9830   43.5130 C   0  0  0  0  0  0  0  0  0  0  0  0
   38.5790   30.4140   44.2020 N   0  0  0  0  0  0  0  0  0  0  0  0
   38.1990   30.5870   45.4630 N   0  0  0  0  0  0  0  0  0  0  0  0
   35.4550   29.5570   44.0560 H   0  0  0  0  0  0  0  0  0  0  0  0
   37.6030   29.7770   42.4520 H   0  0  0  0  0  0  0  0  0  0  0  0
   40.8970   30.4770   41.9460 H   0  0  0  0  0  0  0  0  0  0  0  0
   39.9610   30.8010   42.2790 N   0  0  0  0  0  0  0  0  0  0  0  0
   39.9320   30.6670   43.7220 C   0  0  1  0  0  3  0  0  0  0  0  0
   40.4950   31.9360   44.3240 C   0  0  0  0  0  3  0  0  0  0  0  0
   40.8070   31.8250   45.3650 H   0  0  0  0  0  0  0  0  0  0  0  0
   39.4700   32.9470   44.1690 N   0  0  0  0  0  0  0  0  0  0  0  0
   38.6850   32.8540   44.8320 H   0  0  0  0  0  0  0  0  0  0  0  0
   39.0510   33.0420   42.8030 C   0  0  0  0  0  2  0  0  0  0  0  0
   39.8030   32.1660   41.8470 C   0  0  0  0  0  2  0  0  0  0  0  0
   35.9260   30.5410   49.1930 C   0  0  0  0  0  0  0  0  0  0  0  0
   36.7230   30.4870   48.0460 C   0  0  0  0  0  0  0  0  0  0  0  0
   36.1250   30.3310   46.8100 C   0  0  0  0  0  0  0  0  0  0  0  0
   34.7750   30.2370   46.7670 N   0  0  0  0  0  0  0  0  0  0  0  0
   34.0220   30.2920   47.9000 C   0  0  0  0  0  0  0  0  0  0  0  0
   34.5790   30.4410   49.0930 N   0  0  0  0  0  0  0  0  0  0  0  0
   37.7910   30.5590   48.0460 H   0  0  0  0  0  0  0  0  0  0  0  0
   32.9600   30.2100   47.7870 H   0  0  0  0  0  0  0  0  0  0  0  0
   36.6660   30.6990   50.3530 O   0  0  0  0  0  0  0  0  0  0  0  0
   36.8480   29.6900   51.3120 C   0  0  0  0  0  0  0  0  0  0  0  0
   35.6530   29.1640   51.7490 F   0  0  0  0  0  0  0  0  0  0  0  0
   37.5640   30.2050   52.3670 F   0  0  0  0  0  0  0  0  0  0  0  0
   37.6020   28.6800   50.7400 F   0  0  0  0  0  0  0  0  0  0  0  0
  1 19  1  0  0  0  0
  2  1  1  0  0  0  0
  3  4  1  0  0  0  0
  3  2  2  0  0  0  0
  4  5  1  0  0  0  0
  5  1  2  0  0  0  0
  6  2  1  0  0  0  0
  7  3  1  0  0  0  0
  8  9  1  0  0  0  0
  9 10  1  0  0  0  0
 10  4  1  1  0  0  0
 10 11  1  0  0  0  0
 11 12  1  0  0  0  0
 13 11  1  0  0  0  0
 13 14  1  0  0  0  0
 15 13  1  0  0  0  0
 16  9  1  0  0  0  0
 16 15  1  0  0  0  0
 17 25  1  0  0  0  0
 18 23  1  0  0  0  0
 18 17  2  0  0  0  0
 19 18  1  0  0  0  0
 20 19  2  0  0  0  0
 20 21  1  0  0  0  0
 21 22  2  0  0  0  0
 22 17  1  0  0  0  0
 24 21  1  0  0  0  0
 25 26  1  0  0  0  0
 26 27  1  0  0  0  0
 26 28  1  0  0  0  0
 29 26  1  0  0  0  0
M  END
>  <minimizedAffinity>
-5.51165485

>  <minimizedRMSD>
2.65481544

$$$$
