
 OpenBabel03272508503D

 40 44  0  0  0  0  0  0  0  0999 V2000
   36.9210   27.7500   32.2660 C   0  0  0  0  0  0  0  0  0  0  0  0
   36.4280   28.4990   31.2060 C   0  0  0  0  0  0  0  0  0  0  0  0
   35.5680   29.4000   31.8370 C   0  0  0  0  0  0  0  0  0  0  0  0
   35.5850   29.1580   33.1970 C   0  0  0  0  0  0  0  0  0  0  0  0
   36.4080   28.1610   33.4090 O   0  0  0  0  0  0  0  0  0  0  0  0
   36.6460   28.4170   30.1480 H   0  0  0  0  0  0  0  0  0  0  0  0
   34.9890   30.1630   31.3120 H   0  0  0  0  0  0  0  0  0  0  0  0
   33.4670   29.6750   34.3120 C   0  0  0  0  0  0  0  0  0  0  0  0
   34.8330   29.8680   34.2250 C   0  0  0  0  0  0  0  0  0  0  0  0
   35.5090   30.7150   35.0860 C   0  0  0  0  0  0  0  0  0  0  0  0
   34.8270   31.4060   36.0770 C   0  0  0  0  0  0  0  0  0  0  0  0
   35.1640   32.2720   37.0400 N   0  0  0  0  0  0  0  0  0  0  0  0
   34.0500   32.5970   37.6900 N   0  0  0  0  0  0  0  0  0  0  0  0
   32.9890   31.9500   37.1570 C   0  0  0  0  0  0  0  0  0  0  0  0
   33.4760   31.1780   36.1170 C   0  0  0  0  0  0  0  0  0  0  0  0
   32.7290   30.3500   35.2950 C   0  0  0  0  0  0  0  0  0  0  0  0
   32.9210   29.0180   33.6490 H   0  0  0  0  0  0  0  0  0  0  0  0
   36.5820   30.8630   35.0160 H   0  0  0  0  0  0  0  0  0  0  0  0
   36.1390   32.6060   37.2140 H   0  0  0  0  0  0  0  0  0  0  0  0
   31.9590   32.0370   37.5010 H   0  0  0  0  0  0  0  0  0  0  0  0
   31.6770   30.2340   35.4000 H   0  0  0  0  0  0  0  0  0  0  0  0
   37.8770   26.6610   32.0970 C   0  0  0  0  0  0  0  0  0  0  0  0
   37.9050   26.0580   31.0060 O   0  0  0  0  0  0  0  0  0  0  0  0
   40.7460   26.7400   34.3490 C   0  0  0  0  0  0  0  0  0  0  0  0
   40.4830   25.7060   35.2240 C   0  0  0  0  0  0  0  0  0  0  0  0
   39.3380   24.9640   35.0750 C   0  0  0  0  0  0  0  0  0  0  0  0
   38.5160   25.2930   34.0600 N   0  0  0  0  0  0  0  0  0  0  0  0
   38.7790   26.3040   33.2070 C   0  0  0  0  0  0  0  0  0  0  0  0
   39.8960   27.0250   33.3560 N   0  0  0  0  0  0  0  0  0  0  0  0
   41.6620   27.2980   34.5060 H   0  0  0  0  0  0  0  0  0  0  0  0
   41.1290   25.4280   36.0440 H   0  0  0  0  0  0  0  0  0  0  0  0
   38.9160   23.8700   35.8830 N   0  0  0  0  0  0  0  0  0  0  0  0
   37.8620   23.9860   36.9010 C   0  0  0  0  0  3  0  0  0  0  0  0
   36.9550   23.5230   36.4510 H   0  0  0  0  0  0  0  0  0  0  0  0
   38.2270   23.2350   38.1390 C   0  0  0  0  0  3  0  0  0  0  0  0
   37.9480   23.8170   39.0320 H   0  0  0  0  0  0  0  0  0  0  0  0
   39.6400   22.9300   38.2490 N   0  0  0  0  0  0  0  0  0  0  0  0
   40.2090   23.7550   38.4880 H   0  0  0  0  0  0  0  0  0  0  0  0
   40.1220   22.1610   37.1340 C   0  0  0  0  0  2  0  0  0  0  0  0
   39.4310   22.5270   35.8390 C   0  0  0  0  0  2  0  0  0  0  0  0
  1  5  1  0  0  0  0
  2  3  1  0  0  0  0
  2  1  2  0  0  0  0
  3  4  2  0  0  0  0
  4  5  1  0  0  0  0
  4  9  1  0  0  0  0
  6  2  1  0  0  0  0
  7  3  1  0  0  0  0
  8 16  1  0  0  0  0
  9  8  2  0  0  0  0
  9 10  1  0  0  0  0
 10 11  2  0  0  0  0
 11 15  1  0  0  0  0
 11 12  1  0  0  0  0
 12 19  1  0  0  0  0
 12 13  1  0  0  0  0
 14 20  1  0  0  0  0
 14 13  2  0  0  0  0
 15 14  1  0  0  0  0
 16 21  1  0  0  0  0
 16 15  2  0  0  0  0
 17  8  1  0  0  0  0
 18 10  1  0  0  0  0
 22  1  1  0  0  0  0
 22 28  1  0  0  0  0
 23 22  2  0  0  0  0
 24 30  1  0  0  0  0
 24 25  1  0  0  0  0
 25 31  1  0  0  0  0
 26 25  2  0  0  0  0
 26 32  1  0  0  0  0
 27 26  1  0  0  0  0
 28 29  1  0  0  0  0
 28 27  2  0  0  0  0
 29 24  2  0  0  0  0
 32 33  1  0  0  0  0
 33 35  1  0  0  0  0
 34 33  1  0  0  0  0
 35 37  1  0  0  0  0
 35 36  1  0  0  0  0
 37 38  1  0  0  0  0
 39 37  1  0  0  0  0
 40 32  1  0  0  0  0
 40 39  1  0  0  0  0
M  END
>  <minimizedAffinity>
-6.75722599

$$$$

 OpenBabel03272508503D

 40 44  0  0  0  0  0  0  0  0999 V2000
   36.6110   28.1450   32.8720 C   0  0  0  0  0  0  0  0  0  0  0  0
   37.6140   27.9160   31.9400 C   0  0  0  0  0  0  0  0  0  0  0  0
   38.3730   26.9110   32.5430 C   0  0  0  0  0  0  0  0  0  0  0  0
   37.8090   26.5940   33.7630 C   0  0  0  0  0  0  0  0  0  0  0  0
   36.7560   27.3590   33.9200 O   0  0  0  0  0  0  0  0  0  0  0  0
   37.7810   28.3920   30.9810 H   0  0  0  0  0  0  0  0  0  0  0  0
   39.2640   26.4650   32.0940 H   0  0  0  0  0  0  0  0  0  0  0  0
   39.2380   24.6840   34.3160 C   0  0  0  0  0  0  0  0  0  0  0  0
   38.2820   25.5980   34.7180 C   0  0  0  0  0  0  0  0  0  0  0  0
   37.7600   25.5970   35.9990 C   0  0  0  0  0  0  0  0  0  0  0  0
   38.1860   24.6650   36.9350 C   0  0  0  0  0  0  0  0  0  0  0  0
   37.8970   24.3960   38.2130 N   0  0  0  0  0  0  0  0  0  0  0  0
   38.6450   23.3600   38.5800 N   0  0  0  0  0  0  0  0  0  0  0  0
   39.4190   22.9500   37.5500 C   0  0  0  0  0  0  0  0  0  0  0  0
   39.1340   23.7830   36.4830 C   0  0  0  0  0  0  0  0  0  0  0  0
   39.7030   23.7200   35.2220 C   0  0  0  0  0  0  0  0  0  0  0  0
   39.6580   24.6690   33.3200 H   0  0  0  0  0  0  0  0  0  0  0  0
   37.0100   26.3170   36.3110 H   0  0  0  0  0  0  0  0  0  0  0  0
   37.2020   24.9310   38.7830 H   0  0  0  0  0  0  0  0  0  0  0  0
   40.1250   22.1210   37.5820 H   0  0  0  0  0  0  0  0  0  0  0  0
   40.4370   22.9960   34.9590 H   0  0  0  0  0  0  0  0  0  0  0  0
   35.5540   29.1330   32.6810 C   0  0  0  0  0  0  0  0  0  0  0  0
   35.2090   29.4170   31.5170 O   0  0  0  0  0  0  0  0  0  0  0  0
   35.0410   31.3870   35.5040 C   0  0  0  0  0  0  0  0  0  0  0  0
   33.8310   30.9710   36.0180 C   0  0  0  0  0  0  0  0  0  0  0  0
   33.1640   29.9270   35.4280 C   0  0  0  0  0  0  0  0  0  0  0  0
   33.7420   29.3530   34.3540 N   0  0  0  0  0  0  0  0  0  0  0  0
   34.9260   29.7640   33.8560 C   0  0  0  0  0  0  0  0  0  0  0  0
   35.5720   30.7820   34.4340 N   0  0  0  0  0  0  0  0  0  0  0  0
   35.5320   32.2150   36.0040 H   0  0  0  0  0  0  0  0  0  0  0  0
   33.3530   31.4190   36.8780 H   0  0  0  0  0  0  0  0  0  0  0  0
   31.9140   29.3740   35.8270 N   0  0  0  0  0  0  0  0  0  0  0  0
   31.5570   29.1340   37.2330 C   0  0  0  0  0  3  0  0  0  0  0  0
   30.8630   29.9570   37.5140 H   0  0  0  0  0  0  0  0  0  0  0  0
   30.8520   27.8280   37.3910 C   0  0  0  0  0  3  0  0  0  0  0  0
   31.2070   27.3110   38.2970 H   0  0  0  0  0  0  0  0  0  0  0  0
   31.0370   26.9180   36.2780 N   0  0  0  0  0  0  0  0  0  0  0  0
   31.9770   26.4970   36.2570 H   0  0  0  0  0  0  0  0  0  0  0  0
   30.5980   27.4850   35.0300 C   0  0  0  0  0  2  0  0  0  0  0  0
   30.8390   28.9760   34.9580 C   0  0  0  0  0  2  0  0  0  0  0  0
  1  5  1  0  0  0  0
  2  3  1  0  0  0  0
  2  1  2  0  0  0  0
  3  4  2  0  0  0  0
  4  5  1  0  0  0  0
  4  9  1  0  0  0  0
  6  2  1  0  0  0  0
  7  3  1  0  0  0  0
  8  9  2  0  0  0  0
  8 16  1  0  0  0  0
  9 10  1  0  0  0  0
 10 18  1  0  0  0  0
 10 11  2  0  0  0  0
 11 12  1  0  0  0  0
 12 13  1  0  0  0  0
 12 19  1  0  0  0  0
 14 20  1  0  0  0  0
 14 13  2  0  0  0  0
 15 11  1  0  0  0  0
 15 14  1  0  0  0  0
 16 15  2  0  0  0  0
 17  8  1  0  0  0  0
 21 16  1  0  0  0  0
 22  1  1  0  0  0  0
 22 28  1  0  0  0  0
 23 22  2  0  0  0  0
 24 30  1  0  0  0  0
 24 25  1  0  0  0  0
 25 31  1  0  0  0  0
 26 32  1  0  0  0  0
 26 25  2  0  0  0  0
 27 26  1  0  0  0  0
 28 27  2  0  0  0  0
 28 29  1  0  0  0  0
 29 24  2  0  0  0  0
 32 33  1  0  0  0  0
 33 35  1  0  0  0  0
 33 34  1  0  0  0  0
 35 36  1  0  0  0  0
 37 35  1  0  0  0  0
 38 37  1  0  0  0  0
 39 37  1  0  0  0  0
 40 39  1  0  0  0  0
 40 32  1  0  0  0  0
M  END
>  <minimizedAffinity>
-6.62901735

$$$$

 OpenBabel03272508503D

 40 44  0  0  0  0  0  0  0  0999 V2000
   36.5460   25.7650   32.0640 C   0  0  0  0  0  0  0  0  0  0  0  0
   35.4240   25.9360   31.2660 C   0  0  0  0  0  0  0  0  0  0  0  0
   35.0480   24.6240   30.9730 C   0  0  0  0  0  0  0  0  0  0  0  0
   35.9300   23.7570   31.5870 C   0  0  0  0  0  0  0  0  0  0  0  0
   36.8120   24.4840   32.2300 O   0  0  0  0  0  0  0  0  0  0  0  0
   34.9460   26.8540   30.9420 H   0  0  0  0  0  0  0  0  0  0  0  0
   34.1880   24.3580   30.3540 H   0  0  0  0  0  0  0  0  0  0  0  0
   34.9080   21.6240   32.2200 C   0  0  0  0  0  0  0  0  0  0  0  0
   35.9050   22.3000   31.5420 C   0  0  0  0  0  0  0  0  0  0  0  0
   36.8810   21.6350   30.8200 C   0  0  0  0  0  0  0  0  0  0  0  0
   36.8890   20.2490   30.7540 C   0  0  0  0  0  0  0  0  0  0  0  0
   37.6600   19.3270   30.1670 N   0  0  0  0  0  0  0  0  0  0  0  0
   37.1570   18.1340   30.4730 N   0  0  0  0  0  0  0  0  0  0  0  0
   36.0630   18.2730   31.2570 C   0  0  0  0  0  0  0  0  0  0  0  0
   35.8790   19.6310   31.4450 C   0  0  0  0  0  0  0  0  0  0  0  0
   34.8700   20.2230   32.1870 C   0  0  0  0  0  0  0  0  0  0  0  0
   34.1370   22.1260   32.7890 H   0  0  0  0  0  0  0  0  0  0  0  0
   37.6620   22.1690   30.2880 H   0  0  0  0  0  0  0  0  0  0  0  0
   38.4980   19.5480   29.5820 H   0  0  0  0  0  0  0  0  0  0  0  0
   35.4610   17.4540   31.6490 H   0  0  0  0  0  0  0  0  0  0  0  0
   34.1230   19.6600   32.6930 H   0  0  0  0  0  0  0  0  0  0  0  0
   37.3040   26.8780   32.6270 C   0  0  0  0  0  0  0  0  0  0  0  0
   36.8820   28.0370   32.4440 O   0  0  0  0  0  0  0  0  0  0  0  0
   40.7640   27.1220   33.7590 C   0  0  0  0  0  0  0  0  0  0  0  0
   40.8340   26.1670   34.7520 C   0  0  0  0  0  0  0  0  0  0  0  0
   39.7230   25.4240   35.0610 C   0  0  0  0  0  0  0  0  0  0  0  0
   38.5990   25.6740   34.3610 N   0  0  0  0  0  0  0  0  0  0  0  0
   38.5360   26.6080   33.3900 C   0  0  0  0  0  0  0  0  0  0  0  0
   39.6220   27.3300   33.0930 N   0  0  0  0  0  0  0  0  0  0  0  0
   41.6670   27.6840   33.5500 H   0  0  0  0  0  0  0  0  0  0  0  0
   41.7260   25.9530   35.3240 H   0  0  0  0  0  0  0  0  0  0  0  0
   39.6220   24.4050   36.0500 N   0  0  0  0  0  0  0  0  0  0  0  0
   40.6680   23.3960   36.2700 C   0  0  0  0  0  3  0  0  0  0  0  0
   41.2100   23.7170   37.1870 H   0  0  0  0  0  0  0  0  0  0  0  0
   40.0710   22.0480   36.5060 C   0  0  0  0  0  3  0  0  0  0  0  0
   40.6530   21.2770   35.9770 H   0  0  0  0  0  0  0  0  0  0  0  0
   38.6960   21.9260   36.0650 N   0  0  0  0  0  0  0  0  0  0  0  0
   38.6080   21.8710   35.0400 H   0  0  0  0  0  0  0  0  0  0  0  0
   37.8310   22.8850   36.6990 C   0  0  0  0  0  2  0  0  0  0  0  0
   38.5250   24.2030   36.9600 C   0  0  0  0  0  2  0  0  0  0  0  0
  1  5  1  0  0  0  0
  1 22  1  0  0  0  0
  2  1  2  0  0  0  0
  3  2  1  0  0  0  0
  3  4  2  0  0  0  0
  4  5  1  0  0  0  0
  6  2  1  0  0  0  0
  7  3  1  0  0  0  0
  8 17  1  0  0  0  0
  9  4  1  0  0  0  0
  9  8  2  0  0  0  0
 10  9  1  0  0  0  0
 11 10  2  0  0  0  0
 11 15  1  0  0  0  0
 12 13  1  0  0  0  0
 12 11  1  0  0  0  0
 13 14  2  0  0  0  0
 14 15  1  0  0  0  0
 14 20  1  0  0  0  0
 15 16  2  0  0  0  0
 16  8  1  0  0  0  0
 16 21  1  0  0  0  0
 18 10  1  0  0  0  0
 19 12  1  0  0  0  0
 22 28  1  0  0  0  0
 23 22  2  0  0  0  0
 24 25  1  0  0  0  0
 25 26  2  0  0  0  0
 25 31  1  0  0  0  0
 26 32  1  0  0  0  0
 27 26  1  0  0  0  0
 28 27  2  0  0  0  0
 29 28  1  0  0  0  0
 29 24  2  0  0  0  0
 30 24  1  0  0  0  0
 32 33  1  0  0  0  0
 32 40  1  0  0  0  0
 33 35  1  0  0  0  0
 33 34  1  0  0  0  0
 36 35  1  0  0  0  0
 37 35  1  0  0  0  0
 37 39  1  0  0  0  0
 38 37  1  0  0  0  0
 39 40  1  0  0  0  0
M  END
>  <minimizedAffinity>
-6.49876928

$$$$

 OpenBabel03272508503D

 40 44  0  0  0  0  0  0  0  0999 V2000
   37.1290   28.0030   31.6520 C   0  0  0  0  0  0  0  0  0  0  0  0
   36.7360   28.9580   30.7250 C   0  0  0  0  0  0  0  0  0  0  0  0
   35.8980   29.7880   31.4700 C   0  0  0  0  0  0  0  0  0  0  0  0
   35.8300   29.3110   32.7650 C   0  0  0  0  0  0  0  0  0  0  0  0
   36.5820   28.2390   32.8290 O   0  0  0  0  0  0  0  0  0  0  0  0
   37.0040   29.0490   29.6780 H   0  0  0  0  0  0  0  0  0  0  0  0
   35.3920   30.6680   31.0660 H   0  0  0  0  0  0  0  0  0  0  0  0
   33.7430   29.5130   34.0300 C   0  0  0  0  0  0  0  0  0  0  0  0
   35.0670   29.8770   33.8710 C   0  0  0  0  0  0  0  0  0  0  0  0
   35.6920   30.7620   34.7320 C   0  0  0  0  0  0  0  0  0  0  0  0
   34.9990   31.3200   35.7970 C   0  0  0  0  0  0  0  0  0  0  0  0
   35.2920   32.1780   36.7810 N   0  0  0  0  0  0  0  0  0  0  0  0
   34.1920   32.3340   37.5120 N   0  0  0  0  0  0  0  0  0  0  0  0
   33.1840   31.5850   37.0120 C   0  0  0  0  0  0  0  0  0  0  0  0
   33.6900   30.9250   35.9060 C   0  0  0  0  0  0  0  0  0  0  0  0
   32.9960   30.0480   35.0890 C   0  0  0  0  0  0  0  0  0  0  0  0
   33.2380   28.8230   33.3680 H   0  0  0  0  0  0  0  0  0  0  0  0
   36.7330   31.0440   34.6050 H   0  0  0  0  0  0  0  0  0  0  0  0
   36.2290   32.6210   36.9130 H   0  0  0  0  0  0  0  0  0  0  0  0
   32.1760   31.5290   37.4210 H   0  0  0  0  0  0  0  0  0  0  0  0
   31.9750   29.7990   35.2510 H   0  0  0  0  0  0  0  0  0  0  0  0
   38.0290   26.9000   31.3310 C   0  0  0  0  0  0  0  0  0  0  0  0
   38.8880   27.0730   30.4440 O   0  0  0  0  0  0  0  0  0  0  0  0
   37.2020   23.4150   32.0250 C   0  0  0  0  0  0  0  0  0  0  0  0
   37.6370   23.2450   33.3230 C   0  0  0  0  0  0  0  0  0  0  0  0
   38.2160   24.2950   33.9890 C   0  0  0  0  0  0  0  0  0  0  0  0
   38.3300   25.4610   33.3240 N   0  0  0  0  0  0  0  0  0  0  0  0
   37.9020   25.6220   32.0550 C   0  0  0  0  0  0  0  0  0  0  0  0
   37.3390   24.5950   31.4090 N   0  0  0  0  0  0  0  0  0  0  0  0
   36.7510   22.5570   31.5390 H   0  0  0  0  0  0  0  0  0  0  0  0
   37.5540   22.3180   33.8720 H   0  0  0  0  0  0  0  0  0  0  0  0
   38.7150   24.2920   35.3220 N   0  0  0  0  0  0  0  0  0  0  0  0
   39.9850   23.6550   35.7010 C   0  0  0  0  0  3  0  0  0  0  0  0
   40.7150   24.4860   35.8230 H   0  0  0  0  0  0  0  0  0  0  0  0
   39.8550   22.9280   36.9990 C   0  0  0  0  0  3  0  0  0  0  0  0
   40.3860   21.9650   36.9500 H   0  0  0  0  0  0  0  0  0  0  0  0
   38.4860   22.6440   37.3810 N   0  0  0  0  0  0  0  0  0  0  0  0
   38.0650   21.8860   36.8250 H   0  0  0  0  0  0  0  0  0  0  0  0
   37.6870   23.8360   37.4850 C   0  0  0  0  0  2  0  0  0  0  0  0
   38.0850   24.8870   36.4720 C   0  0  0  0  0  2  0  0  0  0  0  0
  1  5  1  0  0  0  0
  2  3  1  0  0  0  0
  2  1  2  0  0  0  0
  3  4  2  0  0  0  0
  4  5  1  0  0  0  0
  4  9  1  0  0  0  0
  6  2  1  0  0  0  0
  7  3  1  0  0  0  0
  8 16  1  0  0  0  0
  9  8  2  0  0  0  0
  9 10  1  0  0  0  0
 10 11  2  0  0  0  0
 11 15  1  0  0  0  0
 11 12  1  0  0  0  0
 12 19  1  0  0  0  0
 12 13  1  0  0  0  0
 14 20  1  0  0  0  0
 14 13  2  0  0  0  0
 15 14  1  0  0  0  0
 16 21  1  0  0  0  0
 16 15  2  0  0  0  0
 17  8  1  0  0  0  0
 18 10  1  0  0  0  0
 22  1  1  0  0  0  0
 22 28  1  0  0  0  0
 23 22  2  0  0  0  0
 24 25  1  0  0  0  0
 25 31  1  0  0  0  0
 25 26  2  0  0  0  0
 26 32  1  0  0  0  0
 27 26  1  0  0  0  0
 28 27  2  0  0  0  0
 29 24  2  0  0  0  0
 29 28  1  0  0  0  0
 30 24  1  0  0  0  0
 32 33  1  0  0  0  0
 32 40  1  0  0  0  0
 33 34  1  0  0  0  0
 33 35  1  0  0  0  0
 35 37  1  0  0  0  0
 36 35  1  0  0  0  0
 37 39  1  0  0  0  0
 38 37  1  0  0  0  0
 40 39  1  0  0  0  0
M  END
>  <minimizedAffinity>
-6.43927813

$$$$

 OpenBabel03272508503D

 40 44  0  0  0  0  0  0  0  0999 V2000
   37.2350   27.1120   33.7390 C   0  0  0  0  0  0  0  0  0  0  0  0
   37.2160   27.7340   34.9800 C   0  0  0  0  0  0  0  0  0  0  0  0
   38.1000   26.9560   35.7310 C   0  0  0  0  0  0  0  0  0  0  0  0
   38.5910   25.9410   34.9330 C   0  0  0  0  0  0  0  0  0  0  0  0
   38.0460   26.0730   33.7480 O   0  0  0  0  0  0  0  0  0  0  0  0
   36.6580   28.6050   35.3020 H   0  0  0  0  0  0  0  0  0  0  0  0
   38.3430   27.1460   36.7790 H   0  0  0  0  0  0  0  0  0  0  0  0
   40.7180   24.7730   34.6030 C   0  0  0  0  0  0  0  0  0  0  0  0
   39.5410   24.9040   35.3170 C   0  0  0  0  0  0  0  0  0  0  0  0
   39.2380   24.0800   36.3870 C   0  0  0  0  0  0  0  0  0  0  0  0
   40.1170   23.0820   36.7820 C   0  0  0  0  0  0  0  0  0  0  0  0
   40.1310   22.1460   37.7370 N   0  0  0  0  0  0  0  0  0  0  0  0
   41.2690   21.4680   37.6150 N   0  0  0  0  0  0  0  0  0  0  0  0
   41.9970   21.9560   36.5850 C   0  0  0  0  0  0  0  0  0  0  0  0
   41.2670   22.9960   36.0390 C   0  0  0  0  0  0  0  0  0  0  0  0
   41.6420   23.7800   34.9600 C   0  0  0  0  0  0  0  0  0  0  0  0
   40.9730   25.4070   33.7650 H   0  0  0  0  0  0  0  0  0  0  0  0
   38.3130   24.1860   36.9460 H   0  0  0  0  0  0  0  0  0  0  0  0
   39.3640   22.0070   38.4340 H   0  0  0  0  0  0  0  0  0  0  0  0
   42.9700   21.5820   36.2680 H   0  0  0  0  0  0  0  0  0  0  0  0
   42.5600   23.6410   34.4410 H   0  0  0  0  0  0  0  0  0  0  0  0
   36.4490   27.5770   32.6010 C   0  0  0  0  0  0  0  0  0  0  0  0
   35.8950   26.7290   31.8750 O   0  0  0  0  0  0  0  0  0  0  0  0
   36.6780   30.7860   30.8800 C   0  0  0  0  0  0  0  0  0  0  0  0
   36.1400   31.6680   31.7940 C   0  0  0  0  0  0  0  0  0  0  0  0
   35.6910   31.2030   33.0040 C   0  0  0  0  0  0  0  0  0  0  0  0
   35.8020   29.8810   33.2380 N   0  0  0  0  0  0  0  0  0  0  0  0
   36.3290   29.0230   32.3410 C   0  0  0  0  0  0  0  0  0  0  0  0
   36.7660   29.4810   31.1620 N   0  0  0  0  0  0  0  0  0  0  0  0
   37.0210   31.2000   29.9380 H   0  0  0  0  0  0  0  0  0  0  0  0
   36.0430   32.7310   31.6240 H   0  0  0  0  0  0  0  0  0  0  0  0
   35.1120   31.9710   34.0550 N   0  0  0  0  0  0  0  0  0  0  0  0
   35.7520   33.1680   34.6180 C   0  0  0  0  0  3  0  0  0  0  0  0
   35.2070   34.0360   34.1840 H   0  0  0  0  0  0  0  0  0  0  0  0
   35.6140   33.2020   36.1040 C   0  0  0  0  0  3  0  0  0  0  0  0
   36.5540   33.5430   36.5660 H   0  0  0  0  0  0  0  0  0  0  0  0
   35.2860   31.9200   36.6950 N   0  0  0  0  0  0  0  0  0  0  0  0
   36.0840   31.2690   36.7060 H   0  0  0  0  0  0  0  0  0  0  0  0
   34.0630   31.3730   36.1710 C   0  0  0  0  0  2  0  0  0  0  0  0
   33.8580   31.7120   34.7120 C   0  0  0  0  0  2  0  0  0  0  0  0
  1  5  1  0  0  0  0
  1  2  2  0  0  0  0
  2  6  1  0  0  0  0
  2  3  1  0  0  0  0
  3  7  1  0  0  0  0
  4  9  1  0  0  0  0
  4  3  2  0  0  0  0
  5  4  1  0  0  0  0
  8 16  2  0  0  0  0
  8  9  1  0  0  0  0
  9 10  2  0  0  0  0
 10 11  1  0  0  0  0
 10 18  1  0  0  0  0
 11 12  1  0  0  0  0
 12 19  1  0  0  0  0
 13 12  1  0  0  0  0
 14 13  2  0  0  0  0
 15 14  1  0  0  0  0
 15 11  2  0  0  0  0
 16 15  1  0  0  0  0
 17  8  1  0  0  0  0
 20 14  1  0  0  0  0
 21 16  1  0  0  0  0
 22  1  1  0  0  0  0
 23 22  2  0  0  0  0
 24 29  2  0  0  0  0
 24 25  1  0  0  0  0
 25 26  2  0  0  0  0
 26 27  1  0  0  0  0
 26 32  1  0  0  0  0
 28 22  1  0  0  0  0
 28 27  2  0  0  0  0
 29 28  1  0  0  0  0
 30 24  1  0  0  0  0
 31 25  1  0  0  0  0
 32 33  1  0  0  0  0
 32 40  1  0  0  0  0
 33 35  1  0  0  0  0
 34 33  1  0  0  0  0
 35 36  1  0  0  0  0
 35 37  1  0  0  0  0
 37 38  1  0  0  0  0
 39 37  1  0  0  0  0
 40 39  1  0  0  0  0
M  END
>  <minimizedAffinity>
-6.4102397

$$$$

 OpenBabel03272508503D

 40 44  0  0  0  0  0  0  0  0999 V2000
   37.9420   25.1380   35.5850 C   0  0  0  0  0  0  0  0  0  0  0  0
   38.4230   26.1260   36.4340 C   0  0  0  0  0  0  0  0  0  0  0  0
   38.0770   27.3030   35.7690 C   0  0  0  0  0  0  0  0  0  0  0  0
   37.4270   26.9790   34.5940 C   0  0  0  0  0  0  0  0  0  0  0  0
   37.3690   25.6720   34.5240 O   0  0  0  0  0  0  0  0  0  0  0  0
   38.9410   26.0230   37.3810 H   0  0  0  0  0  0  0  0  0  0  0  0
   38.2980   28.3050   36.1440 H   0  0  0  0  0  0  0  0  0  0  0  0
   37.3760   27.8450   32.3040 C   0  0  0  0  0  0  0  0  0  0  0  0
   36.8970   27.9040   33.5990 C   0  0  0  0  0  0  0  0  0  0  0  0
   35.9270   28.8150   33.9810 C   0  0  0  0  0  0  0  0  0  0  0  0
   35.3980   29.7100   33.0620 C   0  0  0  0  0  0  0  0  0  0  0  0
   34.4830   30.6850   33.0990 N   0  0  0  0  0  0  0  0  0  0  0  0
   34.4040   31.2030   31.8760 N   0  0  0  0  0  0  0  0  0  0  0  0
   35.2620   30.5730   31.0430 C   0  0  0  0  0  0  0  0  0  0  0  0
   35.9090   29.6080   31.7940 C   0  0  0  0  0  0  0  0  0  0  0  0
   36.8760   28.7280   31.3350 C   0  0  0  0  0  0  0  0  0  0  0  0
   38.1320   27.1410   31.9870 H   0  0  0  0  0  0  0  0  0  0  0  0
   35.5520   28.8580   34.9990 H   0  0  0  0  0  0  0  0  0  0  0  0
   33.9490   30.9580   33.9560 H   0  0  0  0  0  0  0  0  0  0  0  0
   35.3980   30.8010   29.9860 H   0  0  0  0  0  0  0  0  0  0  0  0
   37.2130   28.7200   30.3270 H   0  0  0  0  0  0  0  0  0  0  0  0
   38.0730   23.7120   35.8640 C   0  0  0  0  0  0  0  0  0  0  0  0
   37.9220   23.3200   37.0380 O   0  0  0  0  0  0  0  0  0  0  0  0
   39.9850   21.7090   33.4890 C   0  0  0  0  0  0  0  0  0  0  0  0
   39.0030   21.0780   32.7530 C   0  0  0  0  0  0  0  0  0  0  0  0
   37.6830   21.3120   33.0400 C   0  0  0  0  0  0  0  0  0  0  0  0
   37.4110   22.1650   34.0480 N   0  0  0  0  0  0  0  0  0  0  0  0
   38.3750   22.7790   34.7630 C   0  0  0  0  0  0  0  0  0  0  0  0
   39.6610   22.5480   34.4800 N   0  0  0  0  0  0  0  0  0  0  0  0
   41.0150   21.4940   33.2250 H   0  0  0  0  0  0  0  0  0  0  0  0
   39.2020   20.3910   31.9430 H   0  0  0  0  0  0  0  0  0  0  0  0
   36.5520   20.7480   32.3850 N   0  0  0  0  0  0  0  0  0  0  0  0
   35.5280   19.9610   33.0880 C   0  0  0  0  0  3  0  0  0  0  0  0
   34.6550   20.6400   33.2090 H   0  0  0  0  0  0  0  0  0  0  0  0
   35.1130   18.7760   32.2790 C   0  0  0  0  0  3  0  0  0  0  0  0
   34.9960   17.8950   32.9290 H   0  0  0  0  0  0  0  0  0  0  0  0
   36.0510   18.4170   31.2340 N   0  0  0  0  0  0  0  0  0  0  0  0
   36.9030   17.9680   31.5980 H   0  0  0  0  0  0  0  0  0  0  0  0
   36.2810   19.4970   30.3110 C   0  0  0  0  0  2  0  0  0  0  0  0
   36.2370   20.8500   30.9840 C   0  0  0  0  0  2  0  0  0  0  0  0
  1 22  1  0  0  0  0
  1  2  2  0  0  0  0
  2  6  1  0  0  0  0
  3  7  1  0  0  0  0
  3  2  1  0  0  0  0
  4  3  2  0  0  0  0
  5  4  1  0  0  0  0
  5  1  1  0  0  0  0
  8  9  1  0  0  0  0
  9 10  2  0  0  0  0
  9  4  1  0  0  0  0
 10 18  1  0  0  0  0
 11 12  1  0  0  0  0
 11 10  1  0  0  0  0
 12 19  1  0  0  0  0
 13 12  1  0  0  0  0
 14 15  1  0  0  0  0
 14 13  2  0  0  0  0
 15 11  2  0  0  0  0
 16 15  1  0  0  0  0
 16  8  2  0  0  0  0
 17  8  1  0  0  0  0
 20 14  1  0  0  0  0
 21 16  1  0  0  0  0
 22 23  2  0  0  0  0
 24 29  1  0  0  0  0
 25 26  1  0  0  0  0
 25 24  2  0  0  0  0
 26 27  2  0  0  0  0
 27 28  1  0  0  0  0
 28 22  1  0  0  0  0
 29 28  2  0  0  0  0
 30 24  1  0  0  0  0
 31 25  1  0  0  0  0
 32 26  1  0  0  0  0
 32 33  1  0  0  0  0
 33 34  1  0  0  0  0
 35 36  1  0  0  0  0
 35 33  1  0  0  0  0
 37 38  1  0  0  0  0
 37 35  1  0  0  0  0
 39 40  1  0  0  0  0
 39 37  1  0  0  0  0
 40 32  1  0  0  0  0
M  END
>  <minimizedAffinity>
-6.36741304

$$$$

 OpenBabel03272508503D

 40 44  0  0  0  0  0  0  0  0999 V2000
   38.1850   26.6870   33.8270 C   0  0  0  0  0  0  0  0  0  0  0  0
   38.3120   27.4500   34.9800 C   0  0  0  0  0  0  0  0  0  0  0  0
   39.2130   26.7080   35.7460 C   0  0  0  0  0  0  0  0  0  0  0  0
   39.5720   25.5760   35.0420 C   0  0  0  0  0  0  0  0  0  0  0  0
   38.9320   25.6030   33.8980 O   0  0  0  0  0  0  0  0  0  0  0  0
   37.8360   28.3900   35.2360 H   0  0  0  0  0  0  0  0  0  0  0  0
   39.5600   27.0030   36.7390 H   0  0  0  0  0  0  0  0  0  0  0  0
   41.7760   24.5110   34.9620 C   0  0  0  0  0  0  0  0  0  0  0  0
   40.4910   24.5280   35.4720 C   0  0  0  0  0  0  0  0  0  0  0  0
   40.0510   23.5820   36.3800 C   0  0  0  0  0  0  0  0  0  0  0  0
   40.8970   22.5710   36.8130 C   0  0  0  0  0  0  0  0  0  0  0  0
   40.7930   21.5340   37.6530 N   0  0  0  0  0  0  0  0  0  0  0  0
   41.9660   20.9070   37.6570 N   0  0  0  0  0  0  0  0  0  0  0  0
   42.8340   21.5270   36.8250 C   0  0  0  0  0  0  0  0  0  0  0  0
   42.1580   22.6010   36.2750 C   0  0  0  0  0  0  0  0  0  0  0  0
   42.6720   23.5110   35.3660 C   0  0  0  0  0  0  0  0  0  0  0  0
   42.1390   25.2420   34.2520 H   0  0  0  0  0  0  0  0  0  0  0  0
   39.0410   23.5990   36.7790 H   0  0  0  0  0  0  0  0  0  0  0  0
   39.9270   21.2970   38.1880 H   0  0  0  0  0  0  0  0  0  0  0  0
   43.8620   21.2180   36.6430 H   0  0  0  0  0  0  0  0  0  0  0  0
   43.6700   23.4560   35.0010 H   0  0  0  0  0  0  0  0  0  0  0  0
   37.3290   27.0670   32.7080 C   0  0  0  0  0  0  0  0  0  0  0  0
   37.3380   28.2550   32.3290 O   0  0  0  0  0  0  0  0  0  0  0  0
   34.7360   25.5860   30.6120 C   0  0  0  0  0  0  0  0  0  0  0  0
   34.8950   24.2330   30.8300 C   0  0  0  0  0  0  0  0  0  0  0  0
   35.8740   23.7930   31.6840 C   0  0  0  0  0  0  0  0  0  0  0  0
   36.6440   24.7270   32.2750 N   0  0  0  0  0  0  0  0  0  0  0  0
   36.4840   26.0480   32.0590 C   0  0  0  0  0  0  0  0  0  0  0  0
   35.5280   26.4730   31.2250 N   0  0  0  0  0  0  0  0  0  0  0  0
   33.9490   25.8870   29.9290 H   0  0  0  0  0  0  0  0  0  0  0  0
   34.2870   23.4700   30.3650 H   0  0  0  0  0  0  0  0  0  0  0  0
   36.1720   22.4420   32.0200 N   0  0  0  0  0  0  0  0  0  0  0  0
   35.1360   21.4480   32.3390 C   0  0  0  0  0  3  0  0  0  0  0  0
   35.0380   20.8120   31.4310 H   0  0  0  0  0  0  0  0  0  0  0  0
   35.5500   20.5920   33.4900 C   0  0  0  0  0  3  0  0  0  0  0  0
   34.6960   20.4210   34.1630 H   0  0  0  0  0  0  0  0  0  0  0  0
   36.6200   21.1560   34.2900 N   0  0  0  0  0  0  0  0  0  0  0  0
   36.3060   21.9370   34.8830 H   0  0  0  0  0  0  0  0  0  0  0  0
   37.8030   21.4180   33.5140 C   0  0  0  0  0  2  0  0  0  0  0  0
   37.4820   21.8500   32.1010 C   0  0  0  0  0  2  0  0  0  0  0  0
  1  5  1  0  0  0  0
  1  2  2  0  0  0  0
  2  6  1  0  0  0  0
  2  3  1  0  0  0  0
  3  7  1  0  0  0  0
  4  9  1  0  0  0  0
  4  3  2  0  0  0  0
  5  4  1  0  0  0  0
  8 16  2  0  0  0  0
  8  9  1  0  0  0  0
  9 10  2  0  0  0  0
 10 18  1  0  0  0  0
 10 11  1  0  0  0  0
 11 12  1  0  0  0  0
 12 13  1  0  0  0  0
 12 19  1  0  0  0  0
 14 13  2  0  0  0  0
 15 11  2  0  0  0  0
 15 14  1  0  0  0  0
 16 15  1  0  0  0  0
 17  8  1  0  0  0  0
 20 14  1  0  0  0  0
 21 16  1  0  0  0  0
 22  1  1  0  0  0  0
 23 22  2  0  0  0  0
 24 25  2  0  0  0  0
 24 29  1  0  0  0  0
 25 26  1  0  0  0  0
 26 32  1  0  0  0  0
 26 27  2  0  0  0  0
 28 27  1  0  0  0  0
 28 22  1  0  0  0  0
 29 28  2  0  0  0  0
 30 24  1  0  0  0  0
 31 25  1  0  0  0  0
 32 40  1  0  0  0  0
 32 33  1  0  0  0  0
 33 35  1  0  0  0  0
 34 33  1  0  0  0  0
 35 36  1  0  0  0  0
 35 37  1  0  0  0  0
 37 38  1  0  0  0  0
 39 37  1  0  0  0  0
 40 39  1  0  0  0  0
M  END
>  <minimizedAffinity>
-6.36181068

$$$$

 OpenBabel03272508503D

 40 44  0  0  0  0  0  0  0  0999 V2000
   36.0560   26.8210   31.3870 C   0  0  0  0  0  0  0  0  0  0  0  0
   37.1790   27.3220   30.7440 C   0  0  0  0  0  0  0  0  0  0  0  0
   37.2830   28.6140   31.2620 C   0  0  0  0  0  0  0  0  0  0  0  0
   36.2540   28.8210   32.1600 C   0  0  0  0  0  0  0  0  0  0  0  0
   35.5430   27.7220   32.2030 O   0  0  0  0  0  0  0  0  0  0  0  0
   37.8250   26.8420   30.0180 H   0  0  0  0  0  0  0  0  0  0  0  0
   38.0660   29.3240   30.9820 H   0  0  0  0  0  0  0  0  0  0  0  0
   35.8080   31.2270   32.2570 C   0  0  0  0  0  0  0  0  0  0  0  0
   35.9890   30.0320   32.9280 C   0  0  0  0  0  0  0  0  0  0  0  0
   35.9240   29.9500   34.3080 C   0  0  0  0  0  0  0  0  0  0  0  0
   35.6730   31.0800   35.0720 C   0  0  0  0  0  0  0  0  0  0  0  0
   35.5500   31.3410   36.3790 N   0  0  0  0  0  0  0  0  0  0  0  0
   35.3050   32.6420   36.5040 N   0  0  0  0  0  0  0  0  0  0  0  0
   35.2670   33.2320   35.2870 C   0  0  0  0  0  0  0  0  0  0  0  0
   35.5020   32.2370   34.3550 C   0  0  0  0  0  0  0  0  0  0  0  0
   35.5520   32.4010   32.9810 C   0  0  0  0  0  0  0  0  0  0  0  0
   35.8540   31.3110   31.1800 H   0  0  0  0  0  0  0  0  0  0  0  0
   36.0660   29.0090   34.8310 H   0  0  0  0  0  0  0  0  0  0  0  0
   35.6380   30.6200   37.1310 H   0  0  0  0  0  0  0  0  0  0  0  0
   35.0840   34.2900   35.1050 H   0  0  0  0  0  0  0  0  0  0  0  0
   35.4060   33.3430   32.5090 H   0  0  0  0  0  0  0  0  0  0  0  0
   35.5410   25.4740   31.1640 C   0  0  0  0  0  0  0  0  0  0  0  0
   34.4750   25.3430   30.5310 O   0  0  0  0  0  0  0  0  0  0  0  0
   36.8610   22.0840   31.4380 C   0  0  0  0  0  0  0  0  0  0  0  0
   37.6300   22.1410   32.5820 C   0  0  0  0  0  0  0  0  0  0  0  0
   37.7210   23.3180   33.2810 C   0  0  0  0  0  0  0  0  0  0  0  0
   37.0380   24.3760   32.8020 N   0  0  0  0  0  0  0  0  0  0  0  0
   36.2870   24.3140   31.6840 C   0  0  0  0  0  0  0  0  0  0  0  0
   36.2010   23.1650   31.0050 N   0  0  0  0  0  0  0  0  0  0  0  0
   36.8190   21.1330   30.9180 H   0  0  0  0  0  0  0  0  0  0  0  0
   38.1840   21.3040   32.9800 H   0  0  0  0  0  0  0  0  0  0  0  0
   38.4640   23.5490   34.4730 N   0  0  0  0  0  0  0  0  0  0  0  0
   39.6620   22.7770   34.8330 C   0  0  0  0  0  3  0  0  0  0  0  0
   40.5280   23.4370   34.6050 H   0  0  0  0  0  0  0  0  0  0  0  0
   39.6720   22.4490   36.2900 C   0  0  0  0  0  3  0  0  0  0  0  0
   40.0190   21.4150   36.4440 H   0  0  0  0  0  0  0  0  0  0  0  0
   38.3760   22.5670   36.9290 N   0  0  0  0  0  0  0  0  0  0  0  0
   37.7360   21.7990   36.6810 H   0  0  0  0  0  0  0  0  0  0  0  0
   37.8200   23.8870   36.7990 C   0  0  0  0  0  2  0  0  0  0  0  0
   38.1780   24.5360   35.4810 C   0  0  0  0  0  2  0  0  0  0  0  0
  1  5  1  0  0  0  0
  2  3  1  0  0  0  0
  2  1  2  0  0  0  0
  3  4  2  0  0  0  0
  4  5  1  0  0  0  0
  4  9  1  0  0  0  0
  6  2  1  0  0  0  0
  7  3  1  0  0  0  0
  8  9  2  0  0  0  0
  8 16  1  0  0  0  0
  9 10  1  0  0  0  0
 10 18  1  0  0  0  0
 10 11  2  0  0  0  0
 11 12  1  0  0  0  0
 12 13  1  0  0  0  0
 12 19  1  0  0  0  0
 14 13  2  0  0  0  0
 15 11  1  0  0  0  0
 15 14  1  0  0  0  0
 16 15  2  0  0  0  0
 17  8  1  0  0  0  0
 20 14  1  0  0  0  0
 21 16  1  0  0  0  0
 22  1  1  0  0  0  0
 22 28  1  0  0  0  0
 23 22  2  0  0  0  0
 24 25  1  0  0  0  0
 25 31  1  0  0  0  0
 25 26  2  0  0  0  0
 26 32  1  0  0  0  0
 27 26  1  0  0  0  0
 28 27  2  0  0  0  0
 29 24  2  0  0  0  0
 29 28  1  0  0  0  0
 30 24  1  0  0  0  0
 32 33  1  0  0  0  0
 32 40  1  0  0  0  0
 33 35  1  0  0  0  0
 34 33  1  0  0  0  0
 35 36  1  0  0  0  0
 35 37  1  0  0  0  0
 38 37  1  0  0  0  0
 39 37  1  0  0  0  0
 40 39  1  0  0  0  0
M  END
>  <minimizedAffinity>
-6.3103919

$$$$

 OpenBabel03272508503D

 40 44  0  0  0  0  0  0  0  0999 V2000
   37.1390   26.5860   33.6260 C   0  0  0  0  0  0  0  0  0  0  0  0
   37.2990   27.5490   34.6130 C   0  0  0  0  0  0  0  0  0  0  0  0
   38.0310   26.8720   35.5900 C   0  0  0  0  0  0  0  0  0  0  0  0
   38.2690   25.5820   35.1590 C   0  0  0  0  0  0  0  0  0  0  0  0
   37.7150   25.4530   33.9780 O   0  0  0  0  0  0  0  0  0  0  0  0
   36.9480   28.5740   34.6340 H   0  0  0  0  0  0  0  0  0  0  0  0
   38.3510   27.3200   36.5340 H   0  0  0  0  0  0  0  0  0  0  0  0
   38.5050   24.0800   37.0790 C   0  0  0  0  0  0  0  0  0  0  0  0
   38.9970   24.5380   35.8700 C   0  0  0  0  0  0  0  0  0  0  0  0
   40.1590   24.0330   35.3150 C   0  0  0  0  0  0  0  0  0  0  0  0
   40.8790   23.0390   35.9620 C   0  0  0  0  0  0  0  0  0  0  0  0
   42.0020   22.3570   35.7110 N   0  0  0  0  0  0  0  0  0  0  0  0
   42.1910   21.5160   36.7240 N   0  0  0  0  0  0  0  0  0  0  0  0
   41.1990   21.6450   37.6340 C   0  0  0  0  0  0  0  0  0  0  0  0
   40.3460   22.6240   37.1560 C   0  0  0  0  0  0  0  0  0  0  0  0
   39.1930   23.0760   37.7760 C   0  0  0  0  0  0  0  0  0  0  0  0
   37.5980   24.4610   37.5290 H   0  0  0  0  0  0  0  0  0  0  0  0
   40.5420   24.3950   34.3650 H   0  0  0  0  0  0  0  0  0  0  0  0
   42.5930   22.4920   34.8590 H   0  0  0  0  0  0  0  0  0  0  0  0
   41.1130   21.0750   38.5580 H   0  0  0  0  0  0  0  0  0  0  0  0
   38.8540   22.6930   38.7080 H   0  0  0  0  0  0  0  0  0  0  0  0
   36.4210   26.8320   32.3790 C   0  0  0  0  0  0  0  0  0  0  0  0
   36.1990   25.8670   31.6200 O   0  0  0  0  0  0  0  0  0  0  0  0
   36.3640   30.1490   30.8620 C   0  0  0  0  0  0  0  0  0  0  0  0
   35.2280   30.7180   31.4020 C   0  0  0  0  0  0  0  0  0  0  0  0
   34.4610   30.0000   32.2830 C   0  0  0  0  0  0  0  0  0  0  0  0
   34.8680   28.7500   32.5800 N   0  0  0  0  0  0  0  0  0  0  0  0
   35.9790   28.1990   32.0510 C   0  0  0  0  0  0  0  0  0  0  0  0
   36.7240   28.9030   31.1920 N   0  0  0  0  0  0  0  0  0  0  0  0
   36.9390   30.7550   30.1710 H   0  0  0  0  0  0  0  0  0  0  0  0
   34.8870   31.7180   31.1750 H   0  0  0  0  0  0  0  0  0  0  0  0
   33.2680   30.4320   32.9280 N   0  0  0  0  0  0  0  0  0  0  0  0
   32.6180   29.6710   34.0050 C   0  0  0  0  0  3  0  0  0  0  0  0
   32.8800   30.1990   34.9490 H   0  0  0  0  0  0  0  0  0  0  0  0
   31.1340   29.6710   33.8430 C   0  0  0  0  0  3  0  0  0  0  0  0
   30.7260   28.6740   34.0720 H   0  0  0  0  0  0  0  0  0  0  0  0
   30.6860   30.0230   32.5100 N   0  0  0  0  0  0  0  0  0  0  0  0
   30.8380   29.2680   31.8250 H   0  0  0  0  0  0  0  0  0  0  0  0
   31.1540   31.3190   32.0990 C   0  0  0  0  0  2  0  0  0  0  0  0
   32.5300   31.6340   32.6430 C   0  0  0  0  0  2  0  0  0  0  0  0
  1  5  1  0  0  0  0
  1  2  2  0  0  0  0
  2  6  1  0  0  0  0
  2  3  1  0  0  0  0
  3  7  1  0  0  0  0
  4  3  2  0  0  0  0
  4  9  1  0  0  0  0
  5  4  1  0  0  0  0
  8 17  1  0  0  0  0
  8 16  1  0  0  0  0
  9  8  2  0  0  0  0
 10  9  1  0  0  0  0
 10 11  2  0  0  0  0
 11 15  1  0  0  0  0
 12 11  1  0  0  0  0
 12 13  1  0  0  0  0
 13 14  2  0  0  0  0
 14 20  1  0  0  0  0
 15 14  1  0  0  0  0
 15 16  2  0  0  0  0
 16 21  1  0  0  0  0
 18 10  1  0  0  0  0
 19 12  1  0  0  0  0
 22  1  1  0  0  0  0
 23 22  2  0  0  0  0
 24 29  2  0  0  0  0
 24 25  1  0  0  0  0
 25 26  2  0  0  0  0
 26 27  1  0  0  0  0
 26 32  1  0  0  0  0
 28 22  1  0  0  0  0
 28 27  2  0  0  0  0
 29 28  1  0  0  0  0
 30 24  1  0  0  0  0
 31 25  1  0  0  0  0
 32 33  1  0  0  0  0
 33 34  1  0  0  0  0
 35 33  1  0  0  0  0
 35 36  1  0  0  0  0
 37 35  1  0  0  0  0
 38 37  1  0  0  0  0
 39 37  1  0  0  0  0
 39 40  1  0  0  0  0
 40 32  1  0  0  0  0
M  END
>  <minimizedAffinity>
-6.28551531

$$$$
