
 OpenBabel03272510263D

 45 49  0  0  1  0  0  0  0  0999 V2000
   39.5200   33.6150   43.4790 O   0  0  0  0  0  0  0  0  0  0  0  0
   36.2050   30.2330   47.0000 C   0  0  0  0  0  0  0  0  0  0  0  0
   37.0590   30.7540   47.9690 C   0  0  0  0  0  0  0  0  0  0  0  0
   38.0740   31.6500   47.6270 C   0  0  0  0  0  0  0  0  0  0  0  0
   38.1700   31.9780   46.2810 C   0  0  0  0  0  0  0  0  0  0  0  0
   39.0770   32.8310   45.7030 N   0  0  0  0  0  0  0  0  0  0  0  0
   38.7960   32.8470   44.3920 C   0  0  0  0  0  0  0  0  0  0  0  0
   37.7740   32.0530   44.1450 N   0  0  0  0  0  0  0  0  0  0  0  0
   37.3510   31.4900   45.2900 C   0  0  0  0  0  0  0  0  0  0  0  0
   36.3430   30.5940   45.6640 C   0  0  0  0  0  0  0  0  0  0  0  0
   35.4080   29.5310   47.2610 H   0  0  0  0  0  0  0  0  0  0  0  0
   38.7380   32.0570   48.3680 H   0  0  0  0  0  0  0  0  0  0  0  0
   39.8390   33.3630   46.2150 H   0  0  0  0  0  0  0  0  0  0  0  0
   35.7000   30.2130   44.8830 H   0  0  0  0  0  0  0  0  0  0  0  0
   37.4070   30.0770   51.6440 C   0  0  0  0  0  0  0  0  0  0  0  0
   37.7500   30.5440   50.3770 C   0  0  0  0  0  0  0  0  0  0  0  0
   36.8580   30.3340   49.3390 C   0  0  0  0  0  0  0  0  0  0  0  0
   35.6930   29.6760   49.6350 N   0  0  0  0  0  0  0  0  0  0  0  0
   35.3820   29.2330   50.8650 C   0  0  0  0  0  0  0  0  0  0  0  0
   36.2370   29.4360   51.8520 N   0  0  0  0  0  0  0  0  0  0  0  0
   38.1630   30.2790   52.4180 H   0  0  0  0  0  0  0  0  0  0  0  0
   38.6630   31.0580   50.1520 H   0  0  0  0  0  0  0  0  0  0  0  0
   34.4540   28.7210   51.0520 H   0  0  0  0  0  0  0  0  0  0  0  0
   39.7260   31.7540   42.1310 N   0  0  0  0  0  0  0  0  0  0  0  0
   39.4640   33.1860   42.1260 C   0  0  1  0  0  0  0  0  0  0  0  0
   38.1560   33.4610   41.5530 C   0  0  0  0  0  0  0  0  0  0  0  0
   38.1560   33.0380   40.2120 O   0  0  0  0  0  0  0  0  0  0  0  0
   38.5130   31.7380   40.0060 C   0  0  0  0  0  0  0  0  0  0  0  0
   39.7980   31.3960   40.7370 C   0  0  2  0  0  0  0  0  0  0  0  0
   39.0310   31.1490   42.5330 H   0  0  0  0  0  0  0  0  0  0  0  0
   40.2620   33.6440   41.5220 H   0  0  0  0  0  0  0  0  0  0  0  0
   37.2320   33.1130   41.9260 H   0  0  0  0  0  0  0  0  0  0  0  0
   38.0620   34.5860   41.4630 H   0  0  0  0  0  0  0  0  0  0  0  0
   38.7540   31.6410   38.9280 H   0  0  0  0  0  0  0  0  0  0  0  0
   37.6520   31.1070   40.3310 H   0  0  0  0  0  0  0  0  0  0  0  0
   40.5640   32.1010   40.2970 H   0  0  0  0  0  0  0  0  0  0  0  0
   40.2720   30.0810   40.4930 N   0  0  1  0  0  0  0  0  0  0  0  0
   41.3920   30.0360   39.5670 C   0  0  0  0  0  3  0  0  0  0  0  0
   42.1240   30.8320   39.7010 H   0  0  0  0  0  0  0  0  0  0  0  0
   42.0810   28.7040   39.7110 C   0  0  0  0  0  3  0  0  0  0  0  0
   42.8780   28.6950   40.4770 H   0  0  0  0  0  0  0  0  0  0  0  0
   41.1480   27.6240   39.9640 N   0  0  0  0  0  0  0  0  0  0  0  0
   40.5350   27.5520   39.1070 H   0  0  0  0  0  0  0  0  0  0  0  0
   40.4240   27.8210   41.1850 C   0  0  0  0  0  2  0  0  0  0  0  0
   40.5850   29.2810   41.6280 C   0  0  0  0  0  2  0  0  0  0  0  0
  1  7  1  0  0  0  0
  2 11  1  0  0  0  0
  2  3  1  0  0  0  0
  3 17  1  0  0  0  0
  4  3  2  0  0  0  0
  4 12  1  0  0  0  0
  5  4  1  0  0  0  0
  6 13  1  0  0  0  0
  6  5  1  0  0  0  0
  7  6  1  0  0  0  0
  8  7  2  0  0  0  0
  8  9  1  0  0  0  0
  9 10  1  0  0  0  0
  9  5  2  0  0  0  0
 10  2  2  0  0  0  0
 14 10  1  0  0  0  0
 15 20  1  0  0  0  0
 15 21  1  0  0  0  0
 16 15  2  0  0  0  0
 17 18  2  0  0  0  0
 17 16  1  0  0  0  0
 18 19  1  0  0  0  0
 19 23  1  0  0  0  0
 19 20  2  0  0  0  0
 22 16  1  0  0  0  0
 24 30  1  0  0  0  0
 25 31  1  6  0  0  0
 25 24  1  0  0  0  0
 25  1  1  0  0  0  0
 26 32  1  0  0  0  0
 26 25  1  0  0  0  0
 27 26  1  0  0  0  0
 28 27  1  0  0  0  0
 28 35  1  0  0  0  0
 28 29  1  0  0  0  0
 29 36  1  6  0  0  0
 29 24  1  0  0  0  0
 33 26  1  0  0  0  0
 34 28  1  0  0  0  0
 37 29  1  0  0  0  0
 37 45  1  1  0  0  0
 38 39  1  0  0  0  0
 38 40  1  0  0  0  0
 38 37  1  0  0  0  0
 40 42  1  0  0  0  0
 40 41  1  0  0  0  0
 42 44  1  0  0  0  0
 43 42  1  0  0  0  0
 44 45  1  0  0  0  0
M  END
>  <minimizedAffinity>
-6.13664579

>  <minimizedRMSD>
0.462791324

$$$$
