
 OpenBabel03272503553D

 34 37  0  0  0  0  0  0  0  0999 V2000
   37.4190   30.2020   50.7710 C   0  0  0  0  0  0  0  0  0  0  0  0
   38.2780   31.0680   50.0950 C   0  0  0  0  0  0  0  0  0  0  0  0
   37.9250   31.3310   48.7930 C   0  0  0  0  0  0  0  0  0  0  0  0
   36.8330   30.7680   48.2840 N   0  0  0  0  0  0  0  0  0  0  0  0
   36.0090   29.9490   48.9060 C   0  0  0  0  0  0  0  0  0  0  0  0
   36.3660   29.7050   50.1610 N   0  0  0  0  0  0  0  0  0  0  0  0
   39.1310   31.4760   50.5750 H   0  0  0  0  0  0  0  0  0  0  0  0
   38.7100   32.1960   47.9860 N   0  0  0  0  0  0  0  0  0  0  0  0
   38.9430   33.5830   48.3430 C   0  0  0  0  0  0  0  0  0  0  0  0
   38.1280   34.2310   47.9910 H   0  0  0  0  0  0  0  0  0  0  0  0
   40.2600   33.9790   47.6740 C   0  0  0  0  0  0  0  0  0  0  0  0
   40.4890   35.0060   48.0270 H   0  0  0  0  0  0  0  0  0  0  0  0
   40.0700   34.0440   46.2350 N   0  0  0  0  0  0  0  0  0  0  0  0
   39.6150   34.9570   45.9920 H   0  0  0  0  0  0  0  0  0  0  0  0
   39.2840   32.9130   45.7590 C   0  0  0  0  0  0  0  0  0  0  0  0
   39.3220   31.7600   46.7690 C   0  0  0  0  0  0  0  0  0  0  0  0
   34.7840   29.2680   48.5010 C   0  0  0  0  0  0  0  0  0  0  0  0
   33.9980   28.5990   49.3840 N   0  0  0  0  0  0  0  0  0  0  0  0
   32.8690   27.9950   49.0020 C   0  0  0  0  0  0  0  0  0  0  0  0
   32.4070   27.9880   47.7440 N   0  0  0  0  0  0  0  0  0  0  0  0
   33.1450   28.6380   46.8190 C   0  0  0  0  0  0  0  0  0  0  0  0
   32.6880   28.6420   45.5150 C   0  0  0  0  0  0  0  0  0  0  0  0
   33.3950   29.2820   44.5340 C   0  0  0  0  0  0  0  0  0  0  0  0
   34.5550   29.9040   44.9170 C   0  0  0  0  0  0  0  0  0  0  0  0
   34.9790   29.8780   46.2280 C   0  0  0  0  0  0  0  0  0  0  0  0
   34.2960   29.2500   47.2250 C   0  0  0  0  0  0  0  0  0  0  0  0
   32.2370   27.4520   49.7290 H   0  0  0  0  0  0  0  0  0  0  0  0
   31.7460   28.1200   45.2880 H   0  0  0  0  0  0  0  0  0  0  0  0
   33.0410   29.2880   43.5130 H   0  0  0  0  0  0  0  0  0  0  0  0
   35.0970   30.4060   44.1040 H   0  0  0  0  0  0  0  0  0  0  0  0
   35.9090   30.4070   46.3600 H   0  0  0  0  0  0  0  0  0  0  0  0
   37.6550   29.8290   52.1610 N   0  0  0  0  0  0  0  0  0  0  0  0
   38.4680   29.2160   52.4330 H   0  0  0  0  0  0  0  0  0  0  0  0
   36.9060   30.2740   52.7220 H   0  0  0  0  0  0  0  0  0  0  0  0
  1 32  1  0  0  0  0
  2  7  1  0  0  0  0
  2  1  2  0  0  0  0
  3  2  1  0  0  0  0
  4  3  2  0  0  0  0
  4  5  1  0  0  0  0
  5  6  2  0  0  0  0
  6  1  1  0  0  0  0
  8  9  1  0  0  0  0
  8  3  1  0  0  0  0
 10  9  1  0  0  0  0
 11 12  1  0  0  0  0
 11  9  1  0  0  0  0
 13 11  1  0  0  0  0
 14 13  1  0  0  0  0
 15 13  1  0  0  0  0
 15 16  1  0  0  0  0
 16  8  1  0  0  0  0
 17  5  1  0  0  0  0
 17 18  1  0  0  0  0
 19 18  2  0  0  0  0
 19 27  1  0  0  0  0
 20 19  1  0  0  0  0
 21 26  1  0  0  0  0
 21 20  2  0  0  0  0
 22 21  1  0  0  0  0
 23 24  1  0  0  0  0
 23 22  2  0  0  0  0
 24 25  2  0  0  0  0
 25 31  1  0  0  0  0
 25 26  1  0  0  0  0
 26 17  2  0  0  0  0
 28 22  1  0  0  0  0
 29 23  1  0  0  0  0
 30 24  1  0  0  0  0
 32 33  1  0  0  0  0
 32 34  1  0  0  0  0
M  END
>  <minimizedAffinity>
-6.55842876

>  <minimizedRMSD>
0.6421839

$$$$
