
 OpenBabel03272510253D

 45 49  0  0  1  0  0  0  0  0999 V2000
   39.4580   33.5960   43.2920 O   0  0  0  0  0  0  0  0  0  0  0  0
   36.2450   30.1920   46.8870 C   0  0  0  0  0  0  0  0  0  0  0  0
   37.0840   30.7570   47.8430 C   0  0  0  0  0  0  0  0  0  0  0  0
   38.0730   31.6750   47.4810 C   0  0  0  0  0  0  0  0  0  0  0  0
   38.1580   31.9780   46.1290 C   0  0  0  0  0  0  0  0  0  0  0  0
   39.0400   32.8450   45.5320 N   0  0  0  0  0  0  0  0  0  0  0  0
   38.7570   32.8260   44.2210 C   0  0  0  0  0  0  0  0  0  0  0  0
   37.7580   31.9980   43.9930 N   0  0  0  0  0  0  0  0  0  0  0  0
   37.3530   31.4470   45.1500 C   0  0  0  0  0  0  0  0  0  0  0  0
   36.3720   30.5300   45.5430 C   0  0  0  0  0  0  0  0  0  0  0  0
   35.4690   29.4730   47.1630 H   0  0  0  0  0  0  0  0  0  0  0  0
   38.7260   32.1160   48.2130 H   0  0  0  0  0  0  0  0  0  0  0  0
   39.7870   33.4090   46.0320 H   0  0  0  0  0  0  0  0  0  0  0  0
   35.7390   30.1140   44.7710 H   0  0  0  0  0  0  0  0  0  0  0  0
   37.4640   30.1500   51.5280 C   0  0  0  0  0  0  0  0  0  0  0  0
   37.7930   30.5980   50.2500 C   0  0  0  0  0  0  0  0  0  0  0  0
   36.8970   30.3600   49.2220 C   0  0  0  0  0  0  0  0  0  0  0  0
   35.7420   29.6950   49.5370 N   0  0  0  0  0  0  0  0  0  0  0  0
   35.4430   29.2710   50.7770 C   0  0  0  0  0  0  0  0  0  0  0  0
   36.3020   29.5000   51.7540 N   0  0  0  0  0  0  0  0  0  0  0  0
   38.2230   30.3740   52.2930 H   0  0  0  0  0  0  0  0  0  0  0  0
   38.7000   31.1170   50.0100 H   0  0  0  0  0  0  0  0  0  0  0  0
   34.5220   28.7520   50.9790 H   0  0  0  0  0  0  0  0  0  0  0  0
   39.6680   31.8230   41.8310 N   0  0  0  0  0  0  0  0  0  0  0  0
   39.2930   33.2260   41.9310 C   0  0  1  0  0  0  0  0  0  0  0  0
   37.9140   33.4140   41.5100 C   0  0  0  0  0  0  0  0  0  0  0  0
   37.8060   33.0540   40.1550 O   0  0  0  0  0  0  0  0  0  0  0  0
   38.2410   31.8000   39.8430 C   0  0  0  0  0  0  0  0  0  0  0  0
   39.6200   31.5360   40.4190 C   0  0  2  0  0  0  0  0  0  0  0  0
   39.0700   31.1420   42.2680 H   0  0  0  0  0  0  0  0  0  0  0  0
   39.9840   33.7770   41.2740 H   0  0  0  0  0  0  0  0  0  0  0  0
   37.0660   32.9720   41.9560 H   0  0  0  0  0  0  0  0  0  0  0  0
   37.7210   34.5300   41.4910 H   0  0  0  0  0  0  0  0  0  0  0  0
   38.3740   31.7740   38.7420 H   0  0  0  0  0  0  0  0  0  0  0  0
   37.4740   31.0840   40.2200 H   0  0  0  0  0  0  0  0  0  0  0  0
   40.2760   32.3230   39.9430 H   0  0  0  0  0  0  0  0  0  0  0  0
   40.1690   30.2790   40.0570 N   0  0  1  0  0  0  0  0  0  0  0  0
   39.7360   29.8180   38.7480 C   0  0  0  0  0  3  0  0  0  0  0  0
   39.6820   30.5960   37.9870 H   0  0  0  0  0  0  0  0  0  0  0  0
   40.6800   28.7370   38.2830 C   0  0  0  0  0  3  0  0  0  0  0  0
   41.5500   29.1190   37.7200 H   0  0  0  0  0  0  0  0  0  0  0  0
   41.1310   27.8930   39.3700 N   0  0  0  0  0  0  0  0  0  0  0  0
   40.2740   27.4020   39.7430 H   0  0  0  0  0  0  0  0  0  0  0  0
   41.8530   28.6390   40.3590 C   0  0  0  0  0  2  0  0  0  0  0  0
   41.5820   30.1350   40.1480 C   0  0  0  0  0  2  0  0  0  0  0  0
  1  7  1  0  0  0  0
  2 11  1  0  0  0  0
  2  3  1  0  0  0  0
  3 17  1  0  0  0  0
  4  3  2  0  0  0  0
  4 12  1  0  0  0  0
  5  4  1  0  0  0  0
  6 13  1  0  0  0  0
  6  5  1  0  0  0  0
  7  6  1  0  0  0  0
  8  7  2  0  0  0  0
  8  9  1  0  0  0  0
  9 10  1  0  0  0  0
  9  5  2  0  0  0  0
 10  2  2  0  0  0  0
 14 10  1  0  0  0  0
 15 20  1  0  0  0  0
 15 21  1  0  0  0  0
 16 15  2  0  0  0  0
 17 18  2  0  0  0  0
 17 16  1  0  0  0  0
 18 19  1  0  0  0  0
 19 23  1  0  0  0  0
 19 20  2  0  0  0  0
 22 16  1  0  0  0  0
 24 25  1  0  0  0  0
 24 30  1  0  0  0  0
 25 31  1  6  0  0  0
 25  1  1  0  0  0  0
 26 25  1  0  0  0  0
 26 32  1  0  0  0  0
 27 26  1  0  0  0  0
 28 27  1  0  0  0  0
 28 35  1  0  0  0  0
 28 29  1  0  0  0  0
 29 36  1  6  0  0  0
 29 24  1  0  0  0  0
 33 26  1  0  0  0  0
 34 28  1  0  0  0  0
 37 45  1  6  0  0  0
 37 29  1  0  0  0  0
 38 37  1  0  0  0  0
 39 38  1  0  0  0  0
 40 38  1  0  0  0  0
 40 42  1  0  0  0  0
 41 40  1  0  0  0  0
 42 43  1  0  0  0  0
 42 44  1  0  0  0  0
 45 44  1  0  0  0  0
M  END
>  <minimizedAffinity>
-6.03012705

>  <minimizedRMSD>
0.160718992

$$$$
