
 OpenBabel03272510253D

 45 49  0  0  1  0  0  0  0  0999 V2000
   39.4800   33.5730   43.3040 O   0  0  0  0  0  0  0  0  0  0  0  0
   36.2320   30.2040   46.8990 C   0  0  0  0  0  0  0  0  0  0  0  0
   37.0800   30.7560   47.8550 C   0  0  0  0  0  0  0  0  0  0  0  0
   38.0800   31.6620   47.4930 C   0  0  0  0  0  0  0  0  0  0  0  0
   38.1660   31.9660   46.1410 C   0  0  0  0  0  0  0  0  0  0  0  0
   39.0570   32.8240   45.5440 N   0  0  0  0  0  0  0  0  0  0  0  0
   38.7720   32.8110   44.2340 C   0  0  0  0  0  0  0  0  0  0  0  0
   37.7620   31.9960   44.0060 N   0  0  0  0  0  0  0  0  0  0  0  0
   37.3520   31.4480   45.1620 C   0  0  0  0  0  0  0  0  0  0  0  0
   36.3600   30.5420   45.5560 C   0  0  0  0  0  0  0  0  0  0  0  0
   35.4480   29.4940   47.1760 H   0  0  0  0  0  0  0  0  0  0  0  0
   38.7400   32.0930   48.2240 H   0  0  0  0  0  0  0  0  0  0  0  0
   39.8120   33.3760   46.0430 H   0  0  0  0  0  0  0  0  0  0  0  0
   35.7200   30.1360   44.7840 H   0  0  0  0  0  0  0  0  0  0  0  0
   37.4540   30.1490   51.5400 C   0  0  0  0  0  0  0  0  0  0  0  0
   37.7850   30.5970   50.2630 C   0  0  0  0  0  0  0  0  0  0  0  0
   36.8910   30.3580   49.2340 C   0  0  0  0  0  0  0  0  0  0  0  0
   35.7360   29.6910   49.5470 N   0  0  0  0  0  0  0  0  0  0  0  0
   35.4360   29.2670   50.7860 C   0  0  0  0  0  0  0  0  0  0  0  0
   36.2930   29.4980   51.7650 N   0  0  0  0  0  0  0  0  0  0  0  0
   38.2110   30.3740   52.3070 H   0  0  0  0  0  0  0  0  0  0  0  0
   38.6910   31.1180   50.0250 H   0  0  0  0  0  0  0  0  0  0  0  0
   34.5160   28.7470   50.9860 H   0  0  0  0  0  0  0  0  0  0  0  0
   39.6620   31.7870   41.8560 N   0  0  0  0  0  0  0  0  0  0  0  0
   39.3180   33.1990   41.9440 C   0  0  1  0  0  0  0  0  0  0  0  0
   37.9480   33.4160   41.5090 C   0  0  0  0  0  0  0  0  0  0  0  0
   37.8440   33.0510   40.1560 O   0  0  0  0  0  0  0  0  0  0  0  0
   38.2530   31.7850   39.8550 C   0  0  0  0  0  0  0  0  0  0  0  0
   39.6200   31.4930   40.4450 C   0  0  2  0  0  0  0  0  0  0  0  0
   39.0440   31.1240   42.2910 H   0  0  0  0  0  0  0  0  0  0  0  0
   40.0280   33.7300   41.2900 H   0  0  0  0  0  0  0  0  0  0  0  0
   37.0860   32.9980   41.9500 H   0  0  0  0  0  0  0  0  0  0  0  0
   37.7820   34.5360   41.4820 H   0  0  0  0  0  0  0  0  0  0  0  0
   38.3940   31.7490   38.7560 H   0  0  0  0  0  0  0  0  0  0  0  0
   37.4650   31.0900   40.2290 H   0  0  0  0  0  0  0  0  0  0  0  0
   40.2980   32.2620   39.9700 H   0  0  0  0  0  0  0  0  0  0  0  0
   40.1420   30.2210   40.0960 N   0  0  1  0  0  0  0  0  0  0  0  0
   41.5820   30.2260   39.8990 C   0  0  0  0  0  3  0  0  0  0  0  0
   42.1370   30.8330   40.6120 H   0  0  0  0  0  0  0  0  0  0  0  0
   42.0820   28.8050   39.9670 C   0  0  0  0  0  3  0  0  0  0  0  0
   42.3500   28.4770   40.9860 H   0  0  0  0  0  0  0  0  0  0  0  0
   41.1510   27.8630   39.3800 N   0  0  0  0  0  0  0  0  0  0  0  0
   41.0850   28.1090   38.3540 H   0  0  0  0  0  0  0  0  0  0  0  0
   39.8900   27.8660   40.0620 C   0  0  0  0  0  2  0  0  0  0  0  0
   39.8010   29.1240   40.9360 C   0  0  0  0  0  2  0  0  0  0  0  0
  1  7  1  0  0  0  0
  2 11  1  0  0  0  0
  2  3  1  0  0  0  0
  3 17  1  0  0  0  0
  4  3  2  0  0  0  0
  4 12  1  0  0  0  0
  5  4  1  0  0  0  0
  6 13  1  0  0  0  0
  6  5  1  0  0  0  0
  7  6  1  0  0  0  0
  8  7  2  0  0  0  0
  8  9  1  0  0  0  0
  9 10  1  0  0  0  0
  9  5  2  0  0  0  0
 10  2  2  0  0  0  0
 14 10  1  0  0  0  0
 15 20  1  0  0  0  0
 15 21  1  0  0  0  0
 16 15  2  0  0  0  0
 17 18  2  0  0  0  0
 17 16  1  0  0  0  0
 18 19  1  0  0  0  0
 19 23  1  0  0  0  0
 19 20  2  0  0  0  0
 22 16  1  0  0  0  0
 24 25  1  0  0  0  0
 24 30  1  0  0  0  0
 25 31  1  6  0  0  0
 25  1  1  0  0  0  0
 26 25  1  0  0  0  0
 26 32  1  0  0  0  0
 27 26  1  0  0  0  0
 28 27  1  0  0  0  0
 28 35  1  0  0  0  0
 28 29  1  0  0  0  0
 29 36  1  6  0  0  0
 29 24  1  0  0  0  0
 33 26  1  0  0  0  0
 34 28  1  0  0  0  0
 37 29  1  0  0  0  0
 37 45  1  1  0  0  0
 38 40  1  0  0  0  0
 38 37  1  0  0  0  0
 38 39  1  0  0  0  0
 40 41  1  0  0  0  0
 42 40  1  0  0  0  0
 42 44  1  0  0  0  0
 43 42  1  0  0  0  0
 44 45  1  0  0  0  0
M  END
>  <minimizedAffinity>
-6.06781435

>  <minimizedRMSD>
0.175667226

$$$$
