
 OpenBabel03272510253D

 45 49  0  0  1  0  0  0  0  0999 V2000
   39.4770   33.5910   43.3620 O   0  0  0  0  0  0  0  0  0  0  0  0
   36.2150   30.2150   46.9390 C   0  0  0  0  0  0  0  0  0  0  0  0
   37.0680   30.7550   47.8960 C   0  0  0  0  0  0  0  0  0  0  0  0
   38.0720   31.6580   47.5390 C   0  0  0  0  0  0  0  0  0  0  0  0
   38.1580   31.9720   46.1900 C   0  0  0  0  0  0  0  0  0  0  0  0
   39.0530   32.8280   45.5970 N   0  0  0  0  0  0  0  0  0  0  0  0
   38.7650   32.8260   44.2870 C   0  0  0  0  0  0  0  0  0  0  0  0
   37.7500   32.0180   44.0550 N   0  0  0  0  0  0  0  0  0  0  0  0
   37.3390   31.4640   45.2090 C   0  0  0  0  0  0  0  0  0  0  0  0
   36.3430   30.5620   45.5980 C   0  0  0  0  0  0  0  0  0  0  0  0
   35.4270   29.5080   47.2110 H   0  0  0  0  0  0  0  0  0  0  0  0
   38.7350   32.0800   48.2720 H   0  0  0  0  0  0  0  0  0  0  0  0
   39.8120   33.3730   46.0990 H   0  0  0  0  0  0  0  0  0  0  0  0
   35.7000   30.1650   44.8240 H   0  0  0  0  0  0  0  0  0  0  0  0
   37.4420   30.1230   51.5780 C   0  0  0  0  0  0  0  0  0  0  0  0
   37.7740   30.5790   50.3030 C   0  0  0  0  0  0  0  0  0  0  0  0
   36.8790   30.3490   49.2730 C   0  0  0  0  0  0  0  0  0  0  0  0
   35.7220   29.6840   49.5820 N   0  0  0  0  0  0  0  0  0  0  0  0
   35.4220   29.2520   50.8190 C   0  0  0  0  0  0  0  0  0  0  0  0
   36.2800   29.4740   51.7990 N   0  0  0  0  0  0  0  0  0  0  0  0
   38.2010   30.3410   52.3450 H   0  0  0  0  0  0  0  0  0  0  0  0
   38.6820   31.0990   50.0680 H   0  0  0  0  0  0  0  0  0  0  0  0
   34.5000   28.7330   51.0160 H   0  0  0  0  0  0  0  0  0  0  0  0
   39.6720   31.7580   41.9750 N   0  0  0  0  0  0  0  0  0  0  0  0
   39.3690   33.1810   42.0060 C   0  0  1  0  0  0  0  0  0  0  0  0
   38.0280   33.4260   41.4990 C   0  0  0  0  0  0  0  0  0  0  0  0
   37.9780   33.0240   40.1530 O   0  0  0  0  0  0  0  0  0  0  0  0
   38.3620   31.7390   39.9080 C   0  0  0  0  0  0  0  0  0  0  0  0
   39.6890   31.4240   40.5730 C   0  0  2  0  0  0  0  0  0  0  0  0
   39.0140   31.1260   42.3980 H   0  0  0  0  0  0  0  0  0  0  0  0
   40.1250   33.6720   41.3740 H   0  0  0  0  0  0  0  0  0  0  0  0
   37.1340   33.0460   41.9090 H   0  0  0  0  0  0  0  0  0  0  0  0
   37.8980   34.5490   41.4330 H   0  0  0  0  0  0  0  0  0  0  0  0
   38.5540   31.6660   38.8190 H   0  0  0  0  0  0  0  0  0  0  0  0
   37.5360   31.0780   40.2630 H   0  0  0  0  0  0  0  0  0  0  0  0
   40.4130   32.1580   40.1100 H   0  0  0  0  0  0  0  0  0  0  0  0
   40.1880   30.1270   40.2850 N   0  0  1  0  0  0  0  0  0  0  0  0
   39.1990   29.2520   39.6770 C   0  0  0  0  0  3  0  0  0  0  0  0
   38.5580   29.7330   38.9390 H   0  0  0  0  0  0  0  0  0  0  0  0
   39.9160   28.0950   39.0270 C   0  0  0  0  0  3  0  0  0  0  0  0
   40.2060   28.2840   37.9800 H   0  0  0  0  0  0  0  0  0  0  0  0
   41.0710   27.6660   39.7870 N   0  0  0  0  0  0  0  0  0  0  0  0
   40.7060   27.3110   40.7130 H   0  0  0  0  0  0  0  0  0  0  0  0
   42.0470   28.7080   39.9060 C   0  0  0  0  0  2  0  0  0  0  0  0
   41.3930   30.0460   39.5320 C   0  0  0  0  0  2  0  0  0  0  0  0
  1  7  1  0  0  0  0
  2 11  1  0  0  0  0
  2  3  1  0  0  0  0
  3 17  1  0  0  0  0
  4  3  2  0  0  0  0
  4 12  1  0  0  0  0
  5  4  1  0  0  0  0
  6 13  1  0  0  0  0
  6  5  1  0  0  0  0
  7  6  1  0  0  0  0
  8  7  2  0  0  0  0
  8  9  1  0  0  0  0
  9 10  1  0  0  0  0
  9  5  2  0  0  0  0
 10  2  2  0  0  0  0
 14 10  1  0  0  0  0
 15 20  1  0  0  0  0
 15 21  1  0  0  0  0
 16 15  2  0  0  0  0
 17 18  2  0  0  0  0
 17 16  1  0  0  0  0
 18 19  1  0  0  0  0
 19 23  1  0  0  0  0
 19 20  2  0  0  0  0
 22 16  1  0  0  0  0
 24 25  1  0  0  0  0
 24 30  1  0  0  0  0
 25 31  1  6  0  0  0
 25  1  1  0  0  0  0
 26 32  1  0  0  0  0
 26 25  1  0  0  0  0
 27 26  1  0  0  0  0
 28 27  1  0  0  0  0
 28 35  1  0  0  0  0
 28 29  1  0  0  0  0
 29 36  1  6  0  0  0
 29 24  1  0  0  0  0
 33 26  1  0  0  0  0
 34 28  1  0  0  0  0
 37 45  1  6  0  0  0
 37 29  1  0  0  0  0
 38 37  1  0  0  0  0
 39 38  1  0  0  0  0
 40 38  1  0  0  0  0
 40 42  1  0  0  0  0
 41 40  1  0  0  0  0
 42 44  1  0  0  0  0
 42 43  1  0  0  0  0
 45 44  1  0  0  0  0
M  END
>  <minimizedAffinity>
-5.98267651

>  <minimizedRMSD>
0.321604341

$$$$
