
 OpenBabel03272510253D

 45 49  0  0  1  0  0  0  0  0999 V2000
   39.4710   33.6130   43.3400 O   0  0  0  0  0  0  0  0  0  0  0  0
   36.2460   30.1960   46.9110 C   0  0  0  0  0  0  0  0  0  0  0  0
   37.0820   30.7580   47.8730 C   0  0  0  0  0  0  0  0  0  0  0  0
   38.0720   31.6770   47.5180 C   0  0  0  0  0  0  0  0  0  0  0  0
   38.1610   31.9850   46.1670 C   0  0  0  0  0  0  0  0  0  0  0  0
   39.0440   32.8550   45.5770 N   0  0  0  0  0  0  0  0  0  0  0  0
   38.7670   32.8400   44.2650 C   0  0  0  0  0  0  0  0  0  0  0  0
   37.7690   32.0120   44.0290 N   0  0  0  0  0  0  0  0  0  0  0  0
   37.3600   31.4570   45.1830 C   0  0  0  0  0  0  0  0  0  0  0  0
   36.3770   30.5380   45.5700 C   0  0  0  0  0  0  0  0  0  0  0  0
   35.4700   29.4760   47.1820 H   0  0  0  0  0  0  0  0  0  0  0  0
   38.7210   32.1160   48.2530 H   0  0  0  0  0  0  0  0  0  0  0  0
   39.7900   33.4170   46.0810 H   0  0  0  0  0  0  0  0  0  0  0  0
   35.7480   30.1250   44.7930 H   0  0  0  0  0  0  0  0  0  0  0  0
   37.4480   30.1380   51.5570 C   0  0  0  0  0  0  0  0  0  0  0  0
   37.7820   30.5900   50.2820 C   0  0  0  0  0  0  0  0  0  0  0  0
   36.8900   30.3560   49.2500 C   0  0  0  0  0  0  0  0  0  0  0  0
   35.7330   29.6890   49.5580 N   0  0  0  0  0  0  0  0  0  0  0  0
   35.4310   29.2610   50.7960 C   0  0  0  0  0  0  0  0  0  0  0  0
   36.2860   29.4870   51.7770 N   0  0  0  0  0  0  0  0  0  0  0  0
   38.2040   30.3600   52.3250 H   0  0  0  0  0  0  0  0  0  0  0  0
   38.6890   31.1110   50.0470 H   0  0  0  0  0  0  0  0  0  0  0  0
   34.5090   28.7410   50.9930 H   0  0  0  0  0  0  0  0  0  0  0  0
   39.6690   31.8410   41.8780 N   0  0  0  0  0  0  0  0  0  0  0  0
   39.3110   33.2480   41.9770 C   0  0  1  0  0  0  0  0  0  0  0  0
   37.9370   33.4540   41.5460 C   0  0  0  0  0  0  0  0  0  0  0  0
   37.8350   33.0980   40.1900 O   0  0  0  0  0  0  0  0  0  0  0  0
   38.2570   31.8390   39.8790 C   0  0  0  0  0  0  0  0  0  0  0  0
   39.6280   31.5570   40.4650 C   0  0  2  0  0  0  0  0  0  0  0  0
   39.0590   31.1670   42.3090 H   0  0  0  0  0  0  0  0  0  0  0  0
   40.0140   33.7910   41.3270 H   0  0  0  0  0  0  0  0  0  0  0  0
   37.0810   33.0230   41.9850 H   0  0  0  0  0  0  0  0  0  0  0  0
   37.7590   34.5720   41.5280 H   0  0  0  0  0  0  0  0  0  0  0  0
   38.3970   31.8130   38.7790 H   0  0  0  0  0  0  0  0  0  0  0  0
   37.4770   31.1330   40.2490 H   0  0  0  0  0  0  0  0  0  0  0  0
   40.2980   32.3360   39.9950 H   0  0  0  0  0  0  0  0  0  0  0  0
   40.1630   30.2930   40.1050 N   0  0  1  0  0  0  0  0  0  0  0  0
   40.2540   30.0960   38.6670 C   0  0  0  0  0  3  0  0  0  0  0  0
   40.5780   30.9720   38.1080 H   0  0  0  0  0  0  0  0  0  0  0  0
   41.2060   28.9580   38.3980 C   0  0  0  0  0  3  0  0  0  0  0  0
   42.2590   29.2740   38.2930 H   0  0  0  0  0  0  0  0  0  0  0  0
   41.1080   27.9090   39.3910 N   0  0  0  0  0  0  0  0  0  0  0  0
   40.1330   27.5090   39.3090 H   0  0  0  0  0  0  0  0  0  0  0  0
   41.4340   28.3850   40.7030 C   0  0  0  0  0  2  0  0  0  0  0  0
   41.4030   29.9190   40.6950 C   0  0  0  0  0  2  0  0  0  0  0  0
  1  7  1  0  0  0  0
  2 11  1  0  0  0  0
  2  3  1  0  0  0  0
  3 17  1  0  0  0  0
  4  3  2  0  0  0  0
  4 12  1  0  0  0  0
  5  4  1  0  0  0  0
  6 13  1  0  0  0  0
  6  5  1  0  0  0  0
  7  6  1  0  0  0  0
  8  7  2  0  0  0  0
  8  9  1  0  0  0  0
  9 10  1  0  0  0  0
  9  5  2  0  0  0  0
 10  2  2  0  0  0  0
 14 10  1  0  0  0  0
 15 20  1  0  0  0  0
 15 21  1  0  0  0  0
 16 15  2  0  0  0  0
 17 18  2  0  0  0  0
 17 16  1  0  0  0  0
 18 19  1  0  0  0  0
 19 23  1  0  0  0  0
 19 20  2  0  0  0  0
 22 16  1  0  0  0  0
 24 25  1  0  0  0  0
 24 30  1  0  0  0  0
 25 31  1  6  0  0  0
 25  1  1  0  0  0  0
 26 25  1  0  0  0  0
 26 32  1  0  0  0  0
 27 26  1  0  0  0  0
 28 27  1  0  0  0  0
 28 35  1  0  0  0  0
 28 29  1  0  0  0  0
 29 36  1  6  0  0  0
 29 24  1  0  0  0  0
 33 26  1  0  0  0  0
 34 28  1  0  0  0  0
 37 29  1  0  0  0  0
 37 45  1  1  0  0  0
 38 37  1  0  0  0  0
 39 38  1  0  0  0  0
 40 38  1  0  0  0  0
 40 42  1  0  0  0  0
 41 40  1  0  0  0  0
 42 44  1  0  0  0  0
 43 42  1  0  0  0  0
 45 44  1  0  0  0  0
M  END
>  <minimizedAffinity>
-6.0271287

>  <minimizedRMSD>
0.174880683

$$$$
