
 OpenBabel03272509563D

 43 46  0  0  0  0  0  0  0  0999 V2000
   39.2730   26.1120   30.8400 C   0  0  0  0  0  0  0  0  0  0  0  0
   39.8660   26.3300   29.9160 H   0  0  0  0  0  0  0  0  0  0  0  0
   38.3590   26.7440   30.8280 H   0  0  0  0  0  0  0  0  0  0  0  0
   40.0550   26.4070   32.0840 C   0  0  0  0  0  0  0  0  0  0  0  0
   40.4460   27.4470   32.1210 H   0  0  0  0  0  0  0  0  0  0  0  0
   40.9540   25.7400   32.1730 H   0  0  0  0  0  0  0  0  0  0  0  0
   39.2670   26.1630   33.3180 C   0  0  0  0  0  0  0  0  0  0  0  0
   38.2500   27.0480   33.6340 C   0  0  0  0  0  0  0  0  0  0  0  0
   37.4730   26.9050   34.7460 C   0  0  0  0  0  0  0  0  0  0  0  0
   37.6890   25.8860   35.5600 N   0  0  0  0  0  0  0  0  0  0  0  0
   38.6880   25.0070   35.2580 C   0  0  0  0  0  0  0  0  0  0  0  0
   39.4740   25.1220   34.1640 N   0  0  0  0  0  0  0  0  0  0  0  0
   38.0620   27.8980   32.9640 H   0  0  0  0  0  0  0  0  0  0  0  0
   36.6880   27.6180   34.9580 H   0  0  0  0  0  0  0  0  0  0  0  0
   38.9550   23.8950   36.1080 N   0  0  0  0  0  0  0  0  0  0  0  0
   40.2700   23.3030   36.2660 C   0  0  0  0  0  3  0  0  0  0  0  0
   41.0520   24.0490   36.4590 H   0  0  0  0  0  0  0  0  0  0  0  0
   40.1620   22.3030   37.4060 C   0  0  0  0  0  3  0  0  0  0  0  0
   39.7170   21.3530   37.0940 H   0  0  0  0  0  0  0  0  0  0  0  0
   39.5160   22.8630   38.5570 N   0  0  0  0  0  0  0  0  0  0  0  0
   40.1890   23.5640   38.9660 H   0  0  0  0  0  0  0  0  0  0  0  0
   38.2210   23.4210   38.3240 C   0  0  0  0  0  2  0  0  0  0  0  0
   37.8640   23.3100   36.8650 C   0  0  0  0  0  2  0  0  0  0  0  0
   38.8800   24.7400   30.8160 O   0  0  0  0  0  0  0  0  0  0  0  0
   35.2880   24.8120   31.1520 C   0  0  0  0  0  0  0  0  0  0  0  0
   35.0330   23.4280   31.3710 C   0  0  0  0  0  0  0  0  0  0  0  0
   36.1230   22.5790   31.3870 C   0  0  0  0  0  0  0  0  0  0  0  0
   37.3640   23.1380   31.1880 N   0  0  0  0  0  0  0  0  0  0  0  0
   37.5630   24.4340   30.9870 C   0  0  0  0  0  0  0  0  0  0  0  0
   36.5170   25.2820   30.9670 N   0  0  0  0  0  0  0  0  0  0  0  0
   34.3930   25.4160   31.1520 H   0  0  0  0  0  0  0  0  0  0  0  0
   34.0630   23.0040   31.5240 H   0  0  0  0  0  0  0  0  0  0  0  0
   35.2160   21.1420   33.7350 F   0  0  0  0  0  0  0  0  0  0  0  0
   35.6430   20.4570   32.6750 C   0  0  0  0  0  0  0  0  0  0  0  0
   36.0600   21.1500   31.5950 C   0  0  0  0  0  0  0  0  0  0  0  0
   36.4860   20.3350   30.5400 C   0  0  0  0  0  0  0  0  0  0  0  0
   36.4770   18.9630   30.6090 C   0  0  0  0  0  0  0  0  0  0  0  0
   36.0390   18.3120   31.7410 C   0  0  0  0  0  0  0  0  0  0  0  0
   35.6160   19.0870   32.7880 C   0  0  0  0  0  0  0  0  0  0  0  0
   36.8500   20.7330   29.6030 H   0  0  0  0  0  0  0  0  0  0  0  0
   36.8090   18.3350   29.7880 H   0  0  0  0  0  0  0  0  0  0  0  0
   36.0380   17.2350   31.7800 H   0  0  0  0  0  0  0  0  0  0  0  0
   35.2750   18.5950   33.6710 H   0  0  0  0  0  0  0  0  0  0  0  0
  1  4  1  0  0  0  0
  2  1  1  0  0  0  0
  3  1  1  0  0  0  0
  4  5  1  0  0  0  0
  4  6  1  0  0  0  0
  4  7  1  0  0  0  0
  7  8  2  0  0  0  0
  7 12  1  0  0  0  0
  8  9  1  0  0  0  0
  9 14  1  0  0  0  0
  9 10  2  0  0  0  0
 11 10  1  0  0  0  0
 11 15  1  0  0  0  0
 12 11  2  0  0  0  0
 13  8  1  0  0  0  0
 15 16  1  0  0  0  0
 15 23  1  0  0  0  0
 16 17  1  0  0  0  0
 16 18  1  0  0  0  0
 18 20  1  0  0  0  0
 19 18  1  0  0  0  0
 20 21  1  0  0  0  0
 22 20  1  0  0  0  0
 23 22  1  0  0  0  0
 24  1  1  0  0  0  0
 24 29  1  0  0  0  0
 25 31  1  0  0  0  0
 25 26  1  0  0  0  0
 26 27  2  0  0  0  0
 26 32  1  0  0  0  0
 27 35  1  0  0  0  0
 28 27  1  0  0  0  0
 29 28  2  0  0  0  0
 30 29  1  0  0  0  0
 30 25  2  0  0  0  0
 34 39  1  0  0  0  0
 34 33  1  0  0  0  0
 35 34  2  0  0  0  0
 36 37  2  0  0  0  0
 36 35  1  0  0  0  0
 37 38  1  0  0  0  0
 38 42  1  0  0  0  0
 38 39  2  0  0  0  0
 39 43  1  0  0  0  0
 40 36  1  0  0  0  0
 41 37  1  0  0  0  0
M  END
>  <minimizedAffinity>
-6.63120842

$$$$

 OpenBabel03272509563D

 43 46  0  0  0  0  0  0  0  0999 V2000
   37.0230   26.2590   31.7320 C   0  0  0  0  0  0  0  0  0  0  0  0
   36.6990   26.6860   30.7490 H   0  0  0  0  0  0  0  0  0  0  0  0
   38.1300   26.3440   31.8040 H   0  0  0  0  0  0  0  0  0  0  0  0
   36.6350   24.8170   31.8650 C   0  0  0  0  0  0  0  0  0  0  0  0
   36.4430   24.3220   30.8890 H   0  0  0  0  0  0  0  0  0  0  0  0
   35.6890   24.7000   32.4590 H   0  0  0  0  0  0  0  0  0  0  0  0
   37.6540   24.0240   32.5980 C   0  0  0  0  0  0  0  0  0  0  0  0
   38.3900   23.0870   31.8920 C   0  0  0  0  0  0  0  0  0  0  0  0
   39.3460   22.3130   32.4800 C   0  0  0  0  0  0  0  0  0  0  0  0
   39.5900   22.4520   33.7720 N   0  0  0  0  0  0  0  0  0  0  0  0
   38.8700   23.3730   34.4770 C   0  0  0  0  0  0  0  0  0  0  0  0
   37.9170   24.1550   33.9230 N   0  0  0  0  0  0  0  0  0  0  0  0
   38.1950   22.9640   30.8180 H   0  0  0  0  0  0  0  0  0  0  0  0
   39.9000   21.5920   31.8940 H   0  0  0  0  0  0  0  0  0  0  0  0
   39.1000   23.5560   35.8710 N   0  0  0  0  0  0  0  0  0  0  0  0
   38.0730   23.9790   36.8050 C   0  0  0  0  0  3  0  0  0  0  0  0
   37.1440   23.4030   36.7060 H   0  0  0  0  0  0  0  0  0  0  0  0
   38.6680   23.8410   38.1970 C   0  0  0  0  0  3  0  0  0  0  0  0
   39.3240   24.6770   38.4620 H   0  0  0  0  0  0  0  0  0  0  0  0
   39.2940   22.5660   38.3930 N   0  0  0  0  0  0  0  0  0  0  0  0
   38.5170   21.8540   38.4340 H   0  0  0  0  0  0  0  0  0  0  0  0
   40.3000   22.2220   37.4380 C   0  0  0  0  0  2  0  0  0  0  0  0
   40.4270   23.3110   36.4040 C   0  0  0  0  0  2  0  0  0  0  0  0
   36.4360   27.0290   32.7810 O   0  0  0  0  0  0  0  0  0  0  0  0
   36.3420   30.3940   31.4830 C   0  0  0  0  0  0  0  0  0  0  0  0
   35.7530   31.0700   32.5900 C   0  0  0  0  0  0  0  0  0  0  0  0
   35.4360   30.3080   33.6990 C   0  0  0  0  0  0  0  0  0  0  0  0
   35.7130   28.9620   33.6430 N   0  0  0  0  0  0  0  0  0  0  0  0
   36.2630   28.3670   32.5930 C   0  0  0  0  0  0  0  0  0  0  0  0
   36.5820   29.0870   31.5000 N   0  0  0  0  0  0  0  0  0  0  0  0
   36.5640   31.0480   30.6530 H   0  0  0  0  0  0  0  0  0  0  0  0
   35.5420   32.1180   32.6230 H   0  0  0  0  0  0  0  0  0  0  0  0
   36.6770   31.8680   35.8020 F   0  0  0  0  0  0  0  0  0  0  0  0
   35.3890   31.5440   35.9050 C   0  0  0  0  0  0  0  0  0  0  0  0
   34.8360   30.8160   34.9110 C   0  0  0  0  0  0  0  0  0  0  0  0
   33.4810   30.5310   35.1180 C   0  0  0  0  0  0  0  0  0  0  0  0
   32.7920   30.9550   36.2280 C   0  0  0  0  0  0  0  0  0  0  0  0
   33.4130   31.6950   37.2090 C   0  0  0  0  0  0  0  0  0  0  0  0
   34.7390   31.9890   37.0310 C   0  0  0  0  0  0  0  0  0  0  0  0
   32.8900   29.9580   34.4160 H   0  0  0  0  0  0  0  0  0  0  0  0
   31.7400   30.7310   36.3830 H   0  0  0  0  0  0  0  0  0  0  0  0
   32.8590   32.0210   38.0740 H   0  0  0  0  0  0  0  0  0  0  0  0
   35.2320   32.5610   37.7840 H   0  0  0  0  0  0  0  0  0  0  0  0
  1  3  1  0  0  0  0
  1  4  1  0  0  0  0
  1 24  1  0  0  0  0
  2  1  1  0  0  0  0
  4  6  1  0  0  0  0
  4  7  1  0  0  0  0
  5  4  1  0  0  0  0
  7 12  1  0  0  0  0
  8  9  1  0  0  0  0
  8  7  2  0  0  0  0
  9 10  2  0  0  0  0
 10 11  1  0  0  0  0
 11 15  1  0  0  0  0
 12 11  2  0  0  0  0
 13  8  1  0  0  0  0
 14  9  1  0  0  0  0
 15 23  1  0  0  0  0
 15 16  1  0  0  0  0
 16 18  1  0  0  0  0
 17 16  1  0  0  0  0
 18 20  1  0  0  0  0
 18 19  1  0  0  0  0
 20 21  1  0  0  0  0
 22 20  1  0  0  0  0
 23 22  1  0  0  0  0
 25 30  2  0  0  0  0
 25 26  1  0  0  0  0
 26 32  1  0  0  0  0
 26 27  2  0  0  0  0
 27 35  1  0  0  0  0
 28 27  1  0  0  0  0
 29 24  1  0  0  0  0
 29 28  2  0  0  0  0
 30 29  1  0  0  0  0
 31 25  1  0  0  0  0
 33 34  1  0  0  0  0
 34 39  1  0  0  0  0
 35 36  1  0  0  0  0
 35 34  2  0  0  0  0
 36 37  2  0  0  0  0
 37 41  1  0  0  0  0
 37 38  1  0  0  0  0
 38 42  1  0  0  0  0
 39 38  2  0  0  0  0
 39 43  1  0  0  0  0
 40 36  1  0  0  0  0
M  END
>  <minimizedAffinity>
-6.52195406

$$$$

 OpenBabel03272509563D

 43 46  0  0  0  0  0  0  0  0999 V2000
   35.4920   23.2840   31.6570 C   0  0  0  0  0  0  0  0  0  0  0  0
   35.4350   23.7100   32.6910 H   0  0  0  0  0  0  0  0  0  0  0  0
   34.4590   23.2060   31.2520 H   0  0  0  0  0  0  0  0  0  0  0  0
   36.1230   21.9250   31.6510 C   0  0  0  0  0  0  0  0  0  0  0  0
   36.3620   21.5560   30.6300 H   0  0  0  0  0  0  0  0  0  0  0  0
   35.4430   21.1540   32.1020 H   0  0  0  0  0  0  0  0  0  0  0  0
   37.3630   21.8740   32.4650 C   0  0  0  0  0  0  0  0  0  0  0  0
   38.4770   21.2500   31.9290 C   0  0  0  0  0  0  0  0  0  0  0  0
   39.6590   21.1560   32.6020 C   0  0  0  0  0  0  0  0  0  0  0  0
   39.7580   21.6750   33.8140 N   0  0  0  0  0  0  0  0  0  0  0  0
   38.6660   22.2920   34.3530 C   0  0  0  0  0  0  0  0  0  0  0  0
   37.4820   22.4020   33.7100 N   0  0  0  0  0  0  0  0  0  0  0  0
   38.4050   20.8160   30.9230 H   0  0  0  0  0  0  0  0  0  0  0  0
   40.5070   20.6600   32.1490 H   0  0  0  0  0  0  0  0  0  0  0  0
   38.7290   22.8650   35.6550 N   0  0  0  0  0  0  0  0  0  0  0  0
   37.5870   22.9640   36.5440 C   0  0  0  0  0  3  0  0  0  0  0  0
   37.0350   22.0200   36.6360 H   0  0  0  0  0  0  0  0  0  0  0  0
   38.1210   23.4290   37.8890 C   0  0  0  0  0  3  0  0  0  0  0  0
   38.3040   24.5080   37.9220 H   0  0  0  0  0  0  0  0  0  0  0  0
   39.2580   22.6650   38.3120 N   0  0  0  0  0  0  0  0  0  0  0  0
   38.8980   21.7040   38.5580 H   0  0  0  0  0  0  0  0  0  0  0  0
   40.3470   22.6190   37.3860 C   0  0  0  0  0  2  0  0  0  0  0  0
   39.9960   23.3840   36.1360 C   0  0  0  0  0  2  0  0  0  0  0  0
   36.2380   24.1800   30.8340 O   0  0  0  0  0  0  0  0  0  0  0  0
   35.8780   27.6810   31.6280 C   0  0  0  0  0  0  0  0  0  0  0  0
   37.1430   27.9290   32.2350 C   0  0  0  0  0  0  0  0  0  0  0  0
   38.0210   26.8650   32.3210 C   0  0  0  0  0  0  0  0  0  0  0  0
   37.6020   25.6560   31.8150 N   0  0  0  0  0  0  0  0  0  0  0  0
   36.4160   25.4640   31.2570 C   0  0  0  0  0  0  0  0  0  0  0  0
   35.5410   26.4840   31.1600 N   0  0  0  0  0  0  0  0  0  0  0  0
   35.2430   28.5540   31.5940 H   0  0  0  0  0  0  0  0  0  0  0  0
   37.4570   28.8740   32.6250 H   0  0  0  0  0  0  0  0  0  0  0  0
   38.8070   26.3530   35.0630 F   0  0  0  0  0  0  0  0  0  0  0  0
   39.7360   26.6920   34.1710 C   0  0  0  0  0  0  0  0  0  0  0  0
   39.3430   26.9250   32.9010 C   0  0  0  0  0  0  0  0  0  0  0  0
   40.3960   27.2720   32.0460 C   0  0  0  0  0  0  0  0  0  0  0  0
   41.7000   27.3650   32.4710 C   0  0  0  0  0  0  0  0  0  0  0  0
   42.0390   27.1140   33.7820 C   0  0  0  0  0  0  0  0  0  0  0  0
   41.0260   26.7710   34.6380 C   0  0  0  0  0  0  0  0  0  0  0  0
   40.2510   27.4910   30.9970 H   0  0  0  0  0  0  0  0  0  0  0  0
   42.5130   27.6350   31.8030 H   0  0  0  0  0  0  0  0  0  0  0  0
   43.0660   27.1910   34.1000 H   0  0  0  0  0  0  0  0  0  0  0  0
   41.2760   26.5760   35.6570 H   0  0  0  0  0  0  0  0  0  0  0  0
  1  2  1  0  0  0  0
  3  1  1  0  0  0  0
  4  1  1  0  0  0  0
  4  6  1  0  0  0  0
  4  7  1  0  0  0  0
  5  4  1  0  0  0  0
  7 12  1  0  0  0  0
  8  7  2  0  0  0  0
  8  9  1  0  0  0  0
  9 10  2  0  0  0  0
 10 11  1  0  0  0  0
 11 15  1  0  0  0  0
 12 11  2  0  0  0  0
 13  8  1  0  0  0  0
 14  9  1  0  0  0  0
 15 23  1  0  0  0  0
 15 16  1  0  0  0  0
 16 17  1  0  0  0  0
 16 18  1  0  0  0  0
 18 19  1  0  0  0  0
 18 20  1  0  0  0  0
 20 21  1  0  0  0  0
 22 20  1  0  0  0  0
 23 22  1  0  0  0  0
 24 29  1  0  0  0  0
 24  1  1  0  0  0  0
 25 26  1  0  0  0  0
 26 27  2  0  0  0  0
 26 32  1  0  0  0  0
 27 35  1  0  0  0  0
 28 27  1  0  0  0  0
 29 28  2  0  0  0  0
 30 29  1  0  0  0  0
 30 25  2  0  0  0  0
 31 25  1  0  0  0  0
 34 39  1  0  0  0  0
 34 33  1  0  0  0  0
 35 34  2  0  0  0  0
 36 37  2  0  0  0  0
 36 35  1  0  0  0  0
 37 38  1  0  0  0  0
 38 42  1  0  0  0  0
 38 39  2  0  0  0  0
 39 43  1  0  0  0  0
 40 36  1  0  0  0  0
 41 37  1  0  0  0  0
M  END
>  <minimizedAffinity>
-6.35852146

$$$$

 OpenBabel03272509563D

 43 46  0  0  0  0  0  0  0  0999 V2000
   35.5910   23.5790   31.5600 C   0  0  0  0  0  0  0  0  0  0  0  0
   35.5300   24.1980   32.4900 H   0  0  0  0  0  0  0  0  0  0  0  0
   34.6050   23.6160   31.0470 H   0  0  0  0  0  0  0  0  0  0  0  0
   35.9300   22.1510   31.8640 C   0  0  0  0  0  0  0  0  0  0  0  0
   35.9920   21.5120   30.9570 H   0  0  0  0  0  0  0  0  0  0  0  0
   35.1540   21.6750   32.5210 H   0  0  0  0  0  0  0  0  0  0  0  0
   37.2050   22.0210   32.6120 C   0  0  0  0  0  0  0  0  0  0  0  0
   38.2570   21.3520   32.0080 C   0  0  0  0  0  0  0  0  0  0  0  0
   39.4640   21.1830   32.6180 C   0  0  0  0  0  0  0  0  0  0  0  0
   39.6520   21.6720   33.8330 N   0  0  0  0  0  0  0  0  0  0  0  0
   38.6230   22.3330   34.4370 C   0  0  0  0  0  0  0  0  0  0  0  0
   37.4140   22.5170   33.8580 N   0  0  0  0  0  0  0  0  0  0  0  0
   38.1120   20.9420   31.0000 H   0  0  0  0  0  0  0  0  0  0  0  0
   40.2620   20.6540   32.1130 H   0  0  0  0  0  0  0  0  0  0  0  0
   38.7800   22.8760   35.7450 N   0  0  0  0  0  0  0  0  0  0  0  0
   37.6910   23.0150   36.6930 C   0  0  0  0  0  3  0  0  0  0  0  0
   37.0970   22.0980   36.7960 H   0  0  0  0  0  0  0  0  0  0  0  0
   38.3170   23.4250   38.0170 C   0  0  0  0  0  3  0  0  0  0  0  0
   38.5570   24.4920   38.0590 H   0  0  0  0  0  0  0  0  0  0  0  0
   39.4320   22.5950   38.3670 N   0  0  0  0  0  0  0  0  0  0  0  0
   39.0360   21.6490   38.6140 H   0  0  0  0  0  0  0  0  0  0  0  0
   40.4690   22.5120   37.3860 C   0  0  0  0  0  2  0  0  0  0  0  0
   40.0960   23.3190   36.1690 C   0  0  0  0  0  2  0  0  0  0  0  0
   36.5750   24.1480   30.6970 O   0  0  0  0  0  0  0  0  0  0  0  0
   39.3690   26.1900   31.7200 C   0  0  0  0  0  0  0  0  0  0  0  0
   38.6720   27.3090   32.2590 C   0  0  0  0  0  0  0  0  0  0  0  0
   37.2920   27.2700   32.2270 C   0  0  0  0  0  0  0  0  0  0  0  0
   36.7030   26.1540   31.6770 N   0  0  0  0  0  0  0  0  0  0  0  0
   37.3850   25.1300   31.1840 C   0  0  0  0  0  0  0  0  0  0  0  0
   38.7320   25.1440   31.2030 N   0  0  0  0  0  0  0  0  0  0  0  0
   40.4430   26.2870   31.7770 H   0  0  0  0  0  0  0  0  0  0  0  0
   39.1410   28.1720   32.6840 H   0  0  0  0  0  0  0  0  0  0  0  0
   36.7760   28.0170   34.9790 F   0  0  0  0  0  0  0  0  0  0  0  0
   36.1620   28.6760   33.9990 C   0  0  0  0  0  0  0  0  0  0  0  0
   36.4190   28.3080   32.7260 C   0  0  0  0  0  0  0  0  0  0  0  0
   35.7230   29.0650   31.7760 C   0  0  0  0  0  0  0  0  0  0  0  0
   34.8630   30.0800   32.1170 C   0  0  0  0  0  0  0  0  0  0  0  0
   34.6410   30.4090   33.4360 C   0  0  0  0  0  0  0  0  0  0  0  0
   35.3120   29.6840   34.3860 C   0  0  0  0  0  0  0  0  0  0  0  0
   35.8180   28.8970   30.7110 H   0  0  0  0  0  0  0  0  0  0  0  0
   34.3260   30.6640   31.3760 H   0  0  0  0  0  0  0  0  0  0  0  0
   33.9640   31.2080   33.6880 H   0  0  0  0  0  0  0  0  0  0  0  0
   35.1480   29.9290   35.4110 H   0  0  0  0  0  0  0  0  0  0  0  0
  1  4  1  0  0  0  0
  1  2  1  0  0  0  0
  3  1  1  0  0  0  0
  4  6  1  0  0  0  0
  4  7  1  0  0  0  0
  5  4  1  0  0  0  0
  7 12  1  0  0  0  0
  8  7  2  0  0  0  0
  8  9  1  0  0  0  0
  9 10  2  0  0  0  0
 10 11  1  0  0  0  0
 11 15  1  0  0  0  0
 12 11  2  0  0  0  0
 13  8  1  0  0  0  0
 14  9  1  0  0  0  0
 15 23  1  0  0  0  0
 15 16  1  0  0  0  0
 16 17  1  0  0  0  0
 16 18  1  0  0  0  0
 18 19  1  0  0  0  0
 18 20  1  0  0  0  0
 20 21  1  0  0  0  0
 22 20  1  0  0  0  0
 23 22  1  0  0  0  0
 24 29  1  0  0  0  0
 24  1  1  0  0  0  0
 25 31  1  0  0  0  0
 25 26  1  0  0  0  0
 26 32  1  0  0  0  0
 27 26  2  0  0  0  0
 27 35  1  0  0  0  0
 28 27  1  0  0  0  0
 29 30  1  0  0  0  0
 29 28  2  0  0  0  0
 30 25  2  0  0  0  0
 34 39  1  0  0  0  0
 34 33  1  0  0  0  0
 35 34  2  0  0  0  0
 36 37  2  0  0  0  0
 36 35  1  0  0  0  0
 37 38  1  0  0  0  0
 38 42  1  0  0  0  0
 38 39  2  0  0  0  0
 39 43  1  0  0  0  0
 40 36  1  0  0  0  0
 41 37  1  0  0  0  0
M  END
>  <minimizedAffinity>
-6.35403013

$$$$

 OpenBabel03272509563D

 43 46  0  0  0  0  0  0  0  0999 V2000
   38.7750   26.7240   34.6390 C   0  0  0  0  0  0  0  0  0  0  0  0
   39.2160   27.7150   34.3620 H   0  0  0  0  0  0  0  0  0  0  0  0
   38.9360   26.5580   35.7270 H   0  0  0  0  0  0  0  0  0  0  0  0
   39.4100   25.6010   33.8750 C   0  0  0  0  0  0  0  0  0  0  0  0
   40.5090   25.5310   34.0290 H   0  0  0  0  0  0  0  0  0  0  0  0
   39.2640   25.7220   32.7680 H   0  0  0  0  0  0  0  0  0  0  0  0
   38.8110   24.2840   34.2050 C   0  0  0  0  0  0  0  0  0  0  0  0
   39.1190   23.7080   35.4260 C   0  0  0  0  0  0  0  0  0  0  0  0
   38.6160   22.5020   35.8150 C   0  0  0  0  0  0  0  0  0  0  0  0
   37.8010   21.8470   35.0050 N   0  0  0  0  0  0  0  0  0  0  0  0
   37.4900   22.4050   33.8000 C   0  0  0  0  0  0  0  0  0  0  0  0
   37.9730   23.5990   33.3860 N   0  0  0  0  0  0  0  0  0  0  0  0
   39.7940   24.2430   36.1060 H   0  0  0  0  0  0  0  0  0  0  0  0
   38.8810   22.0850   36.7780 H   0  0  0  0  0  0  0  0  0  0  0  0
   36.6170   21.7340   32.8960 N   0  0  0  0  0  0  0  0  0  0  0  0
   36.7000   21.8650   31.4530 C   0  0  0  0  0  3  0  0  0  0  0  0
   37.7200   21.7310   31.0720 H   0  0  0  0  0  0  0  0  0  0  0  0
   35.7470   20.8350   30.8680 C   0  0  0  0  0  3  0  0  0  0  0  0
   34.7040   21.1640   30.8880 H   0  0  0  0  0  0  0  0  0  0  0  0
   35.9270   19.5380   31.4530 N   0  0  0  0  0  0  0  0  0  0  0  0
   36.8550   19.1780   31.1030 H   0  0  0  0  0  0  0  0  0  0  0  0
   35.8240   19.4880   32.8790 C   0  0  0  0  0  2  0  0  0  0  0  0
   35.5810   20.8690   33.4290 C   0  0  0  0  0  2  0  0  0  0  0  0
   37.3710   26.7620   34.3850 O   0  0  0  0  0  0  0  0  0  0  0  0
   36.3620   29.2520   31.9780 C   0  0  0  0  0  0  0  0  0  0  0  0
   35.6570   30.1500   32.8310 C   0  0  0  0  0  0  0  0  0  0  0  0
   35.5880   29.8230   34.1720 C   0  0  0  0  0  0  0  0  0  0  0  0
   36.2020   28.6600   34.5730 N   0  0  0  0  0  0  0  0  0  0  0  0
   36.8500   27.8480   33.7480 C   0  0  0  0  0  0  0  0  0  0  0  0
   36.9320   28.1430   32.4360 N   0  0  0  0  0  0  0  0  0  0  0  0
   36.3760   29.5680   30.9450 H   0  0  0  0  0  0  0  0  0  0  0  0
   35.1830   31.0520   32.5080 H   0  0  0  0  0  0  0  0  0  0  0  0
   36.7360   31.7720   35.9830 F   0  0  0  0  0  0  0  0  0  0  0  0
   35.4290   31.5210   36.0390 C   0  0  0  0  0  0  0  0  0  0  0  0
   34.9200   30.6090   35.1840 C   0  0  0  0  0  0  0  0  0  0  0  0
   33.5400   30.4220   35.3260 C   0  0  0  0  0  0  0  0  0  0  0  0
   32.7870   31.1060   36.2500 C   0  0  0  0  0  0  0  0  0  0  0  0
   33.3660   32.0260   37.0960 C   0  0  0  0  0  0  0  0  0  0  0  0
   34.7150   32.2280   36.9760 C   0  0  0  0  0  0  0  0  0  0  0  0
   32.9780   29.7260   34.7170 H   0  0  0  0  0  0  0  0  0  0  0  0
   31.7160   30.9570   36.3560 H   0  0  0  0  0  0  0  0  0  0  0  0
   32.7620   32.5550   37.8150 H   0  0  0  0  0  0  0  0  0  0  0  0
   35.1750   32.9380   37.6260 H   0  0  0  0  0  0  0  0  0  0  0  0
  1  3  1  0  0  0  0
  2  1  1  0  0  0  0
  4  5  1  0  0  0  0
  4  7  1  0  0  0  0
  4  1  1  0  0  0  0
  6  4  1  0  0  0  0
  7  8  1  0  0  0  0
  8  9  2  0  0  0  0
  8 13  1  0  0  0  0
  9 14  1  0  0  0  0
 10  9  1  0  0  0  0
 11 10  2  0  0  0  0
 12 11  1  0  0  0  0
 12  7  2  0  0  0  0
 15 23  1  0  0  0  0
 15 11  1  0  0  0  0
 16 15  1  0  0  0  0
 17 16  1  0  0  0  0
 18 19  1  0  0  0  0
 18 20  1  0  0  0  0
 18 16  1  0  0  0  0
 20 22  1  0  0  0  0
 21 20  1  0  0  0  0
 22 23  1  0  0  0  0
 24  1  1  0  0  0  0
 25 30  2  0  0  0  0
 25 26  1  0  0  0  0
 26 27  2  0  0  0  0
 27 28  1  0  0  0  0
 27 35  1  0  0  0  0
 29 24  1  0  0  0  0
 29 28  2  0  0  0  0
 30 29  1  0  0  0  0
 31 25  1  0  0  0  0
 32 26  1  0  0  0  0
 33 34  1  0  0  0  0
 34 39  1  0  0  0  0
 35 36  1  0  0  0  0
 35 34  2  0  0  0  0
 36 37  2  0  0  0  0
 37 41  1  0  0  0  0
 37 38  1  0  0  0  0
 38 42  1  0  0  0  0
 39 38  2  0  0  0  0
 39 43  1  0  0  0  0
 40 36  1  0  0  0  0
M  END
>  <minimizedAffinity>
-6.28447247

$$$$

 OpenBabel03272509563D

 43 46  0  0  0  0  0  0  0  0999 V2000
   38.4710   26.3070   33.9840 C   0  0  0  0  0  0  0  0  0  0  0  0
   38.5900   26.4520   32.8810 H   0  0  0  0  0  0  0  0  0  0  0  0
   39.2280   26.9340   34.5050 H   0  0  0  0  0  0  0  0  0  0  0  0
   38.6670   24.8750   34.3810 C   0  0  0  0  0  0  0  0  0  0  0  0
   37.9950   24.5520   35.2050 H   0  0  0  0  0  0  0  0  0  0  0  0
   39.7120   24.6890   34.7480 H   0  0  0  0  0  0  0  0  0  0  0  0
   38.4840   23.9430   33.2400 C   0  0  0  0  0  0  0  0  0  0  0  0
   39.0070   24.3010   32.0090 C   0  0  0  0  0  0  0  0  0  0  0  0
   38.8890   23.5090   30.9050 C   0  0  0  0  0  0  0  0  0  0  0  0
   38.2530   22.3540   31.0000 N   0  0  0  0  0  0  0  0  0  0  0  0
   37.7340   21.9910   32.2090 C   0  0  0  0  0  0  0  0  0  0  0  0
   37.8350   22.7530   33.3210 N   0  0  0  0  0  0  0  0  0  0  0  0
   39.5370   25.2580   31.9190 H   0  0  0  0  0  0  0  0  0  0  0  0
   39.3120   23.8240   29.9600 H   0  0  0  0  0  0  0  0  0  0  0  0
   37.0410   20.7550   32.3570 N   0  0  0  0  0  0  0  0  0  0  0  0
   35.9690   20.5450   33.3110 C   0  0  0  0  0  3  0  0  0  0  0  0
   35.2090   21.3360   33.2780 H   0  0  0  0  0  0  0  0  0  0  0  0
   35.3690   19.1840   32.9980 C   0  0  0  0  0  3  0  0  0  0  0  0
   35.9600   18.3570   33.4050 H   0  0  0  0  0  0  0  0  0  0  0  0
   35.0880   19.0250   31.6010 N   0  0  0  0  0  0  0  0  0  0  0  0
   34.2730   19.6600   31.3860 H   0  0  0  0  0  0  0  0  0  0  0  0
   36.1950   19.2410   30.7230 C   0  0  0  0  0  2  0  0  0  0  0  0
   37.4160   19.6330   31.5160 C   0  0  0  0  0  2  0  0  0  0  0  0
   37.1700   26.7530   34.3650 O   0  0  0  0  0  0  0  0  0  0  0  0
   36.0850   29.2190   31.9660 C   0  0  0  0  0  0  0  0  0  0  0  0
   35.4490   30.1490   32.8380 C   0  0  0  0  0  0  0  0  0  0  0  0
   35.4460   29.8500   34.1870 C   0  0  0  0  0  0  0  0  0  0  0  0
   36.0560   28.6800   34.5770 N   0  0  0  0  0  0  0  0  0  0  0  0
   36.6390   27.8380   33.7360 C   0  0  0  0  0  0  0  0  0  0  0  0
   36.6550   28.1060   32.4150 N   0  0  0  0  0  0  0  0  0  0  0  0
   36.0490   29.5140   30.9280 H   0  0  0  0  0  0  0  0  0  0  0  0
   34.9770   31.0560   32.5220 H   0  0  0  0  0  0  0  0  0  0  0  0
   36.7480   31.7550   35.9410 F   0  0  0  0  0  0  0  0  0  0  0  0
   35.4350   31.5640   36.0460 C   0  0  0  0  0  0  0  0  0  0  0  0
   34.8530   30.6710   35.2180 C   0  0  0  0  0  0  0  0  0  0  0  0
   33.4720   30.5480   35.4120 C   0  0  0  0  0  0  0  0  0  0  0  0
   32.7860   31.2700   36.3590 C   0  0  0  0  0  0  0  0  0  0  0  0
   33.4370   32.1670   37.1760 C   0  0  0  0  0  0  0  0  0  0  0  0
   34.7890   32.3070   37.0050 C   0  0  0  0  0  0  0  0  0  0  0  0
   32.8570   29.8750   34.8300 H   0  0  0  0  0  0  0  0  0  0  0  0
   31.7150   31.1700   36.5050 H   0  0  0  0  0  0  0  0  0  0  0  0
   32.8850   32.7270   37.9130 H   0  0  0  0  0  0  0  0  0  0  0  0
   35.3040   32.9990   37.6320 H   0  0  0  0  0  0  0  0  0  0  0  0
  1 24  1  0  0  0  0
  1  4  1  0  0  0  0
  1  3  1  0  0  0  0
  2  1  1  0  0  0  0
  4  6  1  0  0  0  0
  4  5  1  0  0  0  0
  7 12  1  0  0  0  0
  7  4  1  0  0  0  0
  8  7  2  0  0  0  0
  9 10  2  0  0  0  0
  9  8  1  0  0  0  0
 10 11  1  0  0  0  0
 11 15  1  0  0  0  0
 11 12  2  0  0  0  0
 13  8  1  0  0  0  0
 14  9  1  0  0  0  0
 15 16  1  0  0  0  0
 17 16  1  0  0  0  0
 18 16  1  0  0  0  0
 18 19  1  0  0  0  0
 20 18  1  0  0  0  0
 21 20  1  0  0  0  0
 22 23  1  0  0  0  0
 22 20  1  0  0  0  0
 23 15  1  0  0  0  0
 25 30  2  0  0  0  0
 25 26  1  0  0  0  0
 26 27  2  0  0  0  0
 27 28  1  0  0  0  0
 27 35  1  0  0  0  0
 29 24  1  0  0  0  0
 29 28  2  0  0  0  0
 30 29  1  0  0  0  0
 31 25  1  0  0  0  0
 32 26  1  0  0  0  0
 33 34  1  0  0  0  0
 34 39  1  0  0  0  0
 35 36  1  0  0  0  0
 35 34  2  0  0  0  0
 36 37  2  0  0  0  0
 37 41  1  0  0  0  0
 37 38  1  0  0  0  0
 38 42  1  0  0  0  0
 39 38  2  0  0  0  0
 39 43  1  0  0  0  0
 40 36  1  0  0  0  0
M  END
>  <minimizedAffinity>
-6.01117373

$$$$

 OpenBabel03272509563D

 43 46  0  0  0  0  0  0  0  0999 V2000
   36.6460   27.1500   32.2990 C   0  0  0  0  0  0  0  0  0  0  0  0
   36.4280   27.3930   31.2280 H   0  0  0  0  0  0  0  0  0  0  0  0
   35.7970   26.5580   32.7050 H   0  0  0  0  0  0  0  0  0  0  0  0
   36.8190   28.3870   33.1260 C   0  0  0  0  0  0  0  0  0  0  0  0
   37.4600   29.1540   32.6400 H   0  0  0  0  0  0  0  0  0  0  0  0
   37.3100   28.1590   34.1100 H   0  0  0  0  0  0  0  0  0  0  0  0
   35.5220   29.0180   33.4760 C   0  0  0  0  0  0  0  0  0  0  0  0
   34.4290   28.7680   32.6640 C   0  0  0  0  0  0  0  0  0  0  0  0
   33.1980   29.3040   32.9070 C   0  0  0  0  0  0  0  0  0  0  0  0
   33.0300   30.0930   33.9540 N   0  0  0  0  0  0  0  0  0  0  0  0
   34.1010   30.3460   34.7610 C   0  0  0  0  0  0  0  0  0  0  0  0
   35.3320   29.8310   34.5470 N   0  0  0  0  0  0  0  0  0  0  0  0
   34.5580   28.1140   31.7920 H   0  0  0  0  0  0  0  0  0  0  0  0
   32.3680   29.0840   32.2490 H   0  0  0  0  0  0  0  0  0  0  0  0
   33.9640   31.1920   35.9000 N   0  0  0  0  0  0  0  0  0  0  0  0
   35.0410   32.0080   36.4280 C   0  0  0  0  0  3  0  0  0  0  0  0
   35.5500   32.5940   35.6530 H   0  0  0  0  0  0  0  0  0  0  0  0
   34.4270   32.9040   37.4910 C   0  0  0  0  0  3  0  0  0  0  0  0
   34.2810   32.3890   38.4460 H   0  0  0  0  0  0  0  0  0  0  0  0
   33.2350   33.5530   37.0280 N   0  0  0  0  0  0  0  0  0  0  0  0
   33.5420   34.2660   36.3140 H   0  0  0  0  0  0  0  0  0  0  0  0
   32.2160   32.6840   36.5280 C   0  0  0  0  0  2  0  0  0  0  0  0
   32.6840   31.2530   36.5820 C   0  0  0  0  0  2  0  0  0  0  0  0
   37.8270   26.3490   32.3530 O   0  0  0  0  0  0  0  0  0  0  0  0
   37.2570   22.7880   32.4390 C   0  0  0  0  0  0  0  0  0  0  0  0
   37.6210   22.5120   33.7880 C   0  0  0  0  0  0  0  0  0  0  0  0
   38.0340   23.5790   34.5620 C   0  0  0  0  0  0  0  0  0  0  0  0
   38.0610   24.8190   33.9670 N   0  0  0  0  0  0  0  0  0  0  0  0
   37.7140   25.0380   32.7070 C   0  0  0  0  0  0  0  0  0  0  0  0
   37.3080   24.0150   31.9300 N   0  0  0  0  0  0  0  0  0  0  0  0
   36.9440   21.9100   31.8930 H   0  0  0  0  0  0  0  0  0  0  0  0
   37.5960   21.5420   34.2400 H   0  0  0  0  0  0  0  0  0  0  0  0
   40.2950   22.1580   35.6890 F   0  0  0  0  0  0  0  0  0  0  0  0
   39.4850   22.8410   36.4970 C   0  0  0  0  0  0  0  0  0  0  0  0
   38.4390   23.4930   35.9460 C   0  0  0  0  0  0  0  0  0  0  0  0
   37.6540   24.1770   36.8820 C   0  0  0  0  0  0  0  0  0  0  0  0
   37.9300   24.1760   38.2280 C   0  0  0  0  0  0  0  0  0  0  0  0
   39.0140   23.4900   38.7300 C   0  0  0  0  0  0  0  0  0  0  0  0
   39.7990   22.8130   37.8350 C   0  0  0  0  0  0  0  0  0  0  0  0
   36.7800   24.7490   36.6050 H   0  0  0  0  0  0  0  0  0  0  0  0
   37.3180   24.7090   38.9500 H   0  0  0  0  0  0  0  0  0  0  0  0
   39.2180   23.4990   39.7880 H   0  0  0  0  0  0  0  0  0  0  0  0
   40.6410   22.2780   38.2110 H   0  0  0  0  0  0  0  0  0  0  0  0
  1 24  1  0  0  0  0
  1  3  1  0  0  0  0
  1  4  1  0  0  0  0
  2  1  1  0  0  0  0
  4  7  1  0  0  0  0
  4  6  1  0  0  0  0
  5  4  1  0  0  0  0
  7 12  1  0  0  0  0
  8  9  1  0  0  0  0
  8  7  2  0  0  0  0
  9 10  2  0  0  0  0
 10 11  1  0  0  0  0
 11 15  1  0  0  0  0
 12 11  2  0  0  0  0
 13  8  1  0  0  0  0
 14  9  1  0  0  0  0
 15 16  1  0  0  0  0
 15 23  1  0  0  0  0
 16 18  1  0  0  0  0
 17 16  1  0  0  0  0
 18 19  1  0  0  0  0
 20 18  1  0  0  0  0
 21 20  1  0  0  0  0
 22 23  1  0  0  0  0
 22 20  1  0  0  0  0
 24 29  1  0  0  0  0
 25 26  1  0  0  0  0
 26 32  1  0  0  0  0
 26 27  2  0  0  0  0
 27 35  1  0  0  0  0
 28 27  1  0  0  0  0
 29 28  2  0  0  0  0
 30 25  2  0  0  0  0
 30 29  1  0  0  0  0
 31 25  1  0  0  0  0
 33 34  1  0  0  0  0
 34 39  1  0  0  0  0
 35 34  2  0  0  0  0
 35 36  1  0  0  0  0
 36 37  2  0  0  0  0
 37 38  1  0  0  0  0
 37 41  1  0  0  0  0
 38 42  1  0  0  0  0
 39 43  1  0  0  0  0
 39 38  2  0  0  0  0
 40 36  1  0  0  0  0
M  END
>  <minimizedAffinity>
-5.97018337

$$$$

 OpenBabel03272509563D

 43 46  0  0  0  0  0  0  0  0999 V2000
   38.8680   26.2960   30.8080 C   0  0  0  0  0  0  0  0  0  0  0  0
   37.7940   26.5270   31.0250 H   0  0  0  0  0  0  0  0  0  0  0  0
   38.9410   25.2340   30.4840 H   0  0  0  0  0  0  0  0  0  0  0  0
   39.7350   26.5010   32.0130 C   0  0  0  0  0  0  0  0  0  0  0  0
   40.1670   27.5230   32.0740 H   0  0  0  0  0  0  0  0  0  0  0  0
   40.6110   25.7980   32.0130 H   0  0  0  0  0  0  0  0  0  0  0  0
   39.0150   26.2240   33.2800 C   0  0  0  0  0  0  0  0  0  0  0  0
   38.0030   27.0880   33.6650 C   0  0  0  0  0  0  0  0  0  0  0  0
   37.2870   26.9140   34.8120 C   0  0  0  0  0  0  0  0  0  0  0  0
   37.5590   25.8840   35.5960 N   0  0  0  0  0  0  0  0  0  0  0  0
   38.5530   25.0260   35.2270 C   0  0  0  0  0  0  0  0  0  0  0  0
   39.2800   25.1710   34.0960 N   0  0  0  0  0  0  0  0  0  0  0  0
   37.7690   27.9460   33.0210 H   0  0  0  0  0  0  0  0  0  0  0  0
   36.5040   27.6110   35.0780 H   0  0  0  0  0  0  0  0  0  0  0  0
   38.8790   23.9030   36.0420 N   0  0  0  0  0  0  0  0  0  0  0  0
   40.2090   23.3290   36.1220 C   0  0  0  0  0  3  0  0  0  0  0  0
   40.9890   24.0830   36.2870 H   0  0  0  0  0  0  0  0  0  0  0  0
   40.1740   22.3070   37.2470 C   0  0  0  0  0  3  0  0  0  0  0  0
   39.7270   21.3560   36.9420 H   0  0  0  0  0  0  0  0  0  0  0  0
   39.5810   22.8370   38.4400 N   0  0  0  0  0  0  0  0  0  0  0  0
   40.2640   23.5420   38.8270 H   0  0  0  0  0  0  0  0  0  0  0  0
   38.2670   23.3800   38.2840 C   0  0  0  0  0  2  0  0  0  0  0  0
   37.8370   23.2890   36.8430 C   0  0  0  0  0  2  0  0  0  0  0  0
   39.3060   27.1310   29.7350 O   0  0  0  0  0  0  0  0  0  0  0  0
   37.8990   30.0930   28.2310 C   0  0  0  0  0  0  0  0  0  0  0  0
   37.0200   30.5060   29.2740 C   0  0  0  0  0  0  0  0  0  0  0  0
   36.9840   29.7280   30.4150 C   0  0  0  0  0  0  0  0  0  0  0  0
   37.7980   28.6190   30.4510 N   0  0  0  0  0  0  0  0  0  0  0  0
   38.6040   28.2660   29.4600 C   0  0  0  0  0  0  0  0  0  0  0  0
   38.6570   29.0070   28.3360 N   0  0  0  0  0  0  0  0  0  0  0  0
   37.8760   30.7450   27.3700 H   0  0  0  0  0  0  0  0  0  0  0  0
   36.3910   31.3700   29.2340 H   0  0  0  0  0  0  0  0  0  0  0  0
   35.2240   27.9020   31.8170 F   0  0  0  0  0  0  0  0  0  0  0  0
   35.3330   29.1590   32.2430 C   0  0  0  0  0  0  0  0  0  0  0  0
   36.1590   29.9890   31.5720 C   0  0  0  0  0  0  0  0  0  0  0  0
   36.1990   31.2840   32.1030 C   0  0  0  0  0  0  0  0  0  0  0  0
   35.4640   31.6620   33.2000 C   0  0  0  0  0  0  0  0  0  0  0  0
   34.6370   30.7680   33.8420 C   0  0  0  0  0  0  0  0  0  0  0  0
   34.5800   29.4930   33.3440 C   0  0  0  0  0  0  0  0  0  0  0  0
   36.8120   32.0690   31.6820 H   0  0  0  0  0  0  0  0  0  0  0  0
   35.4990   32.6680   33.6070 H   0  0  0  0  0  0  0  0  0  0  0  0
   34.0660   31.0790   34.7020 H   0  0  0  0  0  0  0  0  0  0  0  0
   33.9430   28.7920   33.8320 H   0  0  0  0  0  0  0  0  0  0  0  0
  1  2  1  0  0  0  0
  1  4  1  0  0  0  0
  3  1  1  0  0  0  0
  4  5  1  0  0  0  0
  4  7  1  0  0  0  0
  6  4  1  0  0  0  0
  7  8  2  0  0  0  0
  7 12  1  0  0  0  0
  8  9  1  0  0  0  0
  9 14  1  0  0  0  0
  9 10  2  0  0  0  0
 11 10  1  0  0  0  0
 11 15  1  0  0  0  0
 12 11  2  0  0  0  0
 13  8  1  0  0  0  0
 15 16  1  0  0  0  0
 15 23  1  0  0  0  0
 16 17  1  0  0  0  0
 16 18  1  0  0  0  0
 18 20  1  0  0  0  0
 19 18  1  0  0  0  0
 20 21  1  0  0  0  0
 22 20  1  0  0  0  0
 23 22  1  0  0  0  0
 24  1  1  0  0  0  0
 25 30  2  0  0  0  0
 25 26  1  0  0  0  0
 26 27  2  0  0  0  0
 27 28  1  0  0  0  0
 27 35  1  0  0  0  0
 29 24  1  0  0  0  0
 29 28  2  0  0  0  0
 30 29  1  0  0  0  0
 31 25  1  0  0  0  0
 32 26  1  0  0  0  0
 33 34  1  0  0  0  0
 34 39  1  0  0  0  0
 35 36  1  0  0  0  0
 35 34  2  0  0  0  0
 36 37  2  0  0  0  0
 37 41  1  0  0  0  0
 37 38  1  0  0  0  0
 38 42  1  0  0  0  0
 39 43  1  0  0  0  0
 39 38  2  0  0  0  0
 40 36  1  0  0  0  0
M  END
>  <minimizedAffinity>
-5.95477772

$$$$

 OpenBabel03272509563D

 43 46  0  0  0  0  0  0  0  0999 V2000
   39.4420   25.0480   32.0340 C   0  0  0  0  0  0  0  0  0  0  0  0
   39.6820   24.7530   33.0870 H   0  0  0  0  0  0  0  0  0  0  0  0
   40.2780   24.7200   31.3770 H   0  0  0  0  0  0  0  0  0  0  0  0
   39.2670   26.5310   31.8980 C   0  0  0  0  0  0  0  0  0  0  0  0
   38.8240   26.8330   30.9250 H   0  0  0  0  0  0  0  0  0  0  0  0
   40.2510   27.0680   31.9650 H   0  0  0  0  0  0  0  0  0  0  0  0
   38.4360   27.1040   32.9860 C   0  0  0  0  0  0  0  0  0  0  0  0
   38.8270   26.8850   34.2970 C   0  0  0  0  0  0  0  0  0  0  0  0
   38.1270   27.3720   35.3600 C   0  0  0  0  0  0  0  0  0  0  0  0
   37.0320   28.0810   35.1460 N   0  0  0  0  0  0  0  0  0  0  0  0
   36.6380   28.3040   33.8590 C   0  0  0  0  0  0  0  0  0  0  0  0
   37.3100   27.8350   32.7840 N   0  0  0  0  0  0  0  0  0  0  0  0
   39.7350   26.2980   34.4850 H   0  0  0  0  0  0  0  0  0  0  0  0
   38.4640   27.1790   36.3700 H   0  0  0  0  0  0  0  0  0  0  0  0
   35.4640   29.0620   33.5820 N   0  0  0  0  0  0  0  0  0  0  0  0
   34.6290   28.8530   32.4140 C   0  0  0  0  0  3  0  0  0  0  0  0
   34.3730   27.7970   32.2580 H   0  0  0  0  0  0  0  0  0  0  0  0
   33.3860   29.7050   32.6100 C   0  0  0  0  0  3  0  0  0  0  0  0
   33.5520   30.7590   32.3650 H   0  0  0  0  0  0  0  0  0  0  0  0
   32.8080   29.5270   33.9100 N   0  0  0  0  0  0  0  0  0  0  0  0
   32.3930   28.5570   33.9220 H   0  0  0  0  0  0  0  0  0  0  0  0
   33.6890   29.7570   35.0120 C   0  0  0  0  0  2  0  0  0  0  0  0
   35.0660   30.1060   34.5090 C   0  0  0  0  0  2  0  0  0  0  0  0
   38.2520   24.3710   31.6290 O   0  0  0  0  0  0  0  0  0  0  0  0
   36.5750   21.4640   32.9530 C   0  0  0  0  0  0  0  0  0  0  0  0
   37.0040   21.5270   34.3100 C   0  0  0  0  0  0  0  0  0  0  0  0
   37.8380   22.5720   34.6610 C   0  0  0  0  0  0  0  0  0  0  0  0
   38.1870   23.4620   33.6720 N   0  0  0  0  0  0  0  0  0  0  0  0
   37.7680   23.3700   32.4170 C   0  0  0  0  0  0  0  0  0  0  0  0
   36.9540   22.3620   32.0490 N   0  0  0  0  0  0  0  0  0  0  0  0
   35.9270   20.6240   32.7490 H   0  0  0  0  0  0  0  0  0  0  0  0
   36.7260   20.8280   35.0700 H   0  0  0  0  0  0  0  0  0  0  0  0
   40.4330   21.8190   35.7080 F   0  0  0  0  0  0  0  0  0  0  0  0
   39.5730   22.4610   36.4970 C   0  0  0  0  0  0  0  0  0  0  0  0
   38.3710   22.8000   35.9840 C   0  0  0  0  0  0  0  0  0  0  0  0
   37.5460   23.4700   36.8950 C   0  0  0  0  0  0  0  0  0  0  0  0
   37.9320   23.7500   38.1830 C   0  0  0  0  0  0  0  0  0  0  0  0
   39.1740   23.3780   38.6490 C   0  0  0  0  0  0  0  0  0  0  0  0
   40.0010   22.7210   37.7770 C   0  0  0  0  0  0  0  0  0  0  0  0
   36.5510   23.8110   36.6420 H   0  0  0  0  0  0  0  0  0  0  0  0
   37.2880   24.2710   38.8860 H   0  0  0  0  0  0  0  0  0  0  0  0
   39.4630   23.6040   39.6620 H   0  0  0  0  0  0  0  0  0  0  0  0
   40.9650   22.4270   38.1250 H   0  0  0  0  0  0  0  0  0  0  0  0
  1  2  1  0  0  0  0
  3  1  1  0  0  0  0
  4  6  1  0  0  0  0
  4  1  1  0  0  0  0
  4  7  1  0  0  0  0
  5  4  1  0  0  0  0
  7  8  1  0  0  0  0
  8 13  1  0  0  0  0
  8  9  2  0  0  0  0
  9 14  1  0  0  0  0
 10  9  1  0  0  0  0
 11 10  2  0  0  0  0
 12  7  2  0  0  0  0
 12 11  1  0  0  0  0
 15 11  1  0  0  0  0
 15 23  1  0  0  0  0
 16 18  1  0  0  0  0
 16 15  1  0  0  0  0
 17 16  1  0  0  0  0
 18 20  1  0  0  0  0
 19 18  1  0  0  0  0
 20 21  1  0  0  0  0
 20 22  1  0  0  0  0
 23 22  1  0  0  0  0
 24  1  1  0  0  0  0
 24 29  1  0  0  0  0
 25 26  1  0  0  0  0
 26 27  2  0  0  0  0
 26 32  1  0  0  0  0
 27 35  1  0  0  0  0
 28 27  1  0  0  0  0
 29 28  2  0  0  0  0
 30 29  1  0  0  0  0
 30 25  2  0  0  0  0
 31 25  1  0  0  0  0
 33 34  1  0  0  0  0
 34 39  1  0  0  0  0
 35 34  2  0  0  0  0
 35 36  1  0  0  0  0
 36 37  2  0  0  0  0
 37 38  1  0  0  0  0
 37 41  1  0  0  0  0
 38 42  1  0  0  0  0
 39 43  1  0  0  0  0
 39 38  2  0  0  0  0
 40 36  1  0  0  0  0
M  END
>  <minimizedAffinity>
-5.92510939

$$$$
