
 OpenBabel03272507383D

 23 24  0  0  1  0  0  0  0  0999 V2000
   40.1650   23.1700   35.3990 C   0  0  0  0  0  0  0  0  0  0  0  0
   39.7110   22.5470   36.5650 C   0  0  0  0  0  0  0  0  0  0  0  0
   40.6450   22.0240   37.4500 C   0  0  0  0  0  0  0  0  0  0  0  0
   41.9700   22.1500   37.1330 N   0  0  0  0  0  0  0  0  0  0  0  0
   42.3810   22.7630   35.9910 C   0  0  0  0  0  0  0  0  0  0  0  0
   41.4770   23.2620   35.1450 N   0  0  0  0  0  0  0  0  0  0  0  0
   40.3520   21.5250   38.3790 H   0  0  0  0  0  0  0  0  0  0  0  0
   43.4300   22.8310   35.7960 H   0  0  0  0  0  0  0  0  0  0  0  0
   37.7740   23.3660   37.7800 C   0  0  0  0  0  0  0  0  0  0  0  0
   38.1540   24.4360   38.3630 O   0  0  0  0  0  0  0  0  0  0  0  0
   38.3820   22.3880   36.9400 N   0  0  0  0  0  0  0  0  0  0  0  0
   36.7300   23.3530   38.1070 H   0  0  0  0  0  0  0  0  0  0  0  0
   37.7280   21.6410   36.6990 H   0  0  0  0  0  0  0  0  0  0  0  0
   39.1190   23.6320   34.6290 O   0  0  0  0  0  0  0  0  0  0  0  0
   40.0130   25.3650   35.8900 H   0  0  0  0  0  0  0  0  0  0  0  0
   40.0430   25.7830   34.9320 N   0  0  0  0  0  0  0  0  0  0  0  0
   39.1850   24.9530   34.1100 C   0  0  2  0  0  3  0  0  0  0  0  0
   37.7670   25.5210   34.2190 C   0  0  0  0  0  3  0  0  0  0  0  0
   37.0520   24.7250   33.9160 H   0  0  0  0  0  0  0  0  0  0  0  0
   37.5650   25.8920   35.5990 N   0  0  0  0  0  0  0  0  0  0  0  0
   36.5530   25.9220   35.8550 H   0  0  0  0  0  0  0  0  0  0  0  0
   38.2440   27.1340   35.8700 C   0  0  0  0  0  2  0  0  0  0  0  0
   39.5380   27.1370   35.0790 C   0  0  0  0  0  2  0  0  0  0  0  0
  1  2  1  0  0  0  0
  2 11  1  0  0  0  0
  2  3  2  0  0  0  0
  3  7  1  0  0  0  0
  4  3  1  0  0  0  0
  5  4  2  0  0  0  0
  6  1  2  0  0  0  0
  6  5  1  0  0  0  0
  8  5  1  0  0  0  0
  9 12  1  0  0  0  0
  9 10  2  0  0  0  0
 11  9  1  0  0  0  0
 13 11  1  0  0  0  0
 14  1  1  0  0  0  0
 16 23  1  0  0  0  0
 16 15  1  0  0  0  0
 17 18  1  0  0  0  0
 17 14  1  1  0  0  0
 17 16  1  0  0  0  0
 18 20  1  0  0  0  0
 19 18  1  0  0  0  0
 20 21  1  0  0  0  0
 20 22  1  0  0  0  0
 23 22  1  0  0  0  0
M  END
>  <minimizedAffinity>
-4.04264879

$$$$

 OpenBabel03272507383D

 23 24  0  0  1  0  0  0  0  0999 V2000
   37.8010   25.4260   34.3420 C   0  0  0  0  0  0  0  0  0  0  0  0
   37.5110   25.5490   32.9810 C   0  0  0  0  0  0  0  0  0  0  0  0
   36.8940   26.7080   32.5310 C   0  0  0  0  0  0  0  0  0  0  0  0
   36.6010   27.6770   33.4520 N   0  0  0  0  0  0  0  0  0  0  0  0
   36.8950   27.5290   34.7710 C   0  0  0  0  0  0  0  0  0  0  0  0
   37.4880   26.4110   35.1950 N   0  0  0  0  0  0  0  0  0  0  0  0
   36.6420   26.8640   31.4770 H   0  0  0  0  0  0  0  0  0  0  0  0
   36.6420   28.3200   35.4440 H   0  0  0  0  0  0  0  0  0  0  0  0
   36.7160   23.8210   31.4700 C   0  0  0  0  0  0  0  0  0  0  0  0
   35.4620   23.7200   31.6840 O   0  0  0  0  0  0  0  0  0  0  0  0
   37.7840   24.6010   32.0000 N   0  0  0  0  0  0  0  0  0  0  0  0
   36.8160   23.0740   30.6770 H   0  0  0  0  0  0  0  0  0  0  0  0
   38.6770   24.3570   31.5700 H   0  0  0  0  0  0  0  0  0  0  0  0
   38.4100   24.2210   34.6260 O   0  0  0  0  0  0  0  0  0  0  0  0
   39.2330   24.7810   36.7240 H   0  0  0  0  0  0  0  0  0  0  0  0
   38.3960   24.2140   36.9860 N   0  0  0  0  0  0  0  0  0  0  0  0
   38.0020   23.5070   35.7840 C   0  0  2  0  0  3  0  0  0  0  0  0
   38.7790   22.1870   35.7610 C   0  0  0  0  0  3  0  0  0  0  0  0
   38.7840   21.8080   34.7160 H   0  0  0  0  0  0  0  0  0  0  0  0
   40.1200   22.4790   36.2070 N   0  0  0  0  0  0  0  0  0  0  0  0
   40.8090   21.7680   35.8730 H   0  0  0  0  0  0  0  0  0  0  0  0
   40.1320   22.6330   37.6390 C   0  0  0  0  0  2  0  0  0  0  0  0
   38.8410   23.3210   38.0410 C   0  0  0  0  0  2  0  0  0  0  0  0
  1 14  1  0  0  0  0
  1  6  1  0  0  0  0
  2  1  2  0  0  0  0
  3  2  1  0  0  0  0
  3  4  2  0  0  0  0
  4  5  1  0  0  0  0
  5  6  2  0  0  0  0
  5  8  1  0  0  0  0
  7  3  1  0  0  0  0
  9 10  2  0  0  0  0
  9 11  1  0  0  0  0
 11  2  1  0  0  0  0
 12  9  1  0  0  0  0
 13 11  1  0  0  0  0
 15 16  1  0  0  0  0
 16 23  1  0  0  0  0
 17 14  1  6  0  0  0
 17 16  1  0  0  0  0
 18 17  1  0  0  0  0
 18 20  1  0  0  0  0
 19 18  1  0  0  0  0
 20 22  1  0  0  0  0
 21 20  1  0  0  0  0
 22 23  1  0  0  0  0
M  END
>  <minimizedAffinity>
-3.99360633

$$$$

 OpenBabel03272507383D

 23 24  0  0  1  0  0  0  0  0999 V2000
   38.4320   23.7290   36.1570 C   0  0  0  0  0  0  0  0  0  0  0  0
   39.4960   22.8890   36.4980 C   0  0  0  0  0  0  0  0  0  0  0  0
   39.7850   22.6890   37.8410 C   0  0  0  0  0  0  0  0  0  0  0  0
   39.0060   23.3290   38.7670 N   0  0  0  0  0  0  0  0  0  0  0  0
   37.9770   24.1400   38.4040 C   0  0  0  0  0  0  0  0  0  0  0  0
   37.7060   24.3270   37.1110 N   0  0  0  0  0  0  0  0  0  0  0  0
   40.6050   22.0430   38.1720 H   0  0  0  0  0  0  0  0  0  0  0  0
   37.4040   24.6130   39.1720 H   0  0  0  0  0  0  0  0  0  0  0  0
   41.5360   22.8250   35.1810 C   0  0  0  0  0  0  0  0  0  0  0  0
   42.1230   23.9400   35.3910 O   0  0  0  0  0  0  0  0  0  0  0  0
   40.3210   22.2140   35.6050 N   0  0  0  0  0  0  0  0  0  0  0  0
   42.2690   22.3690   34.5090 H   0  0  0  0  0  0  0  0  0  0  0  0
   40.1930   21.2960   35.1760 H   0  0  0  0  0  0  0  0  0  0  0  0
   38.2770   23.8230   34.7900 O   0  0  0  0  0  0  0  0  0  0  0  0
   39.1930   25.5870   35.9910 H   0  0  0  0  0  0  0  0  0  0  0  0
   39.5320   25.8080   35.0270 N   0  0  0  0  0  0  0  0  0  0  0  0
   38.7350   24.9940   34.1300 C   0  0  2  0  0  3  0  0  0  0  0  0
   37.4820   25.8010   33.7810 C   0  0  0  0  0  3  0  0  0  0  0  0
   36.7070   25.0930   33.4120 H   0  0  0  0  0  0  0  0  0  0  0  0
   37.0450   26.4510   34.9930 N   0  0  0  0  0  0  0  0  0  0  0  0
   36.0310   26.6960   34.9660 H   0  0  0  0  0  0  0  0  0  0  0  0
   37.8850   27.5910   35.2610 C   0  0  0  0  0  2  0  0  0  0  0  0
   39.3000   27.2310   34.8470 C   0  0  0  0  0  2  0  0  0  0  0  0
  1  2  2  0  0  0  0
  1  6  1  0  0  0  0
  2  3  1  0  0  0  0
  3  7  1  0  0  0  0
  3  4  2  0  0  0  0
  5  4  1  0  0  0  0
  5  8  1  0  0  0  0
  6  5  2  0  0  0  0
  9 10  2  0  0  0  0
  9 11  1  0  0  0  0
 11  2  1  0  0  0  0
 12  9  1  0  0  0  0
 13 11  1  0  0  0  0
 14  1  1  0  0  0  0
 16 15  1  0  0  0  0
 17 14  1  1  0  0  0
 17 16  1  0  0  0  0
 18 17  1  0  0  0  0
 18 20  1  0  0  0  0
 19 18  1  0  0  0  0
 20 22  1  0  0  0  0
 21 20  1  0  0  0  0
 23 16  1  0  0  0  0
 23 22  1  0  0  0  0
M  END
>  <minimizedAffinity>
-3.98297167

$$$$

 OpenBabel03272507383D

 23 24  0  0  1  0  0  0  0  0999 V2000
   38.6310   23.9430   35.0880 C   0  0  0  0  0  0  0  0  0  0  0  0
   38.3040   22.9790   36.0450 C   0  0  0  0  0  0  0  0  0  0  0  0
   37.6040   21.8490   35.6440 C   0  0  0  0  0  0  0  0  0  0  0  0
   37.2700   21.7370   34.3220 N   0  0  0  0  0  0  0  0  0  0  0  0
   37.6030   22.6920   33.4120 C   0  0  0  0  0  0  0  0  0  0  0  0
   38.2750   23.7760   33.8070 N   0  0  0  0  0  0  0  0  0  0  0  0
   37.3200   21.0590   36.3470 H   0  0  0  0  0  0  0  0  0  0  0  0
   37.3140   22.5500   32.3930 H   0  0  0  0  0  0  0  0  0  0  0  0
   39.9040   22.6160   37.8370 C   0  0  0  0  0  0  0  0  0  0  0  0
   40.9450   22.1280   37.2820 O   0  0  0  0  0  0  0  0  0  0  0  0
   38.6150   23.0370   37.3990 N   0  0  0  0  0  0  0  0  0  0  0  0
   40.2600   22.6510   38.8700 H   0  0  0  0  0  0  0  0  0  0  0  0
   38.0370   23.3500   38.1810 H   0  0  0  0  0  0  0  0  0  0  0  0
   39.3210   25.0000   35.6430 O   0  0  0  0  0  0  0  0  0  0  0  0
   37.3040   25.3810   34.5580 H   0  0  0  0  0  0  0  0  0  0  0  0
   37.3270   26.1900   35.2200 N   0  0  0  0  0  0  0  0  0  0  0  0
   38.6930   26.2730   35.6970 C   0  0  2  0  0  3  0  0  0  0  0  0
   39.4610   27.1640   34.7170 C   0  0  0  0  0  3  0  0  0  0  0  0
   40.5470   26.9550   34.8390 H   0  0  0  0  0  0  0  0  0  0  0  0
   39.0180   26.8130   33.3900 N   0  0  0  0  0  0  0  0  0  0  0  0
   39.7210   27.0650   32.6600 H   0  0  0  0  0  0  0  0  0  0  0  0
   37.7250   27.3990   33.1410 C   0  0  0  0  0  2  0  0  0  0  0  0
   36.9360   27.3490   34.4360 C   0  0  0  0  0  2  0  0  0  0  0  0
  1 14  1  0  0  0  0
  1  2  1  0  0  0  0
  2 11  1  0  0  0  0
  3  2  2  0  0  0  0
  3  7  1  0  0  0  0
  4  3  1  0  0  0  0
  5  6  1  0  0  0  0
  5  4  2  0  0  0  0
  6  1  2  0  0  0  0
  8  5  1  0  0  0  0
  9 12  1  0  0  0  0
 10  9  2  0  0  0  0
 11  9  1  0  0  0  0
 11 13  1  0  0  0  0
 15 16  1  0  0  0  0
 16 17  1  0  0  0  0
 17 14  1  6  0  0  0
 18 19  1  0  0  0  0
 18 17  1  0  0  0  0
 20 18  1  0  0  0  0
 21 20  1  0  0  0  0
 22 20  1  0  0  0  0
 22 23  1  0  0  0  0
 23 16  1  0  0  0  0
M  END
>  <minimizedAffinity>
-3.90203166

$$$$

 OpenBabel03272507383D

 23 24  0  0  1  0  0  0  0  0999 V2000
   36.2400   28.6960   33.4150 C   0  0  0  0  0  0  0  0  0  0  0  0
   36.8500   27.4760   33.7170 C   0  0  0  0  0  0  0  0  0  0  0  0
   37.4960   26.7820   32.7020 C   0  0  0  0  0  0  0  0  0  0  0  0
   37.5030   27.3360   31.4510 N   0  0  0  0  0  0  0  0  0  0  0  0
   36.9010   28.5260   31.1870 C   0  0  0  0  0  0  0  0  0  0  0  0
   36.2810   29.1850   32.1680 N   0  0  0  0  0  0  0  0  0  0  0  0
   37.9920   25.8220   32.8760 H   0  0  0  0  0  0  0  0  0  0  0  0
   36.9380   28.9090   30.1900 H   0  0  0  0  0  0  0  0  0  0  0  0
   38.0800   26.8860   35.7270 C   0  0  0  0  0  0  0  0  0  0  0  0
   39.2640   27.3290   35.5540 O   0  0  0  0  0  0  0  0  0  0  0  0
   36.8760   26.8640   34.9660 N   0  0  0  0  0  0  0  0  0  0  0  0
   38.1980   26.4640   36.7290 H   0  0  0  0  0  0  0  0  0  0  0  0
   36.1290   26.3710   35.4580 H   0  0  0  0  0  0  0  0  0  0  0  0
   35.6430   29.2550   34.5250 O   0  0  0  0  0  0  0  0  0  0  0  0
   35.9260   30.3410   36.5580 H   0  0  0  0  0  0  0  0  0  0  0  0
   36.0640   31.1340   35.8910 N   0  0  0  0  0  0  0  0  0  0  0  0
   35.5580   30.6700   34.6140 C   0  0  2  0  0  3  0  0  0  0  0  0
   34.0660   31.0080   34.5700 C   0  0  0  0  0  3  0  0  0  0  0  0
   33.5890   30.3630   33.7990 H   0  0  0  0  0  0  0  0  0  0  0  0
   33.5290   30.7250   35.8780 N   0  0  0  0  0  0  0  0  0  0  0  0
   32.4990   30.5510   35.8530 H   0  0  0  0  0  0  0  0  0  0  0  0
   33.8920   31.7800   36.7900 C   0  0  0  0  0  2  0  0  0  0  0  0
   35.2930   32.2400   36.4310 C   0  0  0  0  0  2  0  0  0  0  0  0
  1  2  1  0  0  0  0
  1 14  1  0  0  0  0
  2 11  1  0  0  0  0
  3  7  1  0  0  0  0
  3  2  2  0  0  0  0
  4  3  1  0  0  0  0
  5  4  2  0  0  0  0
  5  6  1  0  0  0  0
  6  1  2  0  0  0  0
  8  5  1  0  0  0  0
  9 12  1  0  0  0  0
 10  9  2  0  0  0  0
 11 13  1  0  0  0  0
 11  9  1  0  0  0  0
 16 23  1  0  0  0  0
 16 15  1  0  0  0  0
 17 14  1  1  0  0  0
 17 16  1  0  0  0  0
 18 17  1  0  0  0  0
 18 20  1  0  0  0  0
 19 18  1  0  0  0  0
 20 22  1  0  0  0  0
 21 20  1  0  0  0  0
 23 22  1  0  0  0  0
M  END
>  <minimizedAffinity>
-3.88888502

$$$$

 OpenBabel03272507383D

 23 24  0  0  1  0  0  0  0  0999 V2000
   38.1490   23.9250   34.3640 C   0  0  0  0  0  0  0  0  0  0  0  0
   37.7310   23.2450   33.2170 C   0  0  0  0  0  0  0  0  0  0  0  0
   37.0730   23.9550   32.2220 C   0  0  0  0  0  0  0  0  0  0  0  0
   36.8680   25.2940   32.4180 N   0  0  0  0  0  0  0  0  0  0  0  0
   37.2870   25.9280   33.5450 C   0  0  0  0  0  0  0  0  0  0  0  0
   37.9190   25.2380   34.4970 N   0  0  0  0  0  0  0  0  0  0  0  0
   36.7210   23.4800   31.3010 H   0  0  0  0  0  0  0  0  0  0  0  0
   37.0980   26.9760   33.6430 H   0  0  0  0  0  0  0  0  0  0  0  0
   36.8160   20.9960   33.1480 C   0  0  0  0  0  0  0  0  0  0  0  0
   35.6090   21.0970   33.5490 O   0  0  0  0  0  0  0  0  0  0  0  0
   37.9100   21.8900   32.9610 N   0  0  0  0  0  0  0  0  0  0  0  0
   36.8410   19.9210   32.9460 H   0  0  0  0  0  0  0  0  0  0  0  0
   38.7470   21.3980   32.6430 H   0  0  0  0  0  0  0  0  0  0  0  0
   38.7830   23.0820   35.2520 O   0  0  0  0  0  0  0  0  0  0  0  0
   40.9710   22.3720   34.9310 H   0  0  0  0  0  0  0  0  0  0  0  0
   41.1270   23.2510   35.4740 N   0  0  0  0  0  0  0  0  0  0  0  0
   39.8410   23.5990   36.0460 C   0  0  2  0  0  3  0  0  0  0  0  0
   39.7420   22.8860   37.3980 C   0  0  0  0  0  3  0  0  0  0  0  0
   38.6680   22.8310   37.6810 H   0  0  0  0  0  0  0  0  0  0  0  0
   40.2940   21.5650   37.2220 N   0  0  0  0  0  0  0  0  0  0  0  0
   39.9360   20.8900   37.9350 H   0  0  0  0  0  0  0  0  0  0  0  0
   41.7320   21.6400   37.2000 C   0  0  0  0  0  2  0  0  0  0  0  0
   42.1180   22.9200   36.4820 C   0  0  0  0  0  2  0  0  0  0  0  0
  1  6  1  0  0  0  0
  1 14  1  0  0  0  0
  2  1  2  0  0  0  0
  3  4  2  0  0  0  0
  3  2  1  0  0  0  0
  4  5  1  0  0  0  0
  5  8  1  0  0  0  0
  5  6  2  0  0  0  0
  7  3  1  0  0  0  0
  9 10  2  0  0  0  0
 11  9  1  0  0  0  0
 11  2  1  0  0  0  0
 12  9  1  0  0  0  0
 13 11  1  0  0  0  0
 15 16  1  0  0  0  0
 16 17  1  0  0  0  0
 16 23  1  0  0  0  0
 17 14  1  6  0  0  0
 17 18  1  0  0  0  0
 18 19  1  0  0  0  0
 20 18  1  0  0  0  0
 20 21  1  0  0  0  0
 22 20  1  0  0  0  0
 23 22  1  0  0  0  0
M  END
>  <minimizedAffinity>
-3.80484271

$$$$

 OpenBabel03272507383D

 23 24  0  0  1  0  0  0  0  0999 V2000
   39.5230   23.8190   35.7590 C   0  0  0  0  0  0  0  0  0  0  0  0
   38.4420   24.4370   36.3930 C   0  0  0  0  0  0  0  0  0  0  0  0
   38.1850   24.1360   37.7240 C   0  0  0  0  0  0  0  0  0  0  0  0
   39.0120   23.2430   38.3500 N   0  0  0  0  0  0  0  0  0  0  0  0
   40.0570   22.6570   37.7070 C   0  0  0  0  0  0  0  0  0  0  0  0
   40.2960   22.9520   36.4270 N   0  0  0  0  0  0  0  0  0  0  0  0
   37.3550   24.5880   38.2750 H   0  0  0  0  0  0  0  0  0  0  0  0
   40.6690   21.9670   38.2470 H   0  0  0  0  0  0  0  0  0  0  0  0
   38.0030   26.6900   35.5960 C   0  0  0  0  0  0  0  0  0  0  0  0
   39.0630   27.3590   35.8370 O   0  0  0  0  0  0  0  0  0  0  0  0
   37.5690   25.3500   35.8110 N   0  0  0  0  0  0  0  0  0  0  0  0
   37.4090   27.4750   35.1190 H   0  0  0  0  0  0  0  0  0  0  0  0
   36.6080   25.2110   35.4930 H   0  0  0  0  0  0  0  0  0  0  0  0
   39.6410   24.2220   34.4460 O   0  0  0  0  0  0  0  0  0  0  0  0
   40.7580   26.0740   35.2900 H   0  0  0  0  0  0  0  0  0  0  0  0
   41.5440   25.5650   34.8260 N   0  0  0  0  0  0  0  0  0  0  0  0
   40.9240   24.5850   33.9560 C   0  0  2  0  0  3  0  0  0  0  0  0
   40.6840   25.2660   32.6060 C   0  0  0  0  0  3  0  0  0  0  0  0
   39.9070   24.6870   32.0610 H   0  0  0  0  0  0  0  0  0  0  0  0
   40.2250   26.6050   32.8840 N   0  0  0  0  0  0  0  0  0  0  0  0
   39.6820   27.0080   32.0870 H   0  0  0  0  0  0  0  0  0  0  0  0
   41.3410   27.4300   33.2690 C   0  0  0  0  0  2  0  0  0  0  0  0
   42.2870   26.5750   34.0920 C   0  0  0  0  0  2  0  0  0  0  0  0
  1  2  2  0  0  0  0
  1  6  1  0  0  0  0
  2  3  1  0  0  0  0
  3  7  1  0  0  0  0
  3  4  2  0  0  0  0
  5  8  1  0  0  0  0
  5  4  1  0  0  0  0
  6  5  2  0  0  0  0
  9 11  1  0  0  0  0
  9 10  2  0  0  0  0
 11  2  1  0  0  0  0
 12  9  1  0  0  0  0
 13 11  1  0  0  0  0
 14  1  1  0  0  0  0
 16 15  1  0  0  0  0
 17 14  1  1  0  0  0
 17 16  1  0  0  0  0
 18 20  1  0  0  0  0
 18 17  1  0  0  0  0
 19 18  1  0  0  0  0
 20 22  1  0  0  0  0
 21 20  1  0  0  0  0
 22 23  1  0  0  0  0
 23 16  1  0  0  0  0
M  END
>  <minimizedAffinity>
-3.79714608

$$$$

 OpenBabel03272507383D

 23 24  0  0  1  0  0  0  0  0999 V2000
   38.2920   25.1710   33.8520 C   0  0  0  0  0  0  0  0  0  0  0  0
   38.9210   26.4100   33.7100 C   0  0  0  0  0  0  0  0  0  0  0  0
   38.5890   27.2090   32.6240 C   0  0  0  0  0  0  0  0  0  0  0  0
   37.6540   26.7370   31.7440 N   0  0  0  0  0  0  0  0  0  0  0  0
   37.0580   25.5260   31.9080 C   0  0  0  0  0  0  0  0  0  0  0  0
   37.3840   24.7640   32.9540 N   0  0  0  0  0  0  0  0  0  0  0  0
   39.0470   28.1890   32.4590 H   0  0  0  0  0  0  0  0  0  0  0  0
   36.3350   25.2100   31.1870 H   0  0  0  0  0  0  0  0  0  0  0  0
   41.2580   26.7890   34.2570 C   0  0  0  0  0  0  0  0  0  0  0  0
   41.9290   26.2200   33.3320 O   0  0  0  0  0  0  0  0  0  0  0  0
   39.8770   26.9420   34.5700 N   0  0  0  0  0  0  0  0  0  0  0  0
   42.0850   27.1940   34.8460 H   0  0  0  0  0  0  0  0  0  0  0  0
   39.7440   27.4560   35.4430 H   0  0  0  0  0  0  0  0  0  0  0  0
   38.7300   24.5020   34.9750 O   0  0  0  0  0  0  0  0  0  0  0  0
   39.1780   25.2350   37.1330 H   0  0  0  0  0  0  0  0  0  0  0  0
   38.1480   25.0650   37.1930 N   0  0  0  0  0  0  0  0  0  0  0  0
   37.8100   24.2650   36.0310 C   0  0  2  0  0  3  0  0  0  0  0  0
   37.9880   22.7970   36.4260 C   0  0  0  0  0  3  0  0  0  0  0  0
   38.0950   22.2000   35.4940 H   0  0  0  0  0  0  0  0  0  0  0  0
   39.1870   22.7160   37.2250 N   0  0  0  0  0  0  0  0  0  0  0  0
   39.6000   21.7570   37.2200 H   0  0  0  0  0  0  0  0  0  0  0  0
   38.9130   23.1950   38.5570 C   0  0  0  0  0  2  0  0  0  0  0  0
   37.9400   24.3530   38.4420 C   0  0  0  0  0  2  0  0  0  0  0  0
  1 14  1  0  0  0  0
  2  1  1  0  0  0  0
  2 11  1  0  0  0  0
  3  2  2  0  0  0  0
  4  5  2  0  0  0  0
  4  3  1  0  0  0  0
  5  6  1  0  0  0  0
  6  1  2  0  0  0  0
  7  3  1  0  0  0  0
  8  5  1  0  0  0  0
  9 11  1  0  0  0  0
  9 12  1  0  0  0  0
 10  9  2  0  0  0  0
 11 13  1  0  0  0  0
 15 16  1  0  0  0  0
 16 23  1  0  0  0  0
 17 14  1  6  0  0  0
 17 18  1  0  0  0  0
 17 16  1  0  0  0  0
 18 20  1  0  0  0  0
 19 18  1  0  0  0  0
 20 22  1  0  0  0  0
 21 20  1  0  0  0  0
 23 22  1  0  0  0  0
M  END
>  <minimizedAffinity>
-3.75211668

$$$$

 OpenBabel03272507383D

 23 24  0  0  1  0  0  0  0  0999 V2000
   38.1230   23.9450   34.2630 C   0  0  0  0  0  0  0  0  0  0  0  0
   38.0330   22.5650   34.4620 C   0  0  0  0  0  0  0  0  0  0  0  0
   37.9310   22.0820   35.7590 C   0  0  0  0  0  0  0  0  0  0  0  0
   37.9220   22.9900   36.7830 N   0  0  0  0  0  0  0  0  0  0  0  0
   38.0100   24.3280   36.5580 C   0  0  0  0  0  0  0  0  0  0  0  0
   38.1090   24.7840   35.3070 N   0  0  0  0  0  0  0  0  0  0  0  0
   37.8570   21.0120   35.9800 H   0  0  0  0  0  0  0  0  0  0  0  0
   37.9990   24.9900   37.3970 H   0  0  0  0  0  0  0  0  0  0  0  0
   36.8040   21.0130   33.0530 C   0  0  0  0  0  0  0  0  0  0  0  0
   35.5800   21.1240   33.3970 O   0  0  0  0  0  0  0  0  0  0  0  0
   38.0380   21.5950   33.4650 N   0  0  0  0  0  0  0  0  0  0  0  0
   36.6930   20.2690   32.2600 H   0  0  0  0  0  0  0  0  0  0  0  0
   38.8280   21.2070   32.9470 H   0  0  0  0  0  0  0  0  0  0  0  0
   38.2200   24.2610   32.9240 O   0  0  0  0  0  0  0  0  0  0  0  0
   36.2580   25.4710   33.2030 H   0  0  0  0  0  0  0  0  0  0  0  0
   36.9500   26.2450   33.0790 N   0  0  0  0  0  0  0  0  0  0  0  0
   38.1440   25.6260   32.5380 C   0  0  2  0  0  3  0  0  0  0  0  0
   38.0010   25.6260   31.0130 C   0  0  0  0  0  3  0  0  0  0  0  0
   38.6930   24.8590   30.6020 H   0  0  0  0  0  0  0  0  0  0  0  0
   36.6300   25.2910   30.7160 N   0  0  0  0  0  0  0  0  0  0  0  0
   36.5200   24.8960   29.7560 H   0  0  0  0  0  0  0  0  0  0  0  0
   35.7900   26.4400   30.9440 C   0  0  0  0  0  2  0  0  0  0  0  0
   36.3330   27.1780   32.1530 C   0  0  0  0  0  2  0  0  0  0  0  0
  1  2  2  0  0  0  0
  1  6  1  0  0  0  0
  2  3  1  0  0  0  0
  3  7  1  0  0  0  0
  3  4  2  0  0  0  0
  5  4  1  0  0  0  0
  5  8  1  0  0  0  0
  6  5  2  0  0  0  0
  9 10  2  0  0  0  0
  9 11  1  0  0  0  0
 11  2  1  0  0  0  0
 12  9  1  0  0  0  0
 13 11  1  0  0  0  0
 14  1  1  0  0  0  0
 16 15  1  0  0  0  0
 17 14  1  1  0  0  0
 17 16  1  0  0  0  0
 18 17  1  0  0  0  0
 19 18  1  0  0  0  0
 20 22  1  0  0  0  0
 20 18  1  0  0  0  0
 21 20  1  0  0  0  0
 22 23  1  0  0  0  0
 23 16  1  0  0  0  0
M  END
>  <minimizedAffinity>
-3.74725485

$$$$
