
 OpenBabel03272508433D

 27 29  0  0  0  0  0  0  0  0999 V2000
   35.4520   29.7750   50.0070 C   0  0  0  0  0  0  0  0  0  0  0  0
   36.4820   29.2440   50.7640 C   0  0  0  0  0  0  0  0  0  0  0  0
   37.5840   29.9950   50.3760 C   0  0  0  0  0  0  0  0  0  0  0  0
   37.1880   30.9140   49.4370 C   0  0  0  0  0  0  0  0  0  0  0  0
   35.9140   30.7580   49.2380 O   0  0  0  0  0  0  0  0  0  0  0  0
   36.4450   28.4360   51.4880 H   0  0  0  0  0  0  0  0  0  0  0  0
   38.5900   29.8740   50.7550 H   0  0  0  0  0  0  0  0  0  0  0  0
   38.0210   31.8720   48.7890 N   0  0  0  0  0  0  0  0  0  0  0  0
   38.0350   32.0090   47.3480 C   0  0  0  0  0  0  0  0  0  0  0  0
   37.8360   31.0420   46.8630 H   0  0  0  0  0  0  0  0  0  0  0  0
   39.4490   32.4470   46.9920 C   0  0  0  0  0  0  0  0  0  0  0  0
   40.1330   31.7780   47.5490 H   0  0  0  0  0  0  0  0  0  0  0  0
   39.6160   33.7990   47.4510 N   0  0  0  0  0  0  0  0  0  0  0  0
   39.0760   34.4720   46.8820 H   0  0  0  0  0  0  0  0  0  0  0  0
   39.2790   33.9780   48.8310 C   0  0  0  0  0  0  0  0  0  0  0  0
   38.8830   32.7410   49.5630 C   0  0  0  0  0  0  0  0  0  0  0  0
   34.0620   29.3120   50.0570 C   0  0  0  0  0  0  0  0  0  0  0  0
   33.3170   29.7950   50.9510 O   0  0  0  0  0  0  0  0  0  0  0  0
   31.7970   27.1160   48.2670 C   0  0  0  0  0  0  0  0  0  0  0  0
   32.6150   26.4950   47.3270 C   0  0  0  0  0  0  0  0  0  0  0  0
   33.9620   26.8290   47.3010 C   0  0  0  0  0  0  0  0  0  0  0  0
   34.4010   27.7440   48.1970 N   0  0  0  0  0  0  0  0  0  0  0  0
   33.5910   28.3320   49.0980 C   0  0  0  0  0  0  0  0  0  0  0  0
   32.2800   28.0130   49.1300 N   0  0  0  0  0  0  0  0  0  0  0  0
   30.7390   26.8950   48.3340 H   0  0  0  0  0  0  0  0  0  0  0  0
   32.1540   25.7800   46.6620 H   0  0  0  0  0  0  0  0  0  0  0  0
   34.6070   26.3560   46.5790 H   0  0  0  0  0  0  0  0  0  0  0  0
  1 17  1  0  0  0  0
  1  2  2  0  0  0  0
  2  6  1  0  0  0  0
  3  7  1  0  0  0  0
  3  2  1  0  0  0  0
  4  3  2  0  0  0  0
  5  4  1  0  0  0  0
  5  1  1  0  0  0  0
  8  4  1  0  0  0  0
  8 16  1  0  0  0  0
  9  8  1  0  0  0  0
 10  9  1  0  0  0  0
 11  9  1  0  0  0  0
 11 13  1  0  0  0  0
 11 12  1  0  0  0  0
 13 15  1  0  0  0  0
 14 13  1  0  0  0  0
 15 16  1  0  0  0  0
 17 18  2  0  0  0  0
 19 25  1  0  0  0  0
 19 24  1  0  0  0  0
 20 19  2  0  0  0  0
 21 20  1  0  0  0  0
 21 22  2  0  0  0  0
 22 23  1  0  0  0  0
 23 24  2  0  0  0  0
 23 17  1  0  0  0  0
 26 20  1  0  0  0  0
 27 21  1  0  0  0  0
M  END
>  <minimizedAffinity>
-5.33494616

>  <minimizedRMSD>
2.69486976

$$$$
