
 OpenBabel03272509273D

 41 43  0  0  1  0  0  0  0  0999 V2000
   38.5380   31.5660   48.2290 C   0  0  2  0  0  0  0  0  0  0  0  0
   38.1440   31.8750   49.6650 C   0  0  0  0  0  0  0  0  0  0  0  0
   38.4540   33.3170   50.0100 C   0  0  0  0  0  0  0  0  0  0  0  0
   39.6960   33.7250   49.2840 C   0  0  0  0  0  0  0  0  0  0  0  0
   39.2480   33.9550   47.8450 C   0  0  0  0  0  0  0  0  0  0  0  0
   38.5220   32.7640   47.3650 C   0  0  1  0  0  0  0  0  0  0  0  0
   39.4880   31.0170   48.3020 H   0  0  0  0  0  0  0  0  0  0  0  0
   38.6050   31.1790   50.3880 H   0  0  0  0  0  0  0  0  0  0  0  0
   37.0430   31.7470   49.7990 H   0  0  0  0  0  0  0  0  0  0  0  0
   37.6170   33.9580   49.6160 H   0  0  0  0  0  0  0  0  0  0  0  0
   38.4880   33.4700   51.0860 H   0  0  0  0  0  0  0  0  0  0  0  0
   40.1810   34.6350   49.6840 H   0  0  0  0  0  0  0  0  0  0  0  0
   40.3870   32.8590   49.2580 H   0  0  0  0  0  0  0  0  0  0  0  0
   38.5740   34.8600   47.9110 H   0  0  0  0  0  0  0  0  0  0  0  0
   40.1430   34.2930   47.3410 H   0  0  0  0  0  0  0  0  0  0  0  0
   37.4850   33.0390   47.1420 H   0  0  0  0  0  0  0  0  0  0  0  0
   39.1880   32.5080   46.0950 N   0  0  1  0  0  0  0  0  0  0  0  0
   39.9800   31.3150   46.2190 C   0  0  0  0  0  0  0  0  0  0  0  0
   40.5700   31.4500   47.1670 H   0  0  0  0  0  0  0  0  0  0  0  0
   40.9030   31.2090   45.0290 C   0  0  0  0  0  0  0  0  0  0  0  0
   40.9890   30.1240   44.7750 H   0  0  0  0  0  0  0  0  0  0  0  0
   40.4350   32.0010   43.9420 N   0  0  0  0  0  0  0  0  0  0  0  0
   40.8650   31.6050   43.0550 H   0  0  0  0  0  0  0  0  0  0  0  0
   39.0010   31.9100   43.7440 C   0  0  0  0  0  0  0  0  0  0  0  0
   38.2820   32.4310   44.9880 C   0  0  0  0  0  0  0  0  0  0  0  0
   37.2970   30.3920   47.6150 S   0  0  0  0  0  0  0  0  0  0  0  0
   35.7560   30.4190   48.5430 C   0  0  0  0  0  0  0  0  0  0  0  0
   35.2030   31.3170   48.2450 H   0  0  0  0  0  0  0  0  0  0  0  0
   36.0590   30.6760   49.6060 H   0  0  0  0  0  0  0  0  0  0  0  0
   35.0500   29.1110   48.4740 C   0  0  0  0  0  0  0  0  0  0  0  0
   35.6980   28.2760   48.1260 H   0  0  0  0  0  0  0  0  0  0  0  0
   34.6560   28.8990   49.4940 H   0  0  0  0  0  0  0  0  0  0  0  0
   32.3770   30.0920   46.0550 C   0  0  0  0  0  0  0  0  0  0  0  0
   33.5850   30.0970   46.7550 C   0  0  0  0  0  0  0  0  0  0  0  0
   33.8380   29.1370   47.6910 C   0  0  0  0  0  0  0  0  0  0  0  0
   32.8550   28.1840   47.8960 N   0  0  0  0  0  0  0  0  0  0  0  0
   31.7090   28.1980   47.2160 C   0  0  0  0  0  0  0  0  0  0  0  0
   31.4440   29.1420   46.2880 N   0  0  0  0  0  0  0  0  0  0  0  0
   32.1140   30.8200   45.3050 H   0  0  0  0  0  0  0  0  0  0  0  0
   34.2110   30.9130   46.4390 H   0  0  0  0  0  0  0  0  0  0  0  0
   30.9410   27.4490   47.3800 H   0  0  0  0  0  0  0  0  0  0  0  0
  1  7  1  6  0  0  0
  1  2  1  0  0  0  0
  2  9  1  0  0  0  0
  2  3  1  0  0  0  0
  2  8  1  0  0  0  0
  3 11  1  0  0  0  0
  4 12  1  0  0  0  0
  4  3  1  0  0  0  0
  5 14  1  0  0  0  0
  5  4  1  0  0  0  0
  6 16  1  6  0  0  0
  6  5  1  0  0  0  0
  6  1  1  0  0  0  0
 10  3  1  0  0  0  0
 13  4  1  0  0  0  0
 15  5  1  0  0  0  0
 17 25  1  6  0  0  0
 17 18  1  0  0  0  0
 17  6  1  0  0  0  0
 18 19  1  0  0  0  0
 20 18  1  0  0  0  0
 21 20  1  0  0  0  0
 22 20  1  0  0  0  0
 23 22  1  0  0  0  0
 24 22  1  0  0  0  0
 24 25  1  0  0  0  0
 26  1  1  0  0  0  0
 26 27  1  0  0  0  0
 27 29  1  0  0  0  0
 28 27  1  0  0  0  0
 30 27  1  0  0  0  0
 30 32  1  0  0  0  0
 31 30  1  0  0  0  0
 33 38  2  0  0  0  0
 33 34  1  0  0  0  0
 34 35  2  0  0  0  0
 35 36  1  0  0  0  0
 35 30  1  0  0  0  0
 37 41  1  0  0  0  0
 37 36  2  0  0  0  0
 38 37  1  0  0  0  0
 39 33  1  0  0  0  0
 40 34  1  0  0  0  0
M  END
>  <minimizedAffinity>
-4.38742971

>  <minimizedRMSD>
2.20584583

$$$$
