
 OpenBabel03272507563D

 32 34  0  0  0  0  0  0  0  0999 V2000
   37.1060   31.3660   48.5690 C   0  0  0  0  0  0  0  0  0  0  0  0
   37.2090   32.3670   49.5210 C   0  0  0  0  0  0  0  0  0  0  0  0
   38.1680   33.3580   49.3670 C   0  0  0  0  0  0  0  0  0  0  0  0
   39.0090   33.3400   48.2710 C   0  0  0  0  0  0  0  0  0  0  0  0
   38.8800   32.3320   47.3450 C   0  0  0  0  0  0  0  0  0  0  0  0
   37.9450   31.3880   47.5200 N   0  0  0  0  0  0  0  0  0  0  0  0
   36.6240   32.5140   50.4300 H   0  0  0  0  0  0  0  0  0  0  0  0
   38.3210   34.1710   50.0520 H   0  0  0  0  0  0  0  0  0  0  0  0
   39.7680   34.1080   48.1320 H   0  0  0  0  0  0  0  0  0  0  0  0
   39.7260   32.3000   46.2280 N   0  0  0  0  0  0  0  0  0  0  0  0
   40.3420   31.0540   45.8210 C   0  0  0  0  0  0  0  0  0  0  0  0
   39.5810   30.2550   45.7310 H   0  0  0  0  0  0  0  0  0  0  0  0
   40.9150   31.3240   44.4280 C   0  0  0  0  0  0  0  0  0  0  0  0
   41.3290   30.3800   44.0240 H   0  0  0  0  0  0  0  0  0  0  0  0
   39.8520   31.8970   43.6530 N   0  0  0  0  0  0  0  0  0  0  0  0
   39.9430   31.7160   42.6300 H   0  0  0  0  0  0  0  0  0  0  0  0
   39.7190   33.2880   43.9740 C   0  0  0  0  0  0  0  0  0  0  0  0
   40.0230   33.4790   45.4380 C   0  0  0  0  0  0  0  0  0  0  0  0
   35.1560   28.6240   50.2330 C   0  0  0  0  0  0  0  0  0  0  0  0
   36.1990   29.5530   49.9560 C   0  0  0  0  0  0  0  0  0  0  0  0
   36.0570   30.4080   48.8750 C   0  0  0  0  0  0  0  0  0  0  0  0
   34.9150   30.3210   48.1180 N   0  0  0  0  0  0  0  0  0  0  0  0
   33.9420   29.4110   48.4250 C   0  0  0  0  0  0  0  0  0  0  0  0
   34.0460   28.5780   49.4540 N   0  0  0  0  0  0  0  0  0  0  0  0
   32.8620   29.5120   47.5000 N   0  0  0  0  0  0  0  0  0  0  0  0
   35.2440   27.9470   51.0710 H   0  0  0  0  0  0  0  0  0  0  0  0
   32.2680   30.3490   47.3030 H   0  0  0  0  0  0  0  0  0  0  0  0
   32.7380   28.5750   47.0190 H   0  0  0  0  0  0  0  0  0  0  0  0
   37.3910   29.5500   50.8530 C   0  0  0  0  0  0  0  0  0  0  0  0
   38.5550   29.8210   50.1290 F   0  0  0  0  0  0  0  0  0  0  0  0
   37.2330   30.5250   51.7880 F   0  0  0  0  0  0  0  0  0  0  0  0
   37.5840   28.3470   51.4950 F   0  0  0  0  0  0  0  0  0  0  0  0
  1 21  1  0  0  0  0
  1  2  1  0  0  0  0
  2  7  1  0  0  0  0
  3  2  2  0  0  0  0
  3  8  1  0  0  0  0
  4  3  1  0  0  0  0
  5  6  1  0  0  0  0
  5  4  2  0  0  0  0
  6  1  2  0  0  0  0
  9  4  1  0  0  0  0
 10  5  1  0  0  0  0
 11 10  1  0  0  0  0
 12 11  1  0  0  0  0
 13 11  1  0  0  0  0
 14 13  1  0  0  0  0
 15 17  1  0  0  0  0
 15 13  1  0  0  0  0
 16 15  1  0  0  0  0
 17 18  1  0  0  0  0
 18 10  1  0  0  0  0
 19 26  1  0  0  0  0
 20 19  1  0  0  0  0
 20 29  1  0  0  0  0
 21 20  2  0  0  0  0
 22 23  2  0  0  0  0
 22 21  1  0  0  0  0
 23 24  1  0  0  0  0
 24 19  2  0  0  0  0
 25 23  1  0  0  0  0
 27 25  1  0  0  0  0
 28 25  1  0  0  0  0
 29 32  1  0  0  0  0
 29 31  1  0  0  0  0
 30 29  1  0  0  0  0
M  END
>  <minimizedAffinity>
-7.79194832

>  <minimizedRMSD>
0.411712289

$$$$
