
 OpenBabel03272506403D

 37 39  0  0  1  0  0  0  0  0999 V2000
   38.5000   25.5110   32.3070 O   0  0  0  0  0  0  0  0  0  0  0  0
   38.0520   26.1170   33.2950 C   0  0  0  0  0  0  0  0  0  0  0  0
   37.5670   27.4770   33.1940 C   0  0  2  0  0  0  0  0  0  0  0  0
   36.9290   27.6660   34.6120 C   0  0  0  0  0  0  0  0  0  0  0  0
   37.7480   26.7270   35.4610 C   0  0  0  0  0  0  0  0  0  0  0  0
   37.9650   25.5630   34.6110 N   0  0  0  0  0  0  0  0  0  0  0  0
   38.3100   28.2680   33.1000 H   0  0  0  0  0  0  0  0  0  0  0  0
   37.0510   28.7120   34.9200 H   0  0  0  0  0  0  0  0  0  0  0  0
   35.8760   27.3280   34.5820 H   0  0  0  0  0  0  0  0  0  0  0  0
   38.6860   27.1630   35.8210 H   0  0  0  0  0  0  0  0  0  0  0  0
   37.1500   26.3920   36.3240 H   0  0  0  0  0  0  0  0  0  0  0  0
   38.0590   24.1820   35.0470 C   0  0  0  0  0  0  0  0  0  0  0  0
   37.0170   23.8230   35.1660 H   0  0  0  0  0  0  0  0  0  0  0  0
   38.5090   23.5880   34.2460 H   0  0  0  0  0  0  0  0  0  0  0  0
   38.7590   23.9650   36.2490 N   0  0  0  0  0  0  0  0  0  0  0  0
   40.1110   23.5990   36.2160 C   0  0  0  0  0  3  0  0  0  0  0  0
   40.5390   23.5430   35.1970 H   0  0  0  0  0  0  0  0  0  0  0  0
   40.4730   22.3390   36.9480 C   0  0  0  0  0  3  0  0  0  0  0  0
   41.5620   22.4030   37.1950 H   0  0  0  0  0  0  0  0  0  0  0  0
   39.7750   22.1750   38.1910 N   0  0  0  0  0  0  0  0  0  0  0  0
   40.4180   21.9170   38.9830 H   0  0  0  0  0  0  0  0  0  0  0  0
   39.0070   23.3740   38.5210 C   0  0  0  0  0  2  0  0  0  0  0  0
   37.9990   23.5190   37.3750 C   0  0  0  0  0  2  0  0  0  0  0  0
   36.4920   27.6470   32.2710 O   0  0  0  0  0  0  0  0  0  0  0  0
   36.7130   28.4730   31.1720 C   0  0  0  0  0  0  0  0  0  0  0  0
   36.2970   29.7850   31.2910 C   0  0  0  0  0  0  0  0  0  0  0  0
   36.5040   30.6390   30.2110 C   0  0  0  0  0  0  0  0  0  0  0  0
   37.1000   30.1490   29.0970 N   0  0  0  0  0  0  0  0  0  0  0  0
   37.5000   28.8660   28.9960 C   0  0  0  0  0  0  0  0  0  0  0  0
   37.3000   28.0650   30.0270 N   0  0  0  0  0  0  0  0  0  0  0  0
   39.4350   27.8890   28.0400 C   0  0  0  0  0  0  0  0  0  0  0  0
   40.0670   27.8330   29.1310 O   0  0  0  0  0  0  0  0  0  0  0  0
   38.1210   28.3870   27.8080 N   0  0  0  0  0  0  0  0  0  0  0  0
   35.8230   30.1990   32.1580 H   0  0  0  0  0  0  0  0  0  0  0  0
   36.1880   31.6730   30.2740 H   0  0  0  0  0  0  0  0  0  0  0  0
   40.0690   27.4800   27.2610 H   0  0  0  0  0  0  0  0  0  0  0  0
   37.7460   28.3570   26.8330 H   0  0  0  0  0  0  0  0  0  0  0  0
  1  2  2  0  0  0  0
  2  6  1  0  0  0  0
  3  7  1  6  0  0  0
  3  2  1  0  0  0  0
  3  4  1  0  0  0  0
  4  8  1  0  0  0  0
  4  5  1  0  0  0  0
  5 10  1  0  0  0  0
  5 11  1  0  0  0  0
  6 12  1  0  0  0  0
  6  5  1  0  0  0  0
  9  4  1  0  0  0  0
 12 13  1  0  0  0  0
 12 15  1  0  0  0  0
 14 12  1  0  0  0  0
 15 23  1  0  0  0  0
 16 15  1  0  0  0  0
 16 18  1  0  0  0  0
 17 16  1  0  0  0  0
 18 19  1  0  0  0  0
 18 20  1  0  0  0  0
 20 22  1  0  0  0  0
 20 21  1  0  0  0  0
 23 22  1  0  0  0  0
 24  3  1  0  0  0  0
 25 26  1  0  0  0  0
 25 24  1  0  0  0  0
 26 34  1  0  0  0  0
 27 35  1  0  0  0  0
 27 26  2  0  0  0  0
 28 27  1  0  0  0  0
 29 28  2  0  0  0  0
 29 30  1  0  0  0  0
 30 25  2  0  0  0  0
 31 32  2  0  0  0  0
 33 31  1  0  0  0  0
 33 29  1  0  0  0  0
 36 31  1  0  0  0  0
 37 33  1  0  0  0  0
M  END
>  <minimizedAffinity>
-5.51110506

$$$$

 OpenBabel03272506403D

 37 39  0  0  1  0  0  0  0  0999 V2000
   37.0190   25.5510   32.8250 O   0  0  0  0  0  0  0  0  0  0  0  0
   37.6430   26.1000   33.7510 C   0  0  0  0  0  0  0  0  0  0  0  0
   37.5120   27.5160   34.0170 C   0  0  2  0  0  0  0  0  0  0  0  0
   38.2920   27.6320   35.3700 C   0  0  0  0  0  0  0  0  0  0  0  0
   39.2830   26.5000   35.2680 C   0  0  0  0  0  0  0  0  0  0  0  0
   38.5380   25.4190   34.6350 N   0  0  0  0  0  0  0  0  0  0  0  0
   38.0090   28.2020   33.3330 H   0  0  0  0  0  0  0  0  0  0  0  0
   38.7870   28.6100   35.4130 H   0  0  0  0  0  0  0  0  0  0  0  0
   37.5930   27.4480   36.2070 H   0  0  0  0  0  0  0  0  0  0  0  0
   40.1930   26.7600   34.7170 H   0  0  0  0  0  0  0  0  0  0  0  0
   39.5580   26.1560   36.2790 H   0  0  0  0  0  0  0  0  0  0  0  0
   38.7010   23.9980   34.8820 C   0  0  0  0  0  0  0  0  0  0  0  0
   37.6790   23.5880   35.0120 H   0  0  0  0  0  0  0  0  0  0  0  0
   39.1190   23.5290   33.9870 H   0  0  0  0  0  0  0  0  0  0  0  0
   39.4790   23.6570   36.0050 N   0  0  0  0  0  0  0  0  0  0  0  0
   40.7840   23.1790   35.8330 C   0  0  0  0  0  3  0  0  0  0  0  0
   41.1170   23.1420   34.7790 H   0  0  0  0  0  0  0  0  0  0  0  0
   41.0930   21.8540   36.4700 C   0  0  0  0  0  3  0  0  0  0  0  0
   42.2000   21.8120   36.6200 H   0  0  0  0  0  0  0  0  0  0  0  0
   40.4910   21.6820   37.7610 N   0  0  0  0  0  0  0  0  0  0  0  0
   41.1730   21.3270   38.4790 H   0  0  0  0  0  0  0  0  0  0  0  0
   39.8650   22.9220   38.2150 C   0  0  0  0  0  2  0  0  0  0  0  0
   38.7800   23.2160   37.1720 C   0  0  0  0  0  2  0  0  0  0  0  0
   36.1800   27.9340   34.3130 O   0  0  0  0  0  0  0  0  0  0  0  0
   35.5640   28.8000   33.4140 C   0  0  0  0  0  0  0  0  0  0  0  0
   36.2610   29.0880   32.2560 C   0  0  0  0  0  0  0  0  0  0  0  0
   35.6750   29.9500   31.3340 C   0  0  0  0  0  0  0  0  0  0  0  0
   34.4540   30.4680   31.6110 N   0  0  0  0  0  0  0  0  0  0  0  0
   33.7860   30.1780   32.7450 C   0  0  0  0  0  0  0  0  0  0  0  0
   34.3510   29.3580   33.6120 N   0  0  0  0  0  0  0  0  0  0  0  0
   31.4920   29.7550   33.1590 C   0  0  0  0  0  0  0  0  0  0  0  0
   31.6100   28.5000   33.0980 O   0  0  0  0  0  0  0  0  0  0  0  0
   32.5050   30.7440   33.0020 N   0  0  0  0  0  0  0  0  0  0  0  0
   37.2280   28.6940   32.0110 H   0  0  0  0  0  0  0  0  0  0  0  0
   36.1970   30.1960   30.4170 H   0  0  0  0  0  0  0  0  0  0  0  0
   30.4520   29.9870   33.3620 H   0  0  0  0  0  0  0  0  0  0  0  0
   32.2320   31.7490   33.0860 H   0  0  0  0  0  0  0  0  0  0  0  0
  1  2  2  0  0  0  0
  2  3  1  0  0  0  0
  2  6  1  0  0  0  0
  3  7  1  6  0  0  0
  3 24  1  0  0  0  0
  3  4  1  0  0  0  0
  4  8  1  0  0  0  0
  4  9  1  0  0  0  0
  5  4  1  0  0  0  0
  5 11  1  0  0  0  0
  6 12  1  0  0  0  0
  6  5  1  0  0  0  0
 10  5  1  0  0  0  0
 12 13  1  0  0  0  0
 12 15  1  0  0  0  0
 14 12  1  0  0  0  0
 15 23  1  0  0  0  0
 16 15  1  0  0  0  0
 16 18  1  0  0  0  0
 17 16  1  0  0  0  0
 18 19  1  0  0  0  0
 18 20  1  0  0  0  0
 20 22  1  0  0  0  0
 20 21  1  0  0  0  0
 23 22  1  0  0  0  0
 25 30  1  0  0  0  0
 25 24  1  0  0  0  0
 26 25  2  0  0  0  0
 27 28  2  0  0  0  0
 27 26  1  0  0  0  0
 28 29  1  0  0  0  0
 29 33  1  0  0  0  0
 29 30  2  0  0  0  0
 31 36  1  0  0  0  0
 32 31  2  0  0  0  0
 33 37  1  0  0  0  0
 33 31  1  0  0  0  0
 34 26  1  0  0  0  0
 35 27  1  0  0  0  0
M  END
>  <minimizedAffinity>
-5.40401459

$$$$

 OpenBabel03272506403D

 37 39  0  0  1  0  0  0  0  0999 V2000
   37.5080   27.9100   35.5080 O   0  0  0  0  0  0  0  0  0  0  0  0
   37.0910   27.7930   34.3430 C   0  0  0  0  0  0  0  0  0  0  0  0
   37.5740   26.7480   33.4670 C   0  0  2  0  0  0  0  0  0  0  0  0
   36.5920   26.9060   32.2560 C   0  0  0  0  0  0  0  0  0  0  0  0
   36.2340   28.3690   32.3210 C   0  0  0  0  0  0  0  0  0  0  0  0
   36.1140   28.6510   33.7460 N   0  0  0  0  0  0  0  0  0  0  0  0
   38.5730   26.8650   33.0500 H   0  0  0  0  0  0  0  0  0  0  0  0
   37.1260   26.6540   31.3310 H   0  0  0  0  0  0  0  0  0  0  0  0
   35.6930   26.2880   32.4360 H   0  0  0  0  0  0  0  0  0  0  0  0
   36.9580   29.0230   31.8240 H   0  0  0  0  0  0  0  0  0  0  0  0
   35.2380   28.5260   31.8740 H   0  0  0  0  0  0  0  0  0  0  0  0
   35.1980   29.5910   34.3660 C   0  0  0  0  0  0  0  0  0  0  0  0
   34.3190   29.6550   33.6930 H   0  0  0  0  0  0  0  0  0  0  0  0
   34.8440   29.1700   35.3110 H   0  0  0  0  0  0  0  0  0  0  0  0
   35.7040   30.8870   34.5830 N   0  0  0  0  0  0  0  0  0  0  0  0
   35.9970   31.3140   35.8840 C   0  0  0  0  0  3  0  0  0  0  0  0
   35.8280   30.5450   36.6620 H   0  0  0  0  0  0  0  0  0  0  0  0
   35.3320   32.5850   36.3290 C   0  0  0  0  0  3  0  0  0  0  0  0
   35.9540   33.0100   37.1560 H   0  0  0  0  0  0  0  0  0  0  0  0
   35.2640   33.5880   35.3040 N   0  0  0  0  0  0  0  0  0  0  0  0
   35.5830   34.5310   35.6420 H   0  0  0  0  0  0  0  0  0  0  0  0
   36.0240   33.1800   34.1240 C   0  0  0  0  0  2  0  0  0  0  0  0
   35.3360   31.8970   33.6410 C   0  0  0  0  0  2  0  0  0  0  0  0
   37.3550   25.4260   33.9580 O   0  0  0  0  0  0  0  0  0  0  0  0
   38.4030   24.8150   34.6420 C   0  0  0  0  0  0  0  0  0  0  0  0
   39.6740   25.0240   34.1430 C   0  0  0  0  0  0  0  0  0  0  0  0
   40.7440   24.4280   34.8030 C   0  0  0  0  0  0  0  0  0  0  0  0
   40.4960   23.6720   35.8990 N   0  0  0  0  0  0  0  0  0  0  0  0
   39.2490   23.4760   36.3750 C   0  0  0  0  0  0  0  0  0  0  0  0
   38.2410   24.0480   35.7410 N   0  0  0  0  0  0  0  0  0  0  0  0
   38.4000   23.3950   38.5850 C   0  0  0  0  0  0  0  0  0  0  0  0
   38.0430   24.6060   38.5980 O   0  0  0  0  0  0  0  0  0  0  0  0
   39.0270   22.6740   37.5290 N   0  0  0  0  0  0  0  0  0  0  0  0
   39.9000   25.6160   33.2780 H   0  0  0  0  0  0  0  0  0  0  0  0
   41.7530   24.5740   34.4350 H   0  0  0  0  0  0  0  0  0  0  0  0
   38.1470   22.9570   39.5440 H   0  0  0  0  0  0  0  0  0  0  0  0
   39.2560   21.6660   37.6860 H   0  0  0  0  0  0  0  0  0  0  0  0
  2  1  2  0  0  0  0
  3  7  1  6  0  0  0
  3 24  1  0  0  0  0
  3  2  1  0  0  0  0
  4  5  1  0  0  0  0
  4  9  1  0  0  0  0
  4  3  1  0  0  0  0
  5  6  1  0  0  0  0
  6  2  1  0  0  0  0
  6 12  1  0  0  0  0
  8  4  1  0  0  0  0
 10  5  1  0  0  0  0
 11  5  1  0  0  0  0
 12 15  1  0  0  0  0
 12 14  1  0  0  0  0
 13 12  1  0  0  0  0
 15 16  1  0  0  0  0
 16 18  1  0  0  0  0
 16 17  1  0  0  0  0
 18 19  1  0  0  0  0
 20 21  1  0  0  0  0
 20 18  1  0  0  0  0
 22 20  1  0  0  0  0
 23 22  1  0  0  0  0
 23 15  1  0  0  0  0
 24 25  1  0  0  0  0
 25 30  1  0  0  0  0
 26 25  2  0  0  0  0
 26 27  1  0  0  0  0
 27 28  2  0  0  0  0
 28 29  1  0  0  0  0
 29 33  1  0  0  0  0
 30 29  2  0  0  0  0
 31 32  2  0  0  0  0
 31 36  1  0  0  0  0
 33 37  1  0  0  0  0
 33 31  1  0  0  0  0
 34 26  1  0  0  0  0
 35 27  1  0  0  0  0
M  END
>  <minimizedAffinity>
-5.32008028

$$$$

 OpenBabel03272506403D

 37 39  0  0  1  0  0  0  0  0999 V2000
   39.2950   24.4640   32.4090 O   0  0  0  0  0  0  0  0  0  0  0  0
   39.8770   25.2450   33.1830 C   0  0  0  0  0  0  0  0  0  0  0  0
   39.4780   26.6310   33.3010 C   0  0  2  0  0  0  0  0  0  0  0  0
   40.3440   27.0810   34.5260 C   0  0  0  0  0  0  0  0  0  0  0  0
   41.5360   26.1620   34.4320 C   0  0  0  0  0  0  0  0  0  0  0  0
   40.9760   24.8800   34.0230 N   0  0  0  0  0  0  0  0  0  0  0  0
   39.7510   27.3020   32.4880 H   0  0  0  0  0  0  0  0  0  0  0  0
   40.6250   28.1330   34.3960 H   0  0  0  0  0  0  0  0  0  0  0  0
   39.7840   26.8790   35.4580 H   0  0  0  0  0  0  0  0  0  0  0  0
   42.3130   26.5170   33.7480 H   0  0  0  0  0  0  0  0  0  0  0  0
   41.9730   26.0190   35.4350 H   0  0  0  0  0  0  0  0  0  0  0  0
   41.4560   23.5660   34.4070 C   0  0  0  0  0  0  0  0  0  0  0  0
   40.8590   22.8350   33.8250 H   0  0  0  0  0  0  0  0  0  0  0  0
   42.4940   23.4580   34.0800 H   0  0  0  0  0  0  0  0  0  0  0  0
   41.3560   23.2530   35.7760 N   0  0  0  0  0  0  0  0  0  0  0  0
   42.4240   22.6280   36.4320 C   0  0  0  0  0  3  0  0  0  0  0  0
   43.3100   22.4560   35.7920 H   0  0  0  0  0  0  0  0  0  0  0  0
   42.1030   21.3440   37.1430 C   0  0  0  0  0  3  0  0  0  0  0  0
   42.8850   21.2010   37.9310 H   0  0  0  0  0  0  0  0  0  0  0  0
   40.8350   21.3590   37.8140 N   0  0  0  0  0  0  0  0  0  0  0  0
   40.8980   21.0040   38.8020 H   0  0  0  0  0  0  0  0  0  0  0  0
   40.2440   22.6950   37.7830 C   0  0  0  0  0  2  0  0  0  0  0  0
   40.0470   23.0000   36.2930 C   0  0  0  0  0  2  0  0  0  0  0  0
   38.1230   26.8170   33.7090 O   0  0  0  0  0  0  0  0  0  0  0  0
   37.3020   27.5770   32.8800 C   0  0  0  0  0  0  0  0  0  0  0  0
   36.3670   28.3800   33.5040 C   0  0  0  0  0  0  0  0  0  0  0  0
   35.5300   29.1540   32.7050 C   0  0  0  0  0  0  0  0  0  0  0  0
   35.6670   29.0860   31.3590 N   0  0  0  0  0  0  0  0  0  0  0  0
   36.5840   28.2970   30.7650 C   0  0  0  0  0  0  0  0  0  0  0  0
   37.3740   27.5680   31.5320 N   0  0  0  0  0  0  0  0  0  0  0  0
   37.9850   28.6470   28.8870 C   0  0  0  0  0  0  0  0  0  0  0  0
   38.9800   29.0150   29.5720 O   0  0  0  0  0  0  0  0  0  0  0  0
   36.6970   28.2510   29.3470 N   0  0  0  0  0  0  0  0  0  0  0  0
   36.2360   28.4540   34.5650 H   0  0  0  0  0  0  0  0  0  0  0  0
   34.7860   29.7940   33.1650 H   0  0  0  0  0  0  0  0  0  0  0  0
   38.2670   28.6770   27.8400 H   0  0  0  0  0  0  0  0  0  0  0  0
   35.9830   27.9720   28.6360 H   0  0  0  0  0  0  0  0  0  0  0  0
  1  2  2  0  0  0  0
  2  3  1  0  0  0  0
  2  6  1  0  0  0  0
  3  7  1  6  0  0  0
  3 24  1  0  0  0  0
  3  4  1  0  0  0  0
  4  9  1  0  0  0  0
  5  4  1  0  0  0  0
  5 11  1  0  0  0  0
  6 12  1  0  0  0  0
  6  5  1  0  0  0  0
  8  4  1  0  0  0  0
 10  5  1  0  0  0  0
 12 15  1  0  0  0  0
 13 12  1  0  0  0  0
 14 12  1  0  0  0  0
 15 23  1  0  0  0  0
 15 16  1  0  0  0  0
 16 18  1  0  0  0  0
 17 16  1  0  0  0  0
 18 20  1  0  0  0  0
 18 19  1  0  0  0  0
 20 21  1  0  0  0  0
 22 20  1  0  0  0  0
 23 22  1  0  0  0  0
 25 26  1  0  0  0  0
 25 24  1  0  0  0  0
 26 34  1  0  0  0  0
 27 35  1  0  0  0  0
 27 26  2  0  0  0  0
 28 27  1  0  0  0  0
 29 28  2  0  0  0  0
 29 30  1  0  0  0  0
 30 25  2  0  0  0  0
 31 33  1  0  0  0  0
 31 32  2  0  0  0  0
 33 29  1  0  0  0  0
 36 31  1  0  0  0  0
 37 33  1  0  0  0  0
M  END
>  <minimizedAffinity>
-5.27048397

$$$$

 OpenBabel03272506403D

 37 39  0  0  1  0  0  0  0  0999 V2000
   37.8290   25.7170   33.7500 O   0  0  0  0  0  0  0  0  0  0  0  0
   37.5930   24.9410   32.8070 C   0  0  0  0  0  0  0  0  0  0  0  0
   38.2200   23.6400   32.7230 C   0  0  2  0  0  0  0  0  0  0  0  0
   37.4290   23.0120   31.5250 C   0  0  0  0  0  0  0  0  0  0  0  0
   37.0400   24.2290   30.7240 C   0  0  0  0  0  0  0  0  0  0  0  0
   36.7030   25.2320   31.7260 N   0  0  0  0  0  0  0  0  0  0  0  0
   39.2680   23.6060   32.4310 H   0  0  0  0  0  0  0  0  0  0  0  0
   38.0990   22.3480   30.9660 H   0  0  0  0  0  0  0  0  0  0  0  0
   36.5230   22.5100   31.9130 H   0  0  0  0  0  0  0  0  0  0  0  0
   37.8200   24.5700   30.0350 H   0  0  0  0  0  0  0  0  0  0  0  0
   36.1200   24.0180   30.1530 H   0  0  0  0  0  0  0  0  0  0  0  0
   35.6890   26.2640   31.6070 C   0  0  0  0  0  0  0  0  0  0  0  0
   35.1040   26.0190   30.6970 H   0  0  0  0  0  0  0  0  0  0  0  0
   35.0030   26.1850   32.4550 H   0  0  0  0  0  0  0  0  0  0  0  0
   36.1670   27.5840   31.5030 N   0  0  0  0  0  0  0  0  0  0  0  0
   35.6300   28.5890   32.3180 C   0  0  0  0  0  3  0  0  0  0  0  0
   34.8620   28.2320   33.0300 H   0  0  0  0  0  0  0  0  0  0  0  0
   35.0870   29.7960   31.6080 C   0  0  0  0  0  3  0  0  0  0  0  0
   35.0970   30.6410   32.3410 H   0  0  0  0  0  0  0  0  0  0  0  0
   35.8800   30.2090   30.4860 N   0  0  0  0  0  0  0  0  0  0  0  0
   36.0760   31.2420   30.4900 H   0  0  0  0  0  0  0  0  0  0  0  0
   37.1260   29.4490   30.4200 C   0  0  0  0  0  2  0  0  0  0  0  0
   36.6850   27.9920   30.2350 C   0  0  0  0  0  2  0  0  0  0  0  0
   37.9520   22.7890   33.8370 O   0  0  0  0  0  0  0  0  0  0  0  0
   38.9000   22.7500   34.8560 C   0  0  0  0  0  0  0  0  0  0  0  0
   40.2250   22.7250   34.4680 C   0  0  0  0  0  0  0  0  0  0  0  0
   41.1990   22.6860   35.4620 C   0  0  0  0  0  0  0  0  0  0  0  0
   40.8080   22.6730   36.7590 N   0  0  0  0  0  0  0  0  0  0  0  0
   39.5100   22.6980   37.1220 C   0  0  0  0  0  0  0  0  0  0  0  0
   38.5950   22.7360   36.1710 N   0  0  0  0  0  0  0  0  0  0  0  0
   38.3850   23.8300   38.8720 C   0  0  0  0  0  0  0  0  0  0  0  0
   38.0350   24.8050   38.1510 O   0  0  0  0  0  0  0  0  0  0  0  0
   39.1380   22.6810   38.4960 N   0  0  0  0  0  0  0  0  0  0  0  0
   40.5640   22.7330   33.4510 H   0  0  0  0  0  0  0  0  0  0  0  0
   42.2480   22.6650   35.1880 H   0  0  0  0  0  0  0  0  0  0  0  0
   38.0080   24.0000   39.8750 H   0  0  0  0  0  0  0  0  0  0  0  0
   39.3390   21.9610   39.2260 H   0  0  0  0  0  0  0  0  0  0  0  0
  2  1  2  0  0  0  0
  3  7  1  6  0  0  0
  3  2  1  0  0  0  0
  3 24  1  0  0  0  0
  4  9  1  0  0  0  0
  4  3  1  0  0  0  0
  5  4  1  0  0  0  0
  5  6  1  0  0  0  0
  6  2  1  0  0  0  0
  8  4  1  0  0  0  0
 10  5  1  0  0  0  0
 11  5  1  0  0  0  0
 12  6  1  0  0  0  0
 12 14  1  0  0  0  0
 13 12  1  0  0  0  0
 15 12  1  0  0  0  0
 15 16  1  0  0  0  0
 16 17  1  0  0  0  0
 18 16  1  0  0  0  0
 18 19  1  0  0  0  0
 20 21  1  0  0  0  0
 20 18  1  0  0  0  0
 22 20  1  0  0  0  0
 23 22  1  0  0  0  0
 23 15  1  0  0  0  0
 24 25  1  0  0  0  0
 25 30  1  0  0  0  0
 26 25  2  0  0  0  0
 26 27  1  0  0  0  0
 27 28  2  0  0  0  0
 28 29  1  0  0  0  0
 29 33  1  0  0  0  0
 30 29  2  0  0  0  0
 31 36  1  0  0  0  0
 32 31  2  0  0  0  0
 33 31  1  0  0  0  0
 33 37  1  0  0  0  0
 34 26  1  0  0  0  0
 35 27  1  0  0  0  0
M  END
>  <minimizedAffinity>
-5.24291372

$$$$

 OpenBabel03272506403D

 37 39  0  0  1  0  0  0  0  0999 V2000
   37.1900   27.9480   35.1050 O   0  0  0  0  0  0  0  0  0  0  0  0
   37.3510   27.0420   34.2690 C   0  0  0  0  0  0  0  0  0  0  0  0
   36.7530   27.1120   32.9530 C   0  0  2  0  0  0  0  0  0  0  0  0
   37.4380   25.8870   32.2560 C   0  0  0  0  0  0  0  0  0  0  0  0
   37.7150   24.9690   33.4200 C   0  0  0  0  0  0  0  0  0  0  0  0
   38.1240   25.8610   34.4980 N   0  0  0  0  0  0  0  0  0  0  0  0
   35.6820   26.9280   32.8800 H   0  0  0  0  0  0  0  0  0  0  0  0
   36.7330   25.4440   31.5420 H   0  0  0  0  0  0  0  0  0  0  0  0
   38.3890   26.2170   31.8000 H   0  0  0  0  0  0  0  0  0  0  0  0
   36.8630   24.3390   33.6970 H   0  0  0  0  0  0  0  0  0  0  0  0
   38.5800   24.3260   33.1860 H   0  0  0  0  0  0  0  0  0  0  0  0
   39.0950   25.5700   35.5370 C   0  0  0  0  0  0  0  0  0  0  0  0
   40.0910   25.7670   35.0920 H   0  0  0  0  0  0  0  0  0  0  0  0
   38.9650   26.2870   36.3530 H   0  0  0  0  0  0  0  0  0  0  0  0
   39.0710   24.2590   36.0490 N   0  0  0  0  0  0  0  0  0  0  0  0
   38.2020   23.9320   37.0970 C   0  0  0  0  0  3  0  0  0  0  0  0
   37.5530   24.7670   37.4240 H   0  0  0  0  0  0  0  0  0  0  0  0
   38.8340   23.3230   38.3150 C   0  0  0  0  0  3  0  0  0  0  0  0
   38.0360   22.7490   38.8480 H   0  0  0  0  0  0  0  0  0  0  0  0
   39.8850   22.3940   38.0150 N   0  0  0  0  0  0  0  0  0  0  0  0
   39.7890   21.4920   38.5480 H   0  0  0  0  0  0  0  0  0  0  0  0
   39.9600   22.1370   36.5780 C   0  0  0  0  0  2  0  0  0  0  0  0
   40.2800   23.5010   35.9550 C   0  0  0  0  0  2  0  0  0  0  0  0
   37.1500   28.2500   32.1890 O   0  0  0  0  0  0  0  0  0  0  0  0
   36.1750   29.2020   31.9040 C   0  0  0  0  0  0  0  0  0  0  0  0
   34.9940   29.1110   32.6140 C   0  0  0  0  0  0  0  0  0  0  0  0
   33.9980   30.0480   32.3540 C   0  0  0  0  0  0  0  0  0  0  0  0
   34.2280   31.0030   31.4210 N   0  0  0  0  0  0  0  0  0  0  0  0
   35.3870   31.0790   30.7350 C   0  0  0  0  0  0  0  0  0  0  0  0
   36.3250   30.1860   30.9910 N   0  0  0  0  0  0  0  0  0  0  0  0
   36.7030   32.9310   30.0670 C   0  0  0  0  0  0  0  0  0  0  0  0
   37.4800   32.8640   31.0590 O   0  0  0  0  0  0  0  0  0  0  0  0
   35.5910   32.0960   29.7600 N   0  0  0  0  0  0  0  0  0  0  0  0
   34.7840   28.3670   33.3570 H   0  0  0  0  0  0  0  0  0  0  0  0
   33.0600   30.0020   32.8950 H   0  0  0  0  0  0  0  0  0  0  0  0
   37.0210   33.7610   29.4440 H   0  0  0  0  0  0  0  0  0  0  0  0
   35.0500   32.2920   28.8880 H   0  0  0  0  0  0  0  0  0  0  0  0
  2  6  1  0  0  0  0
  2  1  2  0  0  0  0
  3  7  1  1  0  0  0
  3  2  1  0  0  0  0
  4  3  1  0  0  0  0
  4  5  1  0  0  0  0
  5 10  1  0  0  0  0
  5  6  1  0  0  0  0
  6 12  1  0  0  0  0
  8  4  1  0  0  0  0
  9  4  1  0  0  0  0
 11  5  1  0  0  0  0
 12 15  1  0  0  0  0
 12 14  1  0  0  0  0
 13 12  1  0  0  0  0
 15 16  1  0  0  0  0
 16 17  1  0  0  0  0
 16 18  1  0  0  0  0
 18 19  1  0  0  0  0
 20 18  1  0  0  0  0
 20 21  1  0  0  0  0
 22 20  1  0  0  0  0
 23 15  1  0  0  0  0
 23 22  1  0  0  0  0
 24  3  1  0  0  0  0
 25 24  1  0  0  0  0
 25 26  1  0  0  0  0
 26 34  1  0  0  0  0
 27 26  2  0  0  0  0
 27 35  1  0  0  0  0
 28 27  1  0  0  0  0
 29 30  1  0  0  0  0
 29 28  2  0  0  0  0
 30 25  2  0  0  0  0
 31 32  2  0  0  0  0
 33 31  1  0  0  0  0
 33 29  1  0  0  0  0
 36 31  1  0  0  0  0
 37 33  1  0  0  0  0
M  END
>  <minimizedAffinity>
-5.21054792

$$$$

 OpenBabel03272506403D

 37 39  0  0  1  0  0  0  0  0999 V2000
   38.1640   25.2470   32.4220 O   0  0  0  0  0  0  0  0  0  0  0  0
   38.7340   25.6900   33.4340 C   0  0  0  0  0  0  0  0  0  0  0  0
   38.4190   26.9960   33.9700 C   0  0  2  0  0  0  0  0  0  0  0  0
   39.2160   26.9590   35.3180 C   0  0  0  0  0  0  0  0  0  0  0  0
   40.3490   26.0170   34.9960 C   0  0  0  0  0  0  0  0  0  0  0  0
   39.7390   24.9840   34.1680 N   0  0  0  0  0  0  0  0  0  0  0  0
   38.7970   27.8640   33.4310 H   0  0  0  0  0  0  0  0  0  0  0  0
   39.5740   27.9700   35.5480 H   0  0  0  0  0  0  0  0  0  0  0  0
   38.5740   26.5220   36.1060 H   0  0  0  0  0  0  0  0  0  0  0  0
   41.1980   26.5030   34.5030 H   0  0  0  0  0  0  0  0  0  0  0  0
   40.6980   25.5280   35.9200 H   0  0  0  0  0  0  0  0  0  0  0  0
   40.1020   23.5790   34.1340 C   0  0  0  0  0  0  0  0  0  0  0  0
   39.4750   23.1170   33.3460 H   0  0  0  0  0  0  0  0  0  0  0  0
   41.1410   23.4900   33.8050 H   0  0  0  0  0  0  0  0  0  0  0  0
   39.9220   22.8710   35.3380 N   0  0  0  0  0  0  0  0  0  0  0  0
   38.6610   22.8320   35.9450 C   0  0  0  0  0  3  0  0  0  0  0  0
   37.8700   23.3590   35.3790 H   0  0  0  0  0  0  0  0  0  0  0  0
   38.6000   23.2880   37.3740 C   0  0  0  0  0  3  0  0  0  0  0  0
   37.6930   22.8200   37.8310 H   0  0  0  0  0  0  0  0  0  0  0  0
   39.7250   22.8690   38.1600 N   0  0  0  0  0  0  0  0  0  0  0  0
   39.4380   22.4460   39.0800 H   0  0  0  0  0  0  0  0  0  0  0  0
   40.5710   21.9440   37.4100 C   0  0  0  0  0  2  0  0  0  0  0  0
   41.0560   22.7530   36.2000 C   0  0  0  0  0  2  0  0  0  0  0  0
   37.0520   27.1600   34.3460 O   0  0  0  0  0  0  0  0  0  0  0  0
   36.3570   28.2290   33.7870 C   0  0  0  0  0  0  0  0  0  0  0  0
   36.4960   28.4140   32.4250 C   0  0  0  0  0  0  0  0  0  0  0  0
   35.8140   29.4740   31.8340 C   0  0  0  0  0  0  0  0  0  0  0  0
   35.0490   30.2740   32.6150 N   0  0  0  0  0  0  0  0  0  0  0  0
   34.9230   30.0810   33.9430 C   0  0  0  0  0  0  0  0  0  0  0  0
   35.5730   29.0720   34.4930 N   0  0  0  0  0  0  0  0  0  0  0  0
   33.0560   30.2520   35.3910 C   0  0  0  0  0  0  0  0  0  0  0  0
   32.7840   29.0200   35.3480 O   0  0  0  0  0  0  0  0  0  0  0  0
   34.1110   30.9450   34.7310 N   0  0  0  0  0  0  0  0  0  0  0  0
   37.0940   27.7980   31.7840 H   0  0  0  0  0  0  0  0  0  0  0  0
   35.9040   29.6450   30.7680 H   0  0  0  0  0  0  0  0  0  0  0  0
   32.3320   30.7360   36.0380 H   0  0  0  0  0  0  0  0  0  0  0  0
   34.1940   31.9760   34.8790 H   0  0  0  0  0  0  0  0  0  0  0  0
  1  2  2  0  0  0  0
  2  3  1  0  0  0  0
  2  6  1  0  0  0  0
  3  7  1  6  0  0  0
  3 24  1  0  0  0  0
  3  4  1  0  0  0  0
  4  8  1  0  0  0  0
  4  9  1  0  0  0  0
  5  4  1  0  0  0  0
  5 11  1  0  0  0  0
  6  5  1  0  0  0  0
 10  5  1  0  0  0  0
 12  6  1  0  0  0  0
 12 15  1  0  0  0  0
 13 12  1  0  0  0  0
 14 12  1  0  0  0  0
 15 16  1  0  0  0  0
 15 23  1  0  0  0  0
 16 18  1  0  0  0  0
 17 16  1  0  0  0  0
 18 19  1  0  0  0  0
 18 20  1  0  0  0  0
 20 21  1  0  0  0  0
 22 20  1  0  0  0  0
 23 22  1  0  0  0  0
 25 24  1  0  0  0  0
 25 30  1  0  0  0  0
 26 25  2  0  0  0  0
 27 26  1  0  0  0  0
 27 28  2  0  0  0  0
 28 29  1  0  0  0  0
 29 30  2  0  0  0  0
 29 33  1  0  0  0  0
 31 36  1  0  0  0  0
 32 31  2  0  0  0  0
 33 37  1  0  0  0  0
 33 31  1  0  0  0  0
 34 26  1  0  0  0  0
 35 27  1  0  0  0  0
M  END
>  <minimizedAffinity>
-5.18679857

$$$$

 OpenBabel03272506403D

 37 39  0  0  1  0  0  0  0  0999 V2000
   36.7770   25.6510   32.2090 O   0  0  0  0  0  0  0  0  0  0  0  0
   36.8490   26.5240   33.0920 C   0  0  0  0  0  0  0  0  0  0  0  0
   37.6020   26.3090   34.3090 C   0  0  2  0  0  0  0  0  0  0  0  0
   37.5590   27.7440   34.9360 C   0  0  0  0  0  0  0  0  0  0  0  0
   36.2690   28.2970   34.3850 C   0  0  0  0  0  0  0  0  0  0  0  0
   36.2170   27.8050   33.0140 N   0  0  0  0  0  0  0  0  0  0  0  0
   37.1660   25.6500   35.0580 H   0  0  0  0  0  0  0  0  0  0  0  0
   37.5350   27.6540   36.0290 H   0  0  0  0  0  0  0  0  0  0  0  0
   38.4150   28.3310   34.5540 H   0  0  0  0  0  0  0  0  0  0  0  0
   35.3840   28.0130   34.9650 H   0  0  0  0  0  0  0  0  0  0  0  0
   36.3300   29.3970   34.3330 H   0  0  0  0  0  0  0  0  0  0  0  0
   35.6490   28.4940   31.8700 C   0  0  0  0  0  0  0  0  0  0  0  0
   35.1750   27.7120   31.2430 H   0  0  0  0  0  0  0  0  0  0  0  0
   34.8470   29.1520   32.2160 H   0  0  0  0  0  0  0  0  0  0  0  0
   36.5570   29.2260   31.0820 N   0  0  0  0  0  0  0  0  0  0  0  0
   36.6260   30.6190   31.2050 C   0  0  0  0  0  3  0  0  0  0  0  0
   35.9490   31.0400   31.9730 H   0  0  0  0  0  0  0  0  0  0  0  0
   36.4430   31.4050   29.9380 C   0  0  0  0  0  3  0  0  0  0  0  0
   36.9270   32.4010   30.0950 H   0  0  0  0  0  0  0  0  0  0  0  0
   37.0770   30.8110   28.7960 N   0  0  0  0  0  0  0  0  0  0  0  0
   37.6450   31.5030   28.2450 H   0  0  0  0  0  0  0  0  0  0  0  0
   37.8990   29.6680   29.1900 C   0  0  0  0  0  2  0  0  0  0  0  0
   36.9110   28.6730   29.8120 C   0  0  0  0  0  2  0  0  0  0  0  0
   38.9860   26.0310   34.0990 O   0  0  0  0  0  0  0  0  0  0  0  0
   39.5700   25.0470   34.8920 C   0  0  0  0  0  0  0  0  0  0  0  0
   40.9300   24.8550   34.7390 C   0  0  0  0  0  0  0  0  0  0  0  0
   41.5460   23.8790   35.5160 C   0  0  0  0  0  0  0  0  0  0  0  0
   40.7910   23.1620   36.3840 N   0  0  0  0  0  0  0  0  0  0  0  0
   39.4640   23.3610   36.5220 C   0  0  0  0  0  0  0  0  0  0  0  0
   38.8910   24.2910   35.7800 N   0  0  0  0  0  0  0  0  0  0  0  0
   38.0650   23.3880   38.4330 C   0  0  0  0  0  0  0  0  0  0  0  0
   38.1050   24.6420   38.5680 O   0  0  0  0  0  0  0  0  0  0  0  0
   38.7030   22.5870   37.4430 N   0  0  0  0  0  0  0  0  0  0  0  0
   41.5520   25.4050   34.0610 H   0  0  0  0  0  0  0  0  0  0  0  0
   42.6110   23.7040   35.4180 H   0  0  0  0  0  0  0  0  0  0  0  0
   37.4400   22.9830   39.2210 H   0  0  0  0  0  0  0  0  0  0  0  0
   38.5620   21.5530   37.4770 H   0  0  0  0  0  0  0  0  0  0  0  0
  1  2  2  0  0  0  0
  2  3  1  0  0  0  0
  3  4  1  0  0  0  0
  3  7  1  1  0  0  0
  4  8  1  0  0  0  0
  5  4  1  0  0  0  0
  5 10  1  0  0  0  0
  6  2  1  0  0  0  0
  6  5  1  0  0  0  0
  9  4  1  0  0  0  0
 11  5  1  0  0  0  0
 12 14  1  0  0  0  0
 12  6  1  0  0  0  0
 13 12  1  0  0  0  0
 15 16  1  0  0  0  0
 15 12  1  0  0  0  0
 16 17  1  0  0  0  0
 18 19  1  0  0  0  0
 18 16  1  0  0  0  0
 20 22  1  0  0  0  0
 20 18  1  0  0  0  0
 21 20  1  0  0  0  0
 22 23  1  0  0  0  0
 23 15  1  0  0  0  0
 24  3  1  0  0  0  0
 24 25  1  0  0  0  0
 25 30  1  0  0  0  0
 26 25  2  0  0  0  0
 26 27  1  0  0  0  0
 27 28  2  0  0  0  0
 28 29  1  0  0  0  0
 29 33  1  0  0  0  0
 30 29  2  0  0  0  0
 31 32  2  0  0  0  0
 31 36  1  0  0  0  0
 33 37  1  0  0  0  0
 33 31  1  0  0  0  0
 34 26  1  0  0  0  0
 35 27  1  0  0  0  0
M  END
>  <minimizedAffinity>
-5.17997837

$$$$

 OpenBabel03272506403D

 37 39  0  0  1  0  0  0  0  0999 V2000
   38.5260   25.4610   32.2150 O   0  0  0  0  0  0  0  0  0  0  0  0
   38.8680   25.8210   33.3550 C   0  0  0  0  0  0  0  0  0  0  0  0
   38.3990   27.0630   33.9290 C   0  0  2  0  0  0  0  0  0  0  0  0
   38.9170   26.9190   35.4000 C   0  0  0  0  0  0  0  0  0  0  0  0
   40.1300   26.0390   35.2290 C   0  0  0  0  0  0  0  0  0  0  0  0
   39.7390   25.0740   34.2090 N   0  0  0  0  0  0  0  0  0  0  0  0
   38.8390   27.9860   33.5540 H   0  0  0  0  0  0  0  0  0  0  0  0
   39.1810   27.9120   35.7840 H   0  0  0  0  0  0  0  0  0  0  0  0
   38.1520   26.3950   36.0030 H   0  0  0  0  0  0  0  0  0  0  0  0
   41.0380   26.5890   34.9590 H   0  0  0  0  0  0  0  0  0  0  0  0
   40.3110   25.4740   36.1580 H   0  0  0  0  0  0  0  0  0  0  0  0
   40.1600   23.6870   34.1260 C   0  0  0  0  0  0  0  0  0  0  0  0
   39.5650   23.2320   33.3090 H   0  0  0  0  0  0  0  0  0  0  0  0
   41.2070   23.6540   33.8130 H   0  0  0  0  0  0  0  0  0  0  0  0
   39.9890   22.9240   35.2970 N   0  0  0  0  0  0  0  0  0  0  0  0
   38.7210   22.8100   35.8800 C   0  0  0  0  0  3  0  0  0  0  0  0
   37.9180   23.3290   35.3220 H   0  0  0  0  0  0  0  0  0  0  0  0
   38.6190   23.2050   37.3250 C   0  0  0  0  0  3  0  0  0  0  0  0
   37.7240   22.6840   37.7470 H   0  0  0  0  0  0  0  0  0  0  0  0
   39.7470   22.7990   38.1140 N   0  0  0  0  0  0  0  0  0  0  0  0
   39.4630   22.3280   39.0100 H   0  0  0  0  0  0  0  0  0  0  0  0
   40.6420   21.9400   37.3410 C   0  0  0  0  0  2  0  0  0  0  0  0
   41.1130   22.8160   36.1740 C   0  0  0  0  0  2  0  0  0  0  0  0
   36.9790   27.1580   34.0380 O   0  0  0  0  0  0  0  0  0  0  0  0
   36.3790   28.3350   33.5970 C   0  0  0  0  0  0  0  0  0  0  0  0
   35.9450   29.2110   34.5730 C   0  0  0  0  0  0  0  0  0  0  0  0
   35.3410   30.3980   34.1680 C   0  0  0  0  0  0  0  0  0  0  0  0
   35.2050   30.6410   32.8420 N   0  0  0  0  0  0  0  0  0  0  0  0
   35.6340   29.7760   31.9010 C   0  0  0  0  0  0  0  0  0  0  0  0
   36.2060   28.6540   32.2970 N   0  0  0  0  0  0  0  0  0  0  0  0
   36.7120   30.1170   29.8200 C   0  0  0  0  0  0  0  0  0  0  0  0
   37.8740   29.9430   30.2810 O   0  0  0  0  0  0  0  0  0  0  0  0
   35.4710   30.0650   30.5170 N   0  0  0  0  0  0  0  0  0  0  0  0
   36.0390   29.0460   35.6280 H   0  0  0  0  0  0  0  0  0  0  0  0
   34.9900   31.1050   34.9100 H   0  0  0  0  0  0  0  0  0  0  0  0
   36.7970   30.3220   28.7580 H   0  0  0  0  0  0  0  0  0  0  0  0
   34.5930   30.2330   29.9760 H   0  0  0  0  0  0  0  0  0  0  0  0
  1  2  2  0  0  0  0
  2  3  1  0  0  0  0
  2  6  1  0  0  0  0
  3  7  1  6  0  0  0
  3 24  1  0  0  0  0
  3  4  1  0  0  0  0
  4  8  1  0  0  0  0
  4  9  1  0  0  0  0
  5  4  1  0  0  0  0
  5 11  1  0  0  0  0
  6  5  1  0  0  0  0
 10  5  1  0  0  0  0
 12  6  1  0  0  0  0
 12 15  1  0  0  0  0
 13 12  1  0  0  0  0
 14 12  1  0  0  0  0
 15 16  1  0  0  0  0
 15 23  1  0  0  0  0
 16 18  1  0  0  0  0
 17 16  1  0  0  0  0
 18 19  1  0  0  0  0
 18 20  1  0  0  0  0
 20 21  1  0  0  0  0
 22 20  1  0  0  0  0
 23 22  1  0  0  0  0
 25 24  1  0  0  0  0
 25 26  1  0  0  0  0
 26 34  1  0  0  0  0
 27 26  2  0  0  0  0
 27 35  1  0  0  0  0
 28 27  1  0  0  0  0
 29 30  1  0  0  0  0
 29 28  2  0  0  0  0
 30 25  2  0  0  0  0
 31 32  2  0  0  0  0
 31 33  1  0  0  0  0
 33 29  1  0  0  0  0
 36 31  1  0  0  0  0
 37 33  1  0  0  0  0
M  END
>  <minimizedAffinity>
-5.0839963

$$$$
