REMARK  Name = 
REMARK  6 active torsions:
REMARK  status: ('A' for Active; 'I' for Inactive)
REMARK    1  A    between atoms: C_1  and  C_8
REMARK    2  A    between atoms: C_4  and  O_13
REMARK    3  A    between atoms: O_13  and  C_14
REMARK    4  A    between atoms: N_17  and  C_19
REMARK    5  A    between atoms: C_19  and  C_20
REMARK    6  A    between atoms: C_20  and  N_33
REMARK                            x       y       z     vdW  Elec       q    Type
REMARK                         _______ _______ _______ _____ _____    ______ ____
ROOT
ATOM      1  C   UNL     1      38.363  31.257  48.642  0.00  0.00    +0.000 A 
ATOM      2  C   UNL     1      38.443  32.524  49.224  0.00  0.00    +0.000 A 
ATOM      3  C   UNL     1      39.047  33.378  48.314  0.00  0.00    +0.000 A 
ATOM      4  N   UNL     1      39.317  32.634  47.223  0.00  0.00    +0.000 N 
ATOM      5  N   UNL     1      38.915  31.398  47.421  0.00  0.00    +0.000 NA
ATOM      6  H   UNL     1      38.145  32.946  50.186  0.00  0.00    +0.000 HD
ATOM      7  H   UNL     1      39.283  34.443  48.404  0.00  0.00    +0.000 HD
ENDROOT
BRANCH   4   8
ATOM      8  C   UNL     1      39.948  33.091  45.983  0.00  0.00    +0.000 C 
ATOM      9  H   UNL     1      39.260  33.620  45.340  0.00  0.00    +0.000 HD
ATOM     10  H   UNL     1      40.747  33.807  46.350  0.00  0.00    +0.000 HD
BRANCH   8  11
ATOM     11  C   UNL     1      40.686  31.932  45.406  0.00  0.00    +0.000 C 
ATOM     12  H   UNL     1      41.442  31.507  46.106  0.00  0.00    +0.000 HD
ATOM     13  H   UNL     1      40.022  31.059  45.165  0.00  0.00    +0.000 HD
BRANCH  11  14
ATOM     14  N   UNL     1      41.330  32.347  44.165  0.00  0.00    +0.000 NA
ATOM     15  C   UNL     1      41.989  31.180  43.552  0.00  0.00    +0.000 C 
ATOM     16  H   UNL     1      41.567  30.244  43.908  0.00  0.00    +0.000 HD
ATOM     17  C   UNL     1      41.971  31.309  42.039  0.00  0.00    +0.000 C 
ATOM     18  H   UNL     1      42.573  30.464  41.651  0.00  0.00    +0.000 HD
ATOM     19  N   UNL     1      40.611  31.141  41.532  0.00  0.00    +0.000 NA
ATOM     20  H   UNL     1      40.383  30.137  41.341  0.00  0.00    +0.000 HD
ATOM     21  C   UNL     1      39.655  31.739  42.448  0.00  0.00    +0.000 C 
ATOM     22  C   UNL     1      40.334  32.859  43.222  0.00  0.00    +0.000 C 
ENDBRANCH  11  14
ENDBRANCH   8  11
ENDBRANCH   4   8
BRANCH   1  23
ATOM     23  O   UNL     1      37.782  30.299  49.436  0.00  0.00    +0.000 OA
BRANCH  23  27
ATOM     24  C   UNL     1      33.997  28.817  48.296  0.00  0.00    +0.000 A 
ATOM     25  C   UNL     1      34.629  28.365  49.406  0.00  0.00    +0.000 A 
ATOM     26  C   UNL     1      35.857  28.794  49.844  0.00  0.00    +0.000 A 
ATOM     27  C   UNL     1      36.538  29.748  49.147  0.00  0.00    +0.000 A 
ATOM     28  C   UNL     1      35.895  30.227  47.994  0.00  0.00    +0.000 A 
ATOM     29  N   UNL     1      34.688  29.781  47.595  0.00  0.00    +0.000 NA
ATOM     30  H   UNL     1      34.156  27.596  50.029  0.00  0.00    +0.000 HD
ATOM     31  H   UNL     1      36.354  28.422  50.736  0.00  0.00    +0.000 HD
ATOM     32  H   UNL     1      36.375  30.986  47.388  0.00  0.00    +0.000 HD
BRANCH  24  34
ATOM     33  C   UNL     1      31.916  27.483  48.544  0.00  0.00    +0.000 A 
ATOM     34  C   UNL     1      32.731  28.369  47.836  0.00  0.00    +0.000 A 
ATOM     35  C   UNL     1      32.247  28.806  46.623  0.00  0.00    +0.000 A 
ATOM     36  N   UNL     1      31.024  28.371  46.166  0.00  0.00    +0.000 NA
ATOM     37  C   UNL     1      30.287  27.500  46.925  0.00  0.00    +0.000 A 
ATOM     38  N   UNL     1      30.718  27.048  48.114  0.00  0.00    +0.000 NA
ATOM     39  H   UNL     1      32.246  27.109  49.501  0.00  0.00    +0.000 HD
ATOM     40  H   UNL     1      32.841  29.499  46.032  0.00  0.00    +0.000 HD
ATOM     41  H   UNL     1      29.343  27.260  46.409  0.00  0.00    +0.000 HD
ENDBRANCH  24  34
ENDBRANCH  23  27
ENDBRANCH   1  23
TORSDOF 6
