
     RDKit          3D

 49 52  0  0  0  0  0  0  0  0999 V2000
   37.3331   30.1749   51.5155 C   0  0  0  0  0  0  0  0  0  0  0  0
   38.0720   30.8665   50.5126 C   0  0  0  0  0  0  0  0  0  0  0  0
   37.7057   30.6510   49.1983 C   0  0  0  0  0  0  0  0  0  0  0  0
   36.6599   29.7883   48.9653 N   0  0  0  0  0  0  0  0  0  0  0  0
   35.9950   29.1618   49.9263 C   0  0  0  0  0  0  0  0  0  0  0  0
   36.3318   29.3542   51.2161 N   0  0  0  0  0  0  0  0  0  0  0  0
   38.9291   33.2707   49.0001 F   0  0  0  0  0  0  0  0  0  0  0  0
   38.9124   32.4771   47.9308 C   0  0  0  0  0  0  0  0  0  0  0  0
   38.3361   31.2616   48.0502 C   0  0  0  0  0  0  0  0  0  0  0  0
   38.3727   30.5099   46.8701 C   0  0  0  0  0  0  0  0  0  0  0  0
   38.9422   30.9743   45.7095 C   0  0  0  0  0  0  0  0  0  0  0  0
   39.5153   32.2253   45.6503 C   0  0  0  0  0  0  0  0  0  0  0  0
   39.4926   32.9814   46.7923 C   0  0  0  0  0  0  0  0  0  0  0  0
   35.0035   28.3624   49.4406 O   0  0  0  0  0  0  0  0  0  0  0  0
   34.4447   28.6612   48.1619 C   0  0  0  0  0  0  0  0  0  0  0  0
   33.5685   27.5349   47.7021 C   0  0  0  0  0  0  0  0  0  0  0  0
   32.1313   27.9020   47.7020 C   0  0  0  0  0  0  0  0  0  0  0  0
   31.3527   27.5140   48.7800 C   0  0  0  0  0  0  0  0  0  0  0  0
   30.0245   27.8060   48.8668 C   0  0  0  0  0  0  0  0  0  0  0  0
   29.4440   28.4853   47.8915 N   0  0  0  0  0  0  0  0  0  0  0  0
   30.2011   28.8726   46.8251 C   0  0  0  0  0  0  0  0  0  0  0  0
   31.5197   28.5986   46.7096 N   0  0  0  0  0  0  0  0  0  0  0  0
   37.6720   30.3892   52.5194 H   0  0  0  0  0  0  0  0  0  0  0  0
   38.8837   31.5352   50.7060 H   0  0  0  0  0  0  0  0  0  0  0  0
   37.9545   29.5145   46.7966 H   0  0  0  0  0  0  0  0  0  0  0  0
   38.9675   30.3859   44.7963 H   0  0  0  0  0  0  0  0  0  0  0  0
   39.9579   32.5748   44.7321 H   0  0  0  0  0  0  0  0  0  0  0  0
   39.9333   33.9522   46.7593 H   0  0  0  0  0  0  0  0  0  0  0  0
   33.8790   29.6240   48.2349 H   0  0  0  0  0  0  0  0  0  0  0  0
   35.2748   28.7951   47.4342 H   0  0  0  0  0  0  0  0  0  0  0  0
   33.6920   26.6086   48.3039 H   0  0  0  0  0  0  0  0  0  0  0  0
   33.7977   27.2432   46.6423 H   0  0  0  0  0  0  0  0  0  0  0  0
   31.8252   26.9496   49.5950 H   0  0  0  0  0  0  0  0  0  0  0  0
   29.4496   27.4852   49.7257 H   0  0  0  0  0  0  0  0  0  0  0  0
   29.6168   29.6059   45.7525 N   0  0  0  0  0  0  0  0  0  0  0  0
   30.2316   30.7744   45.1501 C   0  0  2  0  0  0  0  0  0  0  0  0
   31.2866   30.6152   44.8931 H   0  0  0  0  0  0  0  0  0  0  0  0
   29.4040   31.1162   43.9213 C   0  0  1  0  0  0  0  0  0  0  0  0
   28.4883   31.6628   44.1667 H   0  0  0  0  0  0  0  0  0  0  0  0
   29.1574   29.9679   43.0996 N   0  0  0  0  0  0  0  0  0  0  0  0
   30.0799   29.7122   42.6575 H   0  0  0  0  0  0  0  0  0  0  0  0
   28.5428   28.8599   43.7613 C   0  0  0  0  0  0  0  0  0  0  0  0
   28.3375   29.1758   45.2204 C   0  0  0  0  0  0  0  0  0  0  0  0
   30.0990   31.6027   45.8970 H   0  0  0  0  0  0  0  0  0  0  0  0
   30.0383   31.8121   43.3244 H   0  0  0  0  0  0  0  0  0  0  0  0
   29.2430   27.9879   43.7119 H   0  0  0  0  0  0  0  0  0  0  0  0
   27.6100   28.5139   43.2691 H   0  0  0  0  0  0  0  0  0  0  0  0
   27.9151   28.3243   45.7815 H   0  0  0  0  0  0  0  0  0  0  0  0
   27.6141   30.0030   45.3161 H   0  0  0  0  0  0  0  0  0  0  0  0
  2  1  2  0
  3  2  1  0
  4  3  2  0
  4  5  1  0
  5  6  2  0
  6  1  1  0
  8  9  2  0
  8  7  1  0
  9  3  1  0
 10  9  1  0
 11 10  2  0
 12 11  1  0
 12 13  2  0
 13  8  1  0
 14  5  1  0
 15 14  1  0
 16 15  1  0
 17 16  1  0
 17 18  2  0
 18 19  1  0
 20 19  2  0
 21 20  1  0
 22 21  2  0
 22 17  1  0
  1 23  1  0
  2 24  1  0
 10 25  1  0
 11 26  1  0
 12 27  1  0
 13 28  1  0
 15 29  1  0
 15 30  1  0
 16 31  1  0
 16 32  1  0
 18 33  1  0
 19 34  1  0
 35 36  1  0
 36 37  1  6
 36 38  1  0
 38 39  1  1
 38 40  1  0
 40 41  1  0
 40 42  1  0
 42 43  1  0
 43 35  1  0
 36 44  1  0
 38 45  1  0
 42 46  1  0
 42 47  1  0
 43 48  1  0
 43 49  1  0
 21 35  1  0
M  ISO  8  23  14  24  14  25  14  26  14  27  14  28  14  29   8  30   8
M  ISO  7  31   8  32   8  33  14  34  14  37   8  39   8  41   5
M  END
>  <DihAtoms>  (1) 
19,20,34,35

>  <DihDeg>  (1) 
-179.99494565972788

$$$$
