
 OpenBabel03272510123D

 35 38  0  0  1  0  0  0  0  0999 V2000
   38.3870   25.4950   35.4730 C   0  0  0  0  0  0  0  0  0  0  0  0
   38.2560   26.7500   35.9490 C   0  0  0  0  0  0  0  0  0  0  0  0
   37.6230   27.7860   35.2930 C   0  0  0  0  0  0  0  0  0  0  0  0
   37.0720   27.5620   34.0610 C   0  0  0  0  0  0  0  0  0  0  0  0
   37.2050   26.2570   33.5590 C   0  0  0  0  0  0  0  0  0  0  0  0
   37.8350   25.2830   34.2480 N   0  0  0  0  0  0  0  0  0  0  0  0
   38.6590   27.0230   36.9130 H   0  0  0  0  0  0  0  0  0  0  0  0
   37.5180   28.7930   35.6720 H   0  0  0  0  0  0  0  0  0  0  0  0
   36.7850   26.0170   32.5830 H   0  0  0  0  0  0  0  0  0  0  0  0
   40.2070   23.7630   35.6740 C   0  0  0  0  0  0  0  0  0  0  0  0
   39.0470   24.4270   36.1630 C   0  0  0  0  0  0  0  0  0  0  0  0
   38.5730   23.9770   37.3690 C   0  0  0  0  0  0  0  0  0  0  0  0
   39.2100   22.9550   38.0210 N   0  0  0  0  0  0  0  0  0  0  0  0
   40.3060   22.3690   37.5030 C   0  0  0  0  0  0  0  0  0  0  0  0
   40.8130   22.7680   36.3250 N   0  0  0  0  0  0  0  0  0  0  0  0
   40.6060   24.0920   34.7260 H   0  0  0  0  0  0  0  0  0  0  0  0
   37.6850   24.4450   37.8000 H   0  0  0  0  0  0  0  0  0  0  0  0
   40.6990   21.5790   38.1270 H   0  0  0  0  0  0  0  0  0  0  0  0
   36.3980   28.4700   33.2500 O   0  0  0  0  0  0  0  0  0  0  0  0
   35.5250   29.4180   33.7730 C   0  0  0  0  0  0  0  0  0  0  0  0
   34.2540   29.3770   33.2020 C   0  0  0  0  0  0  0  0  0  0  0  0
   33.5050   30.3750   33.8230 C   0  0  0  0  0  0  0  0  0  0  0  0
   34.3150   30.9640   34.7140 N   0  0  0  0  0  0  0  0  0  0  0  0
   35.4930   30.3970   34.6760 N   0  0  0  0  0  0  0  0  0  0  0  0
   33.7510   28.7850   32.4370 H   0  0  0  0  0  0  0  0  0  0  0  0
   32.4770   30.6830   33.6800 H   0  0  0  0  0  0  0  0  0  0  0  0
   32.1880   31.4580   36.4220 H   0  0  0  0  0  0  0  0  0  0  0  0
   32.5800   32.2150   35.8040 N   0  0  0  0  0  0  0  0  0  0  0  0
   34.0040   32.0440   35.5970 C   0  0  1  0  0  3  0  0  0  0  0  0
   34.6130   31.9300   36.9690 C   0  0  0  0  0  3  0  0  0  0  0  0
   35.6630   31.6280   36.9770 H   0  0  0  0  0  0  0  0  0  0  0  0
   34.5230   33.2400   37.5690 N   0  0  0  0  0  0  0  0  0  0  0  0
   35.2880   33.8780   37.2630 H   0  0  0  0  0  0  0  0  0  0  0  0
   33.2250   33.8230   37.5610 C   0  0  0  0  0  2  0  0  0  0  0  0
   32.3640   33.5240   36.3860 C   0  0  0  0  0  2  0  0  0  0  0  0
  1  2  1  0  0  0  0
  1 11  1  0  0  0  0
  2  7  1  0  0  0  0
  3  8  1  0  0  0  0
  3  2  2  0  0  0  0
  4  3  1  0  0  0  0
  5  4  2  0  0  0  0
  5  6  1  0  0  0  0
  6  1  2  0  0  0  0
  9  5  1  0  0  0  0
 10 11  2  0  0  0  0
 10 15  1  0  0  0  0
 11 12  1  0  0  0  0
 12 17  1  0  0  0  0
 12 13  2  0  0  0  0
 14 13  1  0  0  0  0
 14 18  1  0  0  0  0
 15 14  2  0  0  0  0
 16 10  1  0  0  0  0
 19 20  1  0  0  0  0
 19  4  1  0  0  0  0
 20 24  2  0  0  0  0
 21 20  1  0  0  0  0
 21 22  2  0  0  0  0
 22 23  1  0  0  0  0
 24 23  1  0  0  0  0
 25 21  1  0  0  0  0
 26 22  1  0  0  0  0
 28 35  1  0  0  0  0
 28 27  1  0  0  0  0
 29 23  1  6  0  0  0
 29 28  1  0  0  0  0
 29 30  1  0  0  0  0
 30 31  1  0  0  0  0
 30 32  1  0  0  0  0
 33 32  1  0  0  0  0
 34 32  1  0  0  0  0
 35 34  1  0  0  0  0
M  END
>  <minimizedAffinity>
-5.57534981

$$$$

 OpenBabel03272510123D

 35 38  0  0  1  0  0  0  0  0999 V2000
   35.5780   29.2640   34.0010 C   0  0  0  0  0  0  0  0  0  0  0  0
   36.4160   28.2520   34.3080 C   0  0  0  0  0  0  0  0  0  0  0  0
   36.8930   27.3170   33.4120 C   0  0  0  0  0  0  0  0  0  0  0  0
   36.5100   27.3880   32.1000 C   0  0  0  0  0  0  0  0  0  0  0  0
   35.6380   28.4390   31.7740 C   0  0  0  0  0  0  0  0  0  0  0  0
   35.2040   29.3250   32.6940 N   0  0  0  0  0  0  0  0  0  0  0  0
   36.7720   28.1130   35.3180 H   0  0  0  0  0  0  0  0  0  0  0  0
   37.5640   26.5050   33.6560 H   0  0  0  0  0  0  0  0  0  0  0  0
   35.2990   28.5490   30.7450 H   0  0  0  0  0  0  0  0  0  0  0  0
   35.9200   31.1360   35.6530 C   0  0  0  0  0  0  0  0  0  0  0  0
   35.0880   30.2280   34.9390 C   0  0  0  0  0  0  0  0  0  0  0  0
   33.7450   30.3260   35.2030 C   0  0  0  0  0  0  0  0  0  0  0  0
   33.2850   31.2510   36.1020 N   0  0  0  0  0  0  0  0  0  0  0  0
   34.1280   32.0820   36.7440 C   0  0  0  0  0  0  0  0  0  0  0  0
   35.4520   32.0300   36.5260 N   0  0  0  0  0  0  0  0  0  0  0  0
   36.9830   31.0860   35.4690 H   0  0  0  0  0  0  0  0  0  0  0  0
   33.0520   29.6570   34.6870 H   0  0  0  0  0  0  0  0  0  0  0  0
   33.6230   32.7550   37.4220 H   0  0  0  0  0  0  0  0  0  0  0  0
   36.8820   26.5470   31.0570 O   0  0  0  0  0  0  0  0  0  0  0  0
   36.8780   25.1620   31.1900 C   0  0  0  0  0  0  0  0  0  0  0  0
   37.9600   24.5410   30.5670 C   0  0  0  0  0  0  0  0  0  0  0  0
   37.8140   23.1720   30.7870 C   0  0  0  0  0  0  0  0  0  0  0  0
   36.6940   23.0160   31.5070 N   0  0  0  0  0  0  0  0  0  0  0  0
   36.1550   24.1850   31.7360 N   0  0  0  0  0  0  0  0  0  0  0  0
   38.8280   24.8600   29.9910 H   0  0  0  0  0  0  0  0  0  0  0  0
   38.4280   22.3360   30.4780 H   0  0  0  0  0  0  0  0  0  0  0  0
   37.4380   20.3580   31.2490 H   0  0  0  0  0  0  0  0  0  0  0  0
   36.4350   20.6580   31.1360 N   0  0  0  0  0  0  0  0  0  0  0  0
   36.1240   21.7940   31.9810 C   0  0  1  0  0  3  0  0  0  0  0  0
   36.5430   21.4040   33.3720 C   0  0  0  0  0  3  0  0  0  0  0  0
   36.5280   22.2200   34.0980 H   0  0  0  0  0  0  0  0  0  0  0  0
   35.6070   20.3980   33.8170 N   0  0  0  0  0  0  0  0  0  0  0  0
   34.7190   20.8050   34.1790 H   0  0  0  0  0  0  0  0  0  0  0  0
   35.4380   19.2940   32.9350 C   0  0  0  0  0  2  0  0  0  0  0  0
   35.5280   19.5820   31.4780 C   0  0  0  0  0  2  0  0  0  0  0  0
  1  2  1  0  0  0  0
  1 11  1  0  0  0  0
  2  7  1  0  0  0  0
  3  8  1  0  0  0  0
  3  2  2  0  0  0  0
  4  3  1  0  0  0  0
  5  4  2  0  0  0  0
  5  6  1  0  0  0  0
  6  1  2  0  0  0  0
  9  5  1  0  0  0  0
 10 15  1  0  0  0  0
 11 12  1  0  0  0  0
 11 10  2  0  0  0  0
 12 13  2  0  0  0  0
 13 14  1  0  0  0  0
 14 18  1  0  0  0  0
 15 14  2  0  0  0  0
 16 10  1  0  0  0  0
 17 12  1  0  0  0  0
 19 20  1  0  0  0  0
 19  4  1  0  0  0  0
 20 24  2  0  0  0  0
 21 22  2  0  0  0  0
 21 20  1  0  0  0  0
 22 23  1  0  0  0  0
 23 24  1  0  0  0  0
 25 21  1  0  0  0  0
 26 22  1  0  0  0  0
 28 27  1  0  0  0  0
 28 35  1  0  0  0  0
 28 29  1  0  0  0  0
 29 23  1  6  0  0  0
 29 30  1  0  0  0  0
 30 32  1  0  0  0  0
 30 31  1  0  0  0  0
 32 33  1  0  0  0  0
 34 32  1  0  0  0  0
 35 34  1  0  0  0  0
M  END
>  <minimizedAffinity>
-5.56501961

$$$$

 OpenBabel03272510123D

 35 38  0  0  1  0  0  0  0  0999 V2000
   36.2840   22.9530   31.9510 C   0  0  0  0  0  0  0  0  0  0  0  0
   35.5110   23.8310   31.2770 C   0  0  0  0  0  0  0  0  0  0  0  0
   35.7700   25.1800   31.1490 C   0  0  0  0  0  0  0  0  0  0  0  0
   36.8880   25.7080   31.7360 C   0  0  0  0  0  0  0  0  0  0  0  0
   37.6960   24.8000   32.4390 C   0  0  0  0  0  0  0  0  0  0  0  0
   37.3920   23.4890   32.5300 N   0  0  0  0  0  0  0  0  0  0  0  0
   34.6080   23.5080   30.7810 H   0  0  0  0  0  0  0  0  0  0  0  0
   35.1520   25.8860   30.6100 H   0  0  0  0  0  0  0  0  0  0  0  0
   38.6000   25.1600   32.9270 H   0  0  0  0  0  0  0  0  0  0  0  0
   36.0080   20.6410   30.9860 C   0  0  0  0  0  0  0  0  0  0  0  0
   36.0060   21.5540   32.0780 C   0  0  0  0  0  0  0  0  0  0  0  0
   35.7130   21.0090   33.3020 C   0  0  0  0  0  0  0  0  0  0  0  0
   35.4480   19.6700   33.4150 N   0  0  0  0  0  0  0  0  0  0  0  0
   35.4670   18.8600   32.3390 C   0  0  0  0  0  0  0  0  0  0  0  0
   35.7470   19.3390   31.1160 N   0  0  0  0  0  0  0  0  0  0  0  0
   36.2350   21.0370   30.0070 H   0  0  0  0  0  0  0  0  0  0  0  0
   35.6940   21.6570   34.1820 H   0  0  0  0  0  0  0  0  0  0  0  0
   35.2380   17.8320   32.5800 H   0  0  0  0  0  0  0  0  0  0  0  0
   37.3160   27.0310   31.7190 O   0  0  0  0  0  0  0  0  0  0  0  0
   36.6080   28.0440   32.3590 C   0  0  0  0  0  0  0  0  0  0  0  0
   36.0560   28.9760   31.4820 C   0  0  0  0  0  0  0  0  0  0  0  0
   35.3870   29.9140   32.2650 C   0  0  0  0  0  0  0  0  0  0  0  0
   35.5490   29.5340   33.5410 N   0  0  0  0  0  0  0  0  0  0  0  0
   36.2640   28.4400   33.5840 N   0  0  0  0  0  0  0  0  0  0  0  0
   36.0320   29.1250   30.4020 H   0  0  0  0  0  0  0  0  0  0  0  0
   34.8260   30.7980   31.9890 H   0  0  0  0  0  0  0  0  0  0  0  0
   35.4220   32.1870   34.3360 H   0  0  0  0  0  0  0  0  0  0  0  0
   35.7160   31.4290   35.0060 N   0  0  0  0  0  0  0  0  0  0  0  0
   35.0460   30.1770   34.7140 C   0  0  1  0  0  3  0  0  0  0  0  0
   33.5750   30.4910   34.6770 C   0  0  0  0  0  3  0  0  0  0  0  0
   32.9450   29.6810   34.3020 H   0  0  0  0  0  0  0  0  0  0  0  0
   33.1790   30.7660   36.0380 N   0  0  0  0  0  0  0  0  0  0  0  0
   32.9980   29.9010   36.5890 H   0  0  0  0  0  0  0  0  0  0  0  0
   33.9610   31.7460   36.7110 C   0  0  0  0  0  2  0  0  0  0  0  0
   35.4080   31.7950   36.3730 C   0  0  0  0  0  2  0  0  0  0  0  0
  1 11  1  0  0  0  0
  1  6  1  0  0  0  0
  2  1  2  0  0  0  0
  3  2  1  0  0  0  0
  3  4  2  0  0  0  0
  4  5  1  0  0  0  0
  5  6  2  0  0  0  0
  5  9  1  0  0  0  0
  7  2  1  0  0  0  0
  8  3  1  0  0  0  0
 10 15  2  0  0  0  0
 10 11  1  0  0  0  0
 11 12  2  0  0  0  0
 12 13  1  0  0  0  0
 12 17  1  0  0  0  0
 14 18  1  0  0  0  0
 14 13  2  0  0  0  0
 15 14  1  0  0  0  0
 16 10  1  0  0  0  0
 19  4  1  0  0  0  0
 19 20  1  0  0  0  0
 20 24  2  0  0  0  0
 21 22  2  0  0  0  0
 21 20  1  0  0  0  0
 22 23  1  0  0  0  0
 23 24  1  0  0  0  0
 25 21  1  0  0  0  0
 26 22  1  0  0  0  0
 27 28  1  0  0  0  0
 28 35  1  0  0  0  0
 29 23  1  6  0  0  0
 29 28  1  0  0  0  0
 30 29  1  0  0  0  0
 30 32  1  0  0  0  0
 31 30  1  0  0  0  0
 32 33  1  0  0  0  0
 32 34  1  0  0  0  0
 35 34  1  0  0  0  0
M  END
>  <minimizedAffinity>
-5.5434227

$$$$

 OpenBabel03272510123D

 35 38  0  0  1  0  0  0  0  0999 V2000
   35.5830   29.8350   34.1990 C   0  0  0  0  0  0  0  0  0  0  0  0
   35.6120   29.9970   32.8600 C   0  0  0  0  0  0  0  0  0  0  0  0
   36.1720   29.1100   31.9640 C   0  0  0  0  0  0  0  0  0  0  0  0
   36.7530   27.9620   32.4320 C   0  0  0  0  0  0  0  0  0  0  0  0
   36.7270   27.7870   33.8250 C   0  0  0  0  0  0  0  0  0  0  0  0
   36.1640   28.6910   34.6520 N   0  0  0  0  0  0  0  0  0  0  0  0
   35.1780   30.8720   32.3970 H   0  0  0  0  0  0  0  0  0  0  0  0
   36.1960   29.2380   30.8910 H   0  0  0  0  0  0  0  0  0  0  0  0
   37.1730   26.8920   34.2560 H   0  0  0  0  0  0  0  0  0  0  0  0
   33.5980   30.9680   35.2610 C   0  0  0  0  0  0  0  0  0  0  0  0
   34.9990   30.7630   35.1200 C   0  0  0  0  0  0  0  0  0  0  0  0
   35.7920   31.5270   35.9380 C   0  0  0  0  0  0  0  0  0  0  0  0
   35.2250   32.4130   36.8160 N   0  0  0  0  0  0  0  0  0  0  0  0
   33.8890   32.5570   36.8990 C   0  0  0  0  0  0  0  0  0  0  0  0
   33.0650   31.8370   36.1210 N   0  0  0  0  0  0  0  0  0  0  0  0
   32.9440   30.3830   34.6310 H   0  0  0  0  0  0  0  0  0  0  0  0
   36.8780   31.4180   35.8790 H   0  0  0  0  0  0  0  0  0  0  0  0
   33.5880   33.2910   37.6330 H   0  0  0  0  0  0  0  0  0  0  0  0
   37.3640   26.9540   31.6930 O   0  0  0  0  0  0  0  0  0  0  0  0
   36.8800   25.6500   31.6850 C   0  0  0  0  0  0  0  0  0  0  0  0
   35.6460   25.5190   31.0490 C   0  0  0  0  0  0  0  0  0  0  0  0
   35.3000   24.1710   31.1240 C   0  0  0  0  0  0  0  0  0  0  0  0
   36.2960   23.5540   31.7740 N   0  0  0  0  0  0  0  0  0  0  0  0
   37.2140   24.4280   32.0980 N   0  0  0  0  0  0  0  0  0  0  0  0
   34.9430   26.1840   30.5460 H   0  0  0  0  0  0  0  0  0  0  0  0
   34.4280   23.6420   30.7600 H   0  0  0  0  0  0  0  0  0  0  0  0
   34.5240   21.4310   31.5880 H   0  0  0  0  0  0  0  0  0  0  0  0
   35.1280   21.5660   32.4400 N   0  0  0  0  0  0  0  0  0  0  0  0
   36.4010   22.1660   32.0970 C   0  0  1  0  0  3  0  0  0  0  0  0
   36.9830   21.3100   31.0040 C   0  0  0  0  0  3  0  0  0  0  0  0
   37.8690   21.7290   30.5200 H   0  0  0  0  0  0  0  0  0  0  0  0
   37.3640   20.0600   31.6200 N   0  0  0  0  0  0  0  0  0  0  0  0
   38.2890   20.1110   32.0970 H   0  0  0  0  0  0  0  0  0  0  0  0
   36.3420   19.4180   32.3720 C   0  0  0  0  0  2  0  0  0  0  0  0
   35.3890   20.3020   33.0970 C   0  0  0  0  0  2  0  0  0  0  0  0
  1  6  1  0  0  0  0
  1 11  1  0  0  0  0
  2  1  2  0  0  0  0
  3  4  2  0  0  0  0
  3  2  1  0  0  0  0
  4  5  1  0  0  0  0
  5  9  1  0  0  0  0
  5  6  2  0  0  0  0
  7  2  1  0  0  0  0
  8  3  1  0  0  0  0
 10 15  1  0  0  0  0
 11 10  2  0  0  0  0
 11 12  1  0  0  0  0
 12 13  2  0  0  0  0
 13 14  1  0  0  0  0
 14 18  1  0  0  0  0
 15 14  2  0  0  0  0
 16 10  1  0  0  0  0
 17 12  1  0  0  0  0
 19  4  1  0  0  0  0
 20 19  1  0  0  0  0
 20 24  2  0  0  0  0
 21 22  2  0  0  0  0
 21 20  1  0  0  0  0
 22 23  1  0  0  0  0
 23 24  1  0  0  0  0
 25 21  1  0  0  0  0
 26 22  1  0  0  0  0
 27 28  1  0  0  0  0
 28 35  1  0  0  0  0
 29 23  1  6  0  0  0
 29 28  1  0  0  0  0
 30 32  1  0  0  0  0
 30 29  1  0  0  0  0
 31 30  1  0  0  0  0
 32 33  1  0  0  0  0
 32 34  1  0  0  0  0
 34 35  1  0  0  0  0
M  END
>  <minimizedAffinity>
-5.45198774

$$$$

 OpenBabel03272510123D

 35 38  0  0  1  0  0  0  0  0999 V2000
   38.0660   25.4080   35.0320 C   0  0  0  0  0  0  0  0  0  0  0  0
   37.7960   26.7190   35.2060 C   0  0  0  0  0  0  0  0  0  0  0  0
   37.2740   27.5570   34.2430 C   0  0  0  0  0  0  0  0  0  0  0  0
   36.9930   27.0570   33.0000 C   0  0  0  0  0  0  0  0  0  0  0  0
   37.2710   25.6930   32.8120 C   0  0  0  0  0  0  0  0  0  0  0  0
   37.7820   24.9220   33.7930 N   0  0  0  0  0  0  0  0  0  0  0  0
   37.9850   27.2040   36.1530 H   0  0  0  0  0  0  0  0  0  0  0  0
   37.0580   28.6080   34.3800 H   0  0  0  0  0  0  0  0  0  0  0  0
   37.0670   25.2380   31.8440 H   0  0  0  0  0  0  0  0  0  0  0  0
   38.0240   24.3600   37.3230 C   0  0  0  0  0  0  0  0  0  0  0  0
   38.6090   24.5480   36.0390 C   0  0  0  0  0  0  0  0  0  0  0  0
   39.7600   23.8390   35.8060 C   0  0  0  0  0  0  0  0  0  0  0  0
   40.2720   23.0180   36.7750 N   0  0  0  0  0  0  0  0  0  0  0  0
   39.6680   22.8850   37.9710 C   0  0  0  0  0  0  0  0  0  0  0  0
   38.5400   23.5560   38.2550 N   0  0  0  0  0  0  0  0  0  0  0  0
   37.1170   24.9040   37.5410 H   0  0  0  0  0  0  0  0  0  0  0  0
   40.2590   23.9380   34.8390 H   0  0  0  0  0  0  0  0  0  0  0  0
   40.1860   22.2060   38.6330 H   0  0  0  0  0  0  0  0  0  0  0  0
   36.4660   27.7370   31.9070 O   0  0  0  0  0  0  0  0  0  0  0  0
   35.4750   28.7030   32.0470 C   0  0  0  0  0  0  0  0  0  0  0  0
   35.6630   29.8150   31.2270 C   0  0  0  0  0  0  0  0  0  0  0  0
   34.6020   30.6820   31.4800 C   0  0  0  0  0  0  0  0  0  0  0  0
   33.8360   30.0900   32.4080 N   0  0  0  0  0  0  0  0  0  0  0  0
   34.3560   28.9340   32.7320 N   0  0  0  0  0  0  0  0  0  0  0  0
   36.3990   30.1350   30.4880 H   0  0  0  0  0  0  0  0  0  0  0  0
   34.3640   31.6520   31.0630 H   0  0  0  0  0  0  0  0  0  0  0  0
   31.3290   28.9770   32.8060 H   0  0  0  0  0  0  0  0  0  0  0  0
   31.4390   29.9630   32.4530 N   0  0  0  0  0  0  0  0  0  0  0  0
   32.6310   30.5880   32.9920 C   0  0  1  0  0  3  0  0  0  0  0  0
   32.5450   30.4270   34.4860 C   0  0  0  0  0  3  0  0  0  0  0  0
   33.4540   30.6990   35.0270 H   0  0  0  0  0  0  0  0  0  0  0  0
   31.4850   31.3000   34.9330 N   0  0  0  0  0  0  0  0  0  0  0  0
   31.7950   32.2890   35.0400 H   0  0  0  0  0  0  0  0  0  0  0  0
   30.2410   31.1360   34.2630 C   0  0  0  0  0  2  0  0  0  0  0  0
   30.3000   30.7780   32.8210 C   0  0  0  0  0  2  0  0  0  0  0  0
  1  2  1  0  0  0  0
  1 11  1  0  0  0  0
  2  7  1  0  0  0  0
  3  8  1  0  0  0  0
  3  2  2  0  0  0  0
  4  3  1  0  0  0  0
  5  4  2  0  0  0  0
  5  6  1  0  0  0  0
  6  1  2  0  0  0  0
  9  5  1  0  0  0  0
 10 16  1  0  0  0  0
 10 15  1  0  0  0  0
 11 10  2  0  0  0  0
 12 11  1  0  0  0  0
 12 13  2  0  0  0  0
 13 14  1  0  0  0  0
 14 15  2  0  0  0  0
 14 18  1  0  0  0  0
 17 12  1  0  0  0  0
 19 20  1  0  0  0  0
 19  4  1  0  0  0  0
 20 24  2  0  0  0  0
 21 22  2  0  0  0  0
 21 20  1  0  0  0  0
 22 23  1  0  0  0  0
 23 24  1  0  0  0  0
 25 21  1  0  0  0  0
 26 22  1  0  0  0  0
 28 27  1  0  0  0  0
 28 35  1  0  0  0  0
 28 29  1  0  0  0  0
 29 23  1  6  0  0  0
 29 30  1  0  0  0  0
 30 32  1  0  0  0  0
 30 31  1  0  0  0  0
 32 33  1  0  0  0  0
 34 32  1  0  0  0  0
 35 34  1  0  0  0  0
M  END
>  <minimizedAffinity>
-5.44156933

$$$$

 OpenBabel03272510123D

 35 38  0  0  1  0  0  0  0  0999 V2000
   38.3140   25.5200   35.4390 C   0  0  0  0  0  0  0  0  0  0  0  0
   38.1800   26.7910   35.8740 C   0  0  0  0  0  0  0  0  0  0  0  0
   37.5480   27.8040   35.1820 C   0  0  0  0  0  0  0  0  0  0  0  0
   37.0020   27.5390   33.9550 C   0  0  0  0  0  0  0  0  0  0  0  0
   37.1380   26.2190   33.4970 C   0  0  0  0  0  0  0  0  0  0  0  0
   37.7670   25.2690   34.2190 N   0  0  0  0  0  0  0  0  0  0  0  0
   38.5790   27.0950   36.8300 H   0  0  0  0  0  0  0  0  0  0  0  0
   37.4400   28.8230   35.5280 H   0  0  0  0  0  0  0  0  0  0  0  0
   36.7230   25.9470   32.5280 H   0  0  0  0  0  0  0  0  0  0  0  0
   38.5220   23.9750   37.4190 C   0  0  0  0  0  0  0  0  0  0  0  0
   38.9720   24.4760   36.1650 C   0  0  0  0  0  0  0  0  0  0  0  0
   40.1090   23.8900   35.6690 C   0  0  0  0  0  0  0  0  0  0  0  0
   40.7320   22.8920   36.3710 N   0  0  0  0  0  0  0  0  0  0  0  0
   40.2520   22.4640   37.5540 C   0  0  0  0  0  0  0  0  0  0  0  0
   39.1440   23.0020   38.0870 N   0  0  0  0  0  0  0  0  0  0  0  0
   37.6290   24.4150   37.8390 H   0  0  0  0  0  0  0  0  0  0  0  0
   40.5080   24.2300   34.7100 H   0  0  0  0  0  0  0  0  0  0  0  0
   40.8470   21.6740   37.9910 H   0  0  0  0  0  0  0  0  0  0  0  0
   36.3310   28.4200   33.1130 O   0  0  0  0  0  0  0  0  0  0  0  0
   35.3900   29.3260   33.5920 C   0  0  0  0  0  0  0  0  0  0  0  0
   35.6080   30.6330   33.1610 C   0  0  0  0  0  0  0  0  0  0  0  0
   34.5950   31.4110   33.7190 C   0  0  0  0  0  0  0  0  0  0  0  0
   33.8280   30.5830   34.4400 N   0  0  0  0  0  0  0  0  0  0  0  0
   34.3020   29.3660   34.3600 N   0  0  0  0  0  0  0  0  0  0  0  0
   36.3370   31.1460   32.5330 H   0  0  0  0  0  0  0  0  0  0  0  0
   34.3920   32.4720   33.6410 H   0  0  0  0  0  0  0  0  0  0  0  0
   31.1120   30.3690   33.9250 H   0  0  0  0  0  0  0  0  0  0  0  0
   31.5180   31.2330   34.3730 N   0  0  0  0  0  0  0  0  0  0  0  0
   32.6630   30.9110   35.2010 C   0  0  1  0  0  3  0  0  0  0  0  0
   32.2040   29.8310   36.1440 C   0  0  0  0  0  3  0  0  0  0  0  0
   33.0030   29.3620   36.7220 H   0  0  0  0  0  0  0  0  0  0  0  0
   31.2930   30.4570   37.0730 N   0  0  0  0  0  0  0  0  0  0  0  0
   31.7830   30.9510   37.8490 H   0  0  0  0  0  0  0  0  0  0  0  0
   30.2300   31.1930   36.4780 C   0  0  0  0  0  2  0  0  0  0  0  0
   30.5350   31.8970   35.2040 C   0  0  0  0  0  2  0  0  0  0  0  0
  1  2  1  0  0  0  0
  1 11  1  0  0  0  0
  2  7  1  0  0  0  0
  3  8  1  0  0  0  0
  3  2  2  0  0  0  0
  4  3  1  0  0  0  0
  5  4  2  0  0  0  0
  5  6  1  0  0  0  0
  6  1  2  0  0  0  0
  9  5  1  0  0  0  0
 10 16  1  0  0  0  0
 10 15  1  0  0  0  0
 11 10  2  0  0  0  0
 12 11  1  0  0  0  0
 12 13  2  0  0  0  0
 13 14  1  0  0  0  0
 14 18  1  0  0  0  0
 14 15  2  0  0  0  0
 17 12  1  0  0  0  0
 19 20  1  0  0  0  0
 19  4  1  0  0  0  0
 20 24  2  0  0  0  0
 21 20  1  0  0  0  0
 21 22  2  0  0  0  0
 22 23  1  0  0  0  0
 24 23  1  0  0  0  0
 25 21  1  0  0  0  0
 26 22  1  0  0  0  0
 27 28  1  0  0  0  0
 28 29  1  0  0  0  0
 28 35  1  0  0  0  0
 29 23  1  6  0  0  0
 29 30  1  0  0  0  0
 30 31  1  0  0  0  0
 30 32  1  0  0  0  0
 32 33  1  0  0  0  0
 34 32  1  0  0  0  0
 35 34  1  0  0  0  0
M  END
>  <minimizedAffinity>
-5.41779852

$$$$

 OpenBabel03272510123D

 35 38  0  0  1  0  0  0  0  0999 V2000
   36.1520   23.0240   31.8950 C   0  0  0  0  0  0  0  0  0  0  0  0
   35.3690   23.8350   31.1550 C   0  0  0  0  0  0  0  0  0  0  0  0
   35.5590   25.1920   30.9920 C   0  0  0  0  0  0  0  0  0  0  0  0
   36.6140   25.8010   31.6160 C   0  0  0  0  0  0  0  0  0  0  0  0
   37.4340   24.9630   32.3880 C   0  0  0  0  0  0  0  0  0  0  0  0
   37.1980   23.6400   32.5100 N   0  0  0  0  0  0  0  0  0  0  0  0
   34.5110   23.4470   30.6260 H   0  0  0  0  0  0  0  0  0  0  0  0
   34.9310   25.8440   30.4000 H   0  0  0  0  0  0  0  0  0  0  0  0
   38.2910   25.3890   32.9080 H   0  0  0  0  0  0  0  0  0  0  0  0
   35.9810   20.6810   30.9860 C   0  0  0  0  0  0  0  0  0  0  0  0
   35.9460   21.6170   32.0570 C   0  0  0  0  0  0  0  0  0  0  0  0
   35.6940   21.0860   33.2960 C   0  0  0  0  0  0  0  0  0  0  0  0
   35.4970   19.7380   33.4420 N   0  0  0  0  0  0  0  0  0  0  0  0
   35.5440   18.9060   32.3840 C   0  0  0  0  0  0  0  0  0  0  0  0
   35.7850   19.3710   31.1480 N   0  0  0  0  0  0  0  0  0  0  0  0
   36.1760   21.0650   29.9950 H   0  0  0  0  0  0  0  0  0  0  0  0
   35.6540   21.7520   34.1620 H   0  0  0  0  0  0  0  0  0  0  0  0
   35.3690   17.8730   32.6510 H   0  0  0  0  0  0  0  0  0  0  0  0
   36.9690   27.1450   31.5740 O   0  0  0  0  0  0  0  0  0  0  0  0
   36.0390   28.1600   31.7780 C   0  0  0  0  0  0  0  0  0  0  0  0
   36.2440   29.2720   30.9620 C   0  0  0  0  0  0  0  0  0  0  0  0
   35.2450   30.1900   31.2820 C   0  0  0  0  0  0  0  0  0  0  0  0
   34.4970   29.6250   32.2410 N   0  0  0  0  0  0  0  0  0  0  0  0
   34.9710   28.4390   32.5230 N   0  0  0  0  0  0  0  0  0  0  0  0
   36.9560   29.5650   30.1900 H   0  0  0  0  0  0  0  0  0  0  0  0
   35.0370   31.1770   30.8890 H   0  0  0  0  0  0  0  0  0  0  0  0
   32.1320   28.5140   33.1660 H   0  0  0  0  0  0  0  0  0  0  0  0
   32.1380   29.4260   32.6390 N   0  0  0  0  0  0  0  0  0  0  0  0
   33.3520   30.1760   32.8940 C   0  0  1  0  0  3  0  0  0  0  0  0
   33.4710   30.2780   34.3910 C   0  0  0  0  0  3  0  0  0  0  0  0
   34.4260   30.6720   34.7460 H   0  0  0  0  0  0  0  0  0  0  0  0
   32.4300   31.1790   34.8260 N   0  0  0  0  0  0  0  0  0  0  0  0
   32.6930   32.1820   34.7190 H   0  0  0  0  0  0  0  0  0  0  0  0
   31.1200   30.8580   34.3720 C   0  0  0  0  0  2  0  0  0  0  0  0
   31.0110   30.2530   33.0180 C   0  0  0  0  0  2  0  0  0  0  0  0
  1 11  1  0  0  0  0
  1  6  1  0  0  0  0
  2  1  2  0  0  0  0
  3  2  1  0  0  0  0
  3  4  2  0  0  0  0
  4  5  1  0  0  0  0
  5  6  2  0  0  0  0
  5  9  1  0  0  0  0
  7  2  1  0  0  0  0
  8  3  1  0  0  0  0
 10 15  2  0  0  0  0
 10 11  1  0  0  0  0
 11 12  2  0  0  0  0
 12 13  1  0  0  0  0
 12 17  1  0  0  0  0
 14 18  1  0  0  0  0
 14 13  2  0  0  0  0
 15 14  1  0  0  0  0
 16 10  1  0  0  0  0
 19  4  1  0  0  0  0
 19 20  1  0  0  0  0
 20 24  2  0  0  0  0
 21 22  2  0  0  0  0
 21 20  1  0  0  0  0
 22 23  1  0  0  0  0
 23 24  1  0  0  0  0
 25 21  1  0  0  0  0
 26 22  1  0  0  0  0
 28 29  1  0  0  0  0
 28 35  1  0  0  0  0
 28 27  1  0  0  0  0
 29 23  1  1  0  0  0
 29 30  1  0  0  0  0
 30 31  1  0  0  0  0
 30 32  1  0  0  0  0
 33 32  1  0  0  0  0
 34 32  1  0  0  0  0
 35 34  1  0  0  0  0
M  END
>  <minimizedAffinity>
-5.38150644

$$$$

 OpenBabel03272510123D

 35 38  0  0  1  0  0  0  0  0999 V2000
   39.3410   25.1280   34.6860 C   0  0  0  0  0  0  0  0  0  0  0  0
   39.9290   26.3240   34.4770 C   0  0  0  0  0  0  0  0  0  0  0  0
   39.5290   27.2520   33.5380 C   0  0  0  0  0  0  0  0  0  0  0  0
   38.4550   26.9750   32.7360 C   0  0  0  0  0  0  0  0  0  0  0  0
   37.8390   25.7310   32.9470 C   0  0  0  0  0  0  0  0  0  0  0  0
   38.2750   24.8630   33.8820 N   0  0  0  0  0  0  0  0  0  0  0  0
   40.7830   26.6320   35.0620 H   0  0  0  0  0  0  0  0  0  0  0  0
   39.9990   28.2110   33.3690 H   0  0  0  0  0  0  0  0  0  0  0  0
   36.9790   25.4540   32.3390 H   0  0  0  0  0  0  0  0  0  0  0  0
   41.0410   23.5420   35.6580 C   0  0  0  0  0  0  0  0  0  0  0  0
   39.7650   24.1710   35.6630 C   0  0  0  0  0  0  0  0  0  0  0  0
   38.9300   23.8020   36.6870 C   0  0  0  0  0  0  0  0  0  0  0  0
   39.3430   22.8860   37.6180 N   0  0  0  0  0  0  0  0  0  0  0  0
   40.5670   22.3280   37.5540 C   0  0  0  0  0  0  0  0  0  0  0  0
   41.4250   22.6510   36.5740 N   0  0  0  0  0  0  0  0  0  0  0  0
   41.7250   23.8090   34.8650 H   0  0  0  0  0  0  0  0  0  0  0  0
   37.9340   24.2490   36.7480 H   0  0  0  0  0  0  0  0  0  0  0  0
   40.7520   21.6240   38.3540 H   0  0  0  0  0  0  0  0  0  0  0  0
   37.9060   27.7760   31.7400 O   0  0  0  0  0  0  0  0  0  0  0  0
   36.6880   28.4280   31.9070 C   0  0  0  0  0  0  0  0  0  0  0  0
   36.6380   29.6780   31.2910 C   0  0  0  0  0  0  0  0  0  0  0  0
   35.3710   30.1980   31.5460 C   0  0  0  0  0  0  0  0  0  0  0  0
   34.7200   29.2820   32.2780 N   0  0  0  0  0  0  0  0  0  0  0  0
   35.5000   28.2520   32.4830 N   0  0  0  0  0  0  0  0  0  0  0  0
   37.3170   30.2940   30.7010 H   0  0  0  0  0  0  0  0  0  0  0  0
   34.9180   31.1370   31.2550 H   0  0  0  0  0  0  0  0  0  0  0  0
   33.6130   30.4930   34.5120 H   0  0  0  0  0  0  0  0  0  0  0  0
   33.3360   29.5180   34.2250 N   0  0  0  0  0  0  0  0  0  0  0  0
   33.3860   29.3560   32.7850 C   0  0  1  0  0  3  0  0  0  0  0  0
   32.5570   30.4740   32.2120 C   0  0  0  0  0  3  0  0  0  0  0  0
   32.6350   30.5890   31.1280 H   0  0  0  0  0  0  0  0  0  0  0  0
   31.1820   30.1700   32.5290 N   0  0  0  0  0  0  0  0  0  0  0  0
   30.7550   29.4890   31.8650 H   0  0  0  0  0  0  0  0  0  0  0  0
   30.9200   29.9040   33.9020 C   0  0  0  0  0  2  0  0  0  0  0  0
   31.9910   29.2090   34.6650 C   0  0  0  0  0  2  0  0  0  0  0  0
  1 11  1  0  0  0  0
  2  1  1  0  0  0  0
  2  7  1  0  0  0  0
  3  2  2  0  0  0  0
  4  5  2  0  0  0  0
  4  3  1  0  0  0  0
  5  6  1  0  0  0  0
  6  1  2  0  0  0  0
  8  3  1  0  0  0  0
  9  5  1  0  0  0  0
 10 11  2  0  0  0  0
 10 15  1  0  0  0  0
 11 12  1  0  0  0  0
 12 17  1  0  0  0  0
 12 13  2  0  0  0  0
 14 13  1  0  0  0  0
 14 18  1  0  0  0  0
 15 14  2  0  0  0  0
 16 10  1  0  0  0  0
 19 20  1  0  0  0  0
 19  4  1  0  0  0  0
 20 24  2  0  0  0  0
 21 22  2  0  0  0  0
 21 20  1  0  0  0  0
 22 23  1  0  0  0  0
 23 24  1  0  0  0  0
 25 21  1  0  0  0  0
 26 22  1  0  0  0  0
 28 27  1  0  0  0  0
 28 35  1  0  0  0  0
 29 23  1  6  0  0  0
 29 28  1  0  0  0  0
 30 32  1  0  0  0  0
 30 29  1  0  0  0  0
 31 30  1  0  0  0  0
 32 34  1  0  0  0  0
 33 32  1  0  0  0  0
 34 35  1  0  0  0  0
M  END
>  <minimizedAffinity>
-5.28598881

$$$$

 OpenBabel03272510123D

 35 38  0  0  1  0  0  0  0  0999 V2000
   35.6470   29.7940   34.2950 C   0  0  0  0  0  0  0  0  0  0  0  0
   35.6870   29.8070   32.9470 C   0  0  0  0  0  0  0  0  0  0  0  0
   36.2960   28.8500   32.1610 C   0  0  0  0  0  0  0  0  0  0  0  0
   36.9190   27.7880   32.7590 C   0  0  0  0  0  0  0  0  0  0  0  0
   36.8820   27.7690   34.1630 C   0  0  0  0  0  0  0  0  0  0  0  0
   36.2700   28.7350   34.8790 N   0  0  0  0  0  0  0  0  0  0  0  0
   35.2230   30.6050   32.3850 H   0  0  0  0  0  0  0  0  0  0  0  0
   36.3290   28.8590   31.0800 H   0  0  0  0  0  0  0  0  0  0  0  0
   37.3600   26.9490   34.6960 H   0  0  0  0  0  0  0  0  0  0  0  0
   33.6390   31.1480   34.9900 C   0  0  0  0  0  0  0  0  0  0  0  0
   35.0130   30.7930   35.1010 C   0  0  0  0  0  0  0  0  0  0  0  0
   35.7250   31.4800   36.0510 C   0  0  0  0  0  0  0  0  0  0  0  0
   35.1100   32.4350   36.8170 N   0  0  0  0  0  0  0  0  0  0  0  0
   33.8040   32.7220   36.6610 C   0  0  0  0  0  0  0  0  0  0  0  0
   33.0580   32.0820   35.7460 N   0  0  0  0  0  0  0  0  0  0  0  0
   33.0480   30.6270   34.2510 H   0  0  0  0  0  0  0  0  0  0  0  0
   36.7860   31.2550   36.1870 H   0  0  0  0  0  0  0  0  0  0  0  0
   33.4580   33.4950   37.3330 H   0  0  0  0  0  0  0  0  0  0  0  0
   37.5820   26.7320   32.1440 O   0  0  0  0  0  0  0  0  0  0  0  0
   37.9640   25.5930   32.8450 C   0  0  0  0  0  0  0  0  0  0  0  0
   37.2580   24.4490   32.4750 C   0  0  0  0  0  0  0  0  0  0  0  0
   37.7500   23.4060   33.2580 C   0  0  0  0  0  0  0  0  0  0  0  0
   38.7000   23.9310   34.0430 N   0  0  0  0  0  0  0  0  0  0  0  0
   38.8180   25.2090   33.7940 N   0  0  0  0  0  0  0  0  0  0  0  0
   36.4660   24.2060   31.7660 H   0  0  0  0  0  0  0  0  0  0  0  0
   37.4800   22.3580   33.2920 H   0  0  0  0  0  0  0  0  0  0  0  0
   40.3180   24.8270   36.1090 H   0  0  0  0  0  0  0  0  0  0  0  0
   40.6260   24.0460   35.4730 N   0  0  0  0  0  0  0  0  0  0  0  0
   39.4980   23.2570   35.0200 C   0  0  1  0  0  3  0  0  0  0  0  0
   38.7540   22.8430   36.2610 C   0  0  0  0  0  3  0  0  0  0  0  0
   37.7810   22.3820   36.0760 H   0  0  0  0  0  0  0  0  0  0  0  0
   39.5840   21.8720   36.9340 N   0  0  0  0  0  0  0  0  0  0  0  0
   39.4890   20.9140   36.5360 H   0  0  0  0  0  0  0  0  0  0  0  0
   40.9250   22.2840   37.1750 C   0  0  0  0  0  2  0  0  0  0  0  0
   41.5510   23.1590   36.1480 C   0  0  0  0  0  2  0  0  0  0  0  0
  1  6  1  0  0  0  0
  1 11  1  0  0  0  0
  2  1  2  0  0  0  0
  3  4  2  0  0  0  0
  3  2  1  0  0  0  0
  4  5  1  0  0  0  0
  5  9  1  0  0  0  0
  5  6  2  0  0  0  0
  7  2  1  0  0  0  0
  8  3  1  0  0  0  0
 10 11  2  0  0  0  0
 10 15  1  0  0  0  0
 11 12  1  0  0  0  0
 12 17  1  0  0  0  0
 12 13  2  0  0  0  0
 14 13  1  0  0  0  0
 14 18  1  0  0  0  0
 15 14  2  0  0  0  0
 16 10  1  0  0  0  0
 19  4  1  0  0  0  0
 19 20  1  0  0  0  0
 20 24  2  0  0  0  0
 21 20  1  0  0  0  0
 21 22  2  0  0  0  0
 22 26  1  0  0  0  0
 22 23  1  0  0  0  0
 24 23  1  0  0  0  0
 25 21  1  0  0  0  0
 28 27  1  0  0  0  0
 28 35  1  0  0  0  0
 29 23  1  6  0  0  0
 29 28  1  0  0  0  0
 29 30  1  0  0  0  0
 30 32  1  0  0  0  0
 31 30  1  0  0  0  0
 32 34  1  0  0  0  0
 33 32  1  0  0  0  0
 35 34  1  0  0  0  0
M  END
>  <minimizedAffinity>
-5.25152349

$$$$
