
 OpenBabel03272510143D

 41 44  0  0  0  0  0  0  0  0999 V2000
   37.2810   25.1930   32.0250 C   0  0  0  0  0  0  0  0  0  0  0  0
   36.3570   24.1990   31.6940 C   0  0  0  0  0  0  0  0  0  0  0  0
   36.7690   23.0150   32.2850 C   0  0  0  0  0  0  0  0  0  0  0  0
   37.9070   23.3020   32.9470 N   0  0  0  0  0  0  0  0  0  0  0  0
   38.1990   24.5740   32.7920 N   0  0  0  0  0  0  0  0  0  0  0  0
   35.4390   24.1720   31.1030 H   0  0  0  0  0  0  0  0  0  0  0  0
   36.3100   22.0210   32.2560 H   0  0  0  0  0  0  0  0  0  0  0  0
   38.7190   22.3750   33.7400 C   0  0  0  0  0  0  0  0  0  0  0  0
   39.0390   21.5150   33.1700 H   0  0  0  0  0  0  0  0  0  0  0  0
   39.6230   23.0000   34.0190 H   0  0  0  0  0  0  0  0  0  0  0  0
   37.9930   22.1310   35.0190 C   0  0  0  0  0  0  0  0  0  0  0  0
   36.9030   21.9530   34.8720 H   0  0  0  0  0  0  0  0  0  0  0  0
   38.3450   21.2110   35.5590 H   0  0  0  0  0  0  0  0  0  0  0  0
   38.2000   23.2670   35.9090 N   0  0  0  0  0  0  0  0  0  0  0  0
   37.4190   23.0600   37.1420 C   0  0  0  0  0  3  0  0  0  0  0  0
   37.1810   22.0110   37.2980 H   0  0  0  0  0  0  0  0  0  0  0  0
   38.1340   23.6950   38.3220 C   0  0  0  0  0  3  0  0  0  0  0  0
   37.4470   23.5990   39.1850 H   0  0  0  0  0  0  0  0  0  0  0  0
   39.3450   22.9430   38.6450 N   0  0  0  0  0  0  0  0  0  0  0  0
   39.1560   22.1630   39.3180 H   0  0  0  0  0  0  0  0  0  0  0  0
   39.9750   22.4570   37.4300 C   0  0  0  0  0  2  0  0  0  0  0  0
   39.6130   23.3770   36.2740 C   0  0  0  0  0  2  0  0  0  0  0  0
   36.9990   26.4310   31.5030 O   0  0  0  0  0  0  0  0  0  0  0  0
   35.4840   29.4150   34.0770 C   0  0  0  0  0  0  0  0  0  0  0  0
   35.1210   29.3550   32.7720 C   0  0  0  0  0  0  0  0  0  0  0  0
   35.5680   28.4190   31.8730 C   0  0  0  0  0  0  0  0  0  0  0  0
   36.4440   27.4520   32.2680 C   0  0  0  0  0  0  0  0  0  0  0  0
   36.8280   27.5010   33.6180 C   0  0  0  0  0  0  0  0  0  0  0  0
   36.3690   28.4360   34.4720 N   0  0  0  0  0  0  0  0  0  0  0  0
   34.4200   30.0930   32.3660 H   0  0  0  0  0  0  0  0  0  0  0  0
   35.2700   28.3820   30.8280 H   0  0  0  0  0  0  0  0  0  0  0  0
   37.5230   26.7650   34.0050 H   0  0  0  0  0  0  0  0  0  0  0  0
   35.8770   31.2680   35.6850 C   0  0  0  0  0  0  0  0  0  0  0  0
   35.0310   30.3870   35.0070 C   0  0  0  0  0  0  0  0  0  0  0  0
   33.6870   30.4930   35.2900 C   0  0  0  0  0  0  0  0  0  0  0  0
   33.2400   31.4270   36.1960 N   0  0  0  0  0  0  0  0  0  0  0  0
   34.1390   32.2540   36.8170 C   0  0  0  0  0  0  0  0  0  0  0  0
   35.4580   32.1870   36.5720 N   0  0  0  0  0  0  0  0  0  0  0  0
   36.9390   31.2280   35.5010 H   0  0  0  0  0  0  0  0  0  0  0  0
   32.9840   29.8320   34.7880 H   0  0  0  0  0  0  0  0  0  0  0  0
   33.6090   32.9330   37.5050 H   0  0  0  0  0  0  0  0  0  0  0  0
  1  5  2  0  0  0  0
  2  1  1  0  0  0  0
  2  3  2  0  0  0  0
  3  4  1  0  0  0  0
  4  8  1  0  0  0  0
  5  4  1  0  0  0  0
  6  2  1  0  0  0  0
  7  3  1  0  0  0  0
  8 10  1  0  0  0  0
  8 11  1  0  0  0  0
  9  8  1  0  0  0  0
 11 13  1  0  0  0  0
 11 14  1  0  0  0  0
 12 11  1  0  0  0  0
 14 22  1  0  0  0  0
 14 15  1  0  0  0  0
 15 16  1  0  0  0  0
 15 17  1  0  0  0  0
 17 19  1  0  0  0  0
 17 18  1  0  0  0  0
 19 20  1  0  0  0  0
 21 19  1  0  0  0  0
 22 21  1  0  0  0  0
 23  1  1  0  0  0  0
 23 27  1  0  0  0  0
 24 29  1  0  0  0  0
 24 34  1  0  0  0  0
 25 24  2  0  0  0  0
 26 27  2  0  0  0  0
 26 25  1  0  0  0  0
 27 28  1  0  0  0  0
 28 32  1  0  0  0  0
 28 29  2  0  0  0  0
 30 25  1  0  0  0  0
 31 26  1  0  0  0  0
 33 38  1  0  0  0  0
 34 35  1  0  0  0  0
 34 33  2  0  0  0  0
 35 36  2  0  0  0  0
 36 37  1  0  0  0  0
 37 41  1  0  0  0  0
 38 37  2  0  0  0  0
 39 33  1  0  0  0  0
 40 35  1  0  0  0  0
M  END
>  <minimizedAffinity>
-5.89179754

$$$$

 OpenBabel03272510143D

 41 44  0  0  0  0  0  0  0  0999 V2000
   36.3690   27.6080   32.4060 C   0  0  0  0  0  0  0  0  0  0  0  0
   36.7390   27.8360   33.7330 C   0  0  0  0  0  0  0  0  0  0  0  0
   35.9060   28.8160   34.2500 C   0  0  0  0  0  0  0  0  0  0  0  0
   35.0670   29.1590   33.2520 N   0  0  0  0  0  0  0  0  0  0  0  0
   35.3420   28.4500   32.1800 N   0  0  0  0  0  0  0  0  0  0  0  0
   37.5010   27.4230   34.3980 H   0  0  0  0  0  0  0  0  0  0  0  0
   35.8860   29.2610   35.2490 H   0  0  0  0  0  0  0  0  0  0  0  0
   33.9920   30.1530   33.3120 C   0  0  0  0  0  0  0  0  0  0  0  0
   34.3080   31.1240   32.9610 H   0  0  0  0  0  0  0  0  0  0  0  0
   33.2130   29.7310   32.6040 H   0  0  0  0  0  0  0  0  0  0  0  0
   33.3840   30.0690   34.6700 C   0  0  0  0  0  0  0  0  0  0  0  0
   32.4070   29.5330   34.6750 H   0  0  0  0  0  0  0  0  0  0  0  0
   34.0110   29.4920   35.4020 H   0  0  0  0  0  0  0  0  0  0  0  0
   33.2190   31.4170   35.2020 N   0  0  0  0  0  0  0  0  0  0  0  0
   32.7650   31.3280   36.6020 C   0  0  0  0  0  3  0  0  0  0  0  0
   33.0040   30.3650   37.0440 H   0  0  0  0  0  0  0  0  0  0  0  0
   33.3040   32.5040   37.3970 C   0  0  0  0  0  3  0  0  0  0  0  0
   32.8390   32.4360   38.4010 H   0  0  0  0  0  0  0  0  0  0  0  0
   34.7480   32.3740   37.5790 N   0  0  0  0  0  0  0  0  0  0  0  0
   34.9890   31.8230   38.4360 H   0  0  0  0  0  0  0  0  0  0  0  0
   35.3560   31.8020   36.3900 C   0  0  0  0  0  2  0  0  0  0  0  0
   34.4960   32.1320   35.1790 C   0  0  0  0  0  2  0  0  0  0  0  0
   37.1150   26.6530   31.7600 O   0  0  0  0  0  0  0  0  0  0  0  0
   36.2560   22.5210   31.8670 C   0  0  0  0  0  0  0  0  0  0  0  0
   35.4530   23.3940   31.2120 C   0  0  0  0  0  0  0  0  0  0  0  0
   35.6620   24.7480   31.1300 C   0  0  0  0  0  0  0  0  0  0  0  0
   36.7460   25.3120   31.7360 C   0  0  0  0  0  0  0  0  0  0  0  0
   37.5880   24.4190   32.4180 C   0  0  0  0  0  0  0  0  0  0  0  0
   37.3510   23.0950   32.4760 N   0  0  0  0  0  0  0  0  0  0  0  0
   34.5570   23.0300   30.6960 H   0  0  0  0  0  0  0  0  0  0  0  0
   35.0090   25.4380   30.6030 H   0  0  0  0  0  0  0  0  0  0  0  0
   38.4700   24.7940   32.9240 H   0  0  0  0  0  0  0  0  0  0  0  0
   35.6480   20.4720   33.1340 C   0  0  0  0  0  0  0  0  0  0  0  0
   36.0380   21.1210   31.9600 C   0  0  0  0  0  0  0  0  0  0  0  0
   36.2180   20.3230   30.8530 C   0  0  0  0  0  0  0  0  0  0  0  0
   36.0160   18.9640   30.9360 N   0  0  0  0  0  0  0  0  0  0  0  0
   35.6330   18.4070   32.1290 C   0  0  0  0  0  0  0  0  0  0  0  0
   35.4450   19.1460   33.2340 N   0  0  0  0  0  0  0  0  0  0  0  0
   35.4930   21.0500   34.0320 H   0  0  0  0  0  0  0  0  0  0  0  0
   36.5190   20.7780   29.9120 H   0  0  0  0  0  0  0  0  0  0  0  0
   35.5190   17.3170   32.0130 H   0  0  0  0  0  0  0  0  0  0  0  0
  1  2  1  0  0  0  0
  2  3  2  0  0  0  0
  2  6  1  0  0  0  0
  3  7  1  0  0  0  0
  4  8  1  0  0  0  0
  4  3  1  0  0  0  0
  5  1  2  0  0  0  0
  5  4  1  0  0  0  0
  8 11  1  0  0  0  0
  9  8  1  0  0  0  0
 10  8  1  0  0  0  0
 11 12  1  0  0  0  0
 11 14  1  0  0  0  0
 11 13  1  0  0  0  0
 14 15  1  0  0  0  0
 15 16  1  0  0  0  0
 15 17  1  0  0  0  0
 17 19  1  0  0  0  0
 17 18  1  0  0  0  0
 19 20  1  0  0  0  0
 21 19  1  0  0  0  0
 22 14  1  0  0  0  0
 22 21  1  0  0  0  0
 23  1  1  0  0  0  0
 24 34  1  0  0  0  0
 24 29  1  0  0  0  0
 25 24  2  0  0  0  0
 26 25  1  0  0  0  0
 26 27  2  0  0  0  0
 27 23  1  0  0  0  0
 27 28  1  0  0  0  0
 28 29  2  0  0  0  0
 28 32  1  0  0  0  0
 30 25  1  0  0  0  0
 31 26  1  0  0  0  0
 33 38  1  0  0  0  0
 33 39  1  0  0  0  0
 34 33  2  0  0  0  0
 35 36  2  0  0  0  0
 35 34  1  0  0  0  0
 36 37  1  0  0  0  0
 37 38  2  0  0  0  0
 40 35  1  0  0  0  0
 41 37  1  0  0  0  0
M  END
>  <minimizedAffinity>
-5.74133301

$$$$

 OpenBabel03272510143D

 41 44  0  0  0  0  0  0  0  0999 V2000
   36.0460   26.1600   31.6850 C   0  0  0  0  0  0  0  0  0  0  0  0
   35.2180   25.2450   31.0330 C   0  0  0  0  0  0  0  0  0  0  0  0
   35.6740   23.9680   31.3230 C   0  0  0  0  0  0  0  0  0  0  0  0
   36.7450   24.1260   32.1270 N   0  0  0  0  0  0  0  0  0  0  0  0
   36.9560   25.4070   32.3340 N   0  0  0  0  0  0  0  0  0  0  0  0
   34.3430   25.3290   30.3840 H   0  0  0  0  0  0  0  0  0  0  0  0
   35.2890   22.9960   30.9990 H   0  0  0  0  0  0  0  0  0  0  0  0
   37.5680   23.0650   32.7110 C   0  0  0  0  0  0  0  0  0  0  0  0
   37.0010   22.1700   32.9200 H   0  0  0  0  0  0  0  0  0  0  0  0
   38.3260   22.8490   31.8950 H   0  0  0  0  0  0  0  0  0  0  0  0
   38.3480   23.6710   33.8270 C   0  0  0  0  0  0  0  0  0  0  0  0
   39.1760   24.3270   33.4730 H   0  0  0  0  0  0  0  0  0  0  0  0
   37.7330   24.3440   34.4830 H   0  0  0  0  0  0  0  0  0  0  0  0
   38.8790   22.6050   34.6700 N   0  0  0  0  0  0  0  0  0  0  0  0
   39.9780   23.1450   35.4900 C   0  0  0  0  0  3  0  0  0  0  0  0
   39.9190   24.2250   35.5860 H   0  0  0  0  0  0  0  0  0  0  0  0
   40.0290   22.4260   36.8270 C   0  0  0  0  0  3  0  0  0  0  0  0
   40.9360   22.7990   37.3420 H   0  0  0  0  0  0  0  0  0  0  0  0
   38.8800   22.8000   37.6480 N   0  0  0  0  0  0  0  0  0  0  0  0
   39.0680   23.6540   38.2230 H   0  0  0  0  0  0  0  0  0  0  0  0
   37.7000   22.9660   36.8160 C   0  0  0  0  0  2  0  0  0  0  0  0
   37.8390   22.1030   35.5700 C   0  0  0  0  0  2  0  0  0  0  0  0
   35.7120   27.4770   31.4860 O   0  0  0  0  0  0  0  0  0  0  0  0
   34.7500   30.2340   34.5360 C   0  0  0  0  0  0  0  0  0  0  0  0
   35.8590   29.4580   34.6060 C   0  0  0  0  0  0  0  0  0  0  0  0
   36.2410   28.5400   33.6600 C   0  0  0  0  0  0  0  0  0  0  0  0
   35.4840   28.3540   32.5410 C   0  0  0  0  0  0  0  0  0  0  0  0
   34.3310   29.1520   32.4530 C   0  0  0  0  0  0  0  0  0  0  0  0
   33.9880   30.0430   33.4040 N   0  0  0  0  0  0  0  0  0  0  0  0
   36.5280   29.5400   35.4720 H   0  0  0  0  0  0  0  0  0  0  0  0
   37.1330   27.9230   33.7300 H   0  0  0  0  0  0  0  0  0  0  0  0
   33.6790   29.0590   31.5930 H   0  0  0  0  0  0  0  0  0  0  0  0
   35.2250   32.0590   36.1530 C   0  0  0  0  0  0  0  0  0  0  0  0
   34.3480   31.1770   35.5170 C   0  0  0  0  0  0  0  0  0  0  0  0
   33.0260   31.2540   35.8950 C   0  0  0  0  0  0  0  0  0  0  0  0
   32.6280   32.1600   36.8510 N   0  0  0  0  0  0  0  0  0  0  0  0
   33.5550   32.9900   37.4250 C   0  0  0  0  0  0  0  0  0  0  0  0
   34.8550   32.9520   37.0880 N   0  0  0  0  0  0  0  0  0  0  0  0
   36.2730   32.0420   35.8940 H   0  0  0  0  0  0  0  0  0  0  0  0
   32.3000   30.5910   35.4290 H   0  0  0  0  0  0  0  0  0  0  0  0
   33.0650   33.6450   38.1640 H   0  0  0  0  0  0  0  0  0  0  0  0
  1  5  2  0  0  0  0
  2  3  2  0  0  0  0
  2  1  1  0  0  0  0
  3  4  1  0  0  0  0
  4  5  1  0  0  0  0
  4  8  1  0  0  0  0
  6  2  1  0  0  0  0
  7  3  1  0  0  0  0
  8  9  1  0  0  0  0
  8 11  1  0  0  0  0
 10  8  1  0  0  0  0
 11 13  1  0  0  0  0
 11 14  1  0  0  0  0
 12 11  1  0  0  0  0
 14 15  1  0  0  0  0
 14 22  1  0  0  0  0
 15 16  1  0  0  0  0
 15 17  1  0  0  0  0
 17 18  1  0  0  0  0
 17 19  1  0  0  0  0
 19 20  1  0  0  0  0
 21 19  1  0  0  0  0
 22 21  1  0  0  0  0
 23  1  1  0  0  0  0
 23 27  1  0  0  0  0
 24 25  1  0  0  0  0
 24 34  1  0  0  0  0
 25 30  1  0  0  0  0
 26 31  1  0  0  0  0
 26 25  2  0  0  0  0
 27 26  1  0  0  0  0
 28 27  2  0  0  0  0
 28 29  1  0  0  0  0
 29 24  2  0  0  0  0
 32 28  1  0  0  0  0
 33 38  1  0  0  0  0
 34 35  1  0  0  0  0
 34 33  2  0  0  0  0
 35 36  2  0  0  0  0
 36 37  1  0  0  0  0
 37 41  1  0  0  0  0
 38 37  2  0  0  0  0
 39 33  1  0  0  0  0
 40 35  1  0  0  0  0
M  END
>  <minimizedAffinity>
-5.69853878

$$$$

 OpenBabel03272510143D

 41 44  0  0  0  0  0  0  0  0999 V2000
   35.7750   28.4470   31.8590 C   0  0  0  0  0  0  0  0  0  0  0  0
   36.1020   29.5280   31.0370 C   0  0  0  0  0  0  0  0  0  0  0  0
   35.1900   30.5440   31.2800 C   0  0  0  0  0  0  0  0  0  0  0  0
   34.3470   30.0750   32.2210 N   0  0  0  0  0  0  0  0  0  0  0  0
   34.6940   28.8510   32.5540 N   0  0  0  0  0  0  0  0  0  0  0  0
   36.8780   29.7180   30.2930 H   0  0  0  0  0  0  0  0  0  0  0  0
   35.1180   31.5410   30.8330 H   0  0  0  0  0  0  0  0  0  0  0  0
   33.2130   30.7850   32.8160 C   0  0  0  0  0  0  0  0  0  0  0  0
   33.1720   31.8220   32.5160 H   0  0  0  0  0  0  0  0  0  0  0  0
   32.3150   30.2350   32.3970 H   0  0  0  0  0  0  0  0  0  0  0  0
   33.2180   30.4860   34.2760 C   0  0  0  0  0  0  0  0  0  0  0  0
   32.3560   29.8550   34.5930 H   0  0  0  0  0  0  0  0  0  0  0  0
   34.1170   29.8980   34.6050 H   0  0  0  0  0  0  0  0  0  0  0  0
   33.2210   31.7400   35.0200 N   0  0  0  0  0  0  0  0  0  0  0  0
   32.7960   31.4770   36.4070 C   0  0  0  0  0  3  0  0  0  0  0  0
   32.9360   30.4350   36.6820 H   0  0  0  0  0  0  0  0  0  0  0  0
   33.4850   32.4450   37.3530 C   0  0  0  0  0  3  0  0  0  0  0  0
   33.0420   32.2660   38.3520 H   0  0  0  0  0  0  0  0  0  0  0  0
   34.9090   32.1330   37.4490 N   0  0  0  0  0  0  0  0  0  0  0  0
   35.1090   31.4290   38.1970 H   0  0  0  0  0  0  0  0  0  0  0  0
   35.4170   31.6980   36.1590 C   0  0  0  0  0  2  0  0  0  0  0  0
   34.5690   32.3090   35.0540 C   0  0  0  0  0  2  0  0  0  0  0  0
   36.6000   27.3570   31.7250 O   0  0  0  0  0  0  0  0  0  0  0  0
   38.3090   25.1490   34.8900 C   0  0  0  0  0  0  0  0  0  0  0  0
   38.1970   26.4980   34.9480 C   0  0  0  0  0  0  0  0  0  0  0  0
   37.6550   27.2870   33.9650 C   0  0  0  0  0  0  0  0  0  0  0  0
   37.1770   26.7220   32.8190 C   0  0  0  0  0  0  0  0  0  0  0  0
   37.2850   25.3240   32.7450 C   0  0  0  0  0  0  0  0  0  0  0  0
   37.8240   24.5820   33.7320 N   0  0  0  0  0  0  0  0  0  0  0  0
   38.5570   27.0380   35.8320 H   0  0  0  0  0  0  0  0  0  0  0  0
   37.5730   28.3690   34.0230 H   0  0  0  0  0  0  0  0  0  0  0  0
   36.9270   24.8040   31.8650 H   0  0  0  0  0  0  0  0  0  0  0  0
   38.2800   24.1040   37.1440 C   0  0  0  0  0  0  0  0  0  0  0  0
   38.8770   24.3310   35.9020 C   0  0  0  0  0  0  0  0  0  0  0  0
   40.0900   23.7150   35.6870 C   0  0  0  0  0  0  0  0  0  0  0  0
   40.6510   22.9260   36.6650 N   0  0  0  0  0  0  0  0  0  0  0  0
   39.9960   22.7550   37.8570 C   0  0  0  0  0  0  0  0  0  0  0  0
   38.8120   23.3360   38.1110 N   0  0  0  0  0  0  0  0  0  0  0  0
   37.3280   24.5620   37.3660 H   0  0  0  0  0  0  0  0  0  0  0  0
   40.5970   23.8570   34.7360 H   0  0  0  0  0  0  0  0  0  0  0  0
   40.5860   22.0990   38.5170 H   0  0  0  0  0  0  0  0  0  0  0  0
  1  5  2  0  0  0  0
  2  3  2  0  0  0  0
  2  1  1  0  0  0  0
  3  4  1  0  0  0  0
  4  5  1  0  0  0  0
  4  8  1  0  0  0  0
  6  2  1  0  0  0  0
  7  3  1  0  0  0  0
  8 11  1  0  0  0  0
  9  8  1  0  0  0  0
 10  8  1  0  0  0  0
 11 12  1  0  0  0  0
 11 13  1  0  0  0  0
 11 14  1  0  0  0  0
 14 22  1  0  0  0  0
 14 15  1  0  0  0  0
 15 16  1  0  0  0  0
 15 17  1  0  0  0  0
 17 19  1  0  0  0  0
 17 18  1  0  0  0  0
 19 20  1  0  0  0  0
 21 19  1  0  0  0  0
 22 21  1  0  0  0  0
 23  1  1  0  0  0  0
 23 27  1  0  0  0  0
 24 25  1  0  0  0  0
 24 34  1  0  0  0  0
 25 30  1  0  0  0  0
 26 31  1  0  0  0  0
 26 25  2  0  0  0  0
 27 26  1  0  0  0  0
 28 27  2  0  0  0  0
 28 29  1  0  0  0  0
 29 24  2  0  0  0  0
 32 28  1  0  0  0  0
 33 39  1  0  0  0  0
 33 38  1  0  0  0  0
 34 33  2  0  0  0  0
 35 34  1  0  0  0  0
 35 36  2  0  0  0  0
 36 37  1  0  0  0  0
 37 38  2  0  0  0  0
 37 41  1  0  0  0  0
 40 35  1  0  0  0  0
M  END
>  <minimizedAffinity>
-5.64769077

$$$$

 OpenBabel03272510143D

 41 44  0  0  0  0  0  0  0  0999 V2000
   36.0660   26.1360   31.5390 C   0  0  0  0  0  0  0  0  0  0  0  0
   35.0940   25.3040   30.9790 C   0  0  0  0  0  0  0  0  0  0  0  0
   35.4680   23.9890   31.2130 C   0  0  0  0  0  0  0  0  0  0  0  0
   36.6310   24.0450   31.8930 N   0  0  0  0  0  0  0  0  0  0  0  0
   36.9730   25.3000   32.0800 N   0  0  0  0  0  0  0  0  0  0  0  0
   34.1640   25.4710   30.4320 H   0  0  0  0  0  0  0  0  0  0  0  0
   34.9670   23.0580   30.9300 H   0  0  0  0  0  0  0  0  0  0  0  0
   37.4190   22.9100   32.3790 C   0  0  0  0  0  0  0  0  0  0  0  0
   38.4630   23.1560   32.5060 H   0  0  0  0  0  0  0  0  0  0  0  0
   36.9570   22.6910   33.3910 H   0  0  0  0  0  0  0  0  0  0  0  0
   37.0810   21.7360   31.5250 C   0  0  0  0  0  0  0  0  0  0  0  0
   36.1390   21.8770   30.9470 H   0  0  0  0  0  0  0  0  0  0  0  0
   37.8520   21.5260   30.7350 H   0  0  0  0  0  0  0  0  0  0  0  0
   36.9820   20.5480   32.3650 N   0  0  0  0  0  0  0  0  0  0  0  0
   35.5620   20.2890   32.6640 C   0  0  0  0  0  3  0  0  0  0  0  0
   34.9030   20.7580   31.9380 H   0  0  0  0  0  0  0  0  0  0  0  0
   35.3260   18.7960   32.8100 C   0  0  0  0  0  3  0  0  0  0  0  0
   34.2750   18.6810   33.1390 H   0  0  0  0  0  0  0  0  0  0  0  0
   35.4480   18.1340   31.5120 N   0  0  0  0  0  0  0  0  0  0  0  0
   34.5400   18.1170   30.9920 H   0  0  0  0  0  0  0  0  0  0  0  0
   36.5000   18.7570   30.7270 C   0  0  0  0  0  2  0  0  0  0  0  0
   37.5230   19.3830   31.6640 C   0  0  0  0  0  2  0  0  0  0  0  0
   35.8260   27.4800   31.3820 O   0  0  0  0  0  0  0  0  0  0  0  0
   34.7840   30.1360   34.4940 C   0  0  0  0  0  0  0  0  0  0  0  0
   35.8700   29.3320   34.5840 C   0  0  0  0  0  0  0  0  0  0  0  0
   36.2760   28.4430   33.6200 C   0  0  0  0  0  0  0  0  0  0  0  0
   35.5690   28.3200   32.4610 C   0  0  0  0  0  0  0  0  0  0  0  0
   34.4390   29.1470   32.3520 C   0  0  0  0  0  0  0  0  0  0  0  0
   34.0720   30.0080   33.3210 N   0  0  0  0  0  0  0  0  0  0  0  0
   36.5000   29.3630   35.4820 H   0  0  0  0  0  0  0  0  0  0  0  0
   37.1500   27.8020   33.7050 H   0  0  0  0  0  0  0  0  0  0  0  0
   33.8270   29.1050   31.4590 H   0  0  0  0  0  0  0  0  0  0  0  0
   33.0220   31.2260   35.8650 C   0  0  0  0  0  0  0  0  0  0  0  0
   34.3570   31.0490   35.4930 C   0  0  0  0  0  0  0  0  0  0  0  0
   35.2820   31.8290   36.1510 C   0  0  0  0  0  0  0  0  0  0  0  0
   34.8760   32.7230   37.1150 N   0  0  0  0  0  0  0  0  0  0  0  0
   33.5440   32.8330   37.4210 C   0  0  0  0  0  0  0  0  0  0  0  0
   32.6070   32.0930   36.8060 N   0  0  0  0  0  0  0  0  0  0  0  0
   32.2550   30.6400   35.3820 H   0  0  0  0  0  0  0  0  0  0  0  0
   36.3350   31.7300   35.9000 H   0  0  0  0  0  0  0  0  0  0  0  0
   33.4020   33.5900   38.2090 H   0  0  0  0  0  0  0  0  0  0  0  0
  1  5  2  0  0  0  0
  2  3  2  0  0  0  0
  2  1  1  0  0  0  0
  3  4  1  0  0  0  0
  4  5  1  0  0  0  0
  4  8  1  0  0  0  0
  6  2  1  0  0  0  0
  7  3  1  0  0  0  0
  8  9  1  0  0  0  0
  8 10  1  0  0  0  0
 11 14  1  0  0  0  0
 11  8  1  0  0  0  0
 12 11  1  0  0  0  0
 13 11  1  0  0  0  0
 14 15  1  0  0  0  0
 15 17  1  0  0  0  0
 16 15  1  0  0  0  0
 17 18  1  0  0  0  0
 19 17  1  0  0  0  0
 20 19  1  0  0  0  0
 21 19  1  0  0  0  0
 21 22  1  0  0  0  0
 22 14  1  0  0  0  0
 23  1  1  0  0  0  0
 23 27  1  0  0  0  0
 24 25  1  0  0  0  0
 24 34  1  0  0  0  0
 25 30  1  0  0  0  0
 26 31  1  0  0  0  0
 26 25  2  0  0  0  0
 27 26  1  0  0  0  0
 28 27  2  0  0  0  0
 28 29  1  0  0  0  0
 29 24  2  0  0  0  0
 32 28  1  0  0  0  0
 33 38  1  0  0  0  0
 34 33  2  0  0  0  0
 34 35  1  0  0  0  0
 35 36  2  0  0  0  0
 36 37  1  0  0  0  0
 37 41  1  0  0  0  0
 38 37  2  0  0  0  0
 39 33  1  0  0  0  0
 40 35  1  0  0  0  0
M  END
>  <minimizedAffinity>
-5.52980804

$$$$

 OpenBabel03272510143D

 41 44  0  0  0  0  0  0  0  0999 V2000
   36.2540   26.2590   31.0630 C   0  0  0  0  0  0  0  0  0  0  0  0
   35.0850   25.4960   31.0180 C   0  0  0  0  0  0  0  0  0  0  0  0
   35.4420   24.1570   31.0770 C   0  0  0  0  0  0  0  0  0  0  0  0
   36.7880   24.1310   31.1550 N   0  0  0  0  0  0  0  0  0  0  0  0
   37.2550   25.3600   31.1470 N   0  0  0  0  0  0  0  0  0  0  0  0
   34.0200   25.7280   30.9500 H   0  0  0  0  0  0  0  0  0  0  0  0
   34.8110   23.2640   31.0670 H   0  0  0  0  0  0  0  0  0  0  0  0
   37.6380   22.9430   31.2480 C   0  0  0  0  0  0  0  0  0  0  0  0
   37.0700   22.0240   31.2160 H   0  0  0  0  0  0  0  0  0  0  0  0
   38.2860   23.0170   30.3200 H   0  0  0  0  0  0  0  0  0  0  0  0
   38.5640   23.1470   32.3980 C   0  0  0  0  0  0  0  0  0  0  0  0
   39.3310   22.3420   32.4860 H   0  0  0  0  0  0  0  0  0  0  0  0
   39.1710   24.0880   32.3170 H   0  0  0  0  0  0  0  0  0  0  0  0
   37.7850   23.2330   33.6270 N   0  0  0  0  0  0  0  0  0  0  0  0
   37.4590   21.8710   34.0860 C   0  0  0  0  0  3  0  0  0  0  0  0
   38.1390   21.1310   33.6730 H   0  0  0  0  0  0  0  0  0  0  0  0
   37.3850   21.8380   35.6030 C   0  0  0  0  0  3  0  0  0  0  0  0
   37.0310   20.8230   35.8710 H   0  0  0  0  0  0  0  0  0  0  0  0
   38.7180   21.9980   36.1790 N   0  0  0  0  0  0  0  0  0  0  0  0
   39.2120   21.0820   36.2900 H   0  0  0  0  0  0  0  0  0  0  0  0
   39.5000   22.9310   35.3850 C   0  0  0  0  0  2  0  0  0  0  0  0
   38.5630   23.8960   34.6760 C   0  0  0  0  0  2  0  0  0  0  0  0
   36.0530   27.6160   31.0120 O   0  0  0  0  0  0  0  0  0  0  0  0
   34.9230   30.0460   34.2740 C   0  0  0  0  0  0  0  0  0  0  0  0
   35.9130   29.1260   34.3850 C   0  0  0  0  0  0  0  0  0  0  0  0
   36.3390   28.3000   33.3760 C   0  0  0  0  0  0  0  0  0  0  0  0
   35.7570   28.3670   32.1440 C   0  0  0  0  0  0  0  0  0  0  0  0
   34.7300   29.3160   32.0130 C   0  0  0  0  0  0  0  0  0  0  0  0
   34.3380   30.1110   33.0280 N   0  0  0  0  0  0  0  0  0  0  0  0
   36.4380   29.0020   35.3400 H   0  0  0  0  0  0  0  0  0  0  0  0
   37.1330   27.5660   33.4780 H   0  0  0  0  0  0  0  0  0  0  0  0
   34.2200   29.4270   31.0640 H   0  0  0  0  0  0  0  0  0  0  0  0
   35.3280   31.6580   36.1200 C   0  0  0  0  0  0  0  0  0  0  0  0
   34.4750   30.8950   35.3190 C   0  0  0  0  0  0  0  0  0  0  0  0
   33.1290   30.9950   35.5930 C   0  0  0  0  0  0  0  0  0  0  0  0
   32.6860   31.8110   36.6090 N   0  0  0  0  0  0  0  0  0  0  0  0
   33.5920   32.5260   37.3480 C   0  0  0  0  0  0  0  0  0  0  0  0
   34.9130   32.4610   37.1170 N   0  0  0  0  0  0  0  0  0  0  0  0
   36.3920   31.6180   35.9490 H   0  0  0  0  0  0  0  0  0  0  0  0
   32.4210   30.4240   34.9970 H   0  0  0  0  0  0  0  0  0  0  0  0
   33.0650   33.1200   38.1130 H   0  0  0  0  0  0  0  0  0  0  0  0
  1  5  2  0  0  0  0
  2  1  1  0  0  0  0
  2  3  2  0  0  0  0
  3  4  1  0  0  0  0
  4  8  1  0  0  0  0
  5  4  1  0  0  0  0
  6  2  1  0  0  0  0
  7  3  1  0  0  0  0
  8 11  1  0  0  0  0
  9  8  1  0  0  0  0
 10  8  1  0  0  0  0
 11 12  1  0  0  0  0
 11 14  1  0  0  0  0
 13 11  1  0  0  0  0
 14 15  1  0  0  0  0
 14 22  1  0  0  0  0
 15 17  1  0  0  0  0
 16 15  1  0  0  0  0
 17 18  1  0  0  0  0
 17 19  1  0  0  0  0
 19 20  1  0  0  0  0
 21 19  1  0  0  0  0
 22 21  1  0  0  0  0
 23  1  1  0  0  0  0
 23 27  1  0  0  0  0
 24 25  1  0  0  0  0
 24 34  1  0  0  0  0
 25 30  1  0  0  0  0
 26 31  1  0  0  0  0
 26 25  2  0  0  0  0
 27 26  1  0  0  0  0
 28 27  2  0  0  0  0
 28 29  1  0  0  0  0
 29 24  2  0  0  0  0
 32 28  1  0  0  0  0
 33 38  1  0  0  0  0
 34 35  1  0  0  0  0
 34 33  2  0  0  0  0
 35 36  2  0  0  0  0
 36 37  1  0  0  0  0
 37 41  1  0  0  0  0
 38 37  2  0  0  0  0
 39 33  1  0  0  0  0
 40 35  1  0  0  0  0
M  END
>  <minimizedAffinity>
-5.47193384

$$$$

 OpenBabel03272510143D

 41 44  0  0  0  0  0  0  0  0999 V2000
   37.7790   25.2370   31.9670 C   0  0  0  0  0  0  0  0  0  0  0  0
   39.0700   25.0470   31.4700 C   0  0  0  0  0  0  0  0  0  0  0  0
   39.5300   23.8200   31.9240 C   0  0  0  0  0  0  0  0  0  0  0  0
   38.5360   23.3000   32.6710 N   0  0  0  0  0  0  0  0  0  0  0  0
   37.5180   24.1310   32.6920 N   0  0  0  0  0  0  0  0  0  0  0  0
   39.7410   25.6320   30.8380 H   0  0  0  0  0  0  0  0  0  0  0  0
   40.4900   23.3240   31.7470 H   0  0  0  0  0  0  0  0  0  0  0  0
   38.5410   22.0080   33.3610 C   0  0  0  0  0  0  0  0  0  0  0  0
   37.5620   21.7270   33.7180 H   0  0  0  0  0  0  0  0  0  0  0  0
   38.8690   21.2850   32.5510 H   0  0  0  0  0  0  0  0  0  0  0  0
   39.6590   22.0350   34.3470 C   0  0  0  0  0  0  0  0  0  0  0  0
   39.8050   21.0580   34.8630 H   0  0  0  0  0  0  0  0  0  0  0  0
   40.6580   22.2440   33.8790 H   0  0  0  0  0  0  0  0  0  0  0  0
   39.4060   23.0860   35.3250 N   0  0  0  0  0  0  0  0  0  0  0  0
   38.2870   22.6760   36.1920 C   0  0  0  0  0  3  0  0  0  0  0  0
   38.1440   21.5990   36.1870 H   0  0  0  0  0  0  0  0  0  0  0  0
   38.4730   23.2490   37.5860 C   0  0  0  0  0  3  0  0  0  0  0  0
   37.5520   22.9970   38.1480 H   0  0  0  0  0  0  0  0  0  0  0  0
   39.5870   22.5870   38.2620 N   0  0  0  0  0  0  0  0  0  0  0  0
   39.2820   21.7260   38.7740 H   0  0  0  0  0  0  0  0  0  0  0  0
   40.6480   22.2940   37.3140 C   0  0  0  0  0  2  0  0  0  0  0  0
   40.5860   23.2920   36.1670 C   0  0  0  0  0  2  0  0  0  0  0  0
   37.1910   26.4210   31.5960 O   0  0  0  0  0  0  0  0  0  0  0  0
   35.6730   29.3930   34.1820 C   0  0  0  0  0  0  0  0  0  0  0  0
   36.5110   28.4270   34.6290 C   0  0  0  0  0  0  0  0  0  0  0  0
   37.0470   27.4280   33.8550 C   0  0  0  0  0  0  0  0  0  0  0  0
   36.7470   27.3540   32.5270 C   0  0  0  0  0  0  0  0  0  0  0  0
   35.8800   28.3500   32.0490 C   0  0  0  0  0  0  0  0  0  0  0  0
   35.3730   29.3150   32.8400 N   0  0  0  0  0  0  0  0  0  0  0  0
   36.8080   28.4060   35.6850 H   0  0  0  0  0  0  0  0  0  0  0  0
   37.7180   26.6570   34.2270 H   0  0  0  0  0  0  0  0  0  0  0  0
   35.5950   28.3560   31.0030 H   0  0  0  0  0  0  0  0  0  0  0  0
   33.7400   30.6820   35.0630 C   0  0  0  0  0  0  0  0  0  0  0  0
   35.1100   30.4220   34.9820 C   0  0  0  0  0  0  0  0  0  0  0  0
   35.9310   31.2360   35.7300 C   0  0  0  0  0  0  0  0  0  0  0  0
   35.3940   32.2410   36.5020 N   0  0  0  0  0  0  0  0  0  0  0  0
   34.0370   32.4280   36.5250 C   0  0  0  0  0  0  0  0  0  0  0  0
   33.1980   31.6580   35.8130 N   0  0  0  0  0  0  0  0  0  0  0  0
   33.0510   30.0730   34.4970 H   0  0  0  0  0  0  0  0  0  0  0  0
   37.0060   31.0750   35.7050 H   0  0  0  0  0  0  0  0  0  0  0  0
   33.7860   33.2700   37.1910 H   0  0  0  0  0  0  0  0  0  0  0  0
  1  5  2  0  0  0  0
  2  3  2  0  0  0  0
  2  1  1  0  0  0  0
  3  4  1  0  0  0  0
  4  5  1  0  0  0  0
  4  8  1  0  0  0  0
  6  2  1  0  0  0  0
  7  3  1  0  0  0  0
  8  9  1  0  0  0  0
  8 11  1  0  0  0  0
 10  8  1  0  0  0  0
 11 12  1  0  0  0  0
 11 14  1  0  0  0  0
 13 11  1  0  0  0  0
 14 22  1  0  0  0  0
 14 15  1  0  0  0  0
 15 17  1  0  0  0  0
 16 15  1  0  0  0  0
 17 18  1  0  0  0  0
 17 19  1  0  0  0  0
 19 20  1  0  0  0  0
 21 19  1  0  0  0  0
 22 21  1  0  0  0  0
 23  1  1  0  0  0  0
 23 27  1  0  0  0  0
 24 25  1  0  0  0  0
 24 34  1  0  0  0  0
 25 30  1  0  0  0  0
 26 31  1  0  0  0  0
 26 25  2  0  0  0  0
 27 26  1  0  0  0  0
 28 27  2  0  0  0  0
 28 29  1  0  0  0  0
 29 24  2  0  0  0  0
 32 28  1  0  0  0  0
 33 38  1  0  0  0  0
 34 33  2  0  0  0  0
 34 35  1  0  0  0  0
 35 36  2  0  0  0  0
 36 37  1  0  0  0  0
 37 41  1  0  0  0  0
 38 37  2  0  0  0  0
 39 33  1  0  0  0  0
 40 35  1  0  0  0  0
M  END
>  <minimizedAffinity>
-5.43498611

$$$$

 OpenBabel03272510143D

 41 44  0  0  0  0  0  0  0  0999 V2000
   36.3400   28.1600   31.9910 C   0  0  0  0  0  0  0  0  0  0  0  0
   36.3100   29.0860   30.9460 C   0  0  0  0  0  0  0  0  0  0  0  0
   35.3740   30.0600   31.2600 C   0  0  0  0  0  0  0  0  0  0  0  0
   34.8640   29.7170   32.4600 N   0  0  0  0  0  0  0  0  0  0  0  0
   35.4330   28.6080   32.8810 N   0  0  0  0  0  0  0  0  0  0  0  0
   36.8400   29.1880   29.9970 H   0  0  0  0  0  0  0  0  0  0  0  0
   35.0680   30.9450   30.6940 H   0  0  0  0  0  0  0  0  0  0  0  0
   33.8440   30.4420   33.2200 C   0  0  0  0  0  0  0  0  0  0  0  0
   34.2720   31.1420   33.9230 H   0  0  0  0  0  0  0  0  0  0  0  0
   33.2810   31.0110   32.4170 H   0  0  0  0  0  0  0  0  0  0  0  0
   32.8800   29.4340   33.7450 C   0  0  0  0  0  0  0  0  0  0  0  0
   31.8280   29.6410   33.4410 H   0  0  0  0  0  0  0  0  0  0  0  0
   33.0710   28.3960   33.3620 H   0  0  0  0  0  0  0  0  0  0  0  0
   32.9810   29.3890   35.1990 N   0  0  0  0  0  0  0  0  0  0  0  0
   33.1660   30.7590   35.7110 C   0  0  0  0  0  3  0  0  0  0  0  0
   32.8220   31.5060   35.0000 H   0  0  0  0  0  0  0  0  0  0  0  0
   32.5220   30.8930   37.0790 C   0  0  0  0  0  3  0  0  0  0  0  0
   32.7920   31.9020   37.4480 H   0  0  0  0  0  0  0  0  0  0  0  0
   31.0660   30.8490   36.9620 N   0  0  0  0  0  0  0  0  0  0  0  0
   30.6560   31.7980   36.7950 H   0  0  0  0  0  0  0  0  0  0  0  0
   30.6730   29.9100   35.9260 C   0  0  0  0  0  2  0  0  0  0  0  0
   31.7510   28.8460   35.7780 C   0  0  0  0  0  2  0  0  0  0  0  0
   37.2300   27.1290   31.8160 O   0  0  0  0  0  0  0  0  0  0  0  0
   36.2630   23.0220   31.9470 C   0  0  0  0  0  0  0  0  0  0  0  0
   35.5220   23.9000   31.2300 C   0  0  0  0  0  0  0  0  0  0  0  0
   35.7690   25.2470   31.1360 C   0  0  0  0  0  0  0  0  0  0  0  0
   36.8290   25.7970   31.7940 C   0  0  0  0  0  0  0  0  0  0  0  0
   37.6070   24.8980   32.5410 C   0  0  0  0  0  0  0  0  0  0  0  0
   37.3340   23.5810   32.6100 N   0  0  0  0  0  0  0  0  0  0  0  0
   34.6490   23.5470   30.6680 H   0  0  0  0  0  0  0  0  0  0  0  0
   35.1660   25.9420   30.5570 H   0  0  0  0  0  0  0  0  0  0  0  0
   38.4660   25.2620   33.0920 H   0  0  0  0  0  0  0  0  0  0  0  0
   36.0260   20.7510   30.9680 C   0  0  0  0  0  0  0  0  0  0  0  0
   36.0060   21.6300   32.0530 C   0  0  0  0  0  0  0  0  0  0  0  0
   35.7080   21.0780   33.2790 C   0  0  0  0  0  0  0  0  0  0  0  0
   35.4500   19.7310   33.3900 N   0  0  0  0  0  0  0  0  0  0  0  0
   35.4910   18.9380   32.2730 C   0  0  0  0  0  0  0  0  0  0  0  0
   35.7770   19.4320   31.0570 N   0  0  0  0  0  0  0  0  0  0  0  0
   36.2530   21.1300   29.9840 H   0  0  0  0  0  0  0  0  0  0  0  0
   35.6820   21.7180   34.1580 H   0  0  0  0  0  0  0  0  0  0  0  0
   35.2600   17.8950   32.5450 H   0  0  0  0  0  0  0  0  0  0  0  0
  1  5  2  0  0  0  0
  2  3  2  0  0  0  0
  2  1  1  0  0  0  0
  3  4  1  0  0  0  0
  4  5  1  0  0  0  0
  4  8  1  0  0  0  0
  6  2  1  0  0  0  0
  7  3  1  0  0  0  0
  8 11  1  0  0  0  0
  8  9  1  0  0  0  0
 10  8  1  0  0  0  0
 11 14  1  0  0  0  0
 12 11  1  0  0  0  0
 13 11  1  0  0  0  0
 14 15  1  0  0  0  0
 14 22  1  0  0  0  0
 15 17  1  0  0  0  0
 16 15  1  0  0  0  0
 17 18  1  0  0  0  0
 19 17  1  0  0  0  0
 20 19  1  0  0  0  0
 21 19  1  0  0  0  0
 22 21  1  0  0  0  0
 23  1  1  0  0  0  0
 24 34  1  0  0  0  0
 24 29  1  0  0  0  0
 25 24  2  0  0  0  0
 26 25  1  0  0  0  0
 26 27  2  0  0  0  0
 27 23  1  0  0  0  0
 27 28  1  0  0  0  0
 28 29  2  0  0  0  0
 28 32  1  0  0  0  0
 30 25  1  0  0  0  0
 31 26  1  0  0  0  0
 33 38  2  0  0  0  0
 33 34  1  0  0  0  0
 34 35  2  0  0  0  0
 35 36  1  0  0  0  0
 35 40  1  0  0  0  0
 37 41  1  0  0  0  0
 37 36  2  0  0  0  0
 38 37  1  0  0  0  0
 39 33  1  0  0  0  0
M  END
>  <minimizedAffinity>
-5.40384388

$$$$

 OpenBabel03272510143D

 41 44  0  0  0  0  0  0  0  0999 V2000
   35.8230   28.7410   31.8060 C   0  0  0  0  0  0  0  0  0  0  0  0
   36.2470   29.8830   31.1220 C   0  0  0  0  0  0  0  0  0  0  0  0
   35.2580   30.8470   31.2400 C   0  0  0  0  0  0  0  0  0  0  0  0
   34.2750   30.2890   31.9740 N   0  0  0  0  0  0  0  0  0  0  0  0
   34.6120   29.0610   32.3010 N   0  0  0  0  0  0  0  0  0  0  0  0
   37.1410   30.1480   30.5530 H   0  0  0  0  0  0  0  0  0  0  0  0
   35.2240   31.8660   30.8420 H   0  0  0  0  0  0  0  0  0  0  0  0
   33.0170   30.9180   32.3790 C   0  0  0  0  0  0  0  0  0  0  0  0
   32.7990   31.8100   31.8100 H   0  0  0  0  0  0  0  0  0  0  0  0
   32.2440   30.1230   32.1430 H   0  0  0  0  0  0  0  0  0  0  0  0
   33.0330   31.0300   33.8650 C   0  0  0  0  0  0  0  0  0  0  0  0
   34.0290   30.7950   34.3070 H   0  0  0  0  0  0  0  0  0  0  0  0
   32.8120   32.0670   34.2340 H   0  0  0  0  0  0  0  0  0  0  0  0
   32.0170   30.1430   34.4210 N   0  0  0  0  0  0  0  0  0  0  0  0
   32.6490   29.2410   35.4000 C   0  0  0  0  0  3  0  0  0  0  0  0
   33.5870   29.6440   35.7730 H   0  0  0  0  0  0  0  0  0  0  0  0
   31.6630   28.8970   36.5020 C   0  0  0  0  0  3  0  0  0  0  0  0
   32.1620   28.1380   37.1350 H   0  0  0  0  0  0  0  0  0  0  0  0
   31.4140   30.0660   37.3420 N   0  0  0  0  0  0  0  0  0  0  0  0
   32.1010   30.1400   38.1290 H   0  0  0  0  0  0  0  0  0  0  0  0
   31.3990   31.2730   36.5340 C   0  0  0  0  0  2  0  0  0  0  0  0
   30.9870   30.9210   35.1120 C   0  0  0  0  0  2  0  0  0  0  0  0
   36.7100   27.6930   31.7740 O   0  0  0  0  0  0  0  0  0  0  0  0
   38.0160   25.4160   35.0800 C   0  0  0  0  0  0  0  0  0  0  0  0
   37.5420   26.6760   35.2310 C   0  0  0  0  0  0  0  0  0  0  0  0
   37.0990   27.4800   34.2110 C   0  0  0  0  0  0  0  0  0  0  0  0
   37.1150   27.0260   32.9250 C   0  0  0  0  0  0  0  0  0  0  0  0
   37.6030   25.7210   32.7520 C   0  0  0  0  0  0  0  0  0  0  0  0
   38.0300   24.9610   33.7790 N   0  0  0  0  0  0  0  0  0  0  0  0
   37.4930   27.1250   36.2310 H   0  0  0  0  0  0  0  0  0  0  0  0
   36.7230   28.4900   34.3460 H   0  0  0  0  0  0  0  0  0  0  0  0
   37.6470   25.2910   31.7580 H   0  0  0  0  0  0  0  0  0  0  0  0
   37.9340   24.5760   37.4160 C   0  0  0  0  0  0  0  0  0  0  0  0
   38.4830   24.5850   36.1320 C   0  0  0  0  0  0  0  0  0  0  0  0
   39.5400   23.7300   35.9150 C   0  0  0  0  0  0  0  0  0  0  0  0
   40.0040   22.9260   36.9310 N   0  0  0  0  0  0  0  0  0  0  0  0
   39.4070   22.9800   38.1640 C   0  0  0  0  0  0  0  0  0  0  0  0
   38.3730   23.7980   38.4220 N   0  0  0  0  0  0  0  0  0  0  0  0
   37.1030   25.2270   37.6420 H   0  0  0  0  0  0  0  0  0  0  0  0
   40.0030   23.6960   34.9310 H   0  0  0  0  0  0  0  0  0  0  0  0
   39.9030   22.2750   38.8510 H   0  0  0  0  0  0  0  0  0  0  0  0
  1  5  2  0  0  0  0
  2  3  2  0  0  0  0
  2  1  1  0  0  0  0
  3  4  1  0  0  0  0
  4  5  1  0  0  0  0
  4  8  1  0  0  0  0
  6  2  1  0  0  0  0
  7  3  1  0  0  0  0
  8 11  1  0  0  0  0
  9  8  1  0  0  0  0
 10  8  1  0  0  0  0
 11 13  1  0  0  0  0
 11 12  1  0  0  0  0
 11 14  1  0  0  0  0
 14 22  1  0  0  0  0
 14 15  1  0  0  0  0
 15 16  1  0  0  0  0
 15 17  1  0  0  0  0
 17 18  1  0  0  0  0
 17 19  1  0  0  0  0
 19 20  1  0  0  0  0
 21 19  1  0  0  0  0
 22 21  1  0  0  0  0
 23  1  1  0  0  0  0
 23 27  1  0  0  0  0
 24 25  1  0  0  0  0
 24 34  1  0  0  0  0
 25 30  1  0  0  0  0
 26 31  1  0  0  0  0
 26 25  2  0  0  0  0
 27 26  1  0  0  0  0
 28 27  2  0  0  0  0
 28 29  1  0  0  0  0
 29 24  2  0  0  0  0
 32 28  1  0  0  0  0
 33 39  1  0  0  0  0
 33 38  1  0  0  0  0
 34 33  2  0  0  0  0
 35 34  1  0  0  0  0
 35 36  2  0  0  0  0
 36 37  1  0  0  0  0
 37 38  2  0  0  0  0
 37 41  1  0  0  0  0
 40 35  1  0  0  0  0
M  END
>  <minimizedAffinity>
-5.30010796

$$$$
