
     RDKit          3D

 41 44  0  0  0  0  0  0  0  0999 V2000
   33.8445   28.7884   48.2708 C   0  0  0  0  0  0  0  0  0  0  0  0
   34.4393   28.4178   49.4241 C   0  0  0  0  0  0  0  0  0  0  0  0
   35.7120   28.7812   49.8128 C   0  0  0  0  0  0  0  0  0  0  0  0
   36.4619   29.5791   48.9921 C   0  0  0  0  0  0  0  0  0  0  0  0
   35.8488   29.9682   47.7904 C   0  0  0  0  0  0  0  0  0  0  0  0
   34.5994   29.5813   47.4631 N   0  0  0  0  0  0  0  0  0  0  0  0
   31.6276   27.6696   48.7045 C   0  0  0  0  0  0  0  0  0  0  0  0
   32.5218   28.4047   47.8770 C   0  0  0  0  0  0  0  0  0  0  0  0
   32.0380   28.7403   46.6378 C   0  0  0  0  0  0  0  0  0  0  0  0
   30.7718   28.3688   46.2694 N   0  0  0  0  0  0  0  0  0  0  0  0
   29.9764   27.6728   47.1026 C   0  0  0  0  0  0  0  0  0  0  0  0
   30.3978   27.3173   48.3273 N   0  0  0  0  0  0  0  0  0  0  0  0
   37.7538   30.0476   49.2074 O   0  0  0  0  0  0  0  0  0  0  0  0
   38.1627   31.3056   48.7763 C   0  0  0  0  0  0  0  0  0  0  0  0
   37.8727   32.3253   49.6816 C   0  0  0  0  0  0  0  0  0  0  0  0
   38.3381   33.5088   49.1130 C   0  0  0  0  0  0  0  0  0  0  0  0
   38.8738   33.1813   47.9290 N   0  0  0  0  0  0  0  0  0  0  0  0
   38.7663   31.8910   47.7416 N   0  0  0  0  0  0  0  0  0  0  0  0
   33.9256   27.7879   50.1360 H   0  0  0  0  0  0  0  0  0  0  0  0
   36.1906   28.4853   50.7365 H   0  0  0  0  0  0  0  0  0  0  0  0
   36.3959   30.6035   47.0960 H   0  0  0  0  0  0  0  0  0  0  0  0
   31.9772   27.3888   49.6880 H   0  0  0  0  0  0  0  0  0  0  0  0
   32.6753   29.3054   45.9533 H   0  0  0  0  0  0  0  0  0  0  0  0
   29.0075   27.4513   46.6763 H   0  0  0  0  0  0  0  0  0  0  0  0
   37.3988   32.3993   50.6614 H   0  0  0  0  0  0  0  0  0  0  0  0
   38.3154   34.5278   49.4784 H   0  0  0  0  0  0  0  0  0  0  0  0
   40.6053   35.3330   48.1687 H   0  0  0  0  0  0  0  0  0  0  0  0
   39.7802   35.3651   47.5141 N   0  0  0  0  0  0  0  0  0  0  0  0
   39.4826   34.0534   46.9735 C   0  0  1  0  0  0  0  0  0  0  0  0
   40.7714   33.5425   46.3887 C   0  0  2  0  0  0  0  0  0  0  0  0
   40.7510   32.4910   46.0907 H   0  0  0  0  0  0  0  0  0  0  0  0
   41.0287   34.3328   45.2077 N   0  0  0  0  0  0  0  0  0  0  0  0
   40.4972   33.9999   44.3752 H   0  0  0  0  0  0  0  0  0  0  0  0
   41.0030   35.7421   45.4038 C   0  0  0  0  0  0  0  0  0  0  0  0
   40.0326   36.2609   46.4049 C   0  0  0  0  0  0  0  0  0  0  0  0
   38.7606   34.2173   46.1471 H   0  0  0  0  0  0  0  0  0  0  0  0
   41.6329   33.7499   47.0855 H   0  0  0  0  0  0  0  0  0  0  0  0
   42.0489   36.1326   45.5461 H   0  0  0  0  0  0  0  0  0  0  0  0
   40.6978   36.1900   44.4128 H   0  0  0  0  0  0  0  0  0  0  0  0
   39.0423   36.5293   45.9709 H   0  0  0  0  0  0  0  0  0  0  0  0
   40.4431   37.1995   46.8402 H   0  0  0  0  0  0  0  0  0  0  0  0
  1  2  2  0
  2  3  1  0
  4 13  1  0
  4  3  2  0
  5  4  1  0
  6  5  2  0
  6  1  1  0
  8  1  1  0
  8  7  2  0
  9  8  1  0
 10  9  2  0
 10 11  1  0
 11 12  2  0
 12  7  1  0
 14 13  1  0
 14 15  1  0
 16 15  2  0
 17 16  1  0
 18 17  1  0
 18 14  2  0
  2 19  1  0
  3 20  1  0
  5 21  1  0
  7 22  1  0
  9 23  1  0
 11 24  1  0
 15 25  1  0
 16 26  1  0
 27 28  1  0
 28 29  1  0
 29 30  1  0
 30 31  1  6
 30 32  1  0
 32 33  1  0
 32 34  1  0
 34 35  1  0
 35 28  1  0
 29 36  1  6
 30 37  1  0
 34 38  1  0
 34 39  1  0
 35 40  1  0
 35 41  1  0
 17 29  1  0
M  ISO  8  19  14  20  14  21  14  22  14  23  14  24  14  25  14  26  14
M  ISO  3  27   5  31   8  33   5
M  END
>  <DihAtoms>  (1) 
15,16,28,27

>  <DihDeg>  (1) 
13.91710145142344

$$$$
