REMARK  Name = 
REMARK  5 active torsions:
REMARK  status: ('A' for Active; 'I' for Inactive)
REMARK    1  A    between atoms: C_1  and  S_17
REMARK    2  A    between atoms: C_2  and  C_9
REMARK    3  A    between atoms: C_11  and  C_13
REMARK    4  A    between atoms: S_17  and  C_20
REMARK    5  A    between atoms: C_20  and  N_29
REMARK                            x       y       z     vdW  Elec       q    Type
REMARK                         _______ _______ _______ _____ _____    ______ ____
ROOT
ATOM      1  C   UNL     1      38.158  31.247  44.925  0.00  0.00    +0.000 A 
ATOM      2  C   UNL     1      37.340  30.945  45.971  0.00  0.00    +0.000 A 
ATOM      3  C   UNL     1      36.108  30.349  45.729  0.00  0.00    +0.000 A 
ATOM      4  C   UNL     1      35.664  30.045  44.459  0.00  0.00    +0.000 A 
ATOM      5  C   UNL     1      36.471  30.343  43.376  0.00  0.00    +0.000 A 
ATOM      6  C   UNL     1      37.675  30.927  43.653  0.00  0.00    +0.000 A 
ATOM      7  H   UNL     1      35.470  30.114  46.592  0.00  0.00    +0.000 HD
ATOM      8  H   UNL     1      34.704  29.588  44.382  0.00  0.00    +0.000 HD
ATOM      9  H   UNL     1      36.084  30.090  42.401  0.00  0.00    +0.000 HD
ATOM     10  H   UNL     1      38.216  31.116  42.717  0.00  0.00    +0.000 HD
ENDROOT
BRANCH   2  13
ATOM     11  C   UNL     1      38.684  32.781  48.860  0.00  0.00    +0.000 A 
ATOM     12  C   UNL     1      38.309  32.445  47.566  0.00  0.00    +0.000 A 
ATOM     13  C   UNL     1      37.699  31.256  47.313  0.00  0.00    +0.000 A 
ATOM     14  N   UNL     1      37.476  30.431  48.374  0.00  0.00    +0.000 NA
ATOM     15  C   UNL     1      37.833  30.752  49.624  0.00  0.00    +0.000 A 
ATOM     16  N   UNL     1      38.435  31.922  49.857  0.00  0.00    +0.000 NA
ATOM     17  H   UNL     1      39.168  33.659  49.229  0.00  0.00    +0.000 HD
ATOM     18  H   UNL     1      38.579  33.295  46.987  0.00  0.00    +0.000 HD
BRANCH  15  19
ATOM     19  C   UNL     1      37.468  29.786  50.695  0.00  0.00    +0.000 C 
ATOM     20  F   UNL     1      37.717  30.295  51.958  0.00  0.00    +0.000 F 
ATOM     21  F   UNL     1      36.028  29.638  50.707  0.00  0.00    +0.000 F 
ATOM     22  F   UNL     1      37.903  28.553  50.570  0.00  0.00    +0.000 F 
ENDBRANCH  15  19
ENDBRANCH   2  13
BRANCH   1  23
ATOM     23  S   UNL     1      39.709  31.945  45.095  0.00  0.00    +0.000 S 
ATOM     24  O   UNL     1      39.709  33.390  44.890  0.00  0.00    +0.000 OA
ATOM     25  O   UNL     1      40.283  31.564  43.737  0.00  0.00    +0.000 OA
BRANCH  23  26
ATOM     26  C   UNL     1      41.125  31.246  45.748  0.00  0.00    +0.000 C 
ATOM     27  H   UNL     1      41.306  30.168  45.563  0.00  0.00    +0.000 HD
ATOM     28  H   UNL     1      40.871  31.179  46.876  0.00  0.00    +0.000 HD
BRANCH  26  29
ATOM     29  N   UNL     1      42.246  32.101  45.736  0.00  0.00    +0.000 NA
ATOM     30  C   UNL     1      43.333  31.509  44.996  0.00  0.00    +0.000 C 
ATOM     31  H   UNL     1      43.180  31.519  43.892  0.00  0.00    +0.000 HD
ATOM     32  C   UNL     1      44.664  32.157  45.354  0.00  0.00    +0.000 C 
ATOM     33  H   UNL     1      45.279  32.144  44.429  0.00  0.00    +0.000 HD
ATOM     34  N   UNL     1      44.496  33.540  45.730  0.00  0.00    +0.000 NA
ATOM     35  H   UNL     1      44.230  34.162  44.951  0.00  0.00    +0.000 HD
ATOM     36  C   UNL     1      43.645  33.707  46.884  0.00  0.00    +0.000 C 
ATOM     37  C   UNL     1      42.745  32.505  47.032  0.00  0.00    +0.000 C 
ENDBRANCH  26  29
ENDBRANCH  23  26
ENDBRANCH   1  23
TORSDOF 5
