
 OpenBabel03272508013D

 21 22  0  0  0  0  0  0  0  0999 V2000
   38.0570   24.7520   34.8240 C   0  0  0  0  0  0  0  0  0  0  0  0
   37.9500   24.8220   36.2290 C   0  0  0  0  0  0  0  0  0  0  0  0
   38.3530   23.6990   36.9730 C   0  0  0  0  0  0  0  0  0  0  0  0
   38.8210   22.6180   36.2890 N   0  0  0  0  0  0  0  0  0  0  0  0
   38.9070   22.5920   34.9510 C   0  0  0  0  0  0  0  0  0  0  0  0
   38.5290   23.6480   34.2270 N   0  0  0  0  0  0  0  0  0  0  0  0
   37.5770   25.6880   36.7540 H   0  0  0  0  0  0  0  0  0  0  0  0
   39.2820   21.7280   34.4040 H   0  0  0  0  0  0  0  0  0  0  0  0
   37.6500   25.8850   34.0660 N   0  0  0  0  0  0  0  0  0  0  0  0
   37.0980   26.9950   34.7700 C   0  0  0  0  0  3  0  0  0  0  0  0
   36.2560   26.5780   35.3980 H   0  0  0  0  0  0  0  0  0  0  0  0
   36.5370   28.0770   33.9200 C   0  0  0  0  0  3  0  0  0  0  0  0
   37.2300   28.9620   34.0100 H   0  0  0  0  0  0  0  0  0  0  0  0
   36.3970   27.8140   32.5360 N   0  0  0  0  0  0  0  0  0  0  0  0
   35.4640   28.1820   32.1810 H   0  0  0  0  0  0  0  0  0  0  0  0
   36.4740   26.4570   32.1140 C   0  0  0  0  0  2  0  0  0  0  0  0
   37.8000   25.8940   32.6400 C   0  0  0  0  0  2  0  0  0  0  0  0
   38.2550   23.7320   38.4580 C   0  0  0  0  0  0  0  0  0  0  0  0
   39.4970   23.3940   38.9180 F   0  0  0  0  0  0  0  0  0  0  0  0
   37.9420   24.9850   38.9500 F   0  0  0  0  0  0  0  0  0  0  0  0
   37.3470   22.7980   38.9360 F   0  0  0  0  0  0  0  0  0  0  0  0
  1  2  1  0  0  0  0
  2  7  1  0  0  0  0
  2  3  2  0  0  0  0
  3 18  1  0  0  0  0
  4  3  1  0  0  0  0
  5  4  2  0  0  0  0
  6  1  2  0  0  0  0
  6  5  1  0  0  0  0
  8  5  1  0  0  0  0
  9 10  1  0  0  0  0
  9  1  1  0  0  0  0
 10 11  1  0  0  0  0
 12 13  1  0  0  0  0
 12 10  1  0  0  0  0
 14 12  1  0  0  0  0
 15 14  1  0  0  0  0
 16 14  1  0  0  0  0
 16 17  1  0  0  0  0
 17  9  1  0  0  0  0
 18 19  1  0  0  0  0
 18 21  1  0  0  0  0
 18 20  1  0  0  0  0
M  END
>  <minimizedAffinity>
-4.93565416

$$$$

 OpenBabel03272508013D

 21 22  0  0  0  0  0  0  0  0999 V2000
   38.0530   22.8790   34.6970 C   0  0  0  0  0  0  0  0  0  0  0  0
   37.2570   21.7250   34.5360 C   0  0  0  0  0  0  0  0  0  0  0  0
   36.6050   21.5450   33.3040 C   0  0  0  0  0  0  0  0  0  0  0  0
   36.7840   22.4970   32.3460 N   0  0  0  0  0  0  0  0  0  0  0  0
   37.5480   23.5810   32.5390 C   0  0  0  0  0  0  0  0  0  0  0  0
   38.1760   23.7690   33.7030 N   0  0  0  0  0  0  0  0  0  0  0  0
   37.1280   20.9800   35.3070 H   0  0  0  0  0  0  0  0  0  0  0  0
   37.6910   24.3420   31.7730 H   0  0  0  0  0  0  0  0  0  0  0  0
   38.7150   23.0650   35.9420 N   0  0  0  0  0  0  0  0  0  0  0  0
   39.8360   22.2340   36.2320 C   0  0  0  0  0  3  0  0  0  0  0  0
   39.4800   21.1710   36.0950 H   0  0  0  0  0  0  0  0  0  0  0  0
   40.3830   22.3550   37.6090 C   0  0  0  0  0  3  0  0  0  0  0  0
   41.3800   22.8740   37.5250 H   0  0  0  0  0  0  0  0  0  0  0  0
   39.6230   23.0900   38.5510 N   0  0  0  0  0  0  0  0  0  0  0  0
   39.6100   22.5880   39.4890 H   0  0  0  0  0  0  0  0  0  0  0  0
   38.2640   23.3640   38.2290 C   0  0  0  0  0  2  0  0  0  0  0  0
   38.2550   24.0630   36.8640 C   0  0  0  0  0  2  0  0  0  0  0  0
   35.7560   20.3400   33.0940 C   0  0  0  0  0  0  0  0  0  0  0  0
   35.4490   19.8820   34.3450 F   0  0  0  0  0  0  0  0  0  0  0  0
   34.5730   20.6220   32.4390 F   0  0  0  0  0  0  0  0  0  0  0  0
   36.4410   19.3380   32.4220 F   0  0  0  0  0  0  0  0  0  0  0  0
  1  9  1  0  0  0  0
  2  1  1  0  0  0  0
  2  7  1  0  0  0  0
  3  2  2  0  0  0  0
  4  5  2  0  0  0  0
  4  3  1  0  0  0  0
  5  6  1  0  0  0  0
  6  1  2  0  0  0  0
  8  5  1  0  0  0  0
  9 10  1  0  0  0  0
  9 17  1  0  0  0  0
 10 12  1  0  0  0  0
 11 10  1  0  0  0  0
 12 14  1  0  0  0  0
 13 12  1  0  0  0  0
 14 15  1  0  0  0  0
 16 14  1  0  0  0  0
 17 16  1  0  0  0  0
 18  3  1  0  0  0  0
 18 19  1  0  0  0  0
 20 18  1  0  0  0  0
 21 18  1  0  0  0  0
M  END
>  <minimizedAffinity>
-4.82915306

$$$$

 OpenBabel03272508013D

 21 22  0  0  0  0  0  0  0  0999 V2000
   38.1500   24.3850   34.9400 C   0  0  0  0  0  0  0  0  0  0  0  0
   37.8090   25.7390   34.7360 C   0  0  0  0  0  0  0  0  0  0  0  0
   37.3110   26.1070   33.4740 C   0  0  0  0  0  0  0  0  0  0  0  0
   37.1890   25.1320   32.5300 N   0  0  0  0  0  0  0  0  0  0  0  0
   37.5250   23.8550   32.7630 C   0  0  0  0  0  0  0  0  0  0  0  0
   38.0000   23.4860   33.9560 N   0  0  0  0  0  0  0  0  0  0  0  0
   37.9120   26.4980   35.4970 H   0  0  0  0  0  0  0  0  0  0  0  0
   37.4270   23.0760   32.0090 H   0  0  0  0  0  0  0  0  0  0  0  0
   38.6540   24.0080   36.2150 N   0  0  0  0  0  0  0  0  0  0  0  0
   39.7620   23.1120   36.2550 C   0  0  0  0  0  3  0  0  0  0  0  0
   39.4620   22.2170   35.6340 H   0  0  0  0  0  0  0  0  0  0  0  0
   40.1400   22.6210   37.6060 C   0  0  0  0  0  3  0  0  0  0  0  0
   41.1210   23.1080   37.8730 H   0  0  0  0  0  0  0  0  0  0  0  0
   39.2500   22.8960   38.6730 N   0  0  0  0  0  0  0  0  0  0  0  0
   39.1450   22.0410   39.2970 H   0  0  0  0  0  0  0  0  0  0  0  0
   37.9290   23.3070   38.3370 C   0  0  0  0  0  2  0  0  0  0  0  0
   38.0560   24.5240   37.4110 C   0  0  0  0  0  2  0  0  0  0  0  0
   36.9400   27.5260   33.2190 C   0  0  0  0  0  0  0  0  0  0  0  0
   37.9430   28.0370   32.4450 F   0  0  0  0  0  0  0  0  0  0  0  0
   35.7530   27.6560   32.5240 F   0  0  0  0  0  0  0  0  0  0  0  0
   36.8810   28.2620   34.3940 F   0  0  0  0  0  0  0  0  0  0  0  0
  1  9  1  0  0  0  0
  2  1  1  0  0  0  0
  2  7  1  0  0  0  0
  3  2  2  0  0  0  0
  4  5  2  0  0  0  0
  4  3  1  0  0  0  0
  5  6  1  0  0  0  0
  6  1  2  0  0  0  0
  8  5  1  0  0  0  0
  9 10  1  0  0  0  0
  9 17  1  0  0  0  0
 10 12  1  0  0  0  0
 11 10  1  0  0  0  0
 12 13  1  0  0  0  0
 12 14  1  0  0  0  0
 14 15  1  0  0  0  0
 16 14  1  0  0  0  0
 17 16  1  0  0  0  0
 18  3  1  0  0  0  0
 18 21  1  0  0  0  0
 19 18  1  0  0  0  0
 20 18  1  0  0  0  0
M  END
>  <minimizedAffinity>
-4.81037903

$$$$

 OpenBabel03272508013D

 21 22  0  0  0  0  0  0  0  0999 V2000
   38.1700   24.0360   34.8130 C   0  0  0  0  0  0  0  0  0  0  0  0
   37.8290   25.4030   34.7390 C   0  0  0  0  0  0  0  0  0  0  0  0
   37.5490   25.9410   33.4710 C   0  0  0  0  0  0  0  0  0  0  0  0
   37.6250   25.1070   32.3960 N   0  0  0  0  0  0  0  0  0  0  0  0
   37.9550   23.8130   32.5080 C   0  0  0  0  0  0  0  0  0  0  0  0
   38.2240   23.2830   33.7040 N   0  0  0  0  0  0  0  0  0  0  0  0
   37.7720   26.0490   35.6020 H   0  0  0  0  0  0  0  0  0  0  0  0
   38.0160   23.1460   31.6500 H   0  0  0  0  0  0  0  0  0  0  0  0
   38.4550   23.4880   36.0940 N   0  0  0  0  0  0  0  0  0  0  0  0
   37.9050   24.1390   37.2350 C   0  0  0  0  0  3  0  0  0  0  0  0
   38.2170   25.2220   37.1580 H   0  0  0  0  0  0  0  0  0  0  0  0
   38.3690   23.6270   38.5510 C   0  0  0  0  0  3  0  0  0  0  0  0
   37.5000   23.0840   39.0210 H   0  0  0  0  0  0  0  0  0  0  0  0
   39.4570   22.7200   38.5510 N   0  0  0  0  0  0  0  0  0  0  0  0
   40.1370   22.9580   39.3340 H   0  0  0  0  0  0  0  0  0  0  0  0
   40.2360   22.6280   37.3630 C   0  0  0  0  0  2  0  0  0  0  0  0
   39.2710   22.3150   36.2130 C   0  0  0  0  0  2  0  0  0  0  0  0
   37.1840   27.3800   33.3500 C   0  0  0  0  0  0  0  0  0  0  0  0
   38.1320   27.9350   32.5380 F   0  0  0  0  0  0  0  0  0  0  0  0
   35.9490   27.5750   32.7620 F   0  0  0  0  0  0  0  0  0  0  0  0
   37.2300   28.0280   34.5760 F   0  0  0  0  0  0  0  0  0  0  0  0
  1  9  1  0  0  0  0
  2  1  1  0  0  0  0
  2  7  1  0  0  0  0
  3  2  2  0  0  0  0
  4  5  2  0  0  0  0
  4  3  1  0  0  0  0
  5  6  1  0  0  0  0
  6  1  2  0  0  0  0
  8  5  1  0  0  0  0
  9 17  1  0  0  0  0
  9 10  1  0  0  0  0
 10 12  1  0  0  0  0
 11 10  1  0  0  0  0
 12 14  1  0  0  0  0
 12 13  1  0  0  0  0
 14 15  1  0  0  0  0
 16 14  1  0  0  0  0
 17 16  1  0  0  0  0
 18  3  1  0  0  0  0
 18 21  1  0  0  0  0
 19 18  1  0  0  0  0
 20 18  1  0  0  0  0
M  END
>  <minimizedAffinity>
-4.72113514

$$$$

 OpenBabel03272508013D

 21 22  0  0  0  0  0  0  0  0999 V2000
   38.0300   23.0750   34.7650 C   0  0  0  0  0  0  0  0  0  0  0  0
   38.0760   22.8780   36.1620 C   0  0  0  0  0  0  0  0  0  0  0  0
   38.1940   24.0150   36.9810 C   0  0  0  0  0  0  0  0  0  0  0  0
   38.2550   25.2320   36.3720 N   0  0  0  0  0  0  0  0  0  0  0  0
   38.2080   25.3770   35.0400 C   0  0  0  0  0  0  0  0  0  0  0  0
   38.0970   24.3090   34.2460 N   0  0  0  0  0  0  0  0  0  0  0  0
   38.0260   21.9050   36.6260 H   0  0  0  0  0  0  0  0  0  0  0  0
   38.2570   26.3500   34.5540 H   0  0  0  0  0  0  0  0  0  0  0  0
   37.9120   21.9280   33.9330 N   0  0  0  0  0  0  0  0  0  0  0  0
   39.0620   21.5140   33.2010 C   0  0  0  0  0  3  0  0  0  0  0  0
   39.4100   22.4230   32.6260 H   0  0  0  0  0  0  0  0  0  0  0  0
   38.8380   20.4180   32.2220 C   0  0  0  0  0  3  0  0  0  0  0  0
   39.3450   19.4980   32.6340 H   0  0  0  0  0  0  0  0  0  0  0  0
   37.4980   20.0510   31.9480 N   0  0  0  0  0  0  0  0  0  0  0  0
   37.3640   19.8940   30.9040 H   0  0  0  0  0  0  0  0  0  0  0  0
   36.4750   20.9560   32.3480 C   0  0  0  0  0  2  0  0  0  0  0  0
   36.6660   21.2230   33.8460 C   0  0  0  0  0  2  0  0  0  0  0  0
   38.2450   23.8490   38.4590 C   0  0  0  0  0  0  0  0  0  0  0  0
   37.3390   22.8700   38.7530 F   0  0  0  0  0  0  0  0  0  0  0  0
   39.4840   23.4380   38.9120 F   0  0  0  0  0  0  0  0  0  0  0  0
   37.8620   25.0070   39.1210 F   0  0  0  0  0  0  0  0  0  0  0  0
  1  2  1  0  0  0  0
  2  7  1  0  0  0  0
  2  3  2  0  0  0  0
  3 18  1  0  0  0  0
  4  3  1  0  0  0  0
  5  4  2  0  0  0  0
  6  1  2  0  0  0  0
  6  5  1  0  0  0  0
  8  5  1  0  0  0  0
  9  1  1  0  0  0  0
 10  9  1  0  0  0  0
 11 10  1  0  0  0  0
 12 13  1  0  0  0  0
 12 10  1  0  0  0  0
 14 12  1  0  0  0  0
 14 16  1  0  0  0  0
 15 14  1  0  0  0  0
 16 17  1  0  0  0  0
 17  9  1  0  0  0  0
 18 19  1  0  0  0  0
 18 20  1  0  0  0  0
 18 21  1  0  0  0  0
M  END
>  <minimizedAffinity>
-4.66113043

$$$$

 OpenBabel03272508013D

 21 22  0  0  0  0  0  0  0  0999 V2000
   38.0550   24.1700   34.8130 C   0  0  0  0  0  0  0  0  0  0  0  0
   37.8780   23.4200   33.6310 C   0  0  0  0  0  0  0  0  0  0  0  0
   37.4420   24.1020   32.4810 C   0  0  0  0  0  0  0  0  0  0  0  0
   37.2190   25.4420   32.5840 N   0  0  0  0  0  0  0  0  0  0  0  0
   37.3990   26.1190   33.7280 C   0  0  0  0  0  0  0  0  0  0  0  0
   37.8130   25.4890   34.8300 N   0  0  0  0  0  0  0  0  0  0  0  0
   38.0600   22.3580   33.5680 H   0  0  0  0  0  0  0  0  0  0  0  0
   37.2210   27.1890   33.8090 H   0  0  0  0  0  0  0  0  0  0  0  0
   38.4960   23.4840   35.9790 N   0  0  0  0  0  0  0  0  0  0  0  0
   38.1200   24.0150   37.2470 C   0  0  0  0  0  3  0  0  0  0  0  0
   38.4460   25.0970   37.2410 H   0  0  0  0  0  0  0  0  0  0  0  0
   38.7450   23.3600   38.4260 C   0  0  0  0  0  3  0  0  0  0  0  0
   37.9340   22.7780   38.9510 H   0  0  0  0  0  0  0  0  0  0  0  0
   39.8010   22.4490   38.1820 N   0  0  0  0  0  0  0  0  0  0  0  0
   40.5860   22.5950   38.8860 H   0  0  0  0  0  0  0  0  0  0  0  0
   40.4110   22.4770   36.8960 C   0  0  0  0  0  2  0  0  0  0  0  0
   39.2920   22.2980   35.8620 C   0  0  0  0  0  2  0  0  0  0  0  0
   37.2430   23.3470   31.2140 C   0  0  0  0  0  0  0  0  0  0  0  0
   35.8910   23.2020   31.0790 F   0  0  0  0  0  0  0  0  0  0  0  0
   37.7150   24.0220   30.1050 F   0  0  0  0  0  0  0  0  0  0  0  0
   37.8100   22.0820   31.2730 F   0  0  0  0  0  0  0  0  0  0  0  0
  1  6  1  0  0  0  0
  1  9  1  0  0  0  0
  2  1  2  0  0  0  0
  3  4  2  0  0  0  0
  3  2  1  0  0  0  0
  4  5  1  0  0  0  0
  5  8  1  0  0  0  0
  5  6  2  0  0  0  0
  7  2  1  0  0  0  0
  9 10  1  0  0  0  0
 10 12  1  0  0  0  0
 11 10  1  0  0  0  0
 12 13  1  0  0  0  0
 14 12  1  0  0  0  0
 14 15  1  0  0  0  0
 16 14  1  0  0  0  0
 17  9  1  0  0  0  0
 17 16  1  0  0  0  0
 18 21  1  0  0  0  0
 18  3  1  0  0  0  0
 19 18  1  0  0  0  0
 20 18  1  0  0  0  0
M  END
>  <minimizedAffinity>
-4.59240246

$$$$

 OpenBabel03272508013D

 21 22  0  0  0  0  0  0  0  0999 V2000
   38.1620   22.2140   34.6750 C   0  0  0  0  0  0  0  0  0  0  0  0
   37.7380   22.7320   35.9170 C   0  0  0  0  0  0  0  0  0  0  0  0
   38.7220   23.0070   36.8830 C   0  0  0  0  0  0  0  0  0  0  0  0
   40.0210   22.7550   36.5560 N   0  0  0  0  0  0  0  0  0  0  0  0
   40.3820   22.2620   35.3630 C   0  0  0  0  0  0  0  0  0  0  0  0
   39.4620   21.9940   34.4330 N   0  0  0  0  0  0  0  0  0  0  0  0
   36.7040   22.9250   36.1590 H   0  0  0  0  0  0  0  0  0  0  0  0
   41.4200   22.0610   35.1010 H   0  0  0  0  0  0  0  0  0  0  0  0
   37.1700   21.9340   33.6950 N   0  0  0  0  0  0  0  0  0  0  0  0
   36.1620   20.9800   34.0200 C   0  0  0  0  0  3  0  0  0  0  0  0
   36.7090   20.0480   34.3500 H   0  0  0  0  0  0  0  0  0  0  0  0
   35.2540   20.6020   32.9050 C   0  0  0  0  0  3  0  0  0  0  0  0
   34.2450   21.0510   33.1320 H   0  0  0  0  0  0  0  0  0  0  0  0
   35.6050   21.0350   31.6030 N   0  0  0  0  0  0  0  0  0  0  0  0
   35.4480   20.2530   30.8980 H   0  0  0  0  0  0  0  0  0  0  0  0
   36.9370   21.4920   31.3990 C   0  0  0  0  0  2  0  0  0  0  0  0
   37.1980   22.6010   32.4260 C   0  0  0  0  0  2  0  0  0  0  0  0
   38.3160   23.5540   38.2060 C   0  0  0  0  0  0  0  0  0  0  0  0
   39.4230   23.4590   39.0010 F   0  0  0  0  0  0  0  0  0  0  0  0
   37.9430   24.8830   38.1480 F   0  0  0  0  0  0  0  0  0  0  0  0
   37.3020   22.8050   38.7850 F   0  0  0  0  0  0  0  0  0  0  0  0
  1  2  1  0  0  0  0
  2  7  1  0  0  0  0
  2  3  2  0  0  0  0
  3 18  1  0  0  0  0
  4  3  1  0  0  0  0
  5  4  2  0  0  0  0
  6  1  2  0  0  0  0
  6  5  1  0  0  0  0
  8  5  1  0  0  0  0
  9 10  1  0  0  0  0
  9  1  1  0  0  0  0
 10 11  1  0  0  0  0
 12 13  1  0  0  0  0
 12 10  1  0  0  0  0
 14 12  1  0  0  0  0
 15 14  1  0  0  0  0
 16 14  1  0  0  0  0
 16 17  1  0  0  0  0
 17  9  1  0  0  0  0
 18 21  1  0  0  0  0
 18 19  1  0  0  0  0
 20 18  1  0  0  0  0
M  END
>  <minimizedAffinity>
-4.57378912

$$$$

 OpenBabel03272508013D

 21 22  0  0  0  0  0  0  0  0999 V2000
   38.4890   24.5310   35.9980 C   0  0  0  0  0  0  0  0  0  0  0  0
   39.6850   23.7860   35.9140 C   0  0  0  0  0  0  0  0  0  0  0  0
   40.0480   23.0020   37.0230 C   0  0  0  0  0  0  0  0  0  0  0  0
   39.2210   23.0130   38.1060 N   0  0  0  0  0  0  0  0  0  0  0  0
   38.0930   23.7360   38.1460 C   0  0  0  0  0  0  0  0  0  0  0  0
   37.7310   24.4860   37.1030 N   0  0  0  0  0  0  0  0  0  0  0  0
   40.3270   23.7890   35.0470 H   0  0  0  0  0  0  0  0  0  0  0  0
   37.4320   23.7440   39.0120 H   0  0  0  0  0  0  0  0  0  0  0  0
   38.1180   25.3250   34.8780 N   0  0  0  0  0  0  0  0  0  0  0  0
   37.4300   26.5480   35.1270 C   0  0  0  0  0  3  0  0  0  0  0  0
   36.5410   26.2800   35.7720 H   0  0  0  0  0  0  0  0  0  0  0  0
   36.9190   27.2530   33.9220 C   0  0  0  0  0  3  0  0  0  0  0  0
   37.5500   28.1770   33.7860 H   0  0  0  0  0  0  0  0  0  0  0  0
   36.9590   26.5530   32.6910 N   0  0  0  0  0  0  0  0  0  0  0  0
   36.0570   26.7080   32.1480 H   0  0  0  0  0  0  0  0  0  0  0  0
   37.1550   25.1440   32.7420 C   0  0  0  0  0  2  0  0  0  0  0  0
   38.4360   24.8950   33.5480 C   0  0  0  0  0  2  0  0  0  0  0  0
   41.3020   22.2010   36.9750 C   0  0  0  0  0  0  0  0  0  0  0  0
   41.2450   21.4970   35.8050 F   0  0  0  0  0  0  0  0  0  0  0  0
   42.4400   22.9840   36.9500 F   0  0  0  0  0  0  0  0  0  0  0  0
   41.3760   21.2950   38.0230 F   0  0  0  0  0  0  0  0  0  0  0  0
  1  6  1  0  0  0  0
  2  1  2  0  0  0  0
  2  3  1  0  0  0  0
  3  4  2  0  0  0  0
  4  5  1  0  0  0  0
  5  8  1  0  0  0  0
  6  5  2  0  0  0  0
  7  2  1  0  0  0  0
  9 10  1  0  0  0  0
  9  1  1  0  0  0  0
 10 11  1  0  0  0  0
 12 10  1  0  0  0  0
 13 12  1  0  0  0  0
 14 16  1  0  0  0  0
 14 12  1  0  0  0  0
 15 14  1  0  0  0  0
 16 17  1  0  0  0  0
 17  9  1  0  0  0  0
 18  3  1  0  0  0  0
 18 21  1  0  0  0  0
 19 18  1  0  0  0  0
 20 18  1  0  0  0  0
M  END
>  <minimizedAffinity>
-4.50389385

$$$$

 OpenBabel03272508013D

 21 22  0  0  0  0  0  0  0  0999 V2000
   38.7650   24.4270   34.7480 C   0  0  0  0  0  0  0  0  0  0  0  0
   38.7820   24.5470   36.1540 C   0  0  0  0  0  0  0  0  0  0  0  0
   38.2640   23.4810   36.9090 C   0  0  0  0  0  0  0  0  0  0  0  0
   37.7800   22.4010   36.2340 N   0  0  0  0  0  0  0  0  0  0  0  0
   37.7810   22.3260   34.8950 C   0  0  0  0  0  0  0  0  0  0  0  0
   38.2690   23.3290   34.1610 N   0  0  0  0  0  0  0  0  0  0  0  0
   39.1710   25.4110   36.6710 H   0  0  0  0  0  0  0  0  0  0  0  0
   37.3940   21.4630   34.3560 H   0  0  0  0  0  0  0  0  0  0  0  0
   39.2870   25.5040   33.9800 N   0  0  0  0  0  0  0  0  0  0  0  0
   39.3360   25.3510   32.5630 C   0  0  0  0  0  3  0  0  0  0  0  0
   39.8890   24.3850   32.3730 H   0  0  0  0  0  0  0  0  0  0  0  0
   40.0420   26.4310   31.8260 C   0  0  0  0  0  3  0  0  0  0  0  0
   39.2580   27.0200   31.2690 H   0  0  0  0  0  0  0  0  0  0  0  0
   40.7810   27.3670   32.5900 N   0  0  0  0  0  0  0  0  0  0  0  0
   41.7160   27.5700   32.1230 H   0  0  0  0  0  0  0  0  0  0  0  0
   41.0780   27.0260   33.9400 C   0  0  0  0  0  2  0  0  0  0  0  0
   39.7460   26.6990   34.6270 C   0  0  0  0  0  2  0  0  0  0  0  0
   38.2650   23.5680   38.3950 C   0  0  0  0  0  0  0  0  0  0  0  0
   37.8600   24.8390   38.6910 F   0  0  0  0  0  0  0  0  0  0  0  0
   37.3800   22.6880   38.9870 F   0  0  0  0  0  0  0  0  0  0  0  0
   39.5360   23.3850   38.9220 F   0  0  0  0  0  0  0  0  0  0  0  0
  1  2  1  0  0  0  0
  2  7  1  0  0  0  0
  2  3  2  0  0  0  0
  3 18  1  0  0  0  0
  4  3  1  0  0  0  0
  5  4  2  0  0  0  0
  6  1  2  0  0  0  0
  6  5  1  0  0  0  0
  8  5  1  0  0  0  0
  9 17  1  0  0  0  0
  9  1  1  0  0  0  0
 10  9  1  0  0  0  0
 11 10  1  0  0  0  0
 12 10  1  0  0  0  0
 12 14  1  0  0  0  0
 13 12  1  0  0  0  0
 14 16  1  0  0  0  0
 15 14  1  0  0  0  0
 16 17  1  0  0  0  0
 18 19  1  0  0  0  0
 18 21  1  0  0  0  0
 18 20  1  0  0  0  0
M  END
>  <minimizedAffinity>
-4.48125124

$$$$
