
 OpenBabel03272500313D

 28 30  0  0  0  0  0  0  0  0999 V2000
   38.6480   25.5940   34.8510 Cl  0  0  0  0  0  0  0  0  0  0  0  0
   37.9920   24.1990   33.9940 C   0  0  0  0  0  0  0  0  0  0  0  0
   37.5720   24.4450   32.7120 C   0  0  0  0  0  0  0  0  0  0  0  0
   37.0430   23.3490   32.0010 C   0  0  0  0  0  0  0  0  0  0  0  0
   36.9770   22.1260   32.6120 C   0  0  0  0  0  0  0  0  0  0  0  0
   37.4190   21.9700   33.8990 C   0  0  0  0  0  0  0  0  0  0  0  0
   37.9400   22.9940   34.6350 C   0  0  0  0  0  0  0  0  0  0  0  0
   36.6900   23.4690   30.9810 H   0  0  0  0  0  0  0  0  0  0  0  0
   36.5680   21.2970   32.0510 H   0  0  0  0  0  0  0  0  0  0  0  0
   37.3470   20.9730   34.3480 H   0  0  0  0  0  0  0  0  0  0  0  0
   36.6780   27.8290   31.6880 C   0  0  0  0  0  0  0  0  0  0  0  0
   37.7720   28.2600   30.9410 C   0  0  0  0  0  0  0  0  0  0  0  0
   38.8360   27.3620   30.7900 C   0  0  0  0  0  0  0  0  0  0  0  0
   38.7380   26.1420   31.3750 N   0  0  0  0  0  0  0  0  0  0  0  0
   37.6580   25.7630   32.0920 C   0  0  0  0  0  0  0  0  0  0  0  0
   36.6400   26.6140   32.2390 N   0  0  0  0  0  0  0  0  0  0  0  0
   35.8860   28.5630   31.7700 H   0  0  0  0  0  0  0  0  0  0  0  0
   37.8910   29.2230   30.4590 H   0  0  0  0  0  0  0  0  0  0  0  0
   39.7600   27.5580   30.2340 H   0  0  0  0  0  0  0  0  0  0  0  0
   38.3880   22.7830   35.9680 N   0  0  0  0  0  0  0  0  0  0  0  0
   39.7110   22.2580   36.2180 C   0  0  0  0  0  3  0  0  0  0  0  0
   39.5810   21.1380   36.2710 H   0  0  0  0  0  0  0  0  0  0  0  0
   40.2670   22.6490   37.5660 C   0  0  0  0  0  3  0  0  0  0  0  0
   41.0210   21.8640   37.8480 H   0  0  0  0  0  0  0  0  0  0  0  0
   39.2740   22.6340   38.6160 N   0  0  0  0  0  0  0  0  0  0  0  0
   38.9740   21.6990   38.9060 H   0  0  0  0  0  0  0  0  0  0  0  0
   38.1870   23.5260   38.2960 C   0  0  0  0  0  2  0  0  0  0  0  0
   37.4600   23.1160   37.0370 C   0  0  0  0  0  2  0  0  0  0  0  0
  2  7  1  0  0  0  0
  2  1  1  0  0  0  0
  3  2  2  0  0  0  0
  4  5  2  0  0  0  0
  4  3  1  0  0  0  0
  5  6  1  0  0  0  0
  6 10  1  0  0  0  0
  6  7  2  0  0  0  0
  7 20  1  0  0  0  0
  8  4  1  0  0  0  0
  9  5  1  0  0  0  0
 11 17  1  0  0  0  0
 11 16  1  0  0  0  0
 12 11  2  0  0  0  0
 13 12  1  0  0  0  0
 13 14  2  0  0  0  0
 14 15  1  0  0  0  0
 15 16  2  0  0  0  0
 15  3  1  0  0  0  0
 18 12  1  0  0  0  0
 19 13  1  0  0  0  0
 20 21  1  0  0  0  0
 20 28  1  0  0  0  0
 21 22  1  0  0  0  0
 21 23  1  0  0  0  0
 23 24  1  0  0  0  0
 23 25  1  0  0  0  0
 25 26  1  0  0  0  0
 27 25  1  0  0  0  0
 28 27  1  0  0  0  0
M  END
>  <minimizedAffinity>
-5.15097904

$$$$

 OpenBabel03272500313D

 28 30  0  0  0  0  0  0  0  0999 V2000
   37.7770   23.2710   33.6320 Cl  0  0  0  0  0  0  0  0  0  0  0  0
   36.8220   24.3070   32.5710 C   0  0  0  0  0  0  0  0  0  0  0  0
   36.0340   23.6460   31.6640 C   0  0  0  0  0  0  0  0  0  0  0  0
   35.2570   24.4460   30.8020 C   0  0  0  0  0  0  0  0  0  0  0  0
   35.3290   25.8080   30.9100 C   0  0  0  0  0  0  0  0  0  0  0  0
   36.1460   26.3870   31.8460 C   0  0  0  0  0  0  0  0  0  0  0  0
   36.9180   25.6630   32.7070 C   0  0  0  0  0  0  0  0  0  0  0  0
   34.6090   23.9920   30.0580 H   0  0  0  0  0  0  0  0  0  0  0  0
   34.7270   26.4070   30.2400 H   0  0  0  0  0  0  0  0  0  0  0  0
   36.1710   27.4810   31.8980 H   0  0  0  0  0  0  0  0  0  0  0  0
   34.9480   20.2050   32.1930 C   0  0  0  0  0  0  0  0  0  0  0  0
   35.8420   19.4440   31.4430 C   0  0  0  0  0  0  0  0  0  0  0  0
   36.8380   20.1370   30.7440 C   0  0  0  0  0  0  0  0  0  0  0  0
   36.8700   21.4900   30.8370 N   0  0  0  0  0  0  0  0  0  0  0  0
   35.9820   22.1910   31.5760 C   0  0  0  0  0  0  0  0  0  0  0  0
   35.0300   21.5360   32.2470 N   0  0  0  0  0  0  0  0  0  0  0  0
   34.2010   19.6170   32.7120 H   0  0  0  0  0  0  0  0  0  0  0  0
   35.8520   18.3660   31.3410 H   0  0  0  0  0  0  0  0  0  0  0  0
   37.6100   19.6790   30.1140 H   0  0  0  0  0  0  0  0  0  0  0  0
   37.7500   26.3080   33.6620 N   0  0  0  0  0  0  0  0  0  0  0  0
   37.2450   26.6100   34.9820 C   0  0  0  0  0  3  0  0  0  0  0  0
   36.8220   27.6540   34.9060 H   0  0  0  0  0  0  0  0  0  0  0  0
   38.3250   26.7050   36.0320 C   0  0  0  0  0  3  0  0  0  0  0  0
   37.9290   27.3670   36.8500 H   0  0  0  0  0  0  0  0  0  0  0  0
   39.5280   27.3490   35.5540 N   0  0  0  0  0  0  0  0  0  0  0  0
   39.4430   28.3600   35.4150 H   0  0  0  0  0  0  0  0  0  0  0  0
   40.0600   26.6430   34.4150 C   0  0  0  0  0  2  0  0  0  0  0  0
   39.1050   26.6370   33.2450 C   0  0  0  0  0  2  0  0  0  0  0  0
  2  7  1  0  0  0  0
  2  1  1  0  0  0  0
  3  2  2  0  0  0  0
  4  5  2  0  0  0  0
  4  3  1  0  0  0  0
  5  6  1  0  0  0  0
  6 10  1  0  0  0  0
  6  7  2  0  0  0  0
  7 20  1  0  0  0  0
  8  4  1  0  0  0  0
  9  5  1  0  0  0  0
 11 16  1  0  0  0  0
 11 17  1  0  0  0  0
 12 11  2  0  0  0  0
 13 14  2  0  0  0  0
 13 12  1  0  0  0  0
 14 15  1  0  0  0  0
 15  3  1  0  0  0  0
 15 16  2  0  0  0  0
 18 12  1  0  0  0  0
 19 13  1  0  0  0  0
 20 21  1  0  0  0  0
 21 23  1  0  0  0  0
 22 21  1  0  0  0  0
 23 24  1  0  0  0  0
 25 23  1  0  0  0  0
 26 25  1  0  0  0  0
 27 25  1  0  0  0  0
 28 20  1  0  0  0  0
 28 27  1  0  0  0  0
M  END
>  <minimizedAffinity>
-5.03397655

$$$$

 OpenBabel03272500313D

 28 30  0  0  0  0  0  0  0  0999 V2000
   38.3320   26.4930   34.9360 Cl  0  0  0  0  0  0  0  0  0  0  0  0
   37.9820   24.9880   34.0850 C   0  0  0  0  0  0  0  0  0  0  0  0
   37.5590   25.1360   32.7890 C   0  0  0  0  0  0  0  0  0  0  0  0
   37.2710   23.9500   32.0820 C   0  0  0  0  0  0  0  0  0  0  0  0
   37.4240   22.7440   32.7100 C   0  0  0  0  0  0  0  0  0  0  0  0
   37.8520   22.6900   34.0100 C   0  0  0  0  0  0  0  0  0  0  0  0
   38.1450   23.8030   34.7430 C   0  0  0  0  0  0  0  0  0  0  0  0
   36.9300   23.9890   31.0510 H   0  0  0  0  0  0  0  0  0  0  0  0
   37.1970   21.8460   32.1530 H   0  0  0  0  0  0  0  0  0  0  0  0
   37.9600   21.7020   34.4730 H   0  0  0  0  0  0  0  0  0  0  0  0
   38.3090   28.1020   30.8050 C   0  0  0  0  0  0  0  0  0  0  0  0
   37.1690   28.8920   30.9270 C   0  0  0  0  0  0  0  0  0  0  0  0
   36.1230   28.3880   31.7100 C   0  0  0  0  0  0  0  0  0  0  0  0
   36.2830   27.1750   32.2950 N   0  0  0  0  0  0  0  0  0  0  0  0
   37.4070   26.4380   32.1510 C   0  0  0  0  0  0  0  0  0  0  0  0
   38.4080   26.9140   31.4070 N   0  0  0  0  0  0  0  0  0  0  0  0
   39.0840   28.5410   30.1900 H   0  0  0  0  0  0  0  0  0  0  0  0
   37.0000   29.8630   30.4780 H   0  0  0  0  0  0  0  0  0  0  0  0
   35.1680   28.8920   31.8980 H   0  0  0  0  0  0  0  0  0  0  0  0
   38.5870   23.6960   36.0900 N   0  0  0  0  0  0  0  0  0  0  0  0
   37.6710   23.9520   37.1790 C   0  0  0  0  0  3  0  0  0  0  0  0
   37.7880   25.0500   37.4130 H   0  0  0  0  0  0  0  0  0  0  0  0
   38.0450   23.2410   38.4580 C   0  0  0  0  0  3  0  0  0  0  0  0
   37.6000   23.8340   39.3040 H   0  0  0  0  0  0  0  0  0  0  0  0
   39.4710   23.2210   38.7010 N   0  0  0  0  0  0  0  0  0  0  0  0
   39.8690   24.1240   38.9750 H   0  0  0  0  0  0  0  0  0  0  0  0
   40.1610   22.5840   37.6070 C   0  0  0  0  0  2  0  0  0  0  0  0
   39.9770   23.3240   36.3030 C   0  0  0  0  0  2  0  0  0  0  0  0
  2  7  1  0  0  0  0
  2  1  1  0  0  0  0
  3  2  2  0  0  0  0
  4  5  2  0  0  0  0
  4  3  1  0  0  0  0
  5  6  1  0  0  0  0
  6 10  1  0  0  0  0
  6  7  2  0  0  0  0
  7 20  1  0  0  0  0
  8  4  1  0  0  0  0
  9  5  1  0  0  0  0
 11 12  2  0  0  0  0
 11 16  1  0  0  0  0
 12 13  1  0  0  0  0
 13 19  1  0  0  0  0
 13 14  2  0  0  0  0
 15 14  1  0  0  0  0
 15  3  1  0  0  0  0
 16 15  2  0  0  0  0
 17 11  1  0  0  0  0
 18 12  1  0  0  0  0
 20 28  1  0  0  0  0
 20 21  1  0  0  0  0
 21 22  1  0  0  0  0
 21 23  1  0  0  0  0
 23 25  1  0  0  0  0
 23 24  1  0  0  0  0
 25 26  1  0  0  0  0
 27 25  1  0  0  0  0
 28 27  1  0  0  0  0
M  END
>  <minimizedAffinity>
-4.93982697

$$$$

 OpenBabel03272500313D

 28 30  0  0  0  0  0  0  0  0999 V2000
   38.3090   25.4530   34.2350 Cl  0  0  0  0  0  0  0  0  0  0  0  0
   37.7530   23.9270   33.5470 C   0  0  0  0  0  0  0  0  0  0  0  0
   37.8310   22.8450   34.3870 C   0  0  0  0  0  0  0  0  0  0  0  0
   37.3930   21.6110   33.8670 C   0  0  0  0  0  0  0  0  0  0  0  0
   36.9250   21.5560   32.5830 C   0  0  0  0  0  0  0  0  0  0  0  0
   36.8820   22.6870   31.8120 C   0  0  0  0  0  0  0  0  0  0  0  0
   37.2920   23.9080   32.2620 C   0  0  0  0  0  0  0  0  0  0  0  0
   37.4260   20.7110   34.4750 H   0  0  0  0  0  0  0  0  0  0  0  0
   36.5930   20.6000   32.2000 H   0  0  0  0  0  0  0  0  0  0  0  0
   36.4990   22.5970   30.7890 H   0  0  0  0  0  0  0  0  0  0  0  0
   40.1130   22.7040   37.2280 C   0  0  0  0  0  0  0  0  0  0  0  0
   39.3360   23.1030   38.3120 C   0  0  0  0  0  0  0  0  0  0  0  0
   37.9980   23.4270   38.0530 C   0  0  0  0  0  0  0  0  0  0  0  0
   37.5470   23.3330   36.7770 N   0  0  0  0  0  0  0  0  0  0  0  0
   38.3360   22.9410   35.7520 C   0  0  0  0  0  0  0  0  0  0  0  0
   39.6120   22.6300   35.9930 N   0  0  0  0  0  0  0  0  0  0  0  0
   41.1380   22.4660   37.4860 H   0  0  0  0  0  0  0  0  0  0  0  0
   39.6550   23.1920   39.3430 H   0  0  0  0  0  0  0  0  0  0  0  0
   37.2670   23.7560   38.8000 H   0  0  0  0  0  0  0  0  0  0  0  0
   37.2290   25.0560   31.4240 N   0  0  0  0  0  0  0  0  0  0  0  0
   36.0120   25.8320   31.3440 C   0  0  0  0  0  3  0  0  0  0  0  0
   35.4330   25.3880   30.4820 H   0  0  0  0  0  0  0  0  0  0  0  0
   36.2430   27.2720   30.9550 C   0  0  0  0  0  3  0  0  0  0  0  0
   35.2920   27.6400   30.4800 H   0  0  0  0  0  0  0  0  0  0  0  0
   37.2710   27.4320   29.9500 N   0  0  0  0  0  0  0  0  0  0  0  0
   37.0000   27.1240   29.0120 H   0  0  0  0  0  0  0  0  0  0  0  0
   38.5190   26.8790   30.4120 C   0  0  0  0  0  2  0  0  0  0  0  0
   38.4280   25.3940   30.6730 C   0  0  0  0  0  2  0  0  0  0  0  0
  2  1  1  0  0  0  0
  2  3  1  0  0  0  0
  3 15  1  0  0  0  0
  4  3  2  0  0  0  0
  4  8  1  0  0  0  0
  5  4  1  0  0  0  0
  6  7  1  0  0  0  0
  6  5  2  0  0  0  0
  7  2  2  0  0  0  0
  9  5  1  0  0  0  0
 10  6  1  0  0  0  0
 11 17  1  0  0  0  0
 11 12  1  0  0  0  0
 12 18  1  0  0  0  0
 13 12  2  0  0  0  0
 13 19  1  0  0  0  0
 14 13  1  0  0  0  0
 15 16  1  0  0  0  0
 15 14  2  0  0  0  0
 16 11  2  0  0  0  0
 20  7  1  0  0  0  0
 21 20  1  0  0  0  0
 22 21  1  0  0  0  0
 23 21  1  0  0  0  0
 24 23  1  0  0  0  0
 25 27  1  0  0  0  0
 25 23  1  0  0  0  0
 26 25  1  0  0  0  0
 27 28  1  0  0  0  0
 28 20  1  0  0  0  0
M  END
>  <minimizedAffinity>
-4.77508688

$$$$

 OpenBabel03272500313D

 28 30  0  0  0  0  0  0  0  0999 V2000
   37.0240   25.5690   32.8650 Cl  0  0  0  0  0  0  0  0  0  0  0  0
   38.6400   26.0300   33.4010 C   0  0  0  0  0  0  0  0  0  0  0  0
   39.2510   26.9970   32.6440 C   0  0  0  0  0  0  0  0  0  0  0  0
   40.5440   27.3880   33.0470 C   0  0  0  0  0  0  0  0  0  0  0  0
   41.1090   26.7970   34.1440 C   0  0  0  0  0  0  0  0  0  0  0  0
   40.4250   25.8360   34.8430 C   0  0  0  0  0  0  0  0  0  0  0  0
   39.1730   25.4190   34.5000 C   0  0  0  0  0  0  0  0  0  0  0  0
   41.0900   28.1480   32.4950 H   0  0  0  0  0  0  0  0  0  0  0  0
   42.1020   27.1080   34.4390 H   0  0  0  0  0  0  0  0  0  0  0  0
   40.9160   25.3900   35.7150 H   0  0  0  0  0  0  0  0  0  0  0  0
   36.9290   28.9460   30.6180 C   0  0  0  0  0  0  0  0  0  0  0  0
   37.3880   28.7770   29.3130 C   0  0  0  0  0  0  0  0  0  0  0  0
   38.5220   27.9740   29.1350 C   0  0  0  0  0  0  0  0  0  0  0  0
   39.0960   27.4170   30.2300 N   0  0  0  0  0  0  0  0  0  0  0  0
   38.6190   27.6060   31.4800 C   0  0  0  0  0  0  0  0  0  0  0  0
   37.5370   28.3700   31.6560 N   0  0  0  0  0  0  0  0  0  0  0  0
   36.0510   29.5750   30.6950 H   0  0  0  0  0  0  0  0  0  0  0  0
   36.9610   29.2030   28.4140 H   0  0  0  0  0  0  0  0  0  0  0  0
   38.9980   27.7500   28.1740 H   0  0  0  0  0  0  0  0  0  0  0  0
   38.5020   24.4190   35.2560 N   0  0  0  0  0  0  0  0  0  0  0  0
   38.4840   23.0480   34.7970 C   0  0  0  0  0  3  0  0  0  0  0  0
   37.5470   22.9560   34.1740 H   0  0  0  0  0  0  0  0  0  0  0  0
   38.3100   22.0440   35.9110 C   0  0  0  0  0  3  0  0  0  0  0  0
   37.8540   21.1240   35.4530 H   0  0  0  0  0  0  0  0  0  0  0  0
   37.3770   22.4790   36.9270 N   0  0  0  0  0  0  0  0  0  0  0  0
   36.3950   22.4680   36.6360 H   0  0  0  0  0  0  0  0  0  0  0  0
   37.8050   23.7290   37.5030 C   0  0  0  0  0  2  0  0  0  0  0  0
   37.8520   24.8440   36.4860 C   0  0  0  0  0  2  0  0  0  0  0  0
  1  2  1  0  0  0  0
  2  7  1  0  0  0  0
  3  4  1  0  0  0  0
  3  2  2  0  0  0  0
  4  5  2  0  0  0  0
  5  9  1  0  0  0  0
  5  6  1  0  0  0  0
  6 10  1  0  0  0  0
  7  6  2  0  0  0  0
  7 20  1  0  0  0  0
  8  4  1  0  0  0  0
 11 17  1  0  0  0  0
 11 16  1  0  0  0  0
 12 11  2  0  0  0  0
 13 12  1  0  0  0  0
 13 14  2  0  0  0  0
 14 15  1  0  0  0  0
 15 16  2  0  0  0  0
 15  3  1  0  0  0  0
 18 12  1  0  0  0  0
 19 13  1  0  0  0  0
 20 28  1  0  0  0  0
 21 20  1  0  0  0  0
 21 23  1  0  0  0  0
 22 21  1  0  0  0  0
 23 25  1  0  0  0  0
 24 23  1  0  0  0  0
 25 27  1  0  0  0  0
 26 25  1  0  0  0  0
 28 27  1  0  0  0  0
M  END
>  <minimizedAffinity>
-4.7506423

$$$$

 OpenBabel03272500313D

 28 30  0  0  0  0  0  0  0  0999 V2000
   38.4450   26.3700   35.0080 Cl  0  0  0  0  0  0  0  0  0  0  0  0
   38.0510   25.0030   33.9660 C   0  0  0  0  0  0  0  0  0  0  0  0
   38.0750   23.7760   34.5790 C   0  0  0  0  0  0  0  0  0  0  0  0
   37.7630   22.6630   33.7720 C   0  0  0  0  0  0  0  0  0  0  0  0
   37.4610   22.8580   32.4520 C   0  0  0  0  0  0  0  0  0  0  0  0
   37.4610   24.1210   31.9210 C   0  0  0  0  0  0  0  0  0  0  0  0
   37.7540   25.2350   32.6530 C   0  0  0  0  0  0  0  0  0  0  0  0
   37.7630   21.6600   34.1890 H   0  0  0  0  0  0  0  0  0  0  0  0
   37.2250   21.9930   31.8480 H   0  0  0  0  0  0  0  0  0  0  0  0
   37.2130   24.2310   30.8590 H   0  0  0  0  0  0  0  0  0  0  0  0
   39.9110   22.8810   37.5990 C   0  0  0  0  0  0  0  0  0  0  0  0
   39.0640   23.2590   38.6390 C   0  0  0  0  0  0  0  0  0  0  0  0
   37.8360   23.8320   38.2860 C   0  0  0  0  0  0  0  0  0  0  0  0
   37.5510   23.9840   36.9690 N   0  0  0  0  0  0  0  0  0  0  0  0
   38.4020   23.6050   35.9900 C   0  0  0  0  0  0  0  0  0  0  0  0
   39.5730   23.0560   36.3200 N   0  0  0  0  0  0  0  0  0  0  0  0
   40.8440   22.4440   37.9310 H   0  0  0  0  0  0  0  0  0  0  0  0
   39.2530   23.1560   39.7010 H   0  0  0  0  0  0  0  0  0  0  0  0
   37.0690   24.1780   38.9880 H   0  0  0  0  0  0  0  0  0  0  0  0
   37.7410   26.5260   32.0580 N   0  0  0  0  0  0  0  0  0  0  0  0
   38.9510   27.0810   31.4950 C   0  0  0  0  0  3  0  0  0  0  0  0
   39.4280   27.6660   32.3350 H   0  0  0  0  0  0  0  0  0  0  0  0
   38.6970   28.0980   30.4090 C   0  0  0  0  0  3  0  0  0  0  0  0
   39.5950   28.7740   30.3770 H   0  0  0  0  0  0  0  0  0  0  0  0
   37.5690   28.9590   30.6890 N   0  0  0  0  0  0  0  0  0  0  0  0
   37.7330   29.6490   31.4280 H   0  0  0  0  0  0  0  0  0  0  0  0
   36.3710   28.1780   30.8710 C   0  0  0  0  0  2  0  0  0  0  0  0
   36.4720   27.2370   32.0490 C   0  0  0  0  0  2  0  0  0  0  0  0
  2  3  1  0  0  0  0
  2  1  1  0  0  0  0
  3 15  1  0  0  0  0
  4  8  1  0  0  0  0
  4  3  2  0  0  0  0
  5  4  1  0  0  0  0
  6  5  2  0  0  0  0
  6  7  1  0  0  0  0
  7  2  2  0  0  0  0
  9  5  1  0  0  0  0
 10  6  1  0  0  0  0
 11 17  1  0  0  0  0
 11 12  1  0  0  0  0
 12 18  1  0  0  0  0
 13 12  2  0  0  0  0
 13 19  1  0  0  0  0
 14 13  1  0  0  0  0
 15 16  1  0  0  0  0
 15 14  2  0  0  0  0
 16 11  2  0  0  0  0
 20  7  1  0  0  0  0
 21 20  1  0  0  0  0
 21 22  1  0  0  0  0
 23 25  1  0  0  0  0
 23 21  1  0  0  0  0
 24 23  1  0  0  0  0
 25 27  1  0  0  0  0
 25 26  1  0  0  0  0
 27 28  1  0  0  0  0
 28 20  1  0  0  0  0
M  END
>  <minimizedAffinity>
-4.64731359

$$$$

 OpenBabel03272500313D

 28 30  0  0  0  0  0  0  0  0999 V2000
   38.0980   27.1990   33.3550 Cl  0  0  0  0  0  0  0  0  0  0  0  0
   37.1580   25.9630   32.5190 C   0  0  0  0  0  0  0  0  0  0  0  0
   37.4490   24.6700   32.8720 C   0  0  0  0  0  0  0  0  0  0  0  0
   36.7130   23.6590   32.2210 C   0  0  0  0  0  0  0  0  0  0  0  0
   35.7710   24.0100   31.2930 C   0  0  0  0  0  0  0  0  0  0  0  0
   35.5460   25.3290   31.0010 C   0  0  0  0  0  0  0  0  0  0  0  0
   36.2270   26.3500   31.5980 C   0  0  0  0  0  0  0  0  0  0  0  0
   36.8900   22.6110   32.4490 H   0  0  0  0  0  0  0  0  0  0  0  0
   35.2170   23.2210   30.8030 H   0  0  0  0  0  0  0  0  0  0  0  0
   34.7820   25.5650   30.2510 H   0  0  0  0  0  0  0  0  0  0  0  0
   40.6710   23.8010   34.3420 C   0  0  0  0  0  0  0  0  0  0  0  0
   40.4060   23.6880   35.7050 C   0  0  0  0  0  0  0  0  0  0  0  0
   39.0880   23.9160   36.1200 C   0  0  0  0  0  0  0  0  0  0  0  0
   38.1620   24.2310   35.1800 N   0  0  0  0  0  0  0  0  0  0  0  0
   38.4610   24.3310   33.8660 C   0  0  0  0  0  0  0  0  0  0  0  0
   39.7150   24.1130   33.4640 N   0  0  0  0  0  0  0  0  0  0  0  0
   41.7050   23.6140   34.0790 H   0  0  0  0  0  0  0  0  0  0  0  0
   41.1140   23.4400   36.4860 H   0  0  0  0  0  0  0  0  0  0  0  0
   38.7280   23.8640   37.1530 H   0  0  0  0  0  0  0  0  0  0  0  0
   35.9570   27.7050   31.2620 N   0  0  0  0  0  0  0  0  0  0  0  0
   35.0500   28.4890   32.0700 C   0  0  0  0  0  3  0  0  0  0  0  0
   34.0360   28.3530   31.5940 H   0  0  0  0  0  0  0  0  0  0  0  0
   35.3150   29.9740   32.0010 C   0  0  0  0  0  3  0  0  0  0  0  0
   34.3470   30.4900   32.2440 H   0  0  0  0  0  0  0  0  0  0  0  0
   35.6790   30.4250   30.6760 N   0  0  0  0  0  0  0  0  0  0  0  0
   34.9070   30.4360   30.0030 H   0  0  0  0  0  0  0  0  0  0  0  0
   36.8530   29.7300   30.2100 C   0  0  0  0  0  2  0  0  0  0  0  0
   36.6290   28.2410   30.0890 C   0  0  0  0  0  2  0  0  0  0  0  0
  2  3  1  0  0  0  0
  2  1  1  0  0  0  0
  3 15  1  0  0  0  0
  4  8  1  0  0  0  0
  4  3  2  0  0  0  0
  5  4  1  0  0  0  0
  6  5  2  0  0  0  0
  6  7  1  0  0  0  0
  7  2  2  0  0  0  0
  9  5  1  0  0  0  0
 10  6  1  0  0  0  0
 11 12  1  0  0  0  0
 12 13  2  0  0  0  0
 12 18  1  0  0  0  0
 13 19  1  0  0  0  0
 14 13  1  0  0  0  0
 15 14  2  0  0  0  0
 16 15  1  0  0  0  0
 16 11  2  0  0  0  0
 17 11  1  0  0  0  0
 20  7  1  0  0  0  0
 20 21  1  0  0  0  0
 22 21  1  0  0  0  0
 23 21  1  0  0  0  0
 23 24  1  0  0  0  0
 25 23  1  0  0  0  0
 26 25  1  0  0  0  0
 27 25  1  0  0  0  0
 28 27  1  0  0  0  0
 28 20  1  0  0  0  0
M  END
>  <minimizedAffinity>
-4.62504339

$$$$

 OpenBabel03272500313D

 28 30  0  0  0  0  0  0  0  0999 V2000
   36.3670   28.1820   34.7160 Cl  0  0  0  0  0  0  0  0  0  0  0  0
   35.9330   29.2540   33.3840 C   0  0  0  0  0  0  0  0  0  0  0  0
   36.3440   28.8380   32.1430 C   0  0  0  0  0  0  0  0  0  0  0  0
   36.0110   29.6740   31.0570 C   0  0  0  0  0  0  0  0  0  0  0  0
   35.3140   30.8270   31.2910 C   0  0  0  0  0  0  0  0  0  0  0  0
   34.9440   31.1670   32.5660 C   0  0  0  0  0  0  0  0  0  0  0  0
   35.2370   30.3980   33.6540 C   0  0  0  0  0  0  0  0  0  0  0  0
   36.3040   29.4090   30.0450 H   0  0  0  0  0  0  0  0  0  0  0  0
   35.0690   31.4570   30.4460 H   0  0  0  0  0  0  0  0  0  0  0  0
   34.3870   32.1000   32.7060 H   0  0  0  0  0  0  0  0  0  0  0  0
   39.1370   26.5300   31.7350 C   0  0  0  0  0  0  0  0  0  0  0  0
   38.5310   25.2920   31.5310 C   0  0  0  0  0  0  0  0  0  0  0  0
   37.1310   25.2590   31.5350 C   0  0  0  0  0  0  0  0  0  0  0  0
   36.4590   26.4200   31.7350 N   0  0  0  0  0  0  0  0  0  0  0  0
   37.0860   27.6010   31.9300 C   0  0  0  0  0  0  0  0  0  0  0  0
   38.4200   27.6400   31.9260 N   0  0  0  0  0  0  0  0  0  0  0  0
   40.2190   26.4960   31.7220 H   0  0  0  0  0  0  0  0  0  0  0  0
   39.0290   24.3440   31.3680 H   0  0  0  0  0  0  0  0  0  0  0  0
   36.5150   24.3640   31.3890 H   0  0  0  0  0  0  0  0  0  0  0  0
   34.8310   30.7910   34.9580 N   0  0  0  0  0  0  0  0  0  0  0  0
   35.7510   31.4880   35.8290 C   0  0  0  0  0  3  0  0  0  0  0  0
   36.2670   30.6790   36.4240 H   0  0  0  0  0  0  0  0  0  0  0  0
   35.0650   32.3510   36.8600 C   0  0  0  0  0  3  0  0  0  0  0  0
   35.7770   32.4560   37.7240 H   0  0  0  0  0  0  0  0  0  0  0  0
   33.8720   31.7440   37.4070 N   0  0  0  0  0  0  0  0  0  0  0  0
   34.0460   30.9590   38.0410 H   0  0  0  0  0  0  0  0  0  0  0  0
   32.9280   31.4510   36.3570 C   0  0  0  0  0  2  0  0  0  0  0  0
   33.4710   30.4590   35.3560 C   0  0  0  0  0  2  0  0  0  0  0  0
  2  7  1  0  0  0  0
  2  1  1  0  0  0  0
  3  2  2  0  0  0  0
  4  5  2  0  0  0  0
  4  3  1  0  0  0  0
  5  6  1  0  0  0  0
  6 10  1  0  0  0  0
  6  7  2  0  0  0  0
  7 20  1  0  0  0  0
  8  4  1  0  0  0  0
  9  5  1  0  0  0  0
 11 16  1  0  0  0  0
 12 13  1  0  0  0  0
 12 11  2  0  0  0  0
 13 14  2  0  0  0  0
 14 15  1  0  0  0  0
 15  3  1  0  0  0  0
 16 15  2  0  0  0  0
 17 11  1  0  0  0  0
 18 12  1  0  0  0  0
 19 13  1  0  0  0  0
 20 28  1  0  0  0  0
 20 21  1  0  0  0  0
 21 22  1  0  0  0  0
 21 23  1  0  0  0  0
 23 25  1  0  0  0  0
 23 24  1  0  0  0  0
 25 26  1  0  0  0  0
 27 25  1  0  0  0  0
 28 27  1  0  0  0  0
M  END
>  <minimizedAffinity>
-4.60709667

$$$$

 OpenBabel03272500313D

 28 30  0  0  0  0  0  0  0  0999 V2000
   37.3790   25.4030   33.0100 Cl  0  0  0  0  0  0  0  0  0  0  0  0
   38.9740   26.1070   33.2820 C   0  0  0  0  0  0  0  0  0  0  0  0
   39.5960   25.7120   34.4390 C   0  0  0  0  0  0  0  0  0  0  0  0
   40.8730   26.2570   34.6850 C   0  0  0  0  0  0  0  0  0  0  0  0
   41.4110   27.1310   33.7800 C   0  0  0  0  0  0  0  0  0  0  0  0
   40.7180   27.4720   32.6490 C   0  0  0  0  0  0  0  0  0  0  0  0
   39.4800   26.9760   32.3590 C   0  0  0  0  0  0  0  0  0  0  0  0
   41.4250   25.9900   35.5810 H   0  0  0  0  0  0  0  0  0  0  0  0
   42.3910   27.5400   33.9860 H   0  0  0  0  0  0  0  0  0  0  0  0
   41.1880   28.1750   31.9520 H   0  0  0  0  0  0  0  0  0  0  0  0
   37.7140   24.4380   37.2900 C   0  0  0  0  0  0  0  0  0  0  0  0
   37.8330   23.0540   37.1880 C   0  0  0  0  0  0  0  0  0  0  0  0
   38.5780   22.5550   36.1120 C   0  0  0  0  0  0  0  0  0  0  0  0
   39.1320   23.4400   35.2460 N   0  0  0  0  0  0  0  0  0  0  0  0
   38.9920   24.7770   35.3810 C   0  0  0  0  0  0  0  0  0  0  0  0
   38.2830   25.2590   36.4050 N   0  0  0  0  0  0  0  0  0  0  0  0
   37.1280   24.7660   38.1400 H   0  0  0  0  0  0  0  0  0  0  0  0
   37.4080   22.3140   37.8550 H   0  0  0  0  0  0  0  0  0  0  0  0
   38.7590   21.4950   35.9000 H   0  0  0  0  0  0  0  0  0  0  0  0
   38.7990   27.3590   31.1710 N   0  0  0  0  0  0  0  0  0  0  0  0
   37.6830   28.2760   31.2350 C   0  0  0  0  0  3  0  0  0  0  0  0
   36.7680   27.6220   31.3390 H   0  0  0  0  0  0  0  0  0  0  0  0
   37.4650   29.0470   29.9550 C   0  0  0  0  0  3  0  0  0  0  0  0
   36.3800   29.3430   29.9320 H   0  0  0  0  0  0  0  0  0  0  0  0
   37.6790   28.2500   28.7680 N   0  0  0  0  0  0  0  0  0  0  0  0
   36.9500   27.5550   28.5840 H   0  0  0  0  0  0  0  0  0  0  0  0
   39.0170   27.7140   28.7550 C   0  0  0  0  0  2  0  0  0  0  0  0
   39.2780   26.7900   29.9210 C   0  0  0  0  0  2  0  0  0  0  0  0
  1  2  1  0  0  0  0
  2  3  1  0  0  0  0
  3  4  2  0  0  0  0
  3 15  1  0  0  0  0
  4  8  1  0  0  0  0
  5  9  1  0  0  0  0
  5  4  1  0  0  0  0
  6  5  2  0  0  0  0
  7  6  1  0  0  0  0
  7  2  2  0  0  0  0
 10  6  1  0  0  0  0
 11 17  1  0  0  0  0
 12 11  1  0  0  0  0
 12 18  1  0  0  0  0
 13 12  2  0  0  0  0
 14 15  2  0  0  0  0
 14 13  1  0  0  0  0
 15 16  1  0  0  0  0
 16 11  2  0  0  0  0
 19 13  1  0  0  0  0
 20 21  1  0  0  0  0
 20  7  1  0  0  0  0
 21 22  1  0  0  0  0
 23 21  1  0  0  0  0
 24 23  1  0  0  0  0
 25 23  1  0  0  0  0
 26 25  1  0  0  0  0
 27 25  1  0  0  0  0
 27 28  1  0  0  0  0
 28 20  1  0  0  0  0
M  END
>  <minimizedAffinity>
-4.59972191

$$$$
