
 OpenBabel03262523003D

 26 28  0  0  0  0  0  0  0  0999 V2000
   35.8660   30.1920   48.5880 C   0  0  0  0  0  0  0  0  0  0  0  0
   35.8320   29.2170   49.5420 C   0  0  0  0  0  0  0  0  0  0  0  0
   34.8290   28.2810   49.5320 C   0  0  0  0  0  0  0  0  0  0  0  0
   33.8750   28.3340   48.5660 N   0  0  0  0  0  0  0  0  0  0  0  0
   33.9340   29.2980   47.6460 C   0  0  0  0  0  0  0  0  0  0  0  0
   34.9120   30.2240   47.6440 N   0  0  0  0  0  0  0  0  0  0  0  0
   36.6120   29.1870   50.3190 H   0  0  0  0  0  0  0  0  0  0  0  0
   34.7890   27.4990   50.2860 H   0  0  0  0  0  0  0  0  0  0  0  0
   32.9320   29.3490   46.6370 N   0  0  0  0  0  0  0  0  0  0  0  0
   31.8660   28.3630   46.6170 C   0  0  0  0  0  0  0  0  0  0  0  0
   31.9720   27.6130   47.4210 H   0  0  0  0  0  0  0  0  0  0  0  0
   30.5590   29.1370   46.6820 C   0  0  0  0  0  0  0  0  0  0  0  0
   30.5140   29.8150   47.5490 H   0  0  0  0  0  0  0  0  0  0  0  0
   30.4900   29.9420   45.4810 N   0  0  0  0  0  0  0  0  0  0  0  0
   29.5770   30.4610   45.5260 H   0  0  0  0  0  0  0  0  0  0  0  0
   31.5360   30.9260   45.3790 C   0  0  0  0  0  0  0  0  0  0  0  0
   32.9100   30.3520   45.6000 C   0  0  0  0  0  0  0  0  0  0  0  0
   38.0340   33.0080   49.4880 C   0  0  0  0  0  0  0  0  0  0  0  0
   38.9140   33.0900   48.4080 C   0  0  0  0  0  0  0  0  0  0  0  0
   38.7420   32.1550   47.3650 C   0  0  0  0  0  0  0  0  0  0  0  0
   37.7380   31.2440   47.4840 N   0  0  0  0  0  0  0  0  0  0  0  0
   36.9060   31.2030   48.5580 C   0  0  0  0  0  0  0  0  0  0  0  0
   37.0700   32.0940   49.5510 N   0  0  0  0  0  0  0  0  0  0  0  0
   38.1850   33.7400   50.2830 H   0  0  0  0  0  0  0  0  0  0  0  0
   39.7200   33.8050   48.2900 H   0  0  0  0  0  0  0  0  0  0  0  0
   39.3560   32.1060   46.4660 H   0  0  0  0  0  0  0  0  0  0  0  0
  1  2  1  0  0  0  0
  2  7  1  0  0  0  0
  3  2  2  0  0  0  0
  3  8  1  0  0  0  0
  4  3  1  0  0  0  0
  5  4  2  0  0  0  0
  6  5  1  0  0  0  0
  6  1  2  0  0  0  0
  9  5  1  0  0  0  0
 10  9  1  0  0  0  0
 10 12  1  0  0  0  0
 10 11  1  0  0  0  0
 12 13  1  0  0  0  0
 14 15  1  0  0  0  0
 14 12  1  0  0  0  0
 16 14  1  0  0  0  0
 16 17  1  0  0  0  0
 17  9  1  0  0  0  0
 18 23  1  0  0  0  0
 18 24  1  0  0  0  0
 19 18  2  0  0  0  0
 20 21  2  0  0  0  0
 20 19  1  0  0  0  0
 21 22  1  0  0  0  0
 22  1  1  0  0  0  0
 22 23  2  0  0  0  0
 25 19  1  0  0  0  0
 26 20  1  0  0  0  0
M  END
>  <minimizedAffinity>
-5.34439802

>  <minimizedRMSD>
0.099849917

$$$$
