
 OpenBabel03272505573D

 44 47  0  0  1  0  0  0  0  0999 V2000
   35.1880   30.3290   50.0580 C   0  0  2  0  0  0  0  0  0  0  0  0
   36.1230   31.2290   49.3400 C   0  0  0  0  0  0  0  0  0  0  0  0
   37.5790   30.7500   49.4210 C   0  0  2  0  0  0  0  0  0  0  0  0
   38.0740   30.5510   50.7840 C   0  0  0  0  0  0  0  0  0  0  0  0
   37.0320   29.9600   51.7290 C   0  0  0  0  0  0  0  0  0  0  0  0
   35.8880   29.3420   50.9670 C   0  0  0  0  0  0  0  0  0  0  0  0
   34.4930   30.8930   50.7490 H   0  0  0  0  0  0  0  0  0  0  0  0
   36.1570   32.2030   49.9340 H   0  0  0  0  0  0  0  0  0  0  0  0
   36.0020   31.4630   48.3120 H   0  0  0  0  0  0  0  0  0  0  0  0
   37.6670   29.8430   48.8000 H   0  0  0  0  0  0  0  0  0  0  0  0
   38.3530   31.5180   51.2400 H   0  0  0  0  0  0  0  0  0  0  0  0
   38.9940   29.9310   50.7630 H   0  0  0  0  0  0  0  0  0  0  0  0
   37.5350   29.1320   52.2710 H   0  0  0  0  0  0  0  0  0  0  0  0
   36.6740   30.6720   52.4850 H   0  0  0  0  0  0  0  0  0  0  0  0
   35.1690   28.9670   51.7130 H   0  0  0  0  0  0  0  0  0  0  0  0
   36.3140   28.5320   50.3350 H   0  0  0  0  0  0  0  0  0  0  0  0
   38.1780   30.2610   46.5710 Cl  0  0  0  0  0  0  0  0  0  0  0  0
   38.7250   31.6970   47.4200 C   0  0  0  0  0  0  0  0  0  0  0  0
   38.3470   31.8370   48.7460 C   0  0  0  0  0  0  0  0  0  0  0  0
   38.7970   33.0030   49.3090 C   0  0  0  0  0  0  0  0  0  0  0  0
   39.5490   33.9380   48.6290 C   0  0  0  0  0  0  0  0  0  0  0  0
   39.8860   33.7200   47.2990 C   0  0  0  0  0  0  0  0  0  0  0  0
   39.4570   32.5570   46.6770 C   0  0  0  0  0  0  0  0  0  0  0  0
   38.5440   33.1990   50.3440 H   0  0  0  0  0  0  0  0  0  0  0  0
   39.8560   34.8320   49.1700 H   0  0  0  0  0  0  0  0  0  0  0  0
   40.4700   34.4830   46.8310 H   0  0  0  0  0  0  0  0  0  0  0  0
   39.8090   32.3580   45.3330 N   0  0  0  0  0  0  0  0  0  0  0  0
   39.8340   33.5040   44.4780 C   0  0  0  0  0  0  0  0  0  0  0  0
   39.2150   34.3440   44.8640 H   0  0  0  0  0  0  0  0  0  0  0  0
   39.3130   33.2080   43.0910 C   0  0  0  0  0  0  0  0  0  0  0  0
   39.7390   34.0200   42.4350 H   0  0  0  0  0  0  0  0  0  0  0  0
   39.7690   31.9570   42.5650 N   0  0  0  0  0  0  0  0  0  0  0  0
   40.2600   32.0670   41.6280 H   0  0  0  0  0  0  0  0  0  0  0  0
   40.7070   31.2630   43.4270 C   0  0  0  0  0  0  0  0  0  0  0  0
   40.1410   31.0500   44.7980 C   0  0  0  0  0  0  0  0  0  0  0  0
   34.3210   29.5570   49.1560 C   0  0  0  0  0  0  0  0  0  0  0  0
   34.3450   29.9650   47.8210 C   0  0  0  0  0  0  0  0  0  0  0  0
   33.5470   29.2530   46.9160 C   0  0  0  0  0  0  0  0  0  0  0  0
   32.7780   28.1900   47.3800 N   0  0  0  0  0  0  0  0  0  0  0  0
   32.7920   27.8390   48.6800 C   0  0  0  0  0  0  0  0  0  0  0  0
   33.5580   28.5270   49.5260 N   0  0  0  0  0  0  0  0  0  0  0  0
   34.7990   30.7060   47.1900 H   0  0  0  0  0  0  0  0  0  0  0  0
   33.3800   29.3470   45.8640 H   0  0  0  0  0  0  0  0  0  0  0  0
   32.1990   27.0160   49.0500 H   0  0  0  0  0  0  0  0  0  0  0  0
  1  7  1  1  0  0  0
  1  6  1  0  0  0  0
  2  3  1  0  0  0  0
  2  8  1  0  0  0  0
  2  1  1  0  0  0  0
  3 10  1  6  0  0  0
  3  4  1  0  0  0  0
  4 11  1  0  0  0  0
  4  5  1  0  0  0  0
  5 13  1  0  0  0  0
  5 14  1  0  0  0  0
  6 15  1  0  0  0  0
  6  5  1  0  0  0  0
  9  2  1  0  0  0  0
 12  4  1  0  0  0  0
 16  6  1  0  0  0  0
 17 18  1  0  0  0  0
 18 19  1  0  0  0  0
 19 20  2  0  0  0  0
 19  3  1  0  0  0  0
 20 24  1  0  0  0  0
 21 25  1  0  0  0  0
 21 20  1  0  0  0  0
 22 21  2  0  0  0  0
 23 22  1  0  0  0  0
 23 18  2  0  0  0  0
 26 22  1  0  0  0  0
 27 23  1  0  0  0  0
 28 29  1  0  0  0  0
 28 27  1  0  0  0  0
 30 28  1  0  0  0  0
 31 30  1  0  0  0  0
 32 30  1  0  0  0  0
 32 34  1  0  0  0  0
 33 32  1  0  0  0  0
 34 35  1  0  0  0  0
 35 27  1  0  0  0  0
 36 41  1  0  0  0  0
 36  1  1  0  0  0  0
 37 36  2  0  0  0  0
 38 39  2  0  0  0  0
 38 37  1  0  0  0  0
 39 40  1  0  0  0  0
 40 44  1  0  0  0  0
 40 41  2  0  0  0  0
 42 37  1  0  0  0  0
 43 38  1  0  0  0  0
M  END
>  <minimizedAffinity>
-7.82786751

>  <minimizedRMSD>
0.608960032

$$$$
