
     RDKit          3D

 52 55  0  0  0  0  0  0  0  0999 V2000
   37.3273   30.1781   51.5202 C   0  0  0  0  0  0  0  0  0  0  0  0
   38.0688   30.8721   50.5265 C   0  0  0  0  0  0  0  0  0  0  0  0
   37.7038   30.6567   49.2029 C   0  0  0  0  0  0  0  0  0  0  0  0
   36.6610   29.7930   48.9866 N   0  0  0  0  0  0  0  0  0  0  0  0
   35.9818   29.1545   49.9367 C   0  0  0  0  0  0  0  0  0  0  0  0
   36.3342   29.3616   51.2267 N   0  0  0  0  0  0  0  0  0  0  0  0
   38.9437   33.2609   49.0158 F   0  0  0  0  0  0  0  0  0  0  0  0
   38.9115   32.4725   47.9461 C   0  0  0  0  0  0  0  0  0  0  0  0
   38.3320   31.2665   48.0500 C   0  0  0  0  0  0  0  0  0  0  0  0
   38.3529   30.5206   46.8690 C   0  0  0  0  0  0  0  0  0  0  0  0
   38.9181   30.9868   45.7089 C   0  0  0  0  0  0  0  0  0  0  0  0
   39.5015   32.2331   45.6522 C   0  0  0  0  0  0  0  0  0  0  0  0
   39.4853   32.9664   46.7989 C   0  0  0  0  0  0  0  0  0  0  0  0
   34.9922   28.3540   49.4566 O   0  0  0  0  0  0  0  0  0  0  0  0
   34.4471   28.6369   48.1734 C   0  0  0  0  0  0  0  0  0  0  0  0
   33.5640   27.5268   47.6961 C   0  0  0  0  0  0  0  0  0  0  0  0
   32.1175   27.8902   47.7373 C   0  0  0  0  0  0  0  0  0  0  0  0
   31.3712   27.4725   48.8419 C   0  0  0  0  0  0  0  0  0  0  0  0
   30.0375   27.7638   48.9582 C   0  0  0  0  0  0  0  0  0  0  0  0
   29.4332   28.4567   48.0066 N   0  0  0  0  0  0  0  0  0  0  0  0
   30.1743   28.8580   46.9337 C   0  0  0  0  0  0  0  0  0  0  0  0
   31.4777   28.5913   46.7878 N   0  0  0  0  0  0  0  0  0  0  0  0
   29.4503   29.6410   45.8775 C   0  0  0  0  0  0  0  0  0  0  0  0
   37.6428   30.3731   52.5377 H   0  0  0  0  0  0  0  0  0  0  0  0
   38.8747   31.5385   50.7102 H   0  0  0  0  0  0  0  0  0  0  0  0
   37.9070   29.5194   46.8400 H   0  0  0  0  0  0  0  0  0  0  0  0
   38.9066   30.3644   44.8190 H   0  0  0  0  0  0  0  0  0  0  0  0
   39.9484   32.6046   44.7395 H   0  0  0  0  0  0  0  0  0  0  0  0
   39.9422   33.9525   46.7692 H   0  0  0  0  0  0  0  0  0  0  0  0
   33.7863   29.5250   48.3457 H   0  0  0  0  0  0  0  0  0  0  0  0
   35.2029   28.9403   47.4315 H   0  0  0  0  0  0  0  0  0  0  0  0
   33.8433   27.2607   46.6559 H   0  0  0  0  0  0  0  0  0  0  0  0
   33.7148   26.5856   48.2823 H   0  0  0  0  0  0  0  0  0  0  0  0
   31.8670   26.9048   49.6215 H   0  0  0  0  0  0  0  0  0  0  0  0
   29.5228   27.4064   49.8443 H   0  0  0  0  0  0  0  0  0  0  0  0
   29.9173   29.4253   44.8918 H   0  0  0  0  0  0  0  0  0  0  0  0
   28.3958   29.2875   45.8102 H   0  0  0  0  0  0  0  0  0  0  0  0
   29.4631   31.0474   46.0812 N   0  0  0  0  0  0  0  0  0  0  0  0
   30.6185   31.6163   45.4306 C   0  0  2  0  0  0  0  0  0  0  0  0
   30.8844   30.9788   44.5605 H   0  0  0  0  0  0  0  0  0  0  0  0
   30.4007   33.0254   44.9262 C   0  0  1  0  0  0  0  0  0  0  0  0
   30.2996   33.7509   45.7569 H   0  0  0  0  0  0  0  0  0  0  0  0
   29.3045   33.0964   43.9809 N   0  0  0  0  0  0  0  0  0  0  0  0
   29.6034   33.2543   43.0024 H   0  0  0  0  0  0  0  0  0  0  0  0
   28.4089   31.9680   44.1547 C   0  0  0  0  0  0  0  0  0  0  0  0
   28.2925   31.7360   45.6472 C   0  0  0  0  0  0  0  0  0  0  0  0
   31.5020   31.6714   46.1176 H   0  0  0  0  0  0  0  0  0  0  0  0
   31.3262   33.2961   44.3766 H   0  0  0  0  0  0  0  0  0  0  0  0
   28.9502   31.0965   43.7318 H   0  0  0  0  0  0  0  0  0  0  0  0
   27.4424   32.1158   43.6701 H   0  0  0  0  0  0  0  0  0  0  0  0
   28.1489   32.7036   46.1861 H   0  0  0  0  0  0  0  0  0  0  0  0
   27.3454   31.1769   45.7844 H   0  0  0  0  0  0  0  0  0  0  0  0
  2  1  2  0
  3  2  1  0
  4  3  2  0
  4  5  1  0
  5  6  2  0
  6  1  1  0
  8  9  2  0
  8  7  1  0
  9  3  1  0
 10  9  1  0
 11 10  2  0
 12 11  1  0
 12 13  2  0
 13  8  1  0
 14  5  1  0
 15 14  1  0
 16 17  1  0
 16 15  1  0
 17 18  2  0
 18 19  1  0
 20 19  2  0
 21 20  1  0
 22 21  2  0
 22 17  1  0
 23 21  1  0
  1 24  1  0
  2 25  1  0
 10 26  1  0
 11 27  1  0
 12 28  1  0
 13 29  1  0
 15 30  1  0
 15 31  1  0
 16 32  1  0
 16 33  1  0
 18 34  1  0
 19 35  1  0
 23 36  1  0
 23 37  1  0
 38 39  1  0
 39 40  1  6
 39 41  1  0
 41 42  1  1
 41 43  1  0
 43 44  1  0
 43 45  1  0
 45 46  1  0
 46 38  1  0
 39 47  1  0
 41 48  1  0
 45 49  1  0
 45 50  1  0
 46 51  1  0
 46 52  1  0
 23 38  1  0
M  ISO  8  24  14  25  14  26  14  27  14  28  14  29  14  30   8  31   8
M  ISO  8  32   8  33   8  34  14  35  14  36   8  37   8  40   8  42   8
M  ISO  1  44   5
M  END
>  <DihAtoms>  (1) 
20,22,37,38

>  <DihDeg>  (1) 
179.99635546391863

$$$$
