
     RDKit          3D

 43 45  0  0  0  0  0  0  0  0999 V2000
   38.1585   31.2471   44.9253 C   0  0  0  0  0  0  0  0  0  0  0  0
   37.3404   30.9450   45.9715 C   0  0  0  0  0  0  0  0  0  0  0  0
   36.1080   30.3487   45.7289 C   0  0  0  0  0  0  0  0  0  0  0  0
   35.6637   30.0448   44.4595 C   0  0  0  0  0  0  0  0  0  0  0  0
   36.4705   30.3427   43.3764 C   0  0  0  0  0  0  0  0  0  0  0  0
   37.6748   30.9269   43.6531 C   0  0  0  0  0  0  0  0  0  0  0  0
   38.6843   32.7805   48.8603 C   0  0  0  0  0  0  0  0  0  0  0  0
   38.3089   32.4451   47.5664 C   0  0  0  0  0  0  0  0  0  0  0  0
   37.6989   31.2558   47.3130 C   0  0  0  0  0  0  0  0  0  0  0  0
   37.4759   30.4311   48.3738 N   0  0  0  0  0  0  0  0  0  0  0  0
   37.8325   30.7515   49.6243 C   0  0  0  0  0  0  0  0  0  0  0  0
   38.4355   31.9218   49.8571 N   0  0  0  0  0  0  0  0  0  0  0  0
   37.4681   29.7858   50.6954 C   0  0  0  0  0  0  0  0  0  0  0  0
   37.7174   30.2952   51.9577 F   0  0  0  0  0  0  0  0  0  0  0  0
   36.0281   29.6379   50.7072 F   0  0  0  0  0  0  0  0  0  0  0  0
   37.9034   28.5533   50.5700 F   0  0  0  0  0  0  0  0  0  0  0  0
   39.7090   31.9453   45.0950 S   0  0  0  0  0  0  0  0  0  0  0  0
   39.7095   33.3896   44.8896 O   0  0  0  0  0  0  0  0  0  0  0  0
   40.2831   31.5640   43.7368 O   0  0  0  0  0  0  0  0  0  0  0  0
   41.1254   31.2459   45.7475 C   0  0  0  0  0  0  0  0  0  0  0  0
   35.4701   30.1145   46.5920 H   0  0  0  0  0  0  0  0  0  0  0  0
   34.7044   29.5878   44.3823 H   0  0  0  0  0  0  0  0  0  0  0  0
   36.0840   30.0898   42.4011 H   0  0  0  0  0  0  0  0  0  0  0  0
   38.2162   31.1156   42.7167 H   0  0  0  0  0  0  0  0  0  0  0  0
   39.1682   33.6591   49.2293 H   0  0  0  0  0  0  0  0  0  0  0  0
   38.5793   33.2948   46.9873 H   0  0  0  0  0  0  0  0  0  0  0  0
   41.3064   30.1676   45.5631 H   0  0  0  0  0  0  0  0  0  0  0  0
   40.8713   31.1788   46.8755 H   0  0  0  0  0  0  0  0  0  0  0  0
   42.2456   32.1006   45.7362 N   0  0  0  0  0  0  0  0  0  0  0  0
   42.7045   32.3600   47.0785 C   0  0  2  0  0  0  0  0  0  0  0  0
   43.2342   31.4965   47.5443 H   0  0  0  0  0  0  0  0  0  0  0  0
   43.5739   33.6096   47.1355 C   0  0  2  0  0  0  0  0  0  0  0  0
   44.3346   33.4276   47.9241 H   0  0  0  0  0  0  0  0  0  0  0  0
   44.2885   33.8144   45.8986 N   0  0  0  0  0  0  0  0  0  0  0  0
   45.0317   33.1222   45.7180 H   0  0  0  0  0  0  0  0  0  0  0  0
   43.4096   33.9883   44.7662 C   0  0  0  0  0  0  0  0  0  0  0  0
   42.0659   33.3690   45.0647 C   0  0  0  0  0  0  0  0  0  0  0  0
   41.8311   32.5974   47.7193 H   0  0  0  0  0  0  0  0  0  0  0  0
   42.9606   34.5146   47.3241 H   0  0  0  0  0  0  0  0  0  0  0  0
   43.2150   35.0676   44.5990 H   0  0  0  0  0  0  0  0  0  0  0  0
   43.8296   33.5205   43.8361 H   0  0  0  0  0  0  0  0  0  0  0  0
   41.4686   33.1804   44.1497 H   0  0  0  0  0  0  0  0  0  0  0  0
   41.5221   34.0239   45.7847 H   0  0  0  0  0  0  0  0  0  0  0  0
  1 17  1  0
  1  2  1  0
  2  9  1  0
  3  2  2  0
  4  3  1  0
  5  6  1  0
  5  4  2  0
  6  1  2  0
  7 12  2  0
  8  7  1  0
  9  8  2  0
  9 10  1  0
 10 11  2  0
 11 12  1  0
 11 13  1  0
 13 15  1  0
 13 14  1  0
 16 13  1  0
 17 20  1  0
 18 17  2  0
 19 17  2  0
  3 21  1  0
  4 22  1  0
  5 23  1  0
  6 24  1  0
  7 25  1  0
  8 26  1  0
 20 27  1  0
 20 28  1  0
 29 30  1  0
 30 31  1  1
 30 32  1  0
 32 33  1  1
 32 34  1  0
 34 35  1  0
 34 36  1  0
 36 37  1  0
 37 29  1  0
 30 38  1  0
 32 39  1  0
 36 40  1  0
 36 41  1  0
 37 42  1  0
 37 43  1  0
 20 29  1  0
M  ISO  8  21  14  22  14  23  14  24  14  25  14  26  14  27   8  28   8
M  ISO  3  31   8  33   8  35   5
M  END
>  <DihAtoms>  (1) 
16,19,28,29

>  <DihDeg>  (1) 
-61.993360160656245

$$$$
