
 OpenBabel03272509563D

 46 49  0  0  0  0  0  0  0  0999 V2000
   34.4860   28.6230   48.1870 C   0  0  0  0  0  0  0  0  0  0  0  0
   33.9800   29.6180   48.2850 H   0  0  0  0  0  0  0  0  0  0  0  0
   35.2650   28.7330   47.4170 H   0  0  0  0  0  0  0  0  0  0  0  0
   33.4260   27.6340   47.8170 C   0  0  0  0  0  0  0  0  0  0  0  0
   33.8480   26.8980   47.1020 H   0  0  0  0  0  0  0  0  0  0  0  0
   33.0930   27.0230   48.6930 H   0  0  0  0  0  0  0  0  0  0  0  0
   32.2300   28.2810   47.2020 C   0  0  0  0  0  0  0  0  0  0  0  0
   30.9730   27.9450   47.7110 C   0  0  0  0  0  0  0  0  0  0  0  0
   29.8250   28.4940   47.2040 C   0  0  0  0  0  0  0  0  0  0  0  0
   29.8970   29.3640   46.2100 N   0  0  0  0  0  0  0  0  0  0  0  0
   31.1310   29.6830   45.7240 C   0  0  0  0  0  0  0  0  0  0  0  0
   32.2740   29.1660   46.1940 N   0  0  0  0  0  0  0  0  0  0  0  0
   30.9140   27.2320   48.5250 H   0  0  0  0  0  0  0  0  0  0  0  0
   28.8840   28.1850   47.6490 H   0  0  0  0  0  0  0  0  0  0  0  0
   31.1700   30.6730   44.5960 C   0  0  0  0  0  0  0  0  0  0  0  0
   32.1910   30.6740   44.1580 H   0  0  0  0  0  0  0  0  0  0  0  0
   30.4810   30.3410   43.7860 H   0  0  0  0  0  0  0  0  0  0  0  0
   30.8430   32.0030   44.9750 N   0  0  0  0  0  0  0  0  0  0  0  0
   31.8910   32.8970   44.5460 C   0  0  0  0  0  0  0  0  0  0  0  0
   32.3730   32.4680   43.6400 H   0  0  0  0  0  0  0  0  0  0  0  0
   31.4050   34.2860   44.2010 C   0  0  0  0  0  0  0  0  0  0  0  0
   31.0660   34.8400   45.0990 H   0  0  0  0  0  0  0  0  0  0  0  0
   30.4100   34.2620   43.1460 N   0  0  0  0  0  0  0  0  0  0  0  0
   30.7510   34.6250   42.2400 H   0  0  0  0  0  0  0  0  0  0  0  0
   29.7840   32.9550   43.0670 C   0  0  0  0  0  0  0  0  0  0  0  0
   29.5900   32.4830   44.4930 C   0  0  0  0  0  0  0  0  0  0  0  0
   35.0050   28.3670   49.4880 O   0  0  0  0  0  0  0  0  0  0  0  0
   37.3600   30.1810   51.5370 C   0  0  0  0  0  0  0  0  0  0  0  0
   38.0940   30.8770   50.5390 C   0  0  0  0  0  0  0  0  0  0  0  0
   37.7170   30.6680   49.2180 C   0  0  0  0  0  0  0  0  0  0  0  0
   36.6710   29.8060   49.0080 N   0  0  0  0  0  0  0  0  0  0  0  0
   36.0000   29.1640   49.9620 C   0  0  0  0  0  0  0  0  0  0  0  0
   36.3640   29.3670   51.2500 N   0  0  0  0  0  0  0  0  0  0  0  0
   37.6860   30.3710   52.5530 H   0  0  0  0  0  0  0  0  0  0  0  0
   38.9030   31.5420   50.7180 H   0  0  0  0  0  0  0  0  0  0  0  0
   38.9440   33.2780   49.0250 F   0  0  0  0  0  0  0  0  0  0  0  0
   38.9090   32.4890   47.9550 C   0  0  0  0  0  0  0  0  0  0  0  0
   38.3360   31.2810   48.0620 C   0  0  0  0  0  0  0  0  0  0  0  0
   38.3540   30.5360   46.8810 C   0  0  0  0  0  0  0  0  0  0  0  0
   38.9100   31.0050   45.7180 C   0  0  0  0  0  0  0  0  0  0  0  0
   39.4880   32.2540   45.6580 C   0  0  0  0  0  0  0  0  0  0  0  0
   39.4740   32.9860   46.8050 C   0  0  0  0  0  0  0  0  0  0  0  0
   37.9120   29.5320   46.8540 H   0  0  0  0  0  0  0  0  0  0  0  0
   38.8970   30.3820   44.8270 H   0  0  0  0  0  0  0  0  0  0  0  0
   39.9270   32.6280   44.7420 H   0  0  0  0  0  0  0  0  0  0  0  0
   39.9260   33.9750   46.7730 H   0  0  0  0  0  0  0  0  0  0  0  0
  1  2  1  0  0  0  0
  1 27  1  0  0  0  0
  3  1  1  0  0  0  0
  4  1  1  0  0  0  0
  4  6  1  0  0  0  0
  5  4  1  0  0  0  0
  7  8  1  0  0  0  0
  7  4  1  0  0  0  0
  8 13  1  0  0  0  0
  9 14  1  0  0  0  0
  9  8  2  0  0  0  0
 10  9  1  0  0  0  0
 11 12  1  0  0  0  0
 11 10  2  0  0  0  0
 12  7  2  0  0  0  0
 15 18  1  0  0  0  0
 15 11  1  0  0  0  0
 16 15  1  0  0  0  0
 17 15  1  0  0  0  0
 19 18  1  0  0  0  0
 20 19  1  0  0  0  0
 21 19  1  0  0  0  0
 21 22  1  0  0  0  0
 23 21  1  0  0  0  0
 24 23  1  0  0  0  0
 25 23  1  0  0  0  0
 25 26  1  0  0  0  0
 26 18  1  0  0  0  0
 27 32  1  0  0  0  0
 28 34  1  0  0  0  0
 29 35  1  0  0  0  0
 29 28  2  0  0  0  0
 30 29  1  0  0  0  0
 31 30  2  0  0  0  0
 31 32  1  0  0  0  0
 32 33  2  0  0  0  0
 33 28  1  0  0  0  0
 37 38  1  0  0  0  0
 37 36  1  0  0  0  0
 38 30  1  0  0  0  0
 39 38  2  0  0  0  0
 40 39  1  0  0  0  0
 41 40  2  0  0  0  0
 41 42  1  0  0  0  0
 42 37  2  0  0  0  0
 43 39  1  0  0  0  0
 44 40  1  0  0  0  0
 45 41  1  0  0  0  0
 46 42  1  0  0  0  0
M  END
>  <minimizedAffinity>
-6.5914278

>  <minimizedRMSD>
1.22073698

$$$$
