REMARK  Name = 
REMARK  7 active torsions:
REMARK  status: ('A' for Active; 'I' for Inactive)
REMARK    1  A    between atoms: C_3  and  C_9
REMARK    2  A    between atoms: C_5  and  O_14
REMARK    3  A    between atoms: O_14  and  C_15
REMARK    4  A    between atoms: C_15  and  C_16
REMARK    5  A    between atoms: C_16  and  C_17
REMARK    6  A    between atoms: C_21  and  C_23
REMARK    7  A    between atoms: C_23  and  N_38
REMARK                            x       y       z     vdW  Elec       q    Type
REMARK                         _______ _______ _______ _____ _____    ______ ____
ROOT
ATOM      1  C   UNL     1      34.447  28.637  48.173  0.00  0.00    +0.000 C 
ATOM      2  H   UNL     1      33.786  29.525  48.346  0.00  0.00    +0.000 HD
ATOM      3  H   UNL     1      35.203  28.940  47.431  0.00  0.00    +0.000 HD
ENDROOT
BRANCH   1   4
ATOM      4  C   UNL     1      33.564  27.527  47.696  0.00  0.00    +0.000 C 
ATOM      5  H   UNL     1      33.843  27.261  46.656  0.00  0.00    +0.000 HD
ATOM      6  H   UNL     1      33.715  26.586  48.282  0.00  0.00    +0.000 HD
BRANCH   4   7
ATOM      7  C   UNL     1      32.117  27.890  47.737  0.00  0.00    +0.000 A 
ATOM      8  C   UNL     1      31.371  27.473  48.842  0.00  0.00    +0.000 A 
ATOM      9  C   UNL     1      30.038  27.764  48.958  0.00  0.00    +0.000 A 
ATOM     10  N   UNL     1      29.433  28.457  48.007  0.00  0.00    +0.000 NA
ATOM     11  C   UNL     1      30.174  28.858  46.934  0.00  0.00    +0.000 A 
ATOM     12  N   UNL     1      31.478  28.591  46.788  0.00  0.00    +0.000 NA
ATOM     13  H   UNL     1      31.867  26.905  49.621  0.00  0.00    +0.000 HD
ATOM     14  H   UNL     1      29.523  27.406  49.844  0.00  0.00    +0.000 HD
BRANCH  11  15
ATOM     15  C   UNL     1      29.450  29.641  45.877  0.00  0.00    +0.000 C 
ATOM     16  H   UNL     1      29.917  29.425  44.892  0.00  0.00    +0.000 HD
ATOM     17  H   UNL     1      28.396  29.288  45.810  0.00  0.00    +0.000 HD
BRANCH  15  18
ATOM     18  N   UNL     1      29.463  31.047  46.081  0.00  0.00    +0.000 NA
ATOM     19  C   UNL     1      30.619  31.616  45.431  0.00  0.00    +0.000 C 
ATOM     20  H   UNL     1      30.884  30.979  44.560  0.00  0.00    +0.000 HD
ATOM     21  C   UNL     1      30.401  33.025  44.926  0.00  0.00    +0.000 C 
ATOM     22  H   UNL     1      30.300  33.751  45.757  0.00  0.00    +0.000 HD
ATOM     23  N   UNL     1      29.305  33.096  43.981  0.00  0.00    +0.000 NA
ATOM     24  H   UNL     1      29.603  33.254  43.002  0.00  0.00    +0.000 HD
ATOM     25  C   UNL     1      28.409  31.968  44.155  0.00  0.00    +0.000 C 
ATOM     26  C   UNL     1      28.293  31.736  45.647  0.00  0.00    +0.000 C 
ENDBRANCH  15  18
ENDBRANCH  11  15
ENDBRANCH   4   7
ENDBRANCH   1   4
BRANCH   1  27
ATOM     27  O   UNL     1      34.992  28.354  49.457  0.00  0.00    +0.000 OA
BRANCH  27  32
ATOM     28  C   UNL     1      37.327  30.178  51.520  0.00  0.00    +0.000 A 
ATOM     29  C   UNL     1      38.069  30.872  50.526  0.00  0.00    +0.000 A 
ATOM     30  C   UNL     1      37.704  30.657  49.203  0.00  0.00    +0.000 A 
ATOM     31  N   UNL     1      36.661  29.793  48.987  0.00  0.00    +0.000 NA
ATOM     32  C   UNL     1      35.982  29.154  49.937  0.00  0.00    +0.000 A 
ATOM     33  N   UNL     1      36.334  29.362  51.227  0.00  0.00    +0.000 NA
ATOM     34  H   UNL     1      37.643  30.373  52.538  0.00  0.00    +0.000 HD
ATOM     35  H   UNL     1      38.875  31.538  50.710  0.00  0.00    +0.000 HD
BRANCH  30  38
ATOM     36  F   UNL     1      38.944  33.261  49.016  0.00  0.00    +0.000 F 
ATOM     37  C   UNL     1      38.911  32.472  47.946  0.00  0.00    +0.000 A 
ATOM     38  C   UNL     1      38.332  31.267  48.050  0.00  0.00    +0.000 A 
ATOM     39  C   UNL     1      38.353  30.521  46.869  0.00  0.00    +0.000 A 
ATOM     40  C   UNL     1      38.918  30.987  45.709  0.00  0.00    +0.000 A 
ATOM     41  C   UNL     1      39.502  32.233  45.652  0.00  0.00    +0.000 A 
ATOM     42  C   UNL     1      39.485  32.966  46.799  0.00  0.00    +0.000 A 
ATOM     43  H   UNL     1      37.907  29.519  46.840  0.00  0.00    +0.000 HD
ATOM     44  H   UNL     1      38.907  30.364  44.819  0.00  0.00    +0.000 HD
ATOM     45  H   UNL     1      39.948  32.605  44.739  0.00  0.00    +0.000 HD
ATOM     46  H   UNL     1      39.942  33.953  46.769  0.00  0.00    +0.000 HD
ENDBRANCH  30  38
ENDBRANCH  27  32
ENDBRANCH   1  27
TORSDOF 7
