
 OpenBabel03272501173D

 35 38  0  0  1  0  0  0  0  0999 V2000
   37.1020   26.6250   33.5320 C   0  0  0  0  0  0  0  0  0  0  0  0
   36.3550   25.8500   33.2740 H   0  0  0  0  0  0  0  0  0  0  0  0
   37.8310   26.6390   32.6710 H   0  0  0  0  0  0  0  0  0  0  0  0
   36.5500   28.0010   33.5910 C   0  0  0  0  0  0  0  0  0  0  0  0
   36.3290   28.7780   32.4620 C   0  0  0  0  0  0  0  0  0  0  0  0
   35.8230   29.9760   32.7690 N   0  0  0  0  0  0  0  0  0  0  0  0
   35.7210   29.9510   34.1260 C   0  0  0  0  0  0  0  0  0  0  0  0
   36.1570   28.7730   34.6010 N   0  0  0  0  0  0  0  0  0  0  0  0
   36.5570   28.4180   31.4390 H   0  0  0  0  0  0  0  0  0  0  0  0
   35.6070   30.6690   32.0050 H   0  0  0  0  0  0  0  0  0  0  0  0
   35.1750   31.1830   34.6440 N   0  0  0  0  0  0  0  0  0  0  0  0
   34.1610   31.2720   35.6990 C   0  0  0  0  0  3  0  0  0  0  0  0
   33.9660   30.2330   36.0670 H   0  0  0  0  0  0  0  0  0  0  0  0
   34.7990   32.0300   36.8610 C   0  0  0  0  0  3  0  0  0  0  0  0
   35.6350   31.3890   37.2240 H   0  0  0  0  0  0  0  0  0  0  0  0
   35.2500   33.3300   36.4050 N   0  0  0  0  0  0  0  0  0  0  0  0
   35.5550   33.9220   37.1890 H   0  0  0  0  0  0  0  0  0  0  0  0
   36.2570   33.1660   35.3840 C   0  0  0  0  0  2  0  0  0  0  0  0
   35.5410   32.5130   34.1980 C   0  0  0  0  0  2  0  0  0  0  0  0
   38.6200   25.0240   34.7950 C   0  0  1  0  0  0  0  0  0  0  0  0
   37.9030   26.2610   34.7520 C   0  0  1  0  0  0  0  0  0  0  0  0
   39.4030   26.3510   34.7630 C   0  0  0  0  0  0  0  0  0  0  0  0
   38.7480   24.3760   33.9010 H   0  0  0  0  0  0  0  0  0  0  0  0
   37.4440   26.6990   35.6860 H   0  0  0  0  0  0  0  0  0  0  0  0
   39.8490   26.5690   33.7730 H   0  0  0  0  0  0  0  0  0  0  0  0
   39.9370   26.6750   35.6730 H   0  0  0  0  0  0  0  0  0  0  0  0
   38.8290   24.2920   36.1090 C   0  0  0  0  0  0  0  0  0  0  0  0
   37.9160   24.5930   37.1120 C   0  0  0  0  0  0  0  0  0  0  0  0
   38.1320   23.9340   38.3310 C   0  0  0  0  0  0  0  0  0  0  0  0
   39.1770   23.0690   38.4690 N   0  0  0  0  0  0  0  0  0  0  0  0
   40.0510   22.8070   37.4460 C   0  0  0  0  0  0  0  0  0  0  0  0
   39.8650   23.4360   36.2420 N   0  0  0  0  0  0  0  0  0  0  0  0
   37.0990   25.2710   37.0060 H   0  0  0  0  0  0  0  0  0  0  0  0
   37.4520   24.1300   39.1460 H   0  0  0  0  0  0  0  0  0  0  0  0
   40.8630   22.1280   37.5830 H   0  0  0  0  0  0  0  0  0  0  0  0
  1  4  1  0  0  0  0
  1 21  1  0  0  0  0
  2  1  1  0  0  0  0
  3  1  1  0  0  0  0
  4  8  1  0  0  0  0
  5  6  1  0  0  0  0
  5  4  2  0  0  0  0
  6  7  1  0  0  0  0
  7  8  2  0  0  0  0
  7 11  1  0  0  0  0
  9  5  1  0  0  0  0
 10  6  1  0  0  0  0
 11 12  1  0  0  0  0
 12 13  1  0  0  0  0
 12 14  1  0  0  0  0
 14 15  1  0  0  0  0
 16 14  1  0  0  0  0
 16 17  1  0  0  0  0
 18 16  1  0  0  0  0
 19 11  1  0  0  0  0
 19 18  1  0  0  0  0
 20 23  1  6  0  0  0
 20 27  1  0  0  0  0
 21 22  1  0  0  0  0
 21 20  1  0  0  0  0
 21 24  1  1  0  0  0
 22 20  1  0  0  0  0
 22 26  1  0  0  0  0
 25 22  1  0  0  0  0
 27 32  2  0  0  0  0
 27 28  1  0  0  0  0
 28 29  2  0  0  0  0
 29 30  1  0  0  0  0
 29 34  1  0  0  0  0
 31 35  1  0  0  0  0
 31 30  2  0  0  0  0
 32 31  1  0  0  0  0
 33 28  1  0  0  0  0
M  END
>  <minimizedAffinity>
-5.34747505

$$$$

 OpenBabel03272501173D

 35 38  0  0  1  0  0  0  0  0999 V2000
   37.4910   26.5640   33.1720 C   0  0  0  0  0  0  0  0  0  0  0  0
   38.2540   27.1270   32.5990 H   0  0  0  0  0  0  0  0  0  0  0  0
   36.5890   27.2410   33.2180 H   0  0  0  0  0  0  0  0  0  0  0  0
   37.0150   25.3320   32.4960 C   0  0  0  0  0  0  0  0  0  0  0  0
   35.9090   25.3070   31.6570 C   0  0  0  0  0  0  0  0  0  0  0  0
   35.6820   24.0860   31.1650 N   0  0  0  0  0  0  0  0  0  0  0  0
   36.6700   23.3230   31.7070 C   0  0  0  0  0  0  0  0  0  0  0  0
   37.4540   24.0760   32.4970 N   0  0  0  0  0  0  0  0  0  0  0  0
   35.3070   26.2110   31.4420 H   0  0  0  0  0  0  0  0  0  0  0  0
   34.8700   23.9230   30.5120 H   0  0  0  0  0  0  0  0  0  0  0  0
   36.5860   21.9490   31.2730 N   0  0  0  0  0  0  0  0  0  0  0  0
   37.7290   21.1280   30.8620 C   0  0  0  0  0  3  0  0  0  0  0  0
   38.6550   21.7340   31.0290 H   0  0  0  0  0  0  0  0  0  0  0  0
   37.8000   19.9530   31.8330 C   0  0  0  0  0  3  0  0  0  0  0  0
   38.0180   20.3930   32.8330 H   0  0  0  0  0  0  0  0  0  0  0  0
   36.5470   19.2240   31.8080 N   0  0  0  0  0  0  0  0  0  0  0  0
   36.6070   18.3460   32.3400 H   0  0  0  0  0  0  0  0  0  0  0  0
   35.4720   20.0850   32.2400 C   0  0  0  0  0  2  0  0  0  0  0  0
   35.3620   21.1780   31.1720 C   0  0  0  0  0  2  0  0  0  0  0  0
   38.9210   25.3640   34.8970 C   0  0  1  0  0  0  0  0  0  0  0  0
   37.9090   26.3290   34.5980 C   0  0  1  0  0  0  0  0  0  0  0  0
   39.2080   26.8590   35.1330 C   0  0  0  0  0  0  0  0  0  0  0  0
   39.5380   24.8810   34.1090 H   0  0  0  0  0  0  0  0  0  0  0  0
   37.0500   26.5100   35.3080 H   0  0  0  0  0  0  0  0  0  0  0  0
   39.8670   27.3020   34.3620 H   0  0  0  0  0  0  0  0  0  0  0  0
   39.2750   27.2300   36.1710 H   0  0  0  0  0  0  0  0  0  0  0  0
   38.8970   24.5930   36.2050 C   0  0  0  0  0  0  0  0  0  0  0  0
   39.8290   23.5690   36.3130 C   0  0  0  0  0  0  0  0  0  0  0  0
   39.7820   22.8440   37.5130 C   0  0  0  0  0  0  0  0  0  0  0  0
   38.8670   23.1620   38.4720 N   0  0  0  0  0  0  0  0  0  0  0  0
   37.9670   24.1840   38.3160 C   0  0  0  0  0  0  0  0  0  0  0  0
   37.9900   24.9110   37.1540 N   0  0  0  0  0  0  0  0  0  0  0  0
   40.5440   23.3180   35.5620 H   0  0  0  0  0  0  0  0  0  0  0  0
   40.4850   22.0360   37.6500 H   0  0  0  0  0  0  0  0  0  0  0  0
   37.2600   24.4090   39.0820 H   0  0  0  0  0  0  0  0  0  0  0  0
  1  3  1  0  0  0  0
  1 21  1  0  0  0  0
  2  1  1  0  0  0  0
  4  8  1  0  0  0  0
  4  1  1  0  0  0  0
  5  4  2  0  0  0  0
  6  5  1  0  0  0  0
  6  7  1  0  0  0  0
  7  8  2  0  0  0  0
  9  5  1  0  0  0  0
 10  6  1  0  0  0  0
 11  7  1  0  0  0  0
 12 13  1  0  0  0  0
 12 11  1  0  0  0  0
 12 14  1  0  0  0  0
 14 15  1  0  0  0  0
 16 14  1  0  0  0  0
 16 18  1  0  0  0  0
 16 17  1  0  0  0  0
 19 11  1  0  0  0  0
 19 18  1  0  0  0  0
 20 23  1  6  0  0  0
 20 22  1  0  0  0  0
 20 27  1  0  0  0  0
 21 20  1  0  0  0  0
 21 22  1  0  0  0  0
 21 24  1  1  0  0  0
 22 26  1  0  0  0  0
 25 22  1  0  0  0  0
 27 28  2  0  0  0  0
 27 32  1  0  0  0  0
 28 29  1  0  0  0  0
 29 34  1  0  0  0  0
 29 30  2  0  0  0  0
 31 30  1  0  0  0  0
 31 35  1  0  0  0  0
 32 31  2  0  0  0  0
 33 28  1  0  0  0  0
M  END
>  <minimizedAffinity>
-5.3237443

$$$$

 OpenBabel03272501173D

 35 38  0  0  1  0  0  0  0  0999 V2000
   36.7020   28.1200   32.4980 C   0  0  0  0  0  0  0  0  0  0  0  0
   37.2920   28.7620   31.8150 H   0  0  0  0  0  0  0  0  0  0  0  0
   36.0640   27.4750   31.8280 H   0  0  0  0  0  0  0  0  0  0  0  0
   37.5200   27.1660   33.2860 C   0  0  0  0  0  0  0  0  0  0  0  0
   38.9000   27.0710   33.1660 C   0  0  0  0  0  0  0  0  0  0  0  0
   39.4120   26.1450   33.9820 N   0  0  0  0  0  0  0  0  0  0  0  0
   38.3270   25.6440   34.6330 C   0  0  0  0  0  0  0  0  0  0  0  0
   37.2090   26.2590   34.2100 N   0  0  0  0  0  0  0  0  0  0  0  0
   39.4800   27.7040   32.4660 H   0  0  0  0  0  0  0  0  0  0  0  0
   40.4510   25.9670   33.9930 H   0  0  0  0  0  0  0  0  0  0  0  0
   38.6960   24.6180   35.5780 N   0  0  0  0  0  0  0  0  0  0  0  0
   38.1540   24.4940   36.9350 C   0  0  0  0  0  3  0  0  0  0  0  0
   37.3630   25.2770   37.0540 H   0  0  0  0  0  0  0  0  0  0  0  0
   37.4420   23.1460   37.0050 C   0  0  0  0  0  3  0  0  0  0  0  0
   36.5920   23.2090   36.2860 H   0  0  0  0  0  0  0  0  0  0  0  0
   38.3730   22.0850   36.6730 N   0  0  0  0  0  0  0  0  0  0  0  0
   37.9690   21.1560   36.8470 H   0  0  0  0  0  0  0  0  0  0  0  0
   38.8500   22.2600   35.3220 C   0  0  0  0  0  2  0  0  0  0  0  0
   39.6580   23.5620   35.3330 C   0  0  0  0  0  2  0  0  0  0  0  0
   35.5080   30.2940   33.0530 C   0  0  1  0  0  0  0  0  0  0  0  0
   35.7470   28.9150   33.3460 C   0  0  1  0  0  0  0  0  0  0  0  0
   34.3720   29.2720   32.8560 C   0  0  0  0  0  0  0  0  0  0  0  0
   35.8750   30.7800   32.1230 H   0  0  0  0  0  0  0  0  0  0  0  0
   35.7360   28.5360   34.4090 H   0  0  0  0  0  0  0  0  0  0  0  0
   34.1930   29.0210   31.7930 H   0  0  0  0  0  0  0  0  0  0  0  0
   33.5180   29.2870   33.5540 H   0  0  0  0  0  0  0  0  0  0  0  0
   35.1790   31.2780   34.1620 C   0  0  0  0  0  0  0  0  0  0  0  0
   35.7490   30.9980   35.3970 C   0  0  0  0  0  0  0  0  0  0  0  0
   35.4170   31.8960   36.4230 C   0  0  0  0  0  0  0  0  0  0  0  0
   34.5920   32.9520   36.1720 N   0  0  0  0  0  0  0  0  0  0  0  0
   34.0550   33.1830   34.9320 C   0  0  0  0  0  0  0  0  0  0  0  0
   34.3620   32.3230   33.9100 N   0  0  0  0  0  0  0  0  0  0  0  0
   36.3930   30.1720   35.5950 H   0  0  0  0  0  0  0  0  0  0  0  0
   35.8330   31.7260   37.4050 H   0  0  0  0  0  0  0  0  0  0  0  0
   33.4090   34.0160   34.7650 H   0  0  0  0  0  0  0  0  0  0  0  0
  1  4  1  0  0  0  0
  1 21  1  0  0  0  0
  2  1  1  0  0  0  0
  3  1  1  0  0  0  0
  4  8  1  0  0  0  0
  5  4  2  0  0  0  0
  5  6  1  0  0  0  0
  6 10  1  0  0  0  0
  6  7  1  0  0  0  0
  7 11  1  0  0  0  0
  8  7  2  0  0  0  0
  9  5  1  0  0  0  0
 11 12  1  0  0  0  0
 12 14  1  0  0  0  0
 12 13  1  0  0  0  0
 15 14  1  0  0  0  0
 16 17  1  0  0  0  0
 16 14  1  0  0  0  0
 18 19  1  0  0  0  0
 18 16  1  0  0  0  0
 19 11  1  0  0  0  0
 20 23  1  6  0  0  0
 20 21  1  0  0  0  0
 20 27  1  0  0  0  0
 21 24  1  1  0  0  0
 22 20  1  0  0  0  0
 22 21  1  0  0  0  0
 22 26  1  0  0  0  0
 25 22  1  0  0  0  0
 27 28  1  0  0  0  0
 28 33  1  0  0  0  0
 28 29  2  0  0  0  0
 29 34  1  0  0  0  0
 30 29  1  0  0  0  0
 31 30  2  0  0  0  0
 32 27  2  0  0  0  0
 32 31  1  0  0  0  0
 35 31  1  0  0  0  0
M  END
>  <minimizedAffinity>
-5.11542797

$$$$

 OpenBabel03272501173D

 35 38  0  0  1  0  0  0  0  0999 V2000
   38.1620   26.8510   33.0480 C   0  0  0  0  0  0  0  0  0  0  0  0
   38.1160   25.9720   32.3770 H   0  0  0  0  0  0  0  0  0  0  0  0
   39.0050   27.4880   32.6520 H   0  0  0  0  0  0  0  0  0  0  0  0
   36.9610   27.7200   32.9880 C   0  0  0  0  0  0  0  0  0  0  0  0
   36.2450   27.9440   31.8190 C   0  0  0  0  0  0  0  0  0  0  0  0
   35.2030   28.7560   32.0180 N   0  0  0  0  0  0  0  0  0  0  0  0
   35.2640   29.0510   33.3450 C   0  0  0  0  0  0  0  0  0  0  0  0
   36.3140   28.4300   33.9090 N   0  0  0  0  0  0  0  0  0  0  0  0
   36.5300   27.4860   30.8510 H   0  0  0  0  0  0  0  0  0  0  0  0
   34.5720   29.0120   31.2130 H   0  0  0  0  0  0  0  0  0  0  0  0
   34.1920   29.9290   33.7480 N   0  0  0  0  0  0  0  0  0  0  0  0
   33.4010   29.7780   34.9730 C   0  0  0  0  0  3  0  0  0  0  0  0
   33.8380   28.9260   35.5530 H   0  0  0  0  0  0  0  0  0  0  0  0
   33.6360   31.0340   35.8080 C   0  0  0  0  0  3  0  0  0  0  0  0
   34.7170   31.0260   36.0790 H   0  0  0  0  0  0  0  0  0  0  0  0
   33.2640   32.2060   35.0410 N   0  0  0  0  0  0  0  0  0  0  0  0
   33.2740   33.0570   35.6170 H   0  0  0  0  0  0  0  0  0  0  0  0
   34.0930   32.3010   33.8630 C   0  0  0  0  0  2  0  0  0  0  0  0
   33.7320   31.0850   33.0030 C   0  0  0  0  0  2  0  0  0  0  0  0
   39.3180   25.2980   34.6950 C   0  0  1  0  0  0  0  0  0  0  0  0
   38.5460   26.4770   34.4530 C   0  0  1  0  0  0  0  0  0  0  0  0
   39.9440   26.6790   34.9660 C   0  0  0  0  0  0  0  0  0  0  0  0
   39.7920   24.7150   33.8750 H   0  0  0  0  0  0  0  0  0  0  0  0
   37.7670   26.8240   35.1930 H   0  0  0  0  0  0  0  0  0  0  0  0
   40.6700   26.9880   34.1880 H   0  0  0  0  0  0  0  0  0  0  0  0
   40.1170   26.9880   36.0110 H   0  0  0  0  0  0  0  0  0  0  0  0
   39.1480   24.5070   35.9800 C   0  0  0  0  0  0  0  0  0  0  0  0
   38.0850   24.8960   36.7840 C   0  0  0  0  0  0  0  0  0  0  0  0
   37.9510   24.1790   37.9830 C   0  0  0  0  0  0  0  0  0  0  0  0
   38.8290   23.1810   38.2880 N   0  0  0  0  0  0  0  0  0  0  0  0
   39.8630   22.8370   37.4580 C   0  0  0  0  0  0  0  0  0  0  0  0
   40.0180   23.5180   36.2790 N   0  0  0  0  0  0  0  0  0  0  0  0
   37.3990   25.6780   36.5480 H   0  0  0  0  0  0  0  0  0  0  0  0
   37.1410   24.4400   38.6470 H   0  0  0  0  0  0  0  0  0  0  0  0
   40.5370   22.0530   37.7240 H   0  0  0  0  0  0  0  0  0  0  0  0
  1 21  1  0  0  0  0
  2  1  1  0  0  0  0
  3  1  1  0  0  0  0
  4  1  1  0  0  0  0
  4  8  1  0  0  0  0
  5  6  1  0  0  0  0
  5  4  2  0  0  0  0
  6  7  1  0  0  0  0
  7 11  1  0  0  0  0
  7  8  2  0  0  0  0
  9  5  1  0  0  0  0
 10  6  1  0  0  0  0
 11 12  1  0  0  0  0
 12 13  1  0  0  0  0
 12 14  1  0  0  0  0
 14 15  1  0  0  0  0
 16 17  1  0  0  0  0
 16 14  1  0  0  0  0
 18 16  1  0  0  0  0
 19 11  1  0  0  0  0
 19 18  1  0  0  0  0
 20 23  1  6  0  0  0
 20 22  1  0  0  0  0
 20 27  1  0  0  0  0
 21 20  1  0  0  0  0
 21 22  1  0  0  0  0
 21 24  1  1  0  0  0
 22 26  1  0  0  0  0
 25 22  1  0  0  0  0
 27 32  2  0  0  0  0
 27 28  1  0  0  0  0
 28 29  2  0  0  0  0
 29 30  1  0  0  0  0
 29 34  1  0  0  0  0
 31 35  1  0  0  0  0
 31 30  2  0  0  0  0
 32 31  1  0  0  0  0
 33 28  1  0  0  0  0
M  END
>  <minimizedAffinity>
-5.09859037

$$$$

 OpenBabel03272501173D

 35 38  0  0  1  0  0  0  0  0999 V2000
   39.6790   24.8350   31.3500 C   0  0  0  0  0  0  0  0  0  0  0  0
   40.7480   24.6440   31.1350 H   0  0  0  0  0  0  0  0  0  0  0  0
   39.1120   24.3840   30.4850 H   0  0  0  0  0  0  0  0  0  0  0  0
   39.1700   24.1330   32.5540 C   0  0  0  0  0  0  0  0  0  0  0  0
   37.9320   23.5050   32.5970 C   0  0  0  0  0  0  0  0  0  0  0  0
   37.7000   22.9380   33.7850 N   0  0  0  0  0  0  0  0  0  0  0  0
   38.8190   23.2160   34.5070 C   0  0  0  0  0  0  0  0  0  0  0  0
   39.6840   23.9270   33.7640 N   0  0  0  0  0  0  0  0  0  0  0  0
   37.2410   23.4920   31.7310 H   0  0  0  0  0  0  0  0  0  0  0  0
   36.7940   22.4260   33.9580 H   0  0  0  0  0  0  0  0  0  0  0  0
   38.7480   22.6650   35.8390 N   0  0  0  0  0  0  0  0  0  0  0  0
   39.8480   21.9770   36.5220 C   0  0  0  0  0  3  0  0  0  0  0  0
   40.7470   22.0380   35.8570 H   0  0  0  0  0  0  0  0  0  0  0  0
   40.1740   22.7950   37.7680 C   0  0  0  0  0  3  0  0  0  0  0  0
   40.5440   23.7800   37.4020 H   0  0  0  0  0  0  0  0  0  0  0  0
   38.9900   22.9170   38.5950 N   0  0  0  0  0  0  0  0  0  0  0  0
   39.2060   23.3380   39.5080 H   0  0  0  0  0  0  0  0  0  0  0  0
   37.9580   23.6190   37.8690 C   0  0  0  0  0  2  0  0  0  0  0  0
   37.5810   22.7040   36.6990 C   0  0  0  0  0  2  0  0  0  0  0  0
   38.2490   26.7940   32.1150 C   0  0  1  0  0  0  0  0  0  0  0  0
   39.3500   26.3030   31.3440 C   0  0  1  0  0  0  0  0  0  0  0  0
   39.6850   27.1880   32.5120 C   0  0  0  0  0  0  0  0  0  0  0  0
   37.7090   26.1630   32.8540 H   0  0  0  0  0  0  0  0  0  0  0  0
   39.6260   26.7770   30.3580 H   0  0  0  0  0  0  0  0  0  0  0  0
   40.0560   26.6420   33.4000 H   0  0  0  0  0  0  0  0  0  0  0  0
   40.0150   28.2290   32.3470 H   0  0  0  0  0  0  0  0  0  0  0  0
   37.4530   28.0010   31.6510 C   0  0  0  0  0  0  0  0  0  0  0  0
   36.5500   28.5110   32.5740 C   0  0  0  0  0  0  0  0  0  0  0  0
   35.7990   29.6090   32.1290 C   0  0  0  0  0  0  0  0  0  0  0  0
   35.9810   30.1010   30.8710 N   0  0  0  0  0  0  0  0  0  0  0  0
   36.8880   29.5590   29.9970 C   0  0  0  0  0  0  0  0  0  0  0  0
   37.6370   28.4870   30.4050 N   0  0  0  0  0  0  0  0  0  0  0  0
   36.4040   28.1260   33.5590 H   0  0  0  0  0  0  0  0  0  0  0  0
   35.0800   30.0460   32.8060 H   0  0  0  0  0  0  0  0  0  0  0  0
   37.0080   29.9630   29.0170 H   0  0  0  0  0  0  0  0  0  0  0  0
  1  4  1  0  0  0  0
  2  1  1  0  0  0  0
  3  1  1  0  0  0  0
  4  5  2  0  0  0  0
  4  8  1  0  0  0  0
  5  6  1  0  0  0  0
  6 10  1  0  0  0  0
  6  7  1  0  0  0  0
  7 11  1  0  0  0  0
  8  7  2  0  0  0  0
  9  5  1  0  0  0  0
 11 12  1  0  0  0  0
 11 19  1  0  0  0  0
 12 14  1  0  0  0  0
 13 12  1  0  0  0  0
 14 16  1  0  0  0  0
 15 14  1  0  0  0  0
 16 17  1  0  0  0  0
 18 16  1  0  0  0  0
 19 18  1  0  0  0  0
 20 22  1  0  0  0  0
 20 23  1  1  0  0  0
 21 24  1  6  0  0  0
 21  1  1  0  0  0  0
 21 20  1  0  0  0  0
 21 22  1  0  0  0  0
 22 25  1  0  0  0  0
 26 22  1  0  0  0  0
 27 20  1  0  0  0  0
 27 28  1  0  0  0  0
 28 33  1  0  0  0  0
 29 28  2  0  0  0  0
 29 34  1  0  0  0  0
 30 29  1  0  0  0  0
 31 32  1  0  0  0  0
 31 30  2  0  0  0  0
 32 27  2  0  0  0  0
 35 31  1  0  0  0  0
M  END
>  <minimizedAffinity>
-4.93927336

$$$$

 OpenBabel03272501173D

 35 38  0  0  1  0  0  0  0  0999 V2000
   38.3330   27.2650   32.7610 C   0  0  0  0  0  0  0  0  0  0  0  0
   38.9910   28.1300   32.9730 H   0  0  0  0  0  0  0  0  0  0  0  0
   38.8620   26.6740   31.9590 H   0  0  0  0  0  0  0  0  0  0  0  0
   38.1850   26.3250   33.8990 C   0  0  0  0  0  0  0  0  0  0  0  0
   37.2360   26.4890   34.9000 C   0  0  0  0  0  0  0  0  0  0  0  0
   37.2950   25.5130   35.8100 N   0  0  0  0  0  0  0  0  0  0  0  0
   38.3060   24.7140   35.3720 C   0  0  0  0  0  0  0  0  0  0  0  0
   38.8260   25.2090   34.2370 N   0  0  0  0  0  0  0  0  0  0  0  0
   36.5270   27.3400   34.9120 H   0  0  0  0  0  0  0  0  0  0  0  0
   36.6290   25.5140   36.6280 H   0  0  0  0  0  0  0  0  0  0  0  0
   38.5110   23.5830   36.2450 N   0  0  0  0  0  0  0  0  0  0  0  0
   38.7450   22.2080   35.7940 C   0  0  0  0  0  3  0  0  0  0  0  0
   38.8140   22.2280   34.6760 H   0  0  0  0  0  0  0  0  0  0  0  0
   40.1250   21.8040   36.3060 C   0  0  0  0  0  3  0  0  0  0  0  0
   40.8520   22.4760   35.7940 H   0  0  0  0  0  0  0  0  0  0  0  0
   40.1670   21.9360   37.7490 N   0  0  0  0  0  0  0  0  0  0  0  0
   41.0300   21.5400   38.1420 H   0  0  0  0  0  0  0  0  0  0  0  0
   39.9470   23.3140   38.1190 C   0  0  0  0  0  2  0  0  0  0  0  0
   38.5110   23.6340   37.6940 C   0  0  0  0  0  2  0  0  0  0  0  0
   36.7660   29.0610   31.8770 C   0  0  1  0  0  0  0  0  0  0  0  0
   37.0140   27.6840   32.1700 C   0  0  1  0  0  0  0  0  0  0  0  0
   36.8850   28.0510   30.7190 C   0  0  0  0  0  0  0  0  0  0  0  0
   37.5640   29.8340   31.9160 H   0  0  0  0  0  0  0  0  0  0  0  0
   36.1810   27.0030   32.5130 H   0  0  0  0  0  0  0  0  0  0  0  0
   37.8510   28.1160   30.1820 H   0  0  0  0  0  0  0  0  0  0  0  0
   35.9760   27.7820   30.1540 H   0  0  0  0  0  0  0  0  0  0  0  0
   35.3620   29.6340   31.9670 C   0  0  0  0  0  0  0  0  0  0  0  0
   34.5210   29.0130   32.8800 C   0  0  0  0  0  0  0  0  0  0  0  0
   33.2180   29.5300   32.9380 C   0  0  0  0  0  0  0  0  0  0  0  0
   32.8550   30.5690   32.1340 N   0  0  0  0  0  0  0  0  0  0  0  0
   33.7260   31.1480   31.2470 C   0  0  0  0  0  0  0  0  0  0  0  0
   35.0060   30.6650   31.1690 N   0  0  0  0  0  0  0  0  0  0  0  0
   34.8030   28.1980   33.5090 H   0  0  0  0  0  0  0  0  0  0  0  0
   32.5210   29.0840   33.6320 H   0  0  0  0  0  0  0  0  0  0  0  0
   33.4140   31.9580   30.6270 H   0  0  0  0  0  0  0  0  0  0  0  0
  1  2  1  0  0  0  0
  1  4  1  0  0  0  0
  3  1  1  0  0  0  0
  4  8  1  0  0  0  0
  4  5  2  0  0  0  0
  5  9  1  0  0  0  0
  5  6  1  0  0  0  0
  6 10  1  0  0  0  0
  7  6  1  0  0  0  0
  7 11  1  0  0  0  0
  8  7  2  0  0  0  0
 11 19  1  0  0  0  0
 12 11  1  0  0  0  0
 12 14  1  0  0  0  0
 13 12  1  0  0  0  0
 14 16  1  0  0  0  0
 15 14  1  0  0  0  0
 16 18  1  0  0  0  0
 16 17  1  0  0  0  0
 19 18  1  0  0  0  0
 20 23  1  1  0  0  0
 20 27  1  0  0  0  0
 20 21  1  0  0  0  0
 21 24  1  1  0  0  0
 21  1  1  0  0  0  0
 22 20  1  0  0  0  0
 22 21  1  0  0  0  0
 25 22  1  0  0  0  0
 26 22  1  0  0  0  0
 27 28  1  0  0  0  0
 28 29  2  0  0  0  0
 28 33  1  0  0  0  0
 29 34  1  0  0  0  0
 30 29  1  0  0  0  0
 31 30  2  0  0  0  0
 32 31  1  0  0  0  0
 32 27  2  0  0  0  0
 35 31  1  0  0  0  0
M  END
>  <minimizedAffinity>
-4.93737602

$$$$

 OpenBabel03272501173D

 35 38  0  0  1  0  0  0  0  0999 V2000
   36.9130   27.4750   34.1160 C   0  0  0  0  0  0  0  0  0  0  0  0
   36.7440   28.5600   34.2550 H   0  0  0  0  0  0  0  0  0  0  0  0
   35.8920   27.0000   34.1890 H   0  0  0  0  0  0  0  0  0  0  0  0
   37.4140   27.1090   32.7680 C   0  0  0  0  0  0  0  0  0  0  0  0
   36.8280   26.1240   31.9840 C   0  0  0  0  0  0  0  0  0  0  0  0
   37.4530   25.9800   30.8120 N   0  0  0  0  0  0  0  0  0  0  0  0
   38.4570   26.8980   30.8590 C   0  0  0  0  0  0  0  0  0  0  0  0
   38.4220   27.5610   32.0270 N   0  0  0  0  0  0  0  0  0  0  0  0
   35.9470   25.5430   32.3200 H   0  0  0  0  0  0  0  0  0  0  0  0
   37.1130   25.2640   30.1170 H   0  0  0  0  0  0  0  0  0  0  0  0
   39.2470   26.8900   29.6510 N   0  0  0  0  0  0  0  0  0  0  0  0
   39.7120   28.0880   28.9460 C   0  0  0  0  0  3  0  0  0  0  0  0
   39.4120   28.9770   29.5580 H   0  0  0  0  0  0  0  0  0  0  0  0
   41.2370   28.0460   28.9610 C   0  0  0  0  0  3  0  0  0  0  0  0
   41.5360   28.1240   30.0320 H   0  0  0  0  0  0  0  0  0  0  0  0
   41.6970   26.8170   28.3440 N   0  0  0  0  0  0  0  0  0  0  0  0
   42.7160   26.8180   28.2080 H   0  0  0  0  0  0  0  0  0  0  0  0
   41.2190   25.6840   29.0980 C   0  0  0  0  0  2  0  0  0  0  0  0
   39.6940   25.7010   28.9520 C   0  0  0  0  0  2  0  0  0  0  0  0
   38.5140   25.7050   34.9920 C   0  0  1  0  0  0  0  0  0  0  0  0
   37.7310   26.8780   35.2290 C   0  0  1  0  0  0  0  0  0  0  0  0
   39.2230   27.0420   35.2810 C   0  0  0  0  0  0  0  0  0  0  0  0
   38.6780   25.2920   33.9730 H   0  0  0  0  0  0  0  0  0  0  0  0
   37.2470   27.0610   36.2320 H   0  0  0  0  0  0  0  0  0  0  0  0
   39.6590   27.5080   34.3770 H   0  0  0  0  0  0  0  0  0  0  0  0
   39.7370   27.1720   36.2500 H   0  0  0  0  0  0  0  0  0  0  0  0
   38.7600   24.6980   36.1010 C   0  0  0  0  0  0  0  0  0  0  0  0
   37.9080   24.7920   37.1940 C   0  0  0  0  0  0  0  0  0  0  0  0
   38.1590   23.8770   38.2260 C   0  0  0  0  0  0  0  0  0  0  0  0
   39.1790   22.9790   38.1160 N   0  0  0  0  0  0  0  0  0  0  0  0
   39.9930   22.9290   37.0140 C   0  0  0  0  0  0  0  0  0  0  0  0
   39.7710   23.8100   35.9890 N   0  0  0  0  0  0  0  0  0  0  0  0
   37.1100   25.4950   37.2820 H   0  0  0  0  0  0  0  0  0  0  0  0
   37.5260   23.9050   39.1010 H   0  0  0  0  0  0  0  0  0  0  0  0
   40.7870   22.2170   36.9560 H   0  0  0  0  0  0  0  0  0  0  0  0
  1  3  1  0  0  0  0
  1  2  1  0  0  0  0
  1 21  1  0  0  0  0
  4  1  1  0  0  0  0
  5  9  1  0  0  0  0
  5  4  2  0  0  0  0
  6  7  1  0  0  0  0
  6  5  1  0  0  0  0
  7  8  2  0  0  0  0
  8  4  1  0  0  0  0
 10  6  1  0  0  0  0
 11  7  1  0  0  0  0
 12 14  1  0  0  0  0
 12 13  1  0  0  0  0
 12 11  1  0  0  0  0
 14 15  1  0  0  0  0
 16 14  1  0  0  0  0
 16 18  1  0  0  0  0
 17 16  1  0  0  0  0
 19 18  1  0  0  0  0
 19 11  1  0  0  0  0
 20 23  1  6  0  0  0
 20 21  1  0  0  0  0
 20 22  1  0  0  0  0
 20 27  1  0  0  0  0
 21 22  1  0  0  0  0
 21 24  1  1  0  0  0
 22 26  1  0  0  0  0
 25 22  1  0  0  0  0
 27 28  1  0  0  0  0
 28 33  1  0  0  0  0
 28 29  2  0  0  0  0
 29 34  1  0  0  0  0
 30 29  1  0  0  0  0
 31 30  2  0  0  0  0
 32 27  2  0  0  0  0
 32 31  1  0  0  0  0
 35 31  1  0  0  0  0
M  END
>  <minimizedAffinity>
-4.93045616

$$$$

 OpenBabel03272501173D

 35 38  0  0  1  0  0  0  0  0999 V2000
   38.4170   26.4920   33.0170 C   0  0  0  0  0  0  0  0  0  0  0  0
   38.1130   25.7000   32.3060 H   0  0  0  0  0  0  0  0  0  0  0  0
   39.2080   27.0910   32.4800 H   0  0  0  0  0  0  0  0  0  0  0  0
   37.3430   27.4660   33.3300 C   0  0  0  0  0  0  0  0  0  0  0  0
   36.8710   27.6870   34.6170 C   0  0  0  0  0  0  0  0  0  0  0  0
   35.9080   28.6130   34.6460 N   0  0  0  0  0  0  0  0  0  0  0  0
   35.7710   28.9860   33.3450 C   0  0  0  0  0  0  0  0  0  0  0  0
   36.6280   28.2960   32.5730 N   0  0  0  0  0  0  0  0  0  0  0  0
   37.2680   27.1420   35.4960 H   0  0  0  0  0  0  0  0  0  0  0  0
   35.4590   28.8780   35.5630 H   0  0  0  0  0  0  0  0  0  0  0  0
   34.7600   30.0040   33.1830 N   0  0  0  0  0  0  0  0  0  0  0  0
   34.8940   31.1890   32.3310 C   0  0  0  0  0  3  0  0  0  0  0  0
   35.8680   31.1040   31.7860 H   0  0  0  0  0  0  0  0  0  0  0  0
   33.7960   31.0980   31.2740 C   0  0  0  0  0  3  0  0  0  0  0  0
   34.0300   30.1940   30.6650 H   0  0  0  0  0  0  0  0  0  0  0  0
   32.5020   31.0150   31.9210 N   0  0  0  0  0  0  0  0  0  0  0  0
   31.7330   31.0960   31.2440 H   0  0  0  0  0  0  0  0  0  0  0  0
   32.4350   29.8190   32.7260 C   0  0  0  0  0  2  0  0  0  0  0  0
   33.4680   30.0110   33.8410 C   0  0  0  0  0  2  0  0  0  0  0  0
   38.9400   24.5450   34.5650 C   0  0  1  0  0  0  0  0  0  0  0  0
   39.0780   25.9320   34.2460 C   0  0  1  0  0  0  0  0  0  0  0  0
   40.3210   25.0920   34.1560 C   0  0  0  0  0  0  0  0  0  0  0  0
   38.4920   23.8110   33.8600 H   0  0  0  0  0  0  0  0  0  0  0  0
   39.1500   26.7110   35.0600 H   0  0  0  0  0  0  0  0  0  0  0  0
   40.6070   24.8200   33.1220 H   0  0  0  0  0  0  0  0  0  0  0  0
   41.1080   25.1750   34.9250 H   0  0  0  0  0  0  0  0  0  0  0  0
   38.9370   24.0760   36.0090 C   0  0  0  0  0  0  0  0  0  0  0  0
   37.9730   24.6550   36.8240 C   0  0  0  0  0  0  0  0  0  0  0  0
   37.9950   24.2370   38.1630 C   0  0  0  0  0  0  0  0  0  0  0  0
   38.9180   23.3260   38.5830 N   0  0  0  0  0  0  0  0  0  0  0  0
   39.8510   22.7850   37.7370 C   0  0  0  0  0  0  0  0  0  0  0  0
   39.8530   23.1720   36.4220 N   0  0  0  0  0  0  0  0  0  0  0  0
   37.2520   25.3690   36.4970 H   0  0  0  0  0  0  0  0  0  0  0  0
   37.2670   24.6550   38.8410 H   0  0  0  0  0  0  0  0  0  0  0  0
   40.5640   22.0750   38.0940 H   0  0  0  0  0  0  0  0  0  0  0  0
  1  4  1  0  0  0  0
  1 21  1  0  0  0  0
  2  1  1  0  0  0  0
  3  1  1  0  0  0  0
  4  5  2  0  0  0  0
  5  6  1  0  0  0  0
  5  9  1  0  0  0  0
  6 10  1  0  0  0  0
  7  6  1  0  0  0  0
  8  4  1  0  0  0  0
  8  7  2  0  0  0  0
 11  7  1  0  0  0  0
 11 19  1  0  0  0  0
 12 11  1  0  0  0  0
 13 12  1  0  0  0  0
 14 16  1  0  0  0  0
 14 12  1  0  0  0  0
 15 14  1  0  0  0  0
 16 18  1  0  0  0  0
 17 16  1  0  0  0  0
 18 19  1  0  0  0  0
 20 23  1  6  0  0  0
 20 27  1  0  0  0  0
 21 20  1  0  0  0  0
 21 24  1  1  0  0  0
 22 21  1  0  0  0  0
 22 20  1  0  0  0  0
 22 26  1  0  0  0  0
 25 22  1  0  0  0  0
 27 32  2  0  0  0  0
 27 28  1  0  0  0  0
 28 29  2  0  0  0  0
 29 30  1  0  0  0  0
 29 34  1  0  0  0  0
 31 35  1  0  0  0  0
 31 30  2  0  0  0  0
 32 31  1  0  0  0  0
 33 28  1  0  0  0  0
M  END
>  <minimizedAffinity>
-4.92128849

$$$$

 OpenBabel03272501173D

 35 38  0  0  1  0  0  0  0  0999 V2000
   37.7720   25.5870   32.7660 C   0  0  0  0  0  0  0  0  0  0  0  0
   37.2200   24.6780   32.4570 H   0  0  0  0  0  0  0  0  0  0  0  0
   38.5640   25.7400   31.9770 H   0  0  0  0  0  0  0  0  0  0  0  0
   36.9570   26.8260   32.7410 C   0  0  0  0  0  0  0  0  0  0  0  0
   36.0970   27.1470   31.6990 C   0  0  0  0  0  0  0  0  0  0  0  0
   35.4710   28.3090   31.9070 N   0  0  0  0  0  0  0  0  0  0  0  0
   35.9490   28.7300   33.1090 C   0  0  0  0  0  0  0  0  0  0  0  0
   36.8320   27.8410   33.5930 N   0  0  0  0  0  0  0  0  0  0  0  0
   35.9670   26.4930   30.8140 H   0  0  0  0  0  0  0  0  0  0  0  0
   34.7860   28.6740   31.1920 H   0  0  0  0  0  0  0  0  0  0  0  0
   35.3670   29.9910   33.5050 N   0  0  0  0  0  0  0  0  0  0  0  0
   34.8940   30.3080   34.8560 C   0  0  0  0  0  3  0  0  0  0  0  0
   35.1460   29.4380   35.5130 H   0  0  0  0  0  0  0  0  0  0  0  0
   35.7340   31.4830   35.3520 C   0  0  0  0  0  3  0  0  0  0  0  0
   36.7810   31.1050   35.4200 H   0  0  0  0  0  0  0  0  0  0  0  0
   35.6030   32.5970   34.4340 N   0  0  0  0  0  0  0  0  0  0  0  0
   36.0390   33.4500   34.8080 H   0  0  0  0  0  0  0  0  0  0  0  0
   36.1020   32.2200   33.1340 C   0  0  0  0  0  2  0  0  0  0  0  0
   35.1560   31.1260   32.6280 C   0  0  0  0  0  2  0  0  0  0  0  0
   38.7340   24.0740   34.5690 C   0  0  1  0  0  0  0  0  0  0  0  0
   38.5070   25.3930   34.0640 C   0  0  1  0  0  0  0  0  0  0  0  0
   39.9330   24.9200   34.0960 C   0  0  0  0  0  0  0  0  0  0  0  0
   38.5320   23.1620   33.9680 H   0  0  0  0  0  0  0  0  0  0  0  0
   38.3310   26.2610   34.7640 H   0  0  0  0  0  0  0  0  0  0  0  0
   40.3260   24.6040   33.1110 H   0  0  0  0  0  0  0  0  0  0  0  0
   40.6350   25.3140   34.8510 H   0  0  0  0  0  0  0  0  0  0  0  0
   38.7970   23.8150   36.0630 C   0  0  0  0  0  0  0  0  0  0  0  0
   37.8260   24.4550   36.8220 C   0  0  0  0  0  0  0  0  0  0  0  0
   37.9080   24.2320   38.2050 C   0  0  0  0  0  0  0  0  0  0  0  0
   38.8890   23.4360   38.7160 N   0  0  0  0  0  0  0  0  0  0  0  0
   39.8250   22.8260   37.9210 C   0  0  0  0  0  0  0  0  0  0  0  0
   39.7700   23.0240   36.5660 N   0  0  0  0  0  0  0  0  0  0  0  0
   37.0590   25.0810   36.4240 H   0  0  0  0  0  0  0  0  0  0  0  0
   37.1780   24.7060   38.8440 H   0  0  0  0  0  0  0  0  0  0  0  0
   40.5840   22.2100   38.3490 H   0  0  0  0  0  0  0  0  0  0  0  0
  1 21  1  0  0  0  0
  2  1  1  0  0  0  0
  3  1  1  0  0  0  0
  4  1  1  0  0  0  0
  4  8  1  0  0  0  0
  5  6  1  0  0  0  0
  5  4  2  0  0  0  0
  6  7  1  0  0  0  0
  7 11  1  0  0  0  0
  7  8  2  0  0  0  0
  9  5  1  0  0  0  0
 10  6  1  0  0  0  0
 11 12  1  0  0  0  0
 12 14  1  0  0  0  0
 12 13  1  0  0  0  0
 14 15  1  0  0  0  0
 16 17  1  0  0  0  0
 16 14  1  0  0  0  0
 18 16  1  0  0  0  0
 19 18  1  0  0  0  0
 19 11  1  0  0  0  0
 20 23  1  6  0  0  0
 20 27  1  0  0  0  0
 21 22  1  0  0  0  0
 21 20  1  0  0  0  0
 21 24  1  1  0  0  0
 22 20  1  0  0  0  0
 22 26  1  0  0  0  0
 25 22  1  0  0  0  0
 27 32  2  0  0  0  0
 27 28  1  0  0  0  0
 28 29  2  0  0  0  0
 29 30  1  0  0  0  0
 29 34  1  0  0  0  0
 31 35  1  0  0  0  0
 31 30  2  0  0  0  0
 32 31  1  0  0  0  0
 33 28  1  0  0  0  0
M  END
>  <minimizedAffinity>
-4.87276316

$$$$
