
     RDKit          3D

 27 28  0  0  0  0  0  0  0  0999 V2000
   38.3084   31.2393   50.1188 C   0  0  0  0  0  0  0  0  0  0  0  0
   38.2944   31.6115   48.7717 C   0  0  0  0  0  0  0  0  0  0  0  0
   37.2020   31.2231   47.9978 C   0  0  0  0  0  0  0  0  0  0  0  0
   36.2197   30.5073   48.6015 N   0  0  0  0  0  0  0  0  0  0  0  0
   36.2519   30.1612   49.8918 C   0  0  0  0  0  0  0  0  0  0  0  0
   37.3037   30.5315   50.6499 N   0  0  0  0  0  0  0  0  0  0  0  0
   35.1195   29.3764   50.4447 C   0  0  0  0  0  0  0  0  0  0  0  0
   35.2684   29.1335   51.8041 F   0  0  0  0  0  0  0  0  0  0  0  0
   33.9238   30.0633   50.3020 F   0  0  0  0  0  0  0  0  0  0  0  0
   34.9573   28.1650   49.8216 F   0  0  0  0  0  0  0  0  0  0  0  0
   39.1787   31.5547   50.7146 H   0  0  0  0  0  0  0  0  0  0  0  0
   39.0721   32.1830   48.2767 H   0  0  0  0  0  0  0  0  0  0  0  0
   37.0589   31.5314   46.6228 N   0  0  0  0  0  0  0  0  0  0  0  0
   37.8584   32.5401   45.9363 C   0  0  2  0  0  0  0  0  0  0  0  0
   38.8159   32.7266   46.4676 H   0  0  0  0  0  0  0  0  0  0  0  0
   38.1877   32.1356   44.5348 C   0  0  1  0  0  0  0  0  0  0  0  0
   38.4662   33.0573   43.9852 H   0  0  0  0  0  0  0  0  0  0  0  0
   37.1408   31.4744   43.8214 N   0  0  0  0  0  0  0  0  0  0  0  0
   37.4352   30.4708   43.6784 H   0  0  0  0  0  0  0  0  0  0  0  0
   35.8909   31.4340   44.5275 C   0  0  0  0  0  0  0  0  0  0  0  0
   36.0569   30.7839   45.8995 C   0  0  0  0  0  0  0  0  0  0  0  0
   37.3182   33.5260   45.9542 H   0  0  0  0  0  0  0  0  0  0  0  0
   39.1288   31.5221   44.5813 H   0  0  0  0  0  0  0  0  0  0  0  0
   35.1539   30.8882   43.9126 H   0  0  0  0  0  0  0  0  0  0  0  0
   35.5261   32.4845   44.7138 H   0  0  0  0  0  0  0  0  0  0  0  0
   35.0765   30.8132   46.4172 H   0  0  0  0  0  0  0  0  0  0  0  0
   36.3336   29.7343   45.6985 H   0  0  0  0  0  0  0  0  0  0  0  0
  1  6  2  0
  2  1  1  0
  3  4  1  0
  3  2  2  0
  4  5  2  0
  5  7  1  0
  5  6  1  0
  7  8  1  0
  9  7  1  0
 10  7  1  0
  1 11  1  0
  2 12  1  0
 13 14  1  0
 14 15  1  1
 14 16  1  0
 16 17  1  6
 16 18  1  0
 18 19  1  0
 18 20  1  0
 20 21  1  0
 21 13  1  0
 14 22  1  0
 16 23  1  0
 20 24  1  0
 20 25  1  0
 21 26  1  0
 21 27  1  0
  3 13  1  0
M  ISO  5  11  14  12  14  15   8  17   8  19   5
M  END
>  <DihAtoms>  (1) 
3,2,12,13

>  <DihDeg>  (1) 
-0.007330846336743445

$$$$
