
 OpenBabel03272501143D

 35 38  0  0  1  0  0  0  0  0999 V2000
   35.2070   29.1930   50.5700 C   0  0  0  0  0  0  0  0  0  0  0  0
   34.7860   29.7210   51.4470 H   0  0  0  0  0  0  0  0  0  0  0  0
   35.3810   28.1320   50.9110 H   0  0  0  0  0  0  0  0  0  0  0  0
   34.2710   29.0810   49.4250 C   0  0  0  0  0  0  0  0  0  0  0  0
   34.3930   29.8420   48.2690 C   0  0  0  0  0  0  0  0  0  0  0  0
   33.4360   29.5590   47.3810 N   0  0  0  0  0  0  0  0  0  0  0  0
   32.6930   28.5960   47.9920 C   0  0  0  0  0  0  0  0  0  0  0  0
   33.2000   28.3220   49.2050 N   0  0  0  0  0  0  0  0  0  0  0  0
   35.2010   30.5870   48.1310 H   0  0  0  0  0  0  0  0  0  0  0  0
   33.4080   30.0660   46.4560 H   0  0  0  0  0  0  0  0  0  0  0  0
   31.5980   28.1560   47.1600 N   0  0  0  0  0  0  0  0  0  0  0  0
   31.1950   26.7590   46.9760 C   0  0  0  0  0  0  0  0  0  0  0  0
   31.8300   26.1330   47.6520 H   0  0  0  0  0  0  0  0  0  0  0  0
   29.7640   26.6410   47.4950 C   0  0  0  0  0  0  0  0  0  0  0  0
   29.8140   26.8560   48.5870 H   0  0  0  0  0  0  0  0  0  0  0  0
   28.9090   27.5710   46.7830 N   0  0  0  0  0  0  0  0  0  0  0  0
   27.9170   27.4200   47.0040 H   0  0  0  0  0  0  0  0  0  0  0  0
   29.3530   28.9230   47.0240 C   0  0  0  0  0  0  0  0  0  0  0  0
   30.7390   29.0250   46.3800 C   0  0  0  0  0  0  0  0  0  0  0  0
   36.8020   31.1380   50.2030 C   0  0  1  0  0  0  0  0  0  0  0  0
   36.5560   29.7300   50.1750 C   0  0  1  0  0  0  0  0  0  0  0  0
   37.5360   30.2230   51.2020 C   0  0  0  0  0  0  0  0  0  0  0  0
   36.0900   31.8610   50.6560 H   0  0  0  0  0  0  0  0  0  0  0  0
   37.0460   29.0690   49.4020 H   0  0  0  0  0  0  0  0  0  0  0  0
   37.1240   30.2810   52.2280 H   0  0  0  0  0  0  0  0  0  0  0  0
   38.6180   30.0520   51.0690 H   0  0  0  0  0  0  0  0  0  0  0  0
   37.7720   31.7770   49.2240 C   0  0  0  0  0  0  0  0  0  0  0  0
   38.2180   33.0470   49.5670 C   0  0  0  0  0  0  0  0  0  0  0  0
   39.0920   33.6400   48.6440 C   0  0  0  0  0  0  0  0  0  0  0  0
   39.4460   32.9770   47.5070 N   0  0  0  0  0  0  0  0  0  0  0  0
   38.9750   31.7230   47.2150 C   0  0  0  0  0  0  0  0  0  0  0  0
   38.1210   31.1160   48.0990 N   0  0  0  0  0  0  0  0  0  0  0  0
   37.9410   33.5680   50.4560 H   0  0  0  0  0  0  0  0  0  0  0  0
   39.4700   34.6280   48.8610 H   0  0  0  0  0  0  0  0  0  0  0  0
   39.2660   31.2280   46.3160 H   0  0  0  0  0  0  0  0  0  0  0  0
  1  3  1  0  0  0  0
  1  2  1  0  0  0  0
  4  1  1  0  0  0  0
  5  4  2  0  0  0  0
  6  7  1  0  0  0  0
  6  5  1  0  0  0  0
  7  8  2  0  0  0  0
  8  4  1  0  0  0  0
  9  5  1  0  0  0  0
 10  6  1  0  0  0  0
 11  7  1  0  0  0  0
 12 11  1  0  0  0  0
 12 14  1  0  0  0  0
 12 13  1  0  0  0  0
 14 15  1  0  0  0  0
 16 17  1  0  0  0  0
 16 18  1  0  0  0  0
 16 14  1  0  0  0  0
 19 18  1  0  0  0  0
 19 11  1  0  0  0  0
 20 23  1  1  0  0  0
 20 22  1  0  0  0  0
 21 24  1  6  0  0  0
 21 20  1  0  0  0  0
 21  1  1  0  0  0  0
 21 22  1  0  0  0  0
 22 25  1  0  0  0  0
 26 22  1  0  0  0  0
 27 28  1  0  0  0  0
 27 20  1  0  0  0  0
 28 33  1  0  0  0  0
 29 34  1  0  0  0  0
 29 28  2  0  0  0  0
 30 29  1  0  0  0  0
 31 30  2  0  0  0  0
 31 32  1  0  0  0  0
 32 27  2  0  0  0  0
 35 31  1  0  0  0  0
M  END
>  <minimizedAffinity>
-6.13727474

>  <minimizedRMSD>
0.430943668

$$$$
