
 OpenBabel03272509183D

 33 35  0  0  1  0  0  0  0  0999 V2000
   37.9430   31.3300   48.0830 C   0  0  0  0  0  0  0  0  0  0  0  0
   37.1740   31.6080   49.2180 C   0  0  0  0  0  0  0  0  0  0  0  0
   37.4610   32.8220   49.8440 C   0  0  0  0  0  0  0  0  0  0  0  0
   38.4550   33.6780   49.3420 C   0  0  0  0  0  0  0  0  0  0  0  0
   39.1660   33.3080   48.2000 C   0  0  0  0  0  0  0  0  0  0  0  0
   38.9040   32.1240   47.5680 C   0  0  0  0  0  0  0  0  0  0  0  0
   36.9110   33.1140   50.7300 H   0  0  0  0  0  0  0  0  0  0  0  0
   38.6070   34.5970   49.8920 H   0  0  0  0  0  0  0  0  0  0  0  0
   39.8890   34.0600   47.9390 H   0  0  0  0  0  0  0  0  0  0  0  0
   34.9300   30.6400   49.0920 C   0  0  0  0  0  0  0  0  0  0  0  0
   36.1620   30.7320   49.7250 C   0  0  0  0  0  0  0  0  0  0  0  0
   36.3620   29.9380   50.8680 C   0  0  0  0  0  0  0  0  0  0  0  0
   35.3490   29.1330   51.2840 N   0  0  0  0  0  0  0  0  0  0  0  0
   34.1680   29.0750   50.6390 C   0  0  0  0  0  0  0  0  0  0  0  0
   33.9600   29.8200   49.5550 N   0  0  0  0  0  0  0  0  0  0  0  0
   34.7670   31.2490   48.2120 H   0  0  0  0  0  0  0  0  0  0  0  0
   33.4890   28.3800   51.1180 H   0  0  0  0  0  0  0  0  0  0  0  0
   37.6580   29.9850   51.5960 C   0  0  0  0  0  0  0  0  0  0  0  0
   37.8160   29.0430   52.1540 H   0  0  0  0  0  0  0  0  0  0  0  0
   37.6010   30.8190   52.3260 H   0  0  0  0  0  0  0  0  0  0  0  0
   38.4610   30.2090   50.8690 H   0  0  0  0  0  0  0  0  0  0  0  0
   37.7100   30.1290   47.4020 O   0  0  0  0  0  0  0  0  0  0  0  0
   38.2360   29.3400   47.7580 H   0  0  0  0  0  0  0  0  0  0  0  0
   39.6270   31.7950   46.4490 O   0  0  0  0  0  0  0  0  0  0  0  0
   41.9390   31.1470   45.3540 H   0  0  0  0  0  0  0  0  0  0  0  0
   41.3120   31.7410   44.7810 N   0  0  0  0  0  0  0  0  0  0  0  0
   40.4990   32.5430   45.6970 C   0  0  1  0  0  3  0  0  0  0  0  0
   39.8420   33.6230   44.8680 C   0  0  0  0  0  3  0  0  0  0  0  0
   38.9210   34.0250   45.3270 H   0  0  0  0  0  0  0  0  0  0  0  0
   39.5720   33.0530   43.5630 N   0  0  0  0  0  0  0  0  0  0  0  0
   40.4190   33.1090   42.9520 H   0  0  0  0  0  0  0  0  0  0  0  0
   39.2180   31.6420   43.6510 C   0  0  0  0  0  2  0  0  0  0  0  0
   40.4490   30.8500   44.0010 C   0  0  0  0  0  2  0  0  0  0  0  0
  1  2  1  0  0  0  0
  2 11  1  0  0  0  0
  2  3  2  0  0  0  0
  3  7  1  0  0  0  0
  4  3  1  0  0  0  0
  4  8  1  0  0  0  0
  5  4  2  0  0  0  0
  6  1  2  0  0  0  0
  6  5  1  0  0  0  0
  9  5  1  0  0  0  0
 10 15  2  0  0  0  0
 10 11  1  0  0  0  0
 11 12  2  0  0  0  0
 12 13  1  0  0  0  0
 12 18  1  0  0  0  0
 14 17  1  0  0  0  0
 14 13  2  0  0  0  0
 15 14  1  0  0  0  0
 16 10  1  0  0  0  0
 18 19  1  0  0  0  0
 18 20  1  0  0  0  0
 21 18  1  0  0  0  0
 22 23  1  0  0  0  0
 22  1  1  0  0  0  0
 24  6  1  0  0  0  0
 26 25  1  0  0  0  0
 26 27  1  0  0  0  0
 27 24  1  6  0  0  0
 28 29  1  0  0  0  0
 28 27  1  0  0  0  0
 30 32  1  0  0  0  0
 30 28  1  0  0  0  0
 31 30  1  0  0  0  0
 32 33  1  0  0  0  0
 33 26  1  0  0  0  0
M  END
>  <minimizedAffinity>
-6.15689135

>  <minimizedRMSD>
1.28301322

$$$$
