REMARK  Name = 
REMARK  2 active torsions:
REMARK  status: ('A' for Active; 'I' for Inactive)
REMARK    1  A    between atoms: C_5  and  C_7
REMARK    2  A    between atoms: C_12  and  N_20
REMARK                            x       y       z     vdW  Elec       q    Type
REMARK                         _______ _______ _______ _____ _____    ______ ____
ROOT
ATOM      1  C   UNL     1      36.100  30.130  48.618  0.00  0.00    +0.000 A 
ATOM      2  C   UNL     1      35.286  29.957  47.523  0.00  0.00    +0.000 A 
ATOM      3  C   UNL     1      34.297  28.989  47.497  0.00  0.00    +0.000 A 
ATOM      4  C   UNL     1      34.149  28.196  48.614  0.00  0.00    +0.000 A 
ATOM      5  C   UNL     1      34.955  28.351  49.730  0.00  0.00    +0.000 A 
ATOM      6  C   UNL     1      35.948  29.331  49.739  0.00  0.00    +0.000 A 
ATOM      7  H   UNL     1      35.328  30.537  46.593  0.00  0.00    +0.000 HD
ATOM      8  H   UNL     1      33.642  28.828  46.651  0.00  0.00    +0.000 HD
ATOM      9  H   UNL     1      33.424  27.417  48.715  0.00  0.00    +0.000 HD
ATOM     10  H   UNL     1      34.901  27.771  50.638  0.00  0.00    +0.000 HD
ENDROOT
BRANCH   1  15
ATOM     11  C   UNL     1      38.013  33.110  49.463  0.00  0.00    +0.000 A 
ATOM     12  C   UNL     1      38.972  33.211  48.453  0.00  0.00    +0.000 A 
ATOM     13  C   UNL     1      38.950  32.212  47.450  0.00  0.00    +0.000 A 
ATOM     14  N   UNL     1      38.011  31.250  47.551  0.00  0.00    +0.000 NA
ATOM     15  C   UNL     1      37.102  31.176  48.531  0.00  0.00    +0.000 A 
ATOM     16  N   UNL     1      37.102  32.124  49.507  0.00  0.00    +0.000 NA
ATOM     17  H   UNL     1      38.025  33.872  50.233  0.00  0.00    +0.000 HD
ATOM     18  H   UNL     1      39.674  34.028  48.479  0.00  0.00    +0.000 HD
ATOM     19  H   UNL     1      39.683  32.277  46.666  0.00  0.00    +0.000 HD
ENDBRANCH   1  15
BRANCH   6  20
ATOM     20  N   UNL     1      36.795  29.520  50.867  0.00  0.00    +0.000 N 
ATOM     21  C   UNL     1      38.230  29.436  51.022  0.00  0.00    +0.000 C 
ATOM     22  H   UNL     1      38.723  30.417  51.022  0.00  0.00    +0.000 HD
ATOM     23  C   UNL     1      38.630  28.755  52.310  0.00  0.00    +0.000 C 
ATOM     24  H   UNL     1      39.497  28.091  52.203  0.00  0.00    +0.000 HD
ATOM     25  N   UNL     1      37.490  27.944  52.739  0.00  0.00    +0.000 NA
ATOM     26  H   UNL     1      37.749  27.306  53.504  0.00  0.00    +0.000 HD
ATOM     27  C   UNL     1      36.524  28.928  53.251  0.00  0.00    +0.000 C 
ATOM     28  C   UNL     1      36.141  29.865  52.132  0.00  0.00    +0.000 C 
ENDBRANCH   6  20
TORSDOF 2
