
 OpenBabel03272510323D

 28 30  0  0  0  0  0  0  0  0999 V2000
   36.4070   30.5460   46.2400 C   0  0  0  0  0  0  0  0  0  0  0  0
   35.7550   30.0220   45.1480 C   0  0  0  0  0  0  0  0  0  0  0  0
   34.4920   29.4660   45.2530 C   0  0  0  0  0  0  0  0  0  0  0  0
   33.8980   29.4550   46.4960 C   0  0  0  0  0  0  0  0  0  0  0  0
   34.5330   29.9780   47.6110 C   0  0  0  0  0  0  0  0  0  0  0  0
   35.8070   30.5330   47.4890 C   0  0  0  0  0  0  0  0  0  0  0  0
   36.1450   29.9850   44.1240 H   0  0  0  0  0  0  0  0  0  0  0  0
   33.9540   29.0450   44.4130 H   0  0  0  0  0  0  0  0  0  0  0  0
   32.9290   29.0560   46.7040 H   0  0  0  0  0  0  0  0  0  0  0  0
   34.1360   30.0060   48.6140 H   0  0  0  0  0  0  0  0  0  0  0  0
   39.0020   32.8560   45.1530 C   0  0  0  0  0  0  0  0  0  0  0  0
   40.1990   32.2420   45.5270 C   0  0  0  0  0  0  0  0  0  0  0  0
   40.0980   30.9870   46.1760 C   0  0  0  0  0  0  0  0  0  0  0  0
   38.8610   30.4910   46.3790 N   0  0  0  0  0  0  0  0  0  0  0  0
   37.7280   31.1010   46.0100 C   0  0  0  0  0  0  0  0  0  0  0  0
   37.7980   32.3070   45.3850 N   0  0  0  0  0  0  0  0  0  0  0  0
   39.0740   33.8160   44.6560 H   0  0  0  0  0  0  0  0  0  0  0  0
   41.1310   32.7380   45.3110 H   0  0  0  0  0  0  0  0  0  0  0  0
   41.0120   30.5030   46.4700 H   0  0  0  0  0  0  0  0  0  0  0  0
   36.4910   31.0800   48.6110 N   0  0  0  0  0  0  0  0  0  0  0  0
   37.4400   32.1650   48.7300 C   0  0  0  0  0  3  0  0  0  0  0  0
   36.9870   33.0970   49.0890 H   0  0  0  0  0  0  0  0  0  0  0  0
   38.5660   31.8400   49.6840 C   0  0  0  0  0  3  0  0  0  0  0  0
   39.5440   32.2050   49.3450 H   0  0  0  0  0  0  0  0  0  0  0  0
   38.6380   30.3810   49.7840 N   0  0  0  0  0  0  0  0  0  0  0  0
   39.4950   30.0790   50.2660 H   0  0  0  0  0  0  0  0  0  0  0  0
   37.4770   30.0240   50.6150 C   0  0  0  0  0  2  0  0  0  0  0  0
   36.2180   30.4650   49.9130 C   0  0  0  0  0  2  0  0  0  0  0  0
  1  6  1  0  0  0  0
  2  3  1  0  0  0  0
  2  1  2  0  0  0  0
  3  4  2  0  0  0  0
  4  9  1  0  0  0  0
  4  5  1  0  0  0  0
  5 10  1  0  0  0  0
  6  5  2  0  0  0  0
  6 20  1  0  0  0  0
  7  2  1  0  0  0  0
  8  3  1  0  0  0  0
 11 16  2  0  0  0  0
 11 12  1  0  0  0  0
 12 13  2  0  0  0  0
 13 14  1  0  0  0  0
 13 19  1  0  0  0  0
 15  1  1  0  0  0  0
 15 14  2  0  0  0  0
 16 15  1  0  0  0  0
 17 11  1  0  0  0  0
 18 12  1  0  0  0  0
 20 21  1  0  0  0  0
 20 28  1  0  0  0  0
 21 22  1  0  0  0  0
 21 23  1  0  0  0  0
 23 25  1  0  0  0  0
 24 23  1  0  0  0  0
 25 26  1  0  0  0  0
 25 27  1  0  0  0  0
 28 27  1  0  0  0  0
M  END
>  <minimizedAffinity>
-5.45259523

>  <minimizedRMSD>
2.86479998

$$$$
