
     RDKit          3D

 52 56  0  0  0  0  0  0  0  0999 V2000
   38.0883   31.2966   47.7710 C   0  0  0  0  0  0  0  0  0  0  0  0
   37.0859   31.3034   48.7329 C   0  0  0  0  0  0  0  0  0  0  0  0
   37.1236   32.4190   49.5943 C   0  0  0  0  0  0  0  0  0  0  0  0
   38.1006   33.4181   49.4656 C   0  0  0  0  0  0  0  0  0  0  0  0
   39.0712   33.3130   48.4550 C   0  0  0  0  0  0  0  0  0  0  0  0
   39.0475   32.2205   47.5989 C   0  0  0  0  0  0  0  0  0  0  0  0
   34.9650   30.3067   48.0446 C   0  0  0  0  0  0  0  0  0  0  0  0
   36.0944   30.2849   48.8598 C   0  0  0  0  0  0  0  0  0  0  0  0
   36.2113   29.2418   49.7892 C   0  0  0  0  0  0  0  0  0  0  0  0
   35.2233   28.3145   49.8444 N   0  0  0  0  0  0  0  0  0  0  0  0
   34.1361   28.3751   49.0277 C   0  0  0  0  0  0  0  0  0  0  0  0
   34.0138   29.3615   48.1404 N   0  0  0  0  0  0  0  0  0  0  0  0
   37.3950   29.1742   50.6799 C   0  0  0  0  0  0  0  0  0  0  0  0
   38.1375   30.2324   46.8681 O   0  0  0  0  0  0  0  0  0  0  0  0
   40.0322   32.1886   46.6336 O   0  0  0  0  0  0  0  0  0  0  0  0
   40.5658   31.1753   44.4133 C   0  0  0  0  0  0  0  0  0  0  0  0
   39.8618   31.9787   45.2887 C   0  0  0  0  0  0  0  0  0  0  0  0
   38.7896   32.7295   44.8023 C   0  0  0  0  0  0  0  0  0  0  0  0
   38.4392   32.6633   43.4433 C   0  0  0  0  0  0  0  0  0  0  0  0
   37.4852   33.2458   42.6809 N   0  0  0  0  0  0  0  0  0  0  0  0
   37.5862   32.8330   41.4100 C   0  0  0  0  0  0  0  0  0  0  0  0
   38.6382   31.9619   41.3700 N   0  0  0  0  0  0  0  0  0  0  0  0
   39.1665   31.8521   42.6110 C   0  0  0  0  0  0  0  0  0  0  0  0
   40.2187   31.1150   43.0879 C   0  0  0  0  0  0  0  0  0  0  0  0
   36.3800   32.5103   50.3772 H   0  0  0  0  0  0  0  0  0  0  0  0
   38.0903   34.2582   50.1512 H   0  0  0  0  0  0  0  0  0  0  0  0
   39.7844   34.1071   48.4133 H   0  0  0  0  0  0  0  0  0  0  0  0
   34.8805   31.1031   47.3383 H   0  0  0  0  0  0  0  0  0  0  0  0
   33.3632   27.6149   49.0991 H   0  0  0  0  0  0  0  0  0  0  0  0
   37.4677   28.1756   51.1244 H   0  0  0  0  0  0  0  0  0  0  0  0
   37.2056   29.8935   51.5121 H   0  0  0  0  0  0  0  0  0  0  0  0
   38.3254   29.5259   50.1907 H   0  0  0  0  0  0  0  0  0  0  0  0
   37.4113   29.9925   46.2275 H   0  0  0  0  0  0  0  0  0  0  0  0
   41.3696   30.6415   44.8899 H   0  0  0  0  0  0  0  0  0  0  0  0
   38.1472   33.3998   45.3594 H   0  0  0  0  0  0  0  0  0  0  0  0
   36.7691   33.9246   43.0389 H   0  0  0  0  0  0  0  0  0  0  0  0
   36.9424   33.1504   40.6041 H   0  0  0  0  0  0  0  0  0  0  0  0
   40.9835   30.2681   42.2361 N   0  0  0  0  0  0  0  0  0  0  0  0
   42.2723   29.7383   42.6389 C   0  0  2  0  0  0  0  0  0  0  0  0
   42.2079   29.0160   43.4757 H   0  0  0  0  0  0  0  0  0  0  0  0
   42.9715   29.1551   41.4325 C   0  0  2  0  0  0  0  0  0  0  0  0
   42.4936   28.1986   41.1067 H   0  0  0  0  0  0  0  0  0  0  0  0
   42.8347   30.1509   40.3691 N   0  0  0  0  0  0  0  0  0  0  0  0
   42.8195   31.1164   40.8173 H   0  0  0  0  0  0  0  0  0  0  0  0
   41.4921   29.9793   39.8488 C   0  0  0  0  0  0  0  0  0  0  0  0
   40.4548   29.9295   40.9318 C   0  0  0  0  0  0  0  0  0  0  0  0
   42.8781   30.6375   42.9245 H   0  0  0  0  0  0  0  0  0  0  0  0
   44.0411   29.0209   41.6902 H   0  0  0  0  0  0  0  0  0  0  0  0
   41.4896   29.0321   39.2674 H   0  0  0  0  0  0  0  0  0  0  0  0
   41.3301   30.8055   39.1156 H   0  0  0  0  0  0  0  0  0  0  0  0
   39.9706   28.9394   40.9578 H   0  0  0  0  0  0  0  0  0  0  0  0
   39.6679   30.6669   40.6451 H   0  0  0  0  0  0  0  0  0  0  0  0
  1  2  2  0
  2  8  1  0
  2  3  1  0
  4  3  2  0
  5  4  1  0
  6  1  1  0
  6  5  2  0
  7 12  2  0
  7  8  1  0
  8  9  2  0
  9 10  1  0
  9 13  1  0
 11 10  2  0
 12 11  1  0
 14  1  1  0
 15  6  1  0
 16 17  2  0
 17 15  1  0
 18 17  1  0
 19 18  2  0
 20 19  1  0
 21 20  1  0
 22 21  2  0
 22 23  1  0
 23 24  2  0
 23 19  1  0
 24 16  1  0
  3 25  1  0
  4 26  1  0
  5 27  1  0
  7 28  1  0
 11 29  1  0
 13 30  1  0
 13 31  1  0
 13 32  1  0
 14 33  1  0
 16 34  1  0
 18 35  1  0
 20 36  1  0
 21 37  1  0
 38 39  1  0
 39 40  1  1
 39 41  1  0
 41 42  1  6
 41 43  1  0
 43 44  1  0
 43 45  1  0
 45 46  1  0
 46 38  1  0
 39 47  1  0
 41 48  1  0
 45 49  1  0
 45 50  1  0
 46 51  1  0
 46 52  1  0
 24 38  1  0
M  ISO  8  25  14  26  14  27  14  28  14  29  14  30   8  31   8  32   8
M  ISO  8  33   3  34  14  35  14  36   9  37  14  40   8  42   8  44   5
M  END
>  <DihAtoms>  (1) 
22,23,37,38

>  <DihDeg>  (1) 
60.00036921962687

$$$$
