
 OpenBabel03262522493D

 25 27  0  0  0  0  0  0  0  0999 V2000
   37.7810   27.1190   33.6670 C   0  0  0  0  0  0  0  0  0  0  0  0
   37.7690   27.6660   34.8920 C   0  0  0  0  0  0  0  0  0  0  0  0
   38.0840   26.9030   35.9860 C   0  0  0  0  0  0  0  0  0  0  0  0
   38.4010   25.5800   35.7290 C   0  0  0  0  0  0  0  0  0  0  0  0
   38.2380   25.4640   33.9150 S   0  0  0  0  0  0  0  0  0  0  0  0
   37.5090   28.7150   35.0080 H   0  0  0  0  0  0  0  0  0  0  0  0
   38.1180   27.2300   37.0120 H   0  0  0  0  0  0  0  0  0  0  0  0
   38.0470   27.9020   30.1190 C   0  0  0  0  0  0  0  0  0  0  0  0
   36.9600   28.8010   29.9090 C   0  0  0  0  0  0  0  0  0  0  0  0
   36.1570   29.1190   31.0150 C   0  0  0  0  0  0  0  0  0  0  0  0
   36.4480   28.5590   32.2230 N   0  0  0  0  0  0  0  0  0  0  0  0
   37.4870   27.7140   32.3770 C   0  0  0  0  0  0  0  0  0  0  0  0
   38.2690   27.3920   31.3430 N   0  0  0  0  0  0  0  0  0  0  0  0
   38.7050   27.6130   29.2960 H   0  0  0  0  0  0  0  0  0  0  0  0
   36.8060   29.2010   28.9140 H   0  0  0  0  0  0  0  0  0  0  0  0
   35.3310   29.8030   30.8520 H   0  0  0  0  0  0  0  0  0  0  0  0
   38.7600   24.5200   36.5940 N   0  0  0  0  0  0  0  0  0  0  0  0
   39.6490   23.4240   36.3590 C   0  0  0  0  0  3  0  0  0  0  0  0
   39.2270   22.7700   35.5660 H   0  0  0  0  0  0  0  0  0  0  0  0
   39.9990   22.6630   37.5800 C   0  0  0  0  0  3  0  0  0  0  0  0
   40.1970   21.5950   37.3070 H   0  0  0  0  0  0  0  0  0  0  0  0
   39.0290   22.6320   38.6340 N   0  0  0  0  0  0  0  0  0  0  0  0
   39.3540   23.0280   39.5460 H   0  0  0  0  0  0  0  0  0  0  0  0
   37.7820   23.2350   38.3220 C   0  0  0  0  0  2  0  0  0  0  0  0
   38.0750   24.6560   37.8630 C   0  0  0  0  0  2  0  0  0  0  0  0
  1  5  1  0  0  0  0
  1  2  2  0  0  0  0
  2  6  1  0  0  0  0
  2  3  1  0  0  0  0
  3  7  1  0  0  0  0
  4  3  2  0  0  0  0
  4 17  1  0  0  0  0
  5  4  1  0  0  0  0
  8 13  1  0  0  0  0
  9  8  2  0  0  0  0
  9 10  1  0  0  0  0
 10 11  2  0  0  0  0
 11 12  1  0  0  0  0
 12  1  1  0  0  0  0
 13 12  2  0  0  0  0
 14  8  1  0  0  0  0
 15  9  1  0  0  0  0
 16 10  1  0  0  0  0
 17 25  1  0  0  0  0
 18 17  1  0  0  0  0
 18 20  1  0  0  0  0
 19 18  1  0  0  0  0
 20 22  1  0  0  0  0
 21 20  1  0  0  0  0
 22 23  1  0  0  0  0
 24 22  1  0  0  0  0
 25 24  1  0  0  0  0
M  END
>  <minimizedAffinity>
-5.06471348

$$$$

 OpenBabel03262522493D

 25 27  0  0  0  0  0  0  0  0999 V2000
   37.2920   26.4310   33.2440 C   0  0  0  0  0  0  0  0  0  0  0  0
   37.5670   25.1890   32.8160 C   0  0  0  0  0  0  0  0  0  0  0  0
   38.0370   24.2500   33.6960 C   0  0  0  0  0  0  0  0  0  0  0  0
   38.1940   24.6740   35.0050 C   0  0  0  0  0  0  0  0  0  0  0  0
   37.6630   26.4180   34.9380 S   0  0  0  0  0  0  0  0  0  0  0  0
   37.4150   24.9380   31.7700 H   0  0  0  0  0  0  0  0  0  0  0  0
   38.2830   23.2250   33.4740 H   0  0  0  0  0  0  0  0  0  0  0  0
   36.6230   28.6980   30.4710 C   0  0  0  0  0  0  0  0  0  0  0  0
   35.8560   29.7330   31.0840 C   0  0  0  0  0  0  0  0  0  0  0  0
   35.5900   29.6180   32.4570 C   0  0  0  0  0  0  0  0  0  0  0  0
   36.0710   28.5370   33.1330 N   0  0  0  0  0  0  0  0  0  0  0  0
   36.7940   27.5810   32.5130 C   0  0  0  0  0  0  0  0  0  0  0  0
   37.0620   27.6630   31.2070 N   0  0  0  0  0  0  0  0  0  0  0  0
   36.8590   28.7300   29.4060 H   0  0  0  0  0  0  0  0  0  0  0  0
   35.5180   30.5580   30.4690 H   0  0  0  0  0  0  0  0  0  0  0  0
   35.0070   30.4060   32.9200 H   0  0  0  0  0  0  0  0  0  0  0  0
   38.6550   23.9960   36.1570 N   0  0  0  0  0  0  0  0  0  0  0  0
   39.6130   22.9380   36.2610 C   0  0  0  0  0  3  0  0  0  0  0  0
   39.2140   22.0290   35.7610 H   0  0  0  0  0  0  0  0  0  0  0  0
   40.0540   22.6610   37.6470 C   0  0  0  0  0  3  0  0  0  0  0  0
   40.3210   21.5770   37.7420 H   0  0  0  0  0  0  0  0  0  0  0  0
   39.1230   22.9380   38.7000 N   0  0  0  0  0  0  0  0  0  0  0  0
   39.4480   23.6400   39.4040 H   0  0  0  0  0  0  0  0  0  0  0  0
   37.8260   23.3260   38.2690 C   0  0  0  0  0  2  0  0  0  0  0  0
   38.0020   24.5180   37.3410 C   0  0  0  0  0  2  0  0  0  0  0  0
  1  5  1  0  0  0  0
  2  1  2  0  0  0  0
  2  3  1  0  0  0  0
  3  4  2  0  0  0  0
  4 17  1  0  0  0  0
  5  4  1  0  0  0  0
  6  2  1  0  0  0  0
  7  3  1  0  0  0  0
  8  9  2  0  0  0  0
  8 13  1  0  0  0  0
  9 10  1  0  0  0  0
 10 16  1  0  0  0  0
 10 11  2  0  0  0  0
 12 11  1  0  0  0  0
 12  1  1  0  0  0  0
 13 12  2  0  0  0  0
 14  8  1  0  0  0  0
 15  9  1  0  0  0  0
 17 18  1  0  0  0  0
 17 25  1  0  0  0  0
 18 20  1  0  0  0  0
 19 18  1  0  0  0  0
 20 21  1  0  0  0  0
 20 22  1  0  0  0  0
 22 23  1  0  0  0  0
 24 22  1  0  0  0  0
 25 24  1  0  0  0  0
M  END
>  <minimizedAffinity>
-4.96567774

$$$$

 OpenBabel03262522493D

 25 27  0  0  0  0  0  0  0  0999 V2000
   37.7510   27.2700   33.7680 C   0  0  0  0  0  0  0  0  0  0  0  0
   38.0710   27.8690   34.9250 C   0  0  0  0  0  0  0  0  0  0  0  0
   38.3530   27.1140   36.0320 C   0  0  0  0  0  0  0  0  0  0  0  0
   38.2850   25.7410   35.8610 C   0  0  0  0  0  0  0  0  0  0  0  0
   37.8130   25.5700   34.1070 S   0  0  0  0  0  0  0  0  0  0  0  0
   38.1020   28.9540   34.9740 H   0  0  0  0  0  0  0  0  0  0  0  0
   38.6300   27.4780   37.0070 H   0  0  0  0  0  0  0  0  0  0  0  0
   36.0300   29.2710   31.2560 C   0  0  0  0  0  0  0  0  0  0  0  0
   36.7540   28.9760   30.0630 C   0  0  0  0  0  0  0  0  0  0  0  0
   37.8290   28.0780   30.1610 C   0  0  0  0  0  0  0  0  0  0  0  0
   38.1280   27.5390   31.3750 N   0  0  0  0  0  0  0  0  0  0  0  0
   37.4160   27.8460   32.4790 C   0  0  0  0  0  0  0  0  0  0  0  0
   36.3880   28.6970   32.4170 N   0  0  0  0  0  0  0  0  0  0  0  0
   35.1870   29.9640   31.2450 H   0  0  0  0  0  0  0  0  0  0  0  0
   36.4420   29.4490   29.1400 H   0  0  0  0  0  0  0  0  0  0  0  0
   38.3770   27.8550   29.2520 H   0  0  0  0  0  0  0  0  0  0  0  0
   38.4980   24.6760   36.7660 N   0  0  0  0  0  0  0  0  0  0  0  0
   38.0020   24.5070   38.0970 C   0  0  0  0  0  3  0  0  0  0  0  0
   38.4390   25.2880   38.7560 H   0  0  0  0  0  0  0  0  0  0  0  0
   38.2000   23.1450   38.6440 C   0  0  0  0  0  3  0  0  0  0  0  0
   38.3180   23.2060   39.7560 H   0  0  0  0  0  0  0  0  0  0  0  0
   39.3250   22.4010   38.1610 N   0  0  0  0  0  0  0  0  0  0  0  0
   39.0890   21.4980   37.6890 H   0  0  0  0  0  0  0  0  0  0  0  0
   40.1990   23.1220   37.3030 C   0  0  0  0  0  2  0  0  0  0  0  0
   39.3530   23.6720   36.1650 C   0  0  0  0  0  2  0  0  0  0  0  0
  1  5  1  0  0  0  0
  1  2  2  0  0  0  0
  2  6  1  0  0  0  0
  2  3  1  0  0  0  0
  3  7  1  0  0  0  0
  4  3  2  0  0  0  0
  4 17  1  0  0  0  0
  5  4  1  0  0  0  0
  8 13  1  0  0  0  0
  9 10  1  0  0  0  0
  9  8  2  0  0  0  0
 10 11  2  0  0  0  0
 11 12  1  0  0  0  0
 12  1  1  0  0  0  0
 13 12  2  0  0  0  0
 14  8  1  0  0  0  0
 15  9  1  0  0  0  0
 16 10  1  0  0  0  0
 17 18  1  0  0  0  0
 18 20  1  0  0  0  0
 18 19  1  0  0  0  0
 20 21  1  0  0  0  0
 22 20  1  0  0  0  0
 23 22  1  0  0  0  0
 24 22  1  0  0  0  0
 25 17  1  0  0  0  0
 25 24  1  0  0  0  0
M  END
>  <minimizedAffinity>
-4.7892127

$$$$

 OpenBabel03262522493D

 25 27  0  0  0  0  0  0  0  0999 V2000
   38.4040   25.7440   35.4890 C   0  0  0  0  0  0  0  0  0  0  0  0
   38.1540   26.9720   35.9690 C   0  0  0  0  0  0  0  0  0  0  0  0
   37.5830   27.9200   35.1600 C   0  0  0  0  0  0  0  0  0  0  0  0
   37.2990   27.5180   33.8660 C   0  0  0  0  0  0  0  0  0  0  0  0
   37.8620   25.7820   33.8420 S   0  0  0  0  0  0  0  0  0  0  0  0
   38.4080   27.2060   36.9990 H   0  0  0  0  0  0  0  0  0  0  0  0
   37.3280   28.9300   35.4330 H   0  0  0  0  0  0  0  0  0  0  0  0
   40.6270   22.9230   36.1020 C   0  0  0  0  0  0  0  0  0  0  0  0
   40.1560   22.4100   37.3460 C   0  0  0  0  0  0  0  0  0  0  0  0
   39.0660   23.0610   37.9460 C   0  0  0  0  0  0  0  0  0  0  0  0
   38.5170   24.1390   37.3190 N   0  0  0  0  0  0  0  0  0  0  0  0
   38.9940   24.5900   36.1410 C   0  0  0  0  0  0  0  0  0  0  0  0
   40.0300   23.9920   35.5470 N   0  0  0  0  0  0  0  0  0  0  0  0
   41.4740   22.4620   35.5880 H   0  0  0  0  0  0  0  0  0  0  0  0
   40.6520   21.5450   37.7690 H   0  0  0  0  0  0  0  0  0  0  0  0
   38.7100   22.6690   38.8920 H   0  0  0  0  0  0  0  0  0  0  0  0
   36.7300   28.2150   32.7750 N   0  0  0  0  0  0  0  0  0  0  0  0
   35.4910   28.9290   32.7060 C   0  0  0  0  0  3  0  0  0  0  0  0
   34.6470   28.2150   32.8230 H   0  0  0  0  0  0  0  0  0  0  0  0
   35.3480   29.7660   31.4940 C   0  0  0  0  0  3  0  0  0  0  0  0
   34.2640   29.8380   31.2190 H   0  0  0  0  0  0  0  0  0  0  0  0
   36.0320   29.3340   30.3120 N   0  0  0  0  0  0  0  0  0  0  0  0
   36.7340   30.0110   29.9350 H   0  0  0  0  0  0  0  0  0  0  0  0
   36.6680   28.0670   30.4150 C   0  0  0  0  0  2  0  0  0  0  0  0
   37.5970   28.1300   31.6180 C   0  0  0  0  0  2  0  0  0  0  0  0
  1  2  2  0  0  0  0
  1 12  1  0  0  0  0
  2  6  1  0  0  0  0
  3  7  1  0  0  0  0
  3  2  1  0  0  0  0
  4  3  2  0  0  0  0
  5  4  1  0  0  0  0
  5  1  1  0  0  0  0
  8  9  1  0  0  0  0
  9 15  1  0  0  0  0
  9 10  2  0  0  0  0
 10 16  1  0  0  0  0
 11 10  1  0  0  0  0
 12 11  2  0  0  0  0
 13  8  2  0  0  0  0
 13 12  1  0  0  0  0
 14  8  1  0  0  0  0
 17  4  1  0  0  0  0
 18 17  1  0  0  0  0
 18 19  1  0  0  0  0
 20 18  1  0  0  0  0
 21 20  1  0  0  0  0
 22 24  1  0  0  0  0
 22 20  1  0  0  0  0
 23 22  1  0  0  0  0
 24 25  1  0  0  0  0
 25 17  1  0  0  0  0
M  END
>  <minimizedAffinity>
-4.72571898

$$$$

 OpenBabel03262522493D

 25 27  0  0  0  0  0  0  0  0999 V2000
   38.1950   25.6570   35.0340 C   0  0  0  0  0  0  0  0  0  0  0  0
   37.4130   26.7470   35.0170 C   0  0  0  0  0  0  0  0  0  0  0  0
   37.2460   27.4530   33.8550 C   0  0  0  0  0  0  0  0  0  0  0  0
   37.9220   26.9650   32.7490 C   0  0  0  0  0  0  0  0  0  0  0  0
   38.7850   25.4990   33.4100 S   0  0  0  0  0  0  0  0  0  0  0  0
   36.9170   27.0630   35.9310 H   0  0  0  0  0  0  0  0  0  0  0  0
   36.6400   28.3320   33.7160 H   0  0  0  0  0  0  0  0  0  0  0  0
   39.8910   23.0470   36.9280 C   0  0  0  0  0  0  0  0  0  0  0  0
   39.1940   23.0520   38.1720 C   0  0  0  0  0  0  0  0  0  0  0  0
   38.1400   23.9680   38.3230 C   0  0  0  0  0  0  0  0  0  0  0  0
   37.8380   24.8000   37.2870 N   0  0  0  0  0  0  0  0  0  0  0  0
   38.5240   24.7600   36.1260 C   0  0  0  0  0  0  0  0  0  0  0  0
   39.5310   23.9000   35.9540 N   0  0  0  0  0  0  0  0  0  0  0  0
   40.7210   22.3600   36.7520 H   0  0  0  0  0  0  0  0  0  0  0  0
   39.5010   22.3520   38.9390 H   0  0  0  0  0  0  0  0  0  0  0  0
   37.6120   23.9700   39.2690 H   0  0  0  0  0  0  0  0  0  0  0  0
   37.9900   27.4290   31.4150 N   0  0  0  0  0  0  0  0  0  0  0  0
   39.1410   27.6920   30.6070 C   0  0  0  0  0  3  0  0  0  0  0  0
   39.7100   28.5430   31.0410 H   0  0  0  0  0  0  0  0  0  0  0  0
   38.8330   27.9010   29.1740 C   0  0  0  0  0  3  0  0  0  0  0  0
   39.5890   28.5990   28.7310 H   0  0  0  0  0  0  0  0  0  0  0  0
   37.5480   28.4460   28.8510 N   0  0  0  0  0  0  0  0  0  0  0  0
   36.9500   27.8380   28.2460 H   0  0  0  0  0  0  0  0  0  0  0  0
   36.7670   28.8460   29.9680 C   0  0  0  0  0  2  0  0  0  0  0  0
   36.6560   27.6410   30.8900 C   0  0  0  0  0  2  0  0  0  0  0  0
  1 12  1  0  0  0  0
  2  1  2  0  0  0  0
  2  6  1  0  0  0  0
  3  2  1  0  0  0  0
  4  5  1  0  0  0  0
  4  3  2  0  0  0  0
  5  1  1  0  0  0  0
  7  3  1  0  0  0  0
  8  9  1  0  0  0  0
  9 10  2  0  0  0  0
  9 15  1  0  0  0  0
 10 16  1  0  0  0  0
 11 10  1  0  0  0  0
 12 11  2  0  0  0  0
 13 12  1  0  0  0  0
 13  8  2  0  0  0  0
 14  8  1  0  0  0  0
 17  4  1  0  0  0  0
 18 19  1  0  0  0  0
 18 17  1  0  0  0  0
 20 18  1  0  0  0  0
 21 20  1  0  0  0  0
 22 20  1  0  0  0  0
 22 24  1  0  0  0  0
 23 22  1  0  0  0  0
 24 25  1  0  0  0  0
 25 17  1  0  0  0  0
M  END
>  <minimizedAffinity>
-4.67245007

$$$$

 OpenBabel03262522493D

 25 27  0  0  0  0  0  0  0  0999 V2000
   38.5140   25.6370   35.2420 C   0  0  0  0  0  0  0  0  0  0  0  0
   37.9190   26.7520   35.6920 C   0  0  0  0  0  0  0  0  0  0  0  0
   37.3960   27.6560   34.8050 C   0  0  0  0  0  0  0  0  0  0  0  0
   37.5260   27.3320   33.4650 C   0  0  0  0  0  0  0  0  0  0  0  0
   38.4020   25.7320   33.5130 S   0  0  0  0  0  0  0  0  0  0  0  0
   37.8590   26.9310   36.7630 H   0  0  0  0  0  0  0  0  0  0  0  0
   36.8900   28.5760   35.0460 H   0  0  0  0  0  0  0  0  0  0  0  0
   39.0590   23.1100   37.8100 C   0  0  0  0  0  0  0  0  0  0  0  0
   40.2640   22.4790   37.3840 C   0  0  0  0  0  0  0  0  0  0  0  0
   40.8650   22.9510   36.2070 C   0  0  0  0  0  0  0  0  0  0  0  0
   40.2760   23.9790   35.5340 N   0  0  0  0  0  0  0  0  0  0  0  0
   39.1350   24.5490   35.9730 C   0  0  0  0  0  0  0  0  0  0  0  0
   38.5400   24.1200   37.0890 N   0  0  0  0  0  0  0  0  0  0  0  0
   38.5430   22.7850   38.7150 H   0  0  0  0  0  0  0  0  0  0  0  0
   40.6640   21.6700   37.9850 H   0  0  0  0  0  0  0  0  0  0  0  0
   41.7820   22.4690   35.8860 H   0  0  0  0  0  0  0  0  0  0  0  0
   37.1230   28.0160   32.2950 N   0  0  0  0  0  0  0  0  0  0  0  0
   37.7620   28.0740   31.0160 C   0  0  0  0  0  3  0  0  0  0  0  0
   38.7340   28.6030   31.1140 H   0  0  0  0  0  0  0  0  0  0  0  0
   36.9170   28.6550   29.9490 C   0  0  0  0  0  3  0  0  0  0  0  0
   37.5700   29.1640   29.1950 H   0  0  0  0  0  0  0  0  0  0  0  0
   35.9340   29.6210   30.3420 N   0  0  0  0  0  0  0  0  0  0  0  0
   34.9450   29.3620   30.1170 H   0  0  0  0  0  0  0  0  0  0  0  0
   35.9790   30.0020   31.7100 C   0  0  0  0  0  2  0  0  0  0  0  0
   35.8830   28.7270   32.5330 C   0  0  0  0  0  2  0  0  0  0  0  0
  1  2  2  0  0  0  0
  1 12  1  0  0  0  0
  2  6  1  0  0  0  0
  3  7  1  0  0  0  0
  3  2  1  0  0  0  0
  4  5  1  0  0  0  0
  4  3  2  0  0  0  0
  5  1  1  0  0  0  0
  8 14  1  0  0  0  0
  9  8  1  0  0  0  0
  9 15  1  0  0  0  0
 10  9  2  0  0  0  0
 11 12  2  0  0  0  0
 11 10  1  0  0  0  0
 12 13  1  0  0  0  0
 13  8  2  0  0  0  0
 16 10  1  0  0  0  0
 17 25  1  0  0  0  0
 17  4  1  0  0  0  0
 18 19  1  0  0  0  0
 18 17  1  0  0  0  0
 20 22  1  0  0  0  0
 20 18  1  0  0  0  0
 21 20  1  0  0  0  0
 22 24  1  0  0  0  0
 23 22  1  0  0  0  0
 24 25  1  0  0  0  0
M  END
>  <minimizedAffinity>
-4.65023994

$$$$

 OpenBabel03262522493D

 25 27  0  0  0  0  0  0  0  0999 V2000
   37.1010   27.6380   34.2430 C   0  0  0  0  0  0  0  0  0  0  0  0
   37.7480   27.9240   35.3830 C   0  0  0  0  0  0  0  0  0  0  0  0
   38.4480   26.9440   36.0380 C   0  0  0  0  0  0  0  0  0  0  0  0
   38.4300   25.6920   35.4470 C   0  0  0  0  0  0  0  0  0  0  0  0
   37.4040   25.9530   33.9600 S   0  0  0  0  0  0  0  0  0  0  0  0
   37.7120   28.9350   35.7800 H   0  0  0  0  0  0  0  0  0  0  0  0
   39.0110   27.0540   36.9490 H   0  0  0  0  0  0  0  0  0  0  0  0
   34.4810   29.9340   33.1770 C   0  0  0  0  0  0  0  0  0  0  0  0
   34.7750   30.1340   31.7960 C   0  0  0  0  0  0  0  0  0  0  0  0
   35.8840   29.4580   31.2630 C   0  0  0  0  0  0  0  0  0  0  0  0
   36.6190   28.6530   32.0810 N   0  0  0  0  0  0  0  0  0  0  0  0
   36.3040   28.4920   33.3820 C   0  0  0  0  0  0  0  0  0  0  0  0
   35.2550   29.1230   33.9170 N   0  0  0  0  0  0  0  0  0  0  0  0
   33.6330   30.4350   33.6490 H   0  0  0  0  0  0  0  0  0  0  0  0
   34.1330   30.7900   31.2200 H   0  0  0  0  0  0  0  0  0  0  0  0
   36.1050   29.6120   30.2130 H   0  0  0  0  0  0  0  0  0  0  0  0
   39.0200   24.4670   35.8360 N   0  0  0  0  0  0  0  0  0  0  0  0
   40.3680   24.0190   35.6680 C   0  0  0  0  0  3  0  0  0  0  0  0
   40.5840   23.8960   34.5850 H   0  0  0  0  0  0  0  0  0  0  0  0
   40.6980   22.8010   36.4430 C   0  0  0  0  0  3  0  0  0  0  0  0
   41.4820   22.2160   35.8980 H   0  0  0  0  0  0  0  0  0  0  0  0
   39.6300   21.8850   36.7110 N   0  0  0  0  0  0  0  0  0  0  0  0
   39.4340   21.7180   37.7240 H   0  0  0  0  0  0  0  0  0  0  0  0
   38.3960   22.1980   36.0790 C   0  0  0  0  0  2  0  0  0  0  0  0
   38.0370   23.6200   36.4820 C   0  0  0  0  0  2  0  0  0  0  0  0
  1  2  2  0  0  0  0
  2  6  1  0  0  0  0
  2  3  1  0  0  0  0
  3  7  1  0  0  0  0
  4 17  1  0  0  0  0
  4  3  2  0  0  0  0
  5  1  1  0  0  0  0
  5  4  1  0  0  0  0
  8 14  1  0  0  0  0
  8 13  1  0  0  0  0
  9  8  2  0  0  0  0
 10  9  1  0  0  0  0
 10 11  2  0  0  0  0
 11 12  1  0  0  0  0
 12 13  2  0  0  0  0
 12  1  1  0  0  0  0
 15  9  1  0  0  0  0
 16 10  1  0  0  0  0
 17 25  1  0  0  0  0
 18 17  1  0  0  0  0
 18 20  1  0  0  0  0
 19 18  1  0  0  0  0
 20 22  1  0  0  0  0
 21 20  1  0  0  0  0
 22 23  1  0  0  0  0
 24 25  1  0  0  0  0
 24 22  1  0  0  0  0
M  END
>  <minimizedAffinity>
-4.63077021

$$$$

 OpenBabel03262522493D

 25 27  0  0  0  0  0  0  0  0999 V2000
   38.0420   25.7120   32.5550 C   0  0  0  0  0  0  0  0  0  0  0  0
   38.3140   24.4030   32.4470 C   0  0  0  0  0  0  0  0  0  0  0  0
   38.4990   23.6460   33.5740 C   0  0  0  0  0  0  0  0  0  0  0  0
   38.3860   24.3190   34.7790 C   0  0  0  0  0  0  0  0  0  0  0  0
   38.0150   26.0290   34.2610 S   0  0  0  0  0  0  0  0  0  0  0  0
   38.3860   23.9510   31.4610 H   0  0  0  0  0  0  0  0  0  0  0  0
   38.7120   22.5910   33.6150 H   0  0  0  0  0  0  0  0  0  0  0  0
   36.4070   28.3540   30.6520 C   0  0  0  0  0  0  0  0  0  0  0  0
   37.3360   28.6120   29.6020 C   0  0  0  0  0  0  0  0  0  0  0  0
   38.5170   27.8530   29.5780 C   0  0  0  0  0  0  0  0  0  0  0  0
   38.7180   26.9180   30.5490 N   0  0  0  0  0  0  0  0  0  0  0  0
   37.8110   26.7060   31.5240 C   0  0  0  0  0  0  0  0  0  0  0  0
   36.6790   27.4130   31.5730 N   0  0  0  0  0  0  0  0  0  0  0  0
   35.4720   28.9140   30.7260 H   0  0  0  0  0  0  0  0  0  0  0  0
   37.0910   29.3720   28.8710 H   0  0  0  0  0  0  0  0  0  0  0  0
   39.2210   28.0510   28.7780 H   0  0  0  0  0  0  0  0  0  0  0  0
   38.5200   23.8730   36.1150 N   0  0  0  0  0  0  0  0  0  0  0  0
   38.0270   24.4680   37.3190 C   0  0  0  0  0  3  0  0  0  0  0  0
   38.5370   25.4410   37.4850 H   0  0  0  0  0  0  0  0  0  0  0  0
   38.1160   23.5850   38.5040 C   0  0  0  0  0  3  0  0  0  0  0  0
   38.2530   24.2100   39.4240 H   0  0  0  0  0  0  0  0  0  0  0  0
   39.1680   22.6130   38.5220 N   0  0  0  0  0  0  0  0  0  0  0  0
   38.8510   21.6180   38.5840 H   0  0  0  0  0  0  0  0  0  0  0  0
   40.0890   22.7040   37.4440 C   0  0  0  0  0  2  0  0  0  0  0  0
   39.2790   22.6400   36.1570 C   0  0  0  0  0  2  0  0  0  0  0  0
  1  5  1  0  0  0  0
  2  1  2  0  0  0  0
  2  3  1  0  0  0  0
  3  7  1  0  0  0  0
  3  4  2  0  0  0  0
  4 17  1  0  0  0  0
  5  4  1  0  0  0  0
  6  2  1  0  0  0  0
  8 14  1  0  0  0  0
  8 13  1  0  0  0  0
  9  8  2  0  0  0  0
 10  9  1  0  0  0  0
 10 11  2  0  0  0  0
 11 12  1  0  0  0  0
 12 13  2  0  0  0  0
 12  1  1  0  0  0  0
 15  9  1  0  0  0  0
 16 10  1  0  0  0  0
 17 25  1  0  0  0  0
 17 18  1  0  0  0  0
 18 19  1  0  0  0  0
 18 20  1  0  0  0  0
 20 22  1  0  0  0  0
 20 21  1  0  0  0  0
 22 23  1  0  0  0  0
 24 22  1  0  0  0  0
 25 24  1  0  0  0  0
M  END
>  <minimizedAffinity>
-4.56098366

$$$$

 OpenBabel03262522493D

 25 27  0  0  0  0  0  0  0  0999 V2000
   36.3030   29.9180   31.8020 C   0  0  0  0  0  0  0  0  0  0  0  0
   36.1960   28.8900   32.6580 C   0  0  0  0  0  0  0  0  0  0  0  0
   35.6440   29.0840   33.8970 C   0  0  0  0  0  0  0  0  0  0  0  0
   35.2240   30.3740   34.1750 C   0  0  0  0  0  0  0  0  0  0  0  0
   35.6350   31.2790   32.6440 S   0  0  0  0  0  0  0  0  0  0  0  0
   36.5510   27.9070   32.3600 H   0  0  0  0  0  0  0  0  0  0  0  0
   35.4980   28.3390   34.6610 H   0  0  0  0  0  0  0  0  0  0  0  0
   37.4160   31.2540   28.6000 C   0  0  0  0  0  0  0  0  0  0  0  0
   37.8770   30.0930   27.9140 C   0  0  0  0  0  0  0  0  0  0  0  0
   37.7870   28.8630   28.5840 C   0  0  0  0  0  0  0  0  0  0  0  0
   37.2700   28.8360   29.8440 N   0  0  0  0  0  0  0  0  0  0  0  0
   36.8440   29.9600   30.4560 C   0  0  0  0  0  0  0  0  0  0  0  0
   36.9180   31.1450   29.8440 N   0  0  0  0  0  0  0  0  0  0  0  0
   37.4640   32.2400   28.1330 H   0  0  0  0  0  0  0  0  0  0  0  0
   38.2700   30.2080   26.9110 H   0  0  0  0  0  0  0  0  0  0  0  0
   38.1380   27.9820   28.0590 H   0  0  0  0  0  0  0  0  0  0  0  0
   34.6290   30.9340   35.3290 N   0  0  0  0  0  0  0  0  0  0  0  0
   33.2600   30.9040   35.7460 C   0  0  0  0  0  3  0  0  0  0  0  0
   32.6430   31.4800   35.0230 H   0  0  0  0  0  0  0  0  0  0  0  0
   33.0470   31.3520   37.1410 C   0  0  0  0  0  3  0  0  0  0  0  0
   32.0330   31.8190   37.2290 H   0  0  0  0  0  0  0  0  0  0  0  0
   33.9740   32.3060   37.6730 N   0  0  0  0  0  0  0  0  0  0  0  0
   34.5000   31.9870   38.5180 H   0  0  0  0  0  0  0  0  0  0  0  0
   34.9200   32.8100   36.7400 C   0  0  0  0  0  2  0  0  0  0  0  0
   35.6290   31.6100   36.1310 C   0  0  0  0  0  2  0  0  0  0  0  0
  1  5  1  0  0  0  0
  1  2  2  0  0  0  0
  2  3  1  0  0  0  0
  3  4  2  0  0  0  0
  3  7  1  0  0  0  0
  4 17  1  0  0  0  0
  5  4  1  0  0  0  0
  6  2  1  0  0  0  0
  8 13  1  0  0  0  0
  9 10  1  0  0  0  0
  9  8  2  0  0  0  0
 10 11  2  0  0  0  0
 11 12  1  0  0  0  0
 12  1  1  0  0  0  0
 13 12  2  0  0  0  0
 14  8  1  0  0  0  0
 15  9  1  0  0  0  0
 16 10  1  0  0  0  0
 17 18  1  0  0  0  0
 17 25  1  0  0  0  0
 18 20  1  0  0  0  0
 19 18  1  0  0  0  0
 20 21  1  0  0  0  0
 20 22  1  0  0  0  0
 22 23  1  0  0  0  0
 24 22  1  0  0  0  0
 25 24  1  0  0  0  0
M  END
>  <minimizedAffinity>
-4.37357664

$$$$
