
 OpenBabel03272508213D

 42 45  0  0  1  0  0  0  0  0999 V2000
   37.2450   30.7540   46.4550 C   0  0  0  0  0  0  0  0  0  0  0  0
   36.3740   30.8440   45.7390 H   0  0  0  0  0  0  0  0  0  0  0  0
   37.5260   29.6790   46.3740 H   0  0  0  0  0  0  0  0  0  0  0  0
   37.8150   30.5840   43.7470 F   0  0  0  0  0  0  0  0  0  0  0  0
   38.5130   31.3960   44.5630 C   0  0  0  0  0  0  0  0  0  0  0  0
   38.3110   31.5510   45.9460 C   0  0  0  0  0  0  0  0  0  0  0  0
   39.1440   32.4020   46.5900 C   0  0  0  0  0  0  0  0  0  0  0  0
   40.1310   33.0980   45.9750 C   0  0  0  0  0  0  0  0  0  0  0  0
   40.3320   32.9430   44.5860 C   0  0  0  0  0  0  0  0  0  0  0  0
   39.4910   32.0590   43.8780 C   0  0  0  0  0  0  0  0  0  0  0  0
   39.1720   32.5640   47.6240 H   0  0  0  0  0  0  0  0  0  0  0  0
   40.8270   33.8040   46.4570 H   0  0  0  0  0  0  0  0  0  0  0  0
   41.1390   33.5150   44.0980 H   0  0  0  0  0  0  0  0  0  0  0  0
   39.8060   31.9960   42.5500 O   0  0  0  0  0  0  0  0  0  0  0  0
   41.7080   30.5170   43.2790 H   0  0  0  0  0  0  0  0  0  0  0  0
   40.9450   30.0120   42.7670 N   0  0  0  0  0  0  0  0  0  0  0  0
   40.4170   31.0140   41.8260 C   0  0  1  0  0  0  0  0  0  0  0  0
   39.3820   30.3050   40.9350 C   0  0  0  0  0  0  0  0  0  0  0  0
   39.1270   30.9890   40.1000 H   0  0  0  0  0  0  0  0  0  0  0  0
   39.9080   29.1050   40.3680 N   0  0  0  0  0  0  0  0  0  0  0  0
   40.3470   29.2000   39.4440 H   0  0  0  0  0  0  0  0  0  0  0  0
   40.5420   28.2090   41.2830 C   0  0  0  0  0  0  0  0  0  0  0  0
   41.6250   28.9670   42.0170 C   0  0  0  0  0  0  0  0  0  0  0  0
   36.7200   31.1010   47.7940 C   0  0  0  0  0  0  0  0  0  0  0  0
   36.4220   32.1690   47.8450 H   0  0  0  0  0  0  0  0  0  0  0  0
   37.6020   31.0500   48.5050 H   0  0  0  0  0  0  0  0  0  0  0  0
   35.7100   29.8320   49.6320 C   0  0  0  0  0  0  0  0  0  0  0  0
   35.6960   30.2650   48.3370 C   0  0  0  0  0  0  0  0  0  0  0  0
   34.6610   29.7700   47.6140 C   0  0  0  0  0  0  0  0  0  0  0  0
   33.7410   28.9380   48.1050 N   0  0  0  0  0  0  0  0  0  0  0  0
   33.7550   28.5150   49.3610 C   0  0  0  0  0  0  0  0  0  0  0  0
   34.7420   28.9570   50.1390 N   0  0  0  0  0  0  0  0  0  0  0  0
   34.5150   30.0320   46.5540 H   0  0  0  0  0  0  0  0  0  0  0  0
   33.0350   27.8520   49.7730 H   0  0  0  0  0  0  0  0  0  0  0  0
   36.7010   30.4020   50.6450 C   0  0  0  0  0  0  0  0  0  0  0  0
   37.0430   29.7530   51.8190 C   0  0  0  0  0  0  0  0  0  0  0  0
   37.9410   29.4100   50.6420 C   0  0  0  0  0  0  0  0  0  0  0  0
   37.0450   31.3950   50.5100 H   0  0  0  0  0  0  0  0  0  0  0  0
   36.4270   28.8610   52.1500 H   0  0  0  0  0  0  0  0  0  0  0  0
   37.5500   30.1970   52.6680 H   0  0  0  0  0  0  0  0  0  0  0  0
   37.8380   28.4500   50.1610 H   0  0  0  0  0  0  0  0  0  0  0  0
   38.8940   29.9460   50.5400 H   0  0  0  0  0  0  0  0  0  0  0  0
  1 24  1  0  0  0  0
  2  1  1  0  0  0  0
  3  1  1  0  0  0  0
  4  5  1  0  0  0  0
  5  6  1  0  0  0  0
  6  1  1  0  0  0  0
  6  7  2  0  0  0  0
  7 11  1  0  0  0  0
  8 12  1  0  0  0  0
  8  7  1  0  0  0  0
  9  8  2  0  0  0  0
 10  5  2  0  0  0  0
 10  9  1  0  0  0  0
 13  9  1  0  0  0  0
 14 10  1  0  0  0  0
 16 15  1  0  0  0  0
 17 14  1  1  0  0  0
 17 16  1  0  0  0  0
 18 17  1  0  0  0  0
 19 18  1  0  0  0  0
 20 18  1  0  0  0  0
 20 22  1  0  0  0  0
 21 20  1  0  0  0  0
 22 23  1  0  0  0  0
 23 16  1  0  0  0  0
 24 25  1  0  0  0  0
 24 28  1  0  0  0  0
 24 26  1  0  0  0  0
 27 32  1  0  0  0  0
 27 35  1  0  0  0  0
 28 27  2  0  0  0  0
 29 30  2  0  0  0  0
 29 28  1  0  0  0  0
 30 31  1  0  0  0  0
 31 34  1  0  0  0  0
 31 32  2  0  0  0  0
 33 29  1  0  0  0  0
 35 36  1  0  0  0  0
 36 39  1  0  0  0  0
 36 40  1  0  0  0  0
 37 35  1  0  0  0  0
 37 36  1  0  0  0  0
 38 35  1  0  0  0  0
 41 37  1  0  0  0  0
 42 37  1  0  0  0  0
M  END
>  <minimizedAffinity>
-6.31308317

>  <minimizedRMSD>
4.59554529

$$$$
