
 OpenBabel03272502283D

 23 24  0  0  0  0  0  0  0  0999 V2000
   39.1450   32.4720   46.8360 C   0  0  0  0  0  0  0  0  0  0  0  0
   38.9200   33.5140   47.2000 H   0  0  0  0  0  0  0  0  0  0  0  0
   40.2370   32.3700   46.9690 H   0  0  0  0  0  0  0  0  0  0  0  0
   38.7270   32.4200   45.4770 N   0  0  0  0  0  0  0  0  0  0  0  0
   39.6620   32.9240   44.5320 C   0  0  0  0  0  0  0  0  0  0  0  0
   39.1230   33.5940   43.8070 H   0  0  0  0  0  0  0  0  0  0  0  0
   40.3170   31.8660   43.6740 C   0  0  0  0  0  0  0  0  0  0  0  0
   39.7210   31.6730   42.7610 H   0  0  0  0  0  0  0  0  0  0  0  0
   40.4380   30.6610   44.4300 N   0  0  0  0  0  0  0  0  0  0  0  0
   41.1790   30.6540   45.1370 H   0  0  0  0  0  0  0  0  0  0  0  0
   39.1820   30.0970   44.8220 C   0  0  0  0  0  0  0  0  0  0  0  0
   38.1430   31.1420   45.1620 C   0  0  0  0  0  0  0  0  0  0  0  0
   37.7040   31.9080   48.7310 C   0  0  0  0  0  0  0  0  0  0  0  0
   38.4520   31.5280   47.7520 C   0  0  0  0  0  0  0  0  0  0  0  0
   37.0200   29.7400   51.6660 C   0  0  0  0  0  0  0  0  0  0  0  0
   37.6850   30.6120   50.7860 C   0  0  0  0  0  0  0  0  0  0  0  0
   37.0400   31.0180   49.6300 C   0  0  0  0  0  0  0  0  0  0  0  0
   35.7780   30.5620   49.3730 N   0  0  0  0  0  0  0  0  0  0  0  0
   35.1660   29.7310   50.2250 C   0  0  0  0  0  0  0  0  0  0  0  0
   35.7730   29.3130   51.3730 N   0  0  0  0  0  0  0  0  0  0  0  0
   37.4970   29.4080   52.5710 H   0  0  0  0  0  0  0  0  0  0  0  0
   38.6790   30.9660   50.9970 H   0  0  0  0  0  0  0  0  0  0  0  0
   34.1730   29.4570   49.8880 H   0  0  0  0  0  0  0  0  0  0  0  0
  1  3  1  0  0  0  0
  1  2  1  0  0  0  0
  1 14  1  0  0  0  0
  4  1  1  0  0  0  0
  5  4  1  0  0  0  0
  6  5  1  0  0  0  0
  7  9  1  0  0  0  0
  7  5  1  0  0  0  0
  8  7  1  0  0  0  0
  9 11  1  0  0  0  0
  9 10  1  0  0  0  0
 11 12  1  0  0  0  0
 12  4  1  0  0  0  0
 13 17  1  0  0  0  0
 14 13  2  0  0  0  0
 15 21  1  0  0  0  0
 16 22  1  0  0  0  0
 16 15  2  0  0  0  0
 17 16  1  0  0  0  0
 18 17  2  0  0  0  0
 18 19  1  0  0  0  0
 19 20  2  0  0  0  0
 20 15  1  0  0  0  0
 23 19  1  0  0  0  0
M  END
>  <minimizedAffinity>
-5.05914927

>  <minimizedRMSD>
1.35608017

$$$$
