
 OpenBabel03262522073D

 40 43  0  0  1  0  0  0  0  0999 V2000
   38.7430   23.2280   36.1190 C   0  0  2  0  0  0  0  0  0  0  0  0
   38.1000   24.3900   36.7940 C   0  0  0  0  0  0  0  0  0  0  0  0
   37.9710   25.4890   35.8390 N   0  0  0  0  0  0  0  0  0  0  0  0
   37.5090   26.5550   34.9910 C   0  0  0  0  0  0  0  0  0  0  0  0
   36.4700   27.2240   34.8700 O   0  0  0  0  0  0  0  0  0  0  0  0
   38.7250   26.6420   34.2330 C   0  0  1  0  0  0  0  0  0  0  0  0
   39.2810   25.7280   35.3180 C   0  0  2  0  0  0  0  0  0  0  0  0
   39.7090   24.0530   34.7830 S   0  0  0  0  0  0  0  0  0  0  0  0
   38.6790   24.7160   37.6620 H   0  0  0  0  0  0  0  0  0  0  0  0
   37.0580   24.1240   37.1140 H   0  0  0  0  0  0  0  0  0  0  0  0
   39.3050   27.5780   34.2750 H   0  0  0  0  0  0  0  0  0  0  0  0
   40.0040   26.1950   36.0080 H   0  0  0  0  0  0  0  0  0  0  0  0
   37.8370   22.1600   35.6140 C   0  0  0  0  0  0  0  0  0  0  0  0
   38.4050   21.5450   34.9090 H   0  0  0  0  0  0  0  0  0  0  0  0
   37.5710   21.5310   36.4740 H   0  0  0  0  0  0  0  0  0  0  0  0
   36.9330   22.6180   35.2000 H   0  0  0  0  0  0  0  0  0  0  0  0
   39.8220   22.6580   37.0640 C   0  0  0  0  0  0  0  0  0  0  0  0
   40.0850   21.6390   36.6880 H   0  0  0  0  0  0  0  0  0  0  0  0
   40.6700   23.3530   36.9990 H   0  0  0  0  0  0  0  0  0  0  0  0
   39.3040   22.6170   38.3550 O   0  0  0  0  0  0  0  0  0  0  0  0
   39.2480   21.7010   38.7180 H   0  0  0  0  0  0  0  0  0  0  0  0
   38.7100   26.0830   32.8640 C   0  0  0  0  0  0  0  0  0  0  0  0
   39.8160   26.2390   32.2510 O   0  0  0  0  0  0  0  0  0  0  0  0
   37.5820   25.4280   32.2780 C   0  0  0  0  0  0  0  0  0  0  0  0
   36.6140   26.2050   31.6830 C   0  0  0  0  0  0  0  0  0  0  0  0
   35.4970   25.5500   31.1060 C   0  0  0  0  0  0  0  0  0  0  0  0
   35.4530   24.1780   31.1760 N   0  0  0  0  0  0  0  0  0  0  0  0
   36.4050   23.4630   31.7580 C   0  0  0  0  0  0  0  0  0  0  0  0
   37.4740   24.0790   32.3100 N   0  0  0  0  0  0  0  0  0  0  0  0
   36.6360   27.2690   31.6220 H   0  0  0  0  0  0  0  0  0  0  0  0
   34.7250   26.1530   30.6320 H   0  0  0  0  0  0  0  0  0  0  0  0
   36.2570   22.0490   31.7720 N   0  0  0  0  0  0  0  0  0  0  0  0
   35.0930   21.4960   32.4320 C   0  0  0  0  0  3  0  0  0  0  0  0
   34.3740   21.1940   31.6300 H   0  0  0  0  0  0  0  0  0  0  0  0
   35.4670   20.2640   33.1880 C   0  0  0  0  0  3  0  0  0  0  0  0
   34.5490   19.6830   33.4470 H   0  0  0  0  0  0  0  0  0  0  0  0
   36.3080   19.3920   32.4200 N   0  0  0  0  0  0  0  0  0  0  0  0
   35.8390   18.9030   31.6440 H   0  0  0  0  0  0  0  0  0  0  0  0
   37.5490   20.0480   32.0350 C   0  0  0  0  0  2  0  0  0  0  0  0
   37.2650   21.2260   31.1350 C   0  0  0  0  0  2  0  0  0  0  0  0
  1 13  1  6  0  0  0
  1  2  1  0  0  0  0
  1 17  1  0  0  0  0
  2 10  1  0  0  0  0
  2  9  1  0  0  0  0
  3  2  1  0  0  0  0
  4  3  1  0  0  0  0
  5  4  2  0  0  0  0
  6 11  1  1  0  0  0
  6  4  1  0  0  0  0
  6  7  1  0  0  0  0
  7  3  1  0  0  0  0
  7 12  1  1  0  0  0
  8  7  1  0  0  0  0
  8  1  1  0  0  0  0
 13 15  1  0  0  0  0
 14 13  1  0  0  0  0
 16 13  1  0  0  0  0
 17 20  1  0  0  0  0
 18 17  1  0  0  0  0
 19 17  1  0  0  0  0
 20 21  1  0  0  0  0
 22  6  1  0  0  0  0
 23 22  2  0  0  0  0
 24 29  1  0  0  0  0
 24 22  1  0  0  0  0
 25 24  2  0  0  0  0
 26 27  2  0  0  0  0
 26 25  1  0  0  0  0
 27 28  1  0  0  0  0
 28 32  1  0  0  0  0
 28 29  2  0  0  0  0
 30 25  1  0  0  0  0
 31 26  1  0  0  0  0
 32 33  1  0  0  0  0
 33 35  1  0  0  0  0
 34 33  1  0  0  0  0
 35 36  1  0  0  0  0
 37 35  1  0  0  0  0
 38 37  1  0  0  0  0
 39 37  1  0  0  0  0
 40 32  1  0  0  0  0
 40 39  1  0  0  0  0
M  END
>  <minimizedAffinity>
-6.24228096

$$$$

 OpenBabel03262522073D

 40 43  0  0  1  0  0  0  0  0999 V2000
   40.3460   26.5110   33.4250 C   0  0  2  0  0  0  0  0  0  0  0  0
   39.1110   27.2230   32.9970 C   0  0  0  0  0  0  0  0  0  0  0  0
   38.2800   26.3140   32.2090 N   0  0  0  0  0  0  0  0  0  0  0  0
   37.2220   25.5040   31.6680 C   0  0  0  0  0  0  0  0  0  0  0  0
   35.9960   25.3930   31.8360 O   0  0  0  0  0  0  0  0  0  0  0  0
   38.0730   24.7710   30.7750 C   0  0  1  0  0  0  0  0  0  0  0  0
   39.1080   25.8260   31.1490 C   0  0  2  0  0  0  0  0  0  0  0  0
   40.5180   25.2280   32.1120 S   0  0  0  0  0  0  0  0  0  0  0  0
   39.3480   28.1140   32.4100 H   0  0  0  0  0  0  0  0  0  0  0  0
   38.5000   27.5130   33.8920 H   0  0  0  0  0  0  0  0  0  0  0  0
   37.9010   24.8640   29.6900 H   0  0  0  0  0  0  0  0  0  0  0  0
   39.3590   26.5470   30.3540 H   0  0  0  0  0  0  0  0  0  0  0  0
   40.3510   25.9450   34.8020 C   0  0  0  0  0  0  0  0  0  0  0  0
   41.1720   25.2240   34.8650 H   0  0  0  0  0  0  0  0  0  0  0  0
   40.5730   26.7720   35.4890 H   0  0  0  0  0  0  0  0  0  0  0  0
   39.3620   25.5350   35.0280 H   0  0  0  0  0  0  0  0  0  0  0  0
   41.5490   27.4480   33.1920 C   0  0  0  0  0  0  0  0  0  0  0  0
   42.0550   27.1100   32.2550 H   0  0  0  0  0  0  0  0  0  0  0  0
   41.1230   28.4560   33.0890 H   0  0  0  0  0  0  0  0  0  0  0  0
   42.3930   27.3690   34.2960 O   0  0  0  0  0  0  0  0  0  0  0  0
   43.2890   27.0220   34.0710 H   0  0  0  0  0  0  0  0  0  0  0  0
   38.4070   23.3800   31.1470 C   0  0  0  0  0  0  0  0  0  0  0  0
   39.2980   22.8640   30.3970 O   0  0  0  0  0  0  0  0  0  0  0  0
   37.8060   22.6750   32.2360 C   0  0  0  0  0  0  0  0  0  0  0  0
   36.7060   21.8880   31.9760 C   0  0  0  0  0  0  0  0  0  0  0  0
   36.1140   21.1940   33.0600 C   0  0  0  0  0  0  0  0  0  0  0  0
   36.6760   21.3510   34.3040 N   0  0  0  0  0  0  0  0  0  0  0  0
   37.7350   22.1180   34.5170 C   0  0  0  0  0  0  0  0  0  0  0  0
   38.3070   22.7840   33.4890 N   0  0  0  0  0  0  0  0  0  0  0  0
   36.2610   21.7580   31.0160 H   0  0  0  0  0  0  0  0  0  0  0  0
   35.2440   20.5680   32.8670 H   0  0  0  0  0  0  0  0  0  0  0  0
   38.2340   22.2070   35.8460 N   0  0  0  0  0  0  0  0  0  0  0  0
   37.3470   22.7190   36.8690 C   0  0  0  0  0  3  0  0  0  0  0  0
   36.9830   21.8390   37.4580 H   0  0  0  0  0  0  0  0  0  0  0  0
   38.0990   23.6060   37.8060 C   0  0  0  0  0  3  0  0  0  0  0  0
   37.5080   23.7610   38.7410 H   0  0  0  0  0  0  0  0  0  0  0  0
   39.3560   23.0360   38.1980 N   0  0  0  0  0  0  0  0  0  0  0  0
   39.2910   22.2330   38.8400 H   0  0  0  0  0  0  0  0  0  0  0  0
   40.2180   22.8000   37.0490 C   0  0  0  0  0  2  0  0  0  0  0  0
   39.5930   21.7890   36.1200 C   0  0  0  0  0  2  0  0  0  0  0  0
  1 17  1  6  0  0  0
  1 13  1  0  0  0  0
  2  1  1  0  0  0  0
  2 10  1  0  0  0  0
  3  2  1  0  0  0  0
  4  5  2  0  0  0  0
  4  3  1  0  0  0  0
  6 11  1  6  0  0  0
  6 22  1  0  0  0  0
  6  7  1  0  0  0  0
  6  4  1  0  0  0  0
  7 12  1  6  0  0  0
  7  8  1  0  0  0  0
  7  3  1  0  0  0  0
  8  1  1  0  0  0  0
  9  2  1  0  0  0  0
 13 14  1  0  0  0  0
 13 16  1  0  0  0  0
 13 15  1  0  0  0  0
 17 20  1  0  0  0  0
 18 17  1  0  0  0  0
 19 17  1  0  0  0  0
 21 20  1  0  0  0  0
 22 24  1  0  0  0  0
 23 22  2  0  0  0  0
 24 29  1  0  0  0  0
 25 24  2  0  0  0  0
 25 26  1  0  0  0  0
 26 27  2  0  0  0  0
 27 28  1  0  0  0  0
 28 32  1  0  0  0  0
 29 28  2  0  0  0  0
 30 25  1  0  0  0  0
 31 26  1  0  0  0  0
 32 40  1  0  0  0  0
 32 33  1  0  0  0  0
 33 34  1  0  0  0  0
 33 35  1  0  0  0  0
 35 37  1  0  0  0  0
 35 36  1  0  0  0  0
 37 38  1  0  0  0  0
 39 37  1  0  0  0  0
 40 39  1  0  0  0  0
M  END
>  <minimizedAffinity>
-5.47643185

$$$$

 OpenBabel03262522073D

 40 43  0  0  1  0  0  0  0  0999 V2000
   33.5420   31.8760   35.6720 C   0  0  2  0  0  0  0  0  0  0  0  0
   32.9570   32.6690   34.5560 C   0  0  0  0  0  0  0  0  0  0  0  0
   33.2580   32.0070   33.2880 N   0  0  0  0  0  0  0  0  0  0  0  0
   33.2110   31.3700   31.9990 C   0  0  0  0  0  0  0  0  0  0  0  0
   32.3640   31.2070   31.1050 O   0  0  0  0  0  0  0  0  0  0  0  0
   34.5740   30.9230   32.0330 C   0  0  1  0  0  0  0  0  0  0  0  0
   34.6790   31.8410   33.2460 C   0  0  2  0  0  0  0  0  0  0  0  0
   34.9370   31.0110   34.8330 S   0  0  0  0  0  0  0  0  0  0  0  0
   33.3460   33.6900   34.5460 H   0  0  0  0  0  0  0  0  0  0  0  0
   31.8380   32.6920   34.6420 H   0  0  0  0  0  0  0  0  0  0  0  0
   35.2740   31.3120   31.2770 H   0  0  0  0  0  0  0  0  0  0  0  0
   35.2730   32.7580   33.0980 H   0  0  0  0  0  0  0  0  0  0  0  0
   32.6250   30.9490   36.3910 C   0  0  0  0  0  0  0  0  0  0  0  0
   33.2380   30.2470   36.9630 H   0  0  0  0  0  0  0  0  0  0  0  0
   32.0490   31.5540   37.1030 H   0  0  0  0  0  0  0  0  0  0  0  0
   31.9440   30.4840   35.6710 H   0  0  0  0  0  0  0  0  0  0  0  0
   34.2370   32.8520   36.6440 C   0  0  0  0  0  0  0  0  0  0  0  0
   34.8670   33.5390   36.0280 H   0  0  0  0  0  0  0  0  0  0  0  0
   33.4260   33.3870   37.1580 H   0  0  0  0  0  0  0  0  0  0  0  0
   35.0010   32.1140   37.5430 O   0  0  0  0  0  0  0  0  0  0  0  0
   35.9660   32.3130   37.4820 H   0  0  0  0  0  0  0  0  0  0  0  0
   34.8090   29.4870   32.2920 C   0  0  0  0  0  0  0  0  0  0  0  0
   33.7690   28.8790   32.7060 O   0  0  0  0  0  0  0  0  0  0  0  0
   36.0650   28.8320   32.0970 C   0  0  0  0  0  0  0  0  0  0  0  0
   36.7210   29.0210   30.9010 C   0  0  0  0  0  0  0  0  0  0  0  0
   37.9650   28.3680   30.7140 C   0  0  0  0  0  0  0  0  0  0  0  0
   38.4380   27.5870   31.7410 N   0  0  0  0  0  0  0  0  0  0  0  0
   37.7780   27.4280   32.8790 C   0  0  0  0  0  0  0  0  0  0  0  0
   36.5920   28.0470   33.0660 N   0  0  0  0  0  0  0  0  0  0  0  0
   36.3650   29.6240   30.0980 H   0  0  0  0  0  0  0  0  0  0  0  0
   38.4930   28.5100   29.7730 H   0  0  0  0  0  0  0  0  0  0  0  0
   38.3630   26.5970   33.8740 N   0  0  0  0  0  0  0  0  0  0  0  0
   38.6140   25.2120   33.5370 C   0  0  0  0  0  3  0  0  0  0  0  0
   39.7110   25.1170   33.3390 H   0  0  0  0  0  0  0  0  0  0  0  0
   38.2900   24.3330   34.7000 C   0  0  0  0  0  3  0  0  0  0  0  0
   38.7490   23.3250   34.5550 H   0  0  0  0  0  0  0  0  0  0  0  0
   38.8090   24.8520   35.9320 N   0  0  0  0  0  0  0  0  0  0  0  0
   39.8320   24.7940   36.0350 H   0  0  0  0  0  0  0  0  0  0  0  0
   38.2640   26.1690   36.2290 C   0  0  0  0  0  2  0  0  0  0  0  0
   38.6790   27.1610   35.1710 C   0  0  0  0  0  2  0  0  0  0  0  0
  1 13  1  1  0  0  0
  1 17  1  0  0  0  0
  2 10  1  0  0  0  0
  2  1  1  0  0  0  0
  3  2  1  0  0  0  0
  4  6  1  0  0  0  0
  4  3  1  0  0  0  0
  5  4  2  0  0  0  0
  6 11  1  6  0  0  0
  6 22  1  0  0  0  0
  6  7  1  0  0  0  0
  7 12  1  6  0  0  0
  7  3  1  0  0  0  0
  7  8  1  0  0  0  0
  8  1  1  0  0  0  0
  9  2  1  0  0  0  0
 13 14  1  0  0  0  0
 13 15  1  0  0  0  0
 16 13  1  0  0  0  0
 17 19  1  0  0  0  0
 17 20  1  0  0  0  0
 18 17  1  0  0  0  0
 21 20  1  0  0  0  0
 22 23  2  0  0  0  0
 24 22  1  0  0  0  0
 24 29  1  0  0  0  0
 25 24  2  0  0  0  0
 26 25  1  0  0  0  0
 26 27  2  0  0  0  0
 27 28  1  0  0  0  0
 28 29  2  0  0  0  0
 28 32  1  0  0  0  0
 30 25  1  0  0  0  0
 31 26  1  0  0  0  0
 32 40  1  0  0  0  0
 33 32  1  0  0  0  0
 33 35  1  0  0  0  0
 34 33  1  0  0  0  0
 35 37  1  0  0  0  0
 36 35  1  0  0  0  0
 37 38  1  0  0  0  0
 37 39  1  0  0  0  0
 40 39  1  0  0  0  0
M  END
>  <minimizedAffinity>
-5.39516592

$$$$

 OpenBabel03262522073D

 40 43  0  0  1  0  0  0  0  0999 V2000
   38.8430   23.2300   35.7210 C   0  0  2  0  0  0  0  0  0  0  0  0
   37.7980   24.0790   36.3550 C   0  0  0  0  0  0  0  0  0  0  0  0
   37.8970   25.4380   35.8250 N   0  0  0  0  0  0  0  0  0  0  0  0
   37.6610   26.7250   35.2270 C   0  0  0  0  0  0  0  0  0  0  0  0
   36.6710   27.3820   34.8650 O   0  0  0  0  0  0  0  0  0  0  0  0
   39.0480   27.0840   35.1570 C   0  0  1  0  0  0  0  0  0  0  0  0
   39.2470   25.8590   36.0420 C   0  0  2  0  0  0  0  0  0  0  0  0
   40.1270   24.4760   35.2750 S   0  0  0  0  0  0  0  0  0  0  0  0
   37.9020   24.0940   37.4420 H   0  0  0  0  0  0  0  0  0  0  0  0
   36.7760   23.7070   36.0790 H   0  0  0  0  0  0  0  0  0  0  0  0
   39.3960   27.9550   35.7340 H   0  0  0  0  0  0  0  0  0  0  0  0
   39.5310   26.0700   37.0860 H   0  0  0  0  0  0  0  0  0  0  0  0
   38.4170   22.3890   34.5680 C   0  0  0  0  0  0  0  0  0  0  0  0
   39.3180   22.0610   34.0410 H   0  0  0  0  0  0  0  0  0  0  0  0
   37.9260   21.4990   34.9830 H   0  0  0  0  0  0  0  0  0  0  0  0
   37.7040   22.9500   33.9550 H   0  0  0  0  0  0  0  0  0  0  0  0
   39.5110   22.3830   36.8240 C   0  0  0  0  0  0  0  0  0  0  0  0
   39.3690   21.3090   36.5480 H   0  0  0  0  0  0  0  0  0  0  0  0
   40.5710   22.6730   36.8200 H   0  0  0  0  0  0  0  0  0  0  0  0
   38.9110   22.6890   38.0430 O   0  0  0  0  0  0  0  0  0  0  0  0
   38.4570   21.9150   38.4530 H   0  0  0  0  0  0  0  0  0  0  0  0
   39.6950   27.0290   33.8280 C   0  0  0  0  0  0  0  0  0  0  0  0
   40.9560   27.1980   33.8800 O   0  0  0  0  0  0  0  0  0  0  0  0
   38.9910   26.8070   32.6030 C   0  0  0  0  0  0  0  0  0  0  0  0
   38.8590   25.5130   32.1520 C   0  0  0  0  0  0  0  0  0  0  0  0
   38.1620   25.3000   30.9370 C   0  0  0  0  0  0  0  0  0  0  0  0
   37.6610   26.4010   30.2850 N   0  0  0  0  0  0  0  0  0  0  0  0
   37.8080   27.6320   30.7490 C   0  0  0  0  0  0  0  0  0  0  0  0
   38.4710   27.8460   31.9080 N   0  0  0  0  0  0  0  0  0  0  0  0
   39.2420   24.6510   32.6480 H   0  0  0  0  0  0  0  0  0  0  0  0
   38.0500   24.2810   30.5700 H   0  0  0  0  0  0  0  0  0  0  0  0
   37.2480   28.6980   29.9920 N   0  0  0  0  0  0  0  0  0  0  0  0
   37.7190   28.8860   28.6370 C   0  0  0  0  0  3  0  0  0  0  0  0
   36.9290   28.4780   27.9560 H   0  0  0  0  0  0  0  0  0  0  0  0
   37.8610   30.3420   28.3380 C   0  0  0  0  0  3  0  0  0  0  0  0
   37.9340   30.5000   27.2350 H   0  0  0  0  0  0  0  0  0  0  0  0
   36.7300   31.1000   28.7910 N   0  0  0  0  0  0  0  0  0  0  0  0
   35.8650   30.9630   28.2480 H   0  0  0  0  0  0  0  0  0  0  0  0
   36.5440   30.9760   30.2300 C   0  0  0  0  0  2  0  0  0  0  0  0
   36.2420   29.5450   30.6000 C   0  0  0  0  0  2  0  0  0  0  0  0
  1 13  1  6  0  0  0
  1  2  1  0  0  0  0
  1 17  1  0  0  0  0
  2  9  1  0  0  0  0
  3  7  1  0  0  0  0
  3  2  1  0  0  0  0
  4  3  1  0  0  0  0
  5  4  2  0  0  0  0
  6  4  1  0  0  0  0
  6 11  1  1  0  0  0
  6  7  1  0  0  0  0
  7 12  1  1  0  0  0
  8  1  1  0  0  0  0
  8  7  1  0  0  0  0
 10  2  1  0  0  0  0
 13 15  1  0  0  0  0
 14 13  1  0  0  0  0
 16 13  1  0  0  0  0
 17 20  1  0  0  0  0
 18 17  1  0  0  0  0
 19 17  1  0  0  0  0
 20 21  1  0  0  0  0
 22 23  2  0  0  0  0
 22  6  1  0  0  0  0
 24 22  1  0  0  0  0
 25 24  1  0  0  0  0
 25 30  1  0  0  0  0
 26 25  2  0  0  0  0
 27 28  2  0  0  0  0
 27 26  1  0  0  0  0
 28 29  1  0  0  0  0
 29 24  2  0  0  0  0
 31 26  1  0  0  0  0
 32 40  1  0  0  0  0
 32 28  1  0  0  0  0
 33 32  1  0  0  0  0
 34 33  1  0  0  0  0
 35 33  1  0  0  0  0
 35 37  1  0  0  0  0
 36 35  1  0  0  0  0
 37 39  1  0  0  0  0
 38 37  1  0  0  0  0
 39 40  1  0  0  0  0
M  END
>  <minimizedAffinity>
-5.29666901

$$$$

 OpenBabel03262522073D

 40 43  0  0  1  0  0  0  0  0999 V2000
   37.3130   26.5800   31.8080 C   0  0  2  0  0  0  0  0  0  0  0  0
   38.6270   27.2760   31.7260 C   0  0  0  0  0  0  0  0  0  0  0  0
   39.3580   27.0700   32.9750 N   0  0  0  0  0  0  0  0  0  0  0  0
   40.3240   26.7490   33.9910 C   0  0  0  0  0  0  0  0  0  0  0  0
   41.5280   26.4420   34.0250 O   0  0  0  0  0  0  0  0  0  0  0  0
   39.4060   26.8990   35.0840 C   0  0  1  0  0  0  0  0  0  0  0  0
   38.4940   27.5090   34.0270 C   0  0  2  0  0  0  0  0  0  0  0  0
   37.0120   26.5500   33.6260 S   0  0  0  0  0  0  0  0  0  0  0  0
   38.4990   28.3450   31.5390 H   0  0  0  0  0  0  0  0  0  0  0  0
   39.2550   26.8240   30.9130 H   0  0  0  0  0  0  0  0  0  0  0  0
   39.6020   27.6860   35.8300 H   0  0  0  0  0  0  0  0  0  0  0  0
   38.3360   28.5980   34.1070 H   0  0  0  0  0  0  0  0  0  0  0  0
   37.2270   25.2330   31.1770 C   0  0  0  0  0  0  0  0  0  0  0  0
   36.3280   24.7410   31.5610 H   0  0  0  0  0  0  0  0  0  0  0  0
   37.0910   25.3910   30.0990 H   0  0  0  0  0  0  0  0  0  0  0  0
   38.1600   24.6900   31.3540 H   0  0  0  0  0  0  0  0  0  0  0  0
   36.2280   27.5320   31.2640 C   0  0  0  0  0  0  0  0  0  0  0  0
   35.2450   27.1690   31.6540 H   0  0  0  0  0  0  0  0  0  0  0  0
   36.4840   28.5270   31.6540 H   0  0  0  0  0  0  0  0  0  0  0  0
   36.2740   27.5090   29.8730 O   0  0  0  0  0  0  0  0  0  0  0  0
   35.4410   27.1720   29.4660 H   0  0  0  0  0  0  0  0  0  0  0  0
   38.9110   25.6630   35.7260 C   0  0  0  0  0  0  0  0  0  0  0  0
   38.1490   25.8900   36.7200 O   0  0  0  0  0  0  0  0  0  0  0  0
   39.2420   24.3430   35.2850 C   0  0  0  0  0  0  0  0  0  0  0  0
   40.4040   23.7710   35.7540 C   0  0  0  0  0  0  0  0  0  0  0  0
   40.7260   22.4640   35.3120 C   0  0  0  0  0  0  0  0  0  0  0  0
   39.8580   21.8500   34.4420 N   0  0  0  0  0  0  0  0  0  0  0  0
   38.7480   22.4320   34.0120 C   0  0  0  0  0  0  0  0  0  0  0  0
   38.4320   23.6780   34.4290 N   0  0  0  0  0  0  0  0  0  0  0  0
   41.0850   24.2370   36.4280 H   0  0  0  0  0  0  0  0  0  0  0  0
   41.6420   22.0010   35.6760 H   0  0  0  0  0  0  0  0  0  0  0  0
   37.9210   21.7030   33.1140 N   0  0  0  0  0  0  0  0  0  0  0  0
   38.4930   21.2930   31.8490 C   0  0  0  0  0  3  0  0  0  0  0  0
   38.7300   20.2020   31.9340 H   0  0  0  0  0  0  0  0  0  0  0  0
   37.4890   21.4500   30.7550 C   0  0  0  0  0  3  0  0  0  0  0  0
   37.8120   20.8730   29.8550 H   0  0  0  0  0  0  0  0  0  0  0  0
   36.1980   20.9460   31.1290 N   0  0  0  0  0  0  0  0  0  0  0  0
   36.1300   19.9200   31.1910 H   0  0  0  0  0  0  0  0  0  0  0  0
   35.6710   21.6400   32.2950 C   0  0  0  0  0  2  0  0  0  0  0  0
   36.5550   21.4040   33.4940 C   0  0  0  0  0  2  0  0  0  0  0  0
  1 13  1  6  0  0  0
  1  8  1  0  0  0  0
  2  1  1  0  0  0  0
  2  3  1  0  0  0  0
  3  4  1  0  0  0  0
  3  7  1  0  0  0  0
  4  5  2  0  0  0  0
  4  6  1  0  0  0  0
  6 22  1  0  0  0  0
  6 11  1  1  0  0  0
  7 12  1  1  0  0  0
  7  6  1  0  0  0  0
  8  7  1  0  0  0  0
  9  2  1  0  0  0  0
 10  2  1  0  0  0  0
 13 16  1  0  0  0  0
 13 14  1  0  0  0  0
 15 13  1  0  0  0  0
 17 19  1  0  0  0  0
 17 18  1  0  0  0  0
 17  1  1  0  0  0  0
 20 17  1  0  0  0  0
 21 20  1  0  0  0  0
 22 23  2  0  0  0  0
 24 22  1  0  0  0  0
 24 25  1  0  0  0  0
 25 30  1  0  0  0  0
 26 31  1  0  0  0  0
 26 25  2  0  0  0  0
 27 26  1  0  0  0  0
 28 29  1  0  0  0  0
 28 27  2  0  0  0  0
 29 24  2  0  0  0  0
 32 40  1  0  0  0  0
 32 28  1  0  0  0  0
 33 34  1  0  0  0  0
 33 32  1  0  0  0  0
 35 37  1  0  0  0  0
 35 33  1  0  0  0  0
 36 35  1  0  0  0  0
 37 38  1  0  0  0  0
 37 39  1  0  0  0  0
 39 40  1  0  0  0  0
M  END
>  <minimizedAffinity>
-5.20509481

$$$$

 OpenBabel03262522073D

 40 43  0  0  1  0  0  0  0  0999 V2000
   38.9380   23.3290   36.1510 C   0  0  2  0  0  0  0  0  0  0  0  0
   38.0830   24.3540   36.8120 C   0  0  0  0  0  0  0  0  0  0  0  0
   38.0140   25.5410   35.9620 N   0  0  0  0  0  0  0  0  0  0  0  0
   37.6050   26.6590   35.1550 C   0  0  0  0  0  0  0  0  0  0  0  0
   36.5430   27.2580   34.9160 O   0  0  0  0  0  0  0  0  0  0  0  0
   38.9180   26.9240   34.6390 C   0  0  1  0  0  0  0  0  0  0  0  0
   39.3660   25.9370   35.7110 C   0  0  2  0  0  0  0  0  0  0  0  0
   40.0350   24.3710   35.0980 S   0  0  0  0  0  0  0  0  0  0  0  0
   38.4720   24.6210   37.7970 H   0  0  0  0  0  0  0  0  0  0  0  0
   37.0310   23.9750   36.9110 H   0  0  0  0  0  0  0  0  0  0  0  0
   39.3910   27.8910   34.8770 H   0  0  0  0  0  0  0  0  0  0  0  0
   39.9130   26.3760   36.5620 H   0  0  0  0  0  0  0  0  0  0  0  0
   38.2360   22.2600   35.3880 C   0  0  0  0  0  0  0  0  0  0  0  0
   38.9710   21.7730   34.7390 H   0  0  0  0  0  0  0  0  0  0  0  0
   37.8880   21.5190   36.1200 H   0  0  0  0  0  0  0  0  0  0  0  0
   37.3770   22.6920   34.8670 H   0  0  0  0  0  0  0  0  0  0  0  0
   39.8890   22.7380   37.2120 C   0  0  0  0  0  0  0  0  0  0  0  0
   40.1670   21.7100   36.8710 H   0  0  0  0  0  0  0  0  0  0  0  0
   40.7570   23.4110   37.2400 H   0  0  0  0  0  0  0  0  0  0  0  0
   39.2290   22.7180   38.4380 O   0  0  0  0  0  0  0  0  0  0  0  0
   39.1100   21.8060   38.7950 H   0  0  0  0  0  0  0  0  0  0  0  0
   39.1900   26.5250   33.2420 C   0  0  0  0  0  0  0  0  0  0  0  0
   38.3770   25.6460   32.8090 O   0  0  0  0  0  0  0  0  0  0  0  0
   40.2490   27.0650   32.4460 C   0  0  0  0  0  0  0  0  0  0  0  0
   41.4120   27.4420   33.0770 C   0  0  0  0  0  0  0  0  0  0  0  0
   42.4560   27.9770   32.2830 C   0  0  0  0  0  0  0  0  0  0  0  0
   42.2400   28.0850   30.9300 N   0  0  0  0  0  0  0  0  0  0  0  0
   41.1060   27.7110   30.3570 C   0  0  0  0  0  0  0  0  0  0  0  0
   40.1050   27.1990   31.1060 N   0  0  0  0  0  0  0  0  0  0  0  0
   41.5920   27.3640   34.1250 H   0  0  0  0  0  0  0  0  0  0  0  0
   43.3820   28.2790   32.7700 H   0  0  0  0  0  0  0  0  0  0  0  0
   40.9910   27.8670   28.9480 N   0  0  0  0  0  0  0  0  0  0  0  0
   41.1170   29.2020   28.4020 C   0  0  0  0  0  3  0  0  0  0  0  0
   42.1410   29.2790   27.9560 H   0  0  0  0  0  0  0  0  0  0  0  0
   40.1310   29.4020   27.2990 C   0  0  0  0  0  3  0  0  0  0  0  0
   40.4140   30.2960   26.6920 H   0  0  0  0  0  0  0  0  0  0  0  0
   40.0920   28.2860   26.3990 N   0  0  0  0  0  0  0  0  0  0  0  0
   40.9160   28.1860   25.7890 H   0  0  0  0  0  0  0  0  0  0  0  0
   39.7190   27.0580   27.0870 C   0  0  0  0  0  2  0  0  0  0  0  0
   40.7540   26.7000   28.1240 C   0  0  0  0  0  2  0  0  0  0  0  0
  1 13  1  6  0  0  0
  1  2  1  0  0  0  0
  1 17  1  0  0  0  0
  2 10  1  0  0  0  0
  2  9  1  0  0  0  0
  3  2  1  0  0  0  0
  4  3  1  0  0  0  0
  5  4  2  0  0  0  0
  6 11  1  1  0  0  0
  6  4  1  0  0  0  0
  6  7  1  0  0  0  0
  7  3  1  0  0  0  0
  7 12  1  1  0  0  0
  8  7  1  0  0  0  0
  8  1  1  0  0  0  0
 13 15  1  0  0  0  0
 14 13  1  0  0  0  0
 16 13  1  0  0  0  0
 17 19  1  0  0  0  0
 17 20  1  0  0  0  0
 18 17  1  0  0  0  0
 20 21  1  0  0  0  0
 22  6  1  0  0  0  0
 23 22  2  0  0  0  0
 24 25  1  0  0  0  0
 24 22  1  0  0  0  0
 25 30  1  0  0  0  0
 26 31  1  0  0  0  0
 26 25  2  0  0  0  0
 27 26  1  0  0  0  0
 28 27  2  0  0  0  0
 28 29  1  0  0  0  0
 29 24  2  0  0  0  0
 32 28  1  0  0  0  0
 33 32  1  0  0  0  0
 34 33  1  0  0  0  0
 35 33  1  0  0  0  0
 36 35  1  0  0  0  0
 37 39  1  0  0  0  0
 37 35  1  0  0  0  0
 38 37  1  0  0  0  0
 39 40  1  0  0  0  0
 40 32  1  0  0  0  0
M  END
>  <minimizedAffinity>
-5.2032299

$$$$

 OpenBabel03262522073D

 40 43  0  0  1  0  0  0  0  0999 V2000
   38.4880   23.3780   36.0810 C   0  0  2  0  0  0  0  0  0  0  0  0
   39.9110   22.9630   36.2150 C   0  0  0  0  0  0  0  0  0  0  0  0
   40.7520   23.8760   35.4420 N   0  0  0  0  0  0  0  0  0  0  0  0
   41.7440   24.8120   34.9850 C   0  0  0  0  0  0  0  0  0  0  0  0
   42.8000   25.2940   35.4270 O   0  0  0  0  0  0  0  0  0  0  0  0
   41.1000   25.0670   33.7280 C   0  0  1  0  0  0  0  0  0  0  0  0
   40.2340   23.8720   34.1090 C   0  0  2  0  0  0  0  0  0  0  0  0
   38.4970   24.2460   34.4540 S   0  0  0  0  0  0  0  0  0  0  0  0
   40.0610   21.9370   35.8720 H   0  0  0  0  0  0  0  0  0  0  0  0
   40.2430   23.0560   37.2830 H   0  0  0  0  0  0  0  0  0  0  0  0
   41.6300   24.7940   32.8010 H   0  0  0  0  0  0  0  0  0  0  0  0
   40.4040   22.9550   33.5210 H   0  0  0  0  0  0  0  0  0  0  0  0
   37.9220   24.2040   37.1830 C   0  0  0  0  0  0  0  0  0  0  0  0
   36.9980   24.6620   36.8180 H   0  0  0  0  0  0  0  0  0  0  0  0
   37.6590   23.5160   37.9980 H   0  0  0  0  0  0  0  0  0  0  0  0
   38.6800   24.9120   37.5300 H   0  0  0  0  0  0  0  0  0  0  0  0
   37.6390   22.1150   35.8250 C   0  0  0  0  0  0  0  0  0  0  0  0
   37.1500   22.2410   34.8280 H   0  0  0  0  0  0  0  0  0  0  0  0
   38.3480   21.2750   35.8330 H   0  0  0  0  0  0  0  0  0  0  0  0
   36.7050   21.9930   36.8500 O   0  0  0  0  0  0  0  0  0  0  0  0
   35.7740   22.0460   36.5290 H   0  0  0  0  0  0  0  0  0  0  0  0
   40.3910   26.3550   33.5790 C   0  0  0  0  0  0  0  0  0  0  0  0
   40.3990   27.0530   34.6450 O   0  0  0  0  0  0  0  0  0  0  0  0
   39.7600   26.7890   32.3710 C   0  0  0  0  0  0  0  0  0  0  0  0
   40.3790   26.5070   31.1750 C   0  0  0  0  0  0  0  0  0  0  0  0
   39.7500   26.9410   29.9810 C   0  0  0  0  0  0  0  0  0  0  0  0
   38.5580   27.6160   30.0960 N   0  0  0  0  0  0  0  0  0  0  0  0
   37.9920   27.8690   31.2660 C   0  0  0  0  0  0  0  0  0  0  0  0
   38.5840   27.4590   32.4090 N   0  0  0  0  0  0  0  0  0  0  0  0
   41.3030   25.9840   31.0730 H   0  0  0  0  0  0  0  0  0  0  0  0
   40.2290   26.7230   29.0290 H   0  0  0  0  0  0  0  0  0  0  0  0
   36.7570   28.5750   31.2660 N   0  0  0  0  0  0  0  0  0  0  0  0
   36.7360   29.9020   30.6870 C   0  0  0  0  0  3  0  0  0  0  0  0
   36.2600   29.8120   29.6780 H   0  0  0  0  0  0  0  0  0  0  0  0
   35.8780   30.8080   31.5080 C   0  0  0  0  0  3  0  0  0  0  0  0
   35.6230   31.7250   30.9230 H   0  0  0  0  0  0  0  0  0  0  0  0
   34.6360   30.1910   31.8760 N   0  0  0  0  0  0  0  0  0  0  0  0
   33.9610   30.0730   31.1060 H   0  0  0  0  0  0  0  0  0  0  0  0
   34.8500   28.9820   32.6580 C   0  0  0  0  0  2  0  0  0  0  0  0
   35.5840   27.9480   31.8400 C   0  0  0  0  0  2  0  0  0  0  0  0
  1 17  1  6  0  0  0
  1  2  1  0  0  0  0
  1 13  1  0  0  0  0
  2 10  1  0  0  0  0
  3  2  1  0  0  0  0
  4  5  2  0  0  0  0
  4  3  1  0  0  0  0
  6 11  1  6  0  0  0
  6  7  1  0  0  0  0
  6  4  1  0  0  0  0
  7 12  1  6  0  0  0
  7  8  1  0  0  0  0
  7  3  1  0  0  0  0
  8  1  1  0  0  0  0
  9  2  1  0  0  0  0
 13 16  1  0  0  0  0
 13 15  1  0  0  0  0
 14 13  1  0  0  0  0
 17 19  1  0  0  0  0
 17 20  1  0  0  0  0
 18 17  1  0  0  0  0
 21 20  1  0  0  0  0
 22  6  1  0  0  0  0
 22 23  2  0  0  0  0
 24 29  1  0  0  0  0
 24 22  1  0  0  0  0
 25 24  2  0  0  0  0
 26 27  2  0  0  0  0
 26 25  1  0  0  0  0
 27 28  1  0  0  0  0
 28 32  1  0  0  0  0
 28 29  2  0  0  0  0
 30 25  1  0  0  0  0
 31 26  1  0  0  0  0
 32 40  1  0  0  0  0
 33 32  1  0  0  0  0
 33 35  1  0  0  0  0
 34 33  1  0  0  0  0
 35 37  1  0  0  0  0
 36 35  1  0  0  0  0
 37 39  1  0  0  0  0
 38 37  1  0  0  0  0
 40 39  1  0  0  0  0
M  END
>  <minimizedAffinity>
-5.18965244

$$$$

 OpenBabel03262522073D

 40 43  0  0  1  0  0  0  0  0999 V2000
   38.5220   25.9450   34.9790 C   0  0  2  0  0  0  0  0  0  0  0  0
   37.1020   26.1700   34.5920 C   0  0  0  0  0  0  0  0  0  0  0  0
   36.9080   25.7370   33.2090 N   0  0  0  0  0  0  0  0  0  0  0  0
   36.4660   25.1190   31.9880 C   0  0  0  0  0  0  0  0  0  0  0  0
   35.4960   24.4320   31.6260 O   0  0  0  0  0  0  0  0  0  0  0  0
   37.5870   25.5660   31.2120 C   0  0  1  0  0  0  0  0  0  0  0  0
   37.8780   26.4400   32.4260 C   0  0  2  0  0  0  0  0  0  0  0  0
   39.3780   26.0210   33.3480 S   0  0  0  0  0  0  0  0  0  0  0  0
   36.8230   27.2210   34.6980 H   0  0  0  0  0  0  0  0  0  0  0  0
   36.4240   25.5340   35.2200 H   0  0  0  0  0  0  0  0  0  0  0  0
   37.4030   26.2460   30.3650 H   0  0  0  0  0  0  0  0  0  0  0  0
   37.7040   27.5200   32.2860 H   0  0  0  0  0  0  0  0  0  0  0  0
   38.8220   24.7010   35.7410 C   0  0  0  0  0  0  0  0  0  0  0  0
   39.9020   24.5330   35.6970 H   0  0  0  0  0  0  0  0  0  0  0  0
   38.5520   24.8920   36.7880 H   0  0  0  0  0  0  0  0  0  0  0  0
   38.2130   23.8810   35.3480 H   0  0  0  0  0  0  0  0  0  0  0  0
   39.0240   27.2000   35.7240 C   0  0  0  0  0  0  0  0  0  0  0  0
   39.4130   26.8630   36.7150 H   0  0  0  0  0  0  0  0  0  0  0  0
   39.8170   27.6230   35.0910 H   0  0  0  0  0  0  0  0  0  0  0  0
   37.9610   28.0900   35.8580 O   0  0  0  0  0  0  0  0  0  0  0  0
   37.7250   28.2670   36.8000 H   0  0  0  0  0  0  0  0  0  0  0  0
   38.6210   24.5630   30.8780 C   0  0  0  0  0  0  0  0  0  0  0  0
   39.3570   24.9140   29.8990 O   0  0  0  0  0  0  0  0  0  0  0  0
   38.7920   23.3260   31.5740 C   0  0  0  0  0  0  0  0  0  0  0  0
   40.0000   23.0850   32.1890 C   0  0  0  0  0  0  0  0  0  0  0  0
   40.1630   21.8560   32.8760 C   0  0  0  0  0  0  0  0  0  0  0  0
   39.1040   20.9810   32.8830 N   0  0  0  0  0  0  0  0  0  0  0  0
   37.9550   21.2480   32.2790 C   0  0  0  0  0  0  0  0  0  0  0  0
   37.7900   22.4170   31.6220 N   0  0  0  0  0  0  0  0  0  0  0  0
   40.8290   23.7540   32.1910 H   0  0  0  0  0  0  0  0  0  0  0  0
   41.1140   21.6540   33.3670 H   0  0  0  0  0  0  0  0  0  0  0  0
   36.9250   20.2700   32.3520 N   0  0  0  0  0  0  0  0  0  0  0  0
   37.1960   18.9580   31.8030 C   0  0  0  0  0  3  0  0  0  0  0  0
   37.3970   18.2760   32.6670 H   0  0  0  0  0  0  0  0  0  0  0  0
   35.9910   18.4380   31.0920 C   0  0  0  0  0  3  0  0  0  0  0  0
   36.0900   17.3380   30.9270 H   0  0  0  0  0  0  0  0  0  0  0  0
   34.7880   18.6380   31.8480 N   0  0  0  0  0  0  0  0  0  0  0  0
   34.6890   18.0390   32.6790 H   0  0  0  0  0  0  0  0  0  0  0  0
   34.5510   20.0510   32.1120 C   0  0  0  0  0  2  0  0  0  0  0  0
   35.6590   20.6200   32.9630 C   0  0  0  0  0  2  0  0  0  0  0  0
  1 17  1  1  0  0  0
  1 13  1  0  0  0  0
  2  9  1  0  0  0  0
  2  1  1  0  0  0  0
  2 10  1  0  0  0  0
  3  2  1  0  0  0  0
  4  3  1  0  0  0  0
  5  4  2  0  0  0  0
  6 11  1  6  0  0  0
  6  4  1  0  0  0  0
  6  7  1  0  0  0  0
  7 12  1  6  0  0  0
  7  3  1  0  0  0  0
  7  8  1  0  0  0  0
  8  1  1  0  0  0  0
 13 15  1  0  0  0  0
 14 13  1  0  0  0  0
 16 13  1  0  0  0  0
 17 20  1  0  0  0  0
 17 18  1  0  0  0  0
 19 17  1  0  0  0  0
 20 21  1  0  0  0  0
 22  6  1  0  0  0  0
 22 24  1  0  0  0  0
 23 22  2  0  0  0  0
 24 29  2  0  0  0  0
 24 25  1  0  0  0  0
 25 30  1  0  0  0  0
 25 26  2  0  0  0  0
 26 27  1  0  0  0  0
 26 31  1  0  0  0  0
 28 32  1  0  0  0  0
 28 27  2  0  0  0  0
 29 28  1  0  0  0  0
 32 40  1  0  0  0  0
 33 32  1  0  0  0  0
 33 34  1  0  0  0  0
 35 33  1  0  0  0  0
 35 37  1  0  0  0  0
 36 35  1  0  0  0  0
 37 39  1  0  0  0  0
 37 38  1  0  0  0  0
 39 40  1  0  0  0  0
M  END
>  <minimizedAffinity>
-5.18494129

$$$$

 OpenBabel03262522073D

 40 43  0  0  1  0  0  0  0  0999 V2000
   37.8140   23.8230   31.9510 C   0  0  2  0  0  0  0  0  0  0  0  0
   39.2080   24.2960   32.1730 C   0  0  0  0  0  0  0  0  0  0  0  0
   39.1740   25.5940   32.8450 N   0  0  0  0  0  0  0  0  0  0  0  0
   39.3420   26.7110   33.7350 C   0  0  0  0  0  0  0  0  0  0  0  0
   40.0720   26.9920   34.7000 O   0  0  0  0  0  0  0  0  0  0  0  0
   38.3150   27.5080   33.1270 C   0  0  1  0  0  0  0  0  0  0  0  0
   38.3560   26.4450   32.0350 C   0  0  2  0  0  0  0  0  0  0  0  0
   36.8790   25.4100   31.8960 S   0  0  0  0  0  0  0  0  0  0  0  0
   39.7560   24.3770   31.2320 H   0  0  0  0  0  0  0  0  0  0  0  0
   39.7490   23.5970   32.8650 H   0  0  0  0  0  0  0  0  0  0  0  0
   38.5990   28.4620   32.6560 H   0  0  0  0  0  0  0  0  0  0  0  0
   38.7900   26.7690   31.0740 H   0  0  0  0  0  0  0  0  0  0  0  0
   37.2680   22.8540   32.9420 C   0  0  0  0  0  0  0  0  0  0  0  0
   36.1810   22.8280   32.8210 H   0  0  0  0  0  0  0  0  0  0  0  0
   37.6620   21.8650   32.6750 H   0  0  0  0  0  0  0  0  0  0  0  0
   37.6130   23.1280   33.9440 H   0  0  0  0  0  0  0  0  0  0  0  0
   37.7130   23.2790   30.5110 C   0  0  0  0  0  0  0  0  0  0  0  0
   38.2300   22.2880   30.4950 H   0  0  0  0  0  0  0  0  0  0  0  0
   36.6380   23.1850   30.3040 H   0  0  0  0  0  0  0  0  0  0  0  0
   38.3130   24.1920   29.6490 O   0  0  0  0  0  0  0  0  0  0  0  0
   39.0950   23.8180   29.1760 H   0  0  0  0  0  0  0  0  0  0  0  0
   37.0340   27.6310   33.8570 C   0  0  0  0  0  0  0  0  0  0  0  0
   36.9000   26.7610   34.7760 O   0  0  0  0  0  0  0  0  0  0  0  0
   36.0430   28.6220   33.5730 C   0  0  0  0  0  0  0  0  0  0  0  0
   36.1450   29.3290   32.3970 C   0  0  0  0  0  0  0  0  0  0  0  0
   35.1600   30.3110   32.1230 C   0  0  0  0  0  0  0  0  0  0  0  0
   34.1640   30.4940   33.0520 N   0  0  0  0  0  0  0  0  0  0  0  0
   34.0980   29.7940   34.1740 C   0  0  0  0  0  0  0  0  0  0  0  0
   35.0320   28.8560   34.4440 N   0  0  0  0  0  0  0  0  0  0  0  0
   36.9120   29.1970   31.6690 H   0  0  0  0  0  0  0  0  0  0  0  0
   35.2300   30.8760   31.1960 H   0  0  0  0  0  0  0  0  0  0  0  0
   33.0230   30.0670   35.0640 N   0  0  0  0  0  0  0  0  0  0  0  0
   32.9100   31.4070   35.6000 C   0  0  0  0  0  3  0  0  0  0  0  0
   32.0880   31.9170   35.0370 H   0  0  0  0  0  0  0  0  0  0  0  0
   32.5060   31.3550   37.0370 C   0  0  0  0  0  3  0  0  0  0  0  0
   32.1380   32.3560   37.3660 H   0  0  0  0  0  0  0  0  0  0  0  0
   31.4380   30.4240   37.2650 N   0  0  0  0  0  0  0  0  0  0  0  0
   30.5180   30.7170   36.9050 H   0  0  0  0  0  0  0  0  0  0  0  0
   31.8150   29.0720   36.8790 C   0  0  0  0  0  2  0  0  0  0  0  0
   32.0940   29.0060   35.3970 C   0  0  0  0  0  2  0  0  0  0  0  0
  1 17  1  6  0  0  0
  1  2  1  0  0  0  0
  1 13  1  0  0  0  0
  2  3  1  0  0  0  0
  2 10  1  0  0  0  0
  3  4  1  0  0  0  0
  4  5  2  0  0  0  0
  6 11  1  6  0  0  0
  6  4  1  0  0  0  0
  6 22  1  0  0  0  0
  7 12  1  6  0  0  0
  7  3  1  0  0  0  0
  7  6  1  0  0  0  0
  8  1  1  0  0  0  0
  8  7  1  0  0  0  0
  9  2  1  0  0  0  0
 13 16  1  0  0  0  0
 14 13  1  0  0  0  0
 15 13  1  0  0  0  0
 18 17  1  0  0  0  0
 19 17  1  0  0  0  0
 20 17  1  0  0  0  0
 21 20  1  0  0  0  0
 22 23  2  0  0  0  0
 24 22  1  0  0  0  0
 24 29  1  0  0  0  0
 25 24  2  0  0  0  0
 26 25  1  0  0  0  0
 26 27  2  0  0  0  0
 27 28  1  0  0  0  0
 28 29  2  0  0  0  0
 28 32  1  0  0  0  0
 30 25  1  0  0  0  0
 31 26  1  0  0  0  0
 32 40  1  0  0  0  0
 32 33  1  0  0  0  0
 33 35  1  0  0  0  0
 34 33  1  0  0  0  0
 35 37  1  0  0  0  0
 35 36  1  0  0  0  0
 38 37  1  0  0  0  0
 39 37  1  0  0  0  0
 40 39  1  0  0  0  0
M  END
>  <minimizedAffinity>
-5.13926363

$$$$
