
 OpenBabel03272508153D

 28 30  0  0  0  0  0  0  0  0999 V2000
   38.1330   23.7390   33.6480 Cl  0  0  0  0  0  0  0  0  0  0  0  0
   37.0310   24.6110   32.6130 C   0  0  0  0  0  0  0  0  0  0  0  0
   36.2590   23.8010   31.8240 C   0  0  0  0  0  0  0  0  0  0  0  0
   35.3350   24.3990   30.9490 C   0  0  0  0  0  0  0  0  0  0  0  0
   35.1990   25.7510   30.8750 C   0  0  0  0  0  0  0  0  0  0  0  0
   35.9870   26.5470   31.6780 C   0  0  0  0  0  0  0  0  0  0  0  0
   35.8400   28.2850   31.6110 Cl  0  0  0  0  0  0  0  0  0  0  0  0
   36.8810   25.9770   32.5250 C   0  0  0  0  0  0  0  0  0  0  0  0
   34.6830   23.8430   30.2880 H   0  0  0  0  0  0  0  0  0  0  0  0
   34.4900   26.2470   30.2040 H   0  0  0  0  0  0  0  0  0  0  0  0
   35.2090   21.6420   32.4230 C   0  0  0  0  0  0  0  0  0  0  0  0
   36.2340   22.3290   31.7350 C   0  0  0  0  0  0  0  0  0  0  0  0
   37.1580   21.5700   31.0150 C   0  0  0  0  0  0  0  0  0  0  0  0
   37.0320   20.2200   31.0090 N   0  0  0  0  0  0  0  0  0  0  0  0
   36.0290   19.5980   31.6860 C   0  0  0  0  0  0  0  0  0  0  0  0
   35.1230   20.3090   32.3890 N   0  0  0  0  0  0  0  0  0  0  0  0
   34.4970   22.2370   32.9780 H   0  0  0  0  0  0  0  0  0  0  0  0
   37.9370   22.1090   30.4940 H   0  0  0  0  0  0  0  0  0  0  0  0
   35.9130   18.5310   31.6920 H   0  0  0  0  0  0  0  0  0  0  0  0
   37.7380   26.7210   33.3940 N   0  0  0  0  0  0  0  0  0  0  0  0
   39.0320   27.1920   32.9660 C   0  0  0  0  0  3  0  0  0  0  0  0
   39.2500   26.8480   31.9180 H   0  0  0  0  0  0  0  0  0  0  0  0
   40.0770   26.6640   33.8940 C   0  0  0  0  0  3  0  0  0  0  0  0
   40.9070   27.4070   33.9460 H   0  0  0  0  0  0  0  0  0  0  0  0
   39.6030   26.3250   35.2000 N   0  0  0  0  0  0  0  0  0  0  0  0
   39.5350   25.3210   35.4160 H   0  0  0  0  0  0  0  0  0  0  0  0
   38.4700   27.0990   35.6340 C   0  0  0  0  0  2  0  0  0  0  0  0
   37.2830   26.9950   34.7240 C   0  0  0  0  0  2  0  0  0  0  0  0
  2  1  1  0  0  0  0
  3  2  2  0  0  0  0
  4  3  1  0  0  0  0
  5  4  2  0  0  0  0
  5  6  1  0  0  0  0
  6  8  2  0  0  0  0
  7  6  1  0  0  0  0
  8  2  1  0  0  0  0
  8 20  1  0  0  0  0
  9  4  1  0  0  0  0
 10  5  1  0  0  0  0
 11 17  1  0  0  0  0
 12  3  1  0  0  0  0
 12 11  2  0  0  0  0
 13 12  1  0  0  0  0
 14 13  2  0  0  0  0
 14 15  1  0  0  0  0
 15 19  1  0  0  0  0
 15 16  2  0  0  0  0
 16 11  1  0  0  0  0
 18 13  1  0  0  0  0
 20 28  1  0  0  0  0
 21 20  1  0  0  0  0
 21 23  1  0  0  0  0
 22 21  1  0  0  0  0
 23 24  1  0  0  0  0
 23 25  1  0  0  0  0
 25 26  1  0  0  0  0
 25 27  1  0  0  0  0
 28 27  1  0  0  0  0
M  END
>  <minimizedAffinity>
-5.1510067

$$$$

 OpenBabel03272508153D

 28 30  0  0  0  0  0  0  0  0999 V2000
   38.2030   22.2260   34.0740 Cl  0  0  0  0  0  0  0  0  0  0  0  0
   37.4040   23.4660   33.1420 C   0  0  0  0  0  0  0  0  0  0  0  0
   36.5560   22.9770   32.1840 C   0  0  0  0  0  0  0  0  0  0  0  0
   35.8590   23.8900   31.3740 C   0  0  0  0  0  0  0  0  0  0  0  0
   36.0120   25.2340   31.5250 C   0  0  0  0  0  0  0  0  0  0  0  0
   36.8710   25.7050   32.4940 C   0  0  0  0  0  0  0  0  0  0  0  0
   37.0920   27.4210   32.7170 Cl  0  0  0  0  0  0  0  0  0  0  0  0
   37.5470   24.8290   33.2800 C   0  0  0  0  0  0  0  0  0  0  0  0
   35.1690   23.5990   30.5930 H   0  0  0  0  0  0  0  0  0  0  0  0
   35.4850   25.9700   30.9100 H   0  0  0  0  0  0  0  0  0  0  0  0
   37.0500   20.9260   30.8900 C   0  0  0  0  0  0  0  0  0  0  0  0
   36.2370   21.5780   31.8450 C   0  0  0  0  0  0  0  0  0  0  0  0
   35.1830   20.8540   32.4060 C   0  0  0  0  0  0  0  0  0  0  0  0
   34.9890   19.5710   32.0130 N   0  0  0  0  0  0  0  0  0  0  0  0
   35.7960   18.9820   31.0890 C   0  0  0  0  0  0  0  0  0  0  0  0
   36.8220   19.6590   30.5320 N   0  0  0  0  0  0  0  0  0  0  0  0
   37.8650   21.4930   30.4610 H   0  0  0  0  0  0  0  0  0  0  0  0
   34.5690   21.3660   33.1340 H   0  0  0  0  0  0  0  0  0  0  0  0
   35.6570   17.9670   30.7670 H   0  0  0  0  0  0  0  0  0  0  0  0
   38.4570   25.2240   34.3100 N   0  0  0  0  0  0  0  0  0  0  0  0
   38.0330   25.3830   35.6800 C   0  0  0  0  0  3  0  0  0  0  0  0
   36.9270   25.2060   35.7730 H   0  0  0  0  0  0  0  0  0  0  0  0
   38.3580   26.7690   36.1340 C   0  0  0  0  0  3  0  0  0  0  0  0
   38.5730   26.7370   37.2270 H   0  0  0  0  0  0  0  0  0  0  0  0
   39.4200   27.4020   35.4160 N   0  0  0  0  0  0  0  0  0  0  0  0
   39.1500   28.1540   34.7670 H   0  0  0  0  0  0  0  0  0  0  0  0
   40.3970   26.4890   34.8840 C   0  0  0  0  0  2  0  0  0  0  0  0
   39.8230   25.4650   33.9530 C   0  0  0  0  0  2  0  0  0  0  0  0
  2  8  1  0  0  0  0
  2  1  1  0  0  0  0
  3  2  2  0  0  0  0
  4  5  2  0  0  0  0
  4  3  1  0  0  0  0
  5  6  1  0  0  0  0
  6  7  1  0  0  0  0
  6  8  2  0  0  0  0
  8 20  1  0  0  0  0
  9  4  1  0  0  0  0
 10  5  1  0  0  0  0
 11 12  1  0  0  0  0
 12  3  1  0  0  0  0
 12 13  2  0  0  0  0
 13 18  1  0  0  0  0
 14 13  1  0  0  0  0
 15 14  2  0  0  0  0
 16 11  2  0  0  0  0
 16 15  1  0  0  0  0
 17 11  1  0  0  0  0
 19 15  1  0  0  0  0
 20 21  1  0  0  0  0
 21 22  1  0  0  0  0
 21 23  1  0  0  0  0
 23 24  1  0  0  0  0
 25 23  1  0  0  0  0
 26 25  1  0  0  0  0
 27 25  1  0  0  0  0
 28 20  1  0  0  0  0
 28 27  1  0  0  0  0
M  END
>  <minimizedAffinity>
-5.03732538

$$$$

 OpenBabel03272508153D

 28 30  0  0  0  0  0  0  0  0999 V2000
   36.4510   27.8510   34.6900 Cl  0  0  0  0  0  0  0  0  0  0  0  0
   36.2980   28.7720   33.2150 C   0  0  0  0  0  0  0  0  0  0  0  0
   35.6890   29.9870   33.3840 C   0  0  0  0  0  0  0  0  0  0  0  0
   35.5130   30.8120   32.2600 C   0  0  0  0  0  0  0  0  0  0  0  0
   35.9330   30.4280   31.0240 C   0  0  0  0  0  0  0  0  0  0  0  0
   36.5430   29.2010   30.8760 C   0  0  0  0  0  0  0  0  0  0  0  0
   37.0950   28.6740   29.3070 Cl  0  0  0  0  0  0  0  0  0  0  0  0
   36.7160   28.3990   31.9570 C   0  0  0  0  0  0  0  0  0  0  0  0
   35.0440   31.7870   32.2950 H   0  0  0  0  0  0  0  0  0  0  0  0
   35.8110   31.0470   30.1290 H   0  0  0  0  0  0  0  0  0  0  0  0
   33.7890   30.4210   34.9100 C   0  0  0  0  0  0  0  0  0  0  0  0
   35.1590   30.6040   34.6140 C   0  0  0  0  0  0  0  0  0  0  0  0
   35.9230   31.3580   35.5070 C   0  0  0  0  0  0  0  0  0  0  0  0
   35.3220   31.8760   36.6060 N   0  0  0  0  0  0  0  0  0  0  0  0
   33.9990   31.6760   36.8520 C   0  0  0  0  0  0  0  0  0  0  0  0
   33.2390   30.9500   36.0060 N   0  0  0  0  0  0  0  0  0  0  0  0
   33.2050   29.8340   34.2140 H   0  0  0  0  0  0  0  0  0  0  0  0
   36.9690   31.4900   35.2670 H   0  0  0  0  0  0  0  0  0  0  0  0
   33.5070   32.0770   37.7180 H   0  0  0  0  0  0  0  0  0  0  0  0
   37.3370   27.1120   31.9010 N   0  0  0  0  0  0  0  0  0  0  0  0
   38.7630   26.9490   32.0430 C   0  0  0  0  0  3  0  0  0  0  0  0
   39.2660   27.9490   32.1450 H   0  0  0  0  0  0  0  0  0  0  0  0
   39.2970   26.2410   30.8400 C   0  0  0  0  0  3  0  0  0  0  0  0
   40.1790   25.6350   31.1540 H   0  0  0  0  0  0  0  0  0  0  0  0
   38.3400   25.4380   30.1440 N   0  0  0  0  0  0  0  0  0  0  0  0
   38.0130   25.7990   29.2370 H   0  0  0  0  0  0  0  0  0  0  0  0
   37.2940   24.9110   30.9800 C   0  0  0  0  0  2  0  0  0  0  0  0
   36.5050   25.9650   31.6960 C   0  0  0  0  0  2  0  0  0  0  0  0
  2  3  1  0  0  0  0
  2  1  1  0  0  0  0
  3 12  1  0  0  0  0
  4  9  1  0  0  0  0
  4  3  2  0  0  0  0
  5  4  1  0  0  0  0
  6  5  2  0  0  0  0
  6  8  1  0  0  0  0
  7  6  1  0  0  0  0
  8  2  2  0  0  0  0
 10  5  1  0  0  0  0
 11 16  1  0  0  0  0
 12 11  2  0  0  0  0
 12 13  1  0  0  0  0
 13 14  2  0  0  0  0
 14 15  1  0  0  0  0
 15 19  1  0  0  0  0
 16 15  2  0  0  0  0
 17 11  1  0  0  0  0
 18 13  1  0  0  0  0
 20  8  1  0  0  0  0
 20 21  1  0  0  0  0
 21 22  1  0  0  0  0
 23 24  1  0  0  0  0
 23 21  1  0  0  0  0
 25 23  1  0  0  0  0
 25 27  1  0  0  0  0
 26 25  1  0  0  0  0
 27 28  1  0  0  0  0
 28 20  1  0  0  0  0
M  END
>  <minimizedAffinity>
-5.01906776

$$$$

 OpenBabel03272508153D

 28 30  0  0  0  0  0  0  0  0999 V2000
   38.3740   27.1340   34.6800 Cl  0  0  0  0  0  0  0  0  0  0  0  0
   37.8920   25.7100   33.7940 C   0  0  0  0  0  0  0  0  0  0  0  0
   37.2670   25.9850   32.6070 C   0  0  0  0  0  0  0  0  0  0  0  0
   36.8360   24.9100   31.8110 C   0  0  0  0  0  0  0  0  0  0  0  0
   37.0280   23.6180   32.1960 C   0  0  0  0  0  0  0  0  0  0  0  0
   37.6590   23.3650   33.3940 C   0  0  0  0  0  0  0  0  0  0  0  0
   37.9230   21.7220   33.9210 Cl  0  0  0  0  0  0  0  0  0  0  0  0
   38.0780   24.3980   34.1680 C   0  0  0  0  0  0  0  0  0  0  0  0
   36.3340   25.0270   30.8590 H   0  0  0  0  0  0  0  0  0  0  0  0
   36.7040   22.7600   31.5990 H   0  0  0  0  0  0  0  0  0  0  0  0
   37.9030   27.8490   31.1090 C   0  0  0  0  0  0  0  0  0  0  0  0
   36.9540   27.2890   31.9940 C   0  0  0  0  0  0  0  0  0  0  0  0
   35.7810   28.0080   32.2310 C   0  0  0  0  0  0  0  0  0  0  0  0
   35.6070   29.1990   31.6080 N   0  0  0  0  0  0  0  0  0  0  0  0
   36.5470   29.7020   30.7630 C   0  0  0  0  0  0  0  0  0  0  0  0
   37.6890   29.0270   30.5160 N   0  0  0  0  0  0  0  0  0  0  0  0
   38.8090   27.2850   30.9300 H   0  0  0  0  0  0  0  0  0  0  0  0
   35.0650   27.5670   32.9110 H   0  0  0  0  0  0  0  0  0  0  0  0
   36.4260   30.6430   30.2600 H   0  0  0  0  0  0  0  0  0  0  0  0
   38.7410   24.2320   35.4240 N   0  0  0  0  0  0  0  0  0  0  0  0
   40.1740   24.0970   35.5170 C   0  0  0  0  0  3  0  0  0  0  0  0
   40.6360   24.0920   34.4920 H   0  0  0  0  0  0  0  0  0  0  0  0
   40.5000   22.8190   36.2190 C   0  0  0  0  0  3  0  0  0  0  0  0
   41.4560   22.9610   36.7760 H   0  0  0  0  0  0  0  0  0  0  0  0
   39.4690   22.3270   37.0780 N   0  0  0  0  0  0  0  0  0  0  0  0
   38.9550   21.4980   36.7490 H   0  0  0  0  0  0  0  0  0  0  0  0
   38.6310   23.3530   37.6410 C   0  0  0  0  0  2  0  0  0  0  0  0
   37.9430   24.2010   36.6140 C   0  0  0  0  0  2  0  0  0  0  0  0
  2  8  1  0  0  0  0
  2  1  1  0  0  0  0
  3  2  2  0  0  0  0
  4  5  2  0  0  0  0
  4  3  1  0  0  0  0
  5  6  1  0  0  0  0
  6  7  1  0  0  0  0
  6  8  2  0  0  0  0
  8 20  1  0  0  0  0
  9  4  1  0  0  0  0
 10  5  1  0  0  0  0
 11 12  1  0  0  0  0
 12 13  2  0  0  0  0
 12  3  1  0  0  0  0
 13 18  1  0  0  0  0
 14 13  1  0  0  0  0
 15 14  2  0  0  0  0
 16 15  1  0  0  0  0
 16 11  2  0  0  0  0
 17 11  1  0  0  0  0
 19 15  1  0  0  0  0
 20 21  1  0  0  0  0
 20 28  1  0  0  0  0
 21 23  1  0  0  0  0
 22 21  1  0  0  0  0
 23 24  1  0  0  0  0
 23 25  1  0  0  0  0
 25 27  1  0  0  0  0
 26 25  1  0  0  0  0
 28 27  1  0  0  0  0
M  END
>  <minimizedAffinity>
-4.92515898

$$$$

 OpenBabel03272508153D

 28 30  0  0  0  0  0  0  0  0999 V2000
   39.1490   23.4630   32.9540 Cl  0  0  0  0  0  0  0  0  0  0  0  0
   38.6450   24.8100   33.9420 C   0  0  0  0  0  0  0  0  0  0  0  0
   39.1230   24.7630   35.2250 C   0  0  0  0  0  0  0  0  0  0  0  0
   38.7780   25.8000   36.1090 C   0  0  0  0  0  0  0  0  0  0  0  0
   37.9850   26.8340   35.7150 C   0  0  0  0  0  0  0  0  0  0  0  0
   37.5140   26.8610   34.4210 C   0  0  0  0  0  0  0  0  0  0  0  0
   36.4960   28.1720   33.8800 Cl  0  0  0  0  0  0  0  0  0  0  0  0
   37.8440   25.8640   33.5620 C   0  0  0  0  0  0  0  0  0  0  0  0
   39.1070   25.8500   37.1380 H   0  0  0  0  0  0  0  0  0  0  0  0
   37.6980   27.6560   36.3800 H   0  0  0  0  0  0  0  0  0  0  0  0
   41.3780   23.8260   35.6290 C   0  0  0  0  0  0  0  0  0  0  0  0
   39.9860   23.7530   35.8640 C   0  0  0  0  0  0  0  0  0  0  0  0
   39.5180   22.7280   36.6890 C   0  0  0  0  0  0  0  0  0  0  0  0
   40.4100   21.8580   37.2210 N   0  0  0  0  0  0  0  0  0  0  0  0
   41.7430   21.9640   36.9670 C   0  0  0  0  0  0  0  0  0  0  0  0
   42.2220   22.9460   36.1750 N   0  0  0  0  0  0  0  0  0  0  0  0
   41.7320   24.6240   34.9900 H   0  0  0  0  0  0  0  0  0  0  0  0
   38.4510   22.6850   36.8600 H   0  0  0  0  0  0  0  0  0  0  0  0
   42.4640   21.2850   37.3800 H   0  0  0  0  0  0  0  0  0  0  0  0
   37.4030   25.8080   32.2030 N   0  0  0  0  0  0  0  0  0  0  0  0
   38.1640   26.4010   31.1310 C   0  0  0  0  0  3  0  0  0  0  0  0
   39.0730   26.9250   31.5360 H   0  0  0  0  0  0  0  0  0  0  0  0
   37.3020   27.3830   30.4050 C   0  0  0  0  0  3  0  0  0  0  0  0
   37.6220   27.4060   29.3370 H   0  0  0  0  0  0  0  0  0  0  0  0
   35.8970   27.1470   30.5190 N   0  0  0  0  0  0  0  0  0  0  0  0
   35.3700   27.7980   31.1170 H   0  0  0  0  0  0  0  0  0  0  0  0
   35.5460   25.7630   30.7050 C   0  0  0  0  0  2  0  0  0  0  0  0
   36.1690   25.1390   31.9170 C   0  0  0  0  0  2  0  0  0  0  0  0
  1  2  1  0  0  0  0
  2  3  1  0  0  0  0
  3 12  1  0  0  0  0
  3  4  2  0  0  0  0
  4  9  1  0  0  0  0
  5  4  1  0  0  0  0
  5 10  1  0  0  0  0
  6  5  2  0  0  0  0
  7  6  1  0  0  0  0
  8  2  2  0  0  0  0
  8  6  1  0  0  0  0
 11 12  2  0  0  0  0
 11 16  1  0  0  0  0
 12 13  1  0  0  0  0
 13 18  1  0  0  0  0
 13 14  2  0  0  0  0
 15 14  1  0  0  0  0
 15 19  1  0  0  0  0
 16 15  2  0  0  0  0
 17 11  1  0  0  0  0
 20  8  1  0  0  0  0
 21 22  1  0  0  0  0
 21 20  1  0  0  0  0
 23 25  1  0  0  0  0
 23 21  1  0  0  0  0
 24 23  1  0  0  0  0
 25 27  1  0  0  0  0
 25 26  1  0  0  0  0
 27 28  1  0  0  0  0
 28 20  1  0  0  0  0
M  END
>  <minimizedAffinity>
-4.84741116

$$$$

 OpenBabel03272508153D

 28 30  0  0  0  0  0  0  0  0999 V2000
   36.9720   21.3330   34.6120 Cl  0  0  0  0  0  0  0  0  0  0  0  0
   37.7590   22.6160   33.7300 C   0  0  0  0  0  0  0  0  0  0  0  0
   38.4610   23.4830   34.5250 C   0  0  0  0  0  0  0  0  0  0  0  0
   39.1350   24.5560   33.9180 C   0  0  0  0  0  0  0  0  0  0  0  0
   39.1020   24.7450   32.5700 C   0  0  0  0  0  0  0  0  0  0  0  0
   38.3890   23.8620   31.7890 C   0  0  0  0  0  0  0  0  0  0  0  0
   38.3240   24.0710   30.0580 Cl  0  0  0  0  0  0  0  0  0  0  0  0
   37.7360   22.8230   32.3680 C   0  0  0  0  0  0  0  0  0  0  0  0
   39.7140   25.2900   34.4620 H   0  0  0  0  0  0  0  0  0  0  0  0
   39.6160   25.5700   32.0670 H   0  0  0  0  0  0  0  0  0  0  0  0
   37.7060   24.2000   36.7700 C   0  0  0  0  0  0  0  0  0  0  0  0
   38.6350   23.4760   35.9890 C   0  0  0  0  0  0  0  0  0  0  0  0
   39.6580   22.7990   36.6560 C   0  0  0  0  0  0  0  0  0  0  0  0
   39.7140   22.8670   38.0080 N   0  0  0  0  0  0  0  0  0  0  0  0
   38.7980   23.5770   38.7220 C   0  0  0  0  0  0  0  0  0  0  0  0
   37.7990   24.2390   38.1020 N   0  0  0  0  0  0  0  0  0  0  0  0
   36.9150   24.7200   36.2460 H   0  0  0  0  0  0  0  0  0  0  0  0
   40.3620   22.2490   36.0460 H   0  0  0  0  0  0  0  0  0  0  0  0
   38.8270   23.6410   39.7930 H   0  0  0  0  0  0  0  0  0  0  0  0
   36.9740   21.8580   31.6400 N   0  0  0  0  0  0  0  0  0  0  0  0
   35.5630   22.0300   31.3940 C   0  0  0  0  0  3  0  0  0  0  0  0
   35.1880   22.9660   31.8900 H   0  0  0  0  0  0  0  0  0  0  0  0
   34.8250   20.8480   31.9350 C   0  0  0  0  0  3  0  0  0  0  0  0
   33.9210   20.6820   31.3040 H   0  0  0  0  0  0  0  0  0  0  0  0
   35.6040   19.6540   32.0470 N   0  0  0  0  0  0  0  0  0  0  0  0
   35.8680   19.3670   32.9990 H   0  0  0  0  0  0  0  0  0  0  0  0
   36.6710   19.5560   31.0860 C   0  0  0  0  0  2  0  0  0  0  0  0
   37.6460   20.6920   31.1480 C   0  0  0  0  0  2  0  0  0  0  0  0
  2  3  1  0  0  0  0
  2  1  1  0  0  0  0
  3 12  1  0  0  0  0
  4  9  1  0  0  0  0
  4  3  2  0  0  0  0
  5  4  1  0  0  0  0
  6  8  1  0  0  0  0
  6  5  2  0  0  0  0
  7  6  1  0  0  0  0
  8  2  2  0  0  0  0
 10  5  1  0  0  0  0
 11 16  1  0  0  0  0
 12 13  1  0  0  0  0
 12 11  2  0  0  0  0
 13 14  2  0  0  0  0
 14 15  1  0  0  0  0
 15 19  1  0  0  0  0
 16 15  2  0  0  0  0
 17 11  1  0  0  0  0
 18 13  1  0  0  0  0
 20  8  1  0  0  0  0
 21 20  1  0  0  0  0
 21 22  1  0  0  0  0
 21 23  1  0  0  0  0
 23 25  1  0  0  0  0
 24 23  1  0  0  0  0
 25 26  1  0  0  0  0
 27 28  1  0  0  0  0
 27 25  1  0  0  0  0
 28 20  1  0  0  0  0
M  END
>  <minimizedAffinity>
-4.78540516

$$$$

 OpenBabel03272508153D

 28 30  0  0  0  0  0  0  0  0999 V2000
   36.1710   27.0880   30.7270 Cl  0  0  0  0  0  0  0  0  0  0  0  0
   36.6170   27.2590   32.4050 C   0  0  0  0  0  0  0  0  0  0  0  0
   36.0420   28.3390   33.0210 C   0  0  0  0  0  0  0  0  0  0  0  0
   36.3320   28.5720   34.3770 C   0  0  0  0  0  0  0  0  0  0  0  0
   37.1650   27.7530   35.0760 C   0  0  0  0  0  0  0  0  0  0  0  0
   37.7330   26.6730   34.4360 C   0  0  0  0  0  0  0  0  0  0  0  0
   38.8040   25.6000   35.3000 Cl  0  0  0  0  0  0  0  0  0  0  0  0
   37.4570   26.4410   33.1280 C   0  0  0  0  0  0  0  0  0  0  0  0
   35.9270   29.3970   34.9470 H   0  0  0  0  0  0  0  0  0  0  0  0
   37.4110   27.9070   36.1310 H   0  0  0  0  0  0  0  0  0  0  0  0
   33.7580   29.2730   32.8360 C   0  0  0  0  0  0  0  0  0  0  0  0
   35.1210   29.3490   32.4690 C   0  0  0  0  0  0  0  0  0  0  0  0
   35.5080   30.3780   31.6080 C   0  0  0  0  0  0  0  0  0  0  0  0
   34.5680   31.2490   31.1660 N   0  0  0  0  0  0  0  0  0  0  0  0
   33.2650   31.1380   31.5440 C   0  0  0  0  0  0  0  0  0  0  0  0
   32.8650   30.1540   32.3750 N   0  0  0  0  0  0  0  0  0  0  0  0
   33.4670   28.4740   33.5040 H   0  0  0  0  0  0  0  0  0  0  0  0
   36.5530   30.4240   31.3370 H   0  0  0  0  0  0  0  0  0  0  0  0
   32.5070   31.8190   31.2040 H   0  0  0  0  0  0  0  0  0  0  0  0
   37.9980   25.3470   32.3830 N   0  0  0  0  0  0  0  0  0  0  0  0
   39.2860   25.4280   31.7390 C   0  0  0  0  0  3  0  0  0  0  0  0
   39.7310   26.4510   31.8760 H   0  0  0  0  0  0  0  0  0  0  0  0
   39.1230   25.1430   30.2810 C   0  0  0  0  0  3  0  0  0  0  0  0
   40.0580   24.6590   29.9130 H   0  0  0  0  0  0  0  0  0  0  0  0
   37.9710   24.3650   29.9480 N   0  0  0  0  0  0  0  0  0  0  0  0
   37.2000   24.8640   29.4830 H   0  0  0  0  0  0  0  0  0  0  0  0
   37.5480   23.4640   30.9870 C   0  0  0  0  0  2  0  0  0  0  0  0
   37.2240   24.1460   32.2820 C   0  0  0  0  0  2  0  0  0  0  0  0
  1  2  1  0  0  0  0
  2  3  2  0  0  0  0
  2  8  1  0  0  0  0
  3  4  1  0  0  0  0
  4  9  1  0  0  0  0
  4  5  2  0  0  0  0
  5 10  1  0  0  0  0
  6  5  1  0  0  0  0
  6  7  1  0  0  0  0
  8  6  2  0  0  0  0
 11 17  1  0  0  0  0
 12 11  1  0  0  0  0
 12  3  1  0  0  0  0
 13 12  2  0  0  0  0
 14 15  2  0  0  0  0
 14 13  1  0  0  0  0
 15 16  1  0  0  0  0
 16 11  2  0  0  0  0
 18 13  1  0  0  0  0
 19 15  1  0  0  0  0
 20  8  1  0  0  0  0
 21 22  1  0  0  0  0
 21 20  1  0  0  0  0
 23 21  1  0  0  0  0
 24 23  1  0  0  0  0
 25 23  1  0  0  0  0
 25 27  1  0  0  0  0
 26 25  1  0  0  0  0
 27 28  1  0  0  0  0
 28 20  1  0  0  0  0
M  END
>  <minimizedAffinity>
-4.75229788

$$$$

 OpenBabel03272508153D

 28 30  0  0  0  0  0  0  0  0999 V2000
   36.3090   24.3380   30.7890 Cl  0  0  0  0  0  0  0  0  0  0  0  0
   37.2050   24.2880   32.2850 C   0  0  0  0  0  0  0  0  0  0  0  0
   37.2850   23.0380   32.8390 C   0  0  0  0  0  0  0  0  0  0  0  0
   37.9850   22.8820   34.0480 C   0  0  0  0  0  0  0  0  0  0  0  0
   38.5760   23.9390   34.6680 C   0  0  0  0  0  0  0  0  0  0  0  0
   38.4830   25.1880   34.0940 C   0  0  0  0  0  0  0  0  0  0  0  0
   39.2280   26.5680   34.8600 Cl  0  0  0  0  0  0  0  0  0  0  0  0
   37.8090   25.3470   32.9270 C   0  0  0  0  0  0  0  0  0  0  0  0
   38.1020   21.9360   34.5590 H   0  0  0  0  0  0  0  0  0  0  0  0
   39.1270   23.8510   35.6090 H   0  0  0  0  0  0  0  0  0  0  0  0
   35.3960   21.4460   32.6960 C   0  0  0  0  0  0  0  0  0  0  0  0
   36.7290   21.7620   32.3510 C   0  0  0  0  0  0  0  0  0  0  0  0
   37.4350   20.8460   31.5680 C   0  0  0  0  0  0  0  0  0  0  0  0
   36.8150   19.7050   31.1800 N   0  0  0  0  0  0  0  0  0  0  0  0
   35.5290   19.4390   31.5360 C   0  0  0  0  0  0  0  0  0  0  0  0
   34.8250   20.3080   32.2910 N   0  0  0  0  0  0  0  0  0  0  0  0
   34.8560   22.1610   33.3020 H   0  0  0  0  0  0  0  0  0  0  0  0
   38.4530   21.1010   31.3120 H   0  0  0  0  0  0  0  0  0  0  0  0
   35.0220   18.5410   31.2370 H   0  0  0  0  0  0  0  0  0  0  0  0
   37.6610   26.6020   32.2580 N   0  0  0  0  0  0  0  0  0  0  0  0
   36.6190   27.5350   32.6130 C   0  0  0  0  0  3  0  0  0  0  0  0
   35.9610   27.1040   33.4160 H   0  0  0  0  0  0  0  0  0  0  0  0
   35.7990   27.8360   31.4010 C   0  0  0  0  0  3  0  0  0  0  0  0
   35.4180   28.8800   31.4870 H   0  0  0  0  0  0  0  0  0  0  0  0
   36.4720   27.6310   30.1550 N   0  0  0  0  0  0  0  0  0  0  0  0
   36.1790   26.8120   29.6060 H   0  0  0  0  0  0  0  0  0  0  0  0
   37.8970   27.8190   30.2190 C   0  0  0  0  0  2  0  0  0  0  0  0
   38.5800   26.9240   31.2080 C   0  0  0  0  0  2  0  0  0  0  0  0
  1  2  1  0  0  0  0
  2  3  2  0  0  0  0
  2  8  1  0  0  0  0
  3  4  1  0  0  0  0
  4  9  1  0  0  0  0
  4  5  2  0  0  0  0
  5 10  1  0  0  0  0
  6  5  1  0  0  0  0
  6  7  1  0  0  0  0
  8  6  2  0  0  0  0
 11 17  1  0  0  0  0
 12 11  1  0  0  0  0
 12  3  1  0  0  0  0
 13 12  2  0  0  0  0
 14 15  2  0  0  0  0
 14 13  1  0  0  0  0
 15 16  1  0  0  0  0
 16 11  2  0  0  0  0
 18 13  1  0  0  0  0
 19 15  1  0  0  0  0
 20 21  1  0  0  0  0
 20  8  1  0  0  0  0
 21 22  1  0  0  0  0
 23 24  1  0  0  0  0
 23 21  1  0  0  0  0
 25 27  1  0  0  0  0
 25 23  1  0  0  0  0
 26 25  1  0  0  0  0
 27 28  1  0  0  0  0
 28 20  1  0  0  0  0
M  END
>  <minimizedAffinity>
-4.73762417

$$$$

 OpenBabel03272508153D

 28 30  0  0  0  0  0  0  0  0999 V2000
   38.3500   26.8250   33.3020 Cl  0  0  0  0  0  0  0  0  0  0  0  0
   37.2860   25.6870   32.5160 C   0  0  0  0  0  0  0  0  0  0  0  0
   36.3140   26.2780   31.7530 C   0  0  0  0  0  0  0  0  0  0  0  0
   35.4000   25.4540   31.0740 C   0  0  0  0  0  0  0  0  0  0  0  0
   35.4640   24.0980   31.1620 C   0  0  0  0  0  0  0  0  0  0  0  0
   36.4500   23.5240   31.9360 C   0  0  0  0  0  0  0  0  0  0  0  0
   36.5640   21.7880   32.0730 Cl  0  0  0  0  0  0  0  0  0  0  0  0
   37.3360   24.3130   32.5940 C   0  0  0  0  0  0  0  0  0  0  0  0
   34.6000   25.8280   30.4480 H   0  0  0  0  0  0  0  0  0  0  0  0
   34.7670   23.4290   30.6470 H   0  0  0  0  0  0  0  0  0  0  0  0
   36.6720   28.3160   30.3960 C   0  0  0  0  0  0  0  0  0  0  0  0
   36.0550   27.7100   31.5130 C   0  0  0  0  0  0  0  0  0  0  0  0
   35.2370   28.5060   32.3180 C   0  0  0  0  0  0  0  0  0  0  0  0
   35.0760   29.8120   31.9950 N   0  0  0  0  0  0  0  0  0  0  0  0
   35.6900   30.3570   30.9090 C   0  0  0  0  0  0  0  0  0  0  0  0
   36.4840   29.6090   30.1150 N   0  0  0  0  0  0  0  0  0  0  0  0
   37.3030   27.6930   29.7770 H   0  0  0  0  0  0  0  0  0  0  0  0
   34.7720   28.0280   33.1680 H   0  0  0  0  0  0  0  0  0  0  0  0
   35.5730   31.3890   30.6380 H   0  0  0  0  0  0  0  0  0  0  0  0
   38.3900   23.8090   33.4180 N   0  0  0  0  0  0  0  0  0  0  0  0
   38.1870   23.5090   34.8150 C   0  0  0  0  0  3  0  0  0  0  0  0
   37.1410   23.7750   35.1270 H   0  0  0  0  0  0  0  0  0  0  0  0
   39.1670   24.2910   35.6300 C   0  0  0  0  0  3  0  0  0  0  0  0
   39.4130   23.6990   36.5420 H   0  0  0  0  0  0  0  0  0  0  0  0
   40.3520   24.6810   34.9310 N   0  0  0  0  0  0  0  0  0  0  0  0
   40.4330   25.6780   34.6880 H   0  0  0  0  0  0  0  0  0  0  0  0
   40.7330   23.7840   33.8720 C   0  0  0  0  0  2  0  0  0  0  0  0
   39.6770   23.6040   32.8240 C   0  0  0  0  0  2  0  0  0  0  0  0
  2  8  1  0  0  0  0
  2  1  1  0  0  0  0
  3  2  2  0  0  0  0
  4  5  2  0  0  0  0
  4  3  1  0  0  0  0
  5  6  1  0  0  0  0
  6  7  1  0  0  0  0
  6  8  2  0  0  0  0
  8 20  1  0  0  0  0
  9  4  1  0  0  0  0
 10  5  1  0  0  0  0
 11 12  1  0  0  0  0
 12  3  1  0  0  0  0
 12 13  2  0  0  0  0
 13 18  1  0  0  0  0
 14 13  1  0  0  0  0
 15 14  2  0  0  0  0
 16 11  2  0  0  0  0
 16 15  1  0  0  0  0
 17 11  1  0  0  0  0
 19 15  1  0  0  0  0
 20 21  1  0  0  0  0
 21 22  1  0  0  0  0
 21 23  1  0  0  0  0
 23 24  1  0  0  0  0
 25 23  1  0  0  0  0
 26 25  1  0  0  0  0
 27 25  1  0  0  0  0
 28 20  1  0  0  0  0
 28 27  1  0  0  0  0
M  END
>  <minimizedAffinity>
-4.70953608

$$$$
