
 OpenBabel03272503223D

 30 32  0  0  1  0  0  0  0  0999 V2000
   37.4480   30.9900   48.4890 N   0  0  0  0  0  0  0  0  0  0  0  0
   37.8390   32.0530   47.6080 C   0  0  1  0  0  0  0  0  0  0  0  0
   38.5690   33.0150   48.5170 C   0  0  0  0  0  0  0  0  0  0  0  0
   38.4150   32.4430   49.9300 C   0  0  0  0  0  0  0  0  0  0  0  0
   38.3980   30.9690   49.5670 C   0  0  0  0  0  0  0  0  0  0  0  0
   36.8780   32.5950   47.3570 H   0  0  0  0  0  0  0  0  0  0  0  0
   39.6590   33.0430   48.3320 H   0  0  0  0  0  0  0  0  0  0  0  0
   38.1860   34.0350   48.4960 H   0  0  0  0  0  0  0  0  0  0  0  0
   37.4090   32.6580   50.3590 H   0  0  0  0  0  0  0  0  0  0  0  0
   39.2530   32.7150   50.5870 H   0  0  0  0  0  0  0  0  0  0  0  0
   37.9760   30.3920   50.4360 H   0  0  0  0  0  0  0  0  0  0  0  0
   39.3630   30.5300   49.3630 H   0  0  0  0  0  0  0  0  0  0  0  0
   36.3390   30.1130   48.3530 C   0  0  0  0  0  0  0  0  0  0  0  0
   35.5350   30.3100   47.2130 C   0  0  0  0  0  0  0  0  0  0  0  0
   34.4240   29.4510   47.0590 C   0  0  0  0  0  0  0  0  0  0  0  0
   34.2080   28.4930   48.0230 N   0  0  0  0  0  0  0  0  0  0  0  0
   35.0240   28.3570   49.1010 C   0  0  0  0  0  0  0  0  0  0  0  0
   36.0890   29.1710   49.2590 N   0  0  0  0  0  0  0  0  0  0  0  0
   35.6690   31.0350   46.4510 H   0  0  0  0  0  0  0  0  0  0  0  0
   33.7410   29.5080   46.2290 H   0  0  0  0  0  0  0  0  0  0  0  0
   34.7860   27.5790   49.8120 H   0  0  0  0  0  0  0  0  0  0  0  0
   38.4530   31.7160   46.4030 N   0  0  2  0  0  0  0  0  0  0  0  0
   39.7280   31.1320   46.3750 C   0  0  0  0  0  0  0  0  0  0  0  0
   39.5710   30.0110   46.3580 H   0  0  0  0  0  0  0  0  0  0  0  0
   40.6050   31.4530   45.2040 C   0  0  0  0  0  0  0  0  0  0  0  0
   41.3400   30.6200   45.1020 H   0  0  0  0  0  0  0  0  0  0  0  0
   39.8970   31.6760   43.9670 N   0  0  0  0  0  0  0  0  0  0  0  0
   39.3100   30.8390   43.7390 H   0  0  0  0  0  0  0  0  0  0  0  0
   38.9950   32.8020   44.2520 C   0  0  0  0  0  0  0  0  0  0  0  0
   37.9630   32.2500   45.1910 C   0  0  0  0  0  0  0  0  0  0  0  0
  1  5  1  0  0  0  0
  2  6  1  6  0  0  0
  2  1  1  0  0  0  0
  2  3  1  0  0  0  0
  3  4  1  0  0  0  0
  4  9  1  0  0  0  0
  4 10  1  0  0  0  0
  5  4  1  0  0  0  0
  5 11  1  0  0  0  0
  7  3  1  0  0  0  0
  8  3  1  0  0  0  0
 12  5  1  0  0  0  0
 13  1  1  0  0  0  0
 13 18  1  0  0  0  0
 14 13  2  0  0  0  0
 15 14  1  0  0  0  0
 15 16  2  0  0  0  0
 16 17  1  0  0  0  0
 17 18  2  0  0  0  0
 17 21  1  0  0  0  0
 19 14  1  0  0  0  0
 20 15  1  0  0  0  0
 22 30  1  6  0  0  0
 22  2  1  0  0  0  0
 23 22  1  0  0  0  0
 24 23  1  0  0  0  0
 25 23  1  0  0  0  0
 26 25  1  0  0  0  0
 27 29  1  0  0  0  0
 27 25  1  0  0  0  0
 28 27  1  0  0  0  0
 29 30  1  0  0  0  0
M  END
>  <minimizedAffinity>
-5.17885542

>  <minimizedRMSD>
2.07831907

$$$$
