
 OpenBabel03272510323D

 28 30  0  0  0  0  0  0  0  0999 V2000
   32.6730   28.2360   46.5530 C   0  0  0  0  0  0  0  0  0  0  0  0
   31.7440   27.3730   46.0200 C   0  0  0  0  0  0  0  0  0  0  0  0
   30.9690   26.5520   46.8220 C   0  0  0  0  0  0  0  0  0  0  0  0
   31.1570   26.6280   48.1850 C   0  0  0  0  0  0  0  0  0  0  0  0
   32.0850   27.4900   48.7460 C   0  0  0  0  0  0  0  0  0  0  0  0
   32.8580   28.3090   47.9240 C   0  0  0  0  0  0  0  0  0  0  0  0
   31.5250   27.2430   44.9530 H   0  0  0  0  0  0  0  0  0  0  0  0
   30.2310   25.8630   46.4330 H   0  0  0  0  0  0  0  0  0  0  0  0
   30.6210   26.0480   48.9050 H   0  0  0  0  0  0  0  0  0  0  0  0
   32.2890   27.6050   49.7990 H   0  0  0  0  0  0  0  0  0  0  0  0
   35.4300   29.3750   44.4660 C   0  0  0  0  0  0  0  0  0  0  0  0
   34.9460   30.5270   43.8410 C   0  0  0  0  0  0  0  0  0  0  0  0
   33.6220   30.9160   44.1580 C   0  0  0  0  0  0  0  0  0  0  0  0
   32.9400   30.1480   45.0300 N   0  0  0  0  0  0  0  0  0  0  0  0
   33.4270   29.0470   45.6160 C   0  0  0  0  0  0  0  0  0  0  0  0
   34.6970   28.6520   45.3280 N   0  0  0  0  0  0  0  0  0  0  0  0
   36.4420   29.0730   44.2270 H   0  0  0  0  0  0  0  0  0  0  0  0
   35.5870   31.0600   43.1590 H   0  0  0  0  0  0  0  0  0  0  0  0
   33.2360   31.8010   43.6840 H   0  0  0  0  0  0  0  0  0  0  0  0
   33.8210   29.2070   48.4640 N   0  0  0  0  0  0  0  0  0  0  0  0
   34.2440   30.5290   48.0600 C   0  0  0  0  0  3  0  0  0  0  0  0
   33.7880   31.3300   48.6560 H   0  0  0  0  0  0  0  0  0  0  0  0
   35.7400   30.7110   48.1670 C   0  0  0  0  0  3  0  0  0  0  0  0
   36.1710   31.2910   47.3400 H   0  0  0  0  0  0  0  0  0  0  0  0
   36.3390   29.3760   48.1410 N   0  0  0  0  0  0  0  0  0  0  0  0
   37.3600   29.4240   48.0210 H   0  0  0  0  0  0  0  0  0  0  0  0
   36.0450   28.8270   49.4740 C   0  0  0  0  0  2  0  0  0  0  0  0
   34.5480   28.7540   49.6540 C   0  0  0  0  0  2  0  0  0  0  0  0
  1  6  1  0  0  0  0
  2  1  2  0  0  0  0
  2  3  1  0  0  0  0
  3  4  2  0  0  0  0
  4  5  1  0  0  0  0
  4  9  1  0  0  0  0
  5 10  1  0  0  0  0
  6 20  1  0  0  0  0
  6  5  2  0  0  0  0
  7  2  1  0  0  0  0
  8  3  1  0  0  0  0
 11 16  1  0  0  0  0
 12 13  1  0  0  0  0
 12 11  2  0  0  0  0
 13 14  2  0  0  0  0
 14 15  1  0  0  0  0
 15  1  1  0  0  0  0
 16 15  2  0  0  0  0
 17 11  1  0  0  0  0
 18 12  1  0  0  0  0
 19 13  1  0  0  0  0
 20 28  1  0  0  0  0
 21 23  1  0  0  0  0
 21 20  1  0  0  0  0
 21 22  1  0  0  0  0
 24 23  1  0  0  0  0
 25 23  1  0  0  0  0
 25 27  1  0  0  0  0
 26 25  1  0  0  0  0
 27 28  1  0  0  0  0
M  END
>  <minimizedAffinity>
-2.93662524

>  <minimizedRMSD>
4.90158653

$$$$
