REMARK  Name = 
REMARK  1 active torsions:
REMARK  status: ('A' for Active; 'I' for Inactive)
REMARK    1  A    between atoms: C_2  and  N_22
REMARK                            x       y       z     vdW  Elec       q    Type
REMARK                         _______ _______ _______ _____ _____    ______ ____
ROOT
ATOM      1  C   UNL     1      38.096  33.144  49.489  0.00  0.00    +0.000 A 
ATOM      2  C   UNL     1      38.936  33.066  48.372  0.00  0.00    +0.000 A 
ATOM      3  C   UNL     1      38.704  32.050  47.443  0.00  0.00    +0.000 A 
ATOM      4  N   UNL     1      37.681  31.196  47.671  0.00  0.00    +0.000 NA
ATOM      5  C   UNL     1      36.885  31.281  48.742  0.00  0.00    +0.000 A 
ATOM      6  N   UNL     1      37.100  32.250  49.636  0.00  0.00    +0.000 NA
ATOM      7  N   UNL     1      35.818  30.347  48.925  0.00  0.00    +0.000 N 
ATOM      8  C   UNL     1      34.727  30.203  47.958  0.00  0.00    +0.000 C 
ATOM      9  C   UNL     1      34.036  28.949  48.339  0.00  0.00    +0.000 C 
ATOM     10  C   UNL     1      34.870  28.316  49.432  0.00  0.00    +0.000 C 
ATOM     11  C   UNL     1      35.648  29.439  50.033  0.00  0.00    +0.000 C 
ATOM     12  H   UNL     1      38.321  33.937  50.161  0.00  0.00    +0.000 HD
ATOM     13  H   UNL     1      39.230  31.829  46.537  0.00  0.00    +0.000 HD
ATOM     14  H   UNL     1      35.144  30.229  46.932  0.00  0.00    +0.000 HD
ATOM     15  H   UNL     1      34.047  31.065  48.072  0.00  0.00    +0.000 HD
ATOM     16  H   UNL     1      34.016  28.275  47.455  0.00  0.00    +0.000 HD
ATOM     17  H   UNL     1      32.991  29.134  48.669  0.00  0.00    +0.000 HD
ATOM     18  H   UNL     1      35.481  27.461  49.085  0.00  0.00    +0.000 HD
ATOM     19  H   UNL     1      34.153  27.924  50.197  0.00  0.00    +0.000 HD
ATOM     20  H   UNL     1      36.670  29.078  50.349  0.00  0.00    +0.000 HD
ATOM     21  H   UNL     1      35.145  29.916  50.903  0.00  0.00    +0.000 HD
ENDROOT
BRANCH   2  22
ATOM     22  N   UNL     1      40.030  33.921  48.060  0.00  0.00    +0.000 N 
ATOM     23  C   UNL     1      40.475  34.240  46.719  0.00  0.00    +0.000 C 
ATOM     24  H   UNL     1      41.072  33.377  46.360  0.00  0.00    +0.000 HD
ATOM     25  C   UNL     1      41.226  35.531  46.679  0.00  0.00    +0.000 C 
ATOM     26  H   UNL     1      41.249  35.954  45.649  0.00  0.00    +0.000 HD
ATOM     27  N   UNL     1      40.517  36.508  47.502  0.00  0.00    +0.000 NA
ATOM     28  H   UNL     1      39.504  36.507  47.317  0.00  0.00    +0.000 HD
ATOM     29  C   UNL     1      40.777  36.118  48.879  0.00  0.00    +0.000 C 
ATOM     30  C   UNL     1      40.870  34.606  49.007  0.00  0.00    +0.000 C 
ENDBRANCH   2  22
TORSDOF 1
