
 OpenBabel03262520483D

 48 52  0  0  1  0  0  0  0  0999 V2000
   40.3230   31.0480   43.8220 C   0  0  0  0  0  0  0  0  0  0  0  0
   41.3530   31.3410   44.0560 H   0  0  0  0  0  0  0  0  0  0  0  0
   39.7930   31.8580   43.2560 H   0  0  0  0  0  0  0  0  0  0  0  0
   39.4700   28.7780   43.3140 C   0  0  0  0  0  0  0  0  0  0  0  0
   40.2560   29.8490   42.9300 C   0  0  0  0  0  0  0  0  0  0  0  0
   40.9500   29.7670   41.7290 C   0  0  0  0  0  0  0  0  0  0  0  0
   40.8670   28.6450   40.9250 C   0  0  0  0  0  0  0  0  0  0  0  0
   41.4410   28.3590   39.7430 N   0  0  0  0  0  0  0  0  0  0  0  0
   41.0120   27.1280   39.4050 C   0  0  0  0  0  0  0  0  0  0  0  0
   40.1650   26.5970   40.3480 C   0  0  0  0  0  0  0  0  0  0  0  0
   40.0800   27.5880   41.3240 C   0  0  0  0  0  0  0  0  0  0  0  0
   39.3960   27.6690   42.5080 C   0  0  0  0  0  0  0  0  0  0  0  0
   38.8710   28.6920   44.2070 H   0  0  0  0  0  0  0  0  0  0  0  0
   41.5610   30.6000   41.4310 H   0  0  0  0  0  0  0  0  0  0  0  0
   42.0850   28.9940   39.2220 H   0  0  0  0  0  0  0  0  0  0  0  0
   41.3400   26.6670   38.4800 H   0  0  0  0  0  0  0  0  0  0  0  0
   39.6930   25.6410   40.3160 H   0  0  0  0  0  0  0  0  0  0  0  0
   38.5950   26.5180   42.8520 N   0  0  0  0  0  0  0  0  0  0  0  0
   38.9980   25.2950   43.4900 C   0  0  0  0  0  3  0  0  0  0  0  0
   40.0830   25.0800   43.4070 H   0  0  0  0  0  0  0  0  0  0  0  0
   38.2570   24.1730   42.8140 C   0  0  0  0  0  3  0  0  0  0  0  0
   38.5670   23.2340   43.3290 H   0  0  0  0  0  0  0  0  0  0  0  0
   36.8360   24.2980   42.9000 N   0  0  0  0  0  0  0  0  0  0  0  0
   36.4280   23.7820   43.7210 H   0  0  0  0  0  0  0  0  0  0  0  0
   36.2930   25.6030   42.7820 C   0  0  0  0  0  2  0  0  0  0  0  0
   37.2210   26.7130   42.4660 C   0  0  0  0  0  2  0  0  0  0  0  0
   39.5260   30.7160   45.0800 C   0  0  0  0  0  0  0  0  0  0  0  0
   39.7200   29.6440   45.3170 H   0  0  0  0  0  0  0  0  0  0  0  0
   38.4540   30.8290   44.7910 H   0  0  0  0  0  0  0  0  0  0  0  0
   38.7670   32.2480   46.9390 C   0  0  1  0  0  0  0  0  0  0  0  0
   39.8780   33.0140   46.2550 C   0  0  0  0  0  0  0  0  0  0  0  0
   39.8690   31.5380   46.2650 C   0  0  2  0  0  0  0  0  0  0  0  0
   37.7600   32.3630   46.4650 H   0  0  0  0  0  0  0  0  0  0  0  0
   39.6490   33.5100   45.2780 H   0  0  0  0  0  0  0  0  0  0  0  0
   40.6190   33.5780   46.8470 H   0  0  0  0  0  0  0  0  0  0  0  0
   40.6340   31.0770   46.9470 H   0  0  0  0  0  0  0  0  0  0  0  0
   38.7040   32.4000   48.4300 C   0  0  0  0  0  0  0  0  0  0  0  0
   39.7200   32.5250   48.8780 H   0  0  0  0  0  0  0  0  0  0  0  0
   38.1440   33.3440   48.6920 H   0  0  0  0  0  0  0  0  0  0  0  0
   37.4370   30.0270   51.0320 C   0  0  0  0  0  0  0  0  0  0  0  0
   38.1490   31.0910   50.3940 C   0  0  0  0  0  0  0  0  0  0  0  0
   37.9580   31.2970   49.0600 C   0  0  0  0  0  0  0  0  0  0  0  0
   37.1090   30.4860   48.4120 N   0  0  0  0  0  0  0  0  0  0  0  0
   36.4420   29.4890   49.0060 C   0  0  0  0  0  0  0  0  0  0  0  0
   36.6180   29.2750   50.3110 N   0  0  0  0  0  0  0  0  0  0  0  0
   37.5830   29.8550   52.0970 H   0  0  0  0  0  0  0  0  0  0  0  0
   38.7850   31.6460   51.0400 H   0  0  0  0  0  0  0  0  0  0  0  0
   35.8100   28.9550   48.3130 H   0  0  0  0  0  0  0  0  0  0  0  0
  1  2  1  0  0  0  0
  1 27  1  0  0  0  0
  3  1  1  0  0  0  0
  4 13  1  0  0  0  0
  5  4  1  0  0  0  0
  5  1  1  0  0  0  0
  6  5  2  0  0  0  0
  7 11  2  0  0  0  0
  7  6  1  0  0  0  0
  8  7  1  0  0  0  0
  9  8  1  0  0  0  0
  9 10  2  0  0  0  0
 10 11  1  0  0  0  0
 11 12  1  0  0  0  0
 12 18  1  0  0  0  0
 12  4  2  0  0  0  0
 14  6  1  0  0  0  0
 15  8  1  0  0  0  0
 16  9  1  0  0  0  0
 17 10  1  0  0  0  0
 18 19  1  0  0  0  0
 20 19  1  0  0  0  0
 21 23  1  0  0  0  0
 21 22  1  0  0  0  0
 21 19  1  0  0  0  0
 23 24  1  0  0  0  0
 25 23  1  0  0  0  0
 26 25  1  0  0  0  0
 26 18  1  0  0  0  0
 27 28  1  0  0  0  0
 27 32  1  0  0  0  0
 29 27  1  0  0  0  0
 30 33  1  6  0  0  0
 30 37  1  0  0  0  0
 31 32  1  0  0  0  0
 31 35  1  0  0  0  0
 31 30  1  0  0  0  0
 32 30  1  0  0  0  0
 32 36  1  1  0  0  0
 34 31  1  0  0  0  0
 37 39  1  0  0  0  0
 37 38  1  0  0  0  0
 37 42  1  0  0  0  0
 40 46  1  0  0  0  0
 41 40  1  0  0  0  0
 41 47  1  0  0  0  0
 42 41  2  0  0  0  0
 43 44  2  0  0  0  0
 43 42  1  0  0  0  0
 44 45  1  0  0  0  0
 45 40  2  0  0  0  0
 48 44  1  0  0  0  0
M  END
>  <minimizedAffinity>
-5.930408

>  <minimizedRMSD>
0.241226688

$$$$
