
 OpenBabel03272503533D

 44 47  0  0  1  0  0  0  0  0999 V2000
   36.8860   30.6070   46.3280 C   0  0  1  0  0  0  0  0  0  0  0  0
   35.3420   30.5720   46.3670 C   0  0  0  0  0  0  0  0  0  0  0  0
   34.9760   29.4150   45.4270 C   0  0  0  0  0  0  0  0  0  0  0  0
   35.2800   29.8580   44.0400 C   0  0  0  0  0  0  0  0  0  0  0  0
   36.7410   30.2210   43.9040 C   0  0  0  0  0  0  0  0  0  0  0  0
   37.2030   31.1700   44.9730 C   0  0  2  0  0  0  0  0  0  0  0  0
   37.1340   29.5500   46.4970 H   0  0  0  0  0  0  0  0  0  0  0  0
   34.9790   31.4940   45.8690 H   0  0  0  0  0  0  0  0  0  0  0  0
   34.9850   30.4340   47.3850 H   0  0  0  0  0  0  0  0  0  0  0  0
   35.6530   28.5710   45.7130 H   0  0  0  0  0  0  0  0  0  0  0  0
   33.9210   29.2030   45.5920 H   0  0  0  0  0  0  0  0  0  0  0  0
   35.0630   29.1140   43.2650 H   0  0  0  0  0  0  0  0  0  0  0  0
   34.6830   30.7940   43.8670 H   0  0  0  0  0  0  0  0  0  0  0  0
   37.3150   29.3050   43.7980 H   0  0  0  0  0  0  0  0  0  0  0  0
   36.8070   30.7690   42.9240 H   0  0  0  0  0  0  0  0  0  0  0  0
   36.6150   32.1050   44.8440 H   0  0  0  0  0  0  0  0  0  0  0  0
   37.1130   31.2550   48.7420 C   0  0  0  0  0  0  0  0  0  0  0  0
   37.7340   32.0140   49.7290 C   0  0  0  0  0  0  0  0  0  0  0  0
   38.7220   32.9470   49.3770 C   0  0  0  0  0  0  0  0  0  0  0  0
   39.0400   33.0710   48.0460 C   0  0  0  0  0  0  0  0  0  0  0  0
   38.4360   32.3310   47.0640 C   0  0  0  0  0  0  0  0  0  0  0  0
   37.4430   31.3940   47.4260 C   0  0  0  0  0  0  0  0  0  0  0  0
   37.4780   31.9100   50.7790 H   0  0  0  0  0  0  0  0  0  0  0  0
   39.1970   33.5280   50.1470 H   0  0  0  0  0  0  0  0  0  0  0  0
   39.8160   33.8130   47.8260 H   0  0  0  0  0  0  0  0  0  0  0  0
   38.7820   32.5340   46.0660 H   0  0  0  0  0  0  0  0  0  0  0  0
   35.2020   28.1820   49.8190 C   0  0  0  0  0  0  0  0  0  0  0  0
   36.2680   28.9640   49.3360 C   0  0  0  0  0  0  0  0  0  0  0  0
   36.0940   30.3420   49.2180 C   0  0  0  0  0  0  0  0  0  0  0  0
   34.8920   30.8290   49.5840 N   0  0  0  0  0  0  0  0  0  0  0  0
   33.8780   30.0760   50.0450 C   0  0  0  0  0  0  0  0  0  0  0  0
   34.0360   28.7670   50.1600 N   0  0  0  0  0  0  0  0  0  0  0  0
   35.4850   27.1220   49.8580 H   0  0  0  0  0  0  0  0  0  0  0  0
   37.2330   28.5810   49.0410 H   0  0  0  0  0  0  0  0  0  0  0  0
   32.9430   30.5090   50.3230 H   0  0  0  0  0  0  0  0  0  0  0  0
   38.5700   31.4740   44.8330 N   0  0  2  0  0  0  0  0  0  0  0  0
   38.8820   32.7360   44.2440 C   0  0  0  0  0  0  0  0  0  0  0  0
   37.9990   33.3950   44.3000 H   0  0  0  0  0  0  0  0  0  0  0  0
   39.3850   32.6850   42.8550 C   0  0  0  0  0  0  0  0  0  0  0  0
   38.5430   32.7810   42.1380 H   0  0  0  0  0  0  0  0  0  0  0  0
   40.2530   31.6110   42.5710 N   0  0  0  0  0  0  0  0  0  0  0  0
   40.2900   31.2980   41.6030 H   0  0  0  0  0  0  0  0  0  0  0  0
   40.5560   30.6930   43.6000 C   0  0  0  0  0  0  0  0  0  0  0  0
   39.4980   30.4430   44.6190 C   0  0  0  0  0  0  0  0  0  0  0  0
  1  2  1  0  0  0  0
  1  7  1  1  0  0  0
  1 22  1  0  0  0  0
  2  9  1  0  0  0  0
  3 11  1  0  0  0  0
  3 10  1  0  0  0  0
  3  2  1  0  0  0  0
  4  3  1  0  0  0  0
  5  4  1  0  0  0  0
  5  6  1  0  0  0  0
  6 16  1  6  0  0  0
  6  1  1  0  0  0  0
  8  2  1  0  0  0  0
 12  4  1  0  0  0  0
 13  4  1  0  0  0  0
 14  5  1  0  0  0  0
 15  5  1  0  0  0  0
 17 29  1  0  0  0  0
 17 18  1  0  0  0  0
 18 23  1  0  0  0  0
 19 18  2  0  0  0  0
 19 24  1  0  0  0  0
 20 19  1  0  0  0  0
 21 22  1  0  0  0  0
 21 20  2  0  0  0  0
 22 17  2  0  0  0  0
 25 20  1  0  0  0  0
 26 21  1  0  0  0  0
 27 33  1  0  0  0  0
 27 32  1  0  0  0  0
 28 27  2  0  0  0  0
 29 28  1  0  0  0  0
 29 30  2  0  0  0  0
 30 31  1  0  0  0  0
 31 32  2  0  0  0  0
 31 35  1  0  0  0  0
 34 28  1  0  0  0  0
 36 44  1  6  0  0  0
 36  6  1  0  0  0  0
 37 38  1  0  0  0  0
 37 36  1  0  0  0  0
 39 37  1  0  0  0  0
 40 39  1  0  0  0  0
 41 39  1  0  0  0  0
 41 43  1  0  0  0  0
 42 41  1  0  0  0  0
 43 44  1  0  0  0  0
M  END
>  <minimizedAffinity>
-5.97572565

>  <minimizedRMSD>
2.61363816

$$$$
