
 OpenBabel03272501073D

 40 43  0  0  1  0  0  0  0  0999 V2000
   38.9570   32.4970   47.7240 C   0  0  2  0  0  0  0  0  0  0  0  0
   37.9890   32.6650   48.9430 C   0  0  2  0  0  0  0  0  0  0  0  0
   38.8650   33.3390   49.8890 C   0  0  0  0  0  0  0  0  0  0  0  0
   39.6560   34.2250   49.1740 O   0  0  0  0  0  0  0  0  0  0  0  0
   39.5880   33.9090   47.8550 C   0  0  0  0  0  0  0  0  0  0  0  0
   39.7430   31.7800   47.9470 H   0  0  0  0  0  0  0  0  0  0  0  0
   37.2000   33.3650   48.5590 H   0  0  0  0  0  0  0  0  0  0  0  0
   39.5640   32.6290   50.3730 H   0  0  0  0  0  0  0  0  0  0  0  0
   38.3420   33.8490   50.7430 H   0  0  0  0  0  0  0  0  0  0  0  0
   40.5330   33.9640   47.3010 H   0  0  0  0  0  0  0  0  0  0  0  0
   38.8510   34.5870   47.3630 H   0  0  0  0  0  0  0  0  0  0  0  0
   37.3490   29.3640   50.6320 C   0  0  0  0  0  0  0  0  0  0  0  0
   37.9880   30.5860   50.2920 C   0  0  0  0  0  0  0  0  0  0  0  0
   37.3760   31.4200   49.3290 C   0  0  0  0  0  0  0  0  0  0  0  0
   36.1910   31.0160   48.7600 N   0  0  0  0  0  0  0  0  0  0  0  0
   35.6190   29.8560   49.1070 C   0  0  0  0  0  0  0  0  0  0  0  0
   36.1770   29.0260   50.0300 N   0  0  0  0  0  0  0  0  0  0  0  0
   37.8370   28.7440   51.3710 H   0  0  0  0  0  0  0  0  0  0  0  0
   38.9130   30.8110   50.7920 H   0  0  0  0  0  0  0  0  0  0  0  0
   34.6910   29.6140   48.6130 H   0  0  0  0  0  0  0  0  0  0  0  0
   38.2860   32.4260   46.5460 O   0  0  0  0  0  0  0  0  0  0  0  0
   40.7040   32.4280   44.6340 Cl  0  0  0  0  0  0  0  0  0  0  0  0
   39.2560   31.4730   44.4360 C   0  0  0  0  0  0  0  0  0  0  0  0
   38.3140   31.6600   45.4380 C   0  0  0  0  0  0  0  0  0  0  0  0
   37.1550   30.9160   45.2910 C   0  0  0  0  0  0  0  0  0  0  0  0
   36.9380   30.0510   44.2330 C   0  0  0  0  0  0  0  0  0  0  0  0
   37.9280   29.9200   43.2730 C   0  0  0  0  0  0  0  0  0  0  0  0
   39.1060   30.6380   43.3700 C   0  0  0  0  0  0  0  0  0  0  0  0
   36.3190   30.9620   46.0090 H   0  0  0  0  0  0  0  0  0  0  0  0
   36.0020   29.4870   44.1640 H   0  0  0  0  0  0  0  0  0  0  0  0
   37.6580   29.2180   42.4970 H   0  0  0  0  0  0  0  0  0  0  0  0
   40.0890   30.4430   42.3650 N   0  0  0  0  0  0  0  0  0  0  0  0
   40.1880   31.2120   41.1460 C   0  0  0  0  0  0  0  0  0  0  0  0
   39.5320   32.1070   41.1200 H   0  0  0  0  0  0  0  0  0  0  0  0
   39.8490   30.2560   40.0240 C   0  0  0  0  0  0  0  0  0  0  0  0
   39.6470   30.7930   39.0760 H   0  0  0  0  0  0  0  0  0  0  0  0
   40.9070   29.3060   39.9000 N   0  0  0  0  0  0  0  0  0  0  0  0
   41.4290   29.4150   39.0230 H   0  0  0  0  0  0  0  0  0  0  0  0
   41.7750   29.2470   41.0220 C   0  0  0  0  0  0  0  0  0  0  0  0
   41.1220   29.4580   42.3670 C   0  0  0  0  0  0  0  0  0  0  0  0
  1  5  1  0  0  0  0
  1  6  1  1  0  0  0
  1  2  1  0  0  0  0
  2  7  1  6  0  0  0
  2 14  1  0  0  0  0
  2  3  1  0  0  0  0
  3  8  1  0  0  0  0
  3  9  1  0  0  0  0
  4  3  1  0  0  0  0
  5  4  1  0  0  0  0
 10  5  1  0  0  0  0
 11  5  1  0  0  0  0
 12 18  1  0  0  0  0
 13 12  1  0  0  0  0
 13 19  1  0  0  0  0
 14 13  2  0  0  0  0
 15 16  2  0  0  0  0
 15 14  1  0  0  0  0
 16 17  1  0  0  0  0
 17 12  2  0  0  0  0
 20 16  1  0  0  0  0
 21  1  1  0  0  0  0
 23 22  1  0  0  0  0
 23 24  1  0  0  0  0
 24 21  1  0  0  0  0
 25 24  2  0  0  0  0
 25 29  1  0  0  0  0
 26 25  1  0  0  0  0
 27 28  1  0  0  0  0
 27 26  2  0  0  0  0
 28 23  2  0  0  0  0
 30 26  1  0  0  0  0
 31 27  1  0  0  0  0
 32 40  1  0  0  0  0
 32 28  1  0  0  0  0
 33 32  1  0  0  0  0
 34 33  1  0  0  0  0
 35 33  1  0  0  0  0
 36 35  1  0  0  0  0
 37 35  1  0  0  0  0
 37 39  1  0  0  0  0
 38 37  1  0  0  0  0
 39 40  1  0  0  0  0
M  END
>  <minimizedAffinity>
-6.13670778

>  <minimizedRMSD>
1.03018928

$$$$
