
 OpenBabel03262520483D

 48 52  0  0  1  0  0  0  0  0999 V2000
   40.3190   31.0490   43.8220 C   0  0  0  0  0  0  0  0  0  0  0  0
   41.3490   31.3440   44.0540 H   0  0  0  0  0  0  0  0  0  0  0  0
   39.7870   31.8590   43.2560 H   0  0  0  0  0  0  0  0  0  0  0  0
   39.4690   28.7780   43.3140 C   0  0  0  0  0  0  0  0  0  0  0  0
   40.2540   29.8500   42.9290 C   0  0  0  0  0  0  0  0  0  0  0  0
   40.9490   29.7690   41.7280 C   0  0  0  0  0  0  0  0  0  0  0  0
   40.8670   28.6470   40.9240 C   0  0  0  0  0  0  0  0  0  0  0  0
   41.4410   28.3630   39.7420 N   0  0  0  0  0  0  0  0  0  0  0  0
   41.0140   27.1300   39.4040 C   0  0  0  0  0  0  0  0  0  0  0  0
   40.1670   26.5990   40.3470 C   0  0  0  0  0  0  0  0  0  0  0  0
   40.0810   27.5900   41.3230 C   0  0  0  0  0  0  0  0  0  0  0  0
   39.3970   27.6690   42.5070 C   0  0  0  0  0  0  0  0  0  0  0  0
   38.8700   28.6920   44.2060 H   0  0  0  0  0  0  0  0  0  0  0  0
   41.5580   30.6040   41.4300 H   0  0  0  0  0  0  0  0  0  0  0  0
   42.0850   28.9980   39.2210 H   0  0  0  0  0  0  0  0  0  0  0  0
   41.3420   26.6700   38.4790 H   0  0  0  0  0  0  0  0  0  0  0  0
   39.6960   25.6410   40.3140 H   0  0  0  0  0  0  0  0  0  0  0  0
   38.5970   26.5170   42.8510 N   0  0  0  0  0  0  0  0  0  0  0  0
   39.0000   25.2970   43.4920 C   0  0  0  0  0  3  0  0  0  0  0  0
   40.0870   25.0840   43.4130 H   0  0  0  0  0  0  0  0  0  0  0  0
   38.2640   24.1720   42.8170 C   0  0  0  0  0  3  0  0  0  0  0  0
   38.5740   23.2340   43.3330 H   0  0  0  0  0  0  0  0  0  0  0  0
   36.8420   24.2950   42.8980 N   0  0  0  0  0  0  0  0  0  0  0  0
   36.4330   23.7800   43.7190 H   0  0  0  0  0  0  0  0  0  0  0  0
   36.2980   25.5970   42.7750 C   0  0  0  0  0  2  0  0  0  0  0  0
   37.2240   26.7090   42.4610 C   0  0  0  0  0  2  0  0  0  0  0  0
   39.5250   30.7160   45.0800 C   0  0  0  0  0  0  0  0  0  0  0  0
   39.7200   29.6440   45.3160 H   0  0  0  0  0  0  0  0  0  0  0  0
   38.4520   30.8280   44.7920 H   0  0  0  0  0  0  0  0  0  0  0  0
   38.7670   32.2480   46.9390 C   0  0  1  0  0  0  0  0  0  0  0  0
   39.8780   33.0140   46.2550 C   0  0  0  0  0  0  0  0  0  0  0  0
   39.8680   31.5370   46.2650 C   0  0  2  0  0  0  0  0  0  0  0  0
   37.7600   32.3630   46.4650 H   0  0  0  0  0  0  0  0  0  0  0  0
   39.6500   33.5100   45.2780 H   0  0  0  0  0  0  0  0  0  0  0  0
   40.6200   33.5770   46.8480 H   0  0  0  0  0  0  0  0  0  0  0  0
   40.6320   31.0760   46.9470 H   0  0  0  0  0  0  0  0  0  0  0  0
   38.7040   32.3990   48.4310 C   0  0  0  0  0  0  0  0  0  0  0  0
   39.7200   32.5240   48.8790 H   0  0  0  0  0  0  0  0  0  0  0  0
   38.1440   33.3440   48.6930 H   0  0  0  0  0  0  0  0  0  0  0  0
   37.4370   30.0270   51.0320 C   0  0  0  0  0  0  0  0  0  0  0  0
   38.1480   31.0900   50.3950 C   0  0  0  0  0  0  0  0  0  0  0  0
   37.9580   31.2970   49.0600 C   0  0  0  0  0  0  0  0  0  0  0  0
   37.1090   30.4860   48.4120 N   0  0  0  0  0  0  0  0  0  0  0  0
   36.4410   29.4890   49.0060 C   0  0  0  0  0  0  0  0  0  0  0  0
   36.6170   29.2750   50.3110 N   0  0  0  0  0  0  0  0  0  0  0  0
   37.5830   29.8540   52.0970 H   0  0  0  0  0  0  0  0  0  0  0  0
   38.7850   31.6450   51.0400 H   0  0  0  0  0  0  0  0  0  0  0  0
   35.8100   28.9550   48.3130 H   0  0  0  0  0  0  0  0  0  0  0  0
  1  2  1  0  0  0  0
  1 27  1  0  0  0  0
  3  1  1  0  0  0  0
  4 13  1  0  0  0  0
  5  4  1  0  0  0  0
  5  1  1  0  0  0  0
  6  5  2  0  0  0  0
  7 11  2  0  0  0  0
  7  6  1  0  0  0  0
  8  7  1  0  0  0  0
  9  8  1  0  0  0  0
  9 10  2  0  0  0  0
 10 11  1  0  0  0  0
 11 12  1  0  0  0  0
 12 18  1  0  0  0  0
 12  4  2  0  0  0  0
 14  6  1  0  0  0  0
 15  8  1  0  0  0  0
 16  9  1  0  0  0  0
 17 10  1  0  0  0  0
 18 19  1  0  0  0  0
 20 19  1  0  0  0  0
 21 23  1  0  0  0  0
 21 22  1  0  0  0  0
 21 19  1  0  0  0  0
 23 24  1  0  0  0  0
 25 23  1  0  0  0  0
 26 25  1  0  0  0  0
 26 18  1  0  0  0  0
 27 28  1  0  0  0  0
 27 32  1  0  0  0  0
 29 27  1  0  0  0  0
 30 33  1  6  0  0  0
 30 37  1  0  0  0  0
 31 32  1  0  0  0  0
 31 35  1  0  0  0  0
 31 30  1  0  0  0  0
 32 30  1  0  0  0  0
 32 36  1  1  0  0  0
 34 31  1  0  0  0  0
 37 39  1  0  0  0  0
 37 38  1  0  0  0  0
 37 42  1  0  0  0  0
 40 46  1  0  0  0  0
 41 40  1  0  0  0  0
 41 47  1  0  0  0  0
 42 41  2  0  0  0  0
 43 44  2  0  0  0  0
 43 42  1  0  0  0  0
 44 45  1  0  0  0  0
 45 40  2  0  0  0  0
 48 44  1  0  0  0  0
M  END
>  <minimizedAffinity>
-5.92783833

>  <minimizedRMSD>
0.291667074

$$$$
