
 OpenBabel03262520523D

 48 52  0  0  1  0  0  0  0  0999 V2000
   37.0240   23.5770   31.3910 C   0  0  0  0  0  0  0  0  0  0  0  0
   36.9200   24.1910   30.4890 H   0  0  0  0  0  0  0  0  0  0  0  0
   37.8750   22.8540   31.2890 H   0  0  0  0  0  0  0  0  0  0  0  0
   38.0220   23.7820   33.6500 C   0  0  0  0  0  0  0  0  0  0  0  0
   37.3550   24.3910   32.6030 C   0  0  0  0  0  0  0  0  0  0  0  0
   37.0190   25.7340   32.7200 C   0  0  0  0  0  0  0  0  0  0  0  0
   37.3390   26.4600   33.8530 C   0  0  0  0  0  0  0  0  0  0  0  0
   37.1170   27.7480   34.1700 N   0  0  0  0  0  0  0  0  0  0  0  0
   37.6430   27.9280   35.3970 C   0  0  0  0  0  0  0  0  0  0  0  0
   38.2070   26.7780   35.8930 C   0  0  0  0  0  0  0  0  0  0  0  0
   38.0030   25.8380   34.8850 C   0  0  0  0  0  0  0  0  0  0  0  0
   38.3340   24.5130   34.7700 C   0  0  0  0  0  0  0  0  0  0  0  0
   38.3540   22.7580   33.7080 H   0  0  0  0  0  0  0  0  0  0  0  0
   36.4990   26.2070   31.9050 H   0  0  0  0  0  0  0  0  0  0  0  0
   36.6300   28.4400   33.5580 H   0  0  0  0  0  0  0  0  0  0  0  0
   37.5900   28.8970   35.8800 H   0  0  0  0  0  0  0  0  0  0  0  0
   38.6860   26.6580   36.8400 H   0  0  0  0  0  0  0  0  0  0  0  0
   39.0290   23.9370   35.8970 N   0  0  0  0  0  0  0  0  0  0  0  0
   40.3930   23.4910   35.9850 C   0  0  0  0  0  3  0  0  0  0  0  0
   40.8550   23.2590   35.0030 H   0  0  0  0  0  0  0  0  0  0  0  0
   40.3980   22.2280   36.8020 C   0  0  0  0  0  3  0  0  0  0  0  0
   41.4610   21.9020   36.8760 H   0  0  0  0  0  0  0  0  0  0  0  0
   39.8760   22.4040   38.1230 N   0  0  0  0  0  0  0  0  0  0  0  0
   40.6260   22.6090   38.8340 H   0  0  0  0  0  0  0  0  0  0  0  0
   38.7660   23.2710   38.2680 C   0  0  0  0  0  2  0  0  0  0  0  0
   38.1610   23.8360   37.0400 C   0  0  0  0  0  2  0  0  0  0  0  0
   35.7480   22.8040   31.7050 C   0  0  0  0  0  0  0  0  0  0  0  0
   35.0870   22.8870   30.8110 H   0  0  0  0  0  0  0  0  0  0  0  0
   35.2710   23.3490   32.5540 H   0  0  0  0  0  0  0  0  0  0  0  0
   35.5350   20.3880   30.9980 C   0  0  1  0  0  0  0  0  0  0  0  0
   34.8530   20.4440   32.3480 C   0  0  0  0  0  0  0  0  0  0  0  0
   35.9540   21.3690   32.0160 C   0  0  2  0  0  0  0  0  0  0  0  0
   34.8840   20.6750   30.1340 H   0  0  0  0  0  0  0  0  0  0  0  0
   33.8250   20.8850   32.3990 H   0  0  0  0  0  0  0  0  0  0  0  0
   34.9980   19.6340   33.0850 H   0  0  0  0  0  0  0  0  0  0  0  0
   36.9220   21.1380   32.5370 H   0  0  0  0  0  0  0  0  0  0  0  0
   36.3140   19.1360   30.7220 C   0  0  0  0  0  0  0  0  0  0  0  0
   37.0050   18.8830   31.5620 H   0  0  0  0  0  0  0  0  0  0  0  0
   35.6080   18.2600   30.6420 H   0  0  0  0  0  0  0  0  0  0  0  0
   38.9150   19.9660   28.1630 C   0  0  0  0  0  0  0  0  0  0  0  0
   38.2070   19.8810   29.4020 C   0  0  0  0  0  0  0  0  0  0  0  0
   37.0210   19.2080   29.4320 C   0  0  0  0  0  0  0  0  0  0  0  0
   36.5780   18.6610   28.2910 N   0  0  0  0  0  0  0  0  0  0  0  0
   37.2390   18.7400   27.1290 C   0  0  0  0  0  0  0  0  0  0  0  0
   38.4010   19.3940   27.0840 N   0  0  0  0  0  0  0  0  0  0  0  0
   39.8630   20.5010   28.1290 H   0  0  0  0  0  0  0  0  0  0  0  0
   38.6850   20.3650   30.2180 H   0  0  0  0  0  0  0  0  0  0  0  0
   36.7170   18.2350   26.3310 H   0  0  0  0  0  0  0  0  0  0  0  0
  1 27  1  0  0  0  0
  1  5  1  0  0  0  0
  2  1  1  0  0  0  0
  3  1  1  0  0  0  0
  4 13  1  0  0  0  0
  4 12  1  0  0  0  0
  5  6  1  0  0  0  0
  5  4  2  0  0  0  0
  6  7  2  0  0  0  0
  7  8  1  0  0  0  0
  7 11  1  0  0  0  0
  8  9  1  0  0  0  0
  9 16  1  0  0  0  0
  9 10  2  0  0  0  0
 10 17  1  0  0  0  0
 11 10  1  0  0  0  0
 12 11  2  0  0  0  0
 12 18  1  0  0  0  0
 14  6  1  0  0  0  0
 15  8  1  0  0  0  0
 18 19  1  0  0  0  0
 18 26  1  0  0  0  0
 19 21  1  0  0  0  0
 20 19  1  0  0  0  0
 21 22  1  0  0  0  0
 21 23  1  0  0  0  0
 23 25  1  0  0  0  0
 23 24  1  0  0  0  0
 26 25  1  0  0  0  0
 27 32  1  0  0  0  0
 27 29  1  0  0  0  0
 28 27  1  0  0  0  0
 30 33  1  6  0  0  0
 30 32  1  0  0  0  0
 30 31  1  0  0  0  0
 31 34  1  0  0  0  0
 31 35  1  0  0  0  0
 32 31  1  0  0  0  0
 32 36  1  1  0  0  0
 37 30  1  0  0  0  0
 37 38  1  0  0  0  0
 39 37  1  0  0  0  0
 40 41  1  0  0  0  0
 41 42  2  0  0  0  0
 41 47  1  0  0  0  0
 42 37  1  0  0  0  0
 43 42  1  0  0  0  0
 44 43  2  0  0  0  0
 45 44  1  0  0  0  0
 45 40  2  0  0  0  0
 46 40  1  0  0  0  0
 48 44  1  0  0  0  0
M  END
>  <minimizedAffinity>
-6.1982832

$$$$

 OpenBabel03262520523D

 48 52  0  0  1  0  0  0  0  0999 V2000
   42.4890   24.9890   33.5000 C   0  0  0  0  0  0  0  0  0  0  0  0
   42.5080   24.1420   32.8050 H   0  0  0  0  0  0  0  0  0  0  0  0
   43.0610   25.8610   33.0870 H   0  0  0  0  0  0  0  0  0  0  0  0
   40.1070   25.1630   32.8400 C   0  0  0  0  0  0  0  0  0  0  0  0
   41.1060   25.5110   33.7310 C   0  0  0  0  0  0  0  0  0  0  0  0
   40.7830   26.3310   34.8050 C   0  0  0  0  0  0  0  0  0  0  0  0
   39.4950   26.7970   34.9930 C   0  0  0  0  0  0  0  0  0  0  0  0
   38.9690   27.5840   35.9480 N   0  0  0  0  0  0  0  0  0  0  0  0
   37.6630   27.7180   35.6480 C   0  0  0  0  0  0  0  0  0  0  0  0
   37.3200   27.0310   34.5090 C   0  0  0  0  0  0  0  0  0  0  0  0
   38.5140   26.4410   34.0960 C   0  0  0  0  0  0  0  0  0  0  0  0
   38.8320   25.6330   33.0370 C   0  0  0  0  0  0  0  0  0  0  0  0
   40.1970   24.5360   31.9680 H   0  0  0  0  0  0  0  0  0  0  0  0
   41.5610   26.6010   35.4980 H   0  0  0  0  0  0  0  0  0  0  0  0
   39.5020   27.9910   36.7490 H   0  0  0  0  0  0  0  0  0  0  0  0
   37.0130   28.3160   36.2770 H   0  0  0  0  0  0  0  0  0  0  0  0
   36.3520   26.9780   34.0610 H   0  0  0  0  0  0  0  0  0  0  0  0
   37.7450   25.3070   32.1440 N   0  0  0  0  0  0  0  0  0  0  0  0
   37.1770   26.0990   31.0870 C   0  0  0  0  0  3  0  0  0  0  0  0
   37.3680   27.1870   31.1860 H   0  0  0  0  0  0  0  0  0  0  0  0
   35.6870   25.8910   31.1250 C   0  0  0  0  0  3  0  0  0  0  0  0
   35.2600   26.4970   30.2930 H   0  0  0  0  0  0  0  0  0  0  0  0
   35.2990   24.5260   30.9490 N   0  0  0  0  0  0  0  0  0  0  0  0
   35.0880   24.2880   29.9440 H   0  0  0  0  0  0  0  0  0  0  0  0
   36.1120   23.5390   31.5600 C   0  0  0  0  0  2  0  0  0  0  0  0
   37.2250   23.9950   32.4240 C   0  0  0  0  0  2  0  0  0  0  0  0
   43.0630   24.6200   34.8640 C   0  0  0  0  0  0  0  0  0  0  0  0
   42.6520   25.3490   35.6000 H   0  0  0  0  0  0  0  0  0  0  0  0
   44.1630   24.7810   34.7770 H   0  0  0  0  0  0  0  0  0  0  0  0
   42.2840   23.0840   36.7120 C   0  0  1  0  0  0  0  0  0  0  0  0
   43.5910   22.4790   36.2500 C   0  0  0  0  0  0  0  0  0  0  0  0
   42.7400   23.2460   35.3200 C   0  0  2  0  0  0  0  0  0  0  0  0
   42.3890   23.9030   37.4680 H   0  0  0  0  0  0  0  0  0  0  0  0
   44.5420   22.9680   36.5800 H   0  0  0  0  0  0  0  0  0  0  0  0
   43.6980   21.3850   36.1460 H   0  0  0  0  0  0  0  0  0  0  0  0
   42.2030   22.6160   34.5610 H   0  0  0  0  0  0  0  0  0  0  0  0
   41.2190   22.1000   37.0980 C   0  0  0  0  0  0  0  0  0  0  0  0
   41.2090   21.2120   36.4210 H   0  0  0  0  0  0  0  0  0  0  0  0
   41.4360   21.6900   38.1260 H   0  0  0  0  0  0  0  0  0  0  0  0
   37.9290   23.5620   36.0770 C   0  0  0  0  0  0  0  0  0  0  0  0
   39.2170   22.9450   36.0210 C   0  0  0  0  0  0  0  0  0  0  0  0
   39.8940   22.7380   37.1870 C   0  0  0  0  0  0  0  0  0  0  0  0
   39.3120   23.1260   38.3300 N   0  0  0  0  0  0  0  0  0  0  0  0
   38.1060   23.7040   38.3860 C   0  0  0  0  0  0  0  0  0  0  0  0
   37.4320   23.9140   37.2540 N   0  0  0  0  0  0  0  0  0  0  0  0
   37.3810   23.7310   35.1510 H   0  0  0  0  0  0  0  0  0  0  0  0
   39.5440   22.6940   35.0410 H   0  0  0  0  0  0  0  0  0  0  0  0
   37.8170   23.9410   39.3980 H   0  0  0  0  0  0  0  0  0  0  0  0
  1  5  1  0  0  0  0
  1 27  1  0  0  0  0
  2  1  1  0  0  0  0
  3  1  1  0  0  0  0
  4 12  2  0  0  0  0
  4  5  1  0  0  0  0
  5  6  2  0  0  0  0
  6  7  1  0  0  0  0
  6 14  1  0  0  0  0
  7  8  1  0  0  0  0
  8 15  1  0  0  0  0
  9  8  1  0  0  0  0
  9 16  1  0  0  0  0
 10  9  2  0  0  0  0
 11 10  1  0  0  0  0
 11  7  2  0  0  0  0
 12 11  1  0  0  0  0
 13  4  1  0  0  0  0
 17 10  1  0  0  0  0
 18 26  1  0  0  0  0
 18 12  1  0  0  0  0
 19 21  1  0  0  0  0
 19 20  1  0  0  0  0
 19 18  1  0  0  0  0
 22 21  1  0  0  0  0
 23 21  1  0  0  0  0
 23 25  1  0  0  0  0
 24 23  1  0  0  0  0
 25 26  1  0  0  0  0
 27 32  1  0  0  0  0
 27 28  1  0  0  0  0
 29 27  1  0  0  0  0
 30 37  1  0  0  0  0
 30 33  1  1  0  0  0
 31 34  1  0  0  0  0
 31 30  1  0  0  0  0
 32 36  1  6  0  0  0
 32 31  1  0  0  0  0
 32 30  1  0  0  0  0
 35 31  1  0  0  0  0
 37 42  1  0  0  0  0
 37 39  1  0  0  0  0
 38 37  1  0  0  0  0
 40 45  1  0  0  0  0
 41 40  2  0  0  0  0
 41 42  1  0  0  0  0
 42 43  2  0  0  0  0
 43 44  1  0  0  0  0
 44 48  1  0  0  0  0
 45 44  2  0  0  0  0
 46 40  1  0  0  0  0
 47 41  1  0  0  0  0
M  END
>  <minimizedAffinity>
-6.18072605

$$$$

 OpenBabel03262520523D

 48 52  0  0  1  0  0  0  0  0999 V2000
   36.9050   27.6900   33.1030 C   0  0  0  0  0  0  0  0  0  0  0  0
   37.7550   28.2580   32.7100 H   0  0  0  0  0  0  0  0  0  0  0  0
   36.0440   27.7040   32.3840 H   0  0  0  0  0  0  0  0  0  0  0  0
   37.8280   25.8410   34.4700 C   0  0  0  0  0  0  0  0  0  0  0  0
   37.2230   26.2400   33.2920 C   0  0  0  0  0  0  0  0  0  0  0  0
   36.9330   25.2760   32.3330 C   0  0  0  0  0  0  0  0  0  0  0  0
   37.2370   23.9430   32.5380 C   0  0  0  0  0  0  0  0  0  0  0  0
   37.0470   22.8630   31.7610 N   0  0  0  0  0  0  0  0  0  0  0  0
   37.5290   21.8120   32.4530 C   0  0  0  0  0  0  0  0  0  0  0  0
   38.0350   22.1850   33.6750 C   0  0  0  0  0  0  0  0  0  0  0  0
   37.8400   23.5640   33.7160 C   0  0  0  0  0  0  0  0  0  0  0  0
   38.1260   24.5140   34.6620 C   0  0  0  0  0  0  0  0  0  0  0  0
   38.1080   26.4620   35.3050 H   0  0  0  0  0  0  0  0  0  0  0  0
   36.4620   25.5880   31.4180 H   0  0  0  0  0  0  0  0  0  0  0  0
   36.6070   22.8770   30.8140 H   0  0  0  0  0  0  0  0  0  0  0  0
   37.4900   20.8140   32.0330 H   0  0  0  0  0  0  0  0  0  0  0  0
   38.4730   21.5430   34.4070 H   0  0  0  0  0  0  0  0  0  0  0  0
   38.7580   24.0330   35.8670 N   0  0  0  0  0  0  0  0  0  0  0  0
   40.1250   23.6420   36.0760 C   0  0  0  0  0  3  0  0  0  0  0  0
   40.6630   23.3680   35.1450 H   0  0  0  0  0  0  0  0  0  0  0  0
   40.1130   22.4320   36.9700 C   0  0  0  0  0  3  0  0  0  0  0  0
   41.1780   22.1500   37.1370 H   0  0  0  0  0  0  0  0  0  0  0  0
   39.4950   22.6690   38.2380 N   0  0  0  0  0  0  0  0  0  0  0  0
   40.1850   22.9440   38.9840 H   0  0  0  0  0  0  0  0  0  0  0  0
   38.3490   23.5030   38.2520 C   0  0  0  0  0  2  0  0  0  0  0  0
   37.8150   23.9700   36.9520 C   0  0  0  0  0  2  0  0  0  0  0  0
   36.4360   28.2260   34.4510 C   0  0  0  0  0  0  0  0  0  0  0  0
   37.3490   28.4290   35.0580 H   0  0  0  0  0  0  0  0  0  0  0  0
   35.8720   27.3870   34.9250 H   0  0  0  0  0  0  0  0  0  0  0  0
   34.3720   29.4090   33.6020 C   0  0  1  0  0  0  0  0  0  0  0  0
   35.5170   30.2940   33.1600 C   0  0  0  0  0  0  0  0  0  0  0  0
   35.6250   29.4640   34.3770 C   0  0  2  0  0  0  0  0  0  0  0  0
   34.1430   28.5600   32.9090 H   0  0  0  0  0  0  0  0  0  0  0  0
   36.1220   29.9670   32.2760 H   0  0  0  0  0  0  0  0  0  0  0  0
   35.4380   31.3920   33.2310 H   0  0  0  0  0  0  0  0  0  0  0  0
   35.5720   30.0460   35.3370 H   0  0  0  0  0  0  0  0  0  0  0  0
   33.1300   30.1310   34.0330 C   0  0  0  0  0  0  0  0  0  0  0  0
   33.3670   31.0740   34.5820 H   0  0  0  0  0  0  0  0  0  0  0  0
   32.5440   30.4540   33.1240 H   0  0  0  0  0  0  0  0  0  0  0  0
   31.4870   28.4410   36.9390 C   0  0  0  0  0  0  0  0  0  0  0  0
   32.3470   29.2800   36.1640 C   0  0  0  0  0  0  0  0  0  0  0  0
   32.2310   29.2570   34.8050 C   0  0  0  0  0  0  0  0  0  0  0  0
   31.3120   28.4430   34.2650 N   0  0  0  0  0  0  0  0  0  0  0  0
   30.5060   27.6570   34.9890 C   0  0  0  0  0  0  0  0  0  0  0  0
   30.6070   27.6680   36.3190 N   0  0  0  0  0  0  0  0  0  0  0  0
   31.5720   28.4530   38.0250 H   0  0  0  0  0  0  0  0  0  0  0  0
   33.0230   29.8670   36.7350 H   0  0  0  0  0  0  0  0  0  0  0  0
   29.8380   27.0800   34.3670 H   0  0  0  0  0  0  0  0  0  0  0  0
  1  5  1  0  0  0  0
  1 27  1  0  0  0  0
  2  1  1  0  0  0  0
  3  1  1  0  0  0  0
  4 12  1  0  0  0  0
  4 13  1  0  0  0  0
  5  4  2  0  0  0  0
  6  7  2  0  0  0  0
  6  5  1  0  0  0  0
  7 11  1  0  0  0  0
  8  9  1  0  0  0  0
  8  7  1  0  0  0  0
  9 10  2  0  0  0  0
 10 11  1  0  0  0  0
 10 17  1  0  0  0  0
 11 12  2  0  0  0  0
 12 18  1  0  0  0  0
 14  6  1  0  0  0  0
 15  8  1  0  0  0  0
 16  9  1  0  0  0  0
 18 19  1  0  0  0  0
 18 26  1  0  0  0  0
 19 21  1  0  0  0  0
 20 19  1  0  0  0  0
 21 22  1  0  0  0  0
 21 23  1  0  0  0  0
 23 25  1  0  0  0  0
 23 24  1  0  0  0  0
 26 25  1  0  0  0  0
 27 29  1  0  0  0  0
 27 28  1  0  0  0  0
 30 33  1  6  0  0  0
 30 37  1  0  0  0  0
 30 32  1  0  0  0  0
 31 35  1  0  0  0  0
 31 30  1  0  0  0  0
 31 32  1  0  0  0  0
 32 27  1  0  0  0  0
 32 36  1  1  0  0  0
 34 31  1  0  0  0  0
 37 38  1  0  0  0  0
 37 42  1  0  0  0  0
 39 37  1  0  0  0  0
 40 46  1  0  0  0  0
 41 47  1  0  0  0  0
 41 40  2  0  0  0  0
 42 41  1  0  0  0  0
 43 42  2  0  0  0  0
 43 44  1  0  0  0  0
 44 45  2  0  0  0  0
 45 40  1  0  0  0  0
 48 44  1  0  0  0  0
M  END
>  <minimizedAffinity>
-6.0823102

$$$$

 OpenBabel03262520523D

 48 52  0  0  1  0  0  0  0  0999 V2000
   38.1670   27.1920   32.8930 C   0  0  0  0  0  0  0  0  0  0  0  0
   39.1780   27.5740   33.0770 H   0  0  0  0  0  0  0  0  0  0  0  0
   37.8840   27.3070   31.8140 H   0  0  0  0  0  0  0  0  0  0  0  0
   38.2820   25.2700   34.4520 C   0  0  0  0  0  0  0  0  0  0  0  0
   38.0480   25.7260   33.1680 C   0  0  0  0  0  0  0  0  0  0  0  0
   37.7090   24.8030   32.1860 C   0  0  0  0  0  0  0  0  0  0  0  0
   37.6050   23.4540   32.4710 C   0  0  0  0  0  0  0  0  0  0  0  0
   37.2930   22.4060   31.6890 N   0  0  0  0  0  0  0  0  0  0  0  0
   37.3350   21.3190   32.4840 C   0  0  0  0  0  0  0  0  0  0  0  0
   37.6710   21.6360   33.7770 C   0  0  0  0  0  0  0  0  0  0  0  0
   37.8430   23.0180   33.7550 C   0  0  0  0  0  0  0  0  0  0  0  0
   38.1770   23.9280   34.7240 C   0  0  0  0  0  0  0  0  0  0  0  0
   38.5460   25.8570   35.3170 H   0  0  0  0  0  0  0  0  0  0  0  0
   37.5260   25.1590   31.1870 H   0  0  0  0  0  0  0  0  0  0  0  0
   37.0680   22.4650   30.6710 H   0  0  0  0  0  0  0  0  0  0  0  0
   37.1180   20.3360   32.0810 H   0  0  0  0  0  0  0  0  0  0  0  0
   37.7720   20.9570   34.5950 H   0  0  0  0  0  0  0  0  0  0  0  0
   38.4100   23.3880   36.0420 N   0  0  0  0  0  0  0  0  0  0  0  0
   37.4590   23.0980   37.0800 C   0  0  0  0  0  3  0  0  0  0  0  0
   36.5020   23.6500   36.9820 H   0  0  0  0  0  0  0  0  0  0  0  0
   38.0870   23.5000   38.3860 C   0  0  0  0  0  3  0  0  0  0  0  0
   37.3470   23.2550   39.1830 H   0  0  0  0  0  0  0  0  0  0  0  0
   39.3090   22.8110   38.6650 N   0  0  0  0  0  0  0  0  0  0  0  0
   39.1670   21.9460   39.2490 H   0  0  0  0  0  0  0  0  0  0  0  0
   40.1770   22.5670   37.5720 C   0  0  0  0  0  2  0  0  0  0  0  0
   39.8110   23.1390   36.2560 C   0  0  0  0  0  2  0  0  0  0  0  0
   37.1270   27.8970   33.7580 C   0  0  0  0  0  0  0  0  0  0  0  0
   37.6820   28.4490   34.5520 H   0  0  0  0  0  0  0  0  0  0  0  0
   36.5360   27.0800   34.2370 H   0  0  0  0  0  0  0  0  0  0  0  0
   34.8850   29.0380   33.5290 C   0  0  1  0  0  0  0  0  0  0  0  0
   35.1370   28.4340   32.1650 C   0  0  0  0  0  0  0  0  0  0  0  0
   36.2590   28.8520   33.0280 C   0  0  2  0  0  0  0  0  0  0  0  0
   34.4270   28.3370   34.2720 H   0  0  0  0  0  0  0  0  0  0  0  0
   34.9830   27.3320   32.0410 H   0  0  0  0  0  0  0  0  0  0  0  0
   34.8910   28.9960   31.2470 H   0  0  0  0  0  0  0  0  0  0  0  0
   36.7780   29.7880   32.6880 H   0  0  0  0  0  0  0  0  0  0  0  0
   34.2040   30.3740   33.5250 C   0  0  0  0  0  0  0  0  0  0  0  0
   34.7330   31.1080   32.8700 H   0  0  0  0  0  0  0  0  0  0  0  0
   33.1700   30.2720   33.0840 H   0  0  0  0  0  0  0  0  0  0  0  0
   34.9280   32.0030   36.8150 C   0  0  0  0  0  0  0  0  0  0  0  0
   35.0840   31.4910   35.4900 C   0  0  0  0  0  0  0  0  0  0  0  0
   34.0140   30.8930   34.8910 C   0  0  0  0  0  0  0  0  0  0  0  0
   32.8670   30.8160   35.5810 N   0  0  0  0  0  0  0  0  0  0  0  0
   32.7190   31.2950   36.8220 C   0  0  0  0  0  0  0  0  0  0  0  0
   33.7560   31.8830   37.4210 N   0  0  0  0  0  0  0  0  0  0  0  0
   35.7760   32.4820   37.3020 H   0  0  0  0  0  0  0  0  0  0  0  0
   36.0520   31.6260   35.0750 H   0  0  0  0  0  0  0  0  0  0  0  0
   31.7210   31.1350   37.2010 H   0  0  0  0  0  0  0  0  0  0  0  0
  1  2  1  0  0  0  0
  1  5  1  0  0  0  0
  1 27  1  0  0  0  0
  3  1  1  0  0  0  0
  4 12  1  0  0  0  0
  4 13  1  0  0  0  0
  5  4  2  0  0  0  0
  6  7  2  0  0  0  0
  6  5  1  0  0  0  0
  7 11  1  0  0  0  0
  8  7  1  0  0  0  0
  8  9  1  0  0  0  0
  9 10  2  0  0  0  0
 10 17  1  0  0  0  0
 11 10  1  0  0  0  0
 11 12  2  0  0  0  0
 12 18  1  0  0  0  0
 14  6  1  0  0  0  0
 15  8  1  0  0  0  0
 16  9  1  0  0  0  0
 18 26  1  0  0  0  0
 18 19  1  0  0  0  0
 19 21  1  0  0  0  0
 20 19  1  0  0  0  0
 21 23  1  0  0  0  0
 21 22  1  0  0  0  0
 23 24  1  0  0  0  0
 25 23  1  0  0  0  0
 26 25  1  0  0  0  0
 27 29  1  0  0  0  0
 27 28  1  0  0  0  0
 30 33  1  1  0  0  0
 31 32  1  0  0  0  0
 31 30  1  0  0  0  0
 32 36  1  6  0  0  0
 32 30  1  0  0  0  0
 32 27  1  0  0  0  0
 34 31  1  0  0  0  0
 35 31  1  0  0  0  0
 37 30  1  0  0  0  0
 37 42  1  0  0  0  0
 38 37  1  0  0  0  0
 39 37  1  0  0  0  0
 40 46  1  0  0  0  0
 40 45  1  0  0  0  0
 41 40  2  0  0  0  0
 42 41  1  0  0  0  0
 42 43  2  0  0  0  0
 43 44  1  0  0  0  0
 44 48  1  0  0  0  0
 44 45  2  0  0  0  0
 47 41  1  0  0  0  0
M  END
>  <minimizedAffinity>
-5.97158003

$$$$

 OpenBabel03262520523D

 48 52  0  0  1  0  0  0  0  0999 V2000
   37.9210   21.1930   32.7980 C   0  0  0  0  0  0  0  0  0  0  0  0
   38.5330   20.2840   32.7760 H   0  0  0  0  0  0  0  0  0  0  0  0
   36.8280   20.9410   32.8340 H   0  0  0  0  0  0  0  0  0  0  0  0
   39.1040   23.0330   33.9600 C   0  0  0  0  0  0  0  0  0  0  0  0
   38.1650   22.0200   34.0200 C   0  0  0  0  0  0  0  0  0  0  0  0
   37.4860   21.8130   35.2150 C   0  0  0  0  0  0  0  0  0  0  0  0
   37.7330   22.5960   36.3280 C   0  0  0  0  0  0  0  0  0  0  0  0
   37.1990   22.5740   37.5620 N   0  0  0  0  0  0  0  0  0  0  0  0
   37.8030   23.5610   38.2500 C   0  0  0  0  0  0  0  0  0  0  0  0
   38.7270   24.2340   37.4890 C   0  0  0  0  0  0  0  0  0  0  0  0
   38.6720   23.6000   36.2490 C   0  0  0  0  0  0  0  0  0  0  0  0
   39.3420   23.8040   35.0720 C   0  0  0  0  0  0  0  0  0  0  0  0
   39.7040   23.3200   33.1110 H   0  0  0  0  0  0  0  0  0  0  0  0
   36.7560   21.0250   35.2610 H   0  0  0  0  0  0  0  0  0  0  0  0
   36.4630   21.9060   37.8830 H   0  0  0  0  0  0  0  0  0  0  0  0
   37.5410   23.7480   39.2860 H   0  0  0  0  0  0  0  0  0  0  0  0
   39.3370   25.0530   37.8000 H   0  0  0  0  0  0  0  0  0  0  0  0
   40.3090   24.8760   35.0740 N   0  0  0  0  0  0  0  0  0  0  0  0
   40.0840   26.2950   35.0300 C   0  0  0  0  0  3  0  0  0  0  0  0
   39.0930   26.5820   34.6210 H   0  0  0  0  0  0  0  0  0  0  0  0
   41.1380   26.8870   34.1350 C   0  0  0  0  0  3  0  0  0  0  0  0
   40.9620   27.9870   34.1220 H   0  0  0  0  0  0  0  0  0  0  0  0
   42.4720   26.6380   34.5860 N   0  0  0  0  0  0  0  0  0  0  0  0
   42.8530   27.4160   35.1850 H   0  0  0  0  0  0  0  0  0  0  0  0
   42.7350   25.3660   35.1520 C   0  0  0  0  0  2  0  0  0  0  0  0
   41.6500   24.3580   35.1290 C   0  0  0  0  0  2  0  0  0  0  0  0
   38.1860   22.0860   31.5910 C   0  0  0  0  0  0  0  0  0  0  0  0
   38.7790   21.4850   30.8630 H   0  0  0  0  0  0  0  0  0  0  0  0
   38.8270   22.9170   31.9720 H   0  0  0  0  0  0  0  0  0  0  0  0
   36.0490   23.4260   31.7090 C   0  0  1  0  0  0  0  0  0  0  0  0
   35.6130   22.0740   31.1880 C   0  0  0  0  0  0  0  0  0  0  0  0
   36.9680   22.5920   30.9150 C   0  0  2  0  0  0  0  0  0  0  0  0
   36.1260   23.4940   32.8240 H   0  0  0  0  0  0  0  0  0  0  0  0
   35.5370   21.2290   31.9180 H   0  0  0  0  0  0  0  0  0  0  0  0
   34.8640   21.9980   30.3800 H   0  0  0  0  0  0  0  0  0  0  0  0
   37.1280   22.9280   29.8550 H   0  0  0  0  0  0  0  0  0  0  0  0
   35.3270   24.6050   31.1250 C   0  0  0  0  0  0  0  0  0  0  0  0
   35.1560   24.4850   30.0280 H   0  0  0  0  0  0  0  0  0  0  0  0
   34.2970   24.6830   31.5810 H   0  0  0  0  0  0  0  0  0  0  0  0
   37.3970   27.1450   32.9300 C   0  0  0  0  0  0  0  0  0  0  0  0
   36.7260   25.9280   32.5990 C   0  0  0  0  0  0  0  0  0  0  0  0
   36.0080   25.8720   31.4400 C   0  0  0  0  0  0  0  0  0  0  0  0
   35.9690   26.9690   30.6700 N   0  0  0  0  0  0  0  0  0  0  0  0
   36.5960   28.1100   30.9780 C   0  0  0  0  0  0  0  0  0  0  0  0
   37.3030   28.1800   32.1080 N   0  0  0  0  0  0  0  0  0  0  0  0
   37.9730   27.2000   33.8530 H   0  0  0  0  0  0  0  0  0  0  0  0
   36.8510   25.1470   33.3090 H   0  0  0  0  0  0  0  0  0  0  0  0
   36.4410   28.8720   30.2310 H   0  0  0  0  0  0  0  0  0  0  0  0
  1  3  1  0  0  0  0
  1  5  1  0  0  0  0
  2  1  1  0  0  0  0
  4  5  2  0  0  0  0
  4 12  1  0  0  0  0
  5  6  1  0  0  0  0
  6 14  1  0  0  0  0
  6  7  2  0  0  0  0
  7  8  1  0  0  0  0
  8 15  1  0  0  0  0
  8  9  1  0  0  0  0
  9 16  1  0  0  0  0
 10 17  1  0  0  0  0
 10  9  2  0  0  0  0
 11  7  1  0  0  0  0
 11 10  1  0  0  0  0
 12 18  1  0  0  0  0
 12 11  2  0  0  0  0
 13  4  1  0  0  0  0
 18 26  1  0  0  0  0
 19 18  1  0  0  0  0
 20 19  1  0  0  0  0
 21 23  1  0  0  0  0
 21 19  1  0  0  0  0
 22 21  1  0  0  0  0
 23 25  1  0  0  0  0
 23 24  1  0  0  0  0
 26 25  1  0  0  0  0
 27 29  1  0  0  0  0
 27  1  1  0  0  0  0
 28 27  1  0  0  0  0
 30 33  1  1  0  0  0
 31 30  1  0  0  0  0
 31 34  1  0  0  0  0
 32 36  1  6  0  0  0
 32 31  1  0  0  0  0
 32 27  1  0  0  0  0
 32 30  1  0  0  0  0
 35 31  1  0  0  0  0
 37 42  1  0  0  0  0
 37 39  1  0  0  0  0
 37 30  1  0  0  0  0
 38 37  1  0  0  0  0
 40 46  1  0  0  0  0
 41 40  1  0  0  0  0
 41 47  1  0  0  0  0
 42 41  2  0  0  0  0
 43 44  2  0  0  0  0
 43 42  1  0  0  0  0
 44 45  1  0  0  0  0
 45 40  2  0  0  0  0
 48 44  1  0  0  0  0
M  END
>  <minimizedAffinity>
-5.93863201

$$$$

 OpenBabel03262520523D

 48 52  0  0  1  0  0  0  0  0999 V2000
   37.6980   25.4260   35.8740 C   0  0  0  0  0  0  0  0  0  0  0  0
   37.0960   25.1550   35.0000 H   0  0  0  0  0  0  0  0  0  0  0  0
   37.1260   25.2610   36.8240 H   0  0  0  0  0  0  0  0  0  0  0  0
   40.0080   24.8400   35.1950 C   0  0  0  0  0  0  0  0  0  0  0  0
   38.9240   24.5780   36.0120 C   0  0  0  0  0  0  0  0  0  0  0  0
   39.0170   23.5380   36.9290 C   0  0  0  0  0  0  0  0  0  0  0  0
   40.1640   22.7720   37.0340 C   0  0  0  0  0  0  0  0  0  0  0  0
   40.4670   21.7390   37.8390 N   0  0  0  0  0  0  0  0  0  0  0  0
   41.7230   21.3710   37.5200 C   0  0  0  0  0  0  0  0  0  0  0  0
   42.2520   22.1460   36.5170 C   0  0  0  0  0  0  0  0  0  0  0  0
   41.2340   23.0470   36.2120 C   0  0  0  0  0  0  0  0  0  0  0  0
   41.1410   24.0720   35.3080 C   0  0  0  0  0  0  0  0  0  0  0  0
   40.0920   25.6090   34.4450 H   0  0  0  0  0  0  0  0  0  0  0  0
   38.1730   23.3350   37.5640 H   0  0  0  0  0  0  0  0  0  0  0  0
   39.8280   21.3320   38.5570 H   0  0  0  0  0  0  0  0  0  0  0  0
   42.2010   20.5460   38.0370 H   0  0  0  0  0  0  0  0  0  0  0  0
   43.2250   22.0570   36.0860 H   0  0  0  0  0  0  0  0  0  0  0  0
   42.3070   24.2940   34.4850 N   0  0  0  0  0  0  0  0  0  0  0  0
   43.4870   25.0590   34.7790 C   0  0  0  0  0  3  0  0  0  0  0  0
   43.3450   25.8210   35.5730 H   0  0  0  0  0  0  0  0  0  0  0  0
   43.8770   25.7810   33.5180 C   0  0  0  0  0  3  0  0  0  0  0  0
   44.8010   26.3570   33.7540 H   0  0  0  0  0  0  0  0  0  0  0  0
   44.1490   24.9030   32.4210 N   0  0  0  0  0  0  0  0  0  0  0  0
   45.1690   24.6570   32.3380 H   0  0  0  0  0  0  0  0  0  0  0  0
   43.3230   23.7590   32.2900 C   0  0  0  0  0  2  0  0  0  0  0  0
   42.1790   23.6190   33.2200 C   0  0  0  0  0  2  0  0  0  0  0  0
   38.1620   26.8780   35.8170 C   0  0  0  0  0  0  0  0  0  0  0  0
   39.2730   26.8700   35.9080 H   0  0  0  0  0  0  0  0  0  0  0  0
   37.7330   27.3620   36.7270 H   0  0  0  0  0  0  0  0  0  0  0  0
   36.3690   27.9630   34.4070 C   0  0  1  0  0  0  0  0  0  0  0  0
   37.0340   26.9770   33.4710 C   0  0  0  0  0  0  0  0  0  0  0  0
   37.7880   27.6000   34.5780 C   0  0  2  0  0  0  0  0  0  0  0  0
   35.5650   27.5250   35.0520 H   0  0  0  0  0  0  0  0  0  0  0  0
   36.7810   25.8920   33.5850 H   0  0  0  0  0  0  0  0  0  0  0  0
   37.2420   27.2510   32.4220 H   0  0  0  0  0  0  0  0  0  0  0  0
   38.5270   28.3790   34.2500 H   0  0  0  0  0  0  0  0  0  0  0  0
   35.9420   29.2570   33.7810 C   0  0  0  0  0  0  0  0  0  0  0  0
   36.7860   29.7590   33.2470 H   0  0  0  0  0  0  0  0  0  0  0  0
   35.1640   29.0570   32.9880 H   0  0  0  0  0  0  0  0  0  0  0  0
   33.2940   30.9780   35.7880 C   0  0  0  0  0  0  0  0  0  0  0  0
   33.9420   30.1200   34.8460 C   0  0  0  0  0  0  0  0  0  0  0  0
   35.3030   30.1520   34.7610 C   0  0  0  0  0  0  0  0  0  0  0  0
   35.9650   30.9920   35.5700 N   0  0  0  0  0  0  0  0  0  0  0  0
   35.3610   31.7960   36.4530 C   0  0  0  0  0  0  0  0  0  0  0  0
   34.0310   31.7760   36.5480 N   0  0  0  0  0  0  0  0  0  0  0  0
   32.2080   30.9600   35.8630 H   0  0  0  0  0  0  0  0  0  0  0  0
   33.2830   29.5120   34.2760 H   0  0  0  0  0  0  0  0  0  0  0  0
   36.0690   32.3930   37.0070 H   0  0  0  0  0  0  0  0  0  0  0  0
  1  5  1  0  0  0  0
  1  3  1  0  0  0  0
  2  1  1  0  0  0  0
  4 12  2  0  0  0  0
  4  5  1  0  0  0  0
  5  6  2  0  0  0  0
  6  7  1  0  0  0  0
  6 14  1  0  0  0  0
  7  8  1  0  0  0  0
  8 15  1  0  0  0  0
  9  8  1  0  0  0  0
  9 16  1  0  0  0  0
 10  9  2  0  0  0  0
 11 10  1  0  0  0  0
 11  7  2  0  0  0  0
 12 11  1  0  0  0  0
 13  4  1  0  0  0  0
 17 10  1  0  0  0  0
 18 19  1  0  0  0  0
 18 12  1  0  0  0  0
 19 20  1  0  0  0  0
 21 22  1  0  0  0  0
 21 19  1  0  0  0  0
 23 21  1  0  0  0  0
 24 23  1  0  0  0  0
 25 23  1  0  0  0  0
 25 26  1  0  0  0  0
 26 18  1  0  0  0  0
 27  1  1  0  0  0  0
 27 28  1  0  0  0  0
 27 29  1  0  0  0  0
 30 32  1  0  0  0  0
 30 33  1  1  0  0  0
 31 34  1  0  0  0  0
 31 30  1  0  0  0  0
 31 32  1  0  0  0  0
 32 36  1  6  0  0  0
 32 27  1  0  0  0  0
 35 31  1  0  0  0  0
 37 30  1  0  0  0  0
 37 42  1  0  0  0  0
 38 37  1  0  0  0  0
 39 37  1  0  0  0  0
 40 46  1  0  0  0  0
 40 45  1  0  0  0  0
 41 40  2  0  0  0  0
 42 41  1  0  0  0  0
 42 43  2  0  0  0  0
 43 44  1  0  0  0  0
 44 45  2  0  0  0  0
 44 48  1  0  0  0  0
 47 41  1  0  0  0  0
M  END
>  <minimizedAffinity>
-5.8914938

$$$$

 OpenBabel03262520523D

 48 52  0  0  1  0  0  0  0  0999 V2000
   36.8820   27.7950   33.5040 C   0  0  0  0  0  0  0  0  0  0  0  0
   36.0340   28.0530   34.1480 H   0  0  0  0  0  0  0  0  0  0  0  0
   37.8090   28.3380   33.8230 H   0  0  0  0  0  0  0  0  0  0  0  0
   37.8850   25.8780   34.7110 C   0  0  0  0  0  0  0  0  0  0  0  0
   37.2400   26.3440   33.5810 C   0  0  0  0  0  0  0  0  0  0  0  0
   36.9500   25.4440   32.5620 C   0  0  0  0  0  0  0  0  0  0  0  0
   37.2920   24.1080   32.6630 C   0  0  0  0  0  0  0  0  0  0  0  0
   37.1080   23.0820   31.8150 N   0  0  0  0  0  0  0  0  0  0  0  0
   37.6340   21.9980   32.4170 C   0  0  0  0  0  0  0  0  0  0  0  0
   38.1620   22.2950   33.6500 C   0  0  0  0  0  0  0  0  0  0  0  0
   37.9340   23.6630   33.7960 C   0  0  0  0  0  0  0  0  0  0  0  0
   38.2210   24.5490   34.8000 C   0  0  0  0  0  0  0  0  0  0  0  0
   38.1710   26.4450   35.5830 H   0  0  0  0  0  0  0  0  0  0  0  0
   36.4480   25.8080   31.6830 H   0  0  0  0  0  0  0  0  0  0  0  0
   36.6440   23.1520   30.8820 H   0  0  0  0  0  0  0  0  0  0  0  0
   37.6090   21.0310   31.9270 H   0  0  0  0  0  0  0  0  0  0  0  0
   38.6340   21.6150   34.3240 H   0  0  0  0  0  0  0  0  0  0  0  0
   38.8950   24.0000   35.9520 N   0  0  0  0  0  0  0  0  0  0  0  0
   40.2560   23.5550   36.0740 C   0  0  0  0  0  3  0  0  0  0  0  0
   40.7350   23.2980   35.1070 H   0  0  0  0  0  0  0  0  0  0  0  0
   40.2450   22.3120   36.9230 C   0  0  0  0  0  3  0  0  0  0  0  0
   41.3060   21.9860   37.0230 H   0  0  0  0  0  0  0  0  0  0  0  0
   39.7010   22.5210   38.2290 N   0  0  0  0  0  0  0  0  0  0  0  0
   40.4390   22.7430   38.9480 H   0  0  0  0  0  0  0  0  0  0  0  0
   38.5900   23.3930   38.3340 C   0  0  0  0  0  2  0  0  0  0  0  0
   38.0070   23.9280   37.0820 C   0  0  0  0  0  2  0  0  0  0  0  0
   36.6000   28.1100   32.0390 C   0  0  0  0  0  0  0  0  0  0  0  0
   35.5770   27.7270   31.8120 H   0  0  0  0  0  0  0  0  0  0  0  0
   37.3420   27.5120   31.4580 H   0  0  0  0  0  0  0  0  0  0  0  0
   35.3770   30.2530   31.4980 C   0  0  1  0  0  0  0  0  0  0  0  0
   36.3450   30.0760   30.3490 C   0  0  0  0  0  0  0  0  0  0  0  0
   36.6580   29.5500   31.6920 C   0  0  2  0  0  0  0  0  0  0  0  0
   34.4110   29.7000   31.3840 H   0  0  0  0  0  0  0  0  0  0  0  0
   36.0930   29.3220   29.5610 H   0  0  0  0  0  0  0  0  0  0  0  0
   36.8950   30.9410   29.9390 H   0  0  0  0  0  0  0  0  0  0  0  0
   37.4470   30.1310   32.2420 H   0  0  0  0  0  0  0  0  0  0  0  0
   35.1620   31.6680   31.9470 C   0  0  0  0  0  0  0  0  0  0  0  0
   35.7440   32.3930   31.3270 H   0  0  0  0  0  0  0  0  0  0  0  0
   34.0800   31.9530   31.8010 H   0  0  0  0  0  0  0  0  0  0  0  0
   36.5610   33.0210   35.1430 C   0  0  0  0  0  0  0  0  0  0  0  0
   36.2780   32.8390   33.7540 C   0  0  0  0  0  0  0  0  0  0  0  0
   35.4350   31.8320   33.3850 C   0  0  0  0  0  0  0  0  0  0  0  0
   34.9140   31.0600   34.3500 N   0  0  0  0  0  0  0  0  0  0  0  0
   35.1780   31.2290   35.6520 C   0  0  0  0  0  0  0  0  0  0  0  0
   36.0000   32.2090   36.0280 N   0  0  0  0  0  0  0  0  0  0  0  0
   37.2320   33.8220   35.4480 H   0  0  0  0  0  0  0  0  0  0  0  0
   36.7660   33.5290   33.1100 H   0  0  0  0  0  0  0  0  0  0  0  0
   34.6620   30.5070   36.2660 H   0  0  0  0  0  0  0  0  0  0  0  0
  1  5  1  0  0  0  0
  1  3  1  0  0  0  0
  1  2  1  0  0  0  0
  4 12  1  0  0  0  0
  4 13  1  0  0  0  0
  5  4  2  0  0  0  0
  6  7  2  0  0  0  0
  6  5  1  0  0  0  0
  7 11  1  0  0  0  0
  8  9  1  0  0  0  0
  8  7  1  0  0  0  0
  9 10  2  0  0  0  0
 10 11  1  0  0  0  0
 10 17  1  0  0  0  0
 11 12  2  0  0  0  0
 12 18  1  0  0  0  0
 14  6  1  0  0  0  0
 15  8  1  0  0  0  0
 16  9  1  0  0  0  0
 18 19  1  0  0  0  0
 18 26  1  0  0  0  0
 19 21  1  0  0  0  0
 20 19  1  0  0  0  0
 21 22  1  0  0  0  0
 21 23  1  0  0  0  0
 23 25  1  0  0  0  0
 23 24  1  0  0  0  0
 26 25  1  0  0  0  0
 27  1  1  0  0  0  0
 28 27  1  0  0  0  0
 29 27  1  0  0  0  0
 30 33  1  6  0  0  0
 30 32  1  0  0  0  0
 30 37  1  0  0  0  0
 31 30  1  0  0  0  0
 31 32  1  0  0  0  0
 32 27  1  0  0  0  0
 32 36  1  1  0  0  0
 34 31  1  0  0  0  0
 35 31  1  0  0  0  0
 37 42  1  0  0  0  0
 38 37  1  0  0  0  0
 39 37  1  0  0  0  0
 40 46  1  0  0  0  0
 40 45  1  0  0  0  0
 41 40  2  0  0  0  0
 42 41  1  0  0  0  0
 42 43  2  0  0  0  0
 43 44  1  0  0  0  0
 44 45  2  0  0  0  0
 44 48  1  0  0  0  0
 47 41  1  0  0  0  0
M  END
>  <minimizedAffinity>
-5.85418558

$$$$

 OpenBabel03262520523D

 48 52  0  0  1  0  0  0  0  0999 V2000
   37.2760   27.7260   33.1550 C   0  0  0  0  0  0  0  0  0  0  0  0
   38.1960   28.0840   32.6790 H   0  0  0  0  0  0  0  0  0  0  0  0
   37.4240   27.5770   34.2560 H   0  0  0  0  0  0  0  0  0  0  0  0
   35.3660   28.9430   34.1600 C   0  0  0  0  0  0  0  0  0  0  0  0
   36.1530   28.7100   33.0480 C   0  0  0  0  0  0  0  0  0  0  0  0
   35.8700   29.4010   31.8760 C   0  0  0  0  0  0  0  0  0  0  0  0
   34.8260   30.3060   31.8080 C   0  0  0  0  0  0  0  0  0  0  0  0
   34.3850   31.0730   30.7960 N   0  0  0  0  0  0  0  0  0  0  0  0
   33.3390   31.7690   31.2810 C   0  0  0  0  0  0  0  0  0  0  0  0
   33.0840   31.4720   32.5980 C   0  0  0  0  0  0  0  0  0  0  0  0
   34.0530   30.5250   32.9250 C   0  0  0  0  0  0  0  0  0  0  0  0
   34.3320   29.8430   34.0810 C   0  0  0  0  0  0  0  0  0  0  0  0
   35.4620   28.4940   35.1360 H   0  0  0  0  0  0  0  0  0  0  0  0
   36.4830   29.2190   31.0110 H   0  0  0  0  0  0  0  0  0  0  0  0
   34.7990   31.0960   29.8380 H   0  0  0  0  0  0  0  0  0  0  0  0
   32.8030   32.4670   30.6490 H   0  0  0  0  0  0  0  0  0  0  0  0
   32.3130   31.8860   33.2090 H   0  0  0  0  0  0  0  0  0  0  0  0
   33.4730   30.1310   35.2050 N   0  0  0  0  0  0  0  0  0  0  0  0
   32.2430   29.4930   35.5880 C   0  0  0  0  0  3  0  0  0  0  0  0
   31.7370   28.9560   34.7600 H   0  0  0  0  0  0  0  0  0  0  0  0
   31.3120   30.5720   36.0700 C   0  0  0  0  0  3  0  0  0  0  0  0
   30.3700   30.0640   36.3790 H   0  0  0  0  0  0  0  0  0  0  0  0
   31.8240   31.3090   37.1840 N   0  0  0  0  0  0  0  0  0  0  0  0
   31.5070   30.9230   38.1110 H   0  0  0  0  0  0  0  0  0  0  0  0
   33.2120   31.5960   37.1850 C   0  0  0  0  0  2  0  0  0  0  0  0
   34.0000   31.2160   35.9900 C   0  0  0  0  0  2  0  0  0  0  0  0
   36.7870   26.4200   32.5370 C   0  0  0  0  0  0  0  0  0  0  0  0
   36.6480   26.6050   31.4470 H   0  0  0  0  0  0  0  0  0  0  0  0
   35.7880   26.2290   32.9970 H   0  0  0  0  0  0  0  0  0  0  0  0
   38.1610   24.9700   34.0830 C   0  0  1  0  0  0  0  0  0  0  0  0
   39.1420   25.4170   33.0200 C   0  0  0  0  0  0  0  0  0  0  0  0
   37.7050   25.2700   32.7140 C   0  0  2  0  0  0  0  0  0  0  0  0
   38.0220   25.6960   34.9240 H   0  0  0  0  0  0  0  0  0  0  0  0
   39.5380   26.4620   33.0770 H   0  0  0  0  0  0  0  0  0  0  0  0
   39.8830   24.7110   32.6070 H   0  0  0  0  0  0  0  0  0  0  0  0
   37.4580   24.3740   32.0820 H   0  0  0  0  0  0  0  0  0  0  0  0
   38.3440   23.5660   34.5790 C   0  0  0  0  0  0  0  0  0  0  0  0
   37.4980   22.9040   34.2740 H   0  0  0  0  0  0  0  0  0  0  0  0
   39.2630   23.1130   34.1040 H   0  0  0  0  0  0  0  0  0  0  0  0
   37.9150   24.2060   38.2400 C   0  0  0  0  0  0  0  0  0  0  0  0
   37.7140   24.2260   36.8250 C   0  0  0  0  0  0  0  0  0  0  0  0
   38.5770   23.5270   36.0320 C   0  0  0  0  0  0  0  0  0  0  0  0
   39.5750   22.8560   36.6260 N   0  0  0  0  0  0  0  0  0  0  0  0
   39.7650   22.8370   37.9510 C   0  0  0  0  0  0  0  0  0  0  0  0
   38.9300   23.5140   38.7390 N   0  0  0  0  0  0  0  0  0  0  0  0
   37.2310   24.7600   38.8820 H   0  0  0  0  0  0  0  0  0  0  0  0
   36.8800   24.8020   36.5050 H   0  0  0  0  0  0  0  0  0  0  0  0
   40.6210   22.2400   38.2270 H   0  0  0  0  0  0  0  0  0  0  0  0
  1  3  1  0  0  0  0
  2  1  1  0  0  0  0
  4 13  1  0  0  0  0
  5  1  1  0  0  0  0
  5  4  2  0  0  0  0
  6  5  1  0  0  0  0
  7  6  2  0  0  0  0
  7 11  1  0  0  0  0
  8  9  1  0  0  0  0
  8  7  1  0  0  0  0
  9 10  2  0  0  0  0
 10 11  1  0  0  0  0
 10 17  1  0  0  0  0
 11 12  2  0  0  0  0
 12  4  1  0  0  0  0
 12 18  1  0  0  0  0
 14  6  1  0  0  0  0
 15  8  1  0  0  0  0
 16  9  1  0  0  0  0
 18 19  1  0  0  0  0
 18 26  1  0  0  0  0
 19 21  1  0  0  0  0
 20 19  1  0  0  0  0
 21 22  1  0  0  0  0
 21 23  1  0  0  0  0
 23 25  1  0  0  0  0
 23 24  1  0  0  0  0
 26 25  1  0  0  0  0
 27 32  1  0  0  0  0
 27 29  1  0  0  0  0
 27  1  1  0  0  0  0
 28 27  1  0  0  0  0
 30 37  1  0  0  0  0
 30 33  1  1  0  0  0
 31 34  1  0  0  0  0
 31 30  1  0  0  0  0
 32 36  1  6  0  0  0
 32 31  1  0  0  0  0
 32 30  1  0  0  0  0
 35 31  1  0  0  0  0
 37 42  1  0  0  0  0
 38 37  1  0  0  0  0
 39 37  1  0  0  0  0
 40 45  1  0  0  0  0
 40 46  1  0  0  0  0
 41 40  2  0  0  0  0
 42 43  2  0  0  0  0
 42 41  1  0  0  0  0
 43 44  1  0  0  0  0
 44 48  1  0  0  0  0
 44 45  2  0  0  0  0
 47 41  1  0  0  0  0
M  END
>  <minimizedAffinity>
-5.81904411

$$$$

 OpenBabel03262520523D

 48 52  0  0  1  0  0  0  0  0999 V2000
   36.9590   21.7710   31.2440 C   0  0  0  0  0  0  0  0  0  0  0  0
   37.3340   21.3950   30.2850 H   0  0  0  0  0  0  0  0  0  0  0  0
   37.5440   21.3450   32.1000 H   0  0  0  0  0  0  0  0  0  0  0  0
   38.1710   23.7520   32.1060 C   0  0  0  0  0  0  0  0  0  0  0  0
   37.1080   23.2540   31.3760 C   0  0  0  0  0  0  0  0  0  0  0  0
   36.2210   24.1520   30.7950 C   0  0  0  0  0  0  0  0  0  0  0  0
   36.3850   25.5180   30.9340 C   0  0  0  0  0  0  0  0  0  0  0  0
   35.6620   26.5490   30.4620 N   0  0  0  0  0  0  0  0  0  0  0  0
   36.2750   27.6670   30.8970 C   0  0  0  0  0  0  0  0  0  0  0  0
   37.3900   27.3880   31.6490 C   0  0  0  0  0  0  0  0  0  0  0  0
   37.4490   25.9960   31.6650 C   0  0  0  0  0  0  0  0  0  0  0  0
   38.3240   25.1110   32.2390 C   0  0  0  0  0  0  0  0  0  0  0  0
   38.9410   23.1900   32.6090 H   0  0  0  0  0  0  0  0  0  0  0  0
   35.3940   23.7630   30.2270 H   0  0  0  0  0  0  0  0  0  0  0  0
   34.8020   26.4580   29.8770 H   0  0  0  0  0  0  0  0  0  0  0  0
   35.8770   28.6440   30.6450 H   0  0  0  0  0  0  0  0  0  0  0  0
   38.0450   28.0960   32.1060 H   0  0  0  0  0  0  0  0  0  0  0  0
   39.4110   25.6950   32.9870 N   0  0  0  0  0  0  0  0  0  0  0  0
   40.7830   25.8730   32.5970 C   0  0  0  0  0  3  0  0  0  0  0  0
   41.1100   25.2000   31.7780 H   0  0  0  0  0  0  0  0  0  0  0  0
   41.6330   25.5740   33.8020 C   0  0  0  0  0  3  0  0  0  0  0  0
   42.6910   25.7310   33.4910 H   0  0  0  0  0  0  0  0  0  0  0  0
   41.3500   26.4190   34.9200 N   0  0  0  0  0  0  0  0  0  0  0  0
   41.9750   27.2670   34.9600 H   0  0  0  0  0  0  0  0  0  0  0  0
   39.9940   26.7590   35.1470 C   0  0  0  0  0  2  0  0  0  0  0  0
   38.9670   26.1270   34.2870 C   0  0  0  0  0  2  0  0  0  0  0  0
   35.4820   21.4490   31.4420 C   0  0  0  0  0  0  0  0  0  0  0  0
   35.2040   20.6970   30.6670 H   0  0  0  0  0  0  0  0  0  0  0  0
   34.9390   22.4000   31.2270 H   0  0  0  0  0  0  0  0  0  0  0  0
   36.2330   20.7810   33.7590 C   0  0  1  0  0  0  0  0  0  0  0  0
   35.5240   19.5540   33.2290 C   0  0  0  0  0  0  0  0  0  0  0  0
   35.1400   20.9060   32.7790 C   0  0  2  0  0  0  0  0  0  0  0  0
   37.3090   20.8640   33.4590 H   0  0  0  0  0  0  0  0  0  0  0  0
   36.0650   18.9140   32.4870 H   0  0  0  0  0  0  0  0  0  0  0  0
   34.8560   18.9650   33.8810 H   0  0  0  0  0  0  0  0  0  0  0  0
   34.1610   21.2690   33.1930 H   0  0  0  0  0  0  0  0  0  0  0  0
   36.0360   21.0570   35.2200 C   0  0  0  0  0  0  0  0  0  0  0  0
   35.0310   21.4980   35.4280 H   0  0  0  0  0  0  0  0  0  0  0  0
   36.0620   20.0870   35.7970 H   0  0  0  0  0  0  0  0  0  0  0  0
   39.3860   22.6780   35.6120 C   0  0  0  0  0  0  0  0  0  0  0  0
   38.3130   21.8840   35.1020 C   0  0  0  0  0  0  0  0  0  0  0  0
   37.1230   21.8850   35.7700 C   0  0  0  0  0  0  0  0  0  0  0  0
   37.0230   22.6340   36.8770 N   0  0  0  0  0  0  0  0  0  0  0  0
   38.0270   23.3790   37.3570 C   0  0  0  0  0  0  0  0  0  0  0  0
   39.1960   23.3890   36.7150 N   0  0  0  0  0  0  0  0  0  0  0  0
   40.3390   22.6840   35.0860 H   0  0  0  0  0  0  0  0  0  0  0  0
   38.5450   21.3450   34.2160 H   0  0  0  0  0  0  0  0  0  0  0  0
   37.7460   23.9070   38.2550 H   0  0  0  0  0  0  0  0  0  0  0  0
  1  5  1  0  0  0  0
  1 27  1  0  0  0  0
  1  3  1  0  0  0  0
  2  1  1  0  0  0  0
  4 12  1  0  0  0  0
  4 13  1  0  0  0  0
  5  4  2  0  0  0  0
  6  7  2  0  0  0  0
  6  5  1  0  0  0  0
  7 11  1  0  0  0  0
  8  9  1  0  0  0  0
  8  7  1  0  0  0  0
  9 10  2  0  0  0  0
 10 11  1  0  0  0  0
 10 17  1  0  0  0  0
 11 12  2  0  0  0  0
 12 18  1  0  0  0  0
 14  6  1  0  0  0  0
 15  8  1  0  0  0  0
 16  9  1  0  0  0  0
 18 26  1  0  0  0  0
 19 18  1  0  0  0  0
 19 21  1  0  0  0  0
 20 19  1  0  0  0  0
 21 23  1  0  0  0  0
 22 21  1  0  0  0  0
 23 24  1  0  0  0  0
 23 25  1  0  0  0  0
 26 25  1  0  0  0  0
 27 32  1  0  0  0  0
 28 27  1  0  0  0  0
 29 27  1  0  0  0  0
 30 33  1  6  0  0  0
 30 37  1  0  0  0  0
 31 30  1  0  0  0  0
 31 35  1  0  0  0  0
 32 36  1  1  0  0  0
 32 31  1  0  0  0  0
 32 30  1  0  0  0  0
 34 31  1  0  0  0  0
 37 38  1  0  0  0  0
 37 42  1  0  0  0  0
 37 39  1  0  0  0  0
 40 45  1  0  0  0  0
 41 40  2  0  0  0  0
 41 42  1  0  0  0  0
 42 43  2  0  0  0  0
 43 44  1  0  0  0  0
 44 48  1  0  0  0  0
 45 44  2  0  0  0  0
 46 40  1  0  0  0  0
 47 41  1  0  0  0  0
M  END
>  <minimizedAffinity>
-5.79153681

$$$$
