
 OpenBabel03262520493D

 48 52  0  0  1  0  0  0  0  0999 V2000
   40.2900   31.0830   43.8390 C   0  0  0  0  0  0  0  0  0  0  0  0
   41.3170   31.4350   43.9890 H   0  0  0  0  0  0  0  0  0  0  0  0
   39.6720   31.8570   43.3120 H   0  0  0  0  0  0  0  0  0  0  0  0
   39.4400   28.8050   43.3630 C   0  0  0  0  0  0  0  0  0  0  0  0
   40.2210   29.8730   42.9620 C   0  0  0  0  0  0  0  0  0  0  0  0
   40.9090   29.7780   41.7580 C   0  0  0  0  0  0  0  0  0  0  0  0
   40.8230   28.6470   40.9670 C   0  0  0  0  0  0  0  0  0  0  0  0
   41.3910   28.3480   39.7860 N   0  0  0  0  0  0  0  0  0  0  0  0
   40.9640   27.1120   39.4660 C   0  0  0  0  0  0  0  0  0  0  0  0
   40.1230   26.5910   40.4190 C   0  0  0  0  0  0  0  0  0  0  0  0
   40.0420   27.5930   41.3840 C   0  0  0  0  0  0  0  0  0  0  0  0
   39.3640   27.6860   42.5710 C   0  0  0  0  0  0  0  0  0  0  0  0
   38.8460   28.7290   44.2600 H   0  0  0  0  0  0  0  0  0  0  0  0
   41.5160   30.6100   41.4460 H   0  0  0  0  0  0  0  0  0  0  0  0
   42.0310   28.9780   39.2530 H   0  0  0  0  0  0  0  0  0  0  0  0
   41.2870   26.6400   38.5440 H   0  0  0  0  0  0  0  0  0  0  0  0
   39.6530   25.6320   40.4010 H   0  0  0  0  0  0  0  0  0  0  0  0
   38.5680   26.5380   42.9330 N   0  0  0  0  0  0  0  0  0  0  0  0
   38.9890   25.2970   43.5240 C   0  0  0  0  0  3  0  0  0  0  0  0
   40.0660   25.0710   43.3780 H   0  0  0  0  0  0  0  0  0  0  0  0
   38.1990   24.1990   42.8650 C   0  0  0  0  0  3  0  0  0  0  0  0
   38.5240   23.2450   43.3430 H   0  0  0  0  0  0  0  0  0  0  0  0
   36.7860   24.3380   43.0290 N   0  0  0  0  0  0  0  0  0  0  0  0
   36.4160   23.8090   43.8620 H   0  0  0  0  0  0  0  0  0  0  0  0
   36.2550   25.6500   42.9680 C   0  0  0  0  0  2  0  0  0  0  0  0
   37.1780   26.7570   42.6260 C   0  0  0  0  0  2  0  0  0  0  0  0
   39.6150   30.7200   45.1570 C   0  0  0  0  0  0  0  0  0  0  0  0
   39.9370   29.6850   45.4160 H   0  0  0  0  0  0  0  0  0  0  0  0
   38.5210   30.7090   44.9380 H   0  0  0  0  0  0  0  0  0  0  0  0
   38.8370   32.3980   46.8780 C   0  0  1  0  0  0  0  0  0  0  0  0
   39.9810   33.0910   46.1720 C   0  0  0  0  0  0  0  0  0  0  0  0
   39.9420   31.6200   46.2890 C   0  0  2  0  0  0  0  0  0  0  0  0
   37.8450   32.4960   46.3670 H   0  0  0  0  0  0  0  0  0  0  0  0
   39.7900   33.5190   45.1550 H   0  0  0  0  0  0  0  0  0  0  0  0
   40.7170   33.6830   46.7430 H   0  0  0  0  0  0  0  0  0  0  0  0
   40.6770   31.1960   47.0250 H   0  0  0  0  0  0  0  0  0  0  0  0
   38.7360   32.6600   48.3510 C   0  0  0  0  0  0  0  0  0  0  0  0
   39.7420   32.7280   48.8310 H   0  0  0  0  0  0  0  0  0  0  0  0
   38.2530   33.6650   48.5260 H   0  0  0  0  0  0  0  0  0  0  0  0
   37.4750   30.2280   50.9010 C   0  0  0  0  0  0  0  0  0  0  0  0
   38.2920   31.1880   50.2270 C   0  0  0  0  0  0  0  0  0  0  0  0
   37.8730   31.6730   49.0230 C   0  0  0  0  0  0  0  0  0  0  0  0
   36.7100   31.2200   48.5320 N   0  0  0  0  0  0  0  0  0  0  0  0
   35.9430   30.3220   49.1610 C   0  0  0  0  0  0  0  0  0  0  0  0
   36.3390   29.8390   50.3400 N   0  0  0  0  0  0  0  0  0  0  0  0
   37.8010   29.8350   51.8630 H   0  0  0  0  0  0  0  0  0  0  0  0
   39.1850   31.4470   50.7420 H   0  0  0  0  0  0  0  0  0  0  0  0
   35.0500   30.0900   48.6020 H   0  0  0  0  0  0  0  0  0  0  0  0
  1  2  1  0  0  0  0
  1 27  1  0  0  0  0
  3  1  1  0  0  0  0
  4 13  1  0  0  0  0
  5  4  1  0  0  0  0
  5  1  1  0  0  0  0
  6  5  2  0  0  0  0
  7 11  2  0  0  0  0
  7  6  1  0  0  0  0
  8  7  1  0  0  0  0
  9  8  1  0  0  0  0
  9 10  2  0  0  0  0
 10 11  1  0  0  0  0
 11 12  1  0  0  0  0
 12 18  1  0  0  0  0
 12  4  2  0  0  0  0
 14  6  1  0  0  0  0
 15  8  1  0  0  0  0
 16  9  1  0  0  0  0
 17 10  1  0  0  0  0
 18 19  1  0  0  0  0
 20 19  1  0  0  0  0
 21 23  1  0  0  0  0
 21 22  1  0  0  0  0
 21 19  1  0  0  0  0
 23 24  1  0  0  0  0
 25 23  1  0  0  0  0
 26 18  1  0  0  0  0
 26 25  1  0  0  0  0
 27 28  1  0  0  0  0
 27 32  1  0  0  0  0
 29 27  1  0  0  0  0
 30 33  1  6  0  0  0
 30 37  1  0  0  0  0
 31 32  1  0  0  0  0
 31 35  1  0  0  0  0
 31 30  1  0  0  0  0
 32 30  1  0  0  0  0
 32 36  1  1  0  0  0
 34 31  1  0  0  0  0
 37 39  1  0  0  0  0
 37 38  1  0  0  0  0
 37 42  1  0  0  0  0
 40 46  1  0  0  0  0
 41 47  1  0  0  0  0
 41 40  2  0  0  0  0
 42 41  1  0  0  0  0
 43 42  2  0  0  0  0
 43 44  1  0  0  0  0
 44 45  2  0  0  0  0
 45 40  1  0  0  0  0
 48 44  1  0  0  0  0
M  END
>  <minimizedAffinity>
-5.93453217

>  <minimizedRMSD>
0.735389411

$$$$
