
 OpenBabel03272508343D

 19 21  0  0  0  0  0  0  0  0999 V2000
   36.7610   30.7260   48.3970 C   0  0  0  0  0  0  0  0  0  0  0  0
   37.9250   30.5940   47.6710 C   0  0  0  0  0  0  0  0  0  0  0  0
   38.7070   31.7200   47.9180 C   0  0  0  0  0  0  0  0  0  0  0  0
   38.0000   32.4830   48.7720 N   0  0  0  0  0  0  0  0  0  0  0  0
   36.8180   31.8980   49.0740 N   0  0  0  0  0  0  0  0  0  0  0  0
   38.2230   29.7880   47.0190 H   0  0  0  0  0  0  0  0  0  0  0  0
   39.6680   31.9330   47.5130 H   0  0  0  0  0  0  0  0  0  0  0  0
   34.4340   27.9160   49.3130 C   0  0  0  0  0  0  0  0  0  0  0  0
   35.4740   28.8360   49.4410 C   0  0  0  0  0  0  0  0  0  0  0  0
   35.7020   29.7220   48.3780 C   0  0  0  0  0  0  0  0  0  0  0  0
   34.8910   29.6370   47.2670 N   0  0  0  0  0  0  0  0  0  0  0  0
   33.8880   28.7210   47.1910 C   0  0  0  0  0  0  0  0  0  0  0  0
   33.6590   27.8680   48.2010 N   0  0  0  0  0  0  0  0  0  0  0  0
   34.2590   27.2350   50.1350 H   0  0  0  0  0  0  0  0  0  0  0  0
   36.1090   28.9100   50.2990 H   0  0  0  0  0  0  0  0  0  0  0  0
   33.3290   28.7640   46.2630 H   0  0  0  0  0  0  0  0  0  0  0  0
   38.4110   33.7520   49.3110 C   0  0  0  0  0  3  0  0  0  0  0  0
   39.6500   33.8710   50.0970 C   0  0  0  0  0  2  0  0  0  0  0  0
   39.6840   34.4000   48.7070 C   0  0  0  0  0  2  0  0  0  0  0  0
  1  5  2  0  0  0  0
  2  3  2  0  0  0  0
  2  1  1  0  0  0  0
  3  4  1  0  0  0  0
  4  5  1  0  0  0  0
  4 17  1  0  0  0  0
  6  2  1  0  0  0  0
  7  3  1  0  0  0  0
  8  9  1  0  0  0  0
  8 14  1  0  0  0  0
  9 15  1  0  0  0  0
 10  1  1  0  0  0  0
 10  9  2  0  0  0  0
 11 10  1  0  0  0  0
 12 11  2  0  0  0  0
 12 13  1  0  0  0  0
 13  8  2  0  0  0  0
 16 12  1  0  0  0  0
 17 18  1  0  0  0  0
 19 17  1  0  0  0  0
 19 18  1  0  0  0  0
M  END
>  <minimizedAffinity>
-4.33733606

>  <minimizedRMSD>
2.87992644

$$$$
