
 OpenBabel03272508573D

 34 37  0  0  1  0  0  0  0  0999 V2000
   38.3560   31.8470   44.5350 C   0  0  0  0  0  0  0  0  0  0  0  0
   37.2110   32.3530   44.4110 O   0  0  0  0  0  0  0  0  0  0  0  0
   38.9410   31.6360   45.8330 N   0  0  0  0  0  0  0  0  0  0  0  0
   39.9470   31.4060   45.9900 H   0  0  0  0  0  0  0  0  0  0  0  0
   39.1320   31.4560   43.3500 C   0  0  0  0  0  0  0  0  0  0  0  0
   40.2130   30.6340   43.5140 C   0  0  0  0  0  0  0  0  0  0  0  0
   40.9400   30.2400   42.4040 C   0  0  0  0  0  0  0  0  0  0  0  0
   40.5270   30.7050   41.1940 C   0  0  0  0  0  0  0  0  0  0  0  0
   39.4360   31.5400   40.9980 C   0  0  0  0  0  0  0  0  0  0  0  0
   38.7670   31.8880   42.1250 N   0  0  0  0  0  0  0  0  0  0  0  0
   40.5620   30.2500   44.4820 H   0  0  0  0  0  0  0  0  0  0  0  0
   41.8020   29.5980   42.4400 H   0  0  0  0  0  0  0  0  0  0  0  0
   41.0630   30.4250   40.2860 H   0  0  0  0  0  0  0  0  0  0  0  0
   39.0610   32.0140   39.6620 C   0  0  0  0  0  0  0  0  0  0  0  0
   39.1230   33.2710   39.4530 O   0  0  0  0  0  0  0  0  0  0  0  0
   38.6420   30.9630   38.6820 C   0  0  0  0  0  3  0  0  0  0  0  0
   37.1500   31.0820   38.3100 C   0  0  0  0  0  2  0  0  0  0  0  0
   37.6270   29.9470   39.1100 C   0  0  0  0  0  2  0  0  0  0  0  0
   38.4300   31.1300   48.2140 C   0  0  2  0  0  0  0  0  0  0  0  0
   38.7020   32.5840   48.1350 C   0  0  0  0  0  0  0  0  0  0  0  0
   38.0720   31.7540   46.9820 C   0  0  1  0  0  0  0  0  0  0  0  0
   39.3670   30.5180   48.2890 H   0  0  0  0  0  0  0  0  0  0  0  0
   38.0010   33.2490   48.6900 H   0  0  0  0  0  0  0  0  0  0  0  0
   39.7230   32.9470   48.0010 H   0  0  0  0  0  0  0  0  0  0  0  0
   36.9930   32.0290   46.7830 H   0  0  0  0  0  0  0  0  0  0  0  0
   35.0830   30.2350   49.5140 C   0  0  0  0  0  0  0  0  0  0  0  0
   35.4120   29.5640   50.7280 C   0  0  0  0  0  0  0  0  0  0  0  0
   36.8080   29.4390   51.0900 C   0  0  0  0  0  0  0  0  0  0  0  0
   37.7580   29.9670   50.2550 N   0  0  0  0  0  0  0  0  0  0  0  0
   37.3600   30.5930   49.1110 C   0  0  0  0  0  0  0  0  0  0  0  0
   36.0390   30.7460   48.7090 N   0  0  0  0  0  0  0  0  0  0  0  0
   34.0280   30.2990   49.2930 H   0  0  0  0  0  0  0  0  0  0  0  0
   34.6400   29.1720   51.3400 H   0  0  0  0  0  0  0  0  0  0  0  0
   37.0450   28.9340   52.0040 H   0  0  0  0  0  0  0  0  0  0  0  0
  1  3  1  0  0  0  0
  2  1  2  0  0  0  0
  3  4  1  0  0  0  0
  3 21  1  0  0  0  0
  5  6  1  0  0  0  0
  5  1  1  0  0  0  0
  6 11  1  0  0  0  0
  7 12  1  0  0  0  0
  7  6  2  0  0  0  0
  8  7  1  0  0  0  0
  9  8  2  0  0  0  0
  9 10  1  0  0  0  0
 10  5  2  0  0  0  0
 13  8  1  0  0  0  0
 14  9  1  0  0  0  0
 15 14  2  0  0  0  0
 16 18  1  0  0  0  0
 16 14  1  0  0  0  0
 17 16  1  0  0  0  0
 17 18  1  0  0  0  0
 19 22  1  6  0  0  0
 19 30  1  0  0  0  0
 20 19  1  0  0  0  0
 20 23  1  0  0  0  0
 21 25  1  6  0  0  0
 21 20  1  0  0  0  0
 21 19  1  0  0  0  0
 24 20  1  0  0  0  0
 26 27  1  0  0  0  0
 27 28  2  0  0  0  0
 27 33  1  0  0  0  0
 28 34  1  0  0  0  0
 29 28  1  0  0  0  0
 30 29  2  0  0  0  0
 31 30  1  0  0  0  0
 31 26  2  0  0  0  0
 32 26  1  0  0  0  0
M  END
>  <minimizedAffinity>
-4.81806469

>  <minimizedRMSD>
0.43954733

$$$$
