REMARK  Name = 
REMARK  2 active torsions:
REMARK  status: ('A' for Active; 'I' for Inactive)
REMARK    1  A    between atoms: C_5  and  O_7
REMARK    2  A    between atoms: O_7  and  C_11
REMARK                            x       y       z     vdW  Elec       q    Type
REMARK                         _______ _______ _______ _____ _____    ______ ____
ROOT
ATOM      1  C   UNL     1      37.330  30.235  51.418  0.00  0.00    +0.000 A 
ATOM      2  C   UNL     1      38.080  30.738  50.352  0.00  0.00    +0.000 A 
ATOM      3  C   UNL     1      37.701  30.376  49.050  0.00  0.00    +0.000 A 
ATOM      4  N   UNL     1      36.612  29.544  48.890  0.00  0.00    +0.000 NA
ATOM      5  C   UNL     1      35.917  29.082  49.967  0.00  0.00    +0.000 A 
ATOM      6  N   UNL     1      36.284  29.433  51.215  0.00  0.00    +0.000 NA
ATOM      7  H   UNL     1      37.633  30.521  52.414  0.00  0.00    +0.000 HD
ATOM      8  H   UNL     1      38.940  31.393  50.451  0.00  0.00    +0.000 HD
ATOM      9  H   UNL     1      38.242  30.734  48.200  0.00  0.00    +0.000 HD
ENDROOT
BRANCH   5  10
ATOM     10  O   UNL     1      34.866  28.267  49.598  0.00  0.00    +0.000 OA
BRANCH  10  11
ATOM     11  C   UNL     1      34.056  27.715  50.621  0.00  0.00    +0.000 C 
ATOM     12  C   UNL     1      32.579  27.749  50.503  0.00  0.00    +0.000 C 
ATOM     13  C   UNL     1      33.245  28.779  51.354  0.00  0.00    +0.000 C 
ENDBRANCH  10  11
ENDBRANCH   5  10
TORSDOF 2
