
 OpenBabel03272507413D

 35 38  0  0  0  0  0  0  0  0999 V2000
   38.1630   32.1650   47.2780 C   0  0  0  0  0  0  0  0  0  0  0  0
   37.7730   32.6080   48.5300 C   0  0  0  0  0  0  0  0  0  0  0  0
   38.5180   33.5530   49.2000 C   0  0  0  0  0  0  0  0  0  0  0  0
   39.6730   34.0650   48.6100 C   0  0  0  0  0  0  0  0  0  0  0  0
   40.0610   33.6260   47.3690 C   0  0  0  0  0  0  0  0  0  0  0  0
   39.2920   32.6830   46.7310 C   0  0  0  0  0  0  0  0  0  0  0  0
   38.2620   33.9390   50.1830 H   0  0  0  0  0  0  0  0  0  0  0  0
   40.2500   34.8130   49.1580 H   0  0  0  0  0  0  0  0  0  0  0  0
   40.9640   34.0410   46.9330 H   0  0  0  0  0  0  0  0  0  0  0  0
   39.7210   32.2150   45.3880 C   0  0  0  0  0  0  0  0  0  0  0  0
   40.5800   31.1930   45.0500 C   0  0  0  0  0  0  0  0  0  0  0  0
   40.6390   31.1720   43.6490 C   0  0  0  0  0  0  0  0  0  0  0  0
   39.8090   32.1860   43.2330 C   0  0  0  0  0  0  0  0  0  0  0  0
   39.2790   32.7870   44.2790 O   0  0  0  0  0  0  0  0  0  0  0  0
   41.0310   30.6220   45.8450 H   0  0  0  0  0  0  0  0  0  0  0  0
   41.2740   30.4240   43.2060 H   0  0  0  0  0  0  0  0  0  0  0  0
   39.6920   32.3650   42.1730 H   0  0  0  0  0  0  0  0  0  0  0  0
   36.6770   30.4090   46.1290 N   0  0  0  0  0  0  0  0  0  0  0  0
   37.3400   31.1880   46.6510 C   0  0  0  0  0  0  0  0  0  0  0  0
   36.6470   32.1840   49.2330 O   0  0  0  0  0  0  0  0  0  0  0  0
   36.6400   31.1620   50.1140 C   0  0  0  0  0  0  0  0  0  0  0  0
   35.5410   30.3060   49.9130 C   0  0  0  0  0  0  0  0  0  0  0  0
   35.3590   29.1970   50.7190 C   0  0  0  0  0  0  0  0  0  0  0  0
   36.2790   28.9750   51.7010 N   0  0  0  0  0  0  0  0  0  0  0  0
   37.3330   29.8150   51.8790 C   0  0  0  0  0  0  0  0  0  0  0  0
   37.4930   30.8700   51.1000 N   0  0  0  0  0  0  0  0  0  0  0  0
   34.5620   28.4990   50.6390 H   0  0  0  0  0  0  0  0  0  0  0  0
   38.0590   29.6390   52.6570 H   0  0  0  0  0  0  0  0  0  0  0  0
   34.1980   29.3460   48.1210 C   0  0  0  0  0  0  0  0  0  0  0  0
   34.6900   28.1540   47.9700 O   0  0  0  0  0  0  0  0  0  0  0  0
   34.5550   30.4620   48.9300 N   0  0  0  0  0  0  0  0  0  0  0  0
   34.0220   31.3190   48.6960 H   0  0  0  0  0  0  0  0  0  0  0  0
   33.0280   29.3770   47.1820 C   0  0  0  0  0  3  0  0  0  0  0  0
   33.1320   30.5270   46.1850 C   0  0  0  0  0  2  0  0  0  0  0  0
   33.1290   29.1010   45.7610 C   0  0  0  0  0  2  0  0  0  0  0  0
  1  2  1  0  0  0  0
  2  3  2  0  0  0  0
  2 20  1  0  0  0  0
  3  7  1  0  0  0  0
  4  8  1  0  0  0  0
  4  3  1  0  0  0  0
  5  4  2  0  0  0  0
  6  1  2  0  0  0  0
  6  5  1  0  0  0  0
  9  5  1  0  0  0  0
 10  6  1  0  0  0  0
 11 10  2  0  0  0  0
 11 15  1  0  0  0  0
 12 11  1  0  0  0  0
 13 12  2  0  0  0  0
 13 14  1  0  0  0  0
 14 10  1  0  0  0  0
 16 12  1  0  0  0  0
 17 13  1  0  0  0  0
 18 19  3  0  0  0  0
 19  1  1  0  0  0  0
 20 21  1  0  0  0  0
 21 26  1  0  0  0  0
 22 21  2  0  0  0  0
 22 23  1  0  0  0  0
 23 24  2  0  0  0  0
 24 25  1  0  0  0  0
 25 28  1  0  0  0  0
 26 25  2  0  0  0  0
 27 23  1  0  0  0  0
 29 31  1  0  0  0  0
 30 29  2  0  0  0  0
 31 22  1  0  0  0  0
 32 31  1  0  0  0  0
 33 29  1  0  0  0  0
 34 33  1  0  0  0  0
 35 34  1  0  0  0  0
 35 33  1  0  0  0  0
M  END
>  <minimizedAffinity>
-5.6621151

>  <minimizedRMSD>
0.284317374

$$$$
