
 OpenBabel03272509153D

 38 41  0  0  1  0  0  0  0  0999 V2000
   34.5680   30.1600   47.0920 C   0  0  0  0  0  0  0  0  0  0  0  0
   35.9330   30.5720   47.1050 C   0  0  0  0  0  0  0  0  0  0  0  0
   36.5690   30.7220   45.8640 C   0  0  0  0  0  0  0  0  0  0  0  0
   35.8640   30.4690   44.7320 N   0  0  0  0  0  0  0  0  0  0  0  0
   34.5790   30.0820   44.7600 C   0  0  0  0  0  0  0  0  0  0  0  0
   33.9400   29.9300   45.9280 N   0  0  0  0  0  0  0  0  0  0  0  0
   33.9710   30.0210   47.9720 H   0  0  0  0  0  0  0  0  0  0  0  0
   34.0650   29.8950   43.8340 H   0  0  0  0  0  0  0  0  0  0  0  0
   36.5020   30.7790   48.4000 N   0  0  0  0  0  0  0  0  0  0  0  0
   36.9460   31.9000   49.2170 C   0  0  0  0  0  0  0  0  0  0  0  0
   38.3360   31.4100   49.6550 C   0  0  0  0  0  0  0  0  0  0  0  0
   38.1820   29.8980   49.7700 C   0  0  0  0  0  0  0  0  0  0  0  0
   36.7900   29.6340   49.2940 C   0  0  1  0  0  0  0  0  0  0  0  0
   36.2910   32.1280   50.0560 H   0  0  0  0  0  0  0  0  0  0  0  0
   37.0820   32.7920   48.5540 H   0  0  0  0  0  0  0  0  0  0  0  0
   38.6130   31.8710   50.6160 H   0  0  0  0  0  0  0  0  0  0  0  0
   39.0380   31.6720   48.8370 H   0  0  0  0  0  0  0  0  0  0  0  0
   38.9150   29.3380   49.1730 H   0  0  0  0  0  0  0  0  0  0  0  0
   38.2730   29.5860   50.8450 H   0  0  0  0  0  0  0  0  0  0  0  0
   36.6360   28.6880   48.7850 H   0  0  0  0  0  0  0  0  0  0  0  0
   34.7570   28.8810   50.5230 C   0  0  0  0  0  0  0  0  0  0  0  0
   34.3620   28.0700   49.6350 O   0  0  0  0  0  0  0  0  0  0  0  0
   35.8920   29.7450   50.4360 N   0  0  0  0  0  0  0  0  0  0  0  0
   34.0770   28.8020   51.3630 H   0  0  0  0  0  0  0  0  0  0  0  0
   35.9760   30.4050   51.2350 H   0  0  0  0  0  0  0  0  0  0  0  0
   37.9340   31.1370   45.7630 C   0  0  0  0  0  0  0  0  0  0  0  0
   38.3350   32.2920   46.3990 C   0  0  0  0  0  0  0  0  0  0  0  0
   39.6210   32.7780   46.3700 C   0  0  0  0  0  0  0  0  0  0  0  0
   40.5410   32.0450   45.6550 C   0  0  0  0  0  0  0  0  0  0  0  0
   40.2230   30.8790   44.9900 C   0  0  0  0  0  0  0  0  0  0  0  0
   38.8990   30.4630   45.0740 C   0  0  0  0  0  0  0  0  0  0  0  0
   37.6080   32.8630   46.9570 H   0  0  0  0  0  0  0  0  0  0  0  0
   39.8640   33.6930   46.8930 H   0  0  0  0  0  0  0  0  0  0  0  0
   41.5620   32.4420   45.6390 H   0  0  0  0  0  0  0  0  0  0  0  0
   40.9960   30.3790   44.4640 H   0  0  0  0  0  0  0  0  0  0  0  0
   38.5520   29.2060   44.3540 C   0  0  0  0  0  0  0  0  0  0  0  0
   38.2300   29.3360   42.8740 C   0  0  0  0  0  0  0  0  0  0  0  0
   39.4720   28.6250   43.3550 C   0  0  0  0  0  0  0  0  0  0  0  0
  1  2  1  0  0  0  0
  1  7  1  0  0  0  0
  2  9  1  0  0  0  0
  3  2  2  0  0  0  0
  4  5  2  0  0  0  0
  4  3  1  0  0  0  0
  5  6  1  0  0  0  0
  6  1  2  0  0  0  0
  8  5  1  0  0  0  0
  9 10  1  0  0  0  0
  9 13  1  0  0  0  0
 10 11  1  0  0  0  0
 10 14  1  0  0  0  0
 11 12  1  0  0  0  0
 11 16  1  0  0  0  0
 12 19  1  0  0  0  0
 13 20  1  6  0  0  0
 13 12  1  0  0  0  0
 13 23  1  0  0  0  0
 15 10  1  0  0  0  0
 17 11  1  0  0  0  0
 18 12  1  0  0  0  0
 21 24  1  0  0  0  0
 22 21  2  0  0  0  0
 23 21  1  0  0  0  0
 23 25  1  0  0  0  0
 26  3  1  0  0  0  0
 26 27  1  0  0  0  0
 27 32  1  0  0  0  0
 28 27  2  0  0  0  0
 28 33  1  0  0  0  0
 29 28  1  0  0  0  0
 30 31  1  0  0  0  0
 30 29  2  0  0  0  0
 31 26  2  0  0  0  0
 34 29  1  0  0  0  0
 35 30  1  0  0  0  0
 36 31  1  0  0  0  0
 37 38  1  0  0  0  0
 37 36  1  0  0  0  0
 38 36  1  0  0  0  0
M  END
>  <minimizedAffinity>
-5.43148088

>  <minimizedRMSD>
1.14171648

$$$$
