
 OpenBabel03272510303D

 22 24  0  0  0  0  0  0  0  0999 V2000
   37.2590   31.3330   49.1080 C   0  0  0  0  0  0  0  0  0  0  0  0
   37.4070   32.6040   49.6690 C   0  0  0  0  0  0  0  0  0  0  0  0
   38.3680   33.4070   49.0970 C   0  0  0  0  0  0  0  0  0  0  0  0
   39.1080   32.9400   48.0400 N   0  0  0  0  0  0  0  0  0  0  0  0
   38.9240   31.6850   47.5270 C   0  0  0  0  0  0  0  0  0  0  0  0
   37.9740   30.8630   48.0790 N   0  0  0  0  0  0  0  0  0  0  0  0
   36.8000   32.9290   50.5020 H   0  0  0  0  0  0  0  0  0  0  0  0
   38.5560   34.4090   49.4630 H   0  0  0  0  0  0  0  0  0  0  0  0
   36.1940   30.4400   49.6900 C   0  0  0  0  0  0  0  0  0  0  0  0
   36.2030   29.0070   49.5490 C   0  0  0  0  0  0  0  0  0  0  0  0
   36.7110   29.5840   50.8580 C   0  0  0  0  0  0  0  0  0  0  0  0
   35.2310   30.9890   49.9200 H   0  0  0  0  0  0  0  0  0  0  0  0
   35.2190   28.4870   49.5580 H   0  0  0  0  0  0  0  0  0  0  0  0
   36.9630   28.4820   48.9380 H   0  0  0  0  0  0  0  0  0  0  0  0
   36.0400   29.4740   51.7420 H   0  0  0  0  0  0  0  0  0  0  0  0
   37.7820   29.5940   51.0860 H   0  0  0  0  0  0  0  0  0  0  0  0
   39.6940   31.1650   46.3880 C   0  0  0  0  0  0  0  0  0  0  0  0
   40.7390   31.5350   46.3850 H   0  0  0  0  0  0  0  0  0  0  0  0
   39.7650   30.0610   46.4720 H   0  0  0  0  0  0  0  0  0  0  0  0
   38.9940   31.4770   45.0850 C   0  0  0  0  0  3  0  0  0  0  0  0
   37.8200   32.3660   45.0340 C   0  0  0  0  0  2  0  0  0  0  0  0
   39.1760   32.7800   44.4280 C   0  0  0  0  0  2  0  0  0  0  0  0
  1  2  1  0  0  0  0
  1  9  1  0  0  0  0
  2  7  1  0  0  0  0
  3  8  1  0  0  0  0
  3  2  2  0  0  0  0
  4  3  1  0  0  0  0
  5  4  2  0  0  0  0
  5  6  1  0  0  0  0
  6  1  2  0  0  0  0
  9 12  1  0  0  0  0
  9 11  1  0  0  0  0
 10 13  1  0  0  0  0
 10  9  1  0  0  0  0
 10 11  1  0  0  0  0
 11 16  1  0  0  0  0
 11 15  1  0  0  0  0
 14 10  1  0  0  0  0
 17 19  1  0  0  0  0
 17  5  1  0  0  0  0
 18 17  1  0  0  0  0
 20 17  1  0  0  0  0
 21 20  1  0  0  0  0
 22 21  1  0  0  0  0
 22 20  1  0  0  0  0
M  END
>  <minimizedAffinity>
-4.76241398

>  <minimizedRMSD>
0.584112525

$$$$
