
 OpenBabel03272507433D

 35 38  0  0  0  0  0  0  0  0999 V2000
   37.3230   25.9920   31.8230 C   0  0  0  0  0  0  0  0  0  0  0  0
   37.2160   24.6440   32.1190 C   0  0  0  0  0  0  0  0  0  0  0  0
   36.0780   23.9440   31.7810 C   0  0  0  0  0  0  0  0  0  0  0  0
   35.0310   24.6010   31.1380 C   0  0  0  0  0  0  0  0  0  0  0  0
   35.1360   25.9380   30.8450 C   0  0  0  0  0  0  0  0  0  0  0  0
   36.2860   26.6020   31.1960 C   0  0  0  0  0  0  0  0  0  0  0  0
   35.9360   22.8870   31.9860 H   0  0  0  0  0  0  0  0  0  0  0  0
   34.1370   24.0280   30.8800 H   0  0  0  0  0  0  0  0  0  0  0  0
   34.3050   26.4240   30.3430 H   0  0  0  0  0  0  0  0  0  0  0  0
   36.3900   28.0490   30.8740 C   0  0  0  0  0  0  0  0  0  0  0  0
   35.9480   29.1390   31.5890 C   0  0  0  0  0  0  0  0  0  0  0  0
   36.2980   30.2730   30.8420 C   0  0  0  0  0  0  0  0  0  0  0  0
   36.9320   29.7900   29.7220 C   0  0  0  0  0  0  0  0  0  0  0  0
   36.9730   28.4730   29.7640 O   0  0  0  0  0  0  0  0  0  0  0  0
   35.4460   28.9640   32.5280 H   0  0  0  0  0  0  0  0  0  0  0  0
   36.0250   31.2280   31.2590 H   0  0  0  0  0  0  0  0  0  0  0  0
   37.2980   30.4910   28.9840 H   0  0  0  0  0  0  0  0  0  0  0  0
   39.5080   27.1560   32.5190 N   0  0  0  0  0  0  0  0  0  0  0  0
   38.5300   26.6450   32.2030 C   0  0  0  0  0  0  0  0  0  0  0  0
   38.1820   23.8670   32.7550 O   0  0  0  0  0  0  0  0  0  0  0  0
   38.2830   23.7250   34.0930 C   0  0  0  0  0  0  0  0  0  0  0  0
   37.8860   22.4430   34.5150 C   0  0  0  0  0  0  0  0  0  0  0  0
   37.9190   22.1040   35.8550 C   0  0  0  0  0  0  0  0  0  0  0  0
   38.3480   23.0530   36.7340 N   0  0  0  0  0  0  0  0  0  0  0  0
   38.7260   24.2860   36.3060 C   0  0  0  0  0  0  0  0  0  0  0  0
   38.6900   24.5950   35.0220 N   0  0  0  0  0  0  0  0  0  0  0  0
   37.6380   21.1620   36.2610 H   0  0  0  0  0  0  0  0  0  0  0  0
   39.0650   25.0380   37.0040 H   0  0  0  0  0  0  0  0  0  0  0  0
   36.2010   20.7670   33.9760 C   0  0  0  0  0  0  0  0  0  0  0  0
   35.3860   20.8120   34.9850 O   0  0  0  0  0  0  0  0  0  0  0  0
   37.4350   21.4130   33.6780 N   0  0  0  0  0  0  0  0  0  0  0  0
   37.8960   21.0360   32.8310 H   0  0  0  0  0  0  0  0  0  0  0  0
   35.5590   19.7930   33.0330 C   0  0  0  0  0  3  0  0  0  0  0  0
   34.6960   20.4980   31.9900 C   0  0  0  0  0  2  0  0  0  0  0  0
   35.8950   19.6950   31.6240 C   0  0  0  0  0  2  0  0  0  0  0  0
  1  2  1  0  0  0  0
  1 19  1  0  0  0  0
  2 20  1  0  0  0  0
  3  7  1  0  0  0  0
  3  2  2  0  0  0  0
  4  3  1  0  0  0  0
  5  4  2  0  0  0  0
  5  6  1  0  0  0  0
  6  1  2  0  0  0  0
  8  4  1  0  0  0  0
  9  5  1  0  0  0  0
 10  6  1  0  0  0  0
 10 11  2  0  0  0  0
 11 15  1  0  0  0  0
 12 16  1  0  0  0  0
 12 11  1  0  0  0  0
 13 14  1  0  0  0  0
 13 12  2  0  0  0  0
 14 10  1  0  0  0  0
 17 13  1  0  0  0  0
 19 18  3  0  0  0  0
 20 21  1  0  0  0  0
 21 22  2  0  0  0  0
 21 26  1  0  0  0  0
 22 23  1  0  0  0  0
 23 27  1  0  0  0  0
 23 24  2  0  0  0  0
 25 24  1  0  0  0  0
 25 28  1  0  0  0  0
 26 25  2  0  0  0  0
 29 30  2  0  0  0  0
 31 29  1  0  0  0  0
 31 22  1  0  0  0  0
 32 31  1  0  0  0  0
 33 29  1  0  0  0  0
 34 33  1  0  0  0  0
 35 34  1  0  0  0  0
 35 33  1  0  0  0  0
M  END
>  <minimizedAffinity>
-5.66518974

$$$$

 OpenBabel03272507433D

 35 38  0  0  0  0  0  0  0  0999 V2000
   37.0250   26.7340   33.1990 C   0  0  0  0  0  0  0  0  0  0  0  0
   37.8250   25.6660   33.5650 C   0  0  0  0  0  0  0  0  0  0  0  0
   38.4240   25.6350   34.8060 C   0  0  0  0  0  0  0  0  0  0  0  0
   38.2200   26.6890   35.6950 C   0  0  0  0  0  0  0  0  0  0  0  0
   37.4270   27.7490   35.3330 C   0  0  0  0  0  0  0  0  0  0  0  0
   36.8460   27.7440   34.0880 C   0  0  0  0  0  0  0  0  0  0  0  0
   39.0610   24.8250   35.1490 H   0  0  0  0  0  0  0  0  0  0  0  0
   38.7050   26.6450   36.6730 H   0  0  0  0  0  0  0  0  0  0  0  0
   37.2850   28.5550   36.0450 H   0  0  0  0  0  0  0  0  0  0  0  0
   35.9900   28.8960   33.7060 C   0  0  0  0  0  0  0  0  0  0  0  0
   34.7920   29.3130   34.2430 C   0  0  0  0  0  0  0  0  0  0  0  0
   34.4050   30.4480   33.5170 C   0  0  0  0  0  0  0  0  0  0  0  0
   35.3980   30.6420   32.5860 C   0  0  0  0  0  0  0  0  0  0  0  0
   36.3230   29.7120   32.7180 O   0  0  0  0  0  0  0  0  0  0  0  0
   34.3780   28.7500   35.0650 H   0  0  0  0  0  0  0  0  0  0  0  0
   33.4780   30.9120   33.8070 H   0  0  0  0  0  0  0  0  0  0  0  0
   35.3170   31.4740   31.8990 H   0  0  0  0  0  0  0  0  0  0  0  0
   35.9570   26.6480   30.8620 N   0  0  0  0  0  0  0  0  0  0  0  0
   36.4420   26.6920   31.9010 C   0  0  0  0  0  0  0  0  0  0  0  0
   38.1120   24.5520   32.7790 O   0  0  0  0  0  0  0  0  0  0  0  0
   37.2850   23.4980   32.6210 C   0  0  0  0  0  0  0  0  0  0  0  0
   37.7580   22.3560   33.2940 C   0  0  0  0  0  0  0  0  0  0  0  0
   37.0470   21.1710   33.2510 C   0  0  0  0  0  0  0  0  0  0  0  0
   35.8840   21.1610   32.5390 N   0  0  0  0  0  0  0  0  0  0  0  0
   35.4440   22.2750   31.8960 C   0  0  0  0  0  0  0  0  0  0  0  0
   36.1360   23.3990   31.9470 N   0  0  0  0  0  0  0  0  0  0  0  0
   37.3280   20.2640   33.7280 H   0  0  0  0  0  0  0  0  0  0  0  0
   34.5240   22.2650   31.3320 H   0  0  0  0  0  0  0  0  0  0  0  0
   38.8580   22.2670   35.4670 C   0  0  0  0  0  0  0  0  0  0  0  0
   37.8880   22.4470   36.3110 O   0  0  0  0  0  0  0  0  0  0  0  0
   38.9390   22.2840   34.0450 N   0  0  0  0  0  0  0  0  0  0  0  0
   39.9120   22.2380   33.6950 H   0  0  0  0  0  0  0  0  0  0  0  0
   40.0510   22.0020   36.3350 C   0  0  0  0  0  3  0  0  0  0  0  0
   40.9650   23.2210   36.4320 C   0  0  0  0  0  2  0  0  0  0  0  0
   40.2730   22.6450   37.6180 C   0  0  0  0  0  2  0  0  0  0  0  0
  1  2  2  0  0  0  0
  1  6  1  0  0  0  0
  2  3  1  0  0  0  0
  3  7  1  0  0  0  0
  3  4  2  0  0  0  0
  4  8  1  0  0  0  0
  5  4  1  0  0  0  0
  5  9  1  0  0  0  0
  6  5  2  0  0  0  0
 10  6  1  0  0  0  0
 10 11  2  0  0  0  0
 11 15  1  0  0  0  0
 12 16  1  0  0  0  0
 12 11  1  0  0  0  0
 13 14  1  0  0  0  0
 13 12  2  0  0  0  0
 14 10  1  0  0  0  0
 17 13  1  0  0  0  0
 18 19  3  0  0  0  0
 19  1  1  0  0  0  0
 20  2  1  0  0  0  0
 21 20  1  0  0  0  0
 21 22  1  0  0  0  0
 22 31  1  0  0  0  0
 23 22  2  0  0  0  0
 23 27  1  0  0  0  0
 24 23  1  0  0  0  0
 25 26  1  0  0  0  0
 25 24  2  0  0  0  0
 26 21  2  0  0  0  0
 28 25  1  0  0  0  0
 29 30  2  0  0  0  0
 29 33  1  0  0  0  0
 31 29  1  0  0  0  0
 32 31  1  0  0  0  0
 33 34  1  0  0  0  0
 33 35  1  0  0  0  0
 34 35  1  0  0  0  0
M  END
>  <minimizedAffinity>
-5.39373064

$$$$

 OpenBabel03272507433D

 35 38  0  0  0  0  0  0  0  0999 V2000
   37.2180   22.7140   32.3120 C   0  0  0  0  0  0  0  0  0  0  0  0
   37.2740   24.0970   32.2650 C   0  0  0  0  0  0  0  0  0  0  0  0
   36.2670   24.8150   31.6590 C   0  0  0  0  0  0  0  0  0  0  0  0
   35.1860   24.1420   31.0920 C   0  0  0  0  0  0  0  0  0  0  0  0
   35.1300   22.7720   31.1380 C   0  0  0  0  0  0  0  0  0  0  0  0
   36.1520   22.0900   31.7510 C   0  0  0  0  0  0  0  0  0  0  0  0
   36.2550   25.8990   31.5910 H   0  0  0  0  0  0  0  0  0  0  0  0
   34.3980   24.7310   30.6160 H   0  0  0  0  0  0  0  0  0  0  0  0
   34.2770   22.2740   30.6880 H   0  0  0  0  0  0  0  0  0  0  0  0
   36.0820   20.6070   31.7960 C   0  0  0  0  0  0  0  0  0  0  0  0
   36.5350   19.6800   30.8830 C   0  0  0  0  0  0  0  0  0  0  0  0
   36.2190   18.4190   31.4070 C   0  0  0  0  0  0  0  0  0  0  0  0
   35.5950   18.6670   32.6070 C   0  0  0  0  0  0  0  0  0  0  0  0
   35.5260   19.9680   32.8140 O   0  0  0  0  0  0  0  0  0  0  0  0
   37.0180   20.0400   29.9880 H   0  0  0  0  0  0  0  0  0  0  0  0
   36.5050   17.5660   30.8150 H   0  0  0  0  0  0  0  0  0  0  0  0
   35.2540   17.8320   33.2030 H   0  0  0  0  0  0  0  0  0  0  0  0
   39.1750   21.5030   33.4600 N   0  0  0  0  0  0  0  0  0  0  0  0
   38.2970   22.0450   32.9560 C   0  0  0  0  0  0  0  0  0  0  0  0
   38.2900   24.8930   32.7900 O   0  0  0  0  0  0  0  0  0  0  0  0
   38.0980   25.8680   33.7020 C   0  0  0  0  0  0  0  0  0  0  0  0
   38.9170   25.6940   34.8340 C   0  0  0  0  0  0  0  0  0  0  0  0
   38.8640   26.5940   35.8830 C   0  0  0  0  0  0  0  0  0  0  0  0
   37.9980   27.6400   35.7710 N   0  0  0  0  0  0  0  0  0  0  0  0
   37.2160   27.7900   34.6700 C   0  0  0  0  0  0  0  0  0  0  0  0
   37.2770   26.9220   33.6760 N   0  0  0  0  0  0  0  0  0  0  0  0
   39.4440   26.5410   36.7720 H   0  0  0  0  0  0  0  0  0  0  0  0
   36.5300   28.6190   34.5830 H   0  0  0  0  0  0  0  0  0  0  0  0
   39.6340   23.7430   36.1070 C   0  0  0  0  0  0  0  0  0  0  0  0
   38.8210   23.7190   37.1190 O   0  0  0  0  0  0  0  0  0  0  0  0
   39.8310   24.6490   35.0260 N   0  0  0  0  0  0  0  0  0  0  0  0
   40.6730   24.4320   34.4640 H   0  0  0  0  0  0  0  0  0  0  0  0
   40.4520   22.4970   36.2670 C   0  0  0  0  0  3  0  0  0  0  0  0
   41.8580   22.8030   36.7760 C   0  0  0  0  0  2  0  0  0  0  0  0
   40.8890   21.9810   37.5520 C   0  0  0  0  0  2  0  0  0  0  0  0
  1 19  1  0  0  0  0
  2  1  1  0  0  0  0
  2 20  1  0  0  0  0
  3  2  2  0  0  0  0
  4  5  2  0  0  0  0
  4  3  1  0  0  0  0
  5  6  1  0  0  0  0
  6 10  1  0  0  0  0
  6  1  2  0  0  0  0
  7  3  1  0  0  0  0
  8  4  1  0  0  0  0
  9  5  1  0  0  0  0
 10 14  1  0  0  0  0
 11 12  1  0  0  0  0
 11 10  2  0  0  0  0
 12 13  2  0  0  0  0
 13 14  1  0  0  0  0
 13 17  1  0  0  0  0
 15 11  1  0  0  0  0
 16 12  1  0  0  0  0
 19 18  3  0  0  0  0
 20 21  1  0  0  0  0
 21 22  1  0  0  0  0
 22 31  1  0  0  0  0
 22 23  2  0  0  0  0
 23 27  1  0  0  0  0
 24 23  1  0  0  0  0
 25 24  2  0  0  0  0
 26 21  2  0  0  0  0
 26 25  1  0  0  0  0
 28 25  1  0  0  0  0
 29 33  1  0  0  0  0
 29 30  2  0  0  0  0
 31 29  1  0  0  0  0
 32 31  1  0  0  0  0
 33 34  1  0  0  0  0
 33 35  1  0  0  0  0
 34 35  1  0  0  0  0
M  END
>  <minimizedAffinity>
-5.34254742

$$$$

 OpenBabel03272507433D

 35 38  0  0  0  0  0  0  0  0999 V2000
   39.4310   24.6420   35.0410 C   0  0  0  0  0  0  0  0  0  0  0  0
   38.8650   25.8450   34.6510 C   0  0  0  0  0  0  0  0  0  0  0  0
   39.6630   26.9290   34.3570 C   0  0  0  0  0  0  0  0  0  0  0  0
   41.0490   26.8090   34.4520 C   0  0  0  0  0  0  0  0  0  0  0  0
   41.6110   25.6180   34.8370 C   0  0  0  0  0  0  0  0  0  0  0  0
   40.7830   24.5600   35.1220 C   0  0  0  0  0  0  0  0  0  0  0  0
   39.2780   27.8960   34.0470 H   0  0  0  0  0  0  0  0  0  0  0  0
   41.6640   27.6810   34.2140 H   0  0  0  0  0  0  0  0  0  0  0  0
   42.6920   25.5530   34.9020 H   0  0  0  0  0  0  0  0  0  0  0  0
   41.4010   23.2740   35.5380 C   0  0  0  0  0  0  0  0  0  0  0  0
   41.7580   22.8410   36.7960 C   0  0  0  0  0  0  0  0  0  0  0  0
   42.2980   21.5570   36.6350 C   0  0  0  0  0  0  0  0  0  0  0  0
   42.2310   21.2990   35.2860 C   0  0  0  0  0  0  0  0  0  0  0  0
   41.6960   22.3290   34.6600 O   0  0  0  0  0  0  0  0  0  0  0  0
   41.5820   23.4990   37.6310 H   0  0  0  0  0  0  0  0  0  0  0  0
   42.6350   21.0600   37.5290 H   0  0  0  0  0  0  0  0  0  0  0  0
   42.5960   20.3510   34.9150 H   0  0  0  0  0  0  0  0  0  0  0  0
   37.8100   22.7170   35.5670 N   0  0  0  0  0  0  0  0  0  0  0  0
   38.5400   23.5700   35.3270 C   0  0  0  0  0  0  0  0  0  0  0  0
   37.5030   26.1010   34.5160 O   0  0  0  0  0  0  0  0  0  0  0  0
   36.9730   26.9370   33.5980 C   0  0  0  0  0  0  0  0  0  0  0  0
   36.8290   26.3140   32.3450 C   0  0  0  0  0  0  0  0  0  0  0  0
   36.3020   27.0100   31.2720 C   0  0  0  0  0  0  0  0  0  0  0  0
   35.9360   28.3060   31.4820 N   0  0  0  0  0  0  0  0  0  0  0  0
   36.0850   28.8900   32.7000 C   0  0  0  0  0  0  0  0  0  0  0  0
   36.5890   28.2110   33.7160 N   0  0  0  0  0  0  0  0  0  0  0  0
   36.1570   26.6200   30.2940 H   0  0  0  0  0  0  0  0  0  0  0  0
   35.7950   29.9160   32.8640 H   0  0  0  0  0  0  0  0  0  0  0  0
   36.1670   24.0830   31.6190 C   0  0  0  0  0  0  0  0  0  0  0  0
   34.8730   24.1510   31.5540 O   0  0  0  0  0  0  0  0  0  0  0  0
   37.1790   24.9900   32.0470 N   0  0  0  0  0  0  0  0  0  0  0  0
   38.1170   24.5550   32.0970 H   0  0  0  0  0  0  0  0  0  0  0  0
   36.4870   22.7120   31.1030 C   0  0  0  0  0  3  0  0  0  0  0  0
   36.6760   21.7090   32.2370 C   0  0  0  0  0  2  0  0  0  0  0  0
   35.5910   21.5760   31.2270 C   0  0  0  0  0  2  0  0  0  0  0  0
  1  6  1  0  0  0  0
  1 19  1  0  0  0  0
  2  1  2  0  0  0  0
  3  4  2  0  0  0  0
  3  2  1  0  0  0  0
  4  5  1  0  0  0  0
  5  9  1  0  0  0  0
  5  6  2  0  0  0  0
  6 10  1  0  0  0  0
  7  3  1  0  0  0  0
  8  4  1  0  0  0  0
 10 11  2  0  0  0  0
 11 15  1  0  0  0  0
 12 11  1  0  0  0  0
 12 16  1  0  0  0  0
 13 12  2  0  0  0  0
 14 13  1  0  0  0  0
 14 10  1  0  0  0  0
 17 13  1  0  0  0  0
 19 18  3  0  0  0  0
 20  2  1  0  0  0  0
 21 26  1  0  0  0  0
 21 20  1  0  0  0  0
 22 21  2  0  0  0  0
 23 24  2  0  0  0  0
 23 22  1  0  0  0  0
 24 25  1  0  0  0  0
 25 28  1  0  0  0  0
 25 26  2  0  0  0  0
 27 23  1  0  0  0  0
 29 31  1  0  0  0  0
 30 29  2  0  0  0  0
 31 32  1  0  0  0  0
 31 22  1  0  0  0  0
 33 35  1  0  0  0  0
 33 29  1  0  0  0  0
 33 34  1  0  0  0  0
 35 34  1  0  0  0  0
M  END
>  <minimizedAffinity>
-5.32716465

$$$$

 OpenBabel03272507433D

 35 38  0  0  0  0  0  0  0  0999 V2000
   37.9440   24.7430   34.7170 C   0  0  0  0  0  0  0  0  0  0  0  0
   37.5940   25.5850   33.6750 C   0  0  0  0  0  0  0  0  0  0  0  0
   37.5970   26.9510   33.8500 C   0  0  0  0  0  0  0  0  0  0  0  0
   37.9580   27.4860   35.0850 C   0  0  0  0  0  0  0  0  0  0  0  0
   38.3060   26.6540   36.1190 C   0  0  0  0  0  0  0  0  0  0  0  0
   38.2910   25.2960   35.9070 C   0  0  0  0  0  0  0  0  0  0  0  0
   37.3330   27.6610   33.0710 H   0  0  0  0  0  0  0  0  0  0  0  0
   37.9540   28.5730   35.2040 H   0  0  0  0  0  0  0  0  0  0  0  0
   38.5830   27.0970   37.0700 H   0  0  0  0  0  0  0  0  0  0  0  0
   38.6690   24.4030   37.0320 C   0  0  0  0  0  0  0  0  0  0  0  0
   38.0820   24.2560   38.2690 C   0  0  0  0  0  0  0  0  0  0  0  0
   38.8300   23.2840   38.9500 C   0  0  0  0  0  0  0  0  0  0  0  0
   39.8210   22.9070   38.0760 C   0  0  0  0  0  0  0  0  0  0  0  0
   39.7050   23.5830   36.9500 O   0  0  0  0  0  0  0  0  0  0  0  0
   37.2180   24.8580   38.4980 H   0  0  0  0  0  0  0  0  0  0  0  0
   38.5060   23.0400   39.9480 H   0  0  0  0  0  0  0  0  0  0  0  0
   40.5340   22.1550   38.3850 H   0  0  0  0  0  0  0  0  0  0  0  0
   37.8900   22.2190   34.2310 N   0  0  0  0  0  0  0  0  0  0  0  0
   37.9170   23.3440   34.4570 C   0  0  0  0  0  0  0  0  0  0  0  0
   37.2150   25.1860   32.3950 O   0  0  0  0  0  0  0  0  0  0  0  0
   38.0120   25.2590   31.3090 C   0  0  0  0  0  0  0  0  0  0  0  0
   38.2370   23.9910   30.7400 C   0  0  0  0  0  0  0  0  0  0  0  0
   39.0320   23.8580   29.6170 C   0  0  0  0  0  0  0  0  0  0  0  0
   39.5770   24.9920   29.0930 N   0  0  0  0  0  0  0  0  0  0  0  0
   39.3470   26.2070   29.6570 C   0  0  0  0  0  0  0  0  0  0  0  0
   38.5850   26.3180   30.7310 N   0  0  0  0  0  0  0  0  0  0  0  0
   39.2550   22.9430   29.1220 H   0  0  0  0  0  0  0  0  0  0  0  0
   39.7800   27.1040   29.2420 H   0  0  0  0  0  0  0  0  0  0  0  0
   36.3200   22.5280   31.0890 C   0  0  0  0  0  0  0  0  0  0  0  0
   35.3070   23.2560   30.7300 O   0  0  0  0  0  0  0  0  0  0  0  0
   37.7160   22.7800   31.2150 N   0  0  0  0  0  0  0  0  0  0  0  0
   38.2290   22.0030   31.6680 H   0  0  0  0  0  0  0  0  0  0  0  0
   35.7160   21.1900   31.3970 C   0  0  0  0  0  3  0  0  0  0  0  0
   36.2270   20.1060   30.4510 C   0  0  0  0  0  2  0  0  0  0  0  0
   36.4730   20.0660   31.9190 C   0  0  0  0  0  2  0  0  0  0  0  0
  1  6  1  0  0  0  0
  2  3  1  0  0  0  0
  2  1  2  0  0  0  0
  3  4  2  0  0  0  0
  4  8  1  0  0  0  0
  4  5  1  0  0  0  0
  5  9  1  0  0  0  0
  6  5  2  0  0  0  0
  6 10  1  0  0  0  0
  7  3  1  0  0  0  0
 10 11  2  0  0  0  0
 11 15  1  0  0  0  0
 11 12  1  0  0  0  0
 12 16  1  0  0  0  0
 13 17  1  0  0  0  0
 13 12  2  0  0  0  0
 14 10  1  0  0  0  0
 14 13  1  0  0  0  0
 18 19  3  0  0  0  0
 19  1  1  0  0  0  0
 20  2  1  0  0  0  0
 21 20  1  0  0  0  0
 22 31  1  0  0  0  0
 22 21  1  0  0  0  0
 23 22  2  0  0  0  0
 24 23  1  0  0  0  0
 24 25  2  0  0  0  0
 25 26  1  0  0  0  0
 26 21  2  0  0  0  0
 27 23  1  0  0  0  0
 28 25  1  0  0  0  0
 29 31  1  0  0  0  0
 29 33  1  0  0  0  0
 30 29  2  0  0  0  0
 31 32  1  0  0  0  0
 33 35  1  0  0  0  0
 34 33  1  0  0  0  0
 34 35  1  0  0  0  0
M  END
>  <minimizedAffinity>
-5.32611942

$$$$

 OpenBabel03272507433D

 35 38  0  0  0  0  0  0  0  0999 V2000
   37.3650   25.9600   33.8300 C   0  0  0  0  0  0  0  0  0  0  0  0
   37.8690   25.1510   34.8330 C   0  0  0  0  0  0  0  0  0  0  0  0
   38.3580   25.7040   35.9970 C   0  0  0  0  0  0  0  0  0  0  0  0
   38.3410   27.0870   36.1620 C   0  0  0  0  0  0  0  0  0  0  0  0
   37.8410   27.8910   35.1680 C   0  0  0  0  0  0  0  0  0  0  0  0
   37.3630   27.3040   34.0220 C   0  0  0  0  0  0  0  0  0  0  0  0
   38.7650   25.1210   36.8180 H   0  0  0  0  0  0  0  0  0  0  0  0
   38.7330   27.5060   37.0920 H   0  0  0  0  0  0  0  0  0  0  0  0
   37.8400   28.9650   35.3230 H   0  0  0  0  0  0  0  0  0  0  0  0
   36.8230   28.1820   32.9520 C   0  0  0  0  0  0  0  0  0  0  0  0
   35.6170   28.8430   32.8870 C   0  0  0  0  0  0  0  0  0  0  0  0
   35.6070   29.5310   31.6660 C   0  0  0  0  0  0  0  0  0  0  0  0
   36.8120   29.2400   31.0720 C   0  0  0  0  0  0  0  0  0  0  0  0
   37.5120   28.4410   31.8520 O   0  0  0  0  0  0  0  0  0  0  0  0
   34.9310   28.7360   33.7130 H   0  0  0  0  0  0  0  0  0  0  0  0
   34.7260   30.1110   31.4470 H   0  0  0  0  0  0  0  0  0  0  0  0
   37.0360   29.6660   30.1030 H   0  0  0  0  0  0  0  0  0  0  0  0
   36.4910   24.8070   31.7050 N   0  0  0  0  0  0  0  0  0  0  0  0
   36.8790   25.3140   32.6590 C   0  0  0  0  0  0  0  0  0  0  0  0
   37.9460   23.7600   34.8010 O   0  0  0  0  0  0  0  0  0  0  0  0
   39.0850   23.0650   34.6040 C   0  0  0  0  0  0  0  0  0  0  0  0
   38.9950   22.2190   33.4820 C   0  0  0  0  0  0  0  0  0  0  0  0
   40.0640   21.4230   33.1160 C   0  0  0  0  0  0  0  0  0  0  0  0
   41.1920   21.4950   33.8790 N   0  0  0  0  0  0  0  0  0  0  0  0
   41.2590   22.3170   34.9580 C   0  0  0  0  0  0  0  0  0  0  0  0
   40.2280   23.0720   35.2950 N   0  0  0  0  0  0  0  0  0  0  0  0
   40.0840   20.7570   32.2880 H   0  0  0  0  0  0  0  0  0  0  0  0
   42.1520   22.3720   35.5620 H   0  0  0  0  0  0  0  0  0  0  0  0
   36.7000   21.4670   33.1570 C   0  0  0  0  0  0  0  0  0  0  0  0
   36.4270   20.8250   34.2520 O   0  0  0  0  0  0  0  0  0  0  0  0
   37.8760   22.0880   32.6480 N   0  0  0  0  0  0  0  0  0  0  0  0
   37.7800   22.3930   31.6640 H   0  0  0  0  0  0  0  0  0  0  0  0
   35.4070   21.4580   32.3970 C   0  0  0  0  0  3  0  0  0  0  0  0
   35.5520   20.7800   31.0380 C   0  0  0  0  0  2  0  0  0  0  0  0
   34.6550   20.2510   32.1020 C   0  0  0  0  0  2  0  0  0  0  0  0
  1  6  2  0  0  0  0
  1  2  1  0  0  0  0
  2  3  2  0  0  0  0
  3  4  1  0  0  0  0
  3  7  1  0  0  0  0
  4  8  1  0  0  0  0
  5  9  1  0  0  0  0
  5  4  2  0  0  0  0
  6  5  1  0  0  0  0
 10  6  1  0  0  0  0
 11 10  2  0  0  0  0
 11 15  1  0  0  0  0
 12 11  1  0  0  0  0
 13 12  2  0  0  0  0
 13 14  1  0  0  0  0
 14 10  1  0  0  0  0
 16 12  1  0  0  0  0
 17 13  1  0  0  0  0
 18 19  3  0  0  0  0
 19  1  1  0  0  0  0
 20  2  1  0  0  0  0
 21 20  1  0  0  0  0
 21 26  1  0  0  0  0
 22 21  2  0  0  0  0
 23 22  1  0  0  0  0
 23 24  2  0  0  0  0
 24 25  1  0  0  0  0
 25 26  2  0  0  0  0
 25 28  1  0  0  0  0
 27 23  1  0  0  0  0
 29 30  2  0  0  0  0
 31 29  1  0  0  0  0
 31 22  1  0  0  0  0
 32 31  1  0  0  0  0
 33 29  1  0  0  0  0
 34 35  1  0  0  0  0
 34 33  1  0  0  0  0
 35 33  1  0  0  0  0
M  END
>  <minimizedAffinity>
-5.28970814

$$$$

 OpenBabel03272507433D

 35 38  0  0  0  0  0  0  0  0999 V2000
   36.1790   29.2290   33.1550 C   0  0  0  0  0  0  0  0  0  0  0  0
   36.5180   28.7650   31.8960 C   0  0  0  0  0  0  0  0  0  0  0  0
   36.1950   29.4950   30.7730 C   0  0  0  0  0  0  0  0  0  0  0  0
   35.5240   30.7090   30.9100 C   0  0  0  0  0  0  0  0  0  0  0  0
   35.1870   31.1690   32.1580 C   0  0  0  0  0  0  0  0  0  0  0  0
   35.5260   30.4140   33.2550 C   0  0  0  0  0  0  0  0  0  0  0  0
   36.4350   29.1830   29.7600 H   0  0  0  0  0  0  0  0  0  0  0  0
   35.2760   31.2720   30.0070 H   0  0  0  0  0  0  0  0  0  0  0  0
   34.6650   32.1170   32.2360 H   0  0  0  0  0  0  0  0  0  0  0  0
   35.1580   30.9210   34.6010 C   0  0  0  0  0  0  0  0  0  0  0  0
   35.9280   31.5920   35.5250 C   0  0  0  0  0  0  0  0  0  0  0  0
   35.0980   31.8410   36.6280 C   0  0  0  0  0  0  0  0  0  0  0  0
   33.8780   31.3020   36.2960 C   0  0  0  0  0  0  0  0  0  0  0  0
   33.9390   30.7650   35.0940 O   0  0  0  0  0  0  0  0  0  0  0  0
   36.9560   31.8020   35.2760 H   0  0  0  0  0  0  0  0  0  0  0  0
   35.5430   32.3650   37.4570 H   0  0  0  0  0  0  0  0  0  0  0  0
   33.0640   31.3720   37.0040 H   0  0  0  0  0  0  0  0  0  0  0  0
   36.8340   27.7500   35.1540 N   0  0  0  0  0  0  0  0  0  0  0  0
   36.5480   28.4170   34.2650 C   0  0  0  0  0  0  0  0  0  0  0  0
   37.1870   27.5750   31.6150 O   0  0  0  0  0  0  0  0  0  0  0  0
   36.5870   26.3710   31.5120 C   0  0  0  0  0  0  0  0  0  0  0  0
   37.2180   25.4020   32.3140 C   0  0  0  0  0  0  0  0  0  0  0  0
   36.7470   24.1020   32.3430 C   0  0  0  0  0  0  0  0  0  0  0  0
   35.6620   23.8080   31.5720 N   0  0  0  0  0  0  0  0  0  0  0  0
   35.0670   24.7590   30.8050 C   0  0  0  0  0  0  0  0  0  0  0  0
   35.5280   25.9970   30.7880 N   0  0  0  0  0  0  0  0  0  0  0  0
   37.1600   23.3080   32.9170 H   0  0  0  0  0  0  0  0  0  0  0  0
   34.2080   24.5240   30.1940 H   0  0  0  0  0  0  0  0  0  0  0  0
   39.6380   25.4390   32.5920 C   0  0  0  0  0  0  0  0  0  0  0  0
   40.0850   24.9570   31.4720 O   0  0  0  0  0  0  0  0  0  0  0  0
   38.3330   25.6210   33.1320 N   0  0  0  0  0  0  0  0  0  0  0  0
   38.3440   25.9120   34.1260 H   0  0  0  0  0  0  0  0  0  0  0  0
   40.8770   25.8340   33.3390 C   0  0  0  0  0  3  0  0  0  0  0  0
   41.0740   27.3470   33.3530 C   0  0  0  0  0  2  0  0  0  0  0  0
   40.8630   26.5570   34.5970 C   0  0  0  0  0  2  0  0  0  0  0  0
  1  6  1  0  0  0  0
  1 19  1  0  0  0  0
  2  1  2  0  0  0  0
  3  4  2  0  0  0  0
  3  2  1  0  0  0  0
  4  5  1  0  0  0  0
  5  9  1  0  0  0  0
  5  6  2  0  0  0  0
  6 10  1  0  0  0  0
  7  3  1  0  0  0  0
  8  4  1  0  0  0  0
 10 14  1  0  0  0  0
 10 11  2  0  0  0  0
 11 12  1  0  0  0  0
 12 16  1  0  0  0  0
 13 12  2  0  0  0  0
 13 17  1  0  0  0  0
 14 13  1  0  0  0  0
 15 11  1  0  0  0  0
 19 18  3  0  0  0  0
 20  2  1  0  0  0  0
 21 20  1  0  0  0  0
 21 22  1  0  0  0  0
 22 23  2  0  0  0  0
 22 31  1  0  0  0  0
 23 27  1  0  0  0  0
 24 23  1  0  0  0  0
 25 24  2  0  0  0  0
 26 25  1  0  0  0  0
 26 21  2  0  0  0  0
 28 25  1  0  0  0  0
 29 31  1  0  0  0  0
 29 33  1  0  0  0  0
 30 29  2  0  0  0  0
 31 32  1  0  0  0  0
 33 34  1  0  0  0  0
 33 35  1  0  0  0  0
 34 35  1  0  0  0  0
M  END
>  <minimizedAffinity>
-5.13608122

$$$$

 OpenBabel03272507433D

 35 38  0  0  0  0  0  0  0  0999 V2000
   37.2350   22.5950   32.3850 C   0  0  0  0  0  0  0  0  0  0  0  0
   37.3340   23.9750   32.3380 C   0  0  0  0  0  0  0  0  0  0  0  0
   36.3610   24.7240   31.7130 C   0  0  0  0  0  0  0  0  0  0  0  0
   35.2710   24.0850   31.1260 C   0  0  0  0  0  0  0  0  0  0  0  0
   35.1710   22.7170   31.1720 C   0  0  0  0  0  0  0  0  0  0  0  0
   36.1600   22.0030   31.8040 C   0  0  0  0  0  0  0  0  0  0  0  0
   36.3840   25.8080   31.6450 H   0  0  0  0  0  0  0  0  0  0  0  0
   34.5110   24.6970   30.6350 H   0  0  0  0  0  0  0  0  0  0  0  0
   34.3120   22.2450   30.7060 H   0  0  0  0  0  0  0  0  0  0  0  0
   36.0430   20.5230   31.8480 C   0  0  0  0  0  0  0  0  0  0  0  0
   35.4290   19.7210   32.7850 C   0  0  0  0  0  0  0  0  0  0  0  0
   35.6100   18.3990   32.3540 C   0  0  0  0  0  0  0  0  0  0  0  0
   36.3230   18.4900   31.1820 C   0  0  0  0  0  0  0  0  0  0  0  0
   36.5660   19.7560   30.9050 O   0  0  0  0  0  0  0  0  0  0  0  0
   34.9500   20.1950   33.6260 H   0  0  0  0  0  0  0  0  0  0  0  0
   35.1870   17.6280   32.9760 H   0  0  0  0  0  0  0  0  0  0  0  0
   36.5850   17.5820   30.6560 H   0  0  0  0  0  0  0  0  0  0  0  0
   39.1340   21.3380   33.5790 N   0  0  0  0  0  0  0  0  0  0  0  0
   38.2790   21.8930   33.0490 C   0  0  0  0  0  0  0  0  0  0  0  0
   38.3650   24.7390   32.8820 O   0  0  0  0  0  0  0  0  0  0  0  0
   38.3370   25.2880   34.1140 C   0  0  0  0  0  0  0  0  0  0  0  0
   38.3550   26.6940   34.0610 C   0  0  0  0  0  0  0  0  0  0  0  0
   38.3320   27.4400   35.2250 C   0  0  0  0  0  0  0  0  0  0  0  0
   38.2900   26.7610   36.4070 N   0  0  0  0  0  0  0  0  0  0  0  0
   38.2740   25.4030   36.4360 C   0  0  0  0  0  0  0  0  0  0  0  0
   38.2960   24.7040   35.3150 N   0  0  0  0  0  0  0  0  0  0  0  0
   38.3430   28.5020   35.2790 H   0  0  0  0  0  0  0  0  0  0  0  0
   38.2410   24.8670   37.3730 H   0  0  0  0  0  0  0  0  0  0  0  0
   37.2190   28.1390   32.4620 C   0  0  0  0  0  0  0  0  0  0  0  0
   35.9790   28.1110   32.8470 O   0  0  0  0  0  0  0  0  0  0  0  0
   38.3970   27.4650   32.8920 N   0  0  0  0  0  0  0  0  0  0  0  0
   39.2050   27.6230   32.2640 H   0  0  0  0  0  0  0  0  0  0  0  0
   37.2270   29.1300   31.3360 C   0  0  0  0  0  3  0  0  0  0  0  0
   36.9300   28.4670   29.9950 C   0  0  0  0  0  2  0  0  0  0  0  0
   36.0430   29.5060   30.5850 C   0  0  0  0  0  2  0  0  0  0  0  0
  1 19  1  0  0  0  0
  2  1  1  0  0  0  0
  2 20  1  0  0  0  0
  3  2  2  0  0  0  0
  4  5  2  0  0  0  0
  4  3  1  0  0  0  0
  5  6  1  0  0  0  0
  6 10  1  0  0  0  0
  6  1  2  0  0  0  0
  7  3  1  0  0  0  0
  8  4  1  0  0  0  0
  9  5  1  0  0  0  0
 10 11  2  0  0  0  0
 11 15  1  0  0  0  0
 12 11  1  0  0  0  0
 12 16  1  0  0  0  0
 13 12  2  0  0  0  0
 14 13  1  0  0  0  0
 14 10  1  0  0  0  0
 17 13  1  0  0  0  0
 19 18  3  0  0  0  0
 20 21  1  0  0  0  0
 21 26  1  0  0  0  0
 22 21  2  0  0  0  0
 22 23  1  0  0  0  0
 23 27  1  0  0  0  0
 23 24  2  0  0  0  0
 24 25  1  0  0  0  0
 25 28  1  0  0  0  0
 26 25  2  0  0  0  0
 29 30  2  0  0  0  0
 29 31  1  0  0  0  0
 31 22  1  0  0  0  0
 32 31  1  0  0  0  0
 33 29  1  0  0  0  0
 34 35  1  0  0  0  0
 34 33  1  0  0  0  0
 35 33  1  0  0  0  0
M  END
>  <minimizedAffinity>
-5.01979017

$$$$

 OpenBabel03272507433D

 35 38  0  0  0  0  0  0  0  0999 V2000
   38.0500   25.3740   34.0340 C   0  0  0  0  0  0  0  0  0  0  0  0
   37.4040   26.4460   33.4420 C   0  0  0  0  0  0  0  0  0  0  0  0
   37.2280   27.6240   34.1350 C   0  0  0  0  0  0  0  0  0  0  0  0
   37.7060   27.7330   35.4390 C   0  0  0  0  0  0  0  0  0  0  0  0
   38.3460   26.6710   36.0280 C   0  0  0  0  0  0  0  0  0  0  0  0
   38.5030   25.5130   35.3060 C   0  0  0  0  0  0  0  0  0  0  0  0
   36.7310   28.4970   33.7230 H   0  0  0  0  0  0  0  0  0  0  0  0
   37.5550   28.6760   35.9710 H   0  0  0  0  0  0  0  0  0  0  0  0
   38.7070   26.7840   37.0450 H   0  0  0  0  0  0  0  0  0  0  0  0
   39.1970   24.3690   35.9510 C   0  0  0  0  0  0  0  0  0  0  0  0
   38.7290   23.4790   36.8920 C   0  0  0  0  0  0  0  0  0  0  0  0
   39.7850   22.5970   37.1640 C   0  0  0  0  0  0  0  0  0  0  0  0
   40.8240   23.0140   36.3660 C   0  0  0  0  0  0  0  0  0  0  0  0
   40.4510   24.0630   35.6590 O   0  0  0  0  0  0  0  0  0  0  0  0
   37.7150   23.5910   37.2410 H   0  0  0  0  0  0  0  0  0  0  0  0
   39.5920   21.8230   37.8880 H   0  0  0  0  0  0  0  0  0  0  0  0
   41.7620   22.4770   36.4030 H   0  0  0  0  0  0  0  0  0  0  0  0
   38.3060   23.2490   32.6090 N   0  0  0  0  0  0  0  0  0  0  0  0
   38.1930   24.1920   33.2540 C   0  0  0  0  0  0  0  0  0  0  0  0
   36.8810   26.4730   32.1510 O   0  0  0  0  0  0  0  0  0  0  0  0
   37.5280   26.9740   31.0780 C   0  0  0  0  0  0  0  0  0  0  0  0
   36.8050   28.0190   30.4730 C   0  0  0  0  0  0  0  0  0  0  0  0
   37.3050   28.6620   29.3550 C   0  0  0  0  0  0  0  0  0  0  0  0
   38.5110   28.2440   28.8760 N   0  0  0  0  0  0  0  0  0  0  0  0
   39.1930   27.2330   29.4750 C   0  0  0  0  0  0  0  0  0  0  0  0
   38.7020   26.6290   30.5420 N   0  0  0  0  0  0  0  0  0  0  0  0
   36.8290   29.4580   28.8360 H   0  0  0  0  0  0  0  0  0  0  0  0
   40.1470   26.9030   29.0940 H   0  0  0  0  0  0  0  0  0  0  0  0
   35.5070   29.7510   31.5920 C   0  0  0  0  0  0  0  0  0  0  0  0
   36.4100   30.5500   32.0740 O   0  0  0  0  0  0  0  0  0  0  0  0
   35.5630   28.5070   30.9020 N   0  0  0  0  0  0  0  0  0  0  0  0
   34.6330   28.0680   30.7820 H   0  0  0  0  0  0  0  0  0  0  0  0
   34.2100   30.4310   31.9150 C   0  0  0  0  0  3  0  0  0  0  0  0
   33.4370   29.6910   33.0030 C   0  0  0  0  0  2  0  0  0  0  0  0
   33.9360   31.0820   33.1830 C   0  0  0  0  0  2  0  0  0  0  0  0
  1  6  1  0  0  0  0
  2  1  2  0  0  0  0
  2  3  1  0  0  0  0
  3  4  2  0  0  0  0
  4  8  1  0  0  0  0
  4  5  1  0  0  0  0
  5  9  1  0  0  0  0
  6 10  1  0  0  0  0
  6  5  2  0  0  0  0
  7  3  1  0  0  0  0
 10 11  2  0  0  0  0
 11 12  1  0  0  0  0
 11 15  1  0  0  0  0
 12 16  1  0  0  0  0
 13 17  1  0  0  0  0
 13 12  2  0  0  0  0
 14 10  1  0  0  0  0
 14 13  1  0  0  0  0
 18 19  3  0  0  0  0
 19  1  1  0  0  0  0
 20  2  1  0  0  0  0
 21 20  1  0  0  0  0
 22 31  1  0  0  0  0
 22 21  2  0  0  0  0
 23 22  1  0  0  0  0
 24 23  2  0  0  0  0
 24 25  1  0  0  0  0
 25 26  2  0  0  0  0
 26 21  1  0  0  0  0
 27 23  1  0  0  0  0
 28 25  1  0  0  0  0
 29 33  1  0  0  0  0
 29 30  2  0  0  0  0
 31 29  1  0  0  0  0
 32 31  1  0  0  0  0
 33 34  1  0  0  0  0
 33 35  1  0  0  0  0
 34 35  1  0  0  0  0
M  END
>  <minimizedAffinity>
-5.01651382

$$$$
