
     RDKit          3D

 28 30  0  0  0  0  0  0  0  0999 V2000
   38.4194   30.6039   46.7950 Cl  0  0  0  0  0  0  0  0  0  0  0  0
   38.8411   32.0468   47.6815 C   0  0  0  0  0  0  0  0  0  0  0  0
   38.3386   32.1987   48.9506 C   0  0  0  0  0  0  0  0  0  0  0  0
   38.7032   33.3692   49.6197 C   0  0  0  0  0  0  0  0  0  0  0  0
   39.5344   34.2858   48.9706 C   0  0  0  0  0  0  0  0  0  0  0  0
   40.0006   34.0826   47.7160 C   0  0  0  0  0  0  0  0  0  0  0  0
   39.6552   32.9413   47.0416 C   0  0  0  0  0  0  0  0  0  0  0  0
   37.9297   30.4135   50.6422 C   0  0  0  0  0  0  0  0  0  0  0  0
   37.4673   31.2301   49.6220 C   0  0  0  0  0  0  0  0  0  0  0  0
   36.1381   31.1022   49.2490 C   0  0  0  0  0  0  0  0  0  0  0  0
   35.3727   30.1910   49.9001 N   0  0  0  0  0  0  0  0  0  0  0  0
   35.8467   29.4206   50.8768 C   0  0  0  0  0  0  0  0  0  0  0  0
   37.1433   29.5211   51.2659 N   0  0  0  0  0  0  0  0  0  0  0  0
   40.1308   32.7432   45.7709 O   0  0  0  0  0  0  0  0  0  0  0  0
   38.3133   33.4910   50.6091 H   0  0  0  0  0  0  0  0  0  0  0  0
   39.7334   35.1472   49.6121 H   0  0  0  0  0  0  0  0  0  0  0  0
   40.6184   34.8969   47.3992 H   0  0  0  0  0  0  0  0  0  0  0  0
   38.9720   30.5434   50.9042 H   0  0  0  0  0  0  0  0  0  0  0  0
   35.7514   31.7154   48.4680 H   0  0  0  0  0  0  0  0  0  0  0  0
   35.2064   28.7040   51.3743 H   0  0  0  0  0  0  0  0  0  0  0  0
   40.9522   33.6003   45.0670 C   0  0  0  0  0  0  0  0  0  0  0  0
   40.9031   35.0744   45.4572 C   0  0  0  0  0  0  0  0  0  0  0  0
   40.3630   34.6291   44.1433 C   0  0  0  0  0  0  0  0  0  0  0  0
   41.9310   33.2065   44.7486 H   0  0  0  0  0  0  0  0  0  0  0  0
   40.1962   35.3773   46.2501 H   0  0  0  0  0  0  0  0  0  0  0  0
   41.8944   35.5983   45.4989 H   0  0  0  0  0  0  0  0  0  0  0  0
   39.2632   34.6993   44.0019 H   0  0  0  0  0  0  0  0  0  0  0  0
   40.9362   34.9102   43.2334 H   0  0  0  0  0  0  0  0  0  0  0  0
  1  2  1  0
  2  3  2  0
  3  4  1  0
  3  9  1  0
  5  4  2  0
  6  5  1  0
  7  2  1  0
  7  6  2  0
  8 13  2  0
  9  8  1  0
 10  9  2  0
 10 11  1  0
 11 12  2  0
 12 13  1  0
 14  7  1  0
  4 15  1  0
  5 16  1  0
  6 17  1  0
  8 18  1  0
 10 19  1  0
 12 20  1  0
 21 22  1  0
 22 23  1  0
 23 21  1  0
 21 24  1  0
 22 25  1  0
 22 26  1  0
 23 27  1  0
 23 28  1  0
 14 21  1  0
M  ISO  6  15  14  16  14  17  14  18  14  19  14  20  14
M  END
>  <DihAtoms>  (1) 
6,13,20,21

>  <DihDeg>  (1) 
-145.08351829340307

$$$$
