
 OpenBabel03272508573D

 34 37  0  0  1  0  0  0  0  0999 V2000
   38.4080   31.8610   44.5350 C   0  0  0  0  0  0  0  0  0  0  0  0
   37.3000   32.4450   44.4100 O   0  0  0  0  0  0  0  0  0  0  0  0
   38.9520   31.5670   45.8340 N   0  0  0  0  0  0  0  0  0  0  0  0
   39.9380   31.2660   45.9990 H   0  0  0  0  0  0  0  0  0  0  0  0
   39.1790   31.4630   43.3500 C   0  0  0  0  0  0  0  0  0  0  0  0
   40.1710   30.5320   43.4930 C   0  0  0  0  0  0  0  0  0  0  0  0
   40.8920   30.1320   42.3810 C   0  0  0  0  0  0  0  0  0  0  0  0
   40.5620   30.7000   41.1900 C   0  0  0  0  0  0  0  0  0  0  0  0
   39.5630   31.6470   41.0150 C   0  0  0  0  0  0  0  0  0  0  0  0
   38.8950   31.9950   42.1420 N   0  0  0  0  0  0  0  0  0  0  0  0
   40.4510   30.0640   44.4450 H   0  0  0  0  0  0  0  0  0  0  0  0
   41.6860   29.4080   42.4020 H   0  0  0  0  0  0  0  0  0  0  0  0
   41.0970   30.4210   40.2820 H   0  0  0  0  0  0  0  0  0  0  0  0
   39.2760   32.2280   39.7000 C   0  0  0  0  0  0  0  0  0  0  0  0
   38.7170   33.3740   39.6800 O   0  0  0  0  0  0  0  0  0  0  0  0
   39.6750   31.4060   38.5130 C   0  0  0  0  0  3  0  0  0  0  0  0
   40.8580   32.0360   37.7470 C   0  0  0  0  0  2  0  0  0  0  0  0
   39.5180   31.9980   37.1450 C   0  0  0  0  0  2  0  0  0  0  0  0
   38.4220   31.1060   48.2200 C   0  0  2  0  0  0  0  0  0  0  0  0
   38.6810   32.5600   48.1130 C   0  0  0  0  0  0  0  0  0  0  0  0
   38.0700   31.7000   46.9710 C   0  0  1  0  0  0  0  0  0  0  0  0
   39.3640   30.5040   48.3170 H   0  0  0  0  0  0  0  0  0  0  0  0
   37.9690   33.2300   48.6470 H   0  0  0  0  0  0  0  0  0  0  0  0
   39.7000   32.9290   47.9820 H   0  0  0  0  0  0  0  0  0  0  0  0
   36.9920   31.9610   46.7560 H   0  0  0  0  0  0  0  0  0  0  0  0
   35.0690   30.2330   49.5190 C   0  0  0  0  0  0  0  0  0  0  0  0
   35.3930   29.5630   50.7350 C   0  0  0  0  0  0  0  0  0  0  0  0
   36.7870   29.4320   51.0990 C   0  0  0  0  0  0  0  0  0  0  0  0
   37.7410   29.9520   50.2630 N   0  0  0  0  0  0  0  0  0  0  0  0
   37.3490   30.5770   49.1170 C   0  0  0  0  0  0  0  0  0  0  0  0
   36.0280   30.7360   48.7140 N   0  0  0  0  0  0  0  0  0  0  0  0
   34.0140   30.3030   49.2960 H   0  0  0  0  0  0  0  0  0  0  0  0
   34.6180   29.1780   51.3480 H   0  0  0  0  0  0  0  0  0  0  0  0
   37.0210   28.9280   52.0140 H   0  0  0  0  0  0  0  0  0  0  0  0
  1  3  1  0  0  0  0
  2  1  2  0  0  0  0
  3  4  1  0  0  0  0
  3 21  1  0  0  0  0
  5  6  1  0  0  0  0
  5  1  1  0  0  0  0
  6 11  1  0  0  0  0
  7 12  1  0  0  0  0
  7  6  2  0  0  0  0
  8  7  1  0  0  0  0
  9  8  2  0  0  0  0
  9 10  1  0  0  0  0
 10  5  2  0  0  0  0
 13  8  1  0  0  0  0
 14  9  1  0  0  0  0
 15 14  2  0  0  0  0
 16 14  1  0  0  0  0
 17 16  1  0  0  0  0
 18 17  1  0  0  0  0
 18 16  1  0  0  0  0
 19 22  1  6  0  0  0
 19 30  1  0  0  0  0
 20 19  1  0  0  0  0
 20 23  1  0  0  0  0
 21 25  1  6  0  0  0
 21 20  1  0  0  0  0
 21 19  1  0  0  0  0
 24 20  1  0  0  0  0
 26 27  1  0  0  0  0
 27 28  2  0  0  0  0
 27 33  1  0  0  0  0
 28 34  1  0  0  0  0
 29 28  1  0  0  0  0
 30 29  2  0  0  0  0
 31 30  1  0  0  0  0
 31 26  2  0  0  0  0
 32 26  1  0  0  0  0
M  END
>  <minimizedAffinity>
-4.90562439

>  <minimizedRMSD>
0.23882775

$$$$
