
 OpenBabel03272500573D

 29 31  0  0  0  0  0  0  0  0999 V2000
   38.1730   31.8200   47.3880 C   0  0  0  0  0  0  0  0  0  0  0  0
   38.6880   32.6630   48.3430 C   0  0  0  0  0  0  0  0  0  0  0  0
   38.2240   32.6760   49.6600 C   0  0  0  0  0  0  0  0  0  0  0  0
   37.1590   31.7500   49.9980 C   0  0  0  0  0  0  0  0  0  0  0  0
   36.6830   30.9360   49.0160 C   0  0  0  0  0  0  0  0  0  0  0  0
   37.1380   30.9400   47.7570 C   0  0  0  0  0  0  0  0  0  0  0  0
   39.4960   33.3720   48.1110 H   0  0  0  0  0  0  0  0  0  0  0  0
   38.6770   33.3710   50.3670 H   0  0  0  0  0  0  0  0  0  0  0  0
   36.9150   31.8760   51.0240 H   0  0  0  0  0  0  0  0  0  0  0  0
   35.9340   30.3350   49.5040 H   0  0  0  0  0  0  0  0  0  0  0  0
   40.0350   31.2730   45.9140 C   0  0  0  0  0  0  0  0  0  0  0  0
   38.7670   31.9060   46.0890 C   0  0  0  0  0  0  0  0  0  0  0  0
   38.2620   32.5280   44.9720 C   0  0  0  0  0  0  0  0  0  0  0  0
   38.9450   32.5190   43.8150 N   0  0  0  0  0  0  0  0  0  0  0  0
   40.1220   31.9270   43.6690 C   0  0  0  0  0  0  0  0  0  0  0  0
   40.6630   31.3040   44.7250 N   0  0  0  0  0  0  0  0  0  0  0  0
   40.4830   30.7670   46.7650 H   0  0  0  0  0  0  0  0  0  0  0  0
   37.3170   33.0060   45.0830 H   0  0  0  0  0  0  0  0  0  0  0  0
   40.7430   31.8650   42.7880 H   0  0  0  0  0  0  0  0  0  0  0  0
   35.1060   30.0750   46.9170 C   0  0  0  0  0  0  0  0  0  0  0  0
   34.5520   30.6950   47.8790 O   0  0  0  0  0  0  0  0  0  0  0  0
   36.5880   30.1100   46.8020 N   0  0  0  0  0  0  0  0  0  0  0  0
   37.0400   29.5560   46.0760 H   0  0  0  0  0  0  0  0  0  0  0  0
   34.4080   29.3340   45.9130 O   0  0  0  0  0  0  0  0  0  0  0  0
   33.2140   28.7310   46.2670 C   0  0  0  0  0  0  0  0  0  0  0  0
   32.2010   29.2960   45.7970 O   0  0  0  0  0  0  0  0  0  0  0  0
   32.7450   27.5590   47.0890 C   0  0  0  0  0  0  0  0  0  0  0  0
   32.7000   27.6750   48.5660 C   0  0  0  0  0  0  0  0  0  0  0  0
   33.7010   26.7680   47.8590 C   0  0  0  0  0  0  0  0  0  0  0  0
  1  6  2  0  0  0  0
  1  2  1  0  0  0  0
  2  3  2  0  0  0  0
  3  4  1  0  0  0  0
  3  8  1  0  0  0  0
  4  9  1  0  0  0  0
  5 10  1  0  0  0  0
  5  4  2  0  0  0  0
  6  5  1  0  0  0  0
  7  2  1  0  0  0  0
 11 12  1  0  0  0  0
 11 17  1  0  0  0  0
 12  1  1  0  0  0  0
 13 18  1  0  0  0  0
 13 12  2  0  0  0  0
 14 13  1  0  0  0  0
 15 14  2  0  0  0  0
 15 16  1  0  0  0  0
 16 11  2  0  0  0  0
 19 15  1  0  0  0  0
 20 21  2  0  0  0  0
 22 20  1  0  0  0  0
 22  6  1  0  0  0  0
 23 22  1  0  0  0  0
 24 25  1  0  0  0  0
 24 20  1  0  0  0  0
 25 27  1  0  0  0  0
 26 25  2  0  0  0  0
 27 29  1  0  0  0  0
 27 28  1  0  0  0  0
 29 28  1  0  0  0  0
M  END
>  <minimizedAffinity>
-5.44446039

>  <minimizedRMSD>
1.27698159

$$$$
