
 OpenBabel03272509453D

 13 14  0  0  0  0  0  0  0  0999 V2000
   37.7660   29.6840   50.5640 C   0  0  0  0  0  0  0  0  0  0  0  0
   38.1230   30.9870   50.2070 C   0  0  0  0  0  0  0  0  0  0  0  0
   37.3460   31.6410   49.2370 C   0  0  0  0  0  0  0  0  0  0  0  0
   36.2750   30.9660   48.6890 N   0  0  0  0  0  0  0  0  0  0  0  0
   35.9740   29.6950   49.0750 C   0  0  0  0  0  0  0  0  0  0  0  0
   36.7210   29.0710   50.0070 N   0  0  0  0  0  0  0  0  0  0  0  0
   38.3730   29.1930   51.3110 H   0  0  0  0  0  0  0  0  0  0  0  0
   38.9600   31.5390   50.6220 H   0  0  0  0  0  0  0  0  0  0  0  0
   37.5770   32.6380   48.9280 H   0  0  0  0  0  0  0  0  0  0  0  0
   34.8700   29.1960   48.4120 O   0  0  0  0  0  0  0  0  0  0  0  0
   34.3070   27.9800   48.8700 C   0  0  0  0  0  3  0  0  0  0  0  0
   33.8130   26.9750   47.9000 C   0  0  0  0  0  2  0  0  0  0  0  0
   32.8170   27.8750   48.5550 C   0  0  0  0  0  2  0  0  0  0  0  0
  1  7  1  0  0  0  0
  2  1  1  0  0  0  0
  2  8  1  0  0  0  0
  3  2  2  0  0  0  0
  4  5  2  0  0  0  0
  4  3  1  0  0  0  0
  5  6  1  0  0  0  0
  6  1  2  0  0  0  0
  9  3  1  0  0  0  0
 10 11  1  0  0  0  0
 10  5  1  0  0  0  0
 12 13  1  0  0  0  0
 12 11  1  0  0  0  0
 13 11  1  0  0  0  0
M  END
>  <minimizedAffinity>
-3.53113723

>  <minimizedRMSD>
2.15845537

$$$$
