
 OpenBabel03262521213D

 27 28  0  0  0  0  0  0  0  0999 V2000
   39.1610   32.0370   47.9220 O   0  0  0  0  0  0  0  0  0  0  0  0
   39.0160   32.3400   46.5910 C   0  0  0  0  0  0  0  0  0  0  0  0
   40.1880   32.7810   46.0320 C   0  0  0  0  0  0  0  0  0  0  0  0
   40.2100   33.1350   44.6640 C   0  0  0  0  0  0  0  0  0  0  0  0
   39.0140   33.0070   43.9760 N   0  0  0  0  0  0  0  0  0  0  0  0
   37.8770   32.5650   44.5770 C   0  0  0  0  0  0  0  0  0  0  0  0
   37.9050   32.2440   45.8610 N   0  0  0  0  0  0  0  0  0  0  0  0
   36.8740   32.8600   42.4300 C   0  0  0  0  0  0  0  0  0  0  0  0
   37.9580   33.2820   41.8880 O   0  0  0  0  0  0  0  0  0  0  0  0
   36.7060   32.4670   43.7830 N   0  0  0  0  0  0  0  0  0  0  0  0
   41.1630   32.9110   46.4890 H   0  0  0  0  0  0  0  0  0  0  0  0
   41.0970   33.4880   44.1620 H   0  0  0  0  0  0  0  0  0  0  0  0
   36.0910   32.8500   41.6880 H   0  0  0  0  0  0  0  0  0  0  0  0
   35.7760   32.1400   44.1180 H   0  0  0  0  0  0  0  0  0  0  0  0
   38.0600   32.1770   48.7450 C   0  0  0  0  0  0  0  0  0  0  0  0
   38.1630   33.1530   49.2590 H   0  0  0  0  0  0  0  0  0  0  0  0
   37.1030   32.2970   48.1550 H   0  0  0  0  0  0  0  0  0  0  0  0
   38.1750   31.0500   49.4520 C   0  0  0  0  0  0  0  0  0  0  0  0
   39.1930   30.7040   49.7550 H   0  0  0  0  0  0  0  0  0  0  0  0
   37.8450   30.1520   48.8400 H   0  0  0  0  0  0  0  0  0  0  0  0
   37.3340   30.9600   50.7060 C   0  0  0  0  0  0  0  0  0  0  0  0
   36.6210   31.8370   50.6740 H   0  0  0  0  0  0  0  0  0  0  0  0
   37.9240   31.1260   51.6390 H   0  0  0  0  0  0  0  0  0  0  0  0
   36.4480   29.4500   50.8550 S   0  0  0  0  0  0  0  0  0  0  0  0
   34.9290   29.2800   49.9510 C   0  0  0  0  0  0  0  0  0  0  0  0
   35.0780   29.1770   48.4080 C   0  0  0  0  0  0  0  0  0  0  0  0
   34.4890   28.0890   49.2310 C   0  0  0  0  0  0  0  0  0  0  0  0
  1 15  1  0  0  0  0
  2  1  1  0  0  0  0
  3 11  1  0  0  0  0
  3  2  1  0  0  0  0
  4  3  2  0  0  0  0
  5  6  2  0  0  0  0
  5  4  1  0  0  0  0
  6  7  1  0  0  0  0
  7  2  2  0  0  0  0
  8 10  1  0  0  0  0
  9  8  2  0  0  0  0
 10 14  1  0  0  0  0
 10  6  1  0  0  0  0
 12  4  1  0  0  0  0
 13  8  1  0  0  0  0
 15 16  1  0  0  0  0
 15 18  1  0  0  0  0
 17 15  1  0  0  0  0
 18 19  1  0  0  0  0
 18 21  1  0  0  0  0
 20 18  1  0  0  0  0
 21 24  1  0  0  0  0
 21 23  1  0  0  0  0
 22 21  1  0  0  0  0
 25 24  1  0  0  0  0
 26 27  1  0  0  0  0
 26 25  1  0  0  0  0
 27 25  1  0  0  0  0
M  END
>  <minimizedAffinity>
-4.91889906

>  <minimizedRMSD>
1.54843545

$$$$
