
 OpenBabel03272510303D

 22 24  0  0  0  0  0  0  0  0999 V2000
   37.2600   31.3320   49.1100 C   0  0  0  0  0  0  0  0  0  0  0  0
   37.4090   32.6030   49.6690 C   0  0  0  0  0  0  0  0  0  0  0  0
   38.3690   33.4070   49.0940 C   0  0  0  0  0  0  0  0  0  0  0  0
   39.1070   32.9390   48.0370 N   0  0  0  0  0  0  0  0  0  0  0  0
   38.9210   31.6830   47.5250 C   0  0  0  0  0  0  0  0  0  0  0  0
   37.9730   30.8610   48.0800 N   0  0  0  0  0  0  0  0  0  0  0  0
   36.8040   32.9300   50.5030 H   0  0  0  0  0  0  0  0  0  0  0  0
   38.5570   34.4090   49.4590 H   0  0  0  0  0  0  0  0  0  0  0  0
   36.1970   30.4400   49.6960 C   0  0  0  0  0  0  0  0  0  0  0  0
   36.2040   29.0070   49.5530 C   0  0  0  0  0  0  0  0  0  0  0  0
   36.7180   29.5820   50.8610 C   0  0  0  0  0  0  0  0  0  0  0  0
   35.2350   30.9890   49.9310 H   0  0  0  0  0  0  0  0  0  0  0  0
   35.2190   28.4880   49.5660 H   0  0  0  0  0  0  0  0  0  0  0  0
   36.9600   28.4810   48.9380 H   0  0  0  0  0  0  0  0  0  0  0  0
   36.0500   29.4710   51.7470 H   0  0  0  0  0  0  0  0  0  0  0  0
   37.7890   29.5900   51.0840 H   0  0  0  0  0  0  0  0  0  0  0  0
   39.6890   31.1620   46.3850 C   0  0  0  0  0  0  0  0  0  0  0  0
   40.7320   31.5380   46.3760 H   0  0  0  0  0  0  0  0  0  0  0  0
   39.7670   30.0580   46.4740 H   0  0  0  0  0  0  0  0  0  0  0  0
   38.9810   31.4630   45.0850 C   0  0  0  0  0  3  0  0  0  0  0  0
   37.8170   32.3640   45.0300 C   0  0  0  0  0  2  0  0  0  0  0  0
   39.1720   32.7540   44.4060 C   0  0  0  0  0  2  0  0  0  0  0  0
  1  2  1  0  0  0  0
  1  9  1  0  0  0  0
  2  7  1  0  0  0  0
  3  8  1  0  0  0  0
  3  2  2  0  0  0  0
  4  3  1  0  0  0  0
  5  4  2  0  0  0  0
  5  6  1  0  0  0  0
  6  1  2  0  0  0  0
  9 12  1  0  0  0  0
  9 11  1  0  0  0  0
 10 13  1  0  0  0  0
 10  9  1  0  0  0  0
 10 11  1  0  0  0  0
 11 16  1  0  0  0  0
 11 15  1  0  0  0  0
 14 10  1  0  0  0  0
 17 19  1  0  0  0  0
 17  5  1  0  0  0  0
 18 17  1  0  0  0  0
 20 17  1  0  0  0  0
 21 20  1  0  0  0  0
 22 21  1  0  0  0  0
 22 20  1  0  0  0  0
M  END
>  <minimizedAffinity>
-4.75797176

>  <minimizedRMSD>
0.541586101

$$$$
