
     RDKit          3D

 37 40  0  0  0  0  0  0  0  0999 V2000
   35.8158   30.5395   49.0734 C   0  0  1  0  0  0  0  0  0  0  0  0
   35.9037   29.1173   48.8403 C   0  0  1  0  0  0  0  0  0  0  0  0
   36.0720   29.5822   50.2489 C   0  0  0  0  0  0  0  0  0  0  0  0
   37.0018   31.4556   48.8261 C   0  0  0  0  0  0  0  0  0  0  0  0
   37.1983   32.5182   49.7072 C   0  0  0  0  0  0  0  0  0  0  0  0
   38.2824   33.3309   49.4196 C   0  0  0  0  0  0  0  0  0  0  0  0
   39.0842   33.0895   48.3473 N   0  0  0  0  0  0  0  0  0  0  0  0
   38.8577   32.0381   47.5077 C   0  0  0  0  0  0  0  0  0  0  0  0
   37.8022   31.2164   47.7579 N   0  0  0  0  0  0  0  0  0  0  0  0
   33.9692   29.0787   47.3770 C   0  0  2  0  0  0  0  0  0  0  0  0
   34.7385   28.2828   48.4221 C   0  0  2  0  0  0  0  0  0  0  0  0
   33.8649   28.0718   49.4455 O   0  0  0  0  0  0  0  0  0  0  0  0
   32.5782   28.1440   49.0021 C   0  0  0  0  0  0  0  0  0  0  0  0
   32.6045   28.3924   47.5088 C   0  0  1  0  0  0  0  0  0  0  0  0
   34.4825   28.9409   46.0978 O   0  0  0  0  0  0  0  0  0  0  0  0
   31.5900   29.1747   47.0401 O   0  0  0  0  0  0  0  0  0  0  0  0
   34.8967   31.1337   49.2639 H   0  0  0  0  0  0  0  0  0  0  0  0
   36.8506   28.7825   48.3213 H   0  0  0  0  0  0  0  0  0  0  0  0
   37.0801   29.5431   50.6947 H   0  0  0  0  0  0  0  0  0  0  0  0
   35.2399   29.3521   50.9372 H   0  0  0  0  0  0  0  0  0  0  0  0
   36.5243   32.6534   50.5388 H   0  0  0  0  0  0  0  0  0  0  0  0
   38.4752   34.1762   50.0835 H   0  0  0  0  0  0  0  0  0  0  0  0
   39.4819   31.8286   46.6501 H   0  0  0  0  0  0  0  0  0  0  0  0
   33.8086   30.1278   47.6636 H   0  0  0  0  0  0  0  0  0  0  0  0
   35.0176   27.3244   47.9359 H   0  0  0  0  0  0  0  0  0  0  0  0
   32.1097   29.0369   49.4616 H   0  0  0  0  0  0  0  0  0  0  0  0
   31.9557   27.2634   49.2518 H   0  0  0  0  0  0  0  0  0  0  0  0
   32.6501   27.3684   47.0444 H   0  0  0  0  0  0  0  0  0  0  0  0
   34.4503   29.8111   45.6580 H   0  0  0  0  0  0  0  0  0  0  0  0
   30.8060   28.5599   46.0792 C   0  0  0  0  0  0  0  0  0  0  0  0
   31.2233   28.4742   44.6700 C   0  0  0  0  0  0  0  0  0  0  0  0
   31.1712   27.2310   45.5296 C   0  0  0  0  0  0  0  0  0  0  0  0
   29.7192   28.7192   46.2625 H   0  0  0  0  0  0  0  0  0  0  0  0
   32.2541   28.7950   44.3524 H   0  0  0  0  0  0  0  0  0  0  0  0
   30.4992   28.5752   43.8268 H   0  0  0  0  0  0  0  0  0  0  0  0
   32.1373   26.7445   45.7570 H   0  0  0  0  0  0  0  0  0  0  0  0
   30.3598   26.5247   45.2579 H   0  0  0  0  0  0  0  0  0  0  0  0
  1  3  1  0
  2  1  1  0
  2  3  1  0
  4  1  1  0
  4  5  2  0
  6  5  1  0
  7  6  2  0
  8  9  2  0
  8  7  1  0
  9  4  1  0
 10 15  1  0
 10 14  1  0
 10 11  1  0
 11  2  1  0
 11 12  1  0
 13 12  1  0
 14 16  1  0
 14 13  1  0
  1 17  1  1
  2 18  1  6
  3 19  1  0
  3 20  1  0
  5 21  1  0
  6 22  1  0
  8 23  1  0
 10 24  1  1
 11 25  1  6
 13 26  1  0
 13 27  1  0
 14 28  1  6
 15 29  1  0
 30 31  1  0
 31 32  1  0
 32 30  1  0
 30 33  1  0
 31 34  1  0
 31 35  1  0
 32 36  1  0
 32 37  1  0
 16 30  1  0
M  ISO  8  17  13  18  13  19  13  20  13  21  14  22  14  23  14  24  13
M  ISO  5  25  13  26  13  27  13  28  13  29   3
M  END
>  <DihAtoms>  (1) 
13,15,29,30

>  <DihDeg>  (1) 
144.64214195297254

$$$$
