
 OpenBabel03272508223D

 36 39  0  0  0  0  0  0  0  0999 V2000
   36.3290   29.4090   34.7490 C   0  0  0  0  0  0  0  0  0  0  0  0
   36.1660   29.0390   35.7800 H   0  0  0  0  0  0  0  0  0  0  0  0
   37.3870   29.8170   34.7910 H   0  0  0  0  0  0  0  0  0  0  0  0
   37.0080   27.1550   34.0610 C   0  0  0  0  0  0  0  0  0  0  0  0
   36.3420   28.3240   33.8200 C   0  0  0  0  0  0  0  0  0  0  0  0
   35.7620   28.3630   32.5960 C   0  0  0  0  0  0  0  0  0  0  0  0
   35.8260   27.3720   31.7050 N   0  0  0  0  0  0  0  0  0  0  0  0
   36.4720   26.2470   31.9400 C   0  0  0  0  0  0  0  0  0  0  0  0
   37.0760   26.1200   33.1250 N   0  0  0  0  0  0  0  0  0  0  0  0
   35.1860   29.2390   32.2570 H   0  0  0  0  0  0  0  0  0  0  0  0
   36.6060   25.3790   31.3260 H   0  0  0  0  0  0  0  0  0  0  0  0
   37.5840   26.8480   35.4400 C   0  0  0  0  0  0  0  0  0  0  0  0
   38.4470   25.7930   35.6970 C   0  0  0  0  0  0  0  0  0  0  0  0
   39.1510   27.0820   35.3170 C   0  0  0  0  0  0  0  0  0  0  0  0
   37.2160   27.3960   36.2690 H   0  0  0  0  0  0  0  0  0  0  0  0
   38.6000   24.9920   34.9130 H   0  0  0  0  0  0  0  0  0  0  0  0
   38.6760   25.4060   36.6870 H   0  0  0  0  0  0  0  0  0  0  0  0
   39.5790   27.7140   36.0890 H   0  0  0  0  0  0  0  0  0  0  0  0
   39.5860   27.1840   34.3370 H   0  0  0  0  0  0  0  0  0  0  0  0
   35.4380   30.5530   34.4530 C   0  0  0  0  0  0  0  0  0  0  0  0
   34.9360   30.3290   33.4670 H   0  0  0  0  0  0  0  0  0  0  0  0
   36.0190   31.4740   34.2460 H   0  0  0  0  0  0  0  0  0  0  0  0
   32.9880   29.2850   34.1970 F   0  0  0  0  0  0  0  0  0  0  0  0
   33.2270   30.1820   35.1870 C   0  0  0  0  0  0  0  0  0  0  0  0
   34.4190   30.8590   35.4100 C   0  0  0  0  0  0  0  0  0  0  0  0
   34.4310   31.7130   36.4610 C   0  0  0  0  0  0  0  0  0  0  0  0
   33.3840   31.9290   37.2840 C   0  0  0  0  0  0  0  0  0  0  0  0
   32.1990   31.2550   37.0610 C   0  0  0  0  0  0  0  0  0  0  0  0
   32.1340   30.3770   35.9930 C   0  0  0  0  0  0  0  0  0  0  0  0
   35.2530   32.3360   36.6600 H   0  0  0  0  0  0  0  0  0  0  0  0
   33.4260   32.6230   38.1330 H   0  0  0  0  0  0  0  0  0  0  0  0
   31.3890   31.4760   37.7700 H   0  0  0  0  0  0  0  0  0  0  0  0
   30.8940   29.7580   35.8160 O   0  0  0  0  0  0  0  0  0  0  0  0
   30.4000   28.5730   36.2490 C   0  0  0  0  0  3  0  0  0  0  0  0
   31.2360   27.4030   36.6120 C   0  0  0  0  0  2  0  0  0  0  0  0
   30.4420   27.3720   35.3290 C   0  0  0  0  0  2  0  0  0  0  0  0
  1  3  1  0  0  0  0
  1  2  1  0  0  0  0
  4 12  1  0  0  0  0
  5  4  1  0  0  0  0
  5  1  1  0  0  0  0
  6  5  2  0  0  0  0
  7  8  2  0  0  0  0
  7  6  1  0  0  0  0
  8  9  1  0  0  0  0
  9  4  2  0  0  0  0
 10  6  1  0  0  0  0
 11  8  1  0  0  0  0
 12 13  1  0  0  0  0
 12 15  1  0  0  0  0
 13 17  1  0  0  0  0
 14 12  1  0  0  0  0
 14 13  1  0  0  0  0
 14 18  1  0  0  0  0
 16 13  1  0  0  0  0
 19 14  1  0  0  0  0
 20  1  1  0  0  0  0
 20 25  1  0  0  0  0
 21 20  1  0  0  0  0
 22 20  1  0  0  0  0
 23 24  1  0  0  0  0
 24 25  2  0  0  0  0
 24 29  1  0  0  0  0
 25 26  1  0  0  0  0
 26 30  1  0  0  0  0
 26 27  2  0  0  0  0
 27 31  1  0  0  0  0
 28 27  1  0  0  0  0
 28 32  1  0  0  0  0
 29 28  2  0  0  0  0
 33 29  1  0  0  0  0
 33 34  1  0  0  0  0
 34 35  1  0  0  0  0
 36 34  1  0  0  0  0
 36 35  1  0  0  0  0
M  END
>  <minimizedAffinity>
-5.31556463

$$$$

 OpenBabel03272508223D

 36 39  0  0  0  0  0  0  0  0999 V2000
   35.7970   29.1120   34.1900 C   0  0  0  0  0  0  0  0  0  0  0  0
   35.0410   28.3930   33.8190 H   0  0  0  0  0  0  0  0  0  0  0  0
   36.2150   29.5560   33.2320 H   0  0  0  0  0  0  0  0  0  0  0  0
   33.8240   30.4070   34.8550 C   0  0  0  0  0  0  0  0  0  0  0  0
   35.1720   30.1810   34.9010 C   0  0  0  0  0  0  0  0  0  0  0  0
   35.8410   31.1050   35.6310 C   0  0  0  0  0  0  0  0  0  0  0  0
   35.2620   32.1380   36.2450 N   0  0  0  0  0  0  0  0  0  0  0  0
   33.9620   32.3550   36.1950 C   0  0  0  0  0  0  0  0  0  0  0  0
   33.2200   31.4910   35.4970 N   0  0  0  0  0  0  0  0  0  0  0  0
   36.9340   31.0560   35.7640 H   0  0  0  0  0  0  0  0  0  0  0  0
   33.3680   33.1330   36.6330 H   0  0  0  0  0  0  0  0  0  0  0  0
   32.8760   29.3890   34.2270 C   0  0  0  0  0  0  0  0  0  0  0  0
   31.5540   29.6620   33.9100 C   0  0  0  0  0  0  0  0  0  0  0  0
   32.5280   29.9550   32.7830 C   0  0  0  0  0  0  0  0  0  0  0  0
   33.2080   28.3870   34.1360 H   0  0  0  0  0  0  0  0  0  0  0  0
   31.0690   30.6080   34.2940 H   0  0  0  0  0  0  0  0  0  0  0  0
   30.8000   28.9090   33.6950 H   0  0  0  0  0  0  0  0  0  0  0  0
   32.6500   29.2430   31.9730 H   0  0  0  0  0  0  0  0  0  0  0  0
   32.7810   30.9750   32.5490 H   0  0  0  0  0  0  0  0  0  0  0  0
   36.9130   28.4050   34.8590 C   0  0  0  0  0  0  0  0  0  0  0  0
   36.6490   28.3450   35.9550 H   0  0  0  0  0  0  0  0  0  0  0  0
   37.8410   29.0130   34.8470 H   0  0  0  0  0  0  0  0  0  0  0  0
   38.1750   26.6830   36.6240 F   0  0  0  0  0  0  0  0  0  0  0  0
   37.8640   26.3060   35.3580 C   0  0  0  0  0  0  0  0  0  0  0  0
   37.2230   27.0850   34.4040 C   0  0  0  0  0  0  0  0  0  0  0  0
   37.0170   26.5010   33.1990 C   0  0  0  0  0  0  0  0  0  0  0  0
   37.3810   25.2400   32.8870 C   0  0  0  0  0  0  0  0  0  0  0  0
   38.0180   24.4660   33.8370 C   0  0  0  0  0  0  0  0  0  0  0  0
   38.2600   25.0210   35.0820 C   0  0  0  0  0  0  0  0  0  0  0  0
   36.6220   27.0340   32.3860 H   0  0  0  0  0  0  0  0  0  0  0  0
   37.1940   24.7920   31.9030 H   0  0  0  0  0  0  0  0  0  0  0  0
   38.2850   23.4490   33.5170 H   0  0  0  0  0  0  0  0  0  0  0  0
   38.9350   24.1870   35.9760 O   0  0  0  0  0  0  0  0  0  0  0  0
   38.4960   23.3560   36.9520 C   0  0  0  0  0  3  0  0  0  0  0  0
   38.1480   23.7940   38.3260 C   0  0  0  0  0  2  0  0  0  0  0  0
   39.4190   23.0100   38.1020 C   0  0  0  0  0  2  0  0  0  0  0  0
  1 20  1  0  0  0  0
  1  5  1  0  0  0  0
  2  1  1  0  0  0  0
  3  1  1  0  0  0  0
  4  5  2  0  0  0  0
  4  9  1  0  0  0  0
  5  6  1  0  0  0  0
  6 10  1  0  0  0  0
  6  7  2  0  0  0  0
  8  7  1  0  0  0  0
  8 11  1  0  0  0  0
  9  8  2  0  0  0  0
 12  4  1  0  0  0  0
 13 12  1  0  0  0  0
 13 16  1  0  0  0  0
 14 13  1  0  0  0  0
 14 12  1  0  0  0  0
 15 12  1  0  0  0  0
 17 13  1  0  0  0  0
 18 14  1  0  0  0  0
 19 14  1  0  0  0  0
 20 21  1  0  0  0  0
 22 20  1  0  0  0  0
 24 23  1  0  0  0  0
 25 20  1  0  0  0  0
 25 24  2  0  0  0  0
 26 25  1  0  0  0  0
 27 26  2  0  0  0  0
 27 28  1  0  0  0  0
 28 29  2  0  0  0  0
 29 24  1  0  0  0  0
 29 33  1  0  0  0  0
 30 26  1  0  0  0  0
 31 27  1  0  0  0  0
 32 28  1  0  0  0  0
 33 34  1  0  0  0  0
 34 36  1  0  0  0  0
 34 35  1  0  0  0  0
 36 35  1  0  0  0  0
M  END
>  <minimizedAffinity>
-5.13814735

$$$$

 OpenBabel03272508223D

 36 39  0  0  0  0  0  0  0  0999 V2000
   38.4320   24.7980   34.8120 C   0  0  0  0  0  0  0  0  0  0  0  0
   37.9700   24.1980   34.0030 H   0  0  0  0  0  0  0  0  0  0  0  0
   37.5890   24.8950   35.5670 H   0  0  0  0  0  0  0  0  0  0  0  0
   39.3250   23.4900   36.6840 C   0  0  0  0  0  0  0  0  0  0  0  0
   39.4760   24.0640   35.4520 C   0  0  0  0  0  0  0  0  0  0  0  0
   40.7240   23.9170   34.9460 C   0  0  0  0  0  0  0  0  0  0  0  0
   41.7170   23.2830   35.5720 N   0  0  0  0  0  0  0  0  0  0  0  0
   41.5680   22.7330   36.7620 C   0  0  0  0  0  0  0  0  0  0  0  0
   40.3680   22.8290   37.3390 N   0  0  0  0  0  0  0  0  0  0  0  0
   40.9990   24.3230   33.9590 H   0  0  0  0  0  0  0  0  0  0  0  0
   42.2680   22.2010   37.3750 H   0  0  0  0  0  0  0  0  0  0  0  0
   37.9540   23.4000   37.3480 C   0  0  0  0  0  0  0  0  0  0  0  0
   37.7640   23.0440   38.6740 C   0  0  0  0  0  0  0  0  0  0  0  0
   37.9350   24.5360   38.4580 C   0  0  0  0  0  0  0  0  0  0  0  0
   37.0960   23.4980   36.7350 H   0  0  0  0  0  0  0  0  0  0  0  0
   38.6230   22.6100   39.2670 H   0  0  0  0  0  0  0  0  0  0  0  0
   36.8130   22.7370   39.1030 H   0  0  0  0  0  0  0  0  0  0  0  0
   37.0650   25.1840   38.4320 H   0  0  0  0  0  0  0  0  0  0  0  0
   38.8620   25.0120   38.7320 H   0  0  0  0  0  0  0  0  0  0  0  0
   38.7460   26.1650   34.3390 C   0  0  0  0  0  0  0  0  0  0  0  0
   39.6500   26.0770   33.6690 H   0  0  0  0  0  0  0  0  0  0  0  0
   39.0990   26.8080   35.1700 H   0  0  0  0  0  0  0  0  0  0  0  0
   37.3670   28.1730   35.6580 F   0  0  0  0  0  0  0  0  0  0  0  0
   37.0870   27.8410   34.3720 C   0  0  0  0  0  0  0  0  0  0  0  0
   37.7250   26.8630   33.6200 C   0  0  0  0  0  0  0  0  0  0  0  0
   37.2770   26.7000   32.3520 C   0  0  0  0  0  0  0  0  0  0  0  0
   36.2810   27.4190   31.7940 C   0  0  0  0  0  0  0  0  0  0  0  0
   35.6470   28.3910   32.5440 C   0  0  0  0  0  0  0  0  0  0  0  0
   36.0630   28.5900   33.8480 C   0  0  0  0  0  0  0  0  0  0  0  0
   37.6320   25.9300   31.7340 H   0  0  0  0  0  0  0  0  0  0  0  0
   35.9440   27.2690   30.7610 H   0  0  0  0  0  0  0  0  0  0  0  0
   34.8470   28.9400   32.0270 H   0  0  0  0  0  0  0  0  0  0  0  0
   35.3530   29.5680   34.5490 O   0  0  0  0  0  0  0  0  0  0  0  0
   35.5370   30.9040   34.6820 C   0  0  0  0  0  3  0  0  0  0  0  0
   36.0820   31.5550   35.8980 C   0  0  0  0  0  2  0  0  0  0  0  0
   34.6120   31.6930   35.5840 C   0  0  0  0  0  2  0  0  0  0  0  0
  1  5  1  0  0  0  0
  1  3  1  0  0  0  0
  2  1  1  0  0  0  0
  4  9  1  0  0  0  0
  4 12  1  0  0  0  0
  5  4  2  0  0  0  0
  6  5  1  0  0  0  0
  6  7  2  0  0  0  0
  7  8  1  0  0  0  0
  8  9  2  0  0  0  0
  8 11  1  0  0  0  0
 10  6  1  0  0  0  0
 12 14  1  0  0  0  0
 12 13  1  0  0  0  0
 13 17  1  0  0  0  0
 13 16  1  0  0  0  0
 14 13  1  0  0  0  0
 14 19  1  0  0  0  0
 15 12  1  0  0  0  0
 18 14  1  0  0  0  0
 20  1  1  0  0  0  0
 20 22  1  0  0  0  0
 21 20  1  0  0  0  0
 24 23  1  0  0  0  0
 25 20  1  0  0  0  0
 25 24  2  0  0  0  0
 26 25  1  0  0  0  0
 27 26  2  0  0  0  0
 27 28  1  0  0  0  0
 28 29  2  0  0  0  0
 29 24  1  0  0  0  0
 29 33  1  0  0  0  0
 30 26  1  0  0  0  0
 31 27  1  0  0  0  0
 32 28  1  0  0  0  0
 33 34  1  0  0  0  0
 34 36  1  0  0  0  0
 34 35  1  0  0  0  0
 36 35  1  0  0  0  0
M  END
>  <minimizedAffinity>
-5.12146521

$$$$

 OpenBabel03272508223D

 36 39  0  0  0  0  0  0  0  0999 V2000
   39.1300   24.8740   34.9300 C   0  0  0  0  0  0  0  0  0  0  0  0
   38.0840   24.9070   35.2930 H   0  0  0  0  0  0  0  0  0  0  0  0
   39.5380   25.8880   35.2390 H   0  0  0  0  0  0  0  0  0  0  0  0
   39.4250   23.3030   36.7890 C   0  0  0  0  0  0  0  0  0  0  0  0
   39.8820   23.8920   35.6430 C   0  0  0  0  0  0  0  0  0  0  0  0
   41.1320   23.4950   35.3030 C   0  0  0  0  0  0  0  0  0  0  0  0
   41.8570   22.6220   36.0050 N   0  0  0  0  0  0  0  0  0  0  0  0
   41.4140   22.0590   37.1120 C   0  0  0  0  0  0  0  0  0  0  0  0
   40.1880   22.3910   37.5230 N   0  0  0  0  0  0  0  0  0  0  0  0
   41.6360   23.8800   34.4020 H   0  0  0  0  0  0  0  0  0  0  0  0
   41.8810   21.3510   37.7680 H   0  0  0  0  0  0  0  0  0  0  0  0
   37.9810   23.4890   37.2470 C   0  0  0  0  0  0  0  0  0  0  0  0
   37.5100   23.0890   38.4890 C   0  0  0  0  0  0  0  0  0  0  0  0
   38.0400   24.5110   38.4620 C   0  0  0  0  0  0  0  0  0  0  0  0
   37.2720   23.8330   36.5390 H   0  0  0  0  0  0  0  0  0  0  0  0
   38.1480   22.4220   39.1420 H   0  0  0  0  0  0  0  0  0  0  0  0
   36.4600   22.9840   38.7490 H   0  0  0  0  0  0  0  0  0  0  0  0
   37.3510   25.3460   38.3890 H   0  0  0  0  0  0  0  0  0  0  0  0
   38.9950   24.7330   38.9100 H   0  0  0  0  0  0  0  0  0  0  0  0
   39.1720   24.8270   33.4510 C   0  0  0  0  0  0  0  0  0  0  0  0
   39.8190   23.9450   33.1710 H   0  0  0  0  0  0  0  0  0  0  0  0
   39.7220   25.6960   33.0350 H   0  0  0  0  0  0  0  0  0  0  0  0
   38.1460   22.2820   33.0730 F   0  0  0  0  0  0  0  0  0  0  0  0
   37.5040   23.3850   32.6130 C   0  0  0  0  0  0  0  0  0  0  0  0
   37.9260   24.7000   32.7610 C   0  0  0  0  0  0  0  0  0  0  0  0
   37.1240   25.6470   32.2150 C   0  0  0  0  0  0  0  0  0  0  0  0
   35.9710   25.3910   31.5640 C   0  0  0  0  0  0  0  0  0  0  0  0
   35.5530   24.0820   31.4170 C   0  0  0  0  0  0  0  0  0  0  0  0
   36.3430   23.0780   31.9500 C   0  0  0  0  0  0  0  0  0  0  0  0
   37.3980   26.6600   32.1950 H   0  0  0  0  0  0  0  0  0  0  0  0
   35.3390   26.1800   31.1380 H   0  0  0  0  0  0  0  0  0  0  0  0
   34.6050   23.9460   30.8790 H   0  0  0  0  0  0  0  0  0  0  0  0
   35.8690   21.7810   31.7340 O   0  0  0  0  0  0  0  0  0  0  0  0
   35.0610   20.9760   32.4650 C   0  0  0  0  0  3  0  0  0  0  0  0
   35.5400   19.8360   33.2850 C   0  0  0  0  0  2  0  0  0  0  0  0
   34.8060   19.5590   31.9950 C   0  0  0  0  0  2  0  0  0  0  0  0
  1  3  1  0  0  0  0
  1  2  1  0  0  0  0
  1  5  1  0  0  0  0
  4 12  1  0  0  0  0
  4  9  1  0  0  0  0
  5  4  2  0  0  0  0
  6  5  1  0  0  0  0
  6  7  2  0  0  0  0
  7  8  1  0  0  0  0
  8  9  2  0  0  0  0
  8 11  1  0  0  0  0
 10  6  1  0  0  0  0
 12 14  1  0  0  0  0
 12 13  1  0  0  0  0
 13 17  1  0  0  0  0
 13 16  1  0  0  0  0
 14 13  1  0  0  0  0
 14 19  1  0  0  0  0
 15 12  1  0  0  0  0
 18 14  1  0  0  0  0
 20  1  1  0  0  0  0
 21 20  1  0  0  0  0
 22 20  1  0  0  0  0
 24 25  1  0  0  0  0
 24 23  1  0  0  0  0
 25 20  1  0  0  0  0
 26 25  2  0  0  0  0
 27 26  1  0  0  0  0
 28 27  2  0  0  0  0
 28 29  1  0  0  0  0
 29 24  2  0  0  0  0
 30 26  1  0  0  0  0
 31 27  1  0  0  0  0
 32 28  1  0  0  0  0
 33 29  1  0  0  0  0
 33 34  1  0  0  0  0
 34 35  1  0  0  0  0
 36 34  1  0  0  0  0
 36 35  1  0  0  0  0
M  END
>  <minimizedAffinity>
-5.11200428

$$$$

 OpenBabel03272508223D

 36 39  0  0  0  0  0  0  0  0999 V2000
   36.2290   29.0860   33.3600 C   0  0  0  0  0  0  0  0  0  0  0  0
   36.4470   28.6150   32.3820 H   0  0  0  0  0  0  0  0  0  0  0  0
   36.9700   29.9460   33.3980 H   0  0  0  0  0  0  0  0  0  0  0  0
   34.6490   30.8590   33.9720 C   0  0  0  0  0  0  0  0  0  0  0  0
   34.9250   29.6660   33.3620 C   0  0  0  0  0  0  0  0  0  0  0  0
   33.8280   29.0780   32.8270 C   0  0  0  0  0  0  0  0  0  0  0  0
   32.5990   29.5920   32.8820 N   0  0  0  0  0  0  0  0  0  0  0  0
   32.3370   30.7410   33.4750 C   0  0  0  0  0  0  0  0  0  0  0  0
   33.3600   31.3940   34.0310 N   0  0  0  0  0  0  0  0  0  0  0  0
   33.8900   28.1120   32.2980 H   0  0  0  0  0  0  0  0  0  0  0  0
   31.4100   31.2670   33.5940 H   0  0  0  0  0  0  0  0  0  0  0  0
   35.7710   31.7570   34.4870 C   0  0  0  0  0  0  0  0  0  0  0  0
   35.5640   32.8420   35.3250 C   0  0  0  0  0  0  0  0  0  0  0  0
   35.8120   31.5390   36.0610 C   0  0  0  0  0  0  0  0  0  0  0  0
   36.7440   31.6170   34.0920 H   0  0  0  0  0  0  0  0  0  0  0  0
   34.5140   33.2230   35.5000 H   0  0  0  0  0  0  0  0  0  0  0  0
   36.2900   33.6310   35.5080 H   0  0  0  0  0  0  0  0  0  0  0  0
   36.7950   31.3220   36.4650 H   0  0  0  0  0  0  0  0  0  0  0  0
   34.9900   31.0300   36.5370 H   0  0  0  0  0  0  0  0  0  0  0  0
   36.5740   28.1720   34.4720 C   0  0  0  0  0  0  0  0  0  0  0  0
   35.6460   28.0670   35.1070 H   0  0  0  0  0  0  0  0  0  0  0  0
   37.3090   28.6340   35.1620 H   0  0  0  0  0  0  0  0  0  0  0  0
   37.9660   26.7350   36.3890 F   0  0  0  0  0  0  0  0  0  0  0  0
   37.7250   26.2290   35.1530 C   0  0  0  0  0  0  0  0  0  0  0  0
   37.0290   26.8600   34.1300 C   0  0  0  0  0  0  0  0  0  0  0  0
   36.9110   26.1650   32.9730 C   0  0  0  0  0  0  0  0  0  0  0  0
   37.4090   24.9280   32.7690 C   0  0  0  0  0  0  0  0  0  0  0  0
   38.1020   24.3020   33.7870 C   0  0  0  0  0  0  0  0  0  0  0  0
   38.2570   24.9750   34.9860 C   0  0  0  0  0  0  0  0  0  0  0  0
   36.4810   26.5880   32.1140 H   0  0  0  0  0  0  0  0  0  0  0  0
   37.2920   24.3860   31.8220 H   0  0  0  0  0  0  0  0  0  0  0  0
   38.4780   23.2960   33.5540 H   0  0  0  0  0  0  0  0  0  0  0  0
   38.9940   24.2890   35.9550 O   0  0  0  0  0  0  0  0  0  0  0  0
   38.6430   23.3510   36.8680 C   0  0  0  0  0  3  0  0  0  0  0  0
   38.2500   23.6530   38.2660 C   0  0  0  0  0  2  0  0  0  0  0  0
   39.5960   23.0250   37.9980 C   0  0  0  0  0  2  0  0  0  0  0  0
  1  5  1  0  0  0  0
  1  3  1  0  0  0  0
  1 20  1  0  0  0  0
  2  1  1  0  0  0  0
  4  9  1  0  0  0  0
  4 12  1  0  0  0  0
  5  4  2  0  0  0  0
  6  7  2  0  0  0  0
  6  5  1  0  0  0  0
  7  8  1  0  0  0  0
  8 11  1  0  0  0  0
  8  9  2  0  0  0  0
 10  6  1  0  0  0  0
 12 13  1  0  0  0  0
 12 14  1  0  0  0  0
 13 16  1  0  0  0  0
 13 17  1  0  0  0  0
 13 14  1  0  0  0  0
 14 18  1  0  0  0  0
 14 19  1  0  0  0  0
 15 12  1  0  0  0  0
 20 21  1  0  0  0  0
 20 22  1  0  0  0  0
 24 23  1  0  0  0  0
 25 20  1  0  0  0  0
 25 24  2  0  0  0  0
 26 25  1  0  0  0  0
 27 26  2  0  0  0  0
 27 28  1  0  0  0  0
 28 29  2  0  0  0  0
 29 24  1  0  0  0  0
 29 33  1  0  0  0  0
 30 26  1  0  0  0  0
 31 27  1  0  0  0  0
 32 28  1  0  0  0  0
 33 34  1  0  0  0  0
 34 36  1  0  0  0  0
 34 35  1  0  0  0  0
 36 35  1  0  0  0  0
M  END
>  <minimizedAffinity>
-5.10319996

$$$$

 OpenBabel03272508223D

 36 39  0  0  0  0  0  0  0  0999 V2000
   38.1780   22.8720   34.5020 C   0  0  0  0  0  0  0  0  0  0  0  0
   37.6510   21.9530   34.1790 H   0  0  0  0  0  0  0  0  0  0  0  0
   37.3880   23.4180   35.1080 H   0  0  0  0  0  0  0  0  0  0  0  0
   39.2090   22.8920   36.7270 C   0  0  0  0  0  0  0  0  0  0  0  0
   39.2400   22.5550   35.4020 C   0  0  0  0  0  0  0  0  0  0  0  0
   40.3980   21.9560   35.0330 C   0  0  0  0  0  0  0  0  0  0  0  0
   41.4140   21.7140   35.8620 N   0  0  0  0  0  0  0  0  0  0  0  0
   41.3820   22.0440   37.1390 C   0  0  0  0  0  0  0  0  0  0  0  0
   40.2770   22.6400   37.5930 N   0  0  0  0  0  0  0  0  0  0  0  0
   40.5720   21.6220   33.9970 H   0  0  0  0  0  0  0  0  0  0  0  0
   42.1150   21.9140   37.9100 H   0  0  0  0  0  0  0  0  0  0  0  0
   37.9330   23.4220   37.3740 C   0  0  0  0  0  0  0  0  0  0  0  0
   37.9190   24.2060   38.5170 C   0  0  0  0  0  0  0  0  0  0  0  0
   37.9970   25.0030   37.2280 C   0  0  0  0  0  0  0  0  0  0  0  0
   37.0040   23.0760   37.0020 H   0  0  0  0  0  0  0  0  0  0  0  0
   38.8620   24.3200   39.1310 H   0  0  0  0  0  0  0  0  0  0  0  0
   37.0410   24.3910   39.1320 H   0  0  0  0  0  0  0  0  0  0  0  0
   37.1020   25.4580   36.8170 H   0  0  0  0  0  0  0  0  0  0  0  0
   38.9280   25.4610   36.9400 H   0  0  0  0  0  0  0  0  0  0  0  0
   38.4990   23.7310   33.3400 C   0  0  0  0  0  0  0  0  0  0  0  0
   39.1940   23.1360   32.6780 H   0  0  0  0  0  0  0  0  0  0  0  0
   39.1100   24.6060   33.6410 H   0  0  0  0  0  0  0  0  0  0  0  0
   38.1510   26.4640   33.0530 F   0  0  0  0  0  0  0  0  0  0  0  0
   37.3120   25.5720   32.4670 C   0  0  0  0  0  0  0  0  0  0  0  0
   37.4060   24.1890   32.5380 C   0  0  0  0  0  0  0  0  0  0  0  0
   36.4520   23.4920   31.8740 C   0  0  0  0  0  0  0  0  0  0  0  0
   35.4520   24.0510   31.1630 C   0  0  0  0  0  0  0  0  0  0  0  0
   35.3590   25.4280   31.0940 C   0  0  0  0  0  0  0  0  0  0  0  0
   36.3050   26.1840   31.7630 C   0  0  0  0  0  0  0  0  0  0  0  0
   36.3840   22.4470   31.9390 H   0  0  0  0  0  0  0  0  0  0  0  0
   34.6960   23.4600   30.6300 H   0  0  0  0  0  0  0  0  0  0  0  0
   34.5220   25.8160   30.4970 H   0  0  0  0  0  0  0  0  0  0  0  0
   36.1260   27.5670   31.6700 O   0  0  0  0  0  0  0  0  0  0  0  0
   35.3360   28.4290   32.3560 C   0  0  0  0  0  3  0  0  0  0  0  0
   35.5630   29.8930   32.4260 C   0  0  0  0  0  2  0  0  0  0  0  0
   35.8520   29.0430   33.6400 C   0  0  0  0  0  2  0  0  0  0  0  0
  1  3  1  0  0  0  0
  1  5  1  0  0  0  0
  2  1  1  0  0  0  0
  4 12  1  0  0  0  0
  4  9  1  0  0  0  0
  5  4  2  0  0  0  0
  6  5  1  0  0  0  0
  6  7  2  0  0  0  0
  7  8  1  0  0  0  0
  8  9  2  0  0  0  0
  8 11  1  0  0  0  0
 10  6  1  0  0  0  0
 12 13  1  0  0  0  0
 13 16  1  0  0  0  0
 13 17  1  0  0  0  0
 14 12  1  0  0  0  0
 14 13  1  0  0  0  0
 15 12  1  0  0  0  0
 18 14  1  0  0  0  0
 19 14  1  0  0  0  0
 20 22  1  0  0  0  0
 20  1  1  0  0  0  0
 21 20  1  0  0  0  0
 24 25  1  0  0  0  0
 24 23  1  0  0  0  0
 25 20  1  0  0  0  0
 26 30  1  0  0  0  0
 26 25  2  0  0  0  0
 27 26  1  0  0  0  0
 28 27  2  0  0  0  0
 28 29  1  0  0  0  0
 29 24  2  0  0  0  0
 31 27  1  0  0  0  0
 32 28  1  0  0  0  0
 33 29  1  0  0  0  0
 33 34  1  0  0  0  0
 34 35  1  0  0  0  0
 34 36  1  0  0  0  0
 35 36  1  0  0  0  0
M  END
>  <minimizedAffinity>
-5.08393383

$$$$

 OpenBabel03272508223D

 36 39  0  0  0  0  0  0  0  0999 V2000
   36.6190   24.1030   31.5100 C   0  0  0  0  0  0  0  0  0  0  0  0
   35.7400   24.4150   30.9110 H   0  0  0  0  0  0  0  0  0  0  0  0
   36.1550   23.8090   32.5040 H   0  0  0  0  0  0  0  0  0  0  0  0
   36.6680   21.6780   31.1480 C   0  0  0  0  0  0  0  0  0  0  0  0
   37.2070   22.9210   30.9650 C   0  0  0  0  0  0  0  0  0  0  0  0
   38.3740   22.8990   30.2770 C   0  0  0  0  0  0  0  0  0  0  0  0
   38.9530   21.7870   29.8210 N   0  0  0  0  0  0  0  0  0  0  0  0
   38.4320   20.5890   30.0030 C   0  0  0  0  0  0  0  0  0  0  0  0
   37.2780   20.5150   30.6710 N   0  0  0  0  0  0  0  0  0  0  0  0
   38.9270   23.8230   30.0470 H   0  0  0  0  0  0  0  0  0  0  0  0
   38.7830   19.6230   29.6970 H   0  0  0  0  0  0  0  0  0  0  0  0
   35.2760   21.5040   31.7500 C   0  0  0  0  0  0  0  0  0  0  0  0
   34.7330   20.2750   32.0900 C   0  0  0  0  0  0  0  0  0  0  0  0
   35.5060   20.9370   33.2160 C   0  0  0  0  0  0  0  0  0  0  0  0
   34.6450   22.3530   31.8010 H   0  0  0  0  0  0  0  0  0  0  0  0
   35.2380   19.3240   31.7450 H   0  0  0  0  0  0  0  0  0  0  0  0
   33.6780   20.0950   32.2860 H   0  0  0  0  0  0  0  0  0  0  0  0
   34.9750   21.4690   33.9990 H   0  0  0  0  0  0  0  0  0  0  0  0
   36.4810   20.5660   33.4840 H   0  0  0  0  0  0  0  0  0  0  0  0
   37.5120   25.2530   31.7730 C   0  0  0  0  0  0  0  0  0  0  0  0
   37.1170   26.1180   31.1640 H   0  0  0  0  0  0  0  0  0  0  0  0
   38.5250   25.0820   31.3560 H   0  0  0  0  0  0  0  0  0  0  0  0
   39.0870   23.7420   33.4790 F   0  0  0  0  0  0  0  0  0  0  0  0
   38.4420   24.8580   33.9040 C   0  0  0  0  0  0  0  0  0  0  0  0
   37.6420   25.6880   33.1300 C   0  0  0  0  0  0  0  0  0  0  0  0
   37.0930   26.7500   33.7680 C   0  0  0  0  0  0  0  0  0  0  0  0
   37.2810   27.0400   35.0710 C   0  0  0  0  0  0  0  0  0  0  0  0
   38.0760   26.2130   35.8410 C   0  0  0  0  0  0  0  0  0  0  0  0
   38.6530   25.1100   35.2370 C   0  0  0  0  0  0  0  0  0  0  0  0
   36.4050   27.3850   33.2940 H   0  0  0  0  0  0  0  0  0  0  0  0
   36.8270   27.9130   35.5590 H   0  0  0  0  0  0  0  0  0  0  0  0
   38.1880   26.5100   36.8930 H   0  0  0  0  0  0  0  0  0  0  0  0
   39.4170   24.3070   36.0870 O   0  0  0  0  0  0  0  0  0  0  0  0
   39.0960   23.2490   36.8700 C   0  0  0  0  0  3  0  0  0  0  0  0
   38.8770   23.3310   38.3350 C   0  0  0  0  0  2  0  0  0  0  0  0
   40.1350   22.6810   37.8130 C   0  0  0  0  0  2  0  0  0  0  0  0
  1 20  1  0  0  0  0
  1  3  1  0  0  0  0
  2  1  1  0  0  0  0
  4 12  1  0  0  0  0
  5  4  1  0  0  0  0
  5  1  1  0  0  0  0
  6  5  2  0  0  0  0
  7  8  2  0  0  0  0
  7  6  1  0  0  0  0
  8  9  1  0  0  0  0
  9  4  2  0  0  0  0
 10  6  1  0  0  0  0
 11  8  1  0  0  0  0
 12 15  1  0  0  0  0
 12 13  1  0  0  0  0
 12 14  1  0  0  0  0
 13 17  1  0  0  0  0
 13 14  1  0  0  0  0
 14 19  1  0  0  0  0
 14 18  1  0  0  0  0
 16 13  1  0  0  0  0
 20 25  1  0  0  0  0
 21 20  1  0  0  0  0
 22 20  1  0  0  0  0
 23 24  1  0  0  0  0
 24 29  1  0  0  0  0
 25 26  1  0  0  0  0
 25 24  2  0  0  0  0
 26 27  2  0  0  0  0
 27 31  1  0  0  0  0
 27 28  1  0  0  0  0
 28 32  1  0  0  0  0
 29 28  2  0  0  0  0
 29 33  1  0  0  0  0
 30 26  1  0  0  0  0
 33 34  1  0  0  0  0
 34 36  1  0  0  0  0
 34 35  1  0  0  0  0
 36 35  1  0  0  0  0
M  END
>  <minimizedAffinity>
-5.02319336

$$$$

 OpenBabel03272508223D

 36 39  0  0  0  0  0  0  0  0999 V2000
   38.4030   26.9380   35.4120 C   0  0  0  0  0  0  0  0  0  0  0  0
   38.8000   27.3230   36.3720 H   0  0  0  0  0  0  0  0  0  0  0  0
   37.6010   27.6980   35.1480 H   0  0  0  0  0  0  0  0  0  0  0  0
   39.0820   27.2060   33.0720 C   0  0  0  0  0  0  0  0  0  0  0  0
   39.3950   27.0130   34.3890 C   0  0  0  0  0  0  0  0  0  0  0  0
   40.7220   26.8380   34.6000 C   0  0  0  0  0  0  0  0  0  0  0  0
   41.6420   26.8480   33.6340 N   0  0  0  0  0  0  0  0  0  0  0  0
   41.3350   27.0310   32.3640 C   0  0  0  0  0  0  0  0  0  0  0  0
   40.0480   27.2130   32.0620 N   0  0  0  0  0  0  0  0  0  0  0  0
   41.1300   26.6750   35.6100 H   0  0  0  0  0  0  0  0  0  0  0  0
   41.9620   27.0620   31.4940 H   0  0  0  0  0  0  0  0  0  0  0  0
   37.6670   27.5880   32.6470 C   0  0  0  0  0  0  0  0  0  0  0  0
   37.2430   27.6230   31.3270 C   0  0  0  0  0  0  0  0  0  0  0  0
   37.0400   26.2780   32.0020 C   0  0  0  0  0  0  0  0  0  0  0  0
   37.0070   27.9600   33.3870 H   0  0  0  0  0  0  0  0  0  0  0  0
   38.0020   27.5560   30.4920 H   0  0  0  0  0  0  0  0  0  0  0  0
   36.3380   28.1150   30.9800 H   0  0  0  0  0  0  0  0  0  0  0  0
   36.0620   26.0060   32.3840 H   0  0  0  0  0  0  0  0  0  0  0  0
   37.6910   25.4560   31.7580 H   0  0  0  0  0  0  0  0  0  0  0  0
   37.7180   25.6410   35.6090 C   0  0  0  0  0  0  0  0  0  0  0  0
   37.8070   25.0750   34.6360 H   0  0  0  0  0  0  0  0  0  0  0  0
   36.6240   25.7760   35.7320 H   0  0  0  0  0  0  0  0  0  0  0  0
   39.5470   23.6640   34.9600 F   0  0  0  0  0  0  0  0  0  0  0  0
   39.0980   23.8320   36.2300 C   0  0  0  0  0  0  0  0  0  0  0  0
   38.1960   24.7970   36.6600 C   0  0  0  0  0  0  0  0  0  0  0  0
   37.8870   24.7760   37.9790 C   0  0  0  0  0  0  0  0  0  0  0  0
   38.3980   23.9040   38.8720 C   0  0  0  0  0  0  0  0  0  0  0  0
   39.2960   22.9450   38.4420 C   0  0  0  0  0  0  0  0  0  0  0  0
   39.6360   22.9190   37.1010 C   0  0  0  0  0  0  0  0  0  0  0  0
   37.1510   25.4050   38.3850 H   0  0  0  0  0  0  0  0  0  0  0  0
   38.1340   23.9170   39.9370 H   0  0  0  0  0  0  0  0  0  0  0  0
   39.6740   22.2680   39.2220 H   0  0  0  0  0  0  0  0  0  0  0  0
   40.5240   21.9020   36.7400 O   0  0  0  0  0  0  0  0  0  0  0  0
   41.8770   21.8240   36.7690 C   0  0  0  0  0  3  0  0  0  0  0  0
   42.7840   22.9630   36.4840 C   0  0  0  0  0  2  0  0  0  0  0  0
   42.6480   21.8560   35.4670 C   0  0  0  0  0  2  0  0  0  0  0  0
  1 20  1  0  0  0  0
  1  2  1  0  0  0  0
  3  1  1  0  0  0  0
  4  5  1  0  0  0  0
  5  6  2  0  0  0  0
  5  1  1  0  0  0  0
  6 10  1  0  0  0  0
  7  6  1  0  0  0  0
  8  7  2  0  0  0  0
  9  8  1  0  0  0  0
  9  4  2  0  0  0  0
 11  8  1  0  0  0  0
 12  4  1  0  0  0  0
 12 15  1  0  0  0  0
 13 14  1  0  0  0  0
 13 12  1  0  0  0  0
 14 18  1  0  0  0  0
 14 12  1  0  0  0  0
 16 13  1  0  0  0  0
 17 13  1  0  0  0  0
 19 14  1  0  0  0  0
 20 22  1  0  0  0  0
 20 25  1  0  0  0  0
 21 20  1  0  0  0  0
 23 24  1  0  0  0  0
 24 25  2  0  0  0  0
 24 29  1  0  0  0  0
 25 26  1  0  0  0  0
 26 30  1  0  0  0  0
 26 27  2  0  0  0  0
 27 31  1  0  0  0  0
 28 27  1  0  0  0  0
 28 32  1  0  0  0  0
 29 28  2  0  0  0  0
 33 34  1  0  0  0  0
 33 29  1  0  0  0  0
 35 34  1  0  0  0  0
 36 35  1  0  0  0  0
 36 34  1  0  0  0  0
M  END
>  <minimizedAffinity>
-5.02033138

$$$$

 OpenBabel03272508223D

 36 39  0  0  0  0  0  0  0  0999 V2000
   36.0720   29.1680   34.2150 C   0  0  0  0  0  0  0  0  0  0  0  0
   36.1260   28.9110   35.2910 H   0  0  0  0  0  0  0  0  0  0  0  0
   36.9630   29.8570   34.0740 H   0  0  0  0  0  0  0  0  0  0  0  0
   37.0290   26.9390   33.8530 C   0  0  0  0  0  0  0  0  0  0  0  0
   36.3130   28.0150   33.4070 C   0  0  0  0  0  0  0  0  0  0  0  0
   35.9200   27.8940   32.1160 C   0  0  0  0  0  0  0  0  0  0  0  0
   36.1970   26.8420   31.3440 N   0  0  0  0  0  0  0  0  0  0  0  0
   36.8920   25.8070   31.7770 C   0  0  0  0  0  0  0  0  0  0  0  0
   37.3200   25.8400   33.0420 N   0  0  0  0  0  0  0  0  0  0  0  0
   35.3310   28.6790   31.6150 H   0  0  0  0  0  0  0  0  0  0  0  0
   37.1860   24.9070   31.2750 H   0  0  0  0  0  0  0  0  0  0  0  0
   37.4160   26.8070   35.3230 C   0  0  0  0  0  0  0  0  0  0  0  0
   38.3250   25.8730   35.7990 C   0  0  0  0  0  0  0  0  0  0  0  0
   38.9550   27.1960   35.4030 C   0  0  0  0  0  0  0  0  0  0  0  0
   36.8780   27.3770   36.0350 H   0  0  0  0  0  0  0  0  0  0  0  0
   38.6690   25.0330   35.1250 H   0  0  0  0  0  0  0  0  0  0  0  0
   38.4370   25.5930   36.8430 H   0  0  0  0  0  0  0  0  0  0  0  0
   39.2010   27.9290   36.1630 H   0  0  0  0  0  0  0  0  0  0  0  0
   39.5220   27.2640   34.4890 H   0  0  0  0  0  0  0  0  0  0  0  0
   34.8600   29.9660   33.9250 C   0  0  0  0  0  0  0  0  0  0  0  0
   34.2180   29.3440   33.2350 H   0  0  0  0  0  0  0  0  0  0  0  0
   35.1020   30.8620   33.3170 H   0  0  0  0  0  0  0  0  0  0  0  0
   35.7280   32.1130   35.4460 F   0  0  0  0  0  0  0  0  0  0  0  0
   34.5830   31.4460   35.7400 C   0  0  0  0  0  0  0  0  0  0  0  0
   34.0560   30.3710   35.0360 C   0  0  0  0  0  0  0  0  0  0  0  0
   32.8970   29.8570   35.5150 C   0  0  0  0  0  0  0  0  0  0  0  0
   32.2430   30.3230   36.5980 C   0  0  0  0  0  0  0  0  0  0  0  0
   32.7680   31.3920   37.2970 C   0  0  0  0  0  0  0  0  0  0  0  0
   33.9560   31.9470   36.8530 C   0  0  0  0  0  0  0  0  0  0  0  0
   32.4660   28.9910   35.1080 H   0  0  0  0  0  0  0  0  0  0  0  0
   31.3010   29.8900   36.9580 H   0  0  0  0  0  0  0  0  0  0  0  0
   32.1830   31.7220   38.1670 H   0  0  0  0  0  0  0  0  0  0  0  0
   34.4380   33.0030   37.6300 O   0  0  0  0  0  0  0  0  0  0  0  0
   34.1540   34.3290   37.6380 C   0  0  0  0  0  3  0  0  0  0  0  0
   33.5240   35.0540   36.5070 C   0  0  0  0  0  2  0  0  0  0  0  0
   34.9900   35.2700   36.7970 C   0  0  0  0  0  2  0  0  0  0  0  0
  1  2  1  0  0  0  0
  3  1  1  0  0  0  0
  4 12  1  0  0  0  0
  5  4  1  0  0  0  0
  5  1  1  0  0  0  0
  6  5  2  0  0  0  0
  7  8  2  0  0  0  0
  7  6  1  0  0  0  0
  8  9  1  0  0  0  0
  9  4  2  0  0  0  0
 10  6  1  0  0  0  0
 11  8  1  0  0  0  0
 12 14  1  0  0  0  0
 12 13  1  0  0  0  0
 12 15  1  0  0  0  0
 13 17  1  0  0  0  0
 14 13  1  0  0  0  0
 14 18  1  0  0  0  0
 16 13  1  0  0  0  0
 19 14  1  0  0  0  0
 20  1  1  0  0  0  0
 20 25  1  0  0  0  0
 21 20  1  0  0  0  0
 22 20  1  0  0  0  0
 23 24  1  0  0  0  0
 24 29  1  0  0  0  0
 25 26  1  0  0  0  0
 25 24  2  0  0  0  0
 26 27  2  0  0  0  0
 27 31  1  0  0  0  0
 27 28  1  0  0  0  0
 28 32  1  0  0  0  0
 29 28  2  0  0  0  0
 29 33  1  0  0  0  0
 30 26  1  0  0  0  0
 33 34  1  0  0  0  0
 35 36  1  0  0  0  0
 35 34  1  0  0  0  0
 36 34  1  0  0  0  0
M  END
>  <minimizedAffinity>
-5.00040579

$$$$
