
 OpenBabel03272509433D

 32 34  0  0  1  0  0  0  0  0999 V2000
   37.0130   30.9180   49.0310 C   0  0  0  0  0  0  0  0  0  0  0  0
   36.7310   31.7940   50.0800 C   0  0  0  0  0  0  0  0  0  0  0  0
   37.3240   33.0460   50.1680 C   0  0  0  0  0  0  0  0  0  0  0  0
   38.2290   33.4460   49.1820 C   0  0  0  0  0  0  0  0  0  0  0  0
   38.4950   32.5780   48.1620 C   0  0  0  0  0  0  0  0  0  0  0  0
   37.8840   31.3340   48.1060 C   0  0  0  0  0  0  0  0  0  0  0  0
   36.0200   31.4520   50.8360 H   0  0  0  0  0  0  0  0  0  0  0  0
   37.0220   33.6230   51.0260 H   0  0  0  0  0  0  0  0  0  0  0  0
   38.6360   34.4260   49.3300 H   0  0  0  0  0  0  0  0  0  0  0  0
   39.2150   33.0290   47.4780 H   0  0  0  0  0  0  0  0  0  0  0  0
   36.4180   29.6000   48.9610 C   0  0  2  0  0  0  0  0  0  0  0  0
   36.9480   29.0790   48.0740 H   0  0  0  0  0  0  0  0  0  0  0  0
   33.5620   30.1220   46.7760 C   0  0  0  0  0  0  0  0  0  0  0  0
   32.8780   28.9220   46.8270 C   0  0  0  0  0  0  0  0  0  0  0  0
   33.3580   27.9340   47.6660 C   0  0  0  0  0  0  0  0  0  0  0  0
   34.4900   28.1750   48.4140 N   0  0  0  0  0  0  0  0  0  0  0  0
   35.0980   29.3390   48.3190 C   0  0  0  0  0  0  0  0  0  0  0  0
   34.6420   30.3190   47.5060 N   0  0  0  0  0  0  0  0  0  0  0  0
   33.2110   30.9240   46.1260 H   0  0  0  0  0  0  0  0  0  0  0  0
   32.0050   28.8280   46.2030 H   0  0  0  0  0  0  0  0  0  0  0  0
   32.8270   26.9930   47.7110 H   0  0  0  0  0  0  0  0  0  0  0  0
   36.8550   28.8120   49.8790 O   0  0  0  0  0  0  0  0  0  0  0  0
   36.5170   28.7700   50.7890 H   0  0  0  0  0  0  0  0  0  0  0  0
   38.2800   30.5060   46.9900 C   0  0  0  0  0  3  0  0  0  0  0  0
   39.0400   30.9350   45.9780 C   0  0  0  0  0  3  0  0  0  0  0  0
   39.5380   30.1680   44.8130 C   0  0  0  0  0  0  0  0  0  0  0  0
   38.7350   29.5510   44.3380 H   0  0  0  0  0  0  0  0  0  0  0  0
   40.3610   29.4790   45.0820 H   0  0  0  0  0  0  0  0  0  0  0  0
   40.1590   31.3000   43.5640 S   0  0  0  0  0  0  0  0  0  0  0  0
   38.8040   31.7620   42.4240 C   0  0  0  0  0  3  0  0  0  0  0  0
   37.7200   32.5780   43.0190 C   0  0  0  0  0  2  0  0  0  0  0  0
   37.4620   31.1650   42.6380 C   0  0  0  0  0  2  0  0  0  0  0  0
  1  2  1  0  0  0  0
  2  3  2  0  0  0  0
  2  7  1  0  0  0  0
  3  8  1  0  0  0  0
  4  9  1  0  0  0  0
  4  3  1  0  0  0  0
  5  4  2  0  0  0  0
  6  5  1  0  0  0  0
  6  1  2  0  0  0  0
 10  5  1  0  0  0  0
 11 12  1  6  0  0  0
 11  1  1  0  0  0  0
 11 22  1  0  0  0  0
 13 14  2  0  0  0  0
 13 18  1  0  0  0  0
 14 15  1  0  0  0  0
 15 21  1  0  0  0  0
 15 16  2  0  0  0  0
 17 16  1  0  0  0  0
 17 11  1  0  0  0  0
 18 17  2  0  0  0  0
 19 13  1  0  0  0  0
 20 14  1  0  0  0  0
 22 23  1  0  0  0  0
 24  6  1  0  0  0  0
 25 24  2  0  0  0  0
 26 28  1  0  0  0  0
 26 25  1  0  0  0  0
 27 26  1  0  0  0  0
 29 26  1  0  0  0  0
 30 32  1  0  0  0  0
 30 31  1  0  0  0  0
 30 29  1  0  0  0  0
 32 31  1  0  0  0  0
M  END
>  <minimizedAffinity>
-5.35132217

>  <minimizedRMSD>
0.64306289

$$$$
