
 OpenBabel03272508093D

 18 19  0  0  0  0  0  0  0  0999 V2000
   39.7090   22.7700   37.6140 C   0  0  0  0  0  0  0  0  0  0  0  0
   39.7550   23.3930   36.3700 C   0  0  0  0  0  0  0  0  0  0  0  0
   38.8900   24.4640   36.1430 C   0  0  0  0  0  0  0  0  0  0  0  0
   38.0550   24.8360   37.1480 N   0  0  0  0  0  0  0  0  0  0  0  0
   38.0480   24.1970   38.3440 C   0  0  0  0  0  0  0  0  0  0  0  0
   38.8710   23.1750   38.5630 N   0  0  0  0  0  0  0  0  0  0  0  0
   40.4330   21.9550   37.6540 H   0  0  0  0  0  0  0  0  0  0  0  0
   40.3690   23.1780   35.5220 H   0  0  0  0  0  0  0  0  0  0  0  0
   37.3840   24.4900   39.1480 H   0  0  0  0  0  0  0  0  0  0  0  0
   38.7450   25.2260   35.0300 O   0  0  0  0  0  0  0  0  0  0  0  0
   40.6730   27.0200   34.5120 O   0  0  0  0  0  0  0  0  0  0  0  0
   39.2120   26.8240   34.7930 P   0  0  2  0  0  0  0  0  0  0  0  0
   38.7290   27.7970   36.0930 O   0  0  0  0  0  0  0  0  0  0  0  0
   37.8970   27.3960   36.4460 H   0  0  0  0  0  0  0  0  0  0  0  0
   38.3680   27.4360   33.4300 O   0  0  0  0  0  0  0  0  0  0  0  0
   37.0100   27.2390   33.5580 C   0  0  0  0  0  3  0  0  0  0  0  0
   36.2090   28.4580   33.8510 C   0  0  0  0  0  2  0  0  0  0  0  0
   36.1670   27.8430   32.4750 C   0  0  0  0  0  2  0  0  0  0  0  0
  1  7  1  0  0  0  0
  1  6  1  0  0  0  0
  2  1  2  0  0  0  0
  3  2  1  0  0  0  0
  3  4  2  0  0  0  0
  4  5  1  0  0  0  0
  5  6  2  0  0  0  0
  5  9  1  0  0  0  0
  8  2  1  0  0  0  0
 10  3  1  0  0  0  0
 12 11  2  6  0  0  0
 12 10  1  0  0  0  0
 12 13  1  0  0  0  0
 13 14  1  0  0  0  0
 15 16  1  0  0  0  0
 15 12  1  0  0  0  0
 16 17  1  0  0  0  0
 18 16  1  0  0  0  0
 18 17  1  0  0  0  0
M  END
>  <minimizedAffinity>
-4.16038704

$$$$

 OpenBabel03272508093D

 18 19  0  0  0  0  0  0  0  0999 V2000
   39.5410   26.8280   34.0800 C   0  0  0  0  0  0  0  0  0  0  0  0
   39.6690   26.0730   35.2420 C   0  0  0  0  0  0  0  0  0  0  0  0
   38.5020   25.6680   35.8900 C   0  0  0  0  0  0  0  0  0  0  0  0
   37.3100   26.0320   35.3490 N   0  0  0  0  0  0  0  0  0  0  0  0
   37.2370   26.7700   34.2140 C   0  0  0  0  0  0  0  0  0  0  0  0
   38.3480   27.1580   33.5940 N   0  0  0  0  0  0  0  0  0  0  0  0
   40.5260   27.0740   33.6800 H   0  0  0  0  0  0  0  0  0  0  0  0
   40.5510   25.7380   35.7430 H   0  0  0  0  0  0  0  0  0  0  0  0
   36.2900   27.0630   33.7790 H   0  0  0  0  0  0  0  0  0  0  0  0
   38.3620   24.9340   37.0230 O   0  0  0  0  0  0  0  0  0  0  0  0
   37.2140   22.5510   36.5690 O   0  0  0  0  0  0  0  0  0  0  0  0
   38.3810   23.2610   37.1900 P   0  0  2  0  0  0  0  0  0  0  0  0
   38.5400   22.8160   38.8170 O   0  0  0  0  0  0  0  0  0  0  0  0
   39.0690   23.5300   39.2500 H   0  0  0  0  0  0  0  0  0  0  0  0
   39.7870   22.6580   36.4140 O   0  0  0  0  0  0  0  0  0  0  0  0
   40.8570   22.6220   37.2830 C   0  0  0  0  0  3  0  0  0  0  0  0
   41.6830   21.3870   37.2350 C   0  0  0  0  0  2  0  0  0  0  0  0
   42.2110   22.6680   36.6400 C   0  0  0  0  0  2  0  0  0  0  0  0
  1  2  1  0  0  0  0
  2  8  1  0  0  0  0
  2  3  2  0  0  0  0
  3 10  1  0  0  0  0
  4  3  1  0  0  0  0
  5  4  2  0  0  0  0
  6  1  2  0  0  0  0
  6  5  1  0  0  0  0
  7  1  1  0  0  0  0
  9  5  1  0  0  0  0
 10 12  1  0  0  0  0
 12 11  2  6  0  0  0
 12 13  1  0  0  0  0
 13 14  1  0  0  0  0
 15 12  1  0  0  0  0
 15 16  1  0  0  0  0
 17 16  1  0  0  0  0
 18 17  1  0  0  0  0
 18 16  1  0  0  0  0
M  END
>  <minimizedAffinity>
-4.01628637

$$$$

 OpenBabel03272508093D

 18 19  0  0  0  0  0  0  0  0999 V2000
   42.0310   20.9580   37.2020 C   0  0  0  0  0  0  0  0  0  0  0  0
   41.1090   21.9700   37.4550 C   0  0  0  0  0  0  0  0  0  0  0  0
   40.6790   22.7460   36.3780 C   0  0  0  0  0  0  0  0  0  0  0  0
   41.1830   22.4700   35.1480 N   0  0  0  0  0  0  0  0  0  0  0  0
   42.0810   21.4730   34.9520 C   0  0  0  0  0  0  0  0  0  0  0  0
   42.4940   20.7310   35.9760 N   0  0  0  0  0  0  0  0  0  0  0  0
   42.2780   20.4340   38.1260 H   0  0  0  0  0  0  0  0  0  0  0  0
   40.6560   22.2640   38.3770 H   0  0  0  0  0  0  0  0  0  0  0  0
   42.4870   21.2490   33.9730 H   0  0  0  0  0  0  0  0  0  0  0  0
   39.7970   23.7780   36.3650 O   0  0  0  0  0  0  0  0  0  0  0  0
   38.2180   24.3050   38.4700 O   0  0  0  0  0  0  0  0  0  0  0  0
   38.2600   23.8430   37.0420 P   0  0  2  0  0  0  0  0  0  0  0  0
   37.4620   22.3570   36.8830 O   0  0  0  0  0  0  0  0  0  0  0  0
   37.8010   21.9480   36.0490 H   0  0  0  0  0  0  0  0  0  0  0  0
   37.3210   24.9610   36.1410 O   0  0  0  0  0  0  0  0  0  0  0  0
   38.1250   25.8240   35.4280 C   0  0  0  0  0  3  0  0  0  0  0  0
   37.4740   27.0810   34.9700 C   0  0  0  0  0  2  0  0  0  0  0  0
   38.4540   27.1160   36.1160 C   0  0  0  0  0  2  0  0  0  0  0  0
  1  2  1  0  0  0  0
  1  7  1  0  0  0  0
  2  8  1  0  0  0  0
  3  2  2  0  0  0  0
  4  3  1  0  0  0  0
  5  4  2  0  0  0  0
  5  6  1  0  0  0  0
  6  1  2  0  0  0  0
  9  5  1  0  0  0  0
 10  3  1  0  0  0  0
 10 12  1  0  0  0  0
 12 11  2  1  0  0  0
 13 12  1  0  0  0  0
 14 13  1  0  0  0  0
 15 12  1  0  0  0  0
 16 18  1  0  0  0  0
 16 15  1  0  0  0  0
 17 16  1  0  0  0  0
 17 18  1  0  0  0  0
M  END
>  <minimizedAffinity>
-3.81200242

$$$$

 OpenBabel03272508093D

 18 19  0  0  0  0  0  0  0  0999 V2000
   39.9040   22.7590   37.5060 C   0  0  0  0  0  0  0  0  0  0  0  0
   39.4470   22.2440   36.2960 C   0  0  0  0  0  0  0  0  0  0  0  0
   38.0810   22.3310   36.0230 C   0  0  0  0  0  0  0  0  0  0  0  0
   37.2790   22.9140   36.9510 N   0  0  0  0  0  0  0  0  0  0  0  0
   37.7730   23.4020   38.1160 C   0  0  0  0  0  0  0  0  0  0  0  0
   39.0740   23.3200   38.3800 N   0  0  0  0  0  0  0  0  0  0  0  0
   40.9840   22.6260   37.5880 H   0  0  0  0  0  0  0  0  0  0  0  0
   39.9910   21.7710   35.5080 H   0  0  0  0  0  0  0  0  0  0  0  0
   37.1370   23.8670   38.8590 H   0  0  0  0  0  0  0  0  0  0  0  0
   37.3980   21.9090   34.9290 O   0  0  0  0  0  0  0  0  0  0  0  0
   38.8880   21.1340   32.8360 O   0  0  0  0  0  0  0  0  0  0  0  0
   37.8190   22.0740   33.3100 P   0  0  2  0  0  0  0  0  0  0  0  0
   38.2460   23.6750   32.9540 O   0  0  0  0  0  0  0  0  0  0  0  0
   37.7140   24.2460   33.5610 H   0  0  0  0  0  0  0  0  0  0  0  0
   36.4290   21.7530   32.3560 O   0  0  0  0  0  0  0  0  0  0  0  0
   35.5540   20.9190   33.0190 C   0  0  0  0  0  3  0  0  0  0  0  0
   34.5470   20.2340   32.1660 C   0  0  0  0  0  2  0  0  0  0  0  0
   35.7110   19.4560   32.7260 C   0  0  0  0  0  2  0  0  0  0  0  0
  1  7  1  0  0  0  0
  1  6  1  0  0  0  0
  2  1  2  0  0  0  0
  3  2  1  0  0  0  0
  3  4  2  0  0  0  0
  4  5  1  0  0  0  0
  5  6  2  0  0  0  0
  5  9  1  0  0  0  0
  8  2  1  0  0  0  0
 10  3  1  0  0  0  0
 12 11  2  6  0  0  0
 12 10  1  0  0  0  0
 13 12  1  0  0  0  0
 13 14  1  0  0  0  0
 15 16  1  0  0  0  0
 15 12  1  0  0  0  0
 17 18  1  0  0  0  0
 17 16  1  0  0  0  0
 18 16  1  0  0  0  0
M  END
>  <minimizedAffinity>
-3.7748642

$$$$

 OpenBabel03272508093D

 18 19  0  0  0  0  0  0  0  0999 V2000
   35.9790   22.4130   31.8260 C   0  0  0  0  0  0  0  0  0  0  0  0
   37.0180   23.0600   32.4880 C   0  0  0  0  0  0  0  0  0  0  0  0
   37.4420   22.5350   33.7100 C   0  0  0  0  0  0  0  0  0  0  0  0
   36.8180   21.4240   34.1800 N   0  0  0  0  0  0  0  0  0  0  0  0
   35.8090   20.8280   33.4970 C   0  0  0  0  0  0  0  0  0  0  0  0
   35.4020   21.3260   32.3320 N   0  0  0  0  0  0  0  0  0  0  0  0
   35.7510   22.9260   30.8910 H   0  0  0  0  0  0  0  0  0  0  0  0
   37.5680   23.9310   32.2060 H   0  0  0  0  0  0  0  0  0  0  0  0
   35.3090   19.9420   33.8670 H   0  0  0  0  0  0  0  0  0  0  0  0
   38.4220   22.9770   34.5380 O   0  0  0  0  0  0  0  0  0  0  0  0
   39.6700   22.7970   36.9070 O   0  0  0  0  0  0  0  0  0  0  0  0
   38.3820   23.1280   36.2120 P   0  0  2  0  0  0  0  0  0  0  0  0
   37.1090   22.2260   36.8730 O   0  0  0  0  0  0  0  0  0  0  0  0
   36.3920   22.2170   36.1920 H   0  0  0  0  0  0  0  0  0  0  0  0
   38.0280   24.7630   36.5970 O   0  0  0  0  0  0  0  0  0  0  0  0
   38.4210   25.6080   35.5820 C   0  0  0  0  0  3  0  0  0  0  0  0
   37.3810   26.5500   35.0900 C   0  0  0  0  0  2  0  0  0  0  0  0
   38.5090   27.0600   35.9510 C   0  0  0  0  0  2  0  0  0  0  0  0
  1  6  2  0  0  0  0
  1  2  1  0  0  0  0
  2  3  2  0  0  0  0
  3  4  1  0  0  0  0
  3 10  1  0  0  0  0
  5  9  1  0  0  0  0
  5  4  2  0  0  0  0
  6  5  1  0  0  0  0
  7  1  1  0  0  0  0
  8  2  1  0  0  0  0
 10 12  1  0  0  0  0
 12 15  1  0  0  0  0
 12 13  1  0  0  0  0
 12 11  2  1  0  0  0
 14 13  1  0  0  0  0
 16 18  1  0  0  0  0
 16 15  1  0  0  0  0
 17 16  1  0  0  0  0
 17 18  1  0  0  0  0
M  END
>  <minimizedAffinity>
-3.74778152

$$$$

 OpenBabel03272508093D

 18 19  0  0  0  0  0  0  0  0999 V2000
   39.7600   22.8450   37.6020 C   0  0  0  0  0  0  0  0  0  0  0  0
   39.6060   23.0840   36.2390 C   0  0  0  0  0  0  0  0  0  0  0  0
   38.5140   23.8510   35.8290 C   0  0  0  0  0  0  0  0  0  0  0  0
   37.6670   24.3190   36.7820 N   0  0  0  0  0  0  0  0  0  0  0  0
   37.8600   24.0590   38.0990 C   0  0  0  0  0  0  0  0  0  0  0  0
   38.8990   23.3290   38.4930 N   0  0  0  0  0  0  0  0  0  0  0  0
   40.6480   22.2380   37.7790 H   0  0  0  0  0  0  0  0  0  0  0  0
   40.2100   22.7640   35.4180 H   0  0  0  0  0  0  0  0  0  0  0  0
   37.1880   24.4310   38.8620 H   0  0  0  0  0  0  0  0  0  0  0  0
   38.1490   24.2190   34.5750 O   0  0  0  0  0  0  0  0  0  0  0  0
   39.0350   26.5240   33.5250 O   0  0  0  0  0  0  0  0  0  0  0  0
   37.8290   25.7640   33.9940 P   0  0  2  0  0  0  0  0  0  0  0  0
   36.9690   26.6760   35.1350 O   0  0  0  0  0  0  0  0  0  0  0  0
   36.4170   26.0330   35.6440 H   0  0  0  0  0  0  0  0  0  0  0  0
   36.7840   25.6260   32.6410 O   0  0  0  0  0  0  0  0  0  0  0  0
   36.7240   24.3250   32.1910 C   0  0  0  0  0  3  0  0  0  0  0  0
   35.6470   24.0340   31.2070 C   0  0  0  0  0  2  0  0  0  0  0  0
   37.0800   24.1250   30.7470 C   0  0  0  0  0  2  0  0  0  0  0  0
  1  7  1  0  0  0  0
  1  6  1  0  0  0  0
  2  1  2  0  0  0  0
  3  2  1  0  0  0  0
  3  4  2  0  0  0  0
  4  5  1  0  0  0  0
  5  6  2  0  0  0  0
  5  9  1  0  0  0  0
  8  2  1  0  0  0  0
 10  3  1  0  0  0  0
 12 11  2  6  0  0  0
 12 10  1  0  0  0  0
 12 13  1  0  0  0  0
 13 14  1  0  0  0  0
 15 12  1  0  0  0  0
 16 15  1  0  0  0  0
 17 16  1  0  0  0  0
 18 17  1  0  0  0  0
 18 16  1  0  0  0  0
M  END
>  <minimizedAffinity>
-3.7476759

$$$$

 OpenBabel03272508093D

 18 19  0  0  0  0  0  0  0  0999 V2000
   38.7870   23.3980   38.5280 C   0  0  0  0  0  0  0  0  0  0  0  0
   37.9640   24.2910   37.8480 C   0  0  0  0  0  0  0  0  0  0  0  0
   38.2510   24.5520   36.5070 C   0  0  0  0  0  0  0  0  0  0  0  0
   39.3150   23.9220   35.9460 N   0  0  0  0  0  0  0  0  0  0  0  0
   40.0890   23.0600   36.6510 C   0  0  0  0  0  0  0  0  0  0  0  0
   39.8180   22.8080   37.9290 N   0  0  0  0  0  0  0  0  0  0  0  0
   38.4500   23.2870   39.5600 H   0  0  0  0  0  0  0  0  0  0  0  0
   37.1120   24.8330   38.1960 H   0  0  0  0  0  0  0  0  0  0  0  0
   40.9380   22.5550   36.2080 H   0  0  0  0  0  0  0  0  0  0  0  0
   37.6080   25.3720   35.6380 O   0  0  0  0  0  0  0  0  0  0  0  0
   39.4830   27.2840   35.4620 O   0  0  0  0  0  0  0  0  0  0  0  0
   38.1760   26.7830   34.9220 P   0  0  2  0  0  0  0  0  0  0  0  0
   37.0070   28.0090   34.9850 O   0  0  0  0  0  0  0  0  0  0  0  0
   36.1290   27.5570   34.9500 H   0  0  0  0  0  0  0  0  0  0  0  0
   38.4240   26.4780   33.2520 O   0  0  0  0  0  0  0  0  0  0  0  0
   37.7500   27.3950   32.4740 C   0  0  0  0  0  3  0  0  0  0  0  0
   38.4040   27.7510   31.1870 C   0  0  0  0  0  2  0  0  0  0  0  0
   37.1870   26.8610   31.1910 C   0  0  0  0  0  2  0  0  0  0  0  0
  1  7  1  0  0  0  0
  2  8  1  0  0  0  0
  2  1  2  0  0  0  0
  3  2  1  0  0  0  0
  4  3  2  0  0  0  0
  4  5  1  0  0  0  0
  5  6  2  0  0  0  0
  6  1  1  0  0  0  0
  9  5  1  0  0  0  0
 10  3  1  0  0  0  0
 12 13  1  0  0  0  0
 12 11  2  1  0  0  0
 12 10  1  0  0  0  0
 14 13  1  0  0  0  0
 15 12  1  0  0  0  0
 16 15  1  0  0  0  0
 17 18  1  0  0  0  0
 17 16  1  0  0  0  0
 18 16  1  0  0  0  0
M  END
>  <minimizedAffinity>
-3.69374967

$$$$

 OpenBabel03272508093D

 18 19  0  0  0  0  0  0  0  0999 V2000
   39.9100   22.8700   36.6100 C   0  0  0  0  0  0  0  0  0  0  0  0
   39.2000   23.7930   35.8470 C   0  0  0  0  0  0  0  0  0  0  0  0
   38.2390   24.5730   36.4920 C   0  0  0  0  0  0  0  0  0  0  0  0
   38.0540   24.3880   37.8250 N   0  0  0  0  0  0  0  0  0  0  0  0
   38.7710   23.4740   38.5250 C   0  0  0  0  0  0  0  0  0  0  0  0
   39.6870   22.7290   37.9130 N   0  0  0  0  0  0  0  0  0  0  0  0
   40.6230   22.3330   35.9830 H   0  0  0  0  0  0  0  0  0  0  0  0
   39.2700   24.0130   34.8040 H   0  0  0  0  0  0  0  0  0  0  0  0
   38.6270   23.3230   39.5870 H   0  0  0  0  0  0  0  0  0  0  0  0
   37.4260   25.5300   35.9770 O   0  0  0  0  0  0  0  0  0  0  0  0
   36.7980   27.7410   34.5920 O   0  0  0  0  0  0  0  0  0  0  0  0
   37.7220   26.5620   34.6830 P   0  0  2  0  0  0  0  0  0  0  0  0
   37.7350   25.7120   33.2180 O   0  0  0  0  0  0  0  0  0  0  0  0
   38.0630   24.8030   33.4280 H   0  0  0  0  0  0  0  0  0  0  0  0
   39.3070   27.1980   34.8530 O   0  0  0  0  0  0  0  0  0  0  0  0
   40.1670   26.6400   33.9310 C   0  0  0  0  0  3  0  0  0  0  0  0
   41.3410   27.4740   33.5600 C   0  0  0  0  0  2  0  0  0  0  0  0
   41.5240   26.2750   34.4560 C   0  0  0  0  0  2  0  0  0  0  0  0
  1  6  1  0  0  0  0
  2  3  1  0  0  0  0
  2  1  2  0  0  0  0
  3  4  2  0  0  0  0
  4  5  1  0  0  0  0
  5  9  1  0  0  0  0
  6  5  2  0  0  0  0
  7  1  1  0  0  0  0
  8  2  1  0  0  0  0
 10  3  1  0  0  0  0
 12 11  2  6  0  0  0
 12 15  1  0  0  0  0
 12 10  1  0  0  0  0
 13 14  1  0  0  0  0
 13 12  1  0  0  0  0
 16 18  1  0  0  0  0
 16 15  1  0  0  0  0
 17 16  1  0  0  0  0
 17 18  1  0  0  0  0
M  END
>  <minimizedAffinity>
-3.64722896

$$$$

 OpenBabel03272508093D

 18 19  0  0  0  0  0  0  0  0999 V2000
   38.7820   23.3960   38.5990 C   0  0  0  0  0  0  0  0  0  0  0  0
   37.9450   24.3250   37.9860 C   0  0  0  0  0  0  0  0  0  0  0  0
   38.1570   24.6030   36.6350 C   0  0  0  0  0  0  0  0  0  0  0  0
   39.1640   23.9530   35.9970 N   0  0  0  0  0  0  0  0  0  0  0  0
   39.9540   23.0560   36.6390 C   0  0  0  0  0  0  0  0  0  0  0  0
   39.7550   22.7880   37.9260 N   0  0  0  0  0  0  0  0  0  0  0  0
   38.5070   23.2750   39.6470 H   0  0  0  0  0  0  0  0  0  0  0  0
   37.1330   24.8850   38.3960 H   0  0  0  0  0  0  0  0  0  0  0  0
   40.7580   22.5350   36.1350 H   0  0  0  0  0  0  0  0  0  0  0  0
   37.4860   25.4580   35.8220 O   0  0  0  0  0  0  0  0  0  0  0  0
   37.6550   25.1590   33.1600 O   0  0  0  0  0  0  0  0  0  0  0  0
   37.9570   26.0570   34.3240 P   0  0  2  0  0  0  0  0  0  0  0  0
   39.5980   26.4790   34.3280 O   0  0  0  0  0  0  0  0  0  0  0  0
   39.8090   26.7650   35.2510 H   0  0  0  0  0  0  0  0  0  0  0  0
   37.1120   27.5230   34.0390 O   0  0  0  0  0  0  0  0  0  0  0  0
   36.5240   27.5230   32.7920 C   0  0  0  0  0  3  0  0  0  0  0  0
   35.7190   28.7290   32.4610 C   0  0  0  0  0  2  0  0  0  0  0  0
   37.0700   28.5300   31.8240 C   0  0  0  0  0  2  0  0  0  0  0  0
  1  7  1  0  0  0  0
  2  8  1  0  0  0  0
  2  1  1  0  0  0  0
  3  2  2  0  0  0  0
  4  3  1  0  0  0  0
  4  5  2  0  0  0  0
  5  6  1  0  0  0  0
  6  1  2  0  0  0  0
  9  5  1  0  0  0  0
 10  3  1  0  0  0  0
 12 11  2  6  0  0  0
 12 13  1  0  0  0  0
 12 10  1  0  0  0  0
 13 14  1  0  0  0  0
 15 12  1  0  0  0  0
 16 15  1  0  0  0  0
 17 16  1  0  0  0  0
 18 17  1  0  0  0  0
 18 16  1  0  0  0  0
M  END
>  <minimizedAffinity>
-3.63798928

$$$$
