REMARK  Name = 
REMARK  4 active torsions:
REMARK  status: ('A' for Active; 'I' for Inactive)
REMARK    1  A    between atoms: C_2  and  C_7
REMARK    2  A    between atoms: C_3  and  C_14
REMARK    3  A    between atoms: C_12  and  S_13
REMARK    4  A    between atoms: S_13  and  C_24
REMARK                            x       y       z     vdW  Elec       q    Type
REMARK                         _______ _______ _______ _____ _____    ______ ____
ROOT
ATOM      1  C   UNL     1      38.199  31.069  47.888  0.00  0.00    +0.000 A 
ATOM      2  C   UNL     1      38.526  30.262  46.821  0.00  0.00    +0.000 A 
ATOM      3  C   UNL     1      39.292  30.667  45.737  0.00  0.00    +0.000 A 
ATOM      4  C   UNL     1      39.773  31.988  45.713  0.00  0.00    +0.000 A 
ATOM      5  C   UNL     1      39.447  32.800  46.781  0.00  0.00    +0.000 A 
ATOM      6  C   UNL     1      38.682  32.374  47.850  0.00  0.00    +0.000 A 
ATOM      7  H   UNL     1      38.190  29.232  46.774  0.00  0.00    +0.000 HD
ATOM      8  H   UNL     1      39.534  30.010  44.912  0.00  0.00    +0.000 HD
ATOM      9  H   UNL     1      40.373  32.385  44.913  0.00  0.00    +0.000 HD
ATOM     10  H   UNL     1      39.757  33.831  46.876  0.00  0.00    +0.000 HD
ENDROOT
BRANCH   1  12
ATOM     11  C   UNL     1      38.012  30.312  50.187  0.00  0.00    +0.000 A 
ATOM     12  C   UNL     1      37.398  30.495  48.929  0.00  0.00    +0.000 A 
ATOM     13  C   UNL     1      36.065  30.103  48.806  0.00  0.00    +0.000 A 
ATOM     14  N   UNL     1      35.433  29.574  49.879  0.00  0.00    +0.000 NA
ATOM     15  C   UNL     1      36.059  29.408  51.090  0.00  0.00    +0.000 A 
ATOM     16  N   UNL     1      37.362  29.788  51.225  0.00  0.00    +0.000 NA
ATOM     17  H   UNL     1      39.044  30.602  50.326  0.00  0.00    +0.000 HD
ATOM     18  H   UNL     1      35.408  28.971  51.840  0.00  0.00    +0.000 HD
BRANCH  13  19
ATOM     19  C   UNL     1      35.291  30.238  47.538  0.00  0.00    +0.000 C 
ATOM     20  F   UNL     1      34.018  30.770  47.832  0.00  0.00    +0.000 F 
ATOM     21  F   UNL     1      35.851  30.973  46.556  0.00  0.00    +0.000 F 
ATOM     22  F   UNL     1      34.992  28.965  47.039  0.00  0.00    +0.000 F 
ENDBRANCH  13  19
ENDBRANCH   1  12
BRANCH   6  23
ATOM     23  S   UNL     1      38.260  33.421  49.229  0.00  0.00    +0.000 S 
BRANCH  23  24
ATOM     24  C   UNL     1      36.734  34.322  49.005  0.00  0.00    +0.000 C 
ATOM     25  C   UNL     1      36.376  35.221  50.197  0.00  0.00    +0.000 C 
ATOM     26  C   UNL     1      36.648  35.771  48.830  0.00  0.00    +0.000 C 
ENDBRANCH  23  24
ENDBRANCH   6  23
TORSDOF 4
