
 OpenBabel03262521483D

 24 25  0  0  0  0  0  0  0  0999 V2000
   38.4340   26.8700   35.8280 C   0  0  0  0  0  0  0  0  0  0  0  0
   39.4460   27.3270   36.0230 H   0  0  0  0  0  0  0  0  0  0  0  0
   37.7990   27.2620   36.6680 H   0  0  0  0  0  0  0  0  0  0  0  0
   37.8300   27.3600   34.5950 C   0  0  0  0  0  0  0  0  0  0  0  0
   36.6240   28.0320   34.5600 C   0  0  0  0  0  0  0  0  0  0  0  0
   36.1280   28.4650   33.3070 C   0  0  0  0  0  0  0  0  0  0  0  0
   36.8860   28.1860   32.2040 N   0  0  0  0  0  0  0  0  0  0  0  0
   38.0740   27.5200   32.2830 C   0  0  0  0  0  0  0  0  0  0  0  0
   38.5260   27.1160   33.4930 N   0  0  0  0  0  0  0  0  0  0  0  0
   36.0780   28.2160   35.4840 H   0  0  0  0  0  0  0  0  0  0  0  0
   35.1990   28.9860   33.2530 H   0  0  0  0  0  0  0  0  0  0  0  0
   38.6180   27.3340   31.3770 H   0  0  0  0  0  0  0  0  0  0  0  0
   38.6110   25.3850   35.8920 C   0  0  0  0  0  0  0  0  0  0  0  0
   39.6490   25.0370   35.6970 H   0  0  0  0  0  0  0  0  0  0  0  0
   37.9770   24.9550   35.0660 H   0  0  0  0  0  0  0  0  0  0  0  0
   38.1100   24.9440   37.1160 O   0  0  0  0  0  0  0  0  0  0  0  0
   37.0640   22.5700   36.8490 O   0  0  0  0  0  0  0  0  0  0  0  0
   38.3420   23.2900   37.3130 P   0  0  2  0  0  0  0  0  0  0  0  0
   38.5250   22.8470   38.9240 O   0  0  0  0  0  0  0  0  0  0  0  0
   39.4950   22.7550   39.1160 H   0  0  0  0  0  0  0  0  0  0  0  0
   39.6780   22.7320   36.4530 O   0  0  0  0  0  0  0  0  0  0  0  0
   40.7030   22.4970   37.3500 C   0  0  0  0  0  3  0  0  0  0  0  0
   41.6430   21.3790   37.2560 C   0  0  0  0  0  2  0  0  0  0  0  0
   42.0840   22.6770   36.7050 C   0  0  0  0  0  2  0  0  0  0  0  0
  1 13  1  0  0  0  0
  1  2  1  0  0  0  0
  1  3  1  0  0  0  0
  4  1  1  0  0  0  0
  5  4  1  0  0  0  0
  5 10  1  0  0  0  0
  6  5  2  0  0  0  0
  7  8  2  0  0  0  0
  7  6  1  0  0  0  0
  8  9  1  0  0  0  0
  9  4  2  0  0  0  0
 11  6  1  0  0  0  0
 12  8  1  0  0  0  0
 13 16  1  0  0  0  0
 14 13  1  0  0  0  0
 15 13  1  0  0  0  0
 16 18  1  0  0  0  0
 18 17  2  6  0  0  0
 18 19  1  0  0  0  0
 19 20  1  0  0  0  0
 21 18  1  0  0  0  0
 21 22  1  0  0  0  0
 23 22  1  0  0  0  0
 24 23  1  0  0  0  0
 24 22  1  0  0  0  0
M  END
>  <minimizedAffinity>
-4.40961409

$$$$

 OpenBabel03262521483D

 24 25  0  0  0  0  0  0  0  0999 V2000
   37.8270   25.7050   34.9160 C   0  0  0  0  0  0  0  0  0  0  0  0
   36.7720   25.9900   35.1930 H   0  0  0  0  0  0  0  0  0  0  0  0
   38.4070   26.6540   35.0650 H   0  0  0  0  0  0  0  0  0  0  0  0
   38.3970   24.7270   35.8330 C   0  0  0  0  0  0  0  0  0  0  0  0
   37.8280   24.4120   37.0510 C   0  0  0  0  0  0  0  0  0  0  0  0
   38.4660   23.4460   37.8660 C   0  0  0  0  0  0  0  0  0  0  0  0
   39.6150   22.8830   37.3850 N   0  0  0  0  0  0  0  0  0  0  0  0
   40.1440   23.2220   36.1740 C   0  0  0  0  0  0  0  0  0  0  0  0
   39.5160   24.1490   35.4140 N   0  0  0  0  0  0  0  0  0  0  0  0
   36.9090   24.9050   37.3650 H   0  0  0  0  0  0  0  0  0  0  0  0
   38.0460   23.1860   38.8110 H   0  0  0  0  0  0  0  0  0  0  0  0
   41.0490   22.7410   35.8570 H   0  0  0  0  0  0  0  0  0  0  0  0
   37.7950   25.2770   33.4820 C   0  0  0  0  0  0  0  0  0  0  0  0
   37.8230   24.1750   33.3290 H   0  0  0  0  0  0  0  0  0  0  0  0
   38.7360   25.6800   33.0100 H   0  0  0  0  0  0  0  0  0  0  0  0
   36.6960   25.8830   32.8750 O   0  0  0  0  0  0  0  0  0  0  0  0
   37.6720   24.7430   30.7430 O   0  0  0  0  0  0  0  0  0  0  0  0
   36.3450   25.1720   31.3910 P   0  0  2  0  0  0  0  0  0  0  0  0
   35.6610   26.2510   30.3000 O   0  0  0  0  0  0  0  0  0  0  0  0
   34.6760   26.1280   30.3120 H   0  0  0  0  0  0  0  0  0  0  0  0
   35.3130   23.8510   31.5510 O   0  0  0  0  0  0  0  0  0  0  0  0
   36.0610   22.6980   31.4120 C   0  0  0  0  0  3  0  0  0  0  0  0
   36.4740   21.8420   32.5260 C   0  0  0  0  0  2  0  0  0  0  0  0
   35.2590   21.4440   31.7860 C   0  0  0  0  0  2  0  0  0  0  0  0
  1  3  1  0  0  0  0
  1  2  1  0  0  0  0
  1  4  1  0  0  0  0
  4  5  1  0  0  0  0
  5 10  1  0  0  0  0
  5  6  2  0  0  0  0
  6 11  1  0  0  0  0
  7  6  1  0  0  0  0
  8  7  2  0  0  0  0
  9  4  2  0  0  0  0
  9  8  1  0  0  0  0
 12  8  1  0  0  0  0
 13  1  1  0  0  0  0
 14 13  1  0  0  0  0
 15 13  1  0  0  0  0
 16 13  1  0  0  0  0
 18 17  2  6  0  0  0
 18 21  1  0  0  0  0
 18 16  1  0  0  0  0
 19 20  1  0  0  0  0
 19 18  1  0  0  0  0
 22 21  1  0  0  0  0
 22 24  1  0  0  0  0
 22 23  1  0  0  0  0
 24 23  1  0  0  0  0
M  END
>  <minimizedAffinity>
-3.99998617

$$$$

 OpenBabel03262521483D

 24 25  0  0  0  0  0  0  0  0999 V2000
   38.2980   22.8020   33.3440 C   0  0  0  0  0  0  0  0  0  0  0  0
   38.9940   22.9720   32.4740 H   0  0  0  0  0  0  0  0  0  0  0  0
   37.9420   23.8350   33.6060 H   0  0  0  0  0  0  0  0  0  0  0  0
   37.1120   22.0430   32.9670 C   0  0  0  0  0  0  0  0  0  0  0  0
   36.5210   22.1360   31.7220 C   0  0  0  0  0  0  0  0  0  0  0  0
   35.3700   21.3530   31.4610 C   0  0  0  0  0  0  0  0  0  0  0  0
   34.9180   20.5500   32.4700 N   0  0  0  0  0  0  0  0  0  0  0  0
   35.5330   20.4880   33.6860 C   0  0  0  0  0  0  0  0  0  0  0  0
   36.6310   21.2460   33.9120 N   0  0  0  0  0  0  0  0  0  0  0  0
   36.9410   22.8010   30.9700 H   0  0  0  0  0  0  0  0  0  0  0  0
   34.8950   21.4070   30.5070 H   0  0  0  0  0  0  0  0  0  0  0  0
   35.1250   19.8350   34.4340 H   0  0  0  0  0  0  0  0  0  0  0  0
   39.1150   22.1870   34.4370 C   0  0  0  0  0  0  0  0  0  0  0  0
   39.9440   21.5360   34.0810 H   0  0  0  0  0  0  0  0  0  0  0  0
   38.4170   21.5160   35.0140 H   0  0  0  0  0  0  0  0  0  0  0  0
   39.5490   23.2100   35.2780 O   0  0  0  0  0  0  0  0  0  0  0  0
   39.4700   22.9550   37.8720 O   0  0  0  0  0  0  0  0  0  0  0  0
   38.5950   23.3150   36.6590 P   0  0  2  0  0  0  0  0  0  0  0  0
   37.3500   22.1860   36.6760 O   0  0  0  0  0  0  0  0  0  0  0  0
   36.5180   22.6320   36.3680 H   0  0  0  0  0  0  0  0  0  0  0  0
   37.9250   24.8480   36.8500 O   0  0  0  0  0  0  0  0  0  0  0  0
   38.2760   25.6130   35.7540 C   0  0  0  0  0  3  0  0  0  0  0  0
   37.4040   26.6120   35.1320 C   0  0  0  0  0  2  0  0  0  0  0  0
   38.4000   27.1010   36.1080 C   0  0  0  0  0  2  0  0  0  0  0  0
  1  3  1  0  0  0  0
  1 13  1  0  0  0  0
  2  1  1  0  0  0  0
  4  1  1  0  0  0  0
  4  9  1  0  0  0  0
  5  4  2  0  0  0  0
  6  5  1  0  0  0  0
  6  7  2  0  0  0  0
  7  8  1  0  0  0  0
  8  9  2  0  0  0  0
  8 12  1  0  0  0  0
 10  5  1  0  0  0  0
 11  6  1  0  0  0  0
 13 15  1  0  0  0  0
 13 16  1  0  0  0  0
 14 13  1  0  0  0  0
 16 18  1  0  0  0  0
 18 19  1  0  0  0  0
 18 21  1  0  0  0  0
 18 17  2  1  0  0  0
 20 19  1  0  0  0  0
 22 24  1  0  0  0  0
 22 21  1  0  0  0  0
 23 22  1  0  0  0  0
 23 24  1  0  0  0  0
M  END
>  <minimizedAffinity>
-3.99907804

$$$$

 OpenBabel03262521483D

 24 25  0  0  0  0  0  0  0  0999 V2000
   38.5310   26.8590   35.9940 C   0  0  0  0  0  0  0  0  0  0  0  0
   39.6340   26.9220   36.2170 H   0  0  0  0  0  0  0  0  0  0  0  0
   38.0870   27.6860   36.6100 H   0  0  0  0  0  0  0  0  0  0  0  0
   38.2260   27.1740   34.6040 C   0  0  0  0  0  0  0  0  0  0  0  0
   39.1220   26.9800   33.5720 C   0  0  0  0  0  0  0  0  0  0  0  0
   38.7210   27.3200   32.2570 C   0  0  0  0  0  0  0  0  0  0  0  0
   37.4610   27.8240   32.0970 N   0  0  0  0  0  0  0  0  0  0  0  0
   36.6060   27.9990   33.1460 C   0  0  0  0  0  0  0  0  0  0  0  0
   37.0120   27.6670   34.3930 N   0  0  0  0  0  0  0  0  0  0  0  0
   40.1100   26.5730   33.7800 H   0  0  0  0  0  0  0  0  0  0  0  0
   39.3960   27.1800   31.4420 H   0  0  0  0  0  0  0  0  0  0  0  0
   35.6300   28.3990   32.9490 H   0  0  0  0  0  0  0  0  0  0  0  0
   38.0760   25.5060   36.4450 C   0  0  0  0  0  0  0  0  0  0  0  0
   37.1370   25.1530   35.9660 H   0  0  0  0  0  0  0  0  0  0  0  0
   37.8490   25.5990   37.5450 H   0  0  0  0  0  0  0  0  0  0  0  0
   39.1380   24.6180   36.2810 O   0  0  0  0  0  0  0  0  0  0  0  0
   37.2970   23.1160   37.3540 O   0  0  0  0  0  0  0  0  0  0  0  0
   38.7230   23.0670   36.7820 P   0  0  2  0  0  0  0  0  0  0  0  0
   39.6780   22.5160   38.0500 O   0  0  0  0  0  0  0  0  0  0  0  0
   40.3930   21.9370   37.6770 H   0  0  0  0  0  0  0  0  0  0  0  0
   38.8150   21.9510   35.5240 O   0  0  0  0  0  0  0  0  0  0  0  0
   37.7910   22.2150   34.6350 C   0  0  0  0  0  3  0  0  0  0  0  0
   37.9450   22.9940   33.4050 C   0  0  0  0  0  2  0  0  0  0  0  0
   38.0100   21.5240   33.2820 C   0  0  0  0  0  2  0  0  0  0  0  0
  1  2  1  0  0  0  0
  1 13  1  0  0  0  0
  1  3  1  0  0  0  0
  4  1  1  0  0  0  0
  5 10  1  0  0  0  0
  5  4  2  0  0  0  0
  6  5  1  0  0  0  0
  7  6  2  0  0  0  0
  7  8  1  0  0  0  0
  8  9  2  0  0  0  0
  9  4  1  0  0  0  0
 11  6  1  0  0  0  0
 12  8  1  0  0  0  0
 13 15  1  0  0  0  0
 14 13  1  0  0  0  0
 16 13  1  0  0  0  0
 16 18  1  0  0  0  0
 18 17  2  1  0  0  0
 18 19  1  0  0  0  0
 20 19  1  0  0  0  0
 21 18  1  0  0  0  0
 22 21  1  0  0  0  0
 23 22  1  0  0  0  0
 24 23  1  0  0  0  0
 24 22  1  0  0  0  0
M  END
>  <minimizedAffinity>
-3.86716676

$$$$

 OpenBabel03262521483D

 24 25  0  0  0  0  0  0  0  0999 V2000
   38.6250   24.8370   34.6800 C   0  0  0  0  0  0  0  0  0  0  0  0
   39.3810   24.3790   33.9800 H   0  0  0  0  0  0  0  0  0  0  0  0
   37.6380   24.4900   34.2700 H   0  0  0  0  0  0  0  0  0  0  0  0
   38.7200   24.2980   36.0300 C   0  0  0  0  0  0  0  0  0  0  0  0
   37.8890   24.6910   37.0610 C   0  0  0  0  0  0  0  0  0  0  0  0
   38.0690   24.1020   38.3360 C   0  0  0  0  0  0  0  0  0  0  0  0
   39.0640   23.1740   38.4610 N   0  0  0  0  0  0  0  0  0  0  0  0
   39.8630   22.8130   37.4160 C   0  0  0  0  0  0  0  0  0  0  0  0
   39.6720   23.3900   36.2070 N   0  0  0  0  0  0  0  0  0  0  0  0
   37.1180   25.4380   36.8810 H   0  0  0  0  0  0  0  0  0  0  0  0
   37.4390   24.3890   39.1480 H   0  0  0  0  0  0  0  0  0  0  0  0
   40.6260   22.0770   37.5850 H   0  0  0  0  0  0  0  0  0  0  0  0
   38.7910   26.3210   34.5840 C   0  0  0  0  0  0  0  0  0  0  0  0
   39.7470   26.6480   34.1170 H   0  0  0  0  0  0  0  0  0  0  0  0
   38.8150   26.7060   35.6430 H   0  0  0  0  0  0  0  0  0  0  0  0
   37.6670   26.8410   33.9440 O   0  0  0  0  0  0  0  0  0  0  0  0
   39.4550   27.3340   32.1110 O   0  0  0  0  0  0  0  0  0  0  0  0
   37.9510   27.0790   32.3030 P   0  0  2  0  0  0  0  0  0  0  0  0
   37.2000   28.4590   31.7080 O   0  0  0  0  0  0  0  0  0  0  0  0
   36.3500   28.1900   31.2690 H   0  0  0  0  0  0  0  0  0  0  0  0
   37.4530   25.7620   31.3780 O   0  0  0  0  0  0  0  0  0  0  0  0
   36.1870   25.3950   31.7920 C   0  0  0  0  0  3  0  0  0  0  0  0
   35.0160   25.3340   30.9150 C   0  0  0  0  0  2  0  0  0  0  0  0
   35.7380   24.0690   31.1640 C   0  0  0  0  0  2  0  0  0  0  0  0
  1  4  1  0  0  0  0
  2  1  1  0  0  0  0
  3  1  1  0  0  0  0
  4  9  2  0  0  0  0
  4  5  1  0  0  0  0
  5  6  2  0  0  0  0
  6  7  1  0  0  0  0
  6 11  1  0  0  0  0
  8 12  1  0  0  0  0
  8  7  2  0  0  0  0
  9  8  1  0  0  0  0
 10  5  1  0  0  0  0
 13  1  1  0  0  0  0
 13 15  1  0  0  0  0
 14 13  1  0  0  0  0
 16 13  1  0  0  0  0
 18 17  2  6  0  0  0
 18 16  1  0  0  0  0
 19 18  1  0  0  0  0
 20 19  1  0  0  0  0
 21 22  1  0  0  0  0
 21 18  1  0  0  0  0
 23 24  1  0  0  0  0
 23 22  1  0  0  0  0
 24 22  1  0  0  0  0
M  END
>  <minimizedAffinity>
-3.84925008

$$$$

 OpenBabel03262521483D

 24 25  0  0  0  0  0  0  0  0999 V2000
   39.1440   24.8340   34.6550 C   0  0  0  0  0  0  0  0  0  0  0  0
   39.9680   25.5950   34.5460 H   0  0  0  0  0  0  0  0  0  0  0  0
   39.4390   24.0190   33.9410 H   0  0  0  0  0  0  0  0  0  0  0  0
   39.1180   24.2280   35.9800 C   0  0  0  0  0  0  0  0  0  0  0  0
   40.0330   23.2820   36.3960 C   0  0  0  0  0  0  0  0  0  0  0  0
   39.9160   22.7580   37.7060 C   0  0  0  0  0  0  0  0  0  0  0  0
   38.8920   23.2300   38.4790 N   0  0  0  0  0  0  0  0  0  0  0  0
   38.0080   24.1670   38.0290 C   0  0  0  0  0  0  0  0  0  0  0  0
   38.1420   24.6520   36.7720 N   0  0  0  0  0  0  0  0  0  0  0  0
   40.8220   22.9560   35.7200 H   0  0  0  0  0  0  0  0  0  0  0  0
   40.6110   22.0260   38.0510 H   0  0  0  0  0  0  0  0  0  0  0  0
   37.2280   24.4940   38.6890 H   0  0  0  0  0  0  0  0  0  0  0  0
   37.8730   25.5130   34.2500 C   0  0  0  0  0  0  0  0  0  0  0  0
   37.5580   26.3400   34.9240 H   0  0  0  0  0  0  0  0  0  0  0  0
   37.0630   24.7320   34.3150 H   0  0  0  0  0  0  0  0  0  0  0  0
   38.0030   25.9130   32.9210 O   0  0  0  0  0  0  0  0  0  0  0  0
   37.9070   28.2310   31.7290 O   0  0  0  0  0  0  0  0  0  0  0  0
   37.0700   27.2750   32.5970 P   0  0  2  0  0  0  0  0  0  0  0  0
   36.7050   28.1560   33.9800 O   0  0  0  0  0  0  0  0  0  0  0  0
   35.7920   27.9070   34.2790 H   0  0  0  0  0  0  0  0  0  0  0  0
   35.6280   26.8830   31.8200 O   0  0  0  0  0  0  0  0  0  0  0  0
   35.8430   25.7540   31.0520 C   0  0  0  0  0  3  0  0  0  0  0  0
   35.4100   24.4070   31.4250 C   0  0  0  0  0  2  0  0  0  0  0  0
   34.5320   25.1680   30.5120 C   0  0  0  0  0  2  0  0  0  0  0  0
  1  4  1  0  0  0  0
  2  1  1  0  0  0  0
  3  1  1  0  0  0  0
  4  5  2  0  0  0  0
  4  9  1  0  0  0  0
  5  6  1  0  0  0  0
  6 11  1  0  0  0  0
  6  7  2  0  0  0  0
  8  7  1  0  0  0  0
  8 12  1  0  0  0  0
  9  8  2  0  0  0  0
 10  5  1  0  0  0  0
 13 15  1  0  0  0  0
 13  1  1  0  0  0  0
 13 14  1  0  0  0  0
 16 13  1  0  0  0  0
 18 17  2  6  0  0  0
 18 16  1  0  0  0  0
 18 19  1  0  0  0  0
 19 20  1  0  0  0  0
 21 18  1  0  0  0  0
 22 23  1  0  0  0  0
 22 21  1  0  0  0  0
 24 22  1  0  0  0  0
 24 23  1  0  0  0  0
M  END
>  <minimizedAffinity>
-3.82304287

$$$$

 OpenBabel03262521483D

 24 25  0  0  0  0  0  0  0  0999 V2000
   35.6120   23.1650   31.4640 C   0  0  0  0  0  0  0  0  0  0  0  0
   35.0010   23.5560   30.6010 H   0  0  0  0  0  0  0  0  0  0  0  0
   35.0070   23.4450   32.3670 H   0  0  0  0  0  0  0  0  0  0  0  0
   35.7030   21.7100   31.4670 C   0  0  0  0  0  0  0  0  0  0  0  0
   34.7690   20.8970   32.0760 C   0  0  0  0  0  0  0  0  0  0  0  0
   34.9540   19.4940   32.0190 C   0  0  0  0  0  0  0  0  0  0  0  0
   36.0580   19.0360   31.3560 N   0  0  0  0  0  0  0  0  0  0  0  0
   36.9580   19.8750   30.7670 C   0  0  0  0  0  0  0  0  0  0  0  0
   36.7590   21.2120   30.8360 N   0  0  0  0  0  0  0  0  0  0  0  0
   33.9140   21.3390   32.5850 H   0  0  0  0  0  0  0  0  0  0  0  0
   34.2460   18.8440   32.4820 H   0  0  0  0  0  0  0  0  0  0  0  0
   37.8030   19.4480   30.2620 H   0  0  0  0  0  0  0  0  0  0  0  0
   36.9290   23.8760   31.4170 C   0  0  0  0  0  0  0  0  0  0  0  0
   37.1700   24.3340   30.4320 H   0  0  0  0  0  0  0  0  0  0  0  0
   37.7190   23.0910   31.5970 H   0  0  0  0  0  0  0  0  0  0  0  0
   36.9610   24.7920   32.4670 O   0  0  0  0  0  0  0  0  0  0  0  0
   35.5930   26.8600   31.6610 O   0  0  0  0  0  0  0  0  0  0  0  0
   37.0320   26.3730   31.8980 P   0  0  2  0  0  0  0  0  0  0  0  0
   37.7800   26.4920   30.3980 O   0  0  0  0  0  0  0  0  0  0  0  0
   38.7240   26.7630   30.5380 H   0  0  0  0  0  0  0  0  0  0  0  0
   37.8300   27.3960   32.9720 O   0  0  0  0  0  0  0  0  0  0  0  0
   38.3310   26.6310   34.0080 C   0  0  0  0  0  3  0  0  0  0  0  0
   39.5400   26.9570   34.7670 C   0  0  0  0  0  2  0  0  0  0  0  0
   38.2460   27.3600   35.3560 C   0  0  0  0  0  2  0  0  0  0  0  0
  1  4  1  0  0  0  0
  1  3  1  0  0  0  0
  2  1  1  0  0  0  0
  4  5  1  0  0  0  0
  5 10  1  0  0  0  0
  6  5  2  0  0  0  0
  6 11  1  0  0  0  0
  7  6  1  0  0  0  0
  8  9  1  0  0  0  0
  8  7  2  0  0  0  0
  9  4  2  0  0  0  0
 12  8  1  0  0  0  0
 13  1  1  0  0  0  0
 13 15  1  0  0  0  0
 13 16  1  0  0  0  0
 14 13  1  0  0  0  0
 18 17  2  6  0  0  0
 18 16  1  0  0  0  0
 18 21  1  0  0  0  0
 19 20  1  0  0  0  0
 19 18  1  0  0  0  0
 21 22  1  0  0  0  0
 22 23  1  0  0  0  0
 22 24  1  0  0  0  0
 23 24  1  0  0  0  0
M  END
>  <minimizedAffinity>
-3.80422616

$$$$

 OpenBabel03262521483D

 24 25  0  0  0  0  0  0  0  0999 V2000
   38.2400   23.5290   36.6050 C   0  0  0  0  0  0  0  0  0  0  0  0
   38.6040   23.3370   37.6540 H   0  0  0  0  0  0  0  0  0  0  0  0
   37.1330   23.6720   36.7300 H   0  0  0  0  0  0  0  0  0  0  0  0
   38.7550   24.7780   36.0580 C   0  0  0  0  0  0  0  0  0  0  0  0
   38.1900   26.0090   36.3250 C   0  0  0  0  0  0  0  0  0  0  0  0
   38.7710   27.1610   35.7400 C   0  0  0  0  0  0  0  0  0  0  0  0
   39.8640   26.9720   34.9420 N   0  0  0  0  0  0  0  0  0  0  0  0
   40.3910   25.7370   34.7030 C   0  0  0  0  0  0  0  0  0  0  0  0
   39.8170   24.6520   35.2740 N   0  0  0  0  0  0  0  0  0  0  0  0
   37.3180   26.0770   36.9730 H   0  0  0  0  0  0  0  0  0  0  0  0
   38.3530   28.1230   35.9320 H   0  0  0  0  0  0  0  0  0  0  0  0
   41.2510   25.6610   34.0660 H   0  0  0  0  0  0  0  0  0  0  0  0
   38.5700   22.3090   35.8030 C   0  0  0  0  0  0  0  0  0  0  0  0
   39.0950   21.5120   36.3730 H   0  0  0  0  0  0  0  0  0  0  0  0
   39.2870   22.6430   35.0000 H   0  0  0  0  0  0  0  0  0  0  0  0
   37.3970   21.8620   35.1970 O   0  0  0  0  0  0  0  0  0  0  0  0
   38.6110   21.0520   33.0360 O   0  0  0  0  0  0  0  0  0  0  0  0
   37.4870   21.9830   33.5220 P   0  0  2  0  0  0  0  0  0  0  0  0
   37.9430   23.5150   33.0050 O   0  0  0  0  0  0  0  0  0  0  0  0
   37.1260   24.0170   32.7490 H   0  0  0  0  0  0  0  0  0  0  0  0
   36.0290   21.5840   32.7790 O   0  0  0  0  0  0  0  0  0  0  0  0
   36.0990   20.2680   32.3660 C   0  0  0  0  0  3  0  0  0  0  0  0
   35.4990   19.1430   33.0860 C   0  0  0  0  0  2  0  0  0  0  0  0
   34.7240   19.7160   31.9660 C   0  0  0  0  0  2  0  0  0  0  0  0
  1  3  1  0  0  0  0
  1  2  1  0  0  0  0
  4  5  1  0  0  0  0
  4  1  1  0  0  0  0
  5 10  1  0  0  0  0
  6 11  1  0  0  0  0
  6  5  2  0  0  0  0
  7  6  1  0  0  0  0
  8  7  2  0  0  0  0
  8  9  1  0  0  0  0
  9  4  2  0  0  0  0
 12  8  1  0  0  0  0
 13 14  1  0  0  0  0
 13  1  1  0  0  0  0
 15 13  1  0  0  0  0
 16 13  1  0  0  0  0
 18 17  2  6  0  0  0
 18 16  1  0  0  0  0
 19 18  1  0  0  0  0
 20 19  1  0  0  0  0
 21 18  1  0  0  0  0
 22 21  1  0  0  0  0
 22 23  1  0  0  0  0
 24 22  1  0  0  0  0
 24 23  1  0  0  0  0
M  END
>  <minimizedAffinity>
-3.79120255

$$$$

 OpenBabel03262521483D

 24 25  0  0  0  0  0  0  0  0999 V2000
   37.6710   26.0850   34.4660 C   0  0  0  0  0  0  0  0  0  0  0  0
   36.7920   26.5670   34.9800 H   0  0  0  0  0  0  0  0  0  0  0  0
   38.4120   26.9220   34.3650 H   0  0  0  0  0  0  0  0  0  0  0  0
   38.3100   25.0690   35.2920 C   0  0  0  0  0  0  0  0  0  0  0  0
   39.5290   24.5000   34.9810 C   0  0  0  0  0  0  0  0  0  0  0  0
   40.0610   23.5210   35.8550 C   0  0  0  0  0  0  0  0  0  0  0  0
   39.3220   23.2020   36.9600 N   0  0  0  0  0  0  0  0  0  0  0  0
   38.1210   23.7900   37.2310 C   0  0  0  0  0  0  0  0  0  0  0  0
   37.6340   24.7230   36.3800 N   0  0  0  0  0  0  0  0  0  0  0  0
   40.0580   24.8080   34.0810 H   0  0  0  0  0  0  0  0  0  0  0  0
   41.0010   23.0660   35.6370 H   0  0  0  0  0  0  0  0  0  0  0  0
   37.5930   23.4930   38.1170 H   0  0  0  0  0  0  0  0  0  0  0  0
   37.1800   25.5960   33.1390 C   0  0  0  0  0  0  0  0  0  0  0  0
   36.1150   25.2740   33.1320 H   0  0  0  0  0  0  0  0  0  0  0  0
   37.7850   24.6760   32.8970 H   0  0  0  0  0  0  0  0  0  0  0  0
   37.4590   26.5770   32.1880 O   0  0  0  0  0  0  0  0  0  0  0  0
   35.2780   25.7030   31.0560 O   0  0  0  0  0  0  0  0  0  0  0  0
   36.0840   26.9880   31.3110 P   0  0  2  0  0  0  0  0  0  0  0  0
   36.4440   27.5810   29.7800 O   0  0  0  0  0  0  0  0  0  0  0  0
   36.4170   28.5730   29.8130 H   0  0  0  0  0  0  0  0  0  0  0  0
   35.1390   28.1270   32.1130 O   0  0  0  0  0  0  0  0  0  0  0  0
   35.9810   29.0490   32.7050 C   0  0  0  0  0  3  0  0  0  0  0  0
   35.5660   30.3800   33.1520 C   0  0  0  0  0  2  0  0  0  0  0  0
   35.6080   29.3110   34.1710 C   0  0  0  0  0  2  0  0  0  0  0  0
  1  2  1  0  0  0  0
  1  4  1  0  0  0  0
  3  1  1  0  0  0  0
  4  9  1  0  0  0  0
  5  4  2  0  0  0  0
  5  6  1  0  0  0  0
  6  7  2  0  0  0  0
  7  8  1  0  0  0  0
  8 12  1  0  0  0  0
  9  8  2  0  0  0  0
 10  5  1  0  0  0  0
 11  6  1  0  0  0  0
 13  1  1  0  0  0  0
 14 13  1  0  0  0  0
 15 13  1  0  0  0  0
 16 13  1  0  0  0  0
 18 17  2  6  0  0  0
 18 21  1  0  0  0  0
 18 16  1  0  0  0  0
 19 20  1  0  0  0  0
 19 18  1  0  0  0  0
 21 22  1  0  0  0  0
 22 23  1  0  0  0  0
 22 24  1  0  0  0  0
 23 24  1  0  0  0  0
M  END
>  <minimizedAffinity>
-3.79104972

$$$$
