
 OpenBabel03272510043D

 31 33  0  0  0  0  0  0  0  0999 V2000
   36.3170   30.6020   45.1540 C   0  0  0  0  0  0  0  0  0  0  0  0
   35.9130   30.3720   46.4320 C   0  0  0  0  0  0  0  0  0  0  0  0
   34.6270   29.9030   46.6820 C   0  0  0  0  0  0  0  0  0  0  0  0
   33.7160   29.6570   45.6720 C   0  0  0  0  0  0  0  0  0  0  0  0
   34.0850   29.8810   44.3710 C   0  0  0  0  0  0  0  0  0  0  0  0
   35.3610   30.3420   44.1590 C   0  0  0  0  0  0  0  0  0  0  0  0
   34.3320   29.7240   47.7250 H   0  0  0  0  0  0  0  0  0  0  0  0
   32.7590   29.2990   45.9670 H   0  0  0  0  0  0  0  0  0  0  0  0
   33.3490   29.6780   43.6390 H   0  0  0  0  0  0  0  0  0  0  0  0
   35.5290   30.4830   43.0820 H   0  0  0  0  0  0  0  0  0  0  0  0
   38.5430   31.9270   48.4780 C   0  0  0  0  0  0  0  0  0  0  0  0
   37.6890   31.6430   47.4260 C   0  0  0  0  0  0  0  0  0  0  0  0
   36.7630   30.6430   47.5390 C   0  0  0  0  0  0  0  0  0  0  0  0
   36.7260   29.9640   48.7180 N   0  0  0  0  0  0  0  0  0  0  0  0
   37.5470   30.2400   49.7370 C   0  0  0  0  0  0  0  0  0  0  0  0
   38.4520   31.2180   49.6100 N   0  0  0  0  0  0  0  0  0  0  0  0
   39.3170   32.6630   48.5570 H   0  0  0  0  0  0  0  0  0  0  0  0
   37.9400   32.3600   46.6830 H   0  0  0  0  0  0  0  0  0  0  0  0
   37.3460   29.4640   50.9900 C   0  0  0  0  0  0  0  0  0  0  0  0
   37.5730   30.2310   52.1160 F   0  0  0  0  0  0  0  0  0  0  0  0
   35.9410   29.1430   51.1130 F   0  0  0  0  0  0  0  0  0  0  0  0
   37.9380   28.2950   51.0730 F   0  0  0  0  0  0  0  0  0  0  0  0
   37.8740   31.1390   44.7150 S   0  0  0  0  0  0  0  0  0  0  0  0
   38.0560   32.5890   45.0340 O   0  0  0  0  0  0  0  0  0  0  0  0
   37.6460   31.3360   43.2350 O   0  0  0  0  0  0  0  0  0  0  0  0
   39.2110   30.1900   44.3000 C   0  0  0  0  0  0  0  0  0  0  0  0
   39.9510   30.6240   43.6230 H   0  0  0  0  0  0  0  0  0  0  0  0
   39.8290   30.1050   45.2590 H   0  0  0  0  0  0  0  0  0  0  0  0
   38.8990   28.7480   44.0130 C   0  0  0  0  0  3  0  0  0  0  0  0
   39.6770   28.2160   42.7910 C   0  0  0  0  0  2  0  0  0  0  0  0
   38.1690   28.3500   42.7880 C   0  0  0  0  0  2  0  0  0  0  0  0
  1  2  1  0  0  0  0
  2  3  2  0  0  0  0
  2 13  1  0  0  0  0
  3  7  1  0  0  0  0
  4  8  1  0  0  0  0
  4  3  1  0  0  0  0
  5  4  2  0  0  0  0
  6  5  1  0  0  0  0
  6  1  2  0  0  0  0
  9  5  1  0  0  0  0
 10  6  1  0  0  0  0
 11 17  1  0  0  0  0
 11 16  1  0  0  0  0
 12 13  1  0  0  0  0
 12 11  2  0  0  0  0
 13 14  2  0  0  0  0
 14 15  1  0  0  0  0
 15 19  1  0  0  0  0
 16 15  2  0  0  0  0
 18 12  1  0  0  0  0
 19 22  1  0  0  0  0
 19 21  1  0  0  0  0
 19 20  1  0  0  0  0
 23 24  2  0  0  0  0
 23  1  1  0  0  0  0
 25 23  2  0  0  0  0
 26 23  1  0  0  0  0
 26 28  1  0  0  0  0
 27 26  1  0  0  0  0
 29 26  1  0  0  0  0
 30 29  1  0  0  0  0
 31 30  1  0  0  0  0
 31 29  1  0  0  0  0
M  END
>  <minimizedAffinity>
-5.52700996

>  <minimizedRMSD>
1.97375584

$$$$
