
 OpenBabel03272509583D

 40 43  0  0  0  0  0  0  0  0999 V2000
   35.0030   28.3630   49.4590 O   0  0  0  0  0  0  0  0  0  0  0  0
   37.3460   30.1810   51.5320 C   0  0  0  0  0  0  0  0  0  0  0  0
   38.0720   30.8660   50.5310 C   0  0  0  0  0  0  0  0  0  0  0  0
   37.7110   30.6610   49.2090 C   0  0  0  0  0  0  0  0  0  0  0  0
   36.6660   29.7980   48.9940 N   0  0  0  0  0  0  0  0  0  0  0  0
   35.9960   29.1620   49.9490 C   0  0  0  0  0  0  0  0  0  0  0  0
   36.3480   29.3640   51.2370 N   0  0  0  0  0  0  0  0  0  0  0  0
   37.6460   30.3590   52.5580 H   0  0  0  0  0  0  0  0  0  0  0  0
   38.8900   31.5420   50.7150 H   0  0  0  0  0  0  0  0  0  0  0  0
   38.9390   33.2770   49.0230 F   0  0  0  0  0  0  0  0  0  0  0  0
   38.9140   32.4950   47.9620 C   0  0  0  0  0  0  0  0  0  0  0  0
   38.3370   31.2730   48.0590 C   0  0  0  0  0  0  0  0  0  0  0  0
   38.3600   30.5250   46.8840 C   0  0  0  0  0  0  0  0  0  0  0  0
   38.9300   31.0030   45.7250 C   0  0  0  0  0  0  0  0  0  0  0  0
   39.5020   32.2470   45.6720 C   0  0  0  0  0  0  0  0  0  0  0  0
   39.4890   32.9940   46.8110 C   0  0  0  0  0  0  0  0  0  0  0  0
   37.9380   29.5310   46.8120 H   0  0  0  0  0  0  0  0  0  0  0  0
   38.9420   30.4100   44.8160 H   0  0  0  0  0  0  0  0  0  0  0  0
   39.9600   32.6490   44.7680 H   0  0  0  0  0  0  0  0  0  0  0  0
   39.9370   33.9740   46.7800 H   0  0  0  0  0  0  0  0  0  0  0  0
   34.4550   28.6470   48.1830 C   0  0  0  0  0  0  0  0  0  0  0  0
   33.8380   29.5500   48.2640 H   0  0  0  0  0  0  0  0  0  0  0  0
   35.3030   28.7400   47.4590 H   0  0  0  0  0  0  0  0  0  0  0  0
   33.5900   27.5150   47.7030 C   0  0  0  0  0  0  0  0  0  0  0  0
   33.8610   27.1880   46.6690 H   0  0  0  0  0  0  0  0  0  0  0  0
   33.7500   26.6390   48.3380 H   0  0  0  0  0  0  0  0  0  0  0  0
   32.1400   27.8820   47.7160 C   0  0  0  0  0  0  0  0  0  0  0  0
   31.3770   27.4400   48.7790 C   0  0  0  0  0  0  0  0  0  0  0  0
   30.0410   27.7190   48.8890 C   0  0  0  0  0  0  0  0  0  0  0  0
   29.4530   28.4400   47.9450 N   0  0  0  0  0  0  0  0  0  0  0  0
   30.2040   28.8730   46.9030 C   0  0  0  0  0  0  0  0  0  0  0  0
   31.5200   28.6100   46.7730 N   0  0  0  0  0  0  0  0  0  0  0  0
   31.8480   26.8490   49.5560 H   0  0  0  0  0  0  0  0  0  0  0  0
   29.5000   27.3320   49.7640 H   0  0  0  0  0  0  0  0  0  0  0  0
   29.5260   29.6900   45.8380 C   0  0  0  0  0  0  0  0  0  0  0  0
   28.7320   30.3250   46.3040 H   0  0  0  0  0  0  0  0  0  0  0  0
   29.0450   29.0100   45.0870 H   0  0  0  0  0  0  0  0  0  0  0  0
   30.4900   30.5640   45.1050 C   0  0  0  0  0  3  0  0  0  0  0  0
   30.2500   30.5770   43.5820 C   0  0  0  0  0  2  0  0  0  0  0  0
   30.1050   31.8060   44.4220 C   0  0  0  0  0  2  0  0  0  0  0  0
  1  6  1  0  0  0  0
  2  8  1  0  0  0  0
  3  9  1  0  0  0  0
  3  2  2  0  0  0  0
  4  3  1  0  0  0  0
  5  4  2  0  0  0  0
  5  6  1  0  0  0  0
  6  7  2  0  0  0  0
  7  2  1  0  0  0  0
 11 12  1  0  0  0  0
 11 10  1  0  0  0  0
 12  4  1  0  0  0  0
 13 12  2  0  0  0  0
 14 13  1  0  0  0  0
 15 14  2  0  0  0  0
 15 16  1  0  0  0  0
 16 11  2  0  0  0  0
 17 13  1  0  0  0  0
 18 14  1  0  0  0  0
 19 15  1  0  0  0  0
 20 16  1  0  0  0  0
 21 22  1  0  0  0  0
 21  1  1  0  0  0  0
 23 21  1  0  0  0  0
 24 27  1  0  0  0  0
 24 21  1  0  0  0  0
 24 26  1  0  0  0  0
 25 24  1  0  0  0  0
 27 28  1  0  0  0  0
 28 29  2  0  0  0  0
 28 33  1  0  0  0  0
 29 34  1  0  0  0  0
 30 29  1  0  0  0  0
 31 30  2  0  0  0  0
 32 31  1  0  0  0  0
 32 27  2  0  0  0  0
 35 36  1  0  0  0  0
 35 31  1  0  0  0  0
 37 35  1  0  0  0  0
 38 35  1  0  0  0  0
 39 40  1  0  0  0  0
 39 38  1  0  0  0  0
 40 38  1  0  0  0  0
M  END
>  <minimizedAffinity>
-6.13106108

>  <minimizedRMSD>
0.707371652

$$$$
