
 OpenBabel03272505033D

 23 25  0  0  0  0  0  0  0  0999 V2000
   38.3430   30.5220   46.8950 Cl  0  0  0  0  0  0  0  0  0  0  0  0
   38.7770   31.9790   47.7510 C   0  0  0  0  0  0  0  0  0  0  0  0
   38.2860   32.1560   49.0220 C   0  0  0  0  0  0  0  0  0  0  0  0
   38.6590   33.3370   49.6660 C   0  0  0  0  0  0  0  0  0  0  0  0
   39.4870   34.2400   48.9940 C   0  0  0  0  0  0  0  0  0  0  0  0
   39.9420   34.0130   47.7380 C   0  0  0  0  0  0  0  0  0  0  0  0
   39.5880   32.8590   47.0890 C   0  0  0  0  0  0  0  0  0  0  0  0
   38.2780   33.4780   50.6560 H   0  0  0  0  0  0  0  0  0  0  0  0
   39.6940   35.1120   49.6170 H   0  0  0  0  0  0  0  0  0  0  0  0
   40.5590   34.8190   47.4010 H   0  0  0  0  0  0  0  0  0  0  0  0
   37.8770   30.4290   50.7740 C   0  0  0  0  0  0  0  0  0  0  0  0
   37.4180   31.2020   49.7180 C   0  0  0  0  0  0  0  0  0  0  0  0
   36.0950   31.0430   49.3340 C   0  0  0  0  0  0  0  0  0  0  0  0
   35.3330   30.1480   50.0090 N   0  0  0  0  0  0  0  0  0  0  0  0
   35.8040   29.4210   51.0200 C   0  0  0  0  0  0  0  0  0  0  0  0
   37.0940   29.5520   51.4210 N   0  0  0  0  0  0  0  0  0  0  0  0
   38.9140   30.5820   51.0440 H   0  0  0  0  0  0  0  0  0  0  0  0
   35.7110   31.6220   48.5260 H   0  0  0  0  0  0  0  0  0  0  0  0
   35.1650   28.7150   51.5360 H   0  0  0  0  0  0  0  0  0  0  0  0
   40.0520   32.6370   45.8170 O   0  0  0  0  0  0  0  0  0  0  0  0
   39.6030   33.2540   44.6670 C   0  0  0  0  0  3  0  0  0  0  0  0
   38.3840   32.6380   43.9880 C   0  0  0  0  0  2  0  0  0  0  0  0
   39.7210   32.5620   43.3380 C   0  0  0  0  0  2  0  0  0  0  0  0
  1  2  1  0  0  0  0
  2  3  1  0  0  0  0
  3  4  2  0  0  0  0
  3 12  1  0  0  0  0
  4  8  1  0  0  0  0
  5  9  1  0  0  0  0
  5  4  1  0  0  0  0
  6  5  2  0  0  0  0
  7  6  1  0  0  0  0
  7  2  2  0  0  0  0
 10  6  1  0  0  0  0
 11 17  1  0  0  0  0
 11 16  1  0  0  0  0
 12 11  2  0  0  0  0
 13 12  1  0  0  0  0
 13 14  2  0  0  0  0
 14 15  1  0  0  0  0
 15 16  2  0  0  0  0
 15 19  1  0  0  0  0
 18 13  1  0  0  0  0
 20  7  1  0  0  0  0
 21 20  1  0  0  0  0
 22 21  1  0  0  0  0
 23 22  1  0  0  0  0
 23 21  1  0  0  0  0
M  END
>  <minimizedAffinity>
-5.77984715

>  <minimizedRMSD>
0.872941971

$$$$
