
 OpenBabel03272508343D

 19 21  0  0  0  0  0  0  0  0999 V2000
   37.7450   31.1440   48.1020 C   0  0  0  0  0  0  0  0  0  0  0  0
   37.1490   30.9860   46.8700 C   0  0  0  0  0  0  0  0  0  0  0  0
   37.9160   31.6840   45.9390 C   0  0  0  0  0  0  0  0  0  0  0  0
   38.9330   32.2310   46.6290 N   0  0  0  0  0  0  0  0  0  0  0  0
   38.8470   31.9150   47.9430 N   0  0  0  0  0  0  0  0  0  0  0  0
   36.2560   30.4360   46.6200 H   0  0  0  0  0  0  0  0  0  0  0  0
   37.7330   31.7670   44.8930 H   0  0  0  0  0  0  0  0  0  0  0  0
   37.2360   30.0370   51.6610 C   0  0  0  0  0  0  0  0  0  0  0  0
   37.8410   30.6510   50.5660 C   0  0  0  0  0  0  0  0  0  0  0  0
   37.2070   30.5440   49.3190 C   0  0  0  0  0  0  0  0  0  0  0  0
   36.0250   29.8400   49.2430 N   0  0  0  0  0  0  0  0  0  0  0  0
   35.4740   29.2580   50.3430 C   0  0  0  0  0  0  0  0  0  0  0  0
   36.0720   29.3530   51.5410 N   0  0  0  0  0  0  0  0  0  0  0  0
   37.7270   30.1230   52.6220 H   0  0  0  0  0  0  0  0  0  0  0  0
   38.7590   31.2010   50.6150 H   0  0  0  0  0  0  0  0  0  0  0  0
   34.5460   28.7360   50.1410 H   0  0  0  0  0  0  0  0  0  0  0  0
   39.9860   33.0450   46.0820 C   0  0  0  0  0  0  0  0  0  0  0  0
   40.9580   32.4800   45.1320 C   0  0  0  0  0  0  0  0  0  0  0  0
   39.9120   33.3760   44.5690 C   0  0  0  0  0  0  0  0  0  0  0  0
  1 10  1  0  0  0  0
  2  1  1  0  0  0  0
  3  4  1  0  0  0  0
  3  2  2  0  0  0  0
  4  5  1  0  0  0  0
  5  1  2  0  0  0  0
  6  2  1  0  0  0  0
  7  3  1  0  0  0  0
  8 14  1  0  0  0  0
  9 15  1  0  0  0  0
  9  8  2  0  0  0  0
 10  9  1  0  0  0  0
 11 10  2  0  0  0  0
 11 12  1  0  0  0  0
 12 13  2  0  0  0  0
 13  8  1  0  0  0  0
 16 12  1  0  0  0  0
 17  4  1  0  0  0  0
 18 17  1  0  0  0  0
 19 18  1  0  0  0  0
 19 17  1  0  0  0  0
M  END
>  <minimizedAffinity>
-5.19163752

>  <minimizedRMSD>
1.6518985

$$$$
