
 OpenBabel03272507413D

 35 38  0  0  0  0  0  0  0  0999 V2000
   38.1640   32.1640   47.2750 C   0  0  0  0  0  0  0  0  0  0  0  0
   37.7710   32.6050   48.5270 C   0  0  0  0  0  0  0  0  0  0  0  0
   38.5150   33.5490   49.2000 C   0  0  0  0  0  0  0  0  0  0  0  0
   39.6700   34.0620   48.6130 C   0  0  0  0  0  0  0  0  0  0  0  0
   40.0600   33.6270   47.3710 C   0  0  0  0  0  0  0  0  0  0  0  0
   39.2930   32.6840   46.7310 C   0  0  0  0  0  0  0  0  0  0  0  0
   38.2570   33.9330   50.1830 H   0  0  0  0  0  0  0  0  0  0  0  0
   40.2460   34.8100   49.1630 H   0  0  0  0  0  0  0  0  0  0  0  0
   40.9640   34.0430   46.9380 H   0  0  0  0  0  0  0  0  0  0  0  0
   39.7240   32.2190   45.3880 C   0  0  0  0  0  0  0  0  0  0  0  0
   40.5840   31.1980   45.0490 C   0  0  0  0  0  0  0  0  0  0  0  0
   40.6460   31.1790   43.6480 C   0  0  0  0  0  0  0  0  0  0  0  0
   39.8170   32.1940   43.2320 C   0  0  0  0  0  0  0  0  0  0  0  0
   39.2840   32.7930   44.2790 O   0  0  0  0  0  0  0  0  0  0  0  0
   41.0340   30.6240   45.8440 H   0  0  0  0  0  0  0  0  0  0  0  0
   41.2810   30.4310   43.2040 H   0  0  0  0  0  0  0  0  0  0  0  0
   39.7010   32.3750   42.1720 H   0  0  0  0  0  0  0  0  0  0  0  0
   36.6650   30.4100   46.1400 N   0  0  0  0  0  0  0  0  0  0  0  0
   37.3420   31.1880   46.6440 C   0  0  0  0  0  0  0  0  0  0  0  0
   36.6440   32.1780   49.2270 O   0  0  0  0  0  0  0  0  0  0  0  0
   36.6380   31.1590   50.1110 C   0  0  0  0  0  0  0  0  0  0  0  0
   35.5380   30.3030   49.9140 C   0  0  0  0  0  0  0  0  0  0  0  0
   35.3560   29.1970   50.7240 C   0  0  0  0  0  0  0  0  0  0  0  0
   36.2780   28.9770   51.7040 N   0  0  0  0  0  0  0  0  0  0  0  0
   37.3330   29.8150   51.8770 C   0  0  0  0  0  0  0  0  0  0  0  0
   37.4930   30.8680   51.0960 N   0  0  0  0  0  0  0  0  0  0  0  0
   34.5580   28.4990   50.6480 H   0  0  0  0  0  0  0  0  0  0  0  0
   38.0620   29.6400   52.6550 H   0  0  0  0  0  0  0  0  0  0  0  0
   34.1860   29.3390   48.1310 C   0  0  0  0  0  0  0  0  0  0  0  0
   34.6740   28.1450   47.9850 O   0  0  0  0  0  0  0  0  0  0  0  0
   34.5500   30.4580   48.9330 N   0  0  0  0  0  0  0  0  0  0  0  0
   34.0190   31.3150   48.6960 H   0  0  0  0  0  0  0  0  0  0  0  0
   33.0140   29.3700   47.1950 C   0  0  0  0  0  0  0  0  0  0  0  0
   33.1240   30.5100   46.1870 C   0  0  0  0  0  0  0  0  0  0  0  0
   33.1090   29.0800   45.7760 C   0  0  0  0  0  0  0  0  0  0  0  0
  1  2  1  0  0  0  0
  2  3  2  0  0  0  0
  2 20  1  0  0  0  0
  3  7  1  0  0  0  0
  4  8  1  0  0  0  0
  4  3  1  0  0  0  0
  5  4  2  0  0  0  0
  6  1  2  0  0  0  0
  6  5  1  0  0  0  0
  9  5  1  0  0  0  0
 10  6  1  0  0  0  0
 11 10  2  0  0  0  0
 11 15  1  0  0  0  0
 12 11  1  0  0  0  0
 13 12  2  0  0  0  0
 13 14  1  0  0  0  0
 14 10  1  0  0  0  0
 16 12  1  0  0  0  0
 17 13  1  0  0  0  0
 18 19  3  0  0  0  0
 19  1  1  0  0  0  0
 20 21  1  0  0  0  0
 21 26  1  0  0  0  0
 22 21  2  0  0  0  0
 22 23  1  0  0  0  0
 23 24  2  0  0  0  0
 24 25  1  0  0  0  0
 25 28  1  0  0  0  0
 26 25  2  0  0  0  0
 27 23  1  0  0  0  0
 29 31  1  0  0  0  0
 30 29  2  0  0  0  0
 31 22  1  0  0  0  0
 32 31  1  0  0  0  0
 33 29  1  0  0  0  0
 34 33  1  0  0  0  0
 35 34  1  0  0  0  0
 35 33  1  0  0  0  0
M  END
>  <minimizedAffinity>
-5.66457272

>  <minimizedRMSD>
0.341284454

$$$$
