
 OpenBabel03262522343D

 34 37  0  0  0  0  0  0  0  0999 V2000
   35.5590   29.5350   33.0010 C   0  0  0  0  0  0  0  0  0  0  0  0
   36.0510   30.2360   31.9290 C   0  0  0  0  0  0  0  0  0  0  0  0
   36.5540   29.6410   30.7880 C   0  0  0  0  0  0  0  0  0  0  0  0
   36.5760   28.2560   30.6950 C   0  0  0  0  0  0  0  0  0  0  0  0
   36.0760   27.5690   31.7830 C   0  0  0  0  0  0  0  0  0  0  0  0
   35.6020   28.2080   32.8620 N   0  0  0  0  0  0  0  0  0  0  0  0
   36.0610   31.3190   31.9440 H   0  0  0  0  0  0  0  0  0  0  0  0
   36.9270   30.2470   29.9790 H   0  0  0  0  0  0  0  0  0  0  0  0
   36.9680   27.7760   29.8060 H   0  0  0  0  0  0  0  0  0  0  0  0
   37.0370   25.4070   32.4040 C   0  0  0  0  0  0  0  0  0  0  0  0
   36.0720   26.1180   31.6920 C   0  0  0  0  0  0  0  0  0  0  0  0
   35.1620   25.4150   30.9390 C   0  0  0  0  0  0  0  0  0  0  0  0
   35.1220   24.0410   30.8190 C   0  0  0  0  0  0  0  0  0  0  0  0
   36.0570   23.3130   31.5030 C   0  0  0  0  0  0  0  0  0  0  0  0
   36.9720   24.0050   32.2630 C   0  0  0  0  0  0  0  0  0  0  0  0
   34.4200   26.0410   30.3980 H   0  0  0  0  0  0  0  0  0  0  0  0
   34.3710   23.5900   30.2050 H   0  0  0  0  0  0  0  0  0  0  0  0
   36.0940   22.2450   31.4620 H   0  0  0  0  0  0  0  0  0  0  0  0
   37.7280   23.4080   32.8140 H   0  0  0  0  0  0  0  0  0  0  0  0
   38.2930   26.1040   33.3580 S   0  0  0  0  0  0  0  0  0  0  0  0
   39.3740   25.0230   33.4870 O   0  0  0  0  0  0  0  0  0  0  0  0
   38.9380   27.2440   32.6320 O   0  0  0  0  0  0  0  0  0  0  0  0
   37.9150   26.4050   35.0590 C   0  0  0  0  0  3  0  0  0  0  0  0
   37.7830   27.8810   35.4890 C   0  0  0  0  0  2  0  0  0  0  0  0
   38.9260   27.0800   35.9090 C   0  0  0  0  0  2  0  0  0  0  0  0
   35.7790   31.0490   35.0050 C   0  0  0  0  0  0  0  0  0  0  0  0
   35.0300   30.1730   34.1840 C   0  0  0  0  0  0  0  0  0  0  0  0
   33.6900   29.9000   34.5450 C   0  0  0  0  0  0  0  0  0  0  0  0
   33.1860   30.4940   35.6670 N   0  0  0  0  0  0  0  0  0  0  0  0
   33.9600   31.3290   36.4170 C   0  0  0  0  0  0  0  0  0  0  0  0
   35.2230   31.6080   36.1070 N   0  0  0  0  0  0  0  0  0  0  0  0
   36.7920   31.2350   34.7030 H   0  0  0  0  0  0  0  0  0  0  0  0
   33.0660   29.2430   33.9630 H   0  0  0  0  0  0  0  0  0  0  0  0
   33.6170   31.8230   37.3090 H   0  0  0  0  0  0  0  0  0  0  0  0
  1 27  1  0  0  0  0
  2  7  1  0  0  0  0
  2  1  2  0  0  0  0
  3  2  1  0  0  0  0
  4  3  2  0  0  0  0
  4  5  1  0  0  0  0
  5  6  2  0  0  0  0
  6  1  1  0  0  0  0
  8  3  1  0  0  0  0
  9  4  1  0  0  0  0
 10 20  1  0  0  0  0
 11  5  1  0  0  0  0
 11 10  2  0  0  0  0
 12 11  1  0  0  0  0
 13 12  2  0  0  0  0
 13 14  1  0  0  0  0
 14 15  2  0  0  0  0
 15 10  1  0  0  0  0
 15 19  1  0  0  0  0
 16 12  1  0  0  0  0
 17 13  1  0  0  0  0
 18 14  1  0  0  0  0
 20 21  2  0  0  0  0
 20 23  1  0  0  0  0
 22 20  2  0  0  0  0
 23 24  1  0  0  0  0
 23 25  1  0  0  0  0
 24 25  1  0  0  0  0
 26 31  1  0  0  0  0
 27 28  1  0  0  0  0
 27 26  2  0  0  0  0
 28 29  2  0  0  0  0
 29 30  1  0  0  0  0
 30 34  1  0  0  0  0
 31 30  2  0  0  0  0
 32 26  1  0  0  0  0
 33 28  1  0  0  0  0
M  END
>  <minimizedAffinity>
-5.60848856

$$$$

 OpenBabel03262522343D

 34 37  0  0  0  0  0  0  0  0999 V2000
   36.3550   23.8040   31.6450 C   0  0  0  0  0  0  0  0  0  0  0  0
   35.3820   24.6670   31.2060 C   0  0  0  0  0  0  0  0  0  0  0  0
   35.5300   26.0400   31.1790 C   0  0  0  0  0  0  0  0  0  0  0  0
   36.7210   26.6070   31.6160 C   0  0  0  0  0  0  0  0  0  0  0  0
   37.6870   25.7210   32.0520 C   0  0  0  0  0  0  0  0  0  0  0  0
   37.4790   24.3970   32.0540 N   0  0  0  0  0  0  0  0  0  0  0  0
   34.4330   24.2830   30.8540 H   0  0  0  0  0  0  0  0  0  0  0  0
   34.7280   26.6650   30.8230 H   0  0  0  0  0  0  0  0  0  0  0  0
   36.8500   27.6820   31.6000 H   0  0  0  0  0  0  0  0  0  0  0  0
   39.1550   26.4670   33.8610 C   0  0  0  0  0  0  0  0  0  0  0  0
   38.9470   26.2980   32.4930 C   0  0  0  0  0  0  0  0  0  0  0  0
   39.9400   26.6830   31.6250 C   0  0  0  0  0  0  0  0  0  0  0  0
   41.1490   27.2370   31.9960 C   0  0  0  0  0  0  0  0  0  0  0  0
   41.3840   27.4190   33.3320 C   0  0  0  0  0  0  0  0  0  0  0  0
   40.3980   27.0350   34.2110 C   0  0  0  0  0  0  0  0  0  0  0  0
   39.7120   26.5200   30.5510 H   0  0  0  0  0  0  0  0  0  0  0  0
   41.8570   27.5030   31.2400 H   0  0  0  0  0  0  0  0  0  0  0  0
   42.2950   27.8420   33.7000 H   0  0  0  0  0  0  0  0  0  0  0  0
   40.5960   27.1860   35.2920 H   0  0  0  0  0  0  0  0  0  0  0  0
   38.0150   26.0990   35.1000 S   0  0  0  0  0  0  0  0  0  0  0  0
   38.5380   26.7820   36.3710 O   0  0  0  0  0  0  0  0  0  0  0  0
   36.6910   26.7370   34.8080 O   0  0  0  0  0  0  0  0  0  0  0  0
   37.9430   24.4130   35.6310 C   0  0  0  0  0  3  0  0  0  0  0  0
   39.1770   23.8700   36.3800 C   0  0  0  0  0  2  0  0  0  0  0  0
   38.8730   23.4310   35.0240 C   0  0  0  0  0  2  0  0  0  0  0  0
   35.1050   21.7130   32.2940 C   0  0  0  0  0  0  0  0  0  0  0  0
   36.1870   22.3690   31.6610 C   0  0  0  0  0  0  0  0  0  0  0  0
   37.1630   21.5770   31.0130 C   0  0  0  0  0  0  0  0  0  0  0  0
   37.0150   20.2200   31.0310 N   0  0  0  0  0  0  0  0  0  0  0  0
   35.9490   19.6480   31.6590 C   0  0  0  0  0  0  0  0  0  0  0  0
   35.0130   20.3610   32.2770 N   0  0  0  0  0  0  0  0  0  0  0  0
   34.3820   22.3420   32.7760 H   0  0  0  0  0  0  0  0  0  0  0  0
   38.0110   22.0150   30.5130 H   0  0  0  0  0  0  0  0  0  0  0  0
   35.7810   18.5850   31.7060 H   0  0  0  0  0  0  0  0  0  0  0  0
  1 27  1  0  0  0  0
  1  6  1  0  0  0  0
  2  1  2  0  0  0  0
  3  2  1  0  0  0  0
  3  4  2  0  0  0  0
  4  5  1  0  0  0  0
  5  6  2  0  0  0  0
  5 11  1  0  0  0  0
  7  2  1  0  0  0  0
  8  3  1  0  0  0  0
  9  4  1  0  0  0  0
 10 15  1  0  0  0  0
 10 20  1  0  0  0  0
 11 10  2  0  0  0  0
 12 13  2  0  0  0  0
 12 11  1  0  0  0  0
 13 14  1  0  0  0  0
 14 18  1  0  0  0  0
 14 15  2  0  0  0  0
 15 19  1  0  0  0  0
 16 12  1  0  0  0  0
 17 13  1  0  0  0  0
 20 23  1  0  0  0  0
 20 21  2  0  0  0  0
 22 20  2  0  0  0  0
 23 24  1  0  0  0  0
 25 23  1  0  0  0  0
 25 24  1  0  0  0  0
 26 32  1  0  0  0  0
 27 26  2  0  0  0  0
 28 29  2  0  0  0  0
 28 27  1  0  0  0  0
 29 30  1  0  0  0  0
 30 34  1  0  0  0  0
 30 31  2  0  0  0  0
 31 26  1  0  0  0  0
 33 28  1  0  0  0  0
M  END
>  <minimizedAffinity>
-5.49931908

$$$$

 OpenBabel03262522343D

 34 37  0  0  0  0  0  0  0  0999 V2000
   35.0830   29.3780   32.0670 C   0  0  0  0  0  0  0  0  0  0  0  0
   35.8760   29.6480   30.9790 C   0  0  0  0  0  0  0  0  0  0  0  0
   37.1530   29.1450   30.8170 C   0  0  0  0  0  0  0  0  0  0  0  0
   37.6890   28.3170   31.7950 C   0  0  0  0  0  0  0  0  0  0  0  0
   36.8740   28.0580   32.8800 C   0  0  0  0  0  0  0  0  0  0  0  0
   35.6430   28.5790   32.9770 N   0  0  0  0  0  0  0  0  0  0  0  0
   35.5120   30.2880   30.1850 H   0  0  0  0  0  0  0  0  0  0  0  0
   37.7260   29.3940   29.9400 H   0  0  0  0  0  0  0  0  0  0  0  0
   38.6880   27.9160   31.6810 H   0  0  0  0  0  0  0  0  0  0  0  0
   37.5240   25.8170   33.6150 C   0  0  0  0  0  0  0  0  0  0  0  0
   37.4130   27.1760   33.9030 C   0  0  0  0  0  0  0  0  0  0  0  0
   37.8190   27.6200   35.1390 C   0  0  0  0  0  0  0  0  0  0  0  0
   38.3320   26.8220   36.1410 C   0  0  0  0  0  0  0  0  0  0  0  0
   38.4510   25.4810   35.8910 C   0  0  0  0  0  0  0  0  0  0  0  0
   38.0510   25.0250   34.6570 C   0  0  0  0  0  0  0  0  0  0  0  0
   37.7060   28.7120   35.3030 H   0  0  0  0  0  0  0  0  0  0  0  0
   38.6200   27.2670   37.0700 H   0  0  0  0  0  0  0  0  0  0  0  0
   38.8390   24.7970   36.6150 H   0  0  0  0  0  0  0  0  0  0  0  0
   38.1500   23.9370   34.4610 H   0  0  0  0  0  0  0  0  0  0  0  0
   37.0200   25.0600   32.1500 S   0  0  0  0  0  0  0  0  0  0  0  0
   35.6180   25.6080   31.8520 O   0  0  0  0  0  0  0  0  0  0  0  0
   37.8830   25.4960   31.0050 O   0  0  0  0  0  0  0  0  0  0  0  0
   36.6900   23.3240   32.2320 C   0  0  0  0  0  3  0  0  0  0  0  0
   37.1620   22.4720   31.0360 C   0  0  0  0  0  2  0  0  0  0  0  0
   35.7450   22.7270   31.2580 C   0  0  0  0  0  2  0  0  0  0  0  0
   33.2910   31.0820   31.5750 C   0  0  0  0  0  0  0  0  0  0  0  0
   33.7470   29.9070   32.2180 C   0  0  0  0  0  0  0  0  0  0  0  0
   32.8480   29.2140   33.0610 C   0  0  0  0  0  0  0  0  0  0  0  0
   31.5860   29.7120   33.2140 N   0  0  0  0  0  0  0  0  0  0  0  0
   31.2070   30.8510   32.5670 C   0  0  0  0  0  0  0  0  0  0  0  0
   32.0250   31.5280   31.7670 N   0  0  0  0  0  0  0  0  0  0  0  0
   33.9970   31.5840   30.9420 H   0  0  0  0  0  0  0  0  0  0  0  0
   33.1330   28.3130   33.5780 H   0  0  0  0  0  0  0  0  0  0  0  0
   30.2280   31.2900   32.6510 H   0  0  0  0  0  0  0  0  0  0  0  0
  1 27  1  0  0  0  0
  1  6  1  0  0  0  0
  2  1  2  0  0  0  0
  3  2  1  0  0  0  0
  3  4  2  0  0  0  0
  4  5  1  0  0  0  0
  5  6  2  0  0  0  0
  5 11  1  0  0  0  0
  7  2  1  0  0  0  0
  8  3  1  0  0  0  0
  9  4  1  0  0  0  0
 10 11  2  0  0  0  0
 10 15  1  0  0  0  0
 11 12  1  0  0  0  0
 12 16  1  0  0  0  0
 12 13  2  0  0  0  0
 13 17  1  0  0  0  0
 14 13  1  0  0  0  0
 14 18  1  0  0  0  0
 15 14  2  0  0  0  0
 19 15  1  0  0  0  0
 20 23  1  0  0  0  0
 20 10  1  0  0  0  0
 21 20  2  0  0  0  0
 22 20  2  0  0  0  0
 24 25  1  0  0  0  0
 24 23  1  0  0  0  0
 25 23  1  0  0  0  0
 26 31  2  0  0  0  0
 26 27  1  0  0  0  0
 27 28  2  0  0  0  0
 28 29  1  0  0  0  0
 28 33  1  0  0  0  0
 30 34  1  0  0  0  0
 30 29  2  0  0  0  0
 31 30  1  0  0  0  0
 32 26  1  0  0  0  0
M  END
>  <minimizedAffinity>
-5.3639183

$$$$

 OpenBabel03262522343D

 34 37  0  0  0  0  0  0  0  0999 V2000
   37.1830   22.6940   31.7460 C   0  0  0  0  0  0  0  0  0  0  0  0
   37.7330   23.0380   30.5360 C   0  0  0  0  0  0  0  0  0  0  0  0
   38.3460   24.2510   30.2900 C   0  0  0  0  0  0  0  0  0  0  0  0
   38.4240   25.1950   31.3060 C   0  0  0  0  0  0  0  0  0  0  0  0
   37.8650   24.8280   32.5150 C   0  0  0  0  0  0  0  0  0  0  0  0
   37.2830   23.6340   32.6880 N   0  0  0  0  0  0  0  0  0  0  0  0
   37.7030   22.3430   29.7060 H   0  0  0  0  0  0  0  0  0  0  0  0
   38.7600   24.4630   29.3180 H   0  0  0  0  0  0  0  0  0  0  0  0
   38.9020   26.1500   31.1270 H   0  0  0  0  0  0  0  0  0  0  0  0
   39.0010   25.6740   34.5100 C   0  0  0  0  0  0  0  0  0  0  0  0
   37.9570   25.7970   33.5950 C   0  0  0  0  0  0  0  0  0  0  0  0
   37.0620   26.8280   33.7560 C   0  0  0  0  0  0  0  0  0  0  0  0
   37.1060   27.7680   34.7660 C   0  0  0  0  0  0  0  0  0  0  0  0
   38.1180   27.6740   35.6820 C   0  0  0  0  0  0  0  0  0  0  0  0
   39.0210   26.6470   35.5300 C   0  0  0  0  0  0  0  0  0  0  0  0
   36.2550   26.8710   32.9940 H   0  0  0  0  0  0  0  0  0  0  0  0
   36.3590   28.5330   34.8020 H   0  0  0  0  0  0  0  0  0  0  0  0
   38.2210   28.3620   36.4940 H   0  0  0  0  0  0  0  0  0  0  0  0
   39.8390   26.5770   36.2770 H   0  0  0  0  0  0  0  0  0  0  0  0
   40.1870   24.4230   34.5110 S   0  0  0  0  0  0  0  0  0  0  0  0
   40.6490   24.2780   33.0550 O   0  0  0  0  0  0  0  0  0  0  0  0
   41.3980   24.8420   35.2860 O   0  0  0  0  0  0  0  0  0  0  0  0
   39.6060   22.7850   34.8420 C   0  0  0  0  0  3  0  0  0  0  0  0
   38.5620   22.6360   35.9680 C   0  0  0  0  0  2  0  0  0  0  0  0
   39.9280   22.1600   36.1470 C   0  0  0  0  0  2  0  0  0  0  0  0
   36.3080   20.4580   30.9780 C   0  0  0  0  0  0  0  0  0  0  0  0
   36.5510   21.4170   31.9890 C   0  0  0  0  0  0  0  0  0  0  0  0
   36.1460   21.1150   33.3090 C   0  0  0  0  0  0  0  0  0  0  0  0
   35.5410   19.9140   33.5450 N   0  0  0  0  0  0  0  0  0  0  0  0
   35.3350   19.0310   32.5270 C   0  0  0  0  0  0  0  0  0  0  0  0
   35.7030   19.2810   31.2740 N   0  0  0  0  0  0  0  0  0  0  0  0
   36.6270   20.7170   29.9870 H   0  0  0  0  0  0  0  0  0  0  0  0
   36.3020   21.8030   34.1240 H   0  0  0  0  0  0  0  0  0  0  0  0
   34.8630   18.0710   32.6530 H   0  0  0  0  0  0  0  0  0  0  0  0
  1 27  1  0  0  0  0
  1  6  1  0  0  0  0
  2  1  2  0  0  0  0
  3  2  1  0  0  0  0
  3  4  2  0  0  0  0
  4  5  1  0  0  0  0
  5  6  2  0  0  0  0
  5 11  1  0  0  0  0
  7  2  1  0  0  0  0
  8  3  1  0  0  0  0
  9  4  1  0  0  0  0
 10 20  1  0  0  0  0
 10 15  1  0  0  0  0
 11 12  1  0  0  0  0
 11 10  2  0  0  0  0
 12 13  2  0  0  0  0
 13 17  1  0  0  0  0
 13 14  1  0  0  0  0
 14 18  1  0  0  0  0
 15 14  2  0  0  0  0
 15 19  1  0  0  0  0
 16 12  1  0  0  0  0
 20 23  1  0  0  0  0
 20 22  2  0  0  0  0
 21 20  2  0  0  0  0
 23 24  1  0  0  0  0
 23 25  1  0  0  0  0
 24 25  1  0  0  0  0
 26 31  2  0  0  0  0
 26 27  1  0  0  0  0
 27 28  2  0  0  0  0
 28 29  1  0  0  0  0
 28 33  1  0  0  0  0
 30 34  1  0  0  0  0
 30 29  2  0  0  0  0
 31 30  1  0  0  0  0
 32 26  1  0  0  0  0
M  END
>  <minimizedAffinity>
-5.36390114

$$$$

 OpenBabel03262522343D

 34 37  0  0  0  0  0  0  0  0999 V2000
   37.7550   22.1530   35.1730 C   0  0  0  0  0  0  0  0  0  0  0  0
   37.1390   22.4230   36.3700 C   0  0  0  0  0  0  0  0  0  0  0  0
   37.7730   23.0290   37.4380 C   0  0  0  0  0  0  0  0  0  0  0  0
   39.1070   23.3940   37.3220 C   0  0  0  0  0  0  0  0  0  0  0  0
   39.7070   23.1140   36.1100 C   0  0  0  0  0  0  0  0  0  0  0  0
   39.0360   22.5230   35.1110 N   0  0  0  0  0  0  0  0  0  0  0  0
   36.0990   22.1610   36.5200 H   0  0  0  0  0  0  0  0  0  0  0  0
   37.2350   23.2140   38.3530 H   0  0  0  0  0  0  0  0  0  0  0  0
   39.6160   23.8690   38.1510 H   0  0  0  0  0  0  0  0  0  0  0  0
   41.3830   24.7040   35.3040 C   0  0  0  0  0  0  0  0  0  0  0  0
   41.0990   23.5100   35.9650 C   0  0  0  0  0  0  0  0  0  0  0  0
   42.1460   22.7630   36.4490 C   0  0  0  0  0  0  0  0  0  0  0  0
   43.4800   23.0950   36.3330 C   0  0  0  0  0  0  0  0  0  0  0  0
   43.7940   24.2600   35.6870 C   0  0  0  0  0  0  0  0  0  0  0  0
   42.7540   25.0180   35.1990 C   0  0  0  0  0  0  0  0  0  0  0  0
   41.8510   21.8250   36.9660 H   0  0  0  0  0  0  0  0  0  0  0  0
   44.2210   22.4430   36.7460 H   0  0  0  0  0  0  0  0  0  0  0  0
   44.8030   24.5880   35.5540 H   0  0  0  0  0  0  0  0  0  0  0  0
   43.0160   25.9610   34.6760 H   0  0  0  0  0  0  0  0  0  0  0  0
   40.2180   25.7490   34.5800 S   0  0  0  0  0  0  0  0  0  0  0  0
   40.9820   27.0160   34.1760 O   0  0  0  0  0  0  0  0  0  0  0  0
   39.6980   25.1590   33.3050 O   0  0  0  0  0  0  0  0  0  0  0  0
   38.9900   26.4260   35.6570 C   0  0  0  0  0  3  0  0  0  0  0  0
   37.5170   26.1470   35.2910 C   0  0  0  0  0  2  0  0  0  0  0  0
   38.0850   27.4810   35.1390 C   0  0  0  0  0  2  0  0  0  0  0  0
   35.8650   20.8050   34.1900 C   0  0  0  0  0  0  0  0  0  0  0  0
   37.0760   21.5250   34.0620 C   0  0  0  0  0  0  0  0  0  0  0  0
   37.6600   21.6310   32.7790 C   0  0  0  0  0  0  0  0  0  0  0  0
   37.0280   21.0330   31.7270 N   0  0  0  0  0  0  0  0  0  0  0  0
   35.8620   20.3520   31.9150 C   0  0  0  0  0  0  0  0  0  0  0  0
   35.2840   20.2330   33.1060 N   0  0  0  0  0  0  0  0  0  0  0  0
   35.4480   20.7440   35.1760 H   0  0  0  0  0  0  0  0  0  0  0  0
   38.5810   22.1650   32.6150 H   0  0  0  0  0  0  0  0  0  0  0  0
   35.3210   19.8610   31.1240 H   0  0  0  0  0  0  0  0  0  0  0  0
  1  2  1  0  0  0  0
  2  7  1  0  0  0  0
  2  3  2  0  0  0  0
  3  8  1  0  0  0  0
  4  3  1  0  0  0  0
  4  9  1  0  0  0  0
  5  4  2  0  0  0  0
  6  1  2  0  0  0  0
  6  5  1  0  0  0  0
 10 11  1  0  0  0  0
 11  5  1  0  0  0  0
 11 12  2  0  0  0  0
 12 16  1  0  0  0  0
 13 12  1  0  0  0  0
 13 17  1  0  0  0  0
 14 13  2  0  0  0  0
 15 10  2  0  0  0  0
 15 14  1  0  0  0  0
 18 14  1  0  0  0  0
 19 15  1  0  0  0  0
 20 10  1  0  0  0  0
 20 23  1  0  0  0  0
 21 20  2  0  0  0  0
 22 20  2  0  0  0  0
 24 23  1  0  0  0  0
 25 24  1  0  0  0  0
 25 23  1  0  0  0  0
 26 32  1  0  0  0  0
 27 26  1  0  0  0  0
 27  1  1  0  0  0  0
 28 27  2  0  0  0  0
 29 30  2  0  0  0  0
 29 28  1  0  0  0  0
 30 31  1  0  0  0  0
 31 26  2  0  0  0  0
 33 28  1  0  0  0  0
 34 30  1  0  0  0  0
M  END
>  <minimizedAffinity>
-5.36037254

$$$$

 OpenBabel03262522343D

 34 37  0  0  0  0  0  0  0  0999 V2000
   36.8770   29.2320   30.7620 C   0  0  0  0  0  0  0  0  0  0  0  0
   35.6340   29.7470   31.0360 C   0  0  0  0  0  0  0  0  0  0  0  0
   34.9340   29.4840   32.1970 C   0  0  0  0  0  0  0  0  0  0  0  0
   35.4960   28.6550   33.1600 C   0  0  0  0  0  0  0  0  0  0  0  0
   36.7470   28.1490   32.8650 C   0  0  0  0  0  0  0  0  0  0  0  0
   37.3730   28.4430   31.7170 N   0  0  0  0  0  0  0  0  0  0  0  0
   35.1450   30.3990   30.3230 H   0  0  0  0  0  0  0  0  0  0  0  0
   33.9610   29.9180   32.3540 H   0  0  0  0  0  0  0  0  0  0  0  0
   34.9580   28.4410   34.0750 H   0  0  0  0  0  0  0  0  0  0  0  0
   37.5330   25.9450   33.5780 C   0  0  0  0  0  0  0  0  0  0  0  0
   37.3580   27.2960   33.8720 C   0  0  0  0  0  0  0  0  0  0  0  0
   37.7700   27.7600   35.0980 C   0  0  0  0  0  0  0  0  0  0  0  0
   38.3500   26.9890   36.0850 C   0  0  0  0  0  0  0  0  0  0  0  0
   38.5350   25.6570   35.8290 C   0  0  0  0  0  0  0  0  0  0  0  0
   38.1280   25.1820   34.6040 C   0  0  0  0  0  0  0  0  0  0  0  0
   37.6030   28.8450   35.2680 H   0  0  0  0  0  0  0  0  0  0  0  0
   38.6370   27.4480   37.0080 H   0  0  0  0  0  0  0  0  0  0  0  0
   38.9760   24.9930   36.5410 H   0  0  0  0  0  0  0  0  0  0  0  0
   38.2800   24.1010   34.4040 H   0  0  0  0  0  0  0  0  0  0  0  0
   37.0340   25.1650   32.1240 S   0  0  0  0  0  0  0  0  0  0  0  0
   35.6140   25.6700   31.8400 O   0  0  0  0  0  0  0  0  0  0  0  0
   37.8700   25.6170   30.9660 O   0  0  0  0  0  0  0  0  0  0  0  0
   36.7560   23.4200   32.2210 C   0  0  0  0  0  3  0  0  0  0  0  0
   37.0830   22.5960   30.9590 C   0  0  0  0  0  2  0  0  0  0  0  0
   35.7030   22.8140   31.3720 C   0  0  0  0  0  2  0  0  0  0  0  0
   38.4320   28.5890   28.8850 C   0  0  0  0  0  0  0  0  0  0  0  0
   37.5990   29.5230   29.5450 C   0  0  0  0  0  0  0  0  0  0  0  0
   37.4710   30.8160   28.9870 C   0  0  0  0  0  0  0  0  0  0  0  0
   38.1580   31.0990   27.8410 N   0  0  0  0  0  0  0  0  0  0  0  0
   38.9460   30.1550   27.2530 C   0  0  0  0  0  0  0  0  0  0  0  0
   39.0880   28.9300   27.7490 N   0  0  0  0  0  0  0  0  0  0  0  0
   38.5070   27.6170   29.3340 H   0  0  0  0  0  0  0  0  0  0  0  0
   36.8530   31.5720   29.4400 H   0  0  0  0  0  0  0  0  0  0  0  0
   39.5090   30.3220   26.3510 H   0  0  0  0  0  0  0  0  0  0  0  0
  1  2  2  0  0  0  0
  1  6  1  0  0  0  0
  2  3  1  0  0  0  0
  3  8  1  0  0  0  0
  3  4  2  0  0  0  0
  4  9  1  0  0  0  0
  5  4  1  0  0  0  0
  5 11  1  0  0  0  0
  6  5  2  0  0  0  0
  7  2  1  0  0  0  0
 10 11  2  0  0  0  0
 10 15  1  0  0  0  0
 11 12  1  0  0  0  0
 12 16  1  0  0  0  0
 12 13  2  0  0  0  0
 13 17  1  0  0  0  0
 14 13  1  0  0  0  0
 14 18  1  0  0  0  0
 15 14  2  0  0  0  0
 19 15  1  0  0  0  0
 20 23  1  0  0  0  0
 20 10  1  0  0  0  0
 21 20  2  0  0  0  0
 22 20  2  0  0  0  0
 24 25  1  0  0  0  0
 24 23  1  0  0  0  0
 25 23  1  0  0  0  0
 26 32  1  0  0  0  0
 26 27  1  0  0  0  0
 27  1  1  0  0  0  0
 28 33  1  0  0  0  0
 28 27  2  0  0  0  0
 29 28  1  0  0  0  0
 30 31  1  0  0  0  0
 30 29  2  0  0  0  0
 31 26  2  0  0  0  0
 34 30  1  0  0  0  0
M  END
>  <minimizedAffinity>
-5.26874399

$$$$

 OpenBabel03262522343D

 34 37  0  0  0  0  0  0  0  0999 V2000
   36.0440   22.9840   31.8680 C   0  0  0  0  0  0  0  0  0  0  0  0
   35.3220   23.7290   30.9690 C   0  0  0  0  0  0  0  0  0  0  0  0
   35.3800   25.1080   30.8950 C   0  0  0  0  0  0  0  0  0  0  0  0
   36.2060   25.8040   31.7670 C   0  0  0  0  0  0  0  0  0  0  0  0
   36.9240   25.0350   32.6620 C   0  0  0  0  0  0  0  0  0  0  0  0
   36.8220   23.6990   32.6830 N   0  0  0  0  0  0  0  0  0  0  0  0
   34.6600   23.2420   30.2640 H   0  0  0  0  0  0  0  0  0  0  0  0
   34.7880   25.6370   30.1670 H   0  0  0  0  0  0  0  0  0  0  0  0
   36.2610   26.8840   31.7200 H   0  0  0  0  0  0  0  0  0  0  0  0
   39.1800   25.7160   33.3180 C   0  0  0  0  0  0  0  0  0  0  0  0
   37.8100   25.7480   33.5690 C   0  0  0  0  0  0  0  0  0  0  0  0
   37.3590   26.4500   34.6610 C   0  0  0  0  0  0  0  0  0  0  0  0
   38.1600   27.1380   35.5500 C   0  0  0  0  0  0  0  0  0  0  0  0
   39.5110   27.1250   35.3330 C   0  0  0  0  0  0  0  0  0  0  0  0
   39.9740   26.4260   34.2420 C   0  0  0  0  0  0  0  0  0  0  0  0
   36.2570   26.4370   34.8030 H   0  0  0  0  0  0  0  0  0  0  0  0
   37.7090   27.6550   36.3700 H   0  0  0  0  0  0  0  0  0  0  0  0
   40.1990   27.6310   35.9760 H   0  0  0  0  0  0  0  0  0  0  0  0
   41.0710   26.4190   34.0730 H   0  0  0  0  0  0  0  0  0  0  0  0
   39.9430   24.8480   32.0380 S   0  0  0  0  0  0  0  0  0  0  0  0
   41.3770   25.3870   31.9600 O   0  0  0  0  0  0  0  0  0  0  0  0
   40.0680   23.3960   32.3830 O   0  0  0  0  0  0  0  0  0  0  0  0
   39.3670   25.1910   30.4010 C   0  0  0  0  0  3  0  0  0  0  0  0
   38.8200   23.9940   29.5950 C   0  0  0  0  0  2  0  0  0  0  0  0
   40.0960   24.6080   29.2480 C   0  0  0  0  0  2  0  0  0  0  0  0
   36.2990   20.6960   30.8390 C   0  0  0  0  0  0  0  0  0  0  0  0
   35.9770   21.5410   31.9280 C   0  0  0  0  0  0  0  0  0  0  0  0
   35.5610   20.9440   33.1390 C   0  0  0  0  0  0  0  0  0  0  0  0
   35.4890   19.5820   33.2000 N   0  0  0  0  0  0  0  0  0  0  0  0
   35.8120   18.8210   32.1150 C   0  0  0  0  0  0  0  0  0  0  0  0
   36.2080   19.3490   30.9610 N   0  0  0  0  0  0  0  0  0  0  0  0
   36.6120   21.1810   29.9350 H   0  0  0  0  0  0  0  0  0  0  0  0
   35.3030   21.5310   34.0040 H   0  0  0  0  0  0  0  0  0  0  0  0
   35.7730   17.7460   32.1050 H   0  0  0  0  0  0  0  0  0  0  0  0
  1 27  1  0  0  0  0
  1  6  1  0  0  0  0
  2  1  2  0  0  0  0
  3  2  1  0  0  0  0
  3  4  2  0  0  0  0
  4  5  1  0  0  0  0
  5  6  2  0  0  0  0
  5 11  1  0  0  0  0
  7  2  1  0  0  0  0
  8  3  1  0  0  0  0
  9  4  1  0  0  0  0
 10 11  2  0  0  0  0
 10 15  1  0  0  0  0
 11 12  1  0  0  0  0
 12 16  1  0  0  0  0
 12 13  2  0  0  0  0
 13 17  1  0  0  0  0
 14 13  1  0  0  0  0
 14 18  1  0  0  0  0
 15 14  2  0  0  0  0
 19 15  1  0  0  0  0
 20 22  2  0  0  0  0
 20 10  1  0  0  0  0
 21 20  2  0  0  0  0
 23 20  1  0  0  0  0
 24 23  1  0  0  0  0
 25 24  1  0  0  0  0
 25 23  1  0  0  0  0
 26 31  2  0  0  0  0
 26 27  1  0  0  0  0
 27 28  2  0  0  0  0
 28 29  1  0  0  0  0
 28 33  1  0  0  0  0
 30 29  2  0  0  0  0
 31 30  1  0  0  0  0
 32 26  1  0  0  0  0
 34 30  1  0  0  0  0
M  END
>  <minimizedAffinity>
-5.25624323

$$$$

 OpenBabel03262522343D

 34 37  0  0  0  0  0  0  0  0999 V2000
   37.3660   24.1040   31.0930 C   0  0  0  0  0  0  0  0  0  0  0  0
   38.4210   24.4850   30.3030 C   0  0  0  0  0  0  0  0  0  0  0  0
   38.8750   25.7860   30.2030 C   0  0  0  0  0  0  0  0  0  0  0  0
   38.2450   26.7860   30.9330 C   0  0  0  0  0  0  0  0  0  0  0  0
   37.1870   26.3820   31.7230 C   0  0  0  0  0  0  0  0  0  0  0  0
   36.7950   25.1010   31.7750 N   0  0  0  0  0  0  0  0  0  0  0  0
   38.9510   23.7500   29.7100 H   0  0  0  0  0  0  0  0  0  0  0  0
   39.7090   26.0220   29.5640 H   0  0  0  0  0  0  0  0  0  0  0  0
   38.5900   27.8100   30.8650 H   0  0  0  0  0  0  0  0  0  0  0  0
   36.9830   27.6450   33.8080 C   0  0  0  0  0  0  0  0  0  0  0  0
   36.5310   27.4130   32.5100 C   0  0  0  0  0  0  0  0  0  0  0  0
   35.4870   28.1700   32.0340 C   0  0  0  0  0  0  0  0  0  0  0  0
   34.8310   29.1550   32.7440 C   0  0  0  0  0  0  0  0  0  0  0  0
   35.2490   29.4060   34.0230 C   0  0  0  0  0  0  0  0  0  0  0  0
   36.2940   28.6570   34.5100 C   0  0  0  0  0  0  0  0  0  0  0  0
   35.1760   27.9360   30.9940 H   0  0  0  0  0  0  0  0  0  0  0  0
   34.0280   29.6880   32.2810 H   0  0  0  0  0  0  0  0  0  0  0  0
   34.7930   30.1520   34.6380 H   0  0  0  0  0  0  0  0  0  0  0  0
   36.6280   28.8650   35.5480 H   0  0  0  0  0  0  0  0  0  0  0  0
   38.2370   26.7680   34.6020 S   0  0  0  0  0  0  0  0  0  0  0  0
   38.3930   27.4140   35.9850 O   0  0  0  0  0  0  0  0  0  0  0  0
   37.8150   25.3530   34.8560 O   0  0  0  0  0  0  0  0  0  0  0  0
   39.8700   26.9670   33.9530 C   0  0  0  0  0  3  0  0  0  0  0  0
   40.6150   25.6790   33.5450 C   0  0  0  0  0  2  0  0  0  0  0  0
   41.0180   26.4330   34.7250 C   0  0  0  0  0  2  0  0  0  0  0  0
   37.6770   21.6220   30.7840 C   0  0  0  0  0  0  0  0  0  0  0  0
   36.9080   22.7370   31.1920 C   0  0  0  0  0  0  0  0  0  0  0  0
   35.6170   22.5040   31.7180 C   0  0  0  0  0  0  0  0  0  0  0  0
   35.1750   21.2150   31.8070 N   0  0  0  0  0  0  0  0  0  0  0  0
   35.9640   20.1820   31.3960 C   0  0  0  0  0  0  0  0  0  0  0  0
   37.1830   20.3650   30.8970 N   0  0  0  0  0  0  0  0  0  0  0  0
   38.6520   21.8330   30.3900 H   0  0  0  0  0  0  0  0  0  0  0  0
   34.9820   23.3100   32.0470 H   0  0  0  0  0  0  0  0  0  0  0  0
   35.6690   19.1480   31.4410 H   0  0  0  0  0  0  0  0  0  0  0  0
  1 27  1  0  0  0  0
  1  6  1  0  0  0  0
  2  1  2  0  0  0  0
  3  2  1  0  0  0  0
  3  4  2  0  0  0  0
  4  5  1  0  0  0  0
  5  6  2  0  0  0  0
  5 11  1  0  0  0  0
  7  2  1  0  0  0  0
  8  3  1  0  0  0  0
  9  4  1  0  0  0  0
 10 15  1  0  0  0  0
 10 20  1  0  0  0  0
 11 10  2  0  0  0  0
 12 11  1  0  0  0  0
 12 13  2  0  0  0  0
 13 14  1  0  0  0  0
 14 15  2  0  0  0  0
 14 18  1  0  0  0  0
 15 19  1  0  0  0  0
 16 12  1  0  0  0  0
 17 13  1  0  0  0  0
 20 22  2  0  0  0  0
 20 21  2  0  0  0  0
 23 20  1  0  0  0  0
 23 25  1  0  0  0  0
 24 23  1  0  0  0  0
 24 25  1  0  0  0  0
 26 31  2  0  0  0  0
 26 27  1  0  0  0  0
 27 28  2  0  0  0  0
 28 29  1  0  0  0  0
 28 33  1  0  0  0  0
 30 34  1  0  0  0  0
 30 29  2  0  0  0  0
 31 30  1  0  0  0  0
 32 26  1  0  0  0  0
M  END
>  <minimizedAffinity>
-5.25536108

$$$$

 OpenBabel03262522343D

 34 37  0  0  0  0  0  0  0  0999 V2000
   36.0220   28.4500   32.4050 C   0  0  0  0  0  0  0  0  0  0  0  0
   36.9450   28.9560   31.5240 C   0  0  0  0  0  0  0  0  0  0  0  0
   37.7950   28.1700   30.7690 C   0  0  0  0  0  0  0  0  0  0  0  0
   37.7330   26.7880   30.8900 C   0  0  0  0  0  0  0  0  0  0  0  0
   36.7970   26.3000   31.7800 C   0  0  0  0  0  0  0  0  0  0  0  0
   36.0020   27.1180   32.4840 N   0  0  0  0  0  0  0  0  0  0  0  0
   37.0400   30.0260   31.3880 H   0  0  0  0  0  0  0  0  0  0  0  0
   38.4990   28.6270   30.0940 H   0  0  0  0  0  0  0  0  0  0  0  0
   38.3940   26.1600   30.3040 H   0  0  0  0  0  0  0  0  0  0  0  0
   37.4100   24.2300   32.9300 C   0  0  0  0  0  0  0  0  0  0  0  0
   36.7060   24.8540   31.9020 C   0  0  0  0  0  0  0  0  0  0  0  0
   35.9580   24.0750   31.0520 C   0  0  0  0  0  0  0  0  0  0  0  0
   35.8440   22.7020   31.1260 C   0  0  0  0  0  0  0  0  0  0  0  0
   36.5250   22.0580   32.1230 C   0  0  0  0  0  0  0  0  0  0  0  0
   37.2760   22.8270   32.9820 C   0  0  0  0  0  0  0  0  0  0  0  0
   35.4210   24.6340   30.2570 H   0  0  0  0  0  0  0  0  0  0  0  0
   35.2340   22.1870   30.4140 H   0  0  0  0  0  0  0  0  0  0  0  0
   36.4890   20.9970   32.2480 H   0  0  0  0  0  0  0  0  0  0  0  0
   37.8260   22.2980   33.7880 H   0  0  0  0  0  0  0  0  0  0  0  0
   38.4430   25.0230   34.0600 S   0  0  0  0  0  0  0  0  0  0  0  0
   38.9830   23.9220   34.9830 O   0  0  0  0  0  0  0  0  0  0  0  0
   39.6390   25.6020   33.3690 O   0  0  0  0  0  0  0  0  0  0  0  0
   37.6580   26.0880   35.2340 C   0  0  0  0  0  3  0  0  0  0  0  0
   38.1770   27.5390   35.3090 C   0  0  0  0  0  2  0  0  0  0  0  0
   38.4460   26.5920   36.3840 C   0  0  0  0  0  2  0  0  0  0  0  0
   35.5370   29.9890   34.3420 C   0  0  0  0  0  0  0  0  0  0  0  0
   35.1350   29.2860   33.1820 C   0  0  0  0  0  0  0  0  0  0  0  0
   33.7900   29.3990   32.7630 C   0  0  0  0  0  0  0  0  0  0  0  0
   32.9450   30.1800   33.4970 N   0  0  0  0  0  0  0  0  0  0  0  0
   33.3930   30.8330   34.6070 C   0  0  0  0  0  0  0  0  0  0  0  0
   34.6500   30.7500   35.0300 N   0  0  0  0  0  0  0  0  0  0  0  0
   36.5640   29.8820   34.6330 H   0  0  0  0  0  0  0  0  0  0  0  0
   33.4210   28.8900   31.8880 H   0  0  0  0  0  0  0  0  0  0  0  0
   32.7730   31.4610   35.2240 H   0  0  0  0  0  0  0  0  0  0  0  0
  1  6  1  0  0  0  0
  1 27  1  0  0  0  0
  2  1  2  0  0  0  0
  3  4  2  0  0  0  0
  3  2  1  0  0  0  0
  4  5  1  0  0  0  0
  5 11  1  0  0  0  0
  5  6  2  0  0  0  0
  7  2  1  0  0  0  0
  8  3  1  0  0  0  0
  9  4  1  0  0  0  0
 10 15  1  0  0  0  0
 10 20  1  0  0  0  0
 11 10  2  0  0  0  0
 12 13  2  0  0  0  0
 12 11  1  0  0  0  0
 13 14  1  0  0  0  0
 14 18  1  0  0  0  0
 14 15  2  0  0  0  0
 15 19  1  0  0  0  0
 16 12  1  0  0  0  0
 17 13  1  0  0  0  0
 20 21  2  0  0  0  0
 20 23  1  0  0  0  0
 22 20  2  0  0  0  0
 23 24  1  0  0  0  0
 23 25  1  0  0  0  0
 24 25  1  0  0  0  0
 26 32  1  0  0  0  0
 26 31  1  0  0  0  0
 27 26  2  0  0  0  0
 28 27  1  0  0  0  0
 28 29  2  0  0  0  0
 29 30  1  0  0  0  0
 30 31  2  0  0  0  0
 30 34  1  0  0  0  0
 33 28  1  0  0  0  0
M  END
>  <minimizedAffinity>
-5.25515509

$$$$
