
 OpenBabel03272509433D

 32 34  0  0  1  0  0  0  0  0999 V2000
   37.0410   30.9230   49.0330 C   0  0  0  0  0  0  0  0  0  0  0  0
   36.7520   31.8240   50.0600 C   0  0  0  0  0  0  0  0  0  0  0  0
   37.3480   33.0750   50.1250 C   0  0  0  0  0  0  0  0  0  0  0  0
   38.2640   33.4500   49.1390 C   0  0  0  0  0  0  0  0  0  0  0  0
   38.5370   32.5590   48.1420 C   0  0  0  0  0  0  0  0  0  0  0  0
   37.9230   31.3160   48.1080 C   0  0  0  0  0  0  0  0  0  0  0  0
   36.0310   31.5010   50.8160 H   0  0  0  0  0  0  0  0  0  0  0  0
   37.0390   33.6730   50.9670 H   0  0  0  0  0  0  0  0  0  0  0  0
   38.6730   34.4320   49.2700 H   0  0  0  0  0  0  0  0  0  0  0  0
   39.2660   32.9910   47.4550 H   0  0  0  0  0  0  0  0  0  0  0  0
   36.4430   29.6060   48.9880 C   0  0  2  0  0  0  0  0  0  0  0  0
   36.9740   29.0660   48.1130 H   0  0  0  0  0  0  0  0  0  0  0  0
   33.5690   30.1250   46.8250 C   0  0  0  0  0  0  0  0  0  0  0  0
   32.9050   28.9130   46.8540 C   0  0  0  0  0  0  0  0  0  0  0  0
   33.4050   27.9160   47.6700 C   0  0  0  0  0  0  0  0  0  0  0  0
   34.5360   28.1600   48.4190 N   0  0  0  0  0  0  0  0  0  0  0  0
   35.1240   29.3370   48.3460 C   0  0  0  0  0  0  0  0  0  0  0  0
   34.6490   30.3250   47.5550 N   0  0  0  0  0  0  0  0  0  0  0  0
   33.2010   30.9340   46.1930 H   0  0  0  0  0  0  0  0  0  0  0  0
   32.0310   28.8170   46.2320 H   0  0  0  0  0  0  0  0  0  0  0  0
   32.8890   26.9660   47.6990 H   0  0  0  0  0  0  0  0  0  0  0  0
   36.8730   28.8350   49.9220 O   0  0  0  0  0  0  0  0  0  0  0  0
   36.5320   28.8120   50.8320 H   0  0  0  0  0  0  0  0  0  0  0  0
   38.3270   30.4610   47.0160 C   0  0  0  0  0  3  0  0  0  0  0  0
   38.9170   30.9070   45.9020 C   0  0  0  0  0  3  0  0  0  0  0  0
   39.4070   30.1220   44.7450 C   0  0  0  0  0  0  0  0  0  0  0  0
   39.2780   29.0210   44.8950 H   0  0  0  0  0  0  0  0  0  0  0  0
   40.4810   30.2980   44.5410 H   0  0  0  0  0  0  0  0  0  0  0  0
   38.4890   30.5790   43.2700 S   0  0  0  0  0  0  0  0  0  0  0  0
   36.7390   30.8890   43.7070 C   0  0  0  0  0  3  0  0  0  0  0  0
   35.9460   29.6880   44.0550 C   0  0  0  0  0  2  0  0  0  0  0  0
   35.6810   30.4090   42.7830 C   0  0  0  0  0  2  0  0  0  0  0  0
  1  2  1  0  0  0  0
  2  3  2  0  0  0  0
  2  7  1  0  0  0  0
  3  8  1  0  0  0  0
  4  9  1  0  0  0  0
  4  3  1  0  0  0  0
  5  4  2  0  0  0  0
  6  5  1  0  0  0  0
  6  1  2  0  0  0  0
 10  5  1  0  0  0  0
 11 12  1  6  0  0  0
 11  1  1  0  0  0  0
 11 22  1  0  0  0  0
 13 14  2  0  0  0  0
 13 18  1  0  0  0  0
 14 15  1  0  0  0  0
 15 21  1  0  0  0  0
 15 16  2  0  0  0  0
 17 16  1  0  0  0  0
 17 11  1  0  0  0  0
 18 17  2  0  0  0  0
 19 13  1  0  0  0  0
 20 14  1  0  0  0  0
 22 23  1  0  0  0  0
 24  6  1  0  0  0  0
 25 24  2  0  0  0  0
 26 27  1  0  0  0  0
 26 25  1  0  0  0  0
 28 26  1  0  0  0  0
 29 30  1  0  0  0  0
 29 26  1  0  0  0  0
 30 31  1  0  0  0  0
 32 30  1  0  0  0  0
 32 31  1  0  0  0  0
M  END
>  <minimizedAffinity>
-5.13946962

>  <minimizedRMSD>
0.644897699

$$$$
