REMARK  Name = 
REMARK  5 active torsions:
REMARK  status: ('A' for Active; 'I' for Inactive)
REMARK    1  A    between atoms: C_1  and  C_7
REMARK    2  A    between atoms: C_6  and  C_15
REMARK    3  A    between atoms: C_7  and  C_13
REMARK    4  A    between atoms: C_16  and  C_17
REMARK    5  A    between atoms: C_17  and  C_29
REMARK                            x       y       z     vdW  Elec       q    Type
REMARK                         _______ _______ _______ _____ _____    ______ ____
ROOT
ATOM      1  C   UNL     1      37.132  30.960  49.016  0.00  0.00    +0.000 A 
ATOM      2  C   UNL     1      36.913  31.930  50.009  0.00  0.00    +0.000 A 
ATOM      3  C   UNL     1      37.560  33.161  49.980  0.00  0.00    +0.000 A 
ATOM      4  C   UNL     1      38.452  33.464  48.950  0.00  0.00    +0.000 A 
ATOM      5  C   UNL     1      38.648  32.499  47.992  0.00  0.00    +0.000 A 
ATOM      6  C   UNL     1      37.997  31.279  48.035  0.00  0.00    +0.000 A 
ATOM      7  H   UNL     1      36.220  31.689  50.805  0.00  0.00    +0.000 HD
ATOM      8  H   UNL     1      37.364  33.885  50.767  0.00  0.00    +0.000 HD
ATOM      9  H   UNL     1      38.932  34.434  48.967  0.00  0.00    +0.000 HD
ATOM     10  H   UNL     1      39.352  32.801  47.224  0.00  0.00    +0.000 HD
ENDROOT
BRANCH   1  11
ATOM     11  C   UNL     1      36.417  29.703  49.123  0.00  0.00    +0.000 C 
ATOM     12  O   UNL     1      36.928  28.867  49.951  0.00  0.00    +0.000 OA
BRANCH  11  17
ATOM     13  C   UNL     1      33.626  30.186  46.850  0.00  0.00    +0.000 A 
ATOM     14  C   UNL     1      32.965  28.958  46.876  0.00  0.00    +0.000 A 
ATOM     15  C   UNL     1      33.475  27.957  47.677  0.00  0.00    +0.000 A 
ATOM     16  N   UNL     1      34.594  28.186  48.411  0.00  0.00    +0.000 NA
ATOM     17  C   UNL     1      35.211  29.359  48.374  0.00  0.00    +0.000 A 
ATOM     18  N   UNL     1      34.711  30.346  47.588  0.00  0.00    +0.000 NA
ATOM     19  H   UNL     1      33.279  31.010  46.246  0.00  0.00    +0.000 HD
ATOM     20  H   UNL     1      32.089  28.904  46.249  0.00  0.00    +0.000 HD
ATOM     21  H   UNL     1      32.949  27.029  47.676  0.00  0.00    +0.000 HD
ENDBRANCH  11  17
ENDBRANCH   1  11
BRANCH   6  22
ATOM     22  C   UNL     1      38.331  30.395  46.953  0.00  0.00    +0.000 C 
ATOM     23  C   UNL     1      38.803  30.692  45.763  0.00  0.00    +0.000 C 
BRANCH  23  24
ATOM     24  C   UNL     1      39.197  29.915  44.598  0.00  0.00    +0.000 C 
ATOM     25  H   UNL     1      38.567  30.186  43.713  0.00  0.00    +0.000 HD
ATOM     26  H   UNL     1      40.252  30.100  44.315  0.00  0.00    +0.000 HD
BRANCH  24  27
ATOM     27  C   UNL     1      39.047  28.445  44.887  0.00  0.00    +0.000 C 
ATOM     28  C   UNL     1      39.737  27.497  43.901  0.00  0.00    +0.000 C 
ATOM     29  C   UNL     1      38.259  27.539  44.019  0.00  0.00    +0.000 C 
ENDBRANCH  24  27
ENDBRANCH  23  24
ENDBRANCH   6  22
TORSDOF 5
