
 OpenBabel03272510303D

 22 24  0  0  0  0  0  0  0  0999 V2000
   36.9100   31.2180   49.3450 C   0  0  0  0  0  0  0  0  0  0  0  0
   37.1680   32.4540   49.9420 C   0  0  0  0  0  0  0  0  0  0  0  0
   38.1190   33.2360   49.3250 C   0  0  0  0  0  0  0  0  0  0  0  0
   38.7460   32.7810   48.1920 N   0  0  0  0  0  0  0  0  0  0  0  0
   38.4560   31.5600   47.6460 C   0  0  0  0  0  0  0  0  0  0  0  0
   37.5140   30.7600   48.2420 N   0  0  0  0  0  0  0  0  0  0  0  0
   36.6490   32.7700   50.8360 H   0  0  0  0  0  0  0  0  0  0  0  0
   38.3870   34.2100   49.7140 H   0  0  0  0  0  0  0  0  0  0  0  0
   35.8520   30.3520   49.9780 C   0  0  0  0  0  0  0  0  0  0  0  0
   35.8180   28.9190   49.8370 C   0  0  0  0  0  0  0  0  0  0  0  0
   36.4030   29.4820   51.1210 C   0  0  0  0  0  0  0  0  0  0  0  0
   34.9150   30.9240   50.2540 H   0  0  0  0  0  0  0  0  0  0  0  0
   34.8230   28.4240   49.8940 H   0  0  0  0  0  0  0  0  0  0  0  0
   36.5350   28.3750   49.1900 H   0  0  0  0  0  0  0  0  0  0  0  0
   35.7720   29.3880   52.0350 H   0  0  0  0  0  0  0  0  0  0  0  0
   37.4830   29.4640   51.2970 H   0  0  0  0  0  0  0  0  0  0  0  0
   39.1030   31.0550   46.4260 C   0  0  0  0  0  0  0  0  0  0  0  0
   39.6200   30.0890   46.5960 H   0  0  0  0  0  0  0  0  0  0  0  0
   38.3260   30.8510   45.6610 H   0  0  0  0  0  0  0  0  0  0  0  0
   40.0420   32.0910   45.8540 C   0  0  0  0  0  3  0  0  0  0  0  0
   40.6680   31.9190   44.5310 C   0  0  0  0  0  2  0  0  0  0  0  0
   39.5970   32.9990   44.7840 C   0  0  0  0  0  2  0  0  0  0  0  0
  1  2  1  0  0  0  0
  1  9  1  0  0  0  0
  2  7  1  0  0  0  0
  3  8  1  0  0  0  0
  3  2  2  0  0  0  0
  4  3  1  0  0  0  0
  5  4  2  0  0  0  0
  5  6  1  0  0  0  0
  6  1  2  0  0  0  0
  9 12  1  0  0  0  0
  9 11  1  0  0  0  0
 10 13  1  0  0  0  0
 10  9  1  0  0  0  0
 10 11  1  0  0  0  0
 11 16  1  0  0  0  0
 11 15  1  0  0  0  0
 14 10  1  0  0  0  0
 17 18  1  0  0  0  0
 17  5  1  0  0  0  0
 19 17  1  0  0  0  0
 20 17  1  0  0  0  0
 21 22  1  0  0  0  0
 21 20  1  0  0  0  0
 22 20  1  0  0  0  0
M  END
>  <minimizedAffinity>
-5.14116764

>  <minimizedRMSD>
1.57363296

$$$$
