REMARK  Name = 
REMARK  6 active torsions:
REMARK  status: ('A' for Active; 'I' for Inactive)
REMARK    1  A    between atoms: C_1  and  C_2
REMARK    2  A    between atoms: C_1  and  O_8
REMARK    3  A    between atoms: O_8  and  P_10
REMARK    4  A    between atoms: P_10  and  O_11
REMARK    5  A    between atoms: P_10  and  O_12
REMARK    6  A    between atoms: O_12  and  C_19
REMARK                            x       y       z     vdW  Elec       q    Type
REMARK                         _______ _______ _______ _____ _____    ______ ____
ROOT
ATOM      1  C   UNL     1      36.077  30.283  50.022  0.00  0.00    +0.000 C 
ATOM      2  H   UNL     1      35.677  30.291  51.071  0.00  0.00    +0.000 HD
ATOM      3  H   UNL     1      36.984  29.640  50.051  0.00  0.00    +0.000 HD
ENDROOT
BRANCH   1   4
ATOM      4  C   UNL     1      35.128  29.598  49.110  0.00  0.00    +0.000 A 
ATOM      5  C   UNL     1      34.677  30.276  47.987  0.00  0.00    +0.000 A 
ATOM      6  C   UNL     1      33.788  29.642  47.128  0.00  0.00    +0.000 A 
ATOM      7  N   UNL     1      33.397  28.379  47.428  0.00  0.00    +0.000 NA
ATOM      8  C   UNL     1      33.846  27.730  48.529  0.00  0.00    +0.000 A 
ATOM      9  N   UNL     1      34.711  28.340  49.370  0.00  0.00    +0.000 NA
ATOM     10  H   UNL     1      34.993  31.296  47.745  0.00  0.00    +0.000 HD
ATOM     11  H   UNL     1      33.429  30.170  46.241  0.00  0.00    +0.000 HD
ATOM     12  H   UNL     1      33.504  26.712  48.730  0.00  0.00    +0.000 HD
ENDBRANCH   1   4
BRANCH   1  13
ATOM     13  O   UNL     1      36.345  31.586  49.629  0.00  0.00    +0.000 OA
BRANCH  13  15
ATOM     14  O   UNL     1      38.400  31.172  48.045  0.00  0.00    +0.000 OA
ATOM     15  P   UNL     1      38.015  31.709  49.393  0.00  0.00    +0.000 P 
BRANCH  15  16
ATOM     16  O   UNL     1      38.807  30.764  50.569  0.00  0.00    +0.000 OA
ATOM     17  H   UNL     1      39.661  30.385  50.241  0.00  0.00    +0.000 HD
ENDBRANCH  15  16
BRANCH  15  18
ATOM     18  O   UNL     1      38.512  33.329  49.502  0.00  0.00    +0.000 OA
BRANCH  18  19
ATOM     19  C   UNL     1      37.511  34.131  48.985  0.00  0.00    +0.000 C 
ATOM     20  C   UNL     1      37.864  35.629  49.075  0.00  0.00    +0.000 C 
ATOM     21  C   UNL     1      37.664  34.916  47.743  0.00  0.00    +0.000 C 
ENDBRANCH  18  19
ENDBRANCH  15  18
ENDBRANCH  13  15
ENDBRANCH   1  13
TORSDOF 6
