
 OpenBabel03272509453D

 13 14  0  0  0  0  0  0  0  0999 V2000
   38.1600   32.8120   49.4540 C   0  0  0  0  0  0  0  0  0  0  0  0
   38.9070   32.9500   48.2810 C   0  0  0  0  0  0  0  0  0  0  0  0
   38.5620   32.1490   47.1810 C   0  0  0  0  0  0  0  0  0  0  0  0
   37.5090   31.2690   47.3140 N   0  0  0  0  0  0  0  0  0  0  0  0
   36.8150   31.1750   48.4830 C   0  0  0  0  0  0  0  0  0  0  0  0
   37.1480   31.9460   49.5360 N   0  0  0  0  0  0  0  0  0  0  0  0
   38.4360   33.4330   50.2920 H   0  0  0  0  0  0  0  0  0  0  0  0
   39.7400   33.6340   48.1510 H   0  0  0  0  0  0  0  0  0  0  0  0
   39.1030   32.2170   46.2610 H   0  0  0  0  0  0  0  0  0  0  0  0
   35.8010   30.2400   48.4130 O   0  0  0  0  0  0  0  0  0  0  0  0
   35.6680   29.3170   49.4800 C   0  0  0  0  0  3  0  0  0  0  0  0
   34.6930   28.2050   49.3860 C   0  0  0  0  0  2  0  0  0  0  0  0
   34.3100   29.4180   50.1660 C   0  0  0  0  0  2  0  0  0  0  0  0
  1  6  1  0  0  0  0
  1  7  1  0  0  0  0
  2  1  2  0  0  0  0
  3  4  2  0  0  0  0
  3  2  1  0  0  0  0
  4  5  1  0  0  0  0
  5  6  2  0  0  0  0
  8  2  1  0  0  0  0
  9  3  1  0  0  0  0
 10  5  1  0  0  0  0
 10 11  1  0  0  0  0
 11 13  1  0  0  0  0
 12 11  1  0  0  0  0
 12 13  1  0  0  0  0
M  END
>  <minimizedAffinity>
-3.75914192

>  <minimizedRMSD>
2.71080399

$$$$
