
 OpenBabel03272510313D

 26 28  0  0  0  0  0  0  0  0999 V2000
   37.2970   31.1480   49.4580 C   0  0  0  0  0  0  0  0  0  0  0  0
   38.3200   32.0790   49.5000 C   0  0  0  0  0  0  0  0  0  0  0  0
   38.7680   32.5000   48.2580 C   0  0  0  0  0  0  0  0  0  0  0  0
   38.2210   32.0130   47.1140 N   0  0  0  0  0  0  0  0  0  0  0  0
   37.2240   31.1050   47.1160 C   0  0  0  0  0  0  0  0  0  0  0  0
   36.7560   30.6630   48.3230 N   0  0  0  0  0  0  0  0  0  0  0  0
   38.6970   32.4130   50.4550 H   0  0  0  0  0  0  0  0  0  0  0  0
   39.5700   33.2310   48.2410 H   0  0  0  0  0  0  0  0  0  0  0  0
   36.7400   30.6670   50.7750 C   0  0  0  0  0  0  0  0  0  0  0  0
   35.9560   29.4840   50.8980 C   0  0  0  0  0  0  0  0  0  0  0  0
   37.4340   29.3700   51.2500 C   0  0  0  0  0  0  0  0  0  0  0  0
   36.7070   31.4660   51.5600 H   0  0  0  0  0  0  0  0  0  0  0  0
   35.2910   29.3600   51.7600 H   0  0  0  0  0  0  0  0  0  0  0  0
   35.6840   28.8650   50.0090 H   0  0  0  0  0  0  0  0  0  0  0  0
   37.7130   29.3590   52.3040 H   0  0  0  0  0  0  0  0  0  0  0  0
   38.1060   28.8590   50.5620 H   0  0  0  0  0  0  0  0  0  0  0  0
   36.6200   30.5820   45.8990 C   0  0  0  0  0  0  0  0  0  0  0  0
   35.7800   31.1810   45.5310 H   0  0  0  0  0  0  0  0  0  0  0  0
   36.3190   29.5320   46.0230 H   0  0  0  0  0  0  0  0  0  0  0  0
   37.5940   31.4980   43.7880 C   0  0  0  0  0  0  0  0  0  0  0  0
   36.6480   32.3410   43.6070 O   0  0  0  0  0  0  0  0  0  0  0  0
   37.6500   30.5880   44.8730 N   0  0  0  0  0  0  0  0  0  0  0  0
   38.4330   29.8980   44.9610 H   0  0  0  0  0  0  0  0  0  0  0  0
   38.6770   31.5110   42.7700 C   0  0  0  0  0  3  0  0  0  0  0  0
   39.1510   32.8080   42.1900 C   0  0  0  0  0  2  0  0  0  0  0  0
   40.0240   32.0760   43.1360 C   0  0  0  0  0  2  0  0  0  0  0  0
  1  2  1  0  0  0  0
  1  9  1  0  0  0  0
  2  7  1  0  0  0  0
  3  2  2  0  0  0  0
  4  5  2  0  0  0  0
  4  3  1  0  0  0  0
  5  6  1  0  0  0  0
  6  1  2  0  0  0  0
  8  3  1  0  0  0  0
  9 10  1  0  0  0  0
  9 11  1  0  0  0  0
  9 12  1  0  0  0  0
 10 11  1  0  0  0  0
 10 13  1  0  0  0  0
 11 15  1  0  0  0  0
 14 10  1  0  0  0  0
 16 11  1  0  0  0  0
 17 19  1  0  0  0  0
 17  5  1  0  0  0  0
 18 17  1  0  0  0  0
 20 22  1  0  0  0  0
 21 20  2  0  0  0  0
 22 23  1  0  0  0  0
 22 17  1  0  0  0  0
 24 26  1  0  0  0  0
 24 20  1  0  0  0  0
 25 24  1  0  0  0  0
 25 26  1  0  0  0  0
M  END
>  <minimizedAffinity>
-4.58753729

>  <minimizedRMSD>
2.76611042

$$$$
