
 OpenBabel03272510043D

 31 33  0  0  0  0  0  0  0  0999 V2000
   36.3170   30.6020   45.1550 C   0  0  0  0  0  0  0  0  0  0  0  0
   35.9130   30.3720   46.4330 C   0  0  0  0  0  0  0  0  0  0  0  0
   34.6270   29.9030   46.6830 C   0  0  0  0  0  0  0  0  0  0  0  0
   33.7160   29.6570   45.6730 C   0  0  0  0  0  0  0  0  0  0  0  0
   34.0860   29.8810   44.3710 C   0  0  0  0  0  0  0  0  0  0  0  0
   35.3620   30.3420   44.1590 C   0  0  0  0  0  0  0  0  0  0  0  0
   34.3320   29.7240   47.7260 H   0  0  0  0  0  0  0  0  0  0  0  0
   32.7600   29.3000   45.9670 H   0  0  0  0  0  0  0  0  0  0  0  0
   33.3500   29.6780   43.6390 H   0  0  0  0  0  0  0  0  0  0  0  0
   35.5300   30.4830   43.0830 H   0  0  0  0  0  0  0  0  0  0  0  0
   38.5430   31.9270   48.4800 C   0  0  0  0  0  0  0  0  0  0  0  0
   37.6890   31.6420   47.4270 C   0  0  0  0  0  0  0  0  0  0  0  0
   36.7630   30.6420   47.5400 C   0  0  0  0  0  0  0  0  0  0  0  0
   36.7260   29.9640   48.7190 N   0  0  0  0  0  0  0  0  0  0  0  0
   37.5470   30.2400   49.7380 C   0  0  0  0  0  0  0  0  0  0  0  0
   38.4510   31.2170   49.6110 N   0  0  0  0  0  0  0  0  0  0  0  0
   39.3170   32.6630   48.5590 H   0  0  0  0  0  0  0  0  0  0  0  0
   37.9410   32.3600   46.6850 H   0  0  0  0  0  0  0  0  0  0  0  0
   37.3460   29.4640   50.9910 C   0  0  0  0  0  0  0  0  0  0  0  0
   37.5720   30.2300   52.1170 F   0  0  0  0  0  0  0  0  0  0  0  0
   35.9400   29.1420   51.1140 F   0  0  0  0  0  0  0  0  0  0  0  0
   37.9370   28.2940   51.0740 F   0  0  0  0  0  0  0  0  0  0  0  0
   37.8750   31.1390   44.7160 S   0  0  0  0  0  0  0  0  0  0  0  0
   38.0570   32.5880   45.0360 O   0  0  0  0  0  0  0  0  0  0  0  0
   37.6470   31.3360   43.2360 O   0  0  0  0  0  0  0  0  0  0  0  0
   39.2120   30.1900   44.3010 C   0  0  0  0  0  0  0  0  0  0  0  0
   39.9520   30.6240   43.6250 H   0  0  0  0  0  0  0  0  0  0  0  0
   39.8290   30.1030   45.2600 H   0  0  0  0  0  0  0  0  0  0  0  0
   38.8990   28.7480   44.0120 C   0  0  0  0  0  3  0  0  0  0  0  0
   39.6770   28.2170   42.7900 C   0  0  0  0  0  2  0  0  0  0  0  0
   38.1690   28.3510   42.7860 C   0  0  0  0  0  2  0  0  0  0  0  0
  1  2  1  0  0  0  0
  2  3  2  0  0  0  0
  2 13  1  0  0  0  0
  3  7  1  0  0  0  0
  4  8  1  0  0  0  0
  4  3  1  0  0  0  0
  5  4  2  0  0  0  0
  6  5  1  0  0  0  0
  6  1  2  0  0  0  0
  9  5  1  0  0  0  0
 10  6  1  0  0  0  0
 11 17  1  0  0  0  0
 11 16  1  0  0  0  0
 12 13  1  0  0  0  0
 12 11  2  0  0  0  0
 13 14  2  0  0  0  0
 14 15  1  0  0  0  0
 15 19  1  0  0  0  0
 16 15  2  0  0  0  0
 18 12  1  0  0  0  0
 19 22  1  0  0  0  0
 19 21  1  0  0  0  0
 19 20  1  0  0  0  0
 23 24  2  0  0  0  0
 23  1  1  0  0  0  0
 25 23  2  0  0  0  0
 26 23  1  0  0  0  0
 26 28  1  0  0  0  0
 27 26  1  0  0  0  0
 29 26  1  0  0  0  0
 30 29  1  0  0  0  0
 31 30  1  0  0  0  0
 31 29  1  0  0  0  0
M  END
>  <minimizedAffinity>
-5.52514887

>  <minimizedRMSD>
1.86417115

$$$$
