REMARK  Name = 
REMARK  2 active torsions:
REMARK  status: ('A' for Active; 'I' for Inactive)
REMARK    1  A    between atoms: C_5  and  C_7
REMARK    2  A    between atoms: C_7  and  C_12
REMARK                            x       y       z     vdW  Elec       q    Type
REMARK                         _______ _______ _______ _____ _____    ______ ____
ROOT
ATOM      1  C   UNL     1      37.267  30.181  51.426  0.00  0.00    +0.000 A 
ATOM      2  C   UNL     1      38.101  30.758  50.439  0.00  0.00    +0.000 A 
ATOM      3  C   UNL     1      37.803  30.493  49.102  0.00  0.00    +0.000 A 
ATOM      4  N   UNL     1      36.740  29.705  48.838  0.00  0.00    +0.000 NA
ATOM      5  C   UNL     1      35.963  29.169  49.798  0.00  0.00    +0.000 A 
ATOM      6  N   UNL     1      36.220  29.401  51.081  0.00  0.00    +0.000 NA
ATOM      7  H   UNL     1      37.504  30.390  52.461  0.00  0.00    +0.000 HD
ATOM      8  H   UNL     1      38.948  31.386  50.676  0.00  0.00    +0.000 HD
ATOM      9  H   UNL     1      38.414  30.913  48.314  0.00  0.00    +0.000 HD
ENDROOT
BRANCH   5  10
ATOM     10  C   UNL     1      34.822  28.321  49.486  0.00  0.00    +0.000 C 
ATOM     11  O   UNL     1      33.634  28.706  49.550  0.00  0.00    +0.000 OA
BRANCH  10  12
ATOM     12  C   UNL     1      34.960  26.899  49.057  0.00  0.00    +0.000 C 
ATOM     13  C   UNL     1      35.464  26.583  47.700  0.00  0.00    +0.000 C 
ATOM     14  C   UNL     1      33.995  26.316  48.085  0.00  0.00    +0.000 C 
ENDBRANCH  10  12
ENDBRANCH   5  10
TORSDOF 2
