
     RDKit          3D

 37 39  0  0  0  0  0  0  0  0999 V2000
   36.0713   30.6949   49.0671 C   0  0  2  0  0  0  0  0  0  0  0  0
   37.0115   31.6452   49.7444 C   0  0  0  0  0  0  0  0  0  0  0  0
   38.0422   30.9472   50.6035 C   0  0  0  0  0  0  0  0  0  0  0  0
   37.3649   30.0579   51.6417 C   0  0  0  0  0  0  0  0  0  0  0  0
   36.1249   29.3699   51.1423 C   0  0  0  0  0  0  0  0  0  0  0  0
   36.1888   29.3044   49.6067 C   0  0  1  0  0  0  0  0  0  0  0  0
   36.3232   30.6517   47.6031 C   0  0  0  0  0  0  0  0  0  0  0  0
   37.5660   31.1275   47.1805 C   0  0  0  0  0  0  0  0  0  0  0  0
   37.8228   31.0912   45.8038 C   0  0  0  0  0  0  0  0  0  0  0  0
   36.8596   30.5990   44.9617 N   0  0  0  0  0  0  0  0  0  0  0  0
   35.6487   30.1400   45.4300 C   0  0  0  0  0  0  0  0  0  0  0  0
   35.4102   30.1782   46.7411 N   0  0  0  0  0  0  0  0  0  0  0  0
   33.9140   28.2265   49.2056 C   0  0  0  0  0  0  0  0  0  0  0  0
   33.1327   28.8612   49.9723 O   0  0  0  0  0  0  0  0  0  0  0  0
   35.3273   28.3421   49.0243 N   0  0  0  0  0  0  0  0  0  0  0  0
   34.9856   30.9719   49.1639 H   0  0  0  0  0  0  0  0  0  0  0  0
   36.3555   32.1772   50.5147 H   0  0  0  0  0  0  0  0  0  0  0  0
   37.4348   32.4366   49.1568 H   0  0  0  0  0  0  0  0  0  0  0  0
   38.8200   30.4208   50.0521 H   0  0  0  0  0  0  0  0  0  0  0  0
   38.5561   31.7418   51.1857 H   0  0  0  0  0  0  0  0  0  0  0  0
   37.1751   30.5749   52.5944 H   0  0  0  0  0  0  0  0  0  0  0  0
   38.1061   29.2315   51.8487 H   0  0  0  0  0  0  0  0  0  0  0  0
   36.0197   28.3410   51.4954 H   0  0  0  0  0  0  0  0  0  0  0  0
   35.2291   29.9958   51.3962 H   0  0  0  0  0  0  0  0  0  0  0  0
   37.1841   28.9506   49.4665 H   0  0  0  0  0  0  0  0  0  0  0  0
   38.4021   31.5252   47.7195 H   0  0  0  0  0  0  0  0  0  0  0  0
   38.7348   31.4253   45.3412 H   0  0  0  0  0  0  0  0  0  0  0  0
   34.9168   29.7594   44.7350 H   0  0  0  0  0  0  0  0  0  0  0  0
   35.7147   27.5918   48.3660 H   0  0  0  0  0  0  0  0  0  0  0  0
   33.1301   27.2108   48.3982 C   0  0  0  0  0  0  0  0  0  0  0  0
   32.3227   26.1723   49.1244 C   0  0  0  0  0  0  0  0  0  0  0  0
   31.5939   27.2966   48.4919 C   0  0  0  0  0  0  0  0  0  0  0  0
   33.5178   26.9678   47.3820 H   0  0  0  0  0  0  0  0  0  0  0  0
   32.3866   26.2152   50.2470 H   0  0  0  0  0  0  0  0  0  0  0  0
   32.2222   25.1949   48.6375 H   0  0  0  0  0  0  0  0  0  0  0  0
   31.0132   27.1541   47.5556 H   0  0  0  0  0  0  0  0  0  0  0  0
   31.2123   28.1288   49.1204 H   0  0  0  0  0  0  0  0  0  0  0  0
  1  6  1  0
  1  2  1  0
  2  3  1  0
  3  4  1  0
  5  4  1  0
  6  5  1  0
  7  1  1  0
  8  7  2  0
  9  8  1  0
 10 11  1  0
 10  9  2  0
 11 12  2  0
 12  7  1  0
 13 14  2  0
 15 13  1  0
 15  6  1  0
  1 16  1  6
  2 17  1  0
  2 18  1  0
  3 19  1  0
  3 20  1  0
  4 21  1  0
  4 22  1  0
  5 23  1  0
  5 24  1  0
  6 25  1  1
  8 26  1  0
  9 27  1  0
 11 28  1  0
 15 29  1  0
 30 31  1  0
 31 32  1  0
 32 30  1  0
 30 33  1  0
 31 34  1  0
 31 35  1  0
 32 36  1  0
 32 37  1  0
 13 30  1  0
M  ISO  8  16  13  17  13  18  13  19  13  20  13  21  13  22  13  23  13
M  ISO  5  24  13  25  13  26  14  27  14  28  14
M  END
>  <DihAtoms>  (1) 
13,12,29,30

>  <DihDeg>  (1) 
-27.52249436671335

$$$$
