
 OpenBabel03272507273D

 33 35  0  0  1  0  0  0  0  0999 V2000
   36.2250   29.9700   49.6350 C   0  0  0  0  0  0  0  0  0  0  0  0
   37.2280   30.5400   48.8260 C   0  0  0  0  0  0  0  0  0  0  0  0
   36.9330   30.7470   47.4730 C   0  0  0  0  0  0  0  0  0  0  0  0
   35.7230   30.3950   47.0280 N   0  0  0  0  0  0  0  0  0  0  0  0
   34.7860   29.8540   47.8220 C   0  0  0  0  0  0  0  0  0  0  0  0
   35.0380   29.6440   49.1200 N   0  0  0  0  0  0  0  0  0  0  0  0
   37.8980   31.3110   46.6220 N   0  0  0  0  0  0  0  0  0  0  0  0
   38.9610   32.2350   47.0370 C   0  0  0  0  0  0  0  0  0  0  0  0
   39.5860   32.7670   45.7790 C   0  0  0  0  0  0  0  0  0  0  0  0
   38.5690   32.4700   44.7520 C   0  0  0  0  0  0  0  0  0  0  0  0
   38.0540   31.1150   45.2150 C   0  0  2  0  0  0  0  0  0  0  0  0
   36.5640   29.8540   50.6750 H   0  0  0  0  0  0  0  0  0  0  0  0
   38.2090   30.8300   49.1640 H   0  0  0  0  0  0  0  0  0  0  0  0
   33.7990   29.5610   47.4860 H   0  0  0  0  0  0  0  0  0  0  0  0
   39.6870   31.5940   47.5800 H   0  0  0  0  0  0  0  0  0  0  0  0
   38.5460   33.0060   47.6830 H   0  0  0  0  0  0  0  0  0  0  0  0
   39.6250   33.8860   45.9050 H   0  0  0  0  0  0  0  0  0  0  0  0
   40.6010   32.4140   45.6030 H   0  0  0  0  0  0  0  0  0  0  0  0
   38.9530   32.4240   43.7140 H   0  0  0  0  0  0  0  0  0  0  0  0
   37.7660   33.2230   44.7720 H   0  0  0  0  0  0  0  0  0  0  0  0
   36.8750   30.6550   44.4360 C   0  0  0  0  0  0  0  0  0  0  0  0
   35.8070   31.4590   44.8090 F   0  0  0  0  0  0  0  0  0  0  0  0
   36.5040   29.3640   44.6320 F   0  0  0  0  0  0  0  0  0  0  0  0
   37.1340   30.9500   43.1090 F   0  0  0  0  0  0  0  0  0  0  0  0
   39.1530   30.1270   45.0590 C   0  0  0  0  0  0  0  0  0  0  0  0
   38.9610   29.3420   45.8210 H   0  0  0  0  0  0  0  0  0  0  0  0
   40.0940   30.6460   45.4200 H   0  0  0  0  0  0  0  0  0  0  0  0
   39.3090   29.9550   43.8370 O   0  0  0  0  0  0  0  0  0  0  0  0
   39.7340   28.9590   43.0350 C   0  0  0  0  0  0  0  0  0  0  0  0
   39.0310   27.9430   43.2660 O   0  0  0  0  0  0  0  0  0  0  0  0
   40.5000   28.2490   42.0330 C   0  0  0  0  0  3  0  0  0  0  0  0
   40.6120   28.6570   40.6190 C   0  0  0  0  0  2  0  0  0  0  0  0
   41.7400   28.9470   41.5060 C   0  0  0  0  0  2  0  0  0  0  0  0
  1 12  1  0  0  0  0
  2 13  1  0  0  0  0
  2  1  2  0  0  0  0
  3  2  1  0  0  0  0
  4  3  2  0  0  0  0
  4  5  1  0  0  0  0
  5  6  2  0  0  0  0
  6  1  1  0  0  0  0
  7  8  1  0  0  0  0
  7  3  1  0  0  0  0
  8 15  1  0  0  0  0
  8 16  1  0  0  0  0
  9 17  1  0  0  0  0
  9  8  1  0  0  0  0
 10 20  1  0  0  0  0
 10 11  1  0  0  0  0
 10  9  1  0  0  0  0
 11 21  1  6  0  0  0
 11  7  1  0  0  0  0
 14  5  1  0  0  0  0
 18  9  1  0  0  0  0
 19 10  1  0  0  0  0
 21 23  1  0  0  0  0
 21 22  1  0  0  0  0
 24 21  1  0  0  0  0
 25 11  1  0  0  0  0
 25 27  1  0  0  0  0
 25 26  1  0  0  0  0
 28 25  1  0  0  0  0
 29 30  2  0  0  0  0
 29 28  1  0  0  0  0
 31 29  1  0  0  0  0
 32 33  1  0  0  0  0
 32 31  1  0  0  0  0
 33 31  1  0  0  0  0
M  END
>  <minimizedAffinity>
-4.47013998

>  <minimizedRMSD>
1.29566407

$$$$
