
 OpenBabel03272507383D

 17 18  0  0  0  0  0  0  0  0999 V2000
   39.7630   23.9420   35.7360 C   0  0  0  0  0  0  0  0  0  0  0  0
   39.4950   23.0760   36.7970 C   0  0  0  0  0  0  0  0  0  0  0  0
   40.5530   22.4020   37.4000 C   0  0  0  0  0  0  0  0  0  0  0  0
   41.8140   22.6270   36.9160 N   0  0  0  0  0  0  0  0  0  0  0  0
   42.0340   23.4810   35.8790 C   0  0  0  0  0  0  0  0  0  0  0  0
   41.0210   24.1290   35.2970 N   0  0  0  0  0  0  0  0  0  0  0  0
   40.4450   21.7120   38.2270 H   0  0  0  0  0  0  0  0  0  0  0  0
   43.0520   23.6290   35.5260 H   0  0  0  0  0  0  0  0  0  0  0  0
   37.6960   23.6560   38.3200 C   0  0  0  0  0  0  0  0  0  0  0  0
   38.0780   24.7320   38.9250 O   0  0  0  0  0  0  0  0  0  0  0  0
   38.2490   22.7910   37.3480 N   0  0  0  0  0  0  0  0  0  0  0  0
   36.7770   23.7400   38.9020 H   0  0  0  0  0  0  0  0  0  0  0  0
   37.5510   22.0140   37.2050 H   0  0  0  0  0  0  0  0  0  0  0  0
   38.5990   24.5180   35.2660 O   0  0  0  0  0  0  0  0  0  0  0  0
   38.6800   25.9180   35.0230 C   0  0  0  0  0  3  0  0  0  0  0  0
   38.4400   26.8870   36.0930 C   0  0  0  0  0  2  0  0  0  0  0  0
   37.3630   26.6770   35.0890 C   0  0  0  0  0  2  0  0  0  0  0  0
  1  2  1  0  0  0  0
  2 11  1  0  0  0  0
  2  3  2  0  0  0  0
  3  7  1  0  0  0  0
  4  3  1  0  0  0  0
  5  4  2  0  0  0  0
  6  1  2  0  0  0  0
  6  5  1  0  0  0  0
  8  5  1  0  0  0  0
  9 12  1  0  0  0  0
  9 10  2  0  0  0  0
 11  9  1  0  0  0  0
 13 11  1  0  0  0  0
 14  1  1  0  0  0  0
 15 17  1  0  0  0  0
 15 14  1  0  0  0  0
 15 16  1  0  0  0  0
 17 16  1  0  0  0  0
M  END
>  <minimizedAffinity>
-3.95622921

$$$$

 OpenBabel03272507383D

 17 18  0  0  0  0  0  0  0  0999 V2000
   39.9120   24.5300   35.4480 C   0  0  0  0  0  0  0  0  0  0  0  0
   38.6490   24.7880   35.9850 C   0  0  0  0  0  0  0  0  0  0  0  0
   38.1540   26.0880   35.9440 C   0  0  0  0  0  0  0  0  0  0  0  0
   38.9390   27.0550   35.3750 N   0  0  0  0  0  0  0  0  0  0  0  0
   40.1650   26.7620   34.8620 C   0  0  0  0  0  0  0  0  0  0  0  0
   40.6440   25.5150   34.8990 N   0  0  0  0  0  0  0  0  0  0  0  0
   37.1880   26.3860   36.3340 H   0  0  0  0  0  0  0  0  0  0  0  0
   40.7550   27.5610   34.4180 H   0  0  0  0  0  0  0  0  0  0  0  0
   37.8110   23.6930   37.9820 C   0  0  0  0  0  0  0  0  0  0  0  0
   38.4970   24.1750   38.9650 O   0  0  0  0  0  0  0  0  0  0  0  0
   37.7900   23.8690   36.5800 N   0  0  0  0  0  0  0  0  0  0  0  0
   37.2780   23.1100   38.7350 H   0  0  0  0  0  0  0  0  0  0  0  0
   37.0600   23.2080   36.2040 H   0  0  0  0  0  0  0  0  0  0  0  0
   40.2350   23.1930   35.5770 O   0  0  0  0  0  0  0  0  0  0  0  0
   41.2760   22.9170   36.5090 C   0  0  0  0  0  3  0  0  0  0  0  0
   42.0580   21.6840   36.4240 C   0  0  0  0  0  2  0  0  0  0  0  0
   41.0100   21.7720   37.4750 C   0  0  0  0  0  2  0  0  0  0  0  0
  1 14  1  0  0  0  0
  1  2  1  0  0  0  0
  2 11  1  0  0  0  0
  3  2  2  0  0  0  0
  3  7  1  0  0  0  0
  4  3  1  0  0  0  0
  5  6  1  0  0  0  0
  5  4  2  0  0  0  0
  6  1  2  0  0  0  0
  8  5  1  0  0  0  0
  9 12  1  0  0  0  0
  9 10  2  0  0  0  0
 11  9  1  0  0  0  0
 13 11  1  0  0  0  0
 14 15  1  0  0  0  0
 15 17  1  0  0  0  0
 16 15  1  0  0  0  0
 16 17  1  0  0  0  0
M  END
>  <minimizedAffinity>
-3.61110616

$$$$

 OpenBabel03272507383D

 17 18  0  0  0  0  0  0  0  0999 V2000
   37.1020   25.8910   32.5510 C   0  0  0  0  0  0  0  0  0  0  0  0
   36.1260   26.5400   31.7930 C   0  0  0  0  0  0  0  0  0  0  0  0
   35.2600   25.7770   31.0140 C   0  0  0  0  0  0  0  0  0  0  0  0
   35.4140   24.4160   31.0320 N   0  0  0  0  0  0  0  0  0  0  0  0
   36.3790   23.8220   31.7860 C   0  0  0  0  0  0  0  0  0  0  0  0
   37.2120   24.5510   32.5340 N   0  0  0  0  0  0  0  0  0  0  0  0
   34.4730   26.1890   30.3950 H   0  0  0  0  0  0  0  0  0  0  0  0
   36.4650   22.7370   31.7690 H   0  0  0  0  0  0  0  0  0  0  0  0
   36.4030   28.6460   30.6190 C   0  0  0  0  0  0  0  0  0  0  0  0
   37.1100   28.3770   29.5710 O   0  0  0  0  0  0  0  0  0  0  0  0
   35.9020   27.9120   31.7170 N   0  0  0  0  0  0  0  0  0  0  0  0
   36.3820   29.6740   30.2530 H   0  0  0  0  0  0  0  0  0  0  0  0
   35.4040   28.6020   32.3390 H   0  0  0  0  0  0  0  0  0  0  0  0
   37.8630   26.8030   33.2550 O   0  0  0  0  0  0  0  0  0  0  0  0
   38.1060   26.4560   34.6140 C   0  0  0  0  0  3  0  0  0  0  0  0
   38.1090   27.4740   35.6650 C   0  0  0  0  0  2  0  0  0  0  0  0
   39.4210   26.9530   35.1970 C   0  0  0  0  0  2  0  0  0  0  0  0
  1 14  1  0  0  0  0
  2  1  2  0  0  0  0
  3  4  2  0  0  0  0
  3  2  1  0  0  0  0
  4  5  1  0  0  0  0
  5  6  2  0  0  0  0
  6  1  1  0  0  0  0
  7  3  1  0  0  0  0
  8  5  1  0  0  0  0
  9 11  1  0  0  0  0
 10  9  2  0  0  0  0
 11  2  1  0  0  0  0
 11 13  1  0  0  0  0
 12  9  1  0  0  0  0
 14 15  1  0  0  0  0
 15 17  1  0  0  0  0
 15 16  1  0  0  0  0
 17 16  1  0  0  0  0
M  END
>  <minimizedAffinity>
-3.59326434

$$$$

 OpenBabel03272507383D

 17 18  0  0  0  0  0  0  0  0999 V2000
   38.4030   23.9550   34.9910 C   0  0  0  0  0  0  0  0  0  0  0  0
   38.0040   25.2320   34.5910 C   0  0  0  0  0  0  0  0  0  0  0  0
   37.3970   25.3900   33.3490 C   0  0  0  0  0  0  0  0  0  0  0  0
   37.2220   24.2730   32.5760 N   0  0  0  0  0  0  0  0  0  0  0  0
   37.6240   23.0450   33.0030 C   0  0  0  0  0  0  0  0  0  0  0  0
   38.2080   22.8900   34.1950 N   0  0  0  0  0  0  0  0  0  0  0  0
   37.0540   26.3370   32.9530 H   0  0  0  0  0  0  0  0  0  0  0  0
   37.4650   22.1850   32.3560 H   0  0  0  0  0  0  0  0  0  0  0  0
   39.3780   27.1050   35.2970 C   0  0  0  0  0  0  0  0  0  0  0  0
   40.5420   26.9070   34.7720 O   0  0  0  0  0  0  0  0  0  0  0  0
   38.1440   26.4150   35.3120 N   0  0  0  0  0  0  0  0  0  0  0  0
   39.7970   28.0260   35.7040 H   0  0  0  0  0  0  0  0  0  0  0  0
   37.4940   26.9740   35.9240 H   0  0  0  0  0  0  0  0  0  0  0  0
   38.9820   23.9930   36.2440 O   0  0  0  0  0  0  0  0  0  0  0  0
   38.1360   23.5650   37.3070 C   0  0  0  0  0  3  0  0  0  0  0  0
   37.8780   24.4280   38.4600 C   0  0  0  0  0  2  0  0  0  0  0  0
   38.8290   23.2980   38.6350 C   0  0  0  0  0  2  0  0  0  0  0  0
  1 14  1  0  0  0  0
  2  1  1  0  0  0  0
  2 11  1  0  0  0  0
  3  2  2  0  0  0  0
  4  5  2  0  0  0  0
  4  3  1  0  0  0  0
  5  6  1  0  0  0  0
  6  1  2  0  0  0  0
  7  3  1  0  0  0  0
  8  5  1  0  0  0  0
  9 11  1  0  0  0  0
  9 12  1  0  0  0  0
 10  9  2  0  0  0  0
 11 13  1  0  0  0  0
 14 15  1  0  0  0  0
 15 16  1  0  0  0  0
 15 17  1  0  0  0  0
 16 17  1  0  0  0  0
M  END
>  <minimizedAffinity>
-3.57901025

$$$$

 OpenBabel03272507383D

 17 18  0  0  0  0  0  0  0  0999 V2000
   38.2410   25.0740   35.3480 C   0  0  0  0  0  0  0  0  0  0  0  0
   38.3030   24.3660   34.1460 C   0  0  0  0  0  0  0  0  0  0  0  0
   37.6830   24.8980   33.0190 C   0  0  0  0  0  0  0  0  0  0  0  0
   37.0380   26.0990   33.1510 N   0  0  0  0  0  0  0  0  0  0  0  0
   37.0010   26.7580   34.3410 C   0  0  0  0  0  0  0  0  0  0  0  0
   37.5950   26.2500   35.4250 N   0  0  0  0  0  0  0  0  0  0  0  0
   37.6770   24.4240   32.0450 H   0  0  0  0  0  0  0  0  0  0  0  0
   36.4770   27.7090   34.3990 H   0  0  0  0  0  0  0  0  0  0  0  0
   38.1970   21.9440   34.0340 C   0  0  0  0  0  0  0  0  0  0  0  0
   36.9820   21.6280   34.3400 O   0  0  0  0  0  0  0  0  0  0  0  0
   38.9340   23.1450   33.9270 N   0  0  0  0  0  0  0  0  0  0  0  0
   38.3660   20.8740   33.9030 H   0  0  0  0  0  0  0  0  0  0  0  0
   39.9210   22.8710   33.6790 H   0  0  0  0  0  0  0  0  0  0  0  0
   38.9080   24.3970   36.3500 O   0  0  0  0  0  0  0  0  0  0  0  0
   38.0710   23.8580   37.3670 C   0  0  0  0  0  3  0  0  0  0  0  0
   37.9290   24.5260   38.6620 C   0  0  0  0  0  2  0  0  0  0  0  0
   38.7890   23.3140   38.5940 C   0  0  0  0  0  2  0  0  0  0  0  0
  1  6  1  0  0  0  0
  1 14  1  0  0  0  0
  2  1  2  0  0  0  0
  3  4  2  0  0  0  0
  3  2  1  0  0  0  0
  4  5  1  0  0  0  0
  5  8  1  0  0  0  0
  5  6  2  0  0  0  0
  7  3  1  0  0  0  0
  9 10  2  0  0  0  0
 11  9  1  0  0  0  0
 11  2  1  0  0  0  0
 12  9  1  0  0  0  0
 13 11  1  0  0  0  0
 14 15  1  0  0  0  0
 15 17  1  0  0  0  0
 15 16  1  0  0  0  0
 17 16  1  0  0  0  0
M  END
>  <minimizedAffinity>
-3.49374938

$$$$

 OpenBabel03272507383D

 17 18  0  0  0  0  0  0  0  0999 V2000
   38.5500   21.9760   34.4680 C   0  0  0  0  0  0  0  0  0  0  0  0
   38.8480   22.2090   35.8120 C   0  0  0  0  0  0  0  0  0  0  0  0
   40.1810   22.2420   36.2100 C   0  0  0  0  0  0  0  0  0  0  0  0
   41.1400   22.0400   35.2540 N   0  0  0  0  0  0  0  0  0  0  0  0
   40.8080   21.8150   33.9530 C   0  0  0  0  0  0  0  0  0  0  0  0
   39.5300   21.7830   33.5670 N   0  0  0  0  0  0  0  0  0  0  0  0
   40.5100   22.4160   37.2280 H   0  0  0  0  0  0  0  0  0  0  0  0
   41.6030   21.6590   33.2270 H   0  0  0  0  0  0  0  0  0  0  0  0
   37.6250   23.7420   37.2420 C   0  0  0  0  0  0  0  0  0  0  0  0
   38.0100   24.9280   36.9020 O   0  0  0  0  0  0  0  0  0  0  0  0
   37.9380   22.4230   36.8440 N   0  0  0  0  0  0  0  0  0  0  0  0
   36.9670   24.2400   37.9560 H   0  0  0  0  0  0  0  0  0  0  0  0
   37.3730   21.7810   37.4590 H   0  0  0  0  0  0  0  0  0  0  0  0
   37.1850   21.9790   34.2600 O   0  0  0  0  0  0  0  0  0  0  0  0
   36.7380   21.1280   33.2100 C   0  0  0  0  0  3  0  0  0  0  0  0
   35.4650   21.3720   32.5310 C   0  0  0  0  0  2  0  0  0  0  0  0
   35.5220   20.2700   33.5280 C   0  0  0  0  0  2  0  0  0  0  0  0
  1  2  1  0  0  0  0
  2  3  2  0  0  0  0
  2 11  1  0  0  0  0
  3  7  1  0  0  0  0
  4  3  1  0  0  0  0
  5  4  2  0  0  0  0
  6  5  1  0  0  0  0
  6  1  2  0  0  0  0
  8  5  1  0  0  0  0
  9 12  1  0  0  0  0
 10  9  2  0  0  0  0
 11  9  1  0  0  0  0
 11 13  1  0  0  0  0
 14  1  1  0  0  0  0
 15 17  1  0  0  0  0
 15 14  1  0  0  0  0
 16 15  1  0  0  0  0
 16 17  1  0  0  0  0
M  END
>  <minimizedAffinity>
-3.47788286

$$$$

 OpenBabel03272507383D

 17 18  0  0  0  0  0  0  0  0999 V2000
   40.0920   23.2420   35.4260 C   0  0  0  0  0  0  0  0  0  0  0  0
   39.1540   22.6570   36.2790 C   0  0  0  0  0  0  0  0  0  0  0  0
   37.9610   22.1810   35.7440 C   0  0  0  0  0  0  0  0  0  0  0  0
   37.7680   22.3140   34.3940 N   0  0  0  0  0  0  0  0  0  0  0  0
   38.7070   22.8910   33.5970 C   0  0  0  0  0  0  0  0  0  0  0  0
   39.8540   23.3490   34.1070 N   0  0  0  0  0  0  0  0  0  0  0  0
   37.1750   21.7130   36.3230 H   0  0  0  0  0  0  0  0  0  0  0  0
   38.5110   22.9760   32.5300 H   0  0  0  0  0  0  0  0  0  0  0  0
   38.6800   23.4190   38.5350 C   0  0  0  0  0  0  0  0  0  0  0  0
   38.0200   24.5220   38.4040 O   0  0  0  0  0  0  0  0  0  0  0  0
   39.2710   22.4830   37.6560 N   0  0  0  0  0  0  0  0  0  0  0  0
   38.5610   23.5590   39.6100 H   0  0  0  0  0  0  0  0  0  0  0  0
   39.7370   21.7560   38.2600 H   0  0  0  0  0  0  0  0  0  0  0  0
   41.2070   23.6520   36.1310 O   0  0  0  0  0  0  0  0  0  0  0  0
   42.4380   23.0980   35.6770 C   0  0  0  0  0  3  0  0  0  0  0  0
   43.1300   22.0640   36.4480 C   0  0  0  0  0  2  0  0  0  0  0  0
   43.6650   23.4510   36.5050 C   0  0  0  0  0  2  0  0  0  0  0  0
  1 14  1  0  0  0  0
  1  2  1  0  0  0  0
  2 11  1  0  0  0  0
  3  2  2  0  0  0  0
  3  7  1  0  0  0  0
  4  3  1  0  0  0  0
  5  6  1  0  0  0  0
  5  4  2  0  0  0  0
  6  1  2  0  0  0  0
  8  5  1  0  0  0  0
  9 12  1  0  0  0  0
 10  9  2  0  0  0  0
 11 13  1  0  0  0  0
 11  9  1  0  0  0  0
 15 14  1  0  0  0  0
 15 16  1  0  0  0  0
 15 17  1  0  0  0  0
 16 17  1  0  0  0  0
M  END
>  <minimizedAffinity>
-3.45309329

$$$$

 OpenBabel03272507383D

 17 18  0  0  0  0  0  0  0  0999 V2000
   38.3760   24.3110   36.2730 C   0  0  0  0  0  0  0  0  0  0  0  0
   39.5560   23.6980   35.8490 C   0  0  0  0  0  0  0  0  0  0  0  0
   40.2770   22.9260   36.7550 C   0  0  0  0  0  0  0  0  0  0  0  0
   39.7860   22.8080   38.0280 N   0  0  0  0  0  0  0  0  0  0  0  0
   38.6310   23.4230   38.4020 C   0  0  0  0  0  0  0  0  0  0  0  0
   37.9370   24.1650   37.5350 N   0  0  0  0  0  0  0  0  0  0  0  0
   41.2010   22.4120   36.5200 H   0  0  0  0  0  0  0  0  0  0  0  0
   38.2780   23.3020   39.4250 H   0  0  0  0  0  0  0  0  0  0  0  0
   41.1180   24.7320   34.3040 C   0  0  0  0  0  0  0  0  0  0  0  0
   41.6840   25.6900   34.9610 O   0  0  0  0  0  0  0  0  0  0  0  0
   40.1240   23.7650   34.5790 N   0  0  0  0  0  0  0  0  0  0  0  0
   41.7570   25.0230   33.4700 H   0  0  0  0  0  0  0  0  0  0  0  0
   39.9780   23.2210   33.6890 H   0  0  0  0  0  0  0  0  0  0  0  0
   37.8010   25.0310   35.2440 O   0  0  0  0  0  0  0  0  0  0  0  0
   37.9440   26.4440   35.3500 C   0  0  0  0  0  3  0  0  0  0  0  0
   36.9570   27.3500   34.7620 C   0  0  0  0  0  2  0  0  0  0  0  0
   38.2520   27.1750   34.0520 C   0  0  0  0  0  2  0  0  0  0  0  0
  1  6  1  0  0  0  0
  2  1  2  0  0  0  0
  2  3  1  0  0  0  0
  3  4  2  0  0  0  0
  4  5  1  0  0  0  0
  5  8  1  0  0  0  0
  6  5  2  0  0  0  0
  7  3  1  0  0  0  0
  9 11  1  0  0  0  0
  9 10  2  0  0  0  0
 11  2  1  0  0  0  0
 12  9  1  0  0  0  0
 13 11  1  0  0  0  0
 14 15  1  0  0  0  0
 14  1  1  0  0  0  0
 16 15  1  0  0  0  0
 17 16  1  0  0  0  0
 17 15  1  0  0  0  0
M  END
>  <minimizedAffinity>
-3.40384531

$$$$

 OpenBabel03272507383D

 17 18  0  0  0  0  0  0  0  0999 V2000
   39.4410   22.6860   36.9850 C   0  0  0  0  0  0  0  0  0  0  0  0
   39.0600   23.2940   35.7870 C   0  0  0  0  0  0  0  0  0  0  0  0
   38.2010   24.3880   35.8300 C   0  0  0  0  0  0  0  0  0  0  0  0
   37.7690   24.8140   37.0580 N   0  0  0  0  0  0  0  0  0  0  0  0
   38.1640   24.1940   38.2030 C   0  0  0  0  0  0  0  0  0  0  0  0
   38.9890   23.1440   38.1660 N   0  0  0  0  0  0  0  0  0  0  0  0
   37.8510   24.9240   34.9570 H   0  0  0  0  0  0  0  0  0  0  0  0
   37.7960   24.5670   39.1570 H   0  0  0  0  0  0  0  0  0  0  0  0
   38.6000   22.1160   33.7150 C   0  0  0  0  0  0  0  0  0  0  0  0
   37.4580   21.5370   33.8830 O   0  0  0  0  0  0  0  0  0  0  0  0
   39.4510   22.9250   34.5020 N   0  0  0  0  0  0  0  0  0  0  0  0
   38.5870   21.6920   32.7090 H   0  0  0  0  0  0  0  0  0  0  0  0
   40.3060   23.1200   33.9190 H   0  0  0  0  0  0  0  0  0  0  0  0
   40.2920   21.6240   36.7470 O   0  0  0  0  0  0  0  0  0  0  0  0
   41.5760   21.7410   37.3490 C   0  0  0  0  0  3  0  0  0  0  0  0
   42.7030   22.3230   36.6180 C   0  0  0  0  0  2  0  0  0  0  0  0
   42.6610   20.8440   36.7700 C   0  0  0  0  0  2  0  0  0  0  0  0
  1  6  1  0  0  0  0
  2  3  1  0  0  0  0
  2  1  2  0  0  0  0
  3  4  2  0  0  0  0
  4  5  1  0  0  0  0
  5  8  1  0  0  0  0
  6  5  2  0  0  0  0
  7  3  1  0  0  0  0
  9 10  2  0  0  0  0
  9 11  1  0  0  0  0
 11  2  1  0  0  0  0
 12  9  1  0  0  0  0
 13 11  1  0  0  0  0
 14  1  1  0  0  0  0
 14 15  1  0  0  0  0
 16 17  1  0  0  0  0
 16 15  1  0  0  0  0
 17 15  1  0  0  0  0
M  END
>  <minimizedAffinity>
-3.39637709

$$$$
