
 OpenBabel03272504253D

 33 36  0  0  0  0  0  0  0  0999 V2000
   37.8980   25.8190   33.7290 C   0  0  0  0  0  0  0  0  0  0  0  0
   37.6150   26.9280   34.4520 C   0  0  0  0  0  0  0  0  0  0  0  0
   38.4410   27.3830   35.4040 C   0  0  0  0  0  0  0  0  0  0  0  0
   39.5810   26.7000   35.6330 N   0  0  0  0  0  0  0  0  0  0  0  0
   39.8720   25.6160   34.9300 C   0  0  0  0  0  0  0  0  0  0  0  0
   39.0420   25.1640   33.9790 N   0  0  0  0  0  0  0  0  0  0  0  0
   36.6890   27.4200   34.2110 H   0  0  0  0  0  0  0  0  0  0  0  0
   38.0770   28.2790   35.8900 H   0  0  0  0  0  0  0  0  0  0  0  0
   41.1180   23.7520   35.8890 C   0  0  0  0  0  0  0  0  0  0  0  0
   41.1390   24.9740   35.2090 C   0  0  0  0  0  0  0  0  0  0  0  0
   42.2960   25.6080   34.7850 C   0  0  0  0  0  0  0  0  0  0  0  0
   43.5260   25.0240   35.0310 C   0  0  0  0  0  0  0  0  0  0  0  0
   43.6050   23.8220   35.6900 C   0  0  0  0  0  0  0  0  0  0  0  0
   42.4120   23.2820   36.0650 C   0  0  0  0  0  0  0  0  0  0  0  0
   42.2010   26.5690   34.2570 H   0  0  0  0  0  0  0  0  0  0  0  0
   44.3520   25.5900   34.6700 H   0  0  0  0  0  0  0  0  0  0  0  0
   44.5490   23.3740   35.8760 H   0  0  0  0  0  0  0  0  0  0  0  0
   42.4950   22.3140   36.5920 H   0  0  0  0  0  0  0  0  0  0  0  0
   39.7730   22.9330   36.4130 S   0  0  0  0  0  0  0  0  0  0  0  0
   40.4490   22.0980   37.4940 O   0  0  0  0  0  0  0  0  0  0  0  0
   39.2600   21.9600   35.3600 O   0  0  0  0  0  0  0  0  0  0  0  0
   38.5660   23.0570   37.5700 C   0  0  0  0  0  3  0  0  0  0  0  0
   38.2970   24.4480   38.2020 C   0  0  0  0  0  2  0  0  0  0  0  0
   37.4410   24.0970   37.1260 C   0  0  0  0  0  2  0  0  0  0  0  0
   35.3650   25.6520   31.0740 C   0  0  0  0  0  0  0  0  0  0  0  0
   35.3290   24.2620   30.7940 C   0  0  0  0  0  0  0  0  0  0  0  0
   36.1810   23.4160   31.5270 C   0  0  0  0  0  0  0  0  0  0  0  0
   36.9970   23.9730   32.4650 N   0  0  0  0  0  0  0  0  0  0  0  0
   37.0110   25.2830   32.7080 C   0  0  0  0  0  0  0  0  0  0  0  0
   36.1900   26.1250   32.0070 N   0  0  0  0  0  0  0  0  0  0  0  0
   34.7060   26.2650   30.5000 H   0  0  0  0  0  0  0  0  0  0  0  0
   34.6960   23.8120   30.0620 H   0  0  0  0  0  0  0  0  0  0  0  0
   36.2260   22.3500   31.3860 H   0  0  0  0  0  0  0  0  0  0  0  0
  1  6  2  0  0  0  0
  1  2  1  0  0  0  0
  2  3  2  0  0  0  0
  3  4  1  0  0  0  0
  3  8  1  0  0  0  0
  5 10  1  0  0  0  0
  5  4  2  0  0  0  0
  6  5  1  0  0  0  0
  7  2  1  0  0  0  0
  9 14  1  0  0  0  0
  9 19  1  0  0  0  0
 10  9  2  0  0  0  0
 11 12  2  0  0  0  0
 11 10  1  0  0  0  0
 12 13  1  0  0  0  0
 13 17  1  0  0  0  0
 13 14  2  0  0  0  0
 14 18  1  0  0  0  0
 15 11  1  0  0  0  0
 16 12  1  0  0  0  0
 19 20  2  0  0  0  0
 19 22  1  0  0  0  0
 21 19  2  0  0  0  0
 22 23  1  0  0  0  0
 24 22  1  0  0  0  0
 24 23  1  0  0  0  0
 25 30  1  0  0  0  0
 26 25  2  0  0  0  0
 26 27  1  0  0  0  0
 27 28  2  0  0  0  0
 28 29  1  0  0  0  0
 29  1  1  0  0  0  0
 30 29  2  0  0  0  0
 31 25  1  0  0  0  0
 32 26  1  0  0  0  0
 33 27  1  0  0  0  0
M  END
>  <minimizedAffinity>
-5.55237961

$$$$

 OpenBabel03272504253D

 33 36  0  0  0  0  0  0  0  0999 V2000
   35.5300   29.1780   31.8970 C   0  0  0  0  0  0  0  0  0  0  0  0
   36.3470   29.3630   30.8330 C   0  0  0  0  0  0  0  0  0  0  0  0
   37.5580   28.7930   30.7620 C   0  0  0  0  0  0  0  0  0  0  0  0
   37.9540   28.0180   31.7910 N   0  0  0  0  0  0  0  0  0  0  0  0
   37.1630   27.8250   32.8360 C   0  0  0  0  0  0  0  0  0  0  0  0
   35.9530   28.3980   32.9040 N   0  0  0  0  0  0  0  0  0  0  0  0
   35.9600   29.9930   30.0510 H   0  0  0  0  0  0  0  0  0  0  0  0
   38.0870   29.0340   29.8490 H   0  0  0  0  0  0  0  0  0  0  0  0
   37.9450   25.6180   33.5170 C   0  0  0  0  0  0  0  0  0  0  0  0
   37.6500   26.9390   33.8720 C   0  0  0  0  0  0  0  0  0  0  0  0
   37.7940   27.4510   35.1510 C   0  0  0  0  0  0  0  0  0  0  0  0
   38.2590   26.6340   36.1680 C   0  0  0  0  0  0  0  0  0  0  0  0
   38.5790   25.3230   35.9140 C   0  0  0  0  0  0  0  0  0  0  0  0
   38.4010   24.9180   34.6250 C   0  0  0  0  0  0  0  0  0  0  0  0
   37.5320   28.5060   35.3240 H   0  0  0  0  0  0  0  0  0  0  0  0
   38.3300   27.1200   37.1120 H   0  0  0  0  0  0  0  0  0  0  0  0
   38.9370   24.6980   36.6930 H   0  0  0  0  0  0  0  0  0  0  0  0
   38.6640   23.8600   34.4400 H   0  0  0  0  0  0  0  0  0  0  0  0
   37.8080   24.9440   32.0070 S   0  0  0  0  0  0  0  0  0  0  0  0
   37.7100   23.4870   32.4410 O   0  0  0  0  0  0  0  0  0  0  0  0
   39.0980   25.0800   31.2100 O   0  0  0  0  0  0  0  0  0  0  0  0
   36.6260   24.4710   30.9160 C   0  0  0  0  0  3  0  0  0  0  0  0
   35.2230   24.1050   31.4690 C   0  0  0  0  0  2  0  0  0  0  0  0
   35.3540   25.4330   30.9860 C   0  0  0  0  0  2  0  0  0  0  0  0
   32.0710   29.8100   32.9600 C   0  0  0  0  0  0  0  0  0  0  0  0
   31.7530   30.9860   32.2310 C   0  0  0  0  0  0  0  0  0  0  0  0
   32.7420   31.5320   31.3920 C   0  0  0  0  0  0  0  0  0  0  0  0
   33.9510   30.9080   31.3230 N   0  0  0  0  0  0  0  0  0  0  0  0
   34.2230   29.8050   32.0190 C   0  0  0  0  0  0  0  0  0  0  0  0
   33.2760   29.2550   32.8410 N   0  0  0  0  0  0  0  0  0  0  0  0
   31.2990   29.4220   33.5860 H   0  0  0  0  0  0  0  0  0  0  0  0
   30.8120   31.4840   32.2760 H   0  0  0  0  0  0  0  0  0  0  0  0
   32.5950   32.4200   30.8010 H   0  0  0  0  0  0  0  0  0  0  0  0
  1 29  1  0  0  0  0
  1  6  1  0  0  0  0
  2  1  2  0  0  0  0
  3  2  1  0  0  0  0
  3  4  2  0  0  0  0
  4  5  1  0  0  0  0
  5  6  2  0  0  0  0
  5 10  1  0  0  0  0
  7  2  1  0  0  0  0
  8  3  1  0  0  0  0
  9 10  2  0  0  0  0
  9 14  1  0  0  0  0
 10 11  1  0  0  0  0
 11 15  1  0  0  0  0
 11 12  2  0  0  0  0
 12 16  1  0  0  0  0
 13 12  1  0  0  0  0
 13 17  1  0  0  0  0
 14 13  2  0  0  0  0
 18 14  1  0  0  0  0
 19 20  2  0  0  0  0
 19  9  1  0  0  0  0
 21 19  2  0  0  0  0
 22 24  1  0  0  0  0
 22 23  1  0  0  0  0
 22 19  1  0  0  0  0
 24 23  1  0  0  0  0
 25 31  1  0  0  0  0
 26 32  1  0  0  0  0
 26 25  2  0  0  0  0
 27 26  1  0  0  0  0
 28 27  2  0  0  0  0
 28 29  1  0  0  0  0
 29 30  2  0  0  0  0
 30 25  1  0  0  0  0
 33 27  1  0  0  0  0
M  END
>  <minimizedAffinity>
-5.3933754

$$$$

 OpenBabel03272504253D

 33 36  0  0  0  0  0  0  0  0999 V2000
   37.3090   23.9330   31.2070 C   0  0  0  0  0  0  0  0  0  0  0  0
   38.3410   24.2560   30.3930 C   0  0  0  0  0  0  0  0  0  0  0  0
   38.8050   25.5100   30.3010 C   0  0  0  0  0  0  0  0  0  0  0  0
   38.2120   26.4620   31.0480 N   0  0  0  0  0  0  0  0  0  0  0  0
   37.2040   26.1590   31.8520 C   0  0  0  0  0  0  0  0  0  0  0  0
   36.7420   24.9030   31.9410 N   0  0  0  0  0  0  0  0  0  0  0  0
   38.7640   23.4430   29.8290 H   0  0  0  0  0  0  0  0  0  0  0  0
   39.6340   25.6060   29.6100 H   0  0  0  0  0  0  0  0  0  0  0  0
   37.2850   27.5220   33.8730 C   0  0  0  0  0  0  0  0  0  0  0  0
   36.6600   27.2330   32.6550 C   0  0  0  0  0  0  0  0  0  0  0  0
   35.5530   27.9120   32.1690 C   0  0  0  0  0  0  0  0  0  0  0  0
   35.0060   28.9470   32.9070 C   0  0  0  0  0  0  0  0  0  0  0  0
   35.5540   29.3050   34.1140 C   0  0  0  0  0  0  0  0  0  0  0  0
   36.6380   28.5760   34.5020 C   0  0  0  0  0  0  0  0  0  0  0  0
   35.1380   27.6050   31.1980 H   0  0  0  0  0  0  0  0  0  0  0  0
   34.1590   29.4000   32.4510 H   0  0  0  0  0  0  0  0  0  0  0  0
   35.1350   30.1000   34.6790 H   0  0  0  0  0  0  0  0  0  0  0  0
   37.0660   28.8790   35.4760 H   0  0  0  0  0  0  0  0  0  0  0  0
   38.6160   26.7600   34.5080 S   0  0  0  0  0  0  0  0  0  0  0  0
   38.6400   27.4770   35.8520 O   0  0  0  0  0  0  0  0  0  0  0  0
   39.8920   27.1540   33.7760 O   0  0  0  0  0  0  0  0  0  0  0  0
   39.0030   25.4320   35.4540 C   0  0  0  0  0  3  0  0  0  0  0  0
   37.8570   24.7160   36.2170 C   0  0  0  0  0  2  0  0  0  0  0  0
   38.2170   24.1290   34.9760 C   0  0  0  0  0  2  0  0  0  0  0  0
   36.9370   20.3010   30.8100 C   0  0  0  0  0  0  0  0  0  0  0  0
   35.7190   20.0570   31.4960 C   0  0  0  0  0  0  0  0  0  0  0  0
   35.0570   21.1520   32.0820 C   0  0  0  0  0  0  0  0  0  0  0  0
   35.6180   22.3880   31.9610 N   0  0  0  0  0  0  0  0  0  0  0  0
   36.7630   22.5890   31.3100 C   0  0  0  0  0  0  0  0  0  0  0  0
   37.4240   21.5370   30.7330 N   0  0  0  0  0  0  0  0  0  0  0  0
   37.4120   19.4490   30.3790 H   0  0  0  0  0  0  0  0  0  0  0  0
   35.2690   19.0950   31.5990 H   0  0  0  0  0  0  0  0  0  0  0  0
   34.1310   21.0670   32.6220 H   0  0  0  0  0  0  0  0  0  0  0  0
  1 29  1  0  0  0  0
  1  6  1  0  0  0  0
  2  1  2  0  0  0  0
  3  2  1  0  0  0  0
  3  4  2  0  0  0  0
  4  5  1  0  0  0  0
  5  6  2  0  0  0  0
  5 10  1  0  0  0  0
  7  2  1  0  0  0  0
  8  3  1  0  0  0  0
  9 14  1  0  0  0  0
  9 19  1  0  0  0  0
 10  9  2  0  0  0  0
 11 10  1  0  0  0  0
 11 12  2  0  0  0  0
 12 13  1  0  0  0  0
 13 14  2  0  0  0  0
 13 17  1  0  0  0  0
 14 18  1  0  0  0  0
 15 11  1  0  0  0  0
 16 12  1  0  0  0  0
 19 22  1  0  0  0  0
 19 20  2  0  0  0  0
 21 19  2  0  0  0  0
 22 23  1  0  0  0  0
 24 22  1  0  0  0  0
 24 23  1  0  0  0  0
 25 26  1  0  0  0  0
 26 32  1  0  0  0  0
 26 27  2  0  0  0  0
 27 33  1  0  0  0  0
 28 27  1  0  0  0  0
 29 28  2  0  0  0  0
 30 25  2  0  0  0  0
 30 29  1  0  0  0  0
 31 25  1  0  0  0  0
M  END
>  <minimizedAffinity>
-5.3388238

$$$$

 OpenBabel03272504253D

 33 36  0  0  0  0  0  0  0  0999 V2000
   37.8850   22.3110   32.3630 C   0  0  0  0  0  0  0  0  0  0  0  0
   38.9220   22.3930   31.4970 C   0  0  0  0  0  0  0  0  0  0  0  0
   39.6910   23.4880   31.4140 C   0  0  0  0  0  0  0  0  0  0  0  0
   39.4050   24.5260   32.2250 N   0  0  0  0  0  0  0  0  0  0  0  0
   38.3960   24.4570   33.0800 C   0  0  0  0  0  0  0  0  0  0  0  0
   37.6290   23.3600   33.1600 N   0  0  0  0  0  0  0  0  0  0  0  0
   39.0890   21.5250   30.8830 H   0  0  0  0  0  0  0  0  0  0  0  0
   40.4790   23.3980   30.6770 H   0  0  0  0  0  0  0  0  0  0  0  0
   37.3230   26.6040   33.5110 C   0  0  0  0  0  0  0  0  0  0  0  0
   38.1930   25.5980   33.9470 C   0  0  0  0  0  0  0  0  0  0  0  0
   38.8700   25.6250   35.1560 C   0  0  0  0  0  0  0  0  0  0  0  0
   38.6980   26.6990   36.0130 C   0  0  0  0  0  0  0  0  0  0  0  0
   37.8620   27.7330   35.6720 C   0  0  0  0  0  0  0  0  0  0  0  0
   37.2440   27.6100   34.4630 C   0  0  0  0  0  0  0  0  0  0  0  0
   39.5310   24.7820   35.4030 H   0  0  0  0  0  0  0  0  0  0  0  0
   39.2640   26.6280   36.9110 H   0  0  0  0  0  0  0  0  0  0  0  0
   37.7290   28.5550   36.3310 H   0  0  0  0  0  0  0  0  0  0  0  0
   36.5740   28.4520   34.2070 H   0  0  0  0  0  0  0  0  0  0  0  0
   36.4730   26.6290   32.0870 S   0  0  0  0  0  0  0  0  0  0  0  0
   37.6350   26.9700   31.1610 O   0  0  0  0  0  0  0  0  0  0  0  0
   35.5050   27.8030   32.0290 O   0  0  0  0  0  0  0  0  0  0  0  0
   36.0540   25.6070   30.8260 C   0  0  0  0  0  3  0  0  0  0  0  0
   35.2500   24.3230   31.1590 C   0  0  0  0  0  2  0  0  0  0  0  0
   34.4710   25.4270   30.7260 C   0  0  0  0  0  2  0  0  0  0  0  0
   36.1900   19.1660   31.5080 C   0  0  0  0  0  0  0  0  0  0  0  0
   35.3570   18.9680   32.6400 C   0  0  0  0  0  0  0  0  0  0  0  0
   35.4030   19.9240   33.6720 C   0  0  0  0  0  0  0  0  0  0  0  0
   36.2420   20.9880   33.5330 N   0  0  0  0  0  0  0  0  0  0  0  0
   37.0140   21.1500   32.4580 C   0  0  0  0  0  0  0  0  0  0  0  0
   36.9860   20.2320   31.4430 N   0  0  0  0  0  0  0  0  0  0  0  0
   36.1310   18.4230   30.7450 H   0  0  0  0  0  0  0  0  0  0  0  0
   34.6960   18.1410   32.7620 H   0  0  0  0  0  0  0  0  0  0  0  0
   34.8100   19.8600   34.5680 H   0  0  0  0  0  0  0  0  0  0  0  0
  1 29  1  0  0  0  0
  1  6  1  0  0  0  0
  2  1  2  0  0  0  0
  3  2  1  0  0  0  0
  3  4  2  0  0  0  0
  4  5  1  0  0  0  0
  5  6  2  0  0  0  0
  5 10  1  0  0  0  0
  7  2  1  0  0  0  0
  8  3  1  0  0  0  0
  9 10  2  0  0  0  0
  9 14  1  0  0  0  0
 10 11  1  0  0  0  0
 11 15  1  0  0  0  0
 11 12  2  0  0  0  0
 12 16  1  0  0  0  0
 13 12  1  0  0  0  0
 13 17  1  0  0  0  0
 14 13  2  0  0  0  0
 18 14  1  0  0  0  0
 19  9  1  0  0  0  0
 20 19  2  0  0  0  0
 21 19  2  0  0  0  0
 22 23  1  0  0  0  0
 22 19  1  0  0  0  0
 24 22  1  0  0  0  0
 24 23  1  0  0  0  0
 25 26  1  0  0  0  0
 26 32  1  0  0  0  0
 26 27  2  0  0  0  0
 27 33  1  0  0  0  0
 28 27  1  0  0  0  0
 29 28  2  0  0  0  0
 30 25  2  0  0  0  0
 30 29  1  0  0  0  0
 31 25  1  0  0  0  0
M  END
>  <minimizedAffinity>
-5.30256128

$$$$

 OpenBabel03272504253D

 33 36  0  0  0  0  0  0  0  0999 V2000
   35.9820   23.4860   31.6180 C   0  0  0  0  0  0  0  0  0  0  0  0
   35.2220   24.3210   30.8700 C   0  0  0  0  0  0  0  0  0  0  0  0
   35.2990   25.6530   30.9960 C   0  0  0  0  0  0  0  0  0  0  0  0
   36.1630   26.1550   31.9000 N   0  0  0  0  0  0  0  0  0  0  0  0
   36.9160   25.3500   32.6350 C   0  0  0  0  0  0  0  0  0  0  0  0
   36.8350   24.0180   32.5070 N   0  0  0  0  0  0  0  0  0  0  0  0
   34.5570   23.8470   30.1700 H   0  0  0  0  0  0  0  0  0  0  0  0
   34.6310   26.1810   30.3280 H   0  0  0  0  0  0  0  0  0  0  0  0
   39.0820   26.3980   33.0300 C   0  0  0  0  0  0  0  0  0  0  0  0
   37.8510   25.9760   33.5450 C   0  0  0  0  0  0  0  0  0  0  0  0
   37.4730   26.1210   34.8700 C   0  0  0  0  0  0  0  0  0  0  0  0
   38.3400   26.7170   35.7690 C   0  0  0  0  0  0  0  0  0  0  0  0
   39.5690   27.1670   35.3550 C   0  0  0  0  0  0  0  0  0  0  0  0
   39.8450   26.9770   34.0340 C   0  0  0  0  0  0  0  0  0  0  0  0
   36.4810   25.7530   35.1720 H   0  0  0  0  0  0  0  0  0  0  0  0
   37.9580   26.7770   36.7610 H   0  0  0  0  0  0  0  0  0  0  0  0
   40.2330   27.6260   36.0450 H   0  0  0  0  0  0  0  0  0  0  0  0
   40.8390   27.3460   33.7190 H   0  0  0  0  0  0  0  0  0  0  0  0
   39.5940   26.2680   31.4570 S   0  0  0  0  0  0  0  0  0  0  0  0
   41.0780   26.5140   31.7030 O   0  0  0  0  0  0  0  0  0  0  0  0
   39.0910   27.4250   30.6030 O   0  0  0  0  0  0  0  0  0  0  0  0
   40.1850   25.1170   30.3920 C   0  0  0  0  0  3  0  0  0  0  0  0
   39.8530   23.6250   30.6660 C   0  0  0  0  0  2  0  0  0  0  0  0
   39.0020   24.2730   29.7330 C   0  0  0  0  0  2  0  0  0  0  0  0
   34.8150   20.0380   32.1070 C   0  0  0  0  0  0  0  0  0  0  0  0
   35.7690   19.2990   31.3590 C   0  0  0  0  0  0  0  0  0  0  0  0
   36.7900   20.0110   30.7030 C   0  0  0  0  0  0  0  0  0  0  0  0
   36.8120   21.3680   30.8170 N   0  0  0  0  0  0  0  0  0  0  0  0
   35.9030   22.0370   31.5270 C   0  0  0  0  0  0  0  0  0  0  0  0
   34.9000   21.3650   32.1730 N   0  0  0  0  0  0  0  0  0  0  0  0
   34.0540   19.4680   32.5910 H   0  0  0  0  0  0  0  0  0  0  0  0
   35.7640   18.2380   31.2610 H   0  0  0  0  0  0  0  0  0  0  0  0
   37.5570   19.5400   30.1130 H   0  0  0  0  0  0  0  0  0  0  0  0
  1  6  1  0  0  0  0
  2  3  1  0  0  0  0
  2  1  2  0  0  0  0
  3  4  2  0  0  0  0
  4  5  1  0  0  0  0
  5 10  1  0  0  0  0
  6  5  2  0  0  0  0
  7  2  1  0  0  0  0
  8  3  1  0  0  0  0
  9 10  2  0  0  0  0
  9 14  1  0  0  0  0
 10 11  1  0  0  0  0
 11 15  1  0  0  0  0
 11 12  2  0  0  0  0
 12 16  1  0  0  0  0
 13 12  1  0  0  0  0
 13 17  1  0  0  0  0
 14 13  2  0  0  0  0
 18 14  1  0  0  0  0
 19 20  2  0  0  0  0
 19  9  1  0  0  0  0
 21 19  2  0  0  0  0
 22 23  1  0  0  0  0
 22 19  1  0  0  0  0
 24 22  1  0  0  0  0
 24 23  1  0  0  0  0
 25 30  1  0  0  0  0
 25 31  1  0  0  0  0
 26 25  2  0  0  0  0
 27 28  2  0  0  0  0
 27 26  1  0  0  0  0
 28 29  1  0  0  0  0
 29  1  1  0  0  0  0
 29 30  2  0  0  0  0
 32 26  1  0  0  0  0
 33 27  1  0  0  0  0
M  END
>  <minimizedAffinity>
-5.29665375

$$$$

 OpenBabel03272504253D

 33 36  0  0  0  0  0  0  0  0999 V2000
   36.1110   28.5690   32.2270 C   0  0  0  0  0  0  0  0  0  0  0  0
   36.5440   29.4420   31.2870 C   0  0  0  0  0  0  0  0  0  0  0  0
   36.4040   30.7670   31.4320 C   0  0  0  0  0  0  0  0  0  0  0  0
   35.8110   31.2210   32.5540 N   0  0  0  0  0  0  0  0  0  0  0  0
   35.3860   30.3790   33.4830 C   0  0  0  0  0  0  0  0  0  0  0  0
   35.5280   29.0540   33.3330 N   0  0  0  0  0  0  0  0  0  0  0  0
   37.0080   29.0040   30.4200 H   0  0  0  0  0  0  0  0  0  0  0  0
   36.8020   31.3290   30.5980 H   0  0  0  0  0  0  0  0  0  0  0  0
   33.4120   31.0300   34.7580 C   0  0  0  0  0  0  0  0  0  0  0  0
   34.8070   30.9560   34.6770 C   0  0  0  0  0  0  0  0  0  0  0  0
   35.6670   31.4020   35.6680 C   0  0  0  0  0  0  0  0  0  0  0  0
   35.1500   31.9580   36.8250 C   0  0  0  0  0  0  0  0  0  0  0  0
   33.7920   32.0690   36.9960 C   0  0  0  0  0  0  0  0  0  0  0  0
   33.0340   31.6020   35.9640 C   0  0  0  0  0  0  0  0  0  0  0  0
   36.7500   31.2980   35.5040 H   0  0  0  0  0  0  0  0  0  0  0  0
   35.8910   32.2720   37.5210 H   0  0  0  0  0  0  0  0  0  0  0  0
   33.3960   32.4930   37.8840 H   0  0  0  0  0  0  0  0  0  0  0  0
   31.9430   31.6990   36.1200 H   0  0  0  0  0  0  0  0  0  0  0  0
   32.3250   30.5060   33.6180 S   0  0  0  0  0  0  0  0  0  0  0  0
   31.0680   31.0920   34.2490 O   0  0  0  0  0  0  0  0  0  0  0  0
   32.1670   28.9920   33.6450 O   0  0  0  0  0  0  0  0  0  0  0  0
   31.5970   31.0330   32.2030 C   0  0  0  0  0  3  0  0  0  0  0  0
   31.9490   32.4520   31.6820 C   0  0  0  0  0  2  0  0  0  0  0  0
   32.6830   31.3910   31.0900 C   0  0  0  0  0  2  0  0  0  0  0  0
   35.5380   25.1450   31.0240 C   0  0  0  0  0  0  0  0  0  0  0  0
   36.4280   24.3980   31.8400 C   0  0  0  0  0  0  0  0  0  0  0  0
   37.2050   25.0950   32.7830 C   0  0  0  0  0  0  0  0  0  0  0  0
   37.0660   26.4480   32.8650 N   0  0  0  0  0  0  0  0  0  0  0  0
   36.2220   27.1250   32.0870 C   0  0  0  0  0  0  0  0  0  0  0  0
   35.4560   26.4670   31.1620 N   0  0  0  0  0  0  0  0  0  0  0  0
   34.9640   24.5860   30.3200 H   0  0  0  0  0  0  0  0  0  0  0  0
   36.5470   23.3400   31.7860 H   0  0  0  0  0  0  0  0  0  0  0  0
   37.9070   24.6180   33.4440 H   0  0  0  0  0  0  0  0  0  0  0  0
  1  6  1  0  0  0  0
  2  3  1  0  0  0  0
  2  1  2  0  0  0  0
  3  4  2  0  0  0  0
  4  5  1  0  0  0  0
  5 10  1  0  0  0  0
  6  5  2  0  0  0  0
  7  2  1  0  0  0  0
  8  3  1  0  0  0  0
  9 14  1  0  0  0  0
 10  9  2  0  0  0  0
 10 11  1  0  0  0  0
 11 12  2  0  0  0  0
 12 13  1  0  0  0  0
 12 16  1  0  0  0  0
 13 17  1  0  0  0  0
 14 18  1  0  0  0  0
 14 13  2  0  0  0  0
 15 11  1  0  0  0  0
 19 21  2  0  0  0  0
 19 20  2  0  0  0  0
 19  9  1  0  0  0  0
 22 19  1  0  0  0  0
 23 22  1  0  0  0  0
 24 23  1  0  0  0  0
 24 22  1  0  0  0  0
 25 30  2  0  0  0  0
 25 26  1  0  0  0  0
 26 27  2  0  0  0  0
 27 28  1  0  0  0  0
 27 33  1  0  0  0  0
 29  1  1  0  0  0  0
 29 28  2  0  0  0  0
 30 29  1  0  0  0  0
 31 25  1  0  0  0  0
 32 26  1  0  0  0  0
M  END
>  <minimizedAffinity>
-5.25567484

$$$$

 OpenBabel03272504253D

 33 36  0  0  0  0  0  0  0  0999 V2000
   38.3500   24.3120   34.7190 C   0  0  0  0  0  0  0  0  0  0  0  0
   37.8450   25.4940   34.2940 C   0  0  0  0  0  0  0  0  0  0  0  0
   37.6900   25.7710   32.9920 C   0  0  0  0  0  0  0  0  0  0  0  0
   38.0550   24.8320   32.0970 N   0  0  0  0  0  0  0  0  0  0  0  0
   38.5460   23.6690   32.4990 C   0  0  0  0  0  0  0  0  0  0  0  0
   38.7000   23.3960   33.8030 N   0  0  0  0  0  0  0  0  0  0  0  0
   37.5760   26.1920   35.0670 H   0  0  0  0  0  0  0  0  0  0  0  0
   37.2730   26.7540   32.8140 H   0  0  0  0  0  0  0  0  0  0  0  0
   37.8310   21.8850   30.9980 C   0  0  0  0  0  0  0  0  0  0  0  0
   38.8640   22.7020   31.4710 C   0  0  0  0  0  0  0  0  0  0  0  0
   40.1720   22.6410   31.0170 C   0  0  0  0  0  0  0  0  0  0  0  0
   40.5140   21.7300   30.0330 C   0  0  0  0  0  0  0  0  0  0  0  0
   39.5660   20.8890   29.5050 C   0  0  0  0  0  0  0  0  0  0  0  0
   38.3120   21.0270   30.0200 C   0  0  0  0  0  0  0  0  0  0  0  0
   40.9090   23.3290   31.4570 H   0  0  0  0  0  0  0  0  0  0  0  0
   41.5410   21.7600   29.7570 H   0  0  0  0  0  0  0  0  0  0  0  0
   39.8290   20.1920   28.7490 H   0  0  0  0  0  0  0  0  0  0  0  0
   37.5620   20.3420   29.5820 H   0  0  0  0  0  0  0  0  0  0  0  0
   36.2450   21.9120   31.4870 S   0  0  0  0  0  0  0  0  0  0  0  0
   35.7620   20.7120   30.6820 O   0  0  0  0  0  0  0  0  0  0  0  0
   35.5100   23.1300   30.9450 O   0  0  0  0  0  0  0  0  0  0  0  0
   35.2550   21.2460   32.6640 C   0  0  0  0  0  3  0  0  0  0  0  0
   35.6190   19.8450   33.2220 C   0  0  0  0  0  2  0  0  0  0  0  0
   36.0670   20.9420   34.0030 C   0  0  0  0  0  2  0  0  0  0  0  0
   39.7890   22.8550   37.7690 C   0  0  0  0  0  0  0  0  0  0  0  0
   38.9330   23.3780   38.7730 C   0  0  0  0  0  0  0  0  0  0  0  0
   37.8810   24.2220   38.3720 C   0  0  0  0  0  0  0  0  0  0  0  0
   37.7380   24.4950   37.0450 N   0  0  0  0  0  0  0  0  0  0  0  0
   38.5570   23.9900   36.1230 C   0  0  0  0  0  0  0  0  0  0  0  0
   39.5880   23.1670   36.4900 N   0  0  0  0  0  0  0  0  0  0  0  0
   40.5760   22.2190   38.1070 H   0  0  0  0  0  0  0  0  0  0  0  0
   39.0330   23.1730   39.8140 H   0  0  0  0  0  0  0  0  0  0  0  0
   37.1810   24.6670   39.0580 H   0  0  0  0  0  0  0  0  0  0  0  0
  1 29  1  0  0  0  0
  2  1  1  0  0  0  0
  2  7  1  0  0  0  0
  3  2  2  0  0  0  0
  4  5  2  0  0  0  0
  4  3  1  0  0  0  0
  5  6  1  0  0  0  0
  6  1  2  0  0  0  0
  8  3  1  0  0  0  0
  9 10  1  0  0  0  0
  9 19  1  0  0  0  0
 10  5  1  0  0  0  0
 11 15  1  0  0  0  0
 11 10  2  0  0  0  0
 12 11  1  0  0  0  0
 13 14  1  0  0  0  0
 13 12  2  0  0  0  0
 14  9  2  0  0  0  0
 16 12  1  0  0  0  0
 17 13  1  0  0  0  0
 18 14  1  0  0  0  0
 19 22  1  0  0  0  0
 20 19  2  0  0  0  0
 21 19  2  0  0  0  0
 22 23  1  0  0  0  0
 22 24  1  0  0  0  0
 23 24  1  0  0  0  0
 25 31  1  0  0  0  0
 25 26  1  0  0  0  0
 26 32  1  0  0  0  0
 27 26  2  0  0  0  0
 27 33  1  0  0  0  0
 28 27  1  0  0  0  0
 29 30  1  0  0  0  0
 29 28  2  0  0  0  0
 30 25  2  0  0  0  0
M  END
>  <minimizedAffinity>
-5.20345211

$$$$

 OpenBabel03272504253D

 33 36  0  0  0  0  0  0  0  0999 V2000
   36.0700   28.5090   33.5230 C   0  0  0  0  0  0  0  0  0  0  0  0
   35.8560   28.9800   32.2710 C   0  0  0  0  0  0  0  0  0  0  0  0
   35.2060   30.1310   32.0490 C   0  0  0  0  0  0  0  0  0  0  0  0
   34.7610   30.8230   33.1160 N   0  0  0  0  0  0  0  0  0  0  0  0
   34.9670   30.3760   34.3460 C   0  0  0  0  0  0  0  0  0  0  0  0
   35.6170   29.2230   34.5640 N   0  0  0  0  0  0  0  0  0  0  0  0
   36.2420   28.3730   31.4710 H   0  0  0  0  0  0  0  0  0  0  0  0
   35.1180   30.3720   30.9970 H   0  0  0  0  0  0  0  0  0  0  0  0
   33.2330   30.9370   35.9660 C   0  0  0  0  0  0  0  0  0  0  0  0
   34.4980   31.2080   35.4330 C   0  0  0  0  0  0  0  0  0  0  0  0
   35.3300   32.2210   35.8820 C   0  0  0  0  0  0  0  0  0  0  0  0
   34.9170   33.0360   36.9220 C   0  0  0  0  0  0  0  0  0  0  0  0
   33.6910   32.8440   37.5100 C   0  0  0  0  0  0  0  0  0  0  0  0
   32.9500   31.8220   36.9960 C   0  0  0  0  0  0  0  0  0  0  0  0
   36.3070   32.3500   35.3930 H   0  0  0  0  0  0  0  0  0  0  0  0
   35.6230   33.7860   37.1890 H   0  0  0  0  0  0  0  0  0  0  0  0
   33.3760   33.4680   38.3090 H   0  0  0  0  0  0  0  0  0  0  0  0
   31.9680   31.6820   37.4830 H   0  0  0  0  0  0  0  0  0  0  0  0
   32.1940   29.7350   35.4870 S   0  0  0  0  0  0  0  0  0  0  0  0
   30.9360   30.2730   36.1580 O   0  0  0  0  0  0  0  0  0  0  0  0
   32.5190   28.4080   36.1590 O   0  0  0  0  0  0  0  0  0  0  0  0
   31.1200   29.3870   34.2470 C   0  0  0  0  0  3  0  0  0  0  0  0
   31.3000   30.1240   32.8930 C   0  0  0  0  0  2  0  0  0  0  0  0
   31.8810   28.8310   32.9590 C   0  0  0  0  0  2  0  0  0  0  0  0
   37.5990   25.2080   33.0110 C   0  0  0  0  0  0  0  0  0  0  0  0
   38.0100   24.8710   34.3270 C   0  0  0  0  0  0  0  0  0  0  0  0
   37.7520   25.7930   35.3580 C   0  0  0  0  0  0  0  0  0  0  0  0
   37.1220   26.9600   35.0420 N   0  0  0  0  0  0  0  0  0  0  0  0
   36.7460   27.2500   33.7970 C   0  0  0  0  0  0  0  0  0  0  0  0
   36.9880   26.3680   32.7780 N   0  0  0  0  0  0  0  0  0  0  0  0
   37.8100   24.4870   32.2540 H   0  0  0  0  0  0  0  0  0  0  0  0
   38.5030   23.9630   34.5890 H   0  0  0  0  0  0  0  0  0  0  0  0
   38.0260   25.6280   36.3860 H   0  0  0  0  0  0  0  0  0  0  0  0
  1 29  1  0  0  0  0
  1  6  1  0  0  0  0
  2  1  2  0  0  0  0
  3  2  1  0  0  0  0
  3  4  2  0  0  0  0
  4  5  1  0  0  0  0
  5  6  2  0  0  0  0
  5 10  1  0  0  0  0
  7  2  1  0  0  0  0
  8  3  1  0  0  0  0
  9 14  1  0  0  0  0
 10 11  1  0  0  0  0
 10  9  2  0  0  0  0
 11 12  2  0  0  0  0
 12 16  1  0  0  0  0
 12 13  1  0  0  0  0
 13 17  1  0  0  0  0
 14 18  1  0  0  0  0
 14 13  2  0  0  0  0
 15 11  1  0  0  0  0
 19  9  1  0  0  0  0
 19 20  2  0  0  0  0
 19 21  2  0  0  0  0
 22 19  1  0  0  0  0
 23 24  1  0  0  0  0
 23 22  1  0  0  0  0
 24 22  1  0  0  0  0
 25 26  1  0  0  0  0
 26 32  1  0  0  0  0
 26 27  2  0  0  0  0
 27 33  1  0  0  0  0
 28 27  1  0  0  0  0
 29 28  2  0  0  0  0
 30 25  2  0  0  0  0
 30 29  1  0  0  0  0
 31 25  1  0  0  0  0
M  END
>  <minimizedAffinity>
-5.20168543

$$$$

 OpenBabel03272504253D

 33 36  0  0  0  0  0  0  0  0999 V2000
   37.6670   27.4980   32.4360 C   0  0  0  0  0  0  0  0  0  0  0  0
   38.8160   27.3770   31.7310 C   0  0  0  0  0  0  0  0  0  0  0  0
   39.7480   26.4670   32.0470 C   0  0  0  0  0  0  0  0  0  0  0  0
   39.5140   25.6600   33.1020 N   0  0  0  0  0  0  0  0  0  0  0  0
   38.3920   25.7660   33.7970 C   0  0  0  0  0  0  0  0  0  0  0  0
   37.4630   26.6780   33.4780 N   0  0  0  0  0  0  0  0  0  0  0  0
   38.9310   28.0540   30.9030 H   0  0  0  0  0  0  0  0  0  0  0  0
   40.6070   26.4930   31.3890 H   0  0  0  0  0  0  0  0  0  0  0  0
   37.9190   23.4960   34.5530 C   0  0  0  0  0  0  0  0  0  0  0  0
   38.2020   24.8270   34.8820 C   0  0  0  0  0  0  0  0  0  0  0  0
   38.3130   25.3000   36.1790 C   0  0  0  0  0  0  0  0  0  0  0  0
   38.1410   24.4310   37.2430 C   0  0  0  0  0  0  0  0  0  0  0  0
   37.8630   23.1050   37.0190 C   0  0  0  0  0  0  0  0  0  0  0  0
   37.7740   22.7410   35.7090 C   0  0  0  0  0  0  0  0  0  0  0  0
   38.5390   26.3660   36.3280 H   0  0  0  0  0  0  0  0  0  0  0  0
   38.2410   24.8920   38.1960 H   0  0  0  0  0  0  0  0  0  0  0  0
   37.7330   22.4390   37.8350 H   0  0  0  0  0  0  0  0  0  0  0  0
   37.5510   21.6700   35.5480 H   0  0  0  0  0  0  0  0  0  0  0  0
   37.7850   22.8600   33.0270 S   0  0  0  0  0  0  0  0  0  0  0  0
   36.9600   21.6300   33.3890 O   0  0  0  0  0  0  0  0  0  0  0  0
   39.1240   22.3550   32.5070 O   0  0  0  0  0  0  0  0  0  0  0  0
   36.7490   22.8970   31.7090 C   0  0  0  0  0  3  0  0  0  0  0  0
   35.8140   24.1240   31.5450 C   0  0  0  0  0  2  0  0  0  0  0  0
   37.0180   24.1770   30.7950 C   0  0  0  0  0  2  0  0  0  0  0  0
   35.8990   30.2690   30.7950 C   0  0  0  0  0  0  0  0  0  0  0  0
   34.7280   30.3770   31.5890 C   0  0  0  0  0  0  0  0  0  0  0  0
   34.5760   29.4890   32.6700 C   0  0  0  0  0  0  0  0  0  0  0  0
   35.5580   28.5730   32.8990 N   0  0  0  0  0  0  0  0  0  0  0  0
   36.6490   28.4930   32.1370 C   0  0  0  0  0  0  0  0  0  0  0  0
   36.8170   29.3470   31.0800 N   0  0  0  0  0  0  0  0  0  0  0  0
   35.9830   30.9570   29.9840 H   0  0  0  0  0  0  0  0  0  0  0  0
   33.9520   31.0890   31.4210 H   0  0  0  0  0  0  0  0  0  0  0  0
   33.7240   29.4930   33.3270 H   0  0  0  0  0  0  0  0  0  0  0  0
  1  6  1  0  0  0  0
  2  3  1  0  0  0  0
  2  1  2  0  0  0  0
  3  4  2  0  0  0  0
  4  5  1  0  0  0  0
  5 10  1  0  0  0  0
  6  5  2  0  0  0  0
  7  2  1  0  0  0  0
  8  3  1  0  0  0  0
  9 10  2  0  0  0  0
  9 14  1  0  0  0  0
 10 11  1  0  0  0  0
 11 15  1  0  0  0  0
 11 12  2  0  0  0  0
 12 16  1  0  0  0  0
 13 12  1  0  0  0  0
 13 17  1  0  0  0  0
 14 13  2  0  0  0  0
 18 14  1  0  0  0  0
 19 20  2  0  0  0  0
 19  9  1  0  0  0  0
 21 19  2  0  0  0  0
 22 19  1  0  0  0  0
 23 22  1  0  0  0  0
 24 23  1  0  0  0  0
 24 22  1  0  0  0  0
 25 30  2  0  0  0  0
 25 26  1  0  0  0  0
 26 27  2  0  0  0  0
 27 28  1  0  0  0  0
 27 33  1  0  0  0  0
 29  1  1  0  0  0  0
 29 28  2  0  0  0  0
 30 29  1  0  0  0  0
 31 25  1  0  0  0  0
 32 26  1  0  0  0  0
M  END
>  <minimizedAffinity>
-5.0842905

$$$$
