
 OpenBabel03272509433D

 32 34  0  0  1  0  0  0  0  0999 V2000
   37.0530   30.9250   49.0650 C   0  0  0  0  0  0  0  0  0  0  0  0
   36.7720   31.8300   50.0900 C   0  0  0  0  0  0  0  0  0  0  0  0
   37.3600   33.0870   50.1390 C   0  0  0  0  0  0  0  0  0  0  0  0
   38.2590   33.4610   49.1360 C   0  0  0  0  0  0  0  0  0  0  0  0
   38.5240   32.5660   48.1410 C   0  0  0  0  0  0  0  0  0  0  0  0
   37.9180   31.3180   48.1250 C   0  0  0  0  0  0  0  0  0  0  0  0
   36.0660   31.5070   50.8590 H   0  0  0  0  0  0  0  0  0  0  0  0
   37.0590   33.6880   50.9810 H   0  0  0  0  0  0  0  0  0  0  0  0
   38.6630   34.4470   49.2550 H   0  0  0  0  0  0  0  0  0  0  0  0
   39.2390   32.9990   47.4410 H   0  0  0  0  0  0  0  0  0  0  0  0
   36.4640   29.6030   49.0370 C   0  0  2  0  0  0  0  0  0  0  0  0
   36.9620   29.0720   48.1380 H   0  0  0  0  0  0  0  0  0  0  0  0
   33.6020   29.9680   46.8290 C   0  0  0  0  0  0  0  0  0  0  0  0
   32.8580   28.8250   47.0530 C   0  0  0  0  0  0  0  0  0  0  0  0
   33.3010   27.9380   48.0160 C   0  0  0  0  0  0  0  0  0  0  0  0
   34.4570   28.2200   48.7130 N   0  0  0  0  0  0  0  0  0  0  0  0
   35.1220   29.3270   48.4510 C   0  0  0  0  0  0  0  0  0  0  0  0
   34.7030   30.2070   47.5140 N   0  0  0  0  0  0  0  0  0  0  0  0
   33.2810   30.6900   46.0760 H   0  0  0  0  0  0  0  0  0  0  0  0
   31.9710   28.6920   46.4570 H   0  0  0  0  0  0  0  0  0  0  0  0
   32.7230   27.0430   48.1970 H   0  0  0  0  0  0  0  0  0  0  0  0
   36.9400   28.8300   49.9480 O   0  0  0  0  0  0  0  0  0  0  0  0
   36.6380   28.8000   50.8720 H   0  0  0  0  0  0  0  0  0  0  0  0
   38.3130   30.4590   47.0320 C   0  0  0  0  0  0  0  0  0  0  0  0
   38.9180   30.8960   45.9230 C   0  0  0  0  0  0  0  0  0  0  0  0
   39.4010   30.1060   44.7670 C   0  0  0  0  0  0  0  0  0  0  0  0
   38.5640   29.6080   44.2160 H   0  0  0  0  0  0  0  0  0  0  0  0
   40.1110   29.3120   45.0660 H   0  0  0  0  0  0  0  0  0  0  0  0
   40.2450   31.1860   43.6060 S   0  0  0  0  0  0  0  0  0  0  0  0
   39.3000   32.7410   43.4130 C   0  0  0  0  0  0  0  0  0  0  0  0
   37.9310   32.5930   42.8680 C   0  0  0  0  0  0  0  0  0  0  0  0
   38.9960   33.2210   42.0420 C   0  0  0  0  0  0  0  0  0  0  0  0
  1  2  1  0  0  0  0
  2  3  2  0  0  0  0
  2  7  1  0  0  0  0
  3  8  1  0  0  0  0
  4  9  1  0  0  0  0
  4  3  1  0  0  0  0
  5  4  2  0  0  0  0
  6  5  1  0  0  0  0
  6  1  2  0  0  0  0
 10  5  1  0  0  0  0
 11 12  1  6  0  0  0
 11  1  1  0  0  0  0
 11 22  1  0  0  0  0
 13 14  2  0  0  0  0
 13 18  1  0  0  0  0
 14 15  1  0  0  0  0
 15 21  1  0  0  0  0
 15 16  2  0  0  0  0
 17 16  1  0  0  0  0
 17 11  1  0  0  0  0
 18 17  2  0  0  0  0
 19 13  1  0  0  0  0
 20 14  1  0  0  0  0
 22 23  1  0  0  0  0
 24  6  1  0  0  0  0
 25 24  2  0  0  0  0
 26 28  1  0  0  0  0
 26 25  1  0  0  0  0
 27 26  1  0  0  0  0
 29 26  1  0  0  0  0
 30 29  1  0  0  0  0
 31 30  1  0  0  0  0
 32 31  1  0  0  0  0
 32 30  1  0  0  0  0
M  END
>  <minimizedAffinity>
-5.5186367

>  <minimizedRMSD>
0.969102859

$$$$
