
 OpenBabel03272509583D

 40 43  0  0  0  0  0  0  0  0999 V2000
   34.5600   28.7110   49.6620 O   0  0  0  0  0  0  0  0  0  0  0  0
   37.2450   30.0070   51.7120 C   0  0  0  0  0  0  0  0  0  0  0  0
   38.0010   30.6770   50.7230 C   0  0  0  0  0  0  0  0  0  0  0  0
   37.5420   30.6430   49.4170 C   0  0  0  0  0  0  0  0  0  0  0  0
   36.3770   29.9480   49.2030 N   0  0  0  0  0  0  0  0  0  0  0  0
   35.6810   29.3230   50.1470 C   0  0  0  0  0  0  0  0  0  0  0  0
   36.1300   29.3590   51.4200 N   0  0  0  0  0  0  0  0  0  0  0  0
   37.6250   30.0500   52.7260 H   0  0  0  0  0  0  0  0  0  0  0  0
   38.9150   31.2190   50.9050 H   0  0  0  0  0  0  0  0  0  0  0  0
   38.9010   33.1980   49.3120 F   0  0  0  0  0  0  0  0  0  0  0  0
   38.8180   32.4610   48.2210 C   0  0  0  0  0  0  0  0  0  0  0  0
   38.1800   31.2670   48.2800 C   0  0  0  0  0  0  0  0  0  0  0  0
   38.1450   30.5670   47.0770 C   0  0  0  0  0  0  0  0  0  0  0  0
   38.7210   31.0620   45.9270 C   0  0  0  0  0  0  0  0  0  0  0  0
   39.3560   32.2760   45.9130 C   0  0  0  0  0  0  0  0  0  0  0  0
   39.4000   32.9760   47.0800 C   0  0  0  0  0  0  0  0  0  0  0  0
   37.6710   29.6000   46.9730 H   0  0  0  0  0  0  0  0  0  0  0  0
   38.6870   30.5070   44.9950 H   0  0  0  0  0  0  0  0  0  0  0  0
   39.8190   32.6900   45.0170 H   0  0  0  0  0  0  0  0  0  0  0  0
   39.8980   33.9320   47.0800 H   0  0  0  0  0  0  0  0  0  0  0  0
   34.5030   28.3630   48.2900 C   0  0  0  0  0  0  0  0  0  0  0  0
   34.1540   29.2370   47.7250 H   0  0  0  0  0  0  0  0  0  0  0  0
   35.5160   28.0010   47.9850 H   0  0  0  0  0  0  0  0  0  0  0  0
   33.5430   27.2280   48.0600 C   0  0  0  0  0  0  0  0  0  0  0  0
   33.8390   26.5990   47.1840 H   0  0  0  0  0  0  0  0  0  0  0  0
   33.5610   26.5560   48.9220 H   0  0  0  0  0  0  0  0  0  0  0  0
   32.1480   27.7190   47.8380 C   0  0  0  0  0  0  0  0  0  0  0  0
   31.1660   27.2670   48.6960 C   0  0  0  0  0  0  0  0  0  0  0  0
   29.8570   27.6530   48.5810 C   0  0  0  0  0  0  0  0  0  0  0  0
   29.5150   28.4930   47.6150 N   0  0  0  0  0  0  0  0  0  0  0  0
   30.4810   28.9360   46.7740 C   0  0  0  0  0  0  0  0  0  0  0  0
   31.7750   28.5680   46.8660 N   0  0  0  0  0  0  0  0  0  0  0  0
   31.4340   26.5800   49.4890 H   0  0  0  0  0  0  0  0  0  0  0  0
   29.1310   27.2500   49.3020 H   0  0  0  0  0  0  0  0  0  0  0  0
   30.0810   29.8880   45.6810 C   0  0  0  0  0  0  0  0  0  0  0  0
   29.5010   30.7380   46.1190 H   0  0  0  0  0  0  0  0  0  0  0  0
   29.4300   29.3590   44.9360 H   0  0  0  0  0  0  0  0  0  0  0  0
   31.2650   30.4250   44.9460 C   0  0  0  0  0  3  0  0  0  0  0  0
   30.9200   31.6350   44.0540 C   0  0  0  0  0  2  0  0  0  0  0  0
   31.8590   31.7420   45.2130 C   0  0  0  0  0  2  0  0  0  0  0  0
  1  6  1  0  0  0  0
  2  8  1  0  0  0  0
  3  9  1  0  0  0  0
  3  2  2  0  0  0  0
  4  3  1  0  0  0  0
  5  4  2  0  0  0  0
  5  6  1  0  0  0  0
  6  7  2  0  0  0  0
  7  2  1  0  0  0  0
 11 12  1  0  0  0  0
 11 10  1  0  0  0  0
 12  4  1  0  0  0  0
 13 12  2  0  0  0  0
 14 13  1  0  0  0  0
 15 14  2  0  0  0  0
 15 16  1  0  0  0  0
 16 20  1  0  0  0  0
 16 11  2  0  0  0  0
 17 13  1  0  0  0  0
 18 14  1  0  0  0  0
 19 15  1  0  0  0  0
 21  1  1  0  0  0  0
 22 21  1  0  0  0  0
 23 21  1  0  0  0  0
 24 21  1  0  0  0  0
 24 26  1  0  0  0  0
 25 24  1  0  0  0  0
 27 24  1  0  0  0  0
 27 28  1  0  0  0  0
 28 33  1  0  0  0  0
 29 28  2  0  0  0  0
 29 34  1  0  0  0  0
 30 29  1  0  0  0  0
 31 32  1  0  0  0  0
 31 30  2  0  0  0  0
 32 27  2  0  0  0  0
 35 36  1  0  0  0  0
 35 31  1  0  0  0  0
 37 35  1  0  0  0  0
 38 40  1  0  0  0  0
 38 35  1  0  0  0  0
 39 38  1  0  0  0  0
 39 40  1  0  0  0  0
M  END
>  <minimizedAffinity>
-6.15039873

>  <minimizedRMSD>
0.502215624

$$$$
