
 OpenBabel03272503513D

 31 33  0  0  1  0  0  0  0  0999 V2000
   38.1600   25.2340   32.1350 C   0  0  1  0  0  0  0  0  0  0  0  0
   37.1840   26.0880   32.9770 C   0  0  2  0  0  0  0  0  0  0  0  0
   36.2200   26.4350   32.0840 O   0  0  0  0  0  0  0  0  0  0  0  0
   35.9350   25.2580   31.4090 C   0  0  0  0  0  0  0  0  0  0  0  0
   37.1990   24.4670   31.2750 C   0  0  2  0  0  0  0  0  0  0  0  0
   38.7500   24.5860   32.8270 H   0  0  0  0  0  0  0  0  0  0  0  0
   36.7960   25.3550   33.7150 H   0  0  0  0  0  0  0  0  0  0  0  0
   35.1150   24.7140   31.9120 H   0  0  0  0  0  0  0  0  0  0  0  0
   35.5400   25.5640   30.3980 H   0  0  0  0  0  0  0  0  0  0  0  0
   37.5210   24.5030   30.2100 H   0  0  0  0  0  0  0  0  0  0  0  0
   39.0440   26.0460   31.4520 O   0  0  0  0  0  0  0  0  0  0  0  0
   38.8640   25.9960   30.4880 H   0  0  0  0  0  0  0  0  0  0  0  0
   37.9550   27.0930   33.4810 O   0  0  0  0  0  0  0  0  0  0  0  0
   39.9540   26.8380   35.1850 O   0  0  0  0  0  0  0  0  0  0  0  0
   38.4330   26.8620   35.0780 P   0  0  1  0  0  0  0  0  0  0  0  0
   37.9470   28.1770   36.0270 O   0  0  0  0  0  0  0  0  0  0  0  0
   38.5420   28.2680   36.7980 H   0  0  0  0  0  0  0  0  0  0  0  0
   37.6900   25.4220   35.6180 O   0  0  0  0  0  0  0  0  0  0  0  0
   38.3290   24.5450   36.4730 C   0  0  0  0  0  0  0  0  0  0  0  0
   38.0290   24.3990   37.8450 C   0  0  0  0  0  0  0  0  0  0  0  0
   38.7580   23.4740   38.5790 C   0  0  0  0  0  0  0  0  0  0  0  0
   39.7290   22.7510   37.9410 N   0  0  0  0  0  0  0  0  0  0  0  0
   39.9980   22.9120   36.6160 C   0  0  0  0  0  0  0  0  0  0  0  0
   39.2920   23.8140   35.8850 N   0  0  0  0  0  0  0  0  0  0  0  0
   37.2510   25.0160   38.2360 H   0  0  0  0  0  0  0  0  0  0  0  0
   38.5410   23.3520   39.6210 H   0  0  0  0  0  0  0  0  0  0  0  0
   40.7750   22.3150   36.1630 H   0  0  0  0  0  0  0  0  0  0  0  0
   37.0320   23.1860   31.7520 O   0  0  0  0  0  0  0  0  0  0  0  0
   35.7690   22.6670   31.5590 C   0  0  0  0  0  3  0  0  0  0  0  0
   35.5230   21.3300   31.0260 C   0  0  0  0  0  2  0  0  0  0  0  0
   35.4600   21.5110   32.5210 C   0  0  0  0  0  2  0  0  0  0  0  0
  1  6  1  1  0  0  0
  1  2  1  0  0  0  0
  2 13  1  0  0  0  0
  2  7  1  1  0  0  0
  3  2  1  0  0  0  0
  4  8  1  0  0  0  0
  4  3  1  0  0  0  0
  5 10  1  6  0  0  0
  5  4  1  0  0  0  0
  5 28  1  0  0  0  0
  5  1  1  0  0  0  0
  9  4  1  0  0  0  0
 11  1  1  0  0  0  0
 12 11  1  0  0  0  0
 13 15  1  0  0  0  0
 15 14  2  1  0  0  0
 15 18  1  0  0  0  0
 15 16  1  0  0  0  0
 16 17  1  0  0  0  0
 18 19  1  0  0  0  0
 19 20  1  0  0  0  0
 20 25  1  0  0  0  0
 20 21  2  0  0  0  0
 21 26  1  0  0  0  0
 22 21  1  0  0  0  0
 23 22  2  0  0  0  0
 24 19  2  0  0  0  0
 24 23  1  0  0  0  0
 27 23  1  0  0  0  0
 29 28  1  0  0  0  0
 29 31  1  0  0  0  0
 30 29  1  0  0  0  0
 30 31  1  0  0  0  0
M  END
>  <minimizedAffinity>
-5.10624123

$$$$

 OpenBabel03272503513D

 31 33  0  0  1  0  0  0  0  0999 V2000
   38.6810   23.3210   36.5310 C   0  0  1  0  0  0  0  0  0  0  0  0
   38.2920   24.7560   36.9570 C   0  0  2  0  0  0  0  0  0  0  0  0
   37.7540   24.5810   38.1920 O   0  0  0  0  0  0  0  0  0  0  0  0
   38.6360   23.7280   38.8360 C   0  0  0  0  0  0  0  0  0  0  0  0
   39.1890   22.7660   37.8300 C   0  0  2  0  0  0  0  0  0  0  0  0
   39.4660   23.3880   35.7410 H   0  0  0  0  0  0  0  0  0  0  0  0
   39.2750   25.2650   37.0210 H   0  0  0  0  0  0  0  0  0  0  0  0
   39.4070   24.3060   39.3760 H   0  0  0  0  0  0  0  0  0  0  0  0
   38.0340   23.1880   39.6220 H   0  0  0  0  0  0  0  0  0  0  0  0
   38.7420   21.7650   38.0220 H   0  0  0  0  0  0  0  0  0  0  0  0
   37.5890   22.6650   35.9960 O   0  0  0  0  0  0  0  0  0  0  0  0
   37.3110   21.9390   36.5960 H   0  0  0  0  0  0  0  0  0  0  0  0
   37.4550   25.1910   35.9710 O   0  0  0  0  0  0  0  0  0  0  0  0
   36.7470   27.4450   34.7970 O   0  0  0  0  0  0  0  0  0  0  0  0
   37.9520   26.6140   35.2230 P   0  0  1  0  0  0  0  0  0  0  0  0
   38.7910   27.5880   36.3240 O   0  0  0  0  0  0  0  0  0  0  0  0
   38.7140   28.5270   36.0610 H   0  0  0  0  0  0  0  0  0  0  0  0
   38.9640   26.1670   33.9210 O   0  0  0  0  0  0  0  0  0  0  0  0
   40.3380   26.2850   33.9880 C   0  0  0  0  0  0  0  0  0  0  0  0
   41.1820   25.4400   34.7430 C   0  0  0  0  0  0  0  0  0  0  0  0
   42.5470   25.6820   34.7130 C   0  0  0  0  0  0  0  0  0  0  0  0
   43.0100   26.7240   33.9560 N   0  0  0  0  0  0  0  0  0  0  0  0
   42.1750   27.5240   33.2380 C   0  0  0  0  0  0  0  0  0  0  0  0
   40.8350   27.2980   33.2580 N   0  0  0  0  0  0  0  0  0  0  0  0
   40.7090   24.6590   35.2960 H   0  0  0  0  0  0  0  0  0  0  0  0
   43.1990   25.0490   35.2800 H   0  0  0  0  0  0  0  0  0  0  0  0
   42.5940   28.3330   32.6570 H   0  0  0  0  0  0  0  0  0  0  0  0
   40.5650   22.7630   37.8540 O   0  0  0  0  0  0  0  0  0  0  0  0
   41.1520   22.1210   36.7830 C   0  0  0  0  0  3  0  0  0  0  0  0
   42.5530   22.2960   36.4120 C   0  0  0  0  0  2  0  0  0  0  0  0
   42.1900   21.0790   37.2250 C   0  0  0  0  0  2  0  0  0  0  0  0
  1  6  1  6  0  0  0
  1  2  1  0  0  0  0
  1  5  1  0  0  0  0
  2  7  1  1  0  0  0
  2  3  1  0  0  0  0
  3  4  1  0  0  0  0
  4  8  1  0  0  0  0
  4  9  1  0  0  0  0
  5 28  1  0  0  0  0
  5 10  1  1  0  0  0
  5  4  1  0  0  0  0
 11  1  1  0  0  0  0
 11 12  1  0  0  0  0
 13  2  1  0  0  0  0
 15 14  2  6  0  0  0
 15 13  1  0  0  0  0
 15 16  1  0  0  0  0
 17 16  1  0  0  0  0
 18 19  1  0  0  0  0
 18 15  1  0  0  0  0
 19 20  1  0  0  0  0
 20 25  1  0  0  0  0
 21 20  2  0  0  0  0
 21 26  1  0  0  0  0
 22 21  1  0  0  0  0
 23 24  1  0  0  0  0
 23 22  2  0  0  0  0
 24 19  2  0  0  0  0
 27 23  1  0  0  0  0
 29 31  1  0  0  0  0
 29 28  1  0  0  0  0
 30 29  1  0  0  0  0
 30 31  1  0  0  0  0
M  END
>  <minimizedAffinity>
-4.89675379

$$$$

 OpenBabel03272503513D

 31 33  0  0  1  0  0  0  0  0999 V2000
   37.4420   26.0570   34.6970 C   0  0  1  0  0  0  0  0  0  0  0  0
   37.9990   25.6710   33.3070 C   0  0  2  0  0  0  0  0  0  0  0  0
   39.1280   26.4200   33.2020 O   0  0  0  0  0  0  0  0  0  0  0  0
   39.7580   26.2690   34.4280 C   0  0  0  0  0  0  0  0  0  0  0  0
   38.7100   26.1640   35.4930 C   0  0  2  0  0  0  0  0  0  0  0  0
   36.7670   25.2400   35.0470 H   0  0  0  0  0  0  0  0  0  0  0  0
   38.2460   24.5970   33.4340 H   0  0  0  0  0  0  0  0  0  0  0  0
   40.4570   25.4140   34.3990 H   0  0  0  0  0  0  0  0  0  0  0  0
   40.3900   27.1920   34.5720 H   0  0  0  0  0  0  0  0  0  0  0  0
   38.7170   27.1070   36.0820 H   0  0  0  0  0  0  0  0  0  0  0  0
   36.6990   27.2190   34.6130 O   0  0  0  0  0  0  0  0  0  0  0  0
   37.1630   27.9440   35.0850 H   0  0  0  0  0  0  0  0  0  0  0  0
   36.9840   25.9540   32.4410 O   0  0  0  0  0  0  0  0  0  0  0  0
   35.0650   24.8670   30.9920 O   0  0  0  0  0  0  0  0  0  0  0  0
   36.4770   24.6390   31.5200 P   0  0  1  0  0  0  0  0  0  0  0  0
   37.4440   24.4890   30.1390 O   0  0  0  0  0  0  0  0  0  0  0  0
   36.9400   24.0430   29.4290 H   0  0  0  0  0  0  0  0  0  0  0  0
   36.6170   23.2530   32.5090 O   0  0  0  0  0  0  0  0  0  0  0  0
   36.2670   21.9950   32.0590 C   0  0  0  0  0  0  0  0  0  0  0  0
   35.1830   21.2380   32.5540 C   0  0  0  0  0  0  0  0  0  0  0  0
   34.9520   19.9860   32.0010 C   0  0  0  0  0  0  0  0  0  0  0  0
   35.7840   19.5470   31.0070 N   0  0  0  0  0  0  0  0  0  0  0  0
   36.8230   20.2980   30.5480 C   0  0  0  0  0  0  0  0  0  0  0  0
   37.0600   21.5260   31.0800 N   0  0  0  0  0  0  0  0  0  0  0  0
   34.6020   21.6810   33.3310 H   0  0  0  0  0  0  0  0  0  0  0  0
   34.1340   19.4000   32.3670 H   0  0  0  0  0  0  0  0  0  0  0  0
   37.4480   19.9020   29.7610 H   0  0  0  0  0  0  0  0  0  0  0  0
   38.8990   25.0380   36.2620 O   0  0  0  0  0  0  0  0  0  0  0  0
   37.7610   24.5830   36.8950 C   0  0  0  0  0  3  0  0  0  0  0  0
   37.5380   23.1810   37.2360 C   0  0  0  0  0  2  0  0  0  0  0  0
   38.0430   24.0940   38.3230 C   0  0  0  0  0  2  0  0  0  0  0  0
  1  6  1  1  0  0  0
  1  5  1  0  0  0  0
  2  7  1  6  0  0  0
  2  1  1  0  0  0  0
  3  2  1  0  0  0  0
  3  4  1  0  0  0  0
  4  9  1  0  0  0  0
  4  5  1  0  0  0  0
  5 10  1  1  0  0  0
  5 28  1  0  0  0  0
  8  4  1  0  0  0  0
 11  1  1  0  0  0  0
 11 12  1  0  0  0  0
 13  2  1  0  0  0  0
 15 14  2  6  0  0  0
 15 13  1  0  0  0  0
 15 18  1  0  0  0  0
 16 15  1  0  0  0  0
 17 16  1  0  0  0  0
 19 18  1  0  0  0  0
 19 20  1  0  0  0  0
 20 25  1  0  0  0  0
 21 26  1  0  0  0  0
 21 20  2  0  0  0  0
 22 21  1  0  0  0  0
 23 22  2  0  0  0  0
 23 24  1  0  0  0  0
 24 19  2  0  0  0  0
 27 23  1  0  0  0  0
 28 29  1  0  0  0  0
 29 30  1  0  0  0  0
 29 31  1  0  0  0  0
 30 31  1  0  0  0  0
M  END
>  <minimizedAffinity>
-4.83873177

$$$$

 OpenBabel03272503513D

 31 33  0  0  1  0  0  0  0  0999 V2000
   38.8520   23.5860   36.1220 C   0  0  1  0  0  0  0  0  0  0  0  0
   38.2240   24.8180   36.8140 C   0  0  2  0  0  0  0  0  0  0  0  0
   37.6610   24.2960   37.9340 O   0  0  0  0  0  0  0  0  0  0  0  0
   38.6340   23.4530   38.4490 C   0  0  0  0  0  0  0  0  0  0  0  0
   39.3770   22.8300   37.3080 C   0  0  2  0  0  0  0  0  0  0  0  0
   39.6550   23.9390   35.4310 H   0  0  0  0  0  0  0  0  0  0  0  0
   39.1110   25.4340   37.0650 H   0  0  0  0  0  0  0  0  0  0  0  0
   39.2780   23.9980   39.1620 H   0  0  0  0  0  0  0  0  0  0  0  0
   38.0860   22.6710   39.0490 H   0  0  0  0  0  0  0  0  0  0  0  0
   39.0840   21.7590   37.2440 H   0  0  0  0  0  0  0  0  0  0  0  0
   37.9040   22.9190   35.3710 O   0  0  0  0  0  0  0  0  0  0  0  0
   37.7150   22.0440   35.7760 H   0  0  0  0  0  0  0  0  0  0  0  0
   37.3780   25.3400   35.8790 O   0  0  0  0  0  0  0  0  0  0  0  0
   37.0750   27.8130   35.0090 O   0  0  0  0  0  0  0  0  0  0  0  0
   38.0260   26.6210   35.0020 P   0  0  1  0  0  0  0  0  0  0  0  0
   39.4380   27.1820   35.7480 O   0  0  0  0  0  0  0  0  0  0  0  0
   39.5810   28.1230   35.5240 H   0  0  0  0  0  0  0  0  0  0  0  0
   38.3660   26.0320   33.4340 O   0  0  0  0  0  0  0  0  0  0  0  0
   37.4010   25.4220   32.6570 C   0  0  0  0  0  0  0  0  0  0  0  0
   36.4160   26.1080   31.9140 C   0  0  0  0  0  0  0  0  0  0  0  0
   35.5110   25.3580   31.1770 C   0  0  0  0  0  0  0  0  0  0  0  0
   35.6150   23.9940   31.2070 N   0  0  0  0  0  0  0  0  0  0  0  0
   36.5750   23.3570   31.9330 C   0  0  0  0  0  0  0  0  0  0  0  0
   37.4680   24.0790   32.6580 N   0  0  0  0  0  0  0  0  0  0  0  0
   36.4300   27.1740   31.9660 H   0  0  0  0  0  0  0  0  0  0  0  0
   34.7580   25.8650   30.6090 H   0  0  0  0  0  0  0  0  0  0  0  0
   36.6120   22.2770   31.9190 H   0  0  0  0  0  0  0  0  0  0  0  0
   40.7350   23.0180   37.4430 O   0  0  0  0  0  0  0  0  0  0  0  0
   41.4510   22.8520   36.2770 C   0  0  0  0  0  3  0  0  0  0  0  0
   42.6320   23.6420   35.9400 C   0  0  0  0  0  2  0  0  0  0  0  0
   42.8510   22.2710   36.5280 C   0  0  0  0  0  2  0  0  0  0  0  0
  1  6  1  6  0  0  0
  1  2  1  0  0  0  0
  1  5  1  0  0  0  0
  2  7  1  1  0  0  0
  2  3  1  0  0  0  0
  3  4  1  0  0  0  0
  4  9  1  0  0  0  0
  4  8  1  0  0  0  0
  5 10  1  6  0  0  0
  5 28  1  0  0  0  0
  5  4  1  0  0  0  0
 11 12  1  0  0  0  0
 11  1  1  0  0  0  0
 13  2  1  0  0  0  0
 15 14  2  6  0  0  0
 15 16  1  0  0  0  0
 15 13  1  0  0  0  0
 17 16  1  0  0  0  0
 18 15  1  0  0  0  0
 19 24  1  0  0  0  0
 19 18  1  0  0  0  0
 20 25  1  0  0  0  0
 20 19  2  0  0  0  0
 21 22  2  0  0  0  0
 21 20  1  0  0  0  0
 22 23  1  0  0  0  0
 23 24  2  0  0  0  0
 26 21  1  0  0  0  0
 27 23  1  0  0  0  0
 29 31  1  0  0  0  0
 29 28  1  0  0  0  0
 30 29  1  0  0  0  0
 30 31  1  0  0  0  0
M  END
>  <minimizedAffinity>
-4.77126598

$$$$

 OpenBabel03272503513D

 31 33  0  0  1  0  0  0  0  0999 V2000
   35.9230   29.3910   33.6390 C   0  0  1  0  0  0  0  0  0  0  0  0
   36.7190   28.1020   33.3260 C   0  0  2  0  0  0  0  0  0  0  0  0
   36.0420   27.5630   32.2790 O   0  0  0  0  0  0  0  0  0  0  0  0
   35.8120   28.6320   31.4270 C   0  0  0  0  0  0  0  0  0  0  0  0
   35.5820   29.8590   32.2540 C   0  0  2  0  0  0  0  0  0  0  0  0
   36.5910   30.0940   34.1920 H   0  0  0  0  0  0  0  0  0  0  0  0
   37.7030   28.4980   33.0010 H   0  0  0  0  0  0  0  0  0  0  0  0
   36.6380   28.7290   30.6990 H   0  0  0  0  0  0  0  0  0  0  0  0
   34.8920   28.3680   30.8320 H   0  0  0  0  0  0  0  0  0  0  0  0
   34.5030   30.1240   32.1910 H   0  0  0  0  0  0  0  0  0  0  0  0
   34.8400   29.1040   34.4480 O   0  0  0  0  0  0  0  0  0  0  0  0
   34.0070   29.2380   33.9460 H   0  0  0  0  0  0  0  0  0  0  0  0
   36.7120   27.4030   34.4970 O   0  0  0  0  0  0  0  0  0  0  0  0
   39.2900   27.2420   33.9610 O   0  0  0  0  0  0  0  0  0  0  0  0
   38.2170   26.8060   34.9530 P   0  0  1  0  0  0  0  0  0  0  0  0
   38.6870   27.4820   36.4320 O   0  0  0  0  0  0  0  0  0  0  0  0
   39.6630   27.4890   36.4980 H   0  0  0  0  0  0  0  0  0  0  0  0
   38.0630   25.1100   35.0860 O   0  0  0  0  0  0  0  0  0  0  0  0
   38.4650   24.4250   36.2160 C   0  0  0  0  0  0  0  0  0  0  0  0
   39.5190   23.4850   36.2540 C   0  0  0  0  0  0  0  0  0  0  0  0
   39.8090   22.8760   37.4660 C   0  0  0  0  0  0  0  0  0  0  0  0
   39.0640   23.2140   38.5630 N   0  0  0  0  0  0  0  0  0  0  0  0
   38.0530   24.1240   38.4990 C   0  0  0  0  0  0  0  0  0  0  0  0
   37.7580   24.7280   37.3180 N   0  0  0  0  0  0  0  0  0  0  0  0
   40.0310   23.3000   35.3360 H   0  0  0  0  0  0  0  0  0  0  0  0
   40.6060   22.1610   37.5100 H   0  0  0  0  0  0  0  0  0  0  0  0
   37.4970   24.3540   39.3970 H   0  0  0  0  0  0  0  0  0  0  0  0
   36.4190   30.8810   31.8650 O   0  0  0  0  0  0  0  0  0  0  0  0
   35.9450   32.1440   32.1510 C   0  0  0  0  0  3  0  0  0  0  0  0
   36.4220   32.9460   33.2740 C   0  0  0  0  0  2  0  0  0  0  0  0
   37.0020   33.2330   31.9130 C   0  0  0  0  0  2  0  0  0  0  0  0
  1  6  1  1  0  0  0
  1 11  1  0  0  0  0
  2  7  1  6  0  0  0
  2  1  1  0  0  0  0
  2 13  1  0  0  0  0
  3  2  1  0  0  0  0
  4  5  1  0  0  0  0
  4  3  1  0  0  0  0
  5 10  1  6  0  0  0
  5  1  1  0  0  0  0
  8  4  1  0  0  0  0
  9  4  1  0  0  0  0
 12 11  1  0  0  0  0
 13 15  1  0  0  0  0
 15 14  2  6  0  0  0
 15 18  1  0  0  0  0
 15 16  1  0  0  0  0
 16 17  1  0  0  0  0
 18 19  1  0  0  0  0
 19 20  2  0  0  0  0
 19 24  1  0  0  0  0
 20 21  1  0  0  0  0
 21 26  1  0  0  0  0
 21 22  2  0  0  0  0
 23 22  1  0  0  0  0
 23 27  1  0  0  0  0
 24 23  2  0  0  0  0
 25 20  1  0  0  0  0
 28 29  1  0  0  0  0
 28  5  1  0  0  0  0
 29 30  1  0  0  0  0
 31 29  1  0  0  0  0
 31 30  1  0  0  0  0
M  END
>  <minimizedAffinity>
-4.74878454

$$$$

 OpenBabel03272503513D

 31 33  0  0  1  0  0  0  0  0999 V2000
   38.1150   26.6280   35.6260 C   0  0  1  0  0  0  0  0  0  0  0  0
   37.4720   26.6990   34.2210 C   0  0  2  0  0  0  0  0  0  0  0  0
   38.5410   26.6560   33.3850 O   0  0  0  0  0  0  0  0  0  0  0  0
   39.3360   25.6390   33.8910 C   0  0  0  0  0  0  0  0  0  0  0  0
   39.2210   25.6430   35.3840 C   0  0  2  0  0  0  0  0  0  0  0  0
   37.3470   26.2630   36.3490 H   0  0  0  0  0  0  0  0  0  0  0  0
   36.8920   25.7550   34.1730 H   0  0  0  0  0  0  0  0  0  0  0  0
   39.0720   24.6740   33.4230 H   0  0  0  0  0  0  0  0  0  0  0  0
   40.3900   25.8730   33.5660 H   0  0  0  0  0  0  0  0  0  0  0  0
   40.1770   26.0260   35.8060 H   0  0  0  0  0  0  0  0  0  0  0  0
   38.5220   27.8840   36.0330 O   0  0  0  0  0  0  0  0  0  0  0  0
   39.5030   27.9200   36.0690 H   0  0  0  0  0  0  0  0  0  0  0  0
   36.7410   27.8510   34.2370 O   0  0  0  0  0  0  0  0  0  0  0  0
   37.0240   29.1380   31.9510 O   0  0  0  0  0  0  0  0  0  0  0  0
   36.0670   28.2600   32.7510 P   0  0  1  0  0  0  0  0  0  0  0  0
   35.8520   26.8720   31.8070 O   0  0  0  0  0  0  0  0  0  0  0  0
   35.8710   27.1100   30.8580 H   0  0  0  0  0  0  0  0  0  0  0  0
   34.5650   29.0090   33.0720 O   0  0  0  0  0  0  0  0  0  0  0  0
   34.3750   29.8260   34.1700 C   0  0  0  0  0  0  0  0  0  0  0  0
   35.2960   30.7990   34.6160 C   0  0  0  0  0  0  0  0  0  0  0  0
   34.9660   31.5470   35.7370 C   0  0  0  0  0  0  0  0  0  0  0  0
   33.7680   31.3050   36.3550 N   0  0  0  0  0  0  0  0  0  0  0  0
   32.8990   30.3600   35.9040 C   0  0  0  0  0  0  0  0  0  0  0  0
   33.2100   29.6210   34.8060 N   0  0  0  0  0  0  0  0  0  0  0  0
   36.1980   30.9000   34.0560 H   0  0  0  0  0  0  0  0  0  0  0  0
   35.6540   32.2890   36.0870 H   0  0  0  0  0  0  0  0  0  0  0  0
   31.9670   30.2110   36.4300 H   0  0  0  0  0  0  0  0  0  0  0  0
   38.8760   24.3970   35.8560 O   0  0  0  0  0  0  0  0  0  0  0  0
   38.2300   24.4090   37.0750 C   0  0  0  0  0  3  0  0  0  0  0  0
   37.3980   23.3080   37.5530 C   0  0  0  0  0  2  0  0  0  0  0  0
   38.8170   23.3850   38.0570 C   0  0  0  0  0  2  0  0  0  0  0  0
  1 11  1  0  0  0  0
  1  6  1  1  0  0  0
  2  7  1  6  0  0  0
  2 13  1  0  0  0  0
  2  1  1  0  0  0  0
  3  4  1  0  0  0  0
  3  2  1  0  0  0  0
  4  5  1  0  0  0  0
  5  1  1  0  0  0  0
  5 10  1  1  0  0  0
  5 28  1  0  0  0  0
  8  4  1  0  0  0  0
  9  4  1  0  0  0  0
 11 12  1  0  0  0  0
 15 14  2  6  0  0  0
 15 18  1  0  0  0  0
 15 13  1  0  0  0  0
 16 15  1  0  0  0  0
 17 16  1  0  0  0  0
 18 19  1  0  0  0  0
 19 20  2  0  0  0  0
 19 24  1  0  0  0  0
 20 21  1  0  0  0  0
 21 26  1  0  0  0  0
 21 22  2  0  0  0  0
 23 22  1  0  0  0  0
 23 27  1  0  0  0  0
 24 23  2  0  0  0  0
 25 20  1  0  0  0  0
 28 29  1  0  0  0  0
 29 30  1  0  0  0  0
 29 31  1  0  0  0  0
 30 31  1  0  0  0  0
M  END
>  <minimizedAffinity>
-4.62327719

$$$$

 OpenBabel03272503513D

 31 33  0  0  1  0  0  0  0  0999 V2000
   35.9270   27.2840   31.4240 C   0  0  1  0  0  0  0  0  0  0  0  0
   36.4060   25.9220   31.9780 C   0  0  2  0  0  0  0  0  0  0  0  0
   37.7050   26.1550   32.3000 O   0  0  0  0  0  0  0  0  0  0  0  0
   37.6850   27.3690   32.9670 C   0  0  0  0  0  0  0  0  0  0  0  0
   36.6260   28.2320   32.3540 C   0  0  2  0  0  0  0  0  0  0  0  0
   34.8140   27.3260   31.5040 H   0  0  0  0  0  0  0  0  0  0  0  0
   35.7870   25.8010   32.8910 H   0  0  0  0  0  0  0  0  0  0  0  0
   37.5610   27.2100   34.0530 H   0  0  0  0  0  0  0  0  0  0  0  0
   38.7080   27.8230   32.8270 H   0  0  0  0  0  0  0  0  0  0  0  0
   37.1270   29.0400   31.7750 H   0  0  0  0  0  0  0  0  0  0  0  0
   36.2650   27.4070   30.0910 O   0  0  0  0  0  0  0  0  0  0  0  0
   36.9500   28.1040   29.9850 H   0  0  0  0  0  0  0  0  0  0  0  0
   36.1640   25.0370   30.9690 O   0  0  0  0  0  0  0  0  0  0  0  0
   37.9810   23.2350   30.3260 O   0  0  0  0  0  0  0  0  0  0  0  0
   36.7870   23.4970   31.2370 P   0  0  1  0  0  0  0  0  0  0  0  0
   37.4020   23.3840   32.8100 O   0  0  0  0  0  0  0  0  0  0  0  0
   38.1030   22.7030   32.8440 H   0  0  0  0  0  0  0  0  0  0  0  0
   35.5030   22.3930   31.0100 O   0  0  0  0  0  0  0  0  0  0  0  0
   35.6100   21.0640   31.3690 C   0  0  0  0  0  0  0  0  0  0  0  0
   35.0910   20.5100   32.5610 C   0  0  0  0  0  0  0  0  0  0  0  0
   35.2760   19.1530   32.7860 C   0  0  0  0  0  0  0  0  0  0  0  0
   35.9490   18.4200   31.8470 N   0  0  0  0  0  0  0  0  0  0  0  0
   36.4390   18.9800   30.7060 C   0  0  0  0  0  0  0  0  0  0  0  0
   36.2650   20.3070   30.4730 N   0  0  0  0  0  0  0  0  0  0  0  0
   34.5840   21.1780   33.2200 H   0  0  0  0  0  0  0  0  0  0  0  0
   34.8880   18.7190   33.6850 H   0  0  0  0  0  0  0  0  0  0  0  0
   36.9630   18.3530   29.9980 H   0  0  0  0  0  0  0  0  0  0  0  0
   35.7580   28.7050   33.3120 O   0  0  0  0  0  0  0  0  0  0  0  0
   35.5750   30.0720   33.2900 C   0  0  0  0  0  3  0  0  0  0  0  0
   34.3120   30.7190   33.6340 C   0  0  0  0  0  2  0  0  0  0  0  0
   35.3800   30.6590   34.6950 C   0  0  0  0  0  2  0  0  0  0  0  0
  1  6  1  1  0  0  0
  1  2  1  0  0  0  0
  1  5  1  0  0  0  0
  2  3  1  0  0  0  0
  2  7  1  1  0  0  0
  3  4  1  0  0  0  0
  4  8  1  0  0  0  0
  5 10  1  6  0  0  0
  5  4  1  0  0  0  0
  5 28  1  0  0  0  0
  9  4  1  0  0  0  0
 11  1  1  0  0  0  0
 12 11  1  0  0  0  0
 13 15  1  0  0  0  0
 13  2  1  0  0  0  0
 15 14  2  6  0  0  0
 15 16  1  0  0  0  0
 16 17  1  0  0  0  0
 18 15  1  0  0  0  0
 18 19  1  0  0  0  0
 19 20  1  0  0  0  0
 20 21  2  0  0  0  0
 20 25  1  0  0  0  0
 21 26  1  0  0  0  0
 22 21  1  0  0  0  0
 23 22  2  0  0  0  0
 24 23  1  0  0  0  0
 24 19  2  0  0  0  0
 27 23  1  0  0  0  0
 29 28  1  0  0  0  0
 29 30  1  0  0  0  0
 29 31  1  0  0  0  0
 30 31  1  0  0  0  0
M  END
>  <minimizedAffinity>
-4.5447464

$$$$

 OpenBabel03272503513D

 31 33  0  0  1  0  0  0  0  0999 V2000
   39.1220   26.6360   35.4410 C   0  0  1  0  0  0  0  0  0  0  0  0
   38.1630   25.4300   35.3120 C   0  0  2  0  0  0  0  0  0  0  0  0
   37.1590   25.9090   34.5320 O   0  0  0  0  0  0  0  0  0  0  0  0
   37.8070   26.5760   33.5050 C   0  0  0  0  0  0  0  0  0  0  0  0
   39.0480   27.2080   34.0550 C   0  0  2  0  0  0  0  0  0  0  0  0
   40.1360   26.2550   35.7100 H   0  0  0  0  0  0  0  0  0  0  0  0
   38.7770   24.6900   34.7580 H   0  0  0  0  0  0  0  0  0  0  0  0
   37.9890   25.8920   32.6560 H   0  0  0  0  0  0  0  0  0  0  0  0
   37.0860   27.3590   33.1330 H   0  0  0  0  0  0  0  0  0  0  0  0
   38.8890   28.3080   34.0990 H   0  0  0  0  0  0  0  0  0  0  0  0
   38.7010   27.4800   36.4500 O   0  0  0  0  0  0  0  0  0  0  0  0
   38.3920   28.3300   36.0650 H   0  0  0  0  0  0  0  0  0  0  0  0
   37.8490   25.1040   36.5990 O   0  0  0  0  0  0  0  0  0  0  0  0
   38.9520   23.5810   38.4500 O   0  0  0  0  0  0  0  0  0  0  0  0
   38.3330   23.5590   37.0570 P   0  0  1  0  0  0  0  0  0  0  0  0
   36.9850   22.5430   37.1900 O   0  0  0  0  0  0  0  0  0  0  0  0
   37.1750   21.8220   37.8240 H   0  0  0  0  0  0  0  0  0  0  0  0
   39.3990   22.9910   35.8480 O   0  0  0  0  0  0  0  0  0  0  0  0
   40.7360   22.7590   36.1030 C   0  0  0  0  0  0  0  0  0  0  0  0
   41.2490   21.5870   36.7030 C   0  0  0  0  0  0  0  0  0  0  0  0
   42.6200   21.4970   36.8950 C   0  0  0  0  0  0  0  0  0  0  0  0
   43.4070   22.5430   36.4950 N   0  0  0  0  0  0  0  0  0  0  0  0
   42.8860   23.6610   35.9190 C   0  0  0  0  0  0  0  0  0  0  0  0
   41.5450   23.7630   35.7250 N   0  0  0  0  0  0  0  0  0  0  0  0
   40.5400   20.8370   36.9740 H   0  0  0  0  0  0  0  0  0  0  0  0
   43.0230   20.6140   37.3490 H   0  0  0  0  0  0  0  0  0  0  0  0
   43.5540   24.4570   35.6220 H   0  0  0  0  0  0  0  0  0  0  0  0
   40.1540   26.8460   33.3190 O   0  0  0  0  0  0  0  0  0  0  0  0
   41.3260   27.4550   33.7160 C   0  0  0  0  0  3  0  0  0  0  0  0
   42.6030   26.7540   33.8110 C   0  0  0  0  0  2  0  0  0  0  0  0
   42.3430   27.5690   32.5700 C   0  0  0  0  0  2  0  0  0  0  0  0
  1  6  1  1  0  0  0
  1 11  1  0  0  0  0
  2  7  1  6  0  0  0
  2  1  1  0  0  0  0
  2 13  1  0  0  0  0
  3  2  1  0  0  0  0
  4  5  1  0  0  0  0
  4  3  1  0  0  0  0
  5 10  1  1  0  0  0
  5  1  1  0  0  0  0
  8  4  1  0  0  0  0
  9  4  1  0  0  0  0
 12 11  1  0  0  0  0
 13 15  1  0  0  0  0
 15 16  1  0  0  0  0
 15 14  2  1  0  0  0
 16 17  1  0  0  0  0
 18 19  1  0  0  0  0
 18 15  1  0  0  0  0
 19 20  1  0  0  0  0
 20 21  2  0  0  0  0
 20 25  1  0  0  0  0
 21 26  1  0  0  0  0
 22 21  1  0  0  0  0
 23 22  2  0  0  0  0
 24 23  1  0  0  0  0
 24 19  2  0  0  0  0
 27 23  1  0  0  0  0
 28 29  1  0  0  0  0
 28  5  1  0  0  0  0
 29 30  1  0  0  0  0
 31 29  1  0  0  0  0
 31 30  1  0  0  0  0
M  END
>  <minimizedAffinity>
-4.54284525

$$$$

 OpenBabel03272503513D

 31 33  0  0  1  0  0  0  0  0999 V2000
   35.9650   25.9670   31.6200 C   0  0  1  0  0  0  0  0  0  0  0  0
   37.1420   25.6190   32.5620 C   0  0  2  0  0  0  0  0  0  0  0  0
   38.1870   26.2980   32.0210 O   0  0  0  0  0  0  0  0  0  0  0  0
   37.6780   27.5580   31.7490 C   0  0  0  0  0  0  0  0  0  0  0  0
   36.2450   27.4140   31.3370 C   0  0  2  0  0  0  0  0  0  0  0  0
   35.0100   25.8000   32.1730 H   0  0  0  0  0  0  0  0  0  0  0  0
   36.8270   26.0750   33.5220 H   0  0  0  0  0  0  0  0  0  0  0  0
   37.8320   28.2300   32.6120 H   0  0  0  0  0  0  0  0  0  0  0  0
   38.3000   27.9740   30.9060 H   0  0  0  0  0  0  0  0  0  0  0  0
   36.1750   27.6140   30.2450 H   0  0  0  0  0  0  0  0  0  0  0  0
   35.9710   25.1380   30.5150 O   0  0  0  0  0  0  0  0  0  0  0  0
   36.1910   25.6570   29.7120 H   0  0  0  0  0  0  0  0  0  0  0  0
   37.2070   24.2570   32.5380 O   0  0  0  0  0  0  0  0  0  0  0  0
   39.3770   22.7550   32.5390 O   0  0  0  0  0  0  0  0  0  0  0  0
   38.4820   23.6120   33.4280 P   0  0  1  0  0  0  0  0  0  0  0  0
   39.4850   24.8540   33.9920 O   0  0  0  0  0  0  0  0  0  0  0  0
   40.3910   24.5130   34.1260 H   0  0  0  0  0  0  0  0  0  0  0  0
   37.7950   22.7500   34.7340 O   0  0  0  0  0  0  0  0  0  0  0  0
   38.2430   22.9080   36.0300 C   0  0  0  0  0  0  0  0  0  0  0  0
   37.4540   23.3820   37.1010 C   0  0  0  0  0  0  0  0  0  0  0  0
   38.0440   23.4870   38.3530 C   0  0  0  0  0  0  0  0  0  0  0  0
   39.3580   23.1270   38.4880 N   0  0  0  0  0  0  0  0  0  0  0  0
   40.0960   22.6730   37.4390 C   0  0  0  0  0  0  0  0  0  0  0  0
   39.5310   22.5660   36.2080 N   0  0  0  0  0  0  0  0  0  0  0  0
   36.4410   23.6330   36.8780 H   0  0  0  0  0  0  0  0  0  0  0  0
   37.4580   23.8450   39.1740 H   0  0  0  0  0  0  0  0  0  0  0  0
   41.1290   22.4030   37.6030 H   0  0  0  0  0  0  0  0  0  0  0  0
   35.4300   28.2250   32.0940 O   0  0  0  0  0  0  0  0  0  0  0  0
   36.1050   29.1280   32.8890 C   0  0  0  0  0  3  0  0  0  0  0  0
   35.5320   30.3960   33.3290 C   0  0  0  0  0  2  0  0  0  0  0  0
   35.4950   29.2390   34.2940 C   0  0  0  0  0  2  0  0  0  0  0  0
  1  6  1  1  0  0  0
  1  2  1  0  0  0  0
  2  7  1  1  0  0  0
  3  2  1  0  0  0  0
  4  3  1  0  0  0  0
  4  8  1  0  0  0  0
  5 10  1  6  0  0  0
  5  1  1  0  0  0  0
  5  4  1  0  0  0  0
  5 28  1  0  0  0  0
  9  4  1  0  0  0  0
 11  1  1  0  0  0  0
 12 11  1  0  0  0  0
 13  2  1  0  0  0  0
 13 15  1  0  0  0  0
 15 14  2  6  0  0  0
 15 16  1  0  0  0  0
 15 18  1  0  0  0  0
 16 17  1  0  0  0  0
 18 19  1  0  0  0  0
 19 24  2  0  0  0  0
 19 20  1  0  0  0  0
 20 21  2  0  0  0  0
 21 22  1  0  0  0  0
 21 26  1  0  0  0  0
 23 27  1  0  0  0  0
 23 22  2  0  0  0  0
 24 23  1  0  0  0  0
 25 20  1  0  0  0  0
 28 29  1  0  0  0  0
 29 30  1  0  0  0  0
 29 31  1  0  0  0  0
 30 31  1  0  0  0  0
M  END
>  <minimizedAffinity>
-4.5171442

$$$$
