
 OpenBabel03272509433D

 32 34  0  0  1  0  0  0  0  0999 V2000
   37.0700   30.9280   49.0590 C   0  0  0  0  0  0  0  0  0  0  0  0
   36.7960   31.8380   50.0820 C   0  0  0  0  0  0  0  0  0  0  0  0
   37.3850   33.0940   50.1230 C   0  0  0  0  0  0  0  0  0  0  0  0
   38.2770   33.4640   49.1130 C   0  0  0  0  0  0  0  0  0  0  0  0
   38.5360   32.5650   48.1200 C   0  0  0  0  0  0  0  0  0  0  0  0
   37.9300   31.3170   48.1120 C   0  0  0  0  0  0  0  0  0  0  0  0
   36.0950   31.5180   50.8570 H   0  0  0  0  0  0  0  0  0  0  0  0
   37.0900   33.6990   50.9640 H   0  0  0  0  0  0  0  0  0  0  0  0
   38.6820   34.4500   49.2250 H   0  0  0  0  0  0  0  0  0  0  0  0
   39.2470   32.9950   47.4140 H   0  0  0  0  0  0  0  0  0  0  0  0
   36.4810   29.6070   49.0400 C   0  0  2  0  0  0  0  0  0  0  0  0
   36.9750   29.0710   48.1410 H   0  0  0  0  0  0  0  0  0  0  0  0
   33.6050   29.9710   46.8490 C   0  0  0  0  0  0  0  0  0  0  0  0
   32.8660   28.8240   47.0730 C   0  0  0  0  0  0  0  0  0  0  0  0
   33.3180   27.9350   48.0300 C   0  0  0  0  0  0  0  0  0  0  0  0
   34.4760   28.2180   48.7210 N   0  0  0  0  0  0  0  0  0  0  0  0
   35.1360   29.3280   48.4600 C   0  0  0  0  0  0  0  0  0  0  0  0
   34.7090   30.2100   47.5290 N   0  0  0  0  0  0  0  0  0  0  0  0
   33.2770   30.6950   46.1010 H   0  0  0  0  0  0  0  0  0  0  0  0
   31.9760   28.6900   46.4810 H   0  0  0  0  0  0  0  0  0  0  0  0
   32.7440   27.0370   48.2110 H   0  0  0  0  0  0  0  0  0  0  0  0
   36.9600   28.8380   49.9530 O   0  0  0  0  0  0  0  0  0  0  0  0
   36.6610   28.8120   50.8780 H   0  0  0  0  0  0  0  0  0  0  0  0
   38.3170   30.4540   47.0200 C   0  0  0  0  0  3  0  0  0  0  0  0
   38.8730   30.8920   45.8860 C   0  0  0  0  0  3  0  0  0  0  0  0
   39.3440   30.1000   44.7270 C   0  0  0  0  0  0  0  0  0  0  0  0
   39.1880   29.0020   44.8740 H   0  0  0  0  0  0  0  0  0  0  0  0
   40.4220   30.2500   44.5230 H   0  0  0  0  0  0  0  0  0  0  0  0
   38.4370   30.5830   43.2540 S   0  0  0  0  0  0  0  0  0  0  0  0
   36.9790   31.5810   43.7300 C   0  0  0  0  0  3  0  0  0  0  0  0
   35.7070   30.8330   43.8520 C   0  0  0  0  0  2  0  0  0  0  0  0
   35.9030   31.7870   42.7290 C   0  0  0  0  0  2  0  0  0  0  0  0
  1  2  1  0  0  0  0
  2  3  2  0  0  0  0
  2  7  1  0  0  0  0
  3  8  1  0  0  0  0
  4  9  1  0  0  0  0
  4  3  1  0  0  0  0
  5  4  2  0  0  0  0
  6  5  1  0  0  0  0
  6  1  2  0  0  0  0
 10  5  1  0  0  0  0
 11 12  1  6  0  0  0
 11  1  1  0  0  0  0
 11 22  1  0  0  0  0
 13 14  2  0  0  0  0
 13 18  1  0  0  0  0
 14 15  1  0  0  0  0
 15 21  1  0  0  0  0
 15 16  2  0  0  0  0
 17 16  1  0  0  0  0
 17 11  1  0  0  0  0
 18 17  2  0  0  0  0
 19 13  1  0  0  0  0
 20 14  1  0  0  0  0
 22 23  1  0  0  0  0
 24  6  1  0  0  0  0
 25 24  2  0  0  0  0
 26 27  1  0  0  0  0
 26 25  1  0  0  0  0
 28 26  1  0  0  0  0
 29 30  1  0  0  0  0
 29 26  1  0  0  0  0
 30 31  1  0  0  0  0
 32 30  1  0  0  0  0
 32 31  1  0  0  0  0
M  END
>  <minimizedAffinity>
-5.19956112

>  <minimizedRMSD>
0.665704608

$$$$
