REMARK  Name = 
REMARK  6 active torsions:
REMARK  status: ('A' for Active; 'I' for Inactive)
REMARK    1  A    between atoms: C_1  and  C_13
REMARK    2  A    between atoms: C_2  and  O_14
REMARK    3  A    between atoms: C_6  and  C_7
REMARK    4  A    between atoms: O_14  and  C_15
REMARK    5  A    between atoms: C_16  and  N_23
REMARK    6  A    between atoms: C_21  and  C_33
REMARK                            x       y       z     vdW  Elec       q    Type
REMARK                         _______ _______ _______ _____ _____    ______ ____
ROOT
ATOM      1  C   UNL     1      38.265  32.288  47.396  0.00  0.00    +0.000 A 
ATOM      2  C   UNL     1      37.909  32.735  48.657  0.00  0.00    +0.000 A 
ATOM      3  C   UNL     1      38.670  33.686  49.301  0.00  0.00    +0.000 A 
ATOM      4  C   UNL     1      39.804  34.200  48.675  0.00  0.00    +0.000 A 
ATOM      5  C   UNL     1      40.158  33.758  47.425  0.00  0.00    +0.000 A 
ATOM      6  C   UNL     1      39.375  32.809  46.814  0.00  0.00    +0.000 A 
ATOM      7  H   UNL     1      38.441  34.075  50.289  0.00  0.00    +0.000 HD
ATOM      8  H   UNL     1      40.394  34.953  49.203  0.00  0.00    +0.000 HD
ATOM      9  H   UNL     1      41.046  34.175  46.961  0.00  0.00    +0.000 HD
ENDROOT
BRANCH   6  10
ATOM     10  C   UNL     1      39.766  32.337  45.461  0.00  0.00    +0.000 A 
ATOM     11  C   UNL     1      40.626  31.323  45.102  0.00  0.00    +0.000 A 
ATOM     12  C   UNL     1      40.641  31.293  43.700  0.00  0.00    +0.000 A 
ATOM     13  C   UNL     1      39.786  32.294  43.304  0.00  0.00    +0.000 A 
ATOM     14  O   UNL     1      39.282  32.896  44.363  0.00  0.00    +0.000 OA
ATOM     15  H   UNL     1      41.109  30.762  45.886  0.00  0.00    +0.000 HD
ATOM     16  H   UNL     1      41.270  30.549  43.241  0.00  0.00    +0.000 HD
ATOM     17  H   UNL     1      39.633  32.465  42.247  0.00  0.00    +0.000 HD
ENDBRANCH   6  10
BRANCH   1  19
ATOM     18  N   UNL     1      36.754  30.521  46.298  0.00  0.00    +0.000 NA
ATOM     19  C   UNL     1      37.428  31.305  46.797  0.00  0.00    +0.000 C 
ENDBRANCH   1  19
BRANCH   2  20
ATOM     20  O   UNL     1      36.806  32.309  49.394  0.00  0.00    +0.000 OA
BRANCH  20  21
ATOM     21  C   UNL     1      36.789  31.204  50.168  0.00  0.00    +0.000 A 
ATOM     22  C   UNL     1      35.637  30.427  49.945  0.00  0.00    +0.000 A 
ATOM     23  C   UNL     1      35.437  29.252  50.646  0.00  0.00    +0.000 A 
ATOM     24  N   UNL     1      36.392  28.887  51.548  0.00  0.00    +0.000 NA
ATOM     25  C   UNL     1      37.497  29.652  51.749  0.00  0.00    +0.000 A 
ATOM     26  N   UNL     1      37.674  30.772  51.071  0.00  0.00    +0.000 NA
ATOM     27  H   UNL     1      34.600  28.605  50.542  0.00  0.00    +0.000 HD
ATOM     28  H   UNL     1      38.252  29.362  52.464  0.00  0.00    +0.000 HD
BRANCH  22  31
ATOM     29  C   UNL     1      34.143  29.716  48.156  0.00  0.00    +0.000 C 
ATOM     30  O   UNL     1      34.551  28.517  47.871  0.00  0.00    +0.000 OA
ATOM     31  N   UNL     1      34.612  30.730  49.039  0.00  0.00    +0.000 N 
ATOM     32  H   UNL     1      34.122  31.634  48.914  0.00  0.00    +0.000 HD
BRANCH  29  33
ATOM     33  C   UNL     1      32.930  29.902  47.294  0.00  0.00    +0.000 C 
ATOM     34  C   UNL     1      33.094  31.072  46.328  0.00  0.00    +0.000 C 
ATOM     35  C   UNL     1      32.917  29.670  45.861  0.00  0.00    +0.000 C 
ENDBRANCH  29  33
ENDBRANCH  22  31
ENDBRANCH  20  21
ENDBRANCH   2  20
TORSDOF 6
