
     RDKit          3D

 40 43  0  0  0  0  0  0  0  0999 V2000
   38.2648   32.2885   47.3959 C   0  0  0  0  0  0  0  0  0  0  0  0
   37.9090   32.7347   48.6565 C   0  0  0  0  0  0  0  0  0  0  0  0
   38.6702   33.6864   49.3008 C   0  0  0  0  0  0  0  0  0  0  0  0
   39.8045   34.2000   48.6752 C   0  0  0  0  0  0  0  0  0  0  0  0
   40.1585   33.7583   47.4249 C   0  0  0  0  0  0  0  0  0  0  0  0
   39.3753   32.8088   46.8141 C   0  0  0  0  0  0  0  0  0  0  0  0
   39.7664   32.3370   45.4608 C   0  0  0  0  0  0  0  0  0  0  0  0
   40.6259   31.3235   45.1025 C   0  0  0  0  0  0  0  0  0  0  0  0
   40.6409   31.2932   43.7005 C   0  0  0  0  0  0  0  0  0  0  0  0
   39.7865   32.2938   43.3045 C   0  0  0  0  0  0  0  0  0  0  0  0
   39.2820   32.8964   44.3630 O   0  0  0  0  0  0  0  0  0  0  0  0
   36.7538   30.5210   46.2978 N   0  0  0  0  0  0  0  0  0  0  0  0
   37.4276   31.3047   46.7975 C   0  0  0  0  0  0  0  0  0  0  0  0
   36.8059   32.3091   49.3943 O   0  0  0  0  0  0  0  0  0  0  0  0
   36.7890   31.2045   50.1683 C   0  0  0  0  0  0  0  0  0  0  0  0
   35.6371   30.4269   49.9451 C   0  0  0  0  0  0  0  0  0  0  0  0
   35.4373   29.2519   50.6459 C   0  0  0  0  0  0  0  0  0  0  0  0
   36.3922   28.8874   51.5483 N   0  0  0  0  0  0  0  0  0  0  0  0
   37.4971   29.6519   51.7490 C   0  0  0  0  0  0  0  0  0  0  0  0
   37.6736   30.7723   51.0713 N   0  0  0  0  0  0  0  0  0  0  0  0
   34.1426   29.7160   48.1559 C   0  0  0  0  0  0  0  0  0  0  0  0
   34.5508   28.5175   47.8707 O   0  0  0  0  0  0  0  0  0  0  0  0
   34.6120   30.7301   49.0391 N   0  0  0  0  0  0  0  0  0  0  0  0
   38.4413   34.0745   50.2888 H   0  0  0  0  0  0  0  0  0  0  0  0
   40.3938   34.9534   49.2032 H   0  0  0  0  0  0  0  0  0  0  0  0
   41.0461   34.1751   46.9614 H   0  0  0  0  0  0  0  0  0  0  0  0
   41.1094   30.7623   45.8859 H   0  0  0  0  0  0  0  0  0  0  0  0
   41.2702   30.5494   43.2411 H   0  0  0  0  0  0  0  0  0  0  0  0
   39.6329   32.4648   42.2474 H   0  0  0  0  0  0  0  0  0  0  0  0
   34.6003   28.6049   50.5420 H   0  0  0  0  0  0  0  0  0  0  0  0
   38.2519   29.3616   52.4638 H   0  0  0  0  0  0  0  0  0  0  0  0
   34.1221   31.6336   48.9141 H   0  0  0  0  0  0  0  0  0  0  0  0
   32.9296   29.9018   47.2942 C   0  0  0  0  0  0  0  0  0  0  0  0
   33.0941   31.0717   46.3277 C   0  0  0  0  0  0  0  0  0  0  0  0
   32.9171   29.6696   45.8613 C   0  0  0  0  0  0  0  0  0  0  0  0
   32.0086   29.8297   47.8857 H   0  0  0  0  0  0  0  0  0  0  0  0
   34.1089   31.4951   46.1607 H   0  0  0  0  0  0  0  0  0  0  0  0
   32.2831   31.8002   46.3904 H   0  0  0  0  0  0  0  0  0  0  0  0
   33.7319   29.1974   45.2829 H   0  0  0  0  0  0  0  0  0  0  0  0
   31.9134   29.4471   45.4305 H   0  0  0  0  0  0  0  0  0  0  0  0
  1  2  2  0
  2  3  1  0
  2 14  1  0
  4  3  2  0
  5  4  1  0
  6  1  1  0
  6  5  2  0
  7  6  1  0
  8  7  2  0
  9  8  1  0
 10  9  2  0
 10 11  1  0
 11  7  1  0
 12 13  3  0
 13  1  1  0
 14 15  1  0
 15 20  2  0
 16 15  1  0
 16 17  2  0
 17 18  1  0
 18 19  2  0
 20 19  1  0
 21 23  1  0
 22 21  2  0
 23 16  1  0
  3 24  1  0
  4 25  1  0
  5 26  1  0
  8 27  1  0
  9 28  1  0
 10 29  1  0
 17 30  1  0
 19 31  1  0
 23 32  1  0
 33 34  1  0
 34 35  1  0
 35 33  1  0
 33 36  1  0
 34 37  1  0
 34 38  1  0
 35 39  1  0
 35 40  1  0
 21 33  1  0
M  ISO  8  24  14  25  14  26  14  27  14  28  14  29  14  30  14  31  14
M  END
>  <DihAtoms>  (1) 
22,20,32,33

>  <DihDeg>  (1) 
-44.58216726482065

$$$$
