
 OpenBabel03272503243D

 26 28  0  0  1  0  0  0  0  0999 V2000
   37.1600   31.0100   48.4930 N   0  0  0  0  0  0  0  0  0  0  0  0
   36.7330   29.8400   49.1720 C   0  0  1  0  0  0  0  0  0  0  0  0
   37.4850   29.8390   50.4770 C   0  0  0  0  0  0  0  0  0  0  0  0
   38.3940   31.0850   50.3750 C   0  0  0  0  0  0  0  0  0  0  0  0
   37.5240   31.9580   49.5160 C   0  0  0  0  0  0  0  0  0  0  0  0
   37.1720   28.9640   48.5540 H   0  0  0  0  0  0  0  0  0  0  0  0
   36.7560   30.0800   51.2800 H   0  0  0  0  0  0  0  0  0  0  0  0
   38.0640   28.9270   50.6500 H   0  0  0  0  0  0  0  0  0  0  0  0
   39.2570   30.7670   49.7570 H   0  0  0  0  0  0  0  0  0  0  0  0
   38.6640   31.4890   51.3460 H   0  0  0  0  0  0  0  0  0  0  0  0
   36.6380   32.3420   50.0740 H   0  0  0  0  0  0  0  0  0  0  0  0
   38.1320   32.8030   49.1110 H   0  0  0  0  0  0  0  0  0  0  0  0
   37.2280   31.1930   47.0850 C   0  0  0  0  0  0  0  0  0  0  0  0
   36.4120   30.3920   46.2730 C   0  0  0  0  0  0  0  0  0  0  0  0
   36.4580   30.5460   44.8870 C   0  0  0  0  0  0  0  0  0  0  0  0
   37.3290   31.5030   44.4070 N   0  0  0  0  0  0  0  0  0  0  0  0
   38.1010   32.2570   45.2190 C   0  0  0  0  0  0  0  0  0  0  0  0
   38.0610   32.1120   46.5800 N   0  0  0  0  0  0  0  0  0  0  0  0
   35.7250   29.6390   46.6290 H   0  0  0  0  0  0  0  0  0  0  0  0
   35.8470   29.9490   44.2360 H   0  0  0  0  0  0  0  0  0  0  0  0
   38.7490   32.9770   44.7480 H   0  0  0  0  0  0  0  0  0  0  0  0
   35.3100   29.5880   49.2710 C   0  0  0  0  0  0  0  0  0  0  0  0
   34.5120   30.4860   49.2760 O   0  0  0  0  0  0  0  0  0  0  0  0
   34.6230   28.2750   49.3900 C   0  0  0  0  0  0  0  0  0  0  0  0
   34.2110   27.6270   48.0630 C   0  0  0  0  0  0  0  0  0  0  0  0
   33.1670   28.1770   48.9610 C   0  0  0  0  0  0  0  0  0  0  0  0
  1  2  1  0  0  0  0
  1  5  1  0  0  0  0
  2  6  1  6  0  0  0
  2 22  1  0  0  0  0
  2  3  1  0  0  0  0
  3  8  1  0  0  0  0
  3  7  1  0  0  0  0
  4  3  1  0  0  0  0
  4 10  1  0  0  0  0
  5 11  1  0  0  0  0
  5  4  1  0  0  0  0
  9  4  1  0  0  0  0
 12  5  1  0  0  0  0
 13  1  1  0  0  0  0
 14 19  1  0  0  0  0
 14 13  2  0  0  0  0
 15 14  1  0  0  0  0
 16 15  2  0  0  0  0
 16 17  1  0  0  0  0
 17 18  2  0  0  0  0
 18 13  1  0  0  0  0
 20 15  1  0  0  0  0
 21 17  1  0  0  0  0
 22 23  2  0  0  0  0
 22 24  1  0  0  0  0
 25 26  1  0  0  0  0
 25 24  1  0  0  0  0
 26 24  1  0  0  0  0
M  END
>  <minimizedAffinity>
-5.15178823

>  <minimizedRMSD>
4.12150955

$$$$
