
 OpenBabel03272502323D

 21 22  0  0  1  0  0  0  0  0999 V2000
   37.8390   22.4450   34.4790 C   0  0  0  0  0  3  0  0  0  0  0  0
   38.3450   21.6900   33.5620 C   0  0  0  0  0  3  0  0  0  0  0  0
   38.3980   23.4090   38.0320 C   0  0  0  0  0  0  0  0  0  0  0  0
   37.8150   23.2270   36.7860 C   0  0  0  0  0  0  0  0  0  0  0  0
   38.4830   22.6020   35.7520 C   0  0  0  0  0  0  0  0  0  0  0  0
   39.7290   22.1770   36.0180 N   0  0  0  0  0  0  0  0  0  0  0  0
   40.2930   22.3470   37.2120 C   0  0  0  0  0  0  0  0  0  0  0  0
   39.6550   22.9500   38.2140 N   0  0  0  0  0  0  0  0  0  0  0  0
   37.9130   23.8920   38.8690 H   0  0  0  0  0  0  0  0  0  0  0  0
   36.8150   23.6290   36.7520 H   0  0  0  0  0  0  0  0  0  0  0  0
   41.3160   21.9850   37.3880 H   0  0  0  0  0  0  0  0  0  0  0  0
   37.5920   21.5590   32.2370 C   0  0  2  0  0  0  0  0  0  0  0  0
   38.3920   21.7060   31.4180 H   0  0  0  0  0  0  0  0  0  0  0  0
   36.7130   22.7570   32.2380 C   0  0  0  0  0  3  0  0  0  0  0  0
   35.6580   22.8490   31.2150 C   0  0  0  0  0  2  0  0  0  0  0  0
   36.8720   23.7010   31.0400 C   0  0  0  0  0  2  0  0  0  0  0  0
   36.9270   19.9270   32.1740 S   0  0  0  0  0  0  0  0  0  0  0  0
   35.3920   19.6820   33.0650 C   0  0  0  0  0  0  0  0  0  0  0  0
   35.4490   20.2480   34.3070 F   0  0  0  0  0  0  0  0  0  0  0  0
   34.3070   20.1470   32.3190 F   0  0  0  0  0  0  0  0  0  0  0  0
   35.1980   18.3080   33.1960 F   0  0  0  0  0  0  0  0  0  0  0  0
  1  5  1  0  0  0  0
  2  1  2  0  0  0  0
  3  8  1  0  0  0  0
  3  9  1  0  0  0  0
  4  3  2  0  0  0  0
  5  6  2  0  0  0  0
  5  4  1  0  0  0  0
  6  7  1  0  0  0  0
  7 11  1  0  0  0  0
  7  8  2  0  0  0  0
 10  4  1  0  0  0  0
 12 13  1  6  0  0  0
 12 14  1  0  0  0  0
 12  2  1  0  0  0  0
 15 14  1  0  0  0  0
 16 15  1  0  0  0  0
 16 14  1  0  0  0  0
 17 12  1  0  0  0  0
 17 18  1  0  0  0  0
 18 21  1  0  0  0  0
 18 19  1  0  0  0  0
 20 18  1  0  0  0  0
M  END
>  <minimizedAffinity>
-4.60572958

$$$$

 OpenBabel03272502323D

 21 22  0  0  1  0  0  0  0  0999 V2000
   37.6620   25.9060   34.7260 C   0  0  0  0  0  3  0  0  0  0  0  0
   38.5580   24.9960   34.5360 C   0  0  0  0  0  3  0  0  0  0  0  0
   36.1080   28.6040   32.6830 C   0  0  0  0  0  0  0  0  0  0  0  0
   36.7220   27.9160   33.7200 C   0  0  0  0  0  0  0  0  0  0  0  0
   37.0350   26.5750   33.6220 C   0  0  0  0  0  0  0  0  0  0  0  0
   36.7150   25.9710   32.4650 N   0  0  0  0  0  0  0  0  0  0  0  0
   36.1280   26.6260   31.4660 C   0  0  0  0  0  0  0  0  0  0  0  0
   35.8210   27.9200   31.5530 N   0  0  0  0  0  0  0  0  0  0  0  0
   35.8450   29.6520   32.7150 H   0  0  0  0  0  0  0  0  0  0  0  0
   36.9040   28.5560   34.5690 H   0  0  0  0  0  0  0  0  0  0  0  0
   35.8820   26.0940   30.5360 H   0  0  0  0  0  0  0  0  0  0  0  0
   39.1940   24.3400   35.7620 C   0  0  2  0  0  0  0  0  0  0  0  0
   39.6870   25.2040   36.3480 H   0  0  0  0  0  0  0  0  0  0  0  0
   40.2770   23.5130   35.1690 C   0  0  0  0  0  3  0  0  0  0  0  0
   40.6220   22.2410   35.8260 C   0  0  0  0  0  2  0  0  0  0  0  0
   41.5560   23.3920   36.0070 C   0  0  0  0  0  2  0  0  0  0  0  0
   37.8890   23.6160   36.7020 S   0  0  0  0  0  0  0  0  0  0  0  0
   38.1390   23.5840   38.4760 C   0  0  0  0  0  0  0  0  0  0  0  0
   37.2980   22.6920   39.0760 F   0  0  0  0  0  0  0  0  0  0  0  0
   39.4790   23.3400   38.7830 F   0  0  0  0  0  0  0  0  0  0  0  0
   37.8690   24.8640   38.9600 F   0  0  0  0  0  0  0  0  0  0  0  0
  2  1  2  0  0  0  0
  2 12  1  0  0  0  0
  3  9  1  0  0  0  0
  3  4  1  0  0  0  0
  4 10  1  0  0  0  0
  5  4  2  0  0  0  0
  5  1  1  0  0  0  0
  6  5  1  0  0  0  0
  7  8  1  0  0  0  0
  7  6  2  0  0  0  0
  8  3  2  0  0  0  0
 11  7  1  0  0  0  0
 12 13  1  1  0  0  0
 12 17  1  0  0  0  0
 14 12  1  0  0  0  0
 14 15  1  0  0  0  0
 14 16  1  0  0  0  0
 15 16  1  0  0  0  0
 17 18  1  0  0  0  0
 18 20  1  0  0  0  0
 18 21  1  0  0  0  0
 18 19  1  0  0  0  0
M  END
>  <minimizedAffinity>
-4.47973251

$$$$

 OpenBabel03272502323D

 21 22  0  0  1  0  0  0  0  0999 V2000
   37.3910   22.1000   34.3160 C   0  0  0  0  0  3  0  0  0  0  0  0
   38.0070   23.2110   34.0800 C   0  0  0  0  0  3  0  0  0  0  0  0
   35.3210   19.6530   32.4220 C   0  0  0  0  0  0  0  0  0  0  0  0
   35.8030   20.4830   33.4240 C   0  0  0  0  0  0  0  0  0  0  0  0
   36.9280   21.2640   33.2460 C   0  0  0  0  0  0  0  0  0  0  0  0
   37.5320   21.1760   32.0490 N   0  0  0  0  0  0  0  0  0  0  0  0
   37.0730   20.3830   31.0840 C   0  0  0  0  0  0  0  0  0  0  0  0
   35.9880   19.6260   31.2470 N   0  0  0  0  0  0  0  0  0  0  0  0
   34.4450   19.0260   32.5160 H   0  0  0  0  0  0  0  0  0  0  0  0
   35.1960   20.4270   34.3130 H   0  0  0  0  0  0  0  0  0  0  0  0
   37.5970   20.3400   30.1180 H   0  0  0  0  0  0  0  0  0  0  0  0
   38.4550   24.0570   35.2710 C   0  0  2  0  0  0  0  0  0  0  0  0
   39.5970   24.1720   35.1500 H   0  0  0  0  0  0  0  0  0  0  0  0
   38.2070   23.1550   36.4270 C   0  0  0  0  0  3  0  0  0  0  0  0
   37.9490   23.7630   37.7430 C   0  0  0  0  0  2  0  0  0  0  0  0
   39.2910   23.1510   37.5120 C   0  0  0  0  0  2  0  0  0  0  0  0
   37.6520   25.6200   35.1330 S   0  0  0  0  0  0  0  0  0  0  0  0
   38.4710   26.9860   35.9540 C   0  0  0  0  0  0  0  0  0  0  0  0
   38.3250   26.9040   37.3090 F   0  0  0  0  0  0  0  0  0  0  0  0
   39.8110   27.0640   35.5680 F   0  0  0  0  0  0  0  0  0  0  0  0
   37.8790   28.1640   35.5000 F   0  0  0  0  0  0  0  0  0  0  0  0
  2  1  2  0  0  0  0
  2 12  1  0  0  0  0
  3  9  1  0  0  0  0
  3  4  1  0  0  0  0
  4 10  1  0  0  0  0
  5  4  2  0  0  0  0
  5  1  1  0  0  0  0
  6  5  1  0  0  0  0
  7  8  1  0  0  0  0
  7  6  2  0  0  0  0
  8  3  2  0  0  0  0
 11  7  1  0  0  0  0
 12 13  1  6  0  0  0
 12 14  1  0  0  0  0
 14 16  1  0  0  0  0
 14 15  1  0  0  0  0
 16 15  1  0  0  0  0
 17 12  1  0  0  0  0
 17 18  1  0  0  0  0
 18 19  1  0  0  0  0
 20 18  1  0  0  0  0
 21 18  1  0  0  0  0
M  END
>  <minimizedAffinity>
-4.46406937

$$$$

 OpenBabel03272502323D

 21 22  0  0  1  0  0  0  0  0999 V2000
   35.6250   29.7530   34.0740 C   0  0  0  0  0  3  0  0  0  0  0  0
   36.2370   28.6570   34.3760 C   0  0  0  0  0  3  0  0  0  0  0  0
   34.9520   32.1540   36.8400 C   0  0  0  0  0  0  0  0  0  0  0  0
   35.5940   31.4090   35.8610 C   0  0  0  0  0  0  0  0  0  0  0  0
   34.9140   30.5060   35.0670 C   0  0  0  0  0  0  0  0  0  0  0  0
   33.5950   30.3890   35.2940 N   0  0  0  0  0  0  0  0  0  0  0  0
   32.9730   31.1030   36.2300 C   0  0  0  0  0  0  0  0  0  0  0  0
   33.6230   31.9760   37.0000 N   0  0  0  0  0  0  0  0  0  0  0  0
   35.4430   32.8720   37.4820 H   0  0  0  0  0  0  0  0  0  0  0  0
   36.6490   31.6310   35.8200 H   0  0  0  0  0  0  0  0  0  0  0  0
   31.8920   30.9770   36.3830 H   0  0  0  0  0  0  0  0  0  0  0  0
   36.9580   27.9000   33.2610 C   0  0  2  0  0  0  0  0  0  0  0  0
   37.7760   28.6210   32.8840 H   0  0  0  0  0  0  0  0  0  0  0  0
   35.9160   27.7990   32.2050 C   0  0  0  0  0  3  0  0  0  0  0  0
   36.0010   26.6850   31.2460 C   0  0  0  0  0  2  0  0  0  0  0  0
   36.3980   28.0440   30.7700 C   0  0  0  0  0  2  0  0  0  0  0  0
   37.6780   26.4630   33.9860 S   0  0  0  0  0  0  0  0  0  0  0  0
   39.1930   26.7370   34.9030 C   0  0  0  0  0  0  0  0  0  0  0  0
   39.6930   25.5630   35.3880 F   0  0  0  0  0  0  0  0  0  0  0  0
   40.1230   27.4310   34.1270 F   0  0  0  0  0  0  0  0  0  0  0  0
   38.8890   27.5810   35.9710 F   0  0  0  0  0  0  0  0  0  0  0  0
  1  2  2  0  0  0  0
  1  5  1  0  0  0  0
  3  8  1  0  0  0  0
  3  9  1  0  0  0  0
  4  3  2  0  0  0  0
  5  6  2  0  0  0  0
  5  4  1  0  0  0  0
  6  7  1  0  0  0  0
  7 11  1  0  0  0  0
  7  8  2  0  0  0  0
 10  4  1  0  0  0  0
 12 13  1  6  0  0  0
 12 17  1  0  0  0  0
 12  2  1  0  0  0  0
 14 12  1  0  0  0  0
 15 14  1  0  0  0  0
 16 15  1  0  0  0  0
 16 14  1  0  0  0  0
 17 18  1  0  0  0  0
 18 19  1  0  0  0  0
 18 21  1  0  0  0  0
 20 18  1  0  0  0  0
M  END
>  <minimizedAffinity>
-4.3978591

$$$$

 OpenBabel03272502323D

 21 22  0  0  1  0  0  0  0  0999 V2000
   38.3450   24.4010   33.5450 C   0  0  0  0  0  3  0  0  0  0  0  0
   38.4340   24.9220   34.7230 C   0  0  0  0  0  3  0  0  0  0  0  0
   35.9600   26.5030   31.6050 C   0  0  0  0  0  0  0  0  0  0  0  0
   36.9800   26.1000   32.4560 C   0  0  0  0  0  0  0  0  0  0  0  0
   37.2870   24.7680   32.6480 C   0  0  0  0  0  0  0  0  0  0  0  0
   36.5440   23.8810   31.9640 N   0  0  0  0  0  0  0  0  0  0  0  0
   35.5660   24.2610   31.1450 C   0  0  0  0  0  0  0  0  0  0  0  0
   35.2640   25.5460   30.9550 N   0  0  0  0  0  0  0  0  0  0  0  0
   35.6860   27.5330   31.4250 H   0  0  0  0  0  0  0  0  0  0  0  0
   37.4670   26.9430   32.9200 H   0  0  0  0  0  0  0  0  0  0  0  0
   34.9830   23.5030   30.6030 H   0  0  0  0  0  0  0  0  0  0  0  0
   39.5790   24.4690   35.6290 C   0  0  2  0  0  0  0  0  0  0  0  0
   39.8460   25.3930   36.2670 H   0  0  0  0  0  0  0  0  0  0  0  0
   40.6900   24.2410   34.6670 C   0  0  0  0  0  3  0  0  0  0  0  0
   41.8310   23.4190   35.1020 C   0  0  0  0  0  2  0  0  0  0  0  0
   42.0270   24.8980   35.0280 C   0  0  0  0  0  2  0  0  0  0  0  0
   38.9570   23.1670   36.6440 S   0  0  0  0  0  0  0  0  0  0  0  0
   38.3890   23.6600   38.2710 C   0  0  0  0  0  0  0  0  0  0  0  0
   37.3200   22.9090   38.6670 F   0  0  0  0  0  0  0  0  0  0  0  0
   39.4370   23.6210   39.1930 F   0  0  0  0  0  0  0  0  0  0  0  0
   38.0060   24.9990   38.1930 F   0  0  0  0  0  0  0  0  0  0  0  0
  1  2  2  0  0  0  0
  2 12  1  0  0  0  0
  3  4  1  0  0  0  0
  4  5  2  0  0  0  0
  4 10  1  0  0  0  0
  5  1  1  0  0  0  0
  6  5  1  0  0  0  0
  7  6  2  0  0  0  0
  8  7  1  0  0  0  0
  8  3  2  0  0  0  0
  9  3  1  0  0  0  0
 11  7  1  0  0  0  0
 12 13  1  1  0  0  0
 12 17  1  0  0  0  0
 14 16  1  0  0  0  0
 14 15  1  0  0  0  0
 14 12  1  0  0  0  0
 16 15  1  0  0  0  0
 17 18  1  0  0  0  0
 18 19  1  0  0  0  0
 18 20  1  0  0  0  0
 21 18  1  0  0  0  0
M  END
>  <minimizedAffinity>
-4.29681826

$$$$

 OpenBabel03272502323D

 21 22  0  0  1  0  0  0  0  0999 V2000
   38.4710   24.8600   34.6040 C   0  0  0  0  0  3  0  0  0  0  0  0
   38.1520   24.1370   33.5830 C   0  0  0  0  0  3  0  0  0  0  0  0
   38.0590   24.1140   38.2290 C   0  0  0  0  0  0  0  0  0  0  0  0
   37.8890   24.6490   36.9610 C   0  0  0  0  0  0  0  0  0  0  0  0
   38.6820   24.2710   35.8960 C   0  0  0  0  0  0  0  0  0  0  0  0
   39.6290   23.3540   36.1550 N   0  0  0  0  0  0  0  0  0  0  0  0
   39.7970   22.8360   37.3690 C   0  0  0  0  0  0  0  0  0  0  0  0
   39.0350   23.1960   38.4020 N   0  0  0  0  0  0  0  0  0  0  0  0
   37.4620   24.3800   39.0910 H   0  0  0  0  0  0  0  0  0  0  0  0
   37.0850   25.3680   36.9370 H   0  0  0  0  0  0  0  0  0  0  0  0
   40.5840   22.0880   37.5390 H   0  0  0  0  0  0  0  0  0  0  0  0
   37.9270   24.8390   32.2430 C   0  0  2  0  0  0  0  0  0  0  0  0
   38.9670   25.2240   31.9230 H   0  0  0  0  0  0  0  0  0  0  0  0
   37.1010   26.0150   32.6230 C   0  0  0  0  0  3  0  0  0  0  0  0
   36.3220   26.6890   31.5700 C   0  0  0  0  0  2  0  0  0  0  0  0
   37.5640   27.3630   32.0560 C   0  0  0  0  0  2  0  0  0  0  0  0
   37.3350   23.6230   31.1110 S   0  0  0  0  0  0  0  0  0  0  0  0
   35.8090   22.8080   31.5790 C   0  0  0  0  0  0  0  0  0  0  0  0
   35.3580   21.9960   30.5790 F   0  0  0  0  0  0  0  0  0  0  0  0
   35.9640   22.1260   32.7880 F   0  0  0  0  0  0  0  0  0  0  0  0
   34.8620   23.8010   31.8260 F   0  0  0  0  0  0  0  0  0  0  0  0
  1  5  1  0  0  0  0
  2  1  2  0  0  0  0
  3  8  1  0  0  0  0
  3  9  1  0  0  0  0
  4  3  2  0  0  0  0
  5  6  2  0  0  0  0
  5  4  1  0  0  0  0
  6  7  1  0  0  0  0
  7 11  1  0  0  0  0
  7  8  2  0  0  0  0
 10  4  1  0  0  0  0
 12 13  1  6  0  0  0
 12 14  1  0  0  0  0
 12  2  1  0  0  0  0
 15 16  1  0  0  0  0
 15 14  1  0  0  0  0
 16 14  1  0  0  0  0
 17 18  1  0  0  0  0
 17 12  1  0  0  0  0
 18 21  1  0  0  0  0
 18 20  1  0  0  0  0
 19 18  1  0  0  0  0
M  END
>  <minimizedAffinity>
-4.25293398

$$$$

 OpenBabel03272502323D

 21 22  0  0  1  0  0  0  0  0999 V2000
   35.5530   29.6170   33.5440 C   0  0  0  0  0  3  0  0  0  0  0  0
   34.6380   29.7490   34.4460 C   0  0  0  0  0  3  0  0  0  0  0  0
   37.2470   26.3020   33.4670 C   0  0  0  0  0  0  0  0  0  0  0  0
   36.8130   27.5580   33.8680 C   0  0  0  0  0  0  0  0  0  0  0  0
   35.9660   28.3210   33.0890 C   0  0  0  0  0  0  0  0  0  0  0  0
   35.5840   27.7810   31.9190 N   0  0  0  0  0  0  0  0  0  0  0  0
   35.9960   26.5770   31.5300 C   0  0  0  0  0  0  0  0  0  0  0  0
   36.8130   25.8340   32.2760 N   0  0  0  0  0  0  0  0  0  0  0  0
   37.9080   25.6700   34.0430 H   0  0  0  0  0  0  0  0  0  0  0  0
   37.2180   27.8300   34.8300 H   0  0  0  0  0  0  0  0  0  0  0  0
   35.6590   26.1710   30.5650 H   0  0  0  0  0  0  0  0  0  0  0  0
   34.2630   31.1620   34.8930 C   0  0  2  0  0  0  0  0  0  0  0  0
   34.4980   31.8400   33.9890 H   0  0  0  0  0  0  0  0  0  0  0  0
   35.2650   31.4490   35.9530 C   0  0  0  0  0  3  0  0  0  0  0  0
   35.0610   32.6340   36.8030 C   0  0  0  0  0  2  0  0  0  0  0  0
   36.1110   32.7110   35.7430 C   0  0  0  0  0  2  0  0  0  0  0  0
   32.5330   31.1590   35.2370 S   0  0  0  0  0  0  0  0  0  0  0  0
   32.0340   30.2310   36.6860 C   0  0  0  0  0  0  0  0  0  0  0  0
   32.2530   28.8950   36.5140 F   0  0  0  0  0  0  0  0  0  0  0  0
   32.6600   30.7290   37.8310 F   0  0  0  0  0  0  0  0  0  0  0  0
   30.6700   30.4520   36.8760 F   0  0  0  0  0  0  0  0  0  0  0  0
  1  2  2  0  0  0  0
  2 12  1  0  0  0  0
  3  4  1  0  0  0  0
  3  9  1  0  0  0  0
  4 10  1  0  0  0  0
  5  1  1  0  0  0  0
  5  4  2  0  0  0  0
  6  5  1  0  0  0  0
  7  6  2  0  0  0  0
  7  8  1  0  0  0  0
  8  3  2  0  0  0  0
 11  7  1  0  0  0  0
 12 13  1  6  0  0  0
 12 17  1  0  0  0  0
 12 14  1  0  0  0  0
 14 15  1  0  0  0  0
 16 14  1  0  0  0  0
 16 15  1  0  0  0  0
 17 18  1  0  0  0  0
 18 21  1  0  0  0  0
 18 20  1  0  0  0  0
 19 18  1  0  0  0  0
M  END
>  <minimizedAffinity>
-4.21801186

$$$$

 OpenBabel03272502323D

 21 22  0  0  1  0  0  0  0  0999 V2000
   36.1610   29.2460   32.4430 C   0  0  0  0  0  3  0  0  0  0  0  0
   35.0520   29.7890   32.8200 C   0  0  0  0  0  3  0  0  0  0  0  0
   37.2640   25.7860   33.2690 C   0  0  0  0  0  0  0  0  0  0  0  0
   37.0880   27.1630   33.3010 C   0  0  0  0  0  0  0  0  0  0  0  0
   36.3050   27.8200   32.3730 C   0  0  0  0  0  0  0  0  0  0  0  0
   35.7210   27.0540   31.4370 N   0  0  0  0  0  0  0  0  0  0  0  0
   35.8840   25.7330   31.4020 C   0  0  0  0  0  0  0  0  0  0  0  0
   36.6390   25.0910   32.2940 N   0  0  0  0  0  0  0  0  0  0  0  0
   37.8670   25.2310   33.9740 H   0  0  0  0  0  0  0  0  0  0  0  0
   37.6300   27.6140   34.1170 H   0  0  0  0  0  0  0  0  0  0  0  0
   35.3880   25.1420   30.6200 H   0  0  0  0  0  0  0  0  0  0  0  0
   34.9810   31.3150   32.8860 C   0  0  2  0  0  0  0  0  0  0  0  0
   34.1300   31.6110   32.1650 H   0  0  0  0  0  0  0  0  0  0  0  0
   36.2680   31.7320   32.2700 C   0  0  0  0  0  3  0  0  0  0  0  0
   36.7010   33.1300   32.4370 C   0  0  0  0  0  2  0  0  0  0  0  0
   36.1580   32.7240   31.1060 C   0  0  0  0  0  2  0  0  0  0  0  0
   34.5710   31.7460   34.5460 S   0  0  0  0  0  0  0  0  0  0  0  0
   35.8810   31.5260   35.7490 C   0  0  0  0  0  0  0  0  0  0  0  0
   36.4260   30.2770   35.6580 F   0  0  0  0  0  0  0  0  0  0  0  0
   36.8400   32.5340   35.6270 F   0  0  0  0  0  0  0  0  0  0  0  0
   35.3200   31.6900   37.0150 F   0  0  0  0  0  0  0  0  0  0  0  0
  1  2  2  0  0  0  0
  2 12  1  0  0  0  0
  3  4  1  0  0  0  0
  3  9  1  0  0  0  0
  4 10  1  0  0  0  0
  5  1  1  0  0  0  0
  5  4  2  0  0  0  0
  6  5  1  0  0  0  0
  7  6  2  0  0  0  0
  7  8  1  0  0  0  0
  8  3  2  0  0  0  0
 11  7  1  0  0  0  0
 12 13  1  6  0  0  0
 12 17  1  0  0  0  0
 14 15  1  0  0  0  0
 14 12  1  0  0  0  0
 16 14  1  0  0  0  0
 16 15  1  0  0  0  0
 17 18  1  0  0  0  0
 18 21  1  0  0  0  0
 19 18  1  0  0  0  0
 20 18  1  0  0  0  0
M  END
>  <minimizedAffinity>
-4.02811241

$$$$

 OpenBabel03272502323D

 21 22  0  0  1  0  0  0  0  0999 V2000
   38.3840   24.9090   34.8250 C   0  0  0  0  0  3  0  0  0  0  0  0
   37.5410   25.8770   34.6860 C   0  0  0  0  0  3  0  0  0  0  0  0
   38.0610   24.1440   38.4550 C   0  0  0  0  0  0  0  0  0  0  0  0
   37.8630   24.6890   37.1950 C   0  0  0  0  0  0  0  0  0  0  0  0
   38.6220   24.3080   36.1060 C   0  0  0  0  0  0  0  0  0  0  0  0
   39.5650   23.3790   36.3330 N   0  0  0  0  0  0  0  0  0  0  0  0
   39.7590   22.8500   37.5400 C   0  0  0  0  0  0  0  0  0  0  0  0
   39.0300   23.2130   38.5950 N   0  0  0  0  0  0  0  0  0  0  0  0
   37.4910   24.4110   39.3340 H   0  0  0  0  0  0  0  0  0  0  0  0
   37.0680   25.4180   37.1980 H   0  0  0  0  0  0  0  0  0  0  0  0
   40.5410   22.0910   37.6830 H   0  0  0  0  0  0  0  0  0  0  0  0
   37.3540   26.4770   33.2920 C   0  0  2  0  0  0  0  0  0  0  0  0
   36.6830   25.7280   32.7260 H   0  0  0  0  0  0  0  0  0  0  0  0
   38.7200   26.3960   32.7120 C   0  0  0  0  0  3  0  0  0  0  0  0
   39.1170   27.4080   31.7190 C   0  0  0  0  0  2  0  0  0  0  0  0
   38.7900   26.0380   31.2230 C   0  0  0  0  0  2  0  0  0  0  0  0
   36.5290   28.0230   33.4960 S   0  0  0  0  0  0  0  0  0  0  0  0
   35.7450   28.6810   32.0260 C   0  0  0  0  0  0  0  0  0  0  0  0
   35.8230   27.7960   30.9890 F   0  0  0  0  0  0  0  0  0  0  0  0
   34.4310   29.0680   32.2960 F   0  0  0  0  0  0  0  0  0  0  0  0
   36.4190   29.8520   31.6800 F   0  0  0  0  0  0  0  0  0  0  0  0
  1  5  1  0  0  0  0
  2  1  2  0  0  0  0
  3  8  1  0  0  0  0
  3  9  1  0  0  0  0
  4 10  1  0  0  0  0
  4  3  2  0  0  0  0
  5  6  2  0  0  0  0
  5  4  1  0  0  0  0
  6  7  1  0  0  0  0
  7 11  1  0  0  0  0
  7  8  2  0  0  0  0
 12 13  1  6  0  0  0
 12 17  1  0  0  0  0
 12  2  1  0  0  0  0
 14 12  1  0  0  0  0
 15 14  1  0  0  0  0
 16 15  1  0  0  0  0
 16 14  1  0  0  0  0
 18 20  1  0  0  0  0
 18 17  1  0  0  0  0
 19 18  1  0  0  0  0
 21 18  1  0  0  0  0
M  END
>  <minimizedAffinity>
-3.95660543

$$$$
