
 OpenBabel03272507273D

 33 35  0  0  1  0  0  0  0  0999 V2000
   36.9520   30.2750   49.0610 C   0  0  0  0  0  0  0  0  0  0  0  0
   37.9340   30.9040   48.2690 C   0  0  0  0  0  0  0  0  0  0  0  0
   37.6540   31.0840   46.9080 C   0  0  0  0  0  0  0  0  0  0  0  0
   36.4790   30.6530   46.4410 N   0  0  0  0  0  0  0  0  0  0  0  0
   35.5620   30.0560   47.2190 C   0  0  0  0  0  0  0  0  0  0  0  0
   35.8000   29.8700   48.5240 N   0  0  0  0  0  0  0  0  0  0  0  0
   38.5980   31.7050   46.0740 N   0  0  0  0  0  0  0  0  0  0  0  0
   39.5900   32.6980   46.5040 C   0  0  0  0  0  0  0  0  0  0  0  0
   40.2060   33.2630   45.2560 C   0  0  0  0  0  0  0  0  0  0  0  0
   39.2320   32.8950   44.2100 C   0  0  0  0  0  0  0  0  0  0  0  0
   38.7960   31.5120   44.6720 C   0  0  2  0  0  0  0  0  0  0  0  0
   37.2760   30.1870   50.1080 H   0  0  0  0  0  0  0  0  0  0  0  0
   38.8860   31.2580   48.6250 H   0  0  0  0  0  0  0  0  0  0  0  0
   34.6040   29.6980   46.8650 H   0  0  0  0  0  0  0  0  0  0  0  0
   40.3450   32.1080   47.0670 H   0  0  0  0  0  0  0  0  0  0  0  0
   39.1130   33.4440   47.1370 H   0  0  0  0  0  0  0  0  0  0  0  0
   40.1700   34.3820   45.3750 H   0  0  0  0  0  0  0  0  0  0  0  0
   41.2450   32.9760   45.1030 H   0  0  0  0  0  0  0  0  0  0  0  0
   39.6400   32.8680   43.1810 H   0  0  0  0  0  0  0  0  0  0  0  0
   38.3820   33.5940   44.2090 H   0  0  0  0  0  0  0  0  0  0  0  0
   37.6660   30.9720   43.8720 C   0  0  0  0  0  0  0  0  0  0  0  0
   36.5390   31.7020   44.2240 F   0  0  0  0  0  0  0  0  0  0  0  0
   37.3810   29.6590   44.0630 F   0  0  0  0  0  0  0  0  0  0  0  0
   37.9290   31.2850   42.5490 F   0  0  0  0  0  0  0  0  0  0  0  0
   39.9600   30.5960   44.5460 C   0  0  0  0  0  0  0  0  0  0  0  0
   39.7060   29.7020   45.1530 H   0  0  0  0  0  0  0  0  0  0  0  0
   40.8090   31.0900   45.1110 H   0  0  0  0  0  0  0  0  0  0  0  0
   40.2970   30.6100   43.3480 O   0  0  0  0  0  0  0  0  0  0  0  0
   40.8030   29.7280   42.4630 C   0  0  0  0  0  0  0  0  0  0  0  0
   40.1850   28.6420   42.5960 O   0  0  0  0  0  0  0  0  0  0  0  0
   41.6250   29.1760   41.4080 C   0  0  0  0  0  3  0  0  0  0  0  0
   41.1170   28.7290   40.0970 C   0  0  0  0  0  2  0  0  0  0  0  0
   41.7930   30.0250   40.1620 C   0  0  0  0  0  2  0  0  0  0  0  0
  1 12  1  0  0  0  0
  2 13  1  0  0  0  0
  2  1  2  0  0  0  0
  3  2  1  0  0  0  0
  4  3  2  0  0  0  0
  4  5  1  0  0  0  0
  5  6  2  0  0  0  0
  6  1  1  0  0  0  0
  7  8  1  0  0  0  0
  7  3  1  0  0  0  0
  8 15  1  0  0  0  0
  8 16  1  0  0  0  0
  9 17  1  0  0  0  0
  9  8  1  0  0  0  0
 10 11  1  0  0  0  0
 10  9  1  0  0  0  0
 11 21  1  6  0  0  0
 11  7  1  0  0  0  0
 14  5  1  0  0  0  0
 18  9  1  0  0  0  0
 19 10  1  0  0  0  0
 20 10  1  0  0  0  0
 21 23  1  0  0  0  0
 21 22  1  0  0  0  0
 24 21  1  0  0  0  0
 25 11  1  0  0  0  0
 25 27  1  0  0  0  0
 25 26  1  0  0  0  0
 28 25  1  0  0  0  0
 29 30  2  0  0  0  0
 29 28  1  0  0  0  0
 31 29  1  0  0  0  0
 32 33  1  0  0  0  0
 32 31  1  0  0  0  0
 33 31  1  0  0  0  0
M  END
>  <minimizedAffinity>
-4.7869854

>  <minimizedRMSD>
0.680238783

$$$$
