
 OpenBabel03272509313D

 32 34  0  0  1  0  0  0  0  0999 V2000
   36.1300   30.7300   49.0800 C   0  0  2  0  0  0  0  0  0  0  0  0
   37.1160   31.6360   49.7520 C   0  0  0  0  0  0  0  0  0  0  0  0
   38.1150   30.8920   50.6110 C   0  0  0  0  0  0  0  0  0  0  0  0
   37.3990   30.0390   51.6540 C   0  0  0  0  0  0  0  0  0  0  0  0
   36.1260   29.4090   51.1590 C   0  0  0  0  0  0  0  0  0  0  0  0
   36.1830   29.3370   49.6240 C   0  0  1  0  0  0  0  0  0  0  0  0
   35.0600   31.0590   49.1790 H   0  0  0  0  0  0  0  0  0  0  0  0
   36.4880   32.2010   50.5240 H   0  0  0  0  0  0  0  0  0  0  0  0
   37.5760   32.4060   49.1620 H   0  0  0  0  0  0  0  0  0  0  0  0
   38.8660   30.3280   50.0590 H   0  0  0  0  0  0  0  0  0  0  0  0
   38.6680   31.6630   51.1900 H   0  0  0  0  0  0  0  0  0  0  0  0
   37.2360   30.5670   52.6050 H   0  0  0  0  0  0  0  0  0  0  0  0
   38.1000   29.1790   51.8610 H   0  0  0  0  0  0  0  0  0  0  0  0
   35.9740   28.3880   51.5150 H   0  0  0  0  0  0  0  0  0  0  0  0
   35.2620   30.0780   51.4130 H   0  0  0  0  0  0  0  0  0  0  0  0
   37.1600   28.9360   49.4820 H   0  0  0  0  0  0  0  0  0  0  0  0
   36.3760   30.6720   47.6160 C   0  0  0  0  0  0  0  0  0  0  0  0
   37.6270   31.1190   47.1860 C   0  0  0  0  0  0  0  0  0  0  0  0
   37.8790   31.0660   45.8090 C   0  0  0  0  0  0  0  0  0  0  0  0
   36.9030   30.5890   44.9730 N   0  0  0  0  0  0  0  0  0  0  0  0
   35.6840   30.1580   45.4490 C   0  0  0  0  0  0  0  0  0  0  0  0
   35.4500   30.2110   46.7600 N   0  0  0  0  0  0  0  0  0  0  0  0
   38.4730   31.5020   47.7180 H   0  0  0  0  0  0  0  0  0  0  0  0
   38.7960   31.3780   45.3400 H   0  0  0  0  0  0  0  0  0  0  0  0
   34.9420   29.7880   44.7590 H   0  0  0  0  0  0  0  0  0  0  0  0
   33.8610   28.3550   49.2480 C   0  0  0  0  0  0  0  0  0  0  0  0
   33.1180   29.0120   50.0310 O   0  0  0  0  0  0  0  0  0  0  0  0
   35.2750   28.4150   49.0450 N   0  0  0  0  0  0  0  0  0  0  0  0
   35.6230   27.6560   48.3750 H   0  0  0  0  0  0  0  0  0  0  0  0
   33.0260   27.3790   48.4430 C   0  0  0  0  0  3  0  0  0  0  0  0
   31.5430   27.6020   48.3410 C   0  0  0  0  0  2  0  0  0  0  0  0
   32.3740   27.9280   47.1580 C   0  0  0  0  0  2  0  0  0  0  0  0
  1  7  1  1  0  0  0
  1  6  1  0  0  0  0
  1  2  1  0  0  0  0
  2  8  1  0  0  0  0
  2  3  1  0  0  0  0
  3 11  1  0  0  0  0
  3  4  1  0  0  0  0
  4 13  1  0  0  0  0
  4 12  1  0  0  0  0
  5 15  1  0  0  0  0
  5 14  1  0  0  0  0
  5  4  1  0  0  0  0
  6 16  1  6  0  0  0
  6  5  1  0  0  0  0
  9  2  1  0  0  0  0
 10  3  1  0  0  0  0
 17  1  1  0  0  0  0
 18 17  1  0  0  0  0
 18 23  1  0  0  0  0
 19 18  2  0  0  0  0
 20 21  2  0  0  0  0
 20 19  1  0  0  0  0
 21 22  1  0  0  0  0
 22 17  2  0  0  0  0
 24 19  1  0  0  0  0
 25 21  1  0  0  0  0
 26 27  2  0  0  0  0
 28 26  1  0  0  0  0
 28  6  1  0  0  0  0
 29 28  1  0  0  0  0
 30 26  1  0  0  0  0
 31 30  1  0  0  0  0
 32 31  1  0  0  0  0
 32 30  1  0  0  0  0
M  END
>  <minimizedAffinity>
-5.66285467

>  <minimizedRMSD>
0.598353922

$$$$
