
 OpenBabel03272508343D

 19 21  0  0  0  0  0  0  0  0999 V2000
   37.7910   31.1390   48.2450 C   0  0  0  0  0  0  0  0  0  0  0  0
   38.4080   30.6660   47.1070 C   0  0  0  0  0  0  0  0  0  0  0  0
   39.2130   31.6880   46.6080 C   0  0  0  0  0  0  0  0  0  0  0  0
   39.0570   32.7270   47.4480 N   0  0  0  0  0  0  0  0  0  0  0  0
   38.1990   32.4140   48.4470 N   0  0  0  0  0  0  0  0  0  0  0  0
   38.3180   29.6950   46.6470 H   0  0  0  0  0  0  0  0  0  0  0  0
   39.8260   31.6530   45.7390 H   0  0  0  0  0  0  0  0  0  0  0  0
   36.0120   29.4250   51.0820 C   0  0  0  0  0  0  0  0  0  0  0  0
   36.9470   30.2290   50.4310 C   0  0  0  0  0  0  0  0  0  0  0  0
   36.8680   30.3290   49.0340 C   0  0  0  0  0  0  0  0  0  0  0  0
   35.8760   29.6300   48.3810 N   0  0  0  0  0  0  0  0  0  0  0  0
   34.9870   28.8580   49.0630 C   0  0  0  0  0  0  0  0  0  0  0  0
   35.0510   28.7540   50.3990 N   0  0  0  0  0  0  0  0  0  0  0  0
   36.0740   29.3510   52.1600 H   0  0  0  0  0  0  0  0  0  0  0  0
   37.7210   30.7760   50.9290 H   0  0  0  0  0  0  0  0  0  0  0  0
   34.2610   28.3650   48.4260 H   0  0  0  0  0  0  0  0  0  0  0  0
   39.6980   34.0100   47.3340 C   0  0  0  0  0  3  0  0  0  0  0  0
   39.7140   34.9490   48.4680 C   0  0  0  0  0  2  0  0  0  0  0  0
   40.9850   34.2370   48.1680 C   0  0  0  0  0  2  0  0  0  0  0  0
  1  5  2  0  0  0  0
  1 10  1  0  0  0  0
  2  1  1  0  0  0  0
  3  2  2  0  0  0  0
  3  4  1  0  0  0  0
  4  5  1  0  0  0  0
  6  2  1  0  0  0  0
  7  3  1  0  0  0  0
  8 14  1  0  0  0  0
  9 15  1  0  0  0  0
  9  8  1  0  0  0  0
 10  9  2  0  0  0  0
 11 10  1  0  0  0  0
 11 12  2  0  0  0  0
 12 13  1  0  0  0  0
 13  8  2  0  0  0  0
 16 12  1  0  0  0  0
 17  4  1  0  0  0  0
 17 19  1  0  0  0  0
 17 18  1  0  0  0  0
 19 18  1  0  0  0  0
M  END
>  <minimizedAffinity>
-2.71313047

>  <minimizedRMSD>
1.21510684

$$$$
