
 OpenBabel03272506443D

 26 28  0  0  1  0  0  0  0  0999 V2000
   38.8310   26.7420   35.5400 C   0  0  2  0  0  0  0  0  0  0  0  0
   38.5900   26.6830   34.0430 C   0  0  1  0  0  0  0  0  0  0  0  0
   38.3560   25.3660   33.7020 O   0  0  0  0  0  0  0  0  0  0  0  0
   38.2120   24.6180   34.8550 C   0  0  0  0  0  0  0  0  0  0  0  0
   37.9310   25.6210   35.9850 C   0  0  1  0  0  0  0  0  0  0  0  0
   39.8850   26.5760   35.8070 H   0  0  0  0  0  0  0  0  0  0  0  0
   39.4440   27.1140   33.5130 H   0  0  0  0  0  0  0  0  0  0  0  0
   37.3020   23.9840   34.7240 H   0  0  0  0  0  0  0  0  0  0  0  0
   39.0560   23.9640   35.1030 H   0  0  0  0  0  0  0  0  0  0  0  0
   36.8860   25.9300   35.9700 H   0  0  0  0  0  0  0  0  0  0  0  0
   38.4480   27.9680   36.0570 O   0  0  0  0  0  0  0  0  0  0  0  0
   37.4770   28.0090   36.0360 H   0  0  0  0  0  0  0  0  0  0  0  0
   37.0540   27.6100   33.7270 S   0  0  0  0  0  0  0  0  0  0  0  0
   38.1330   28.3240   29.9820 C   0  0  0  0  0  0  0  0  0  0  0  0
   37.2700   29.3330   29.5370 C   0  0  0  0  0  0  0  0  0  0  0  0
   36.3190   29.8060   30.4360 C   0  0  0  0  0  0  0  0  0  0  0  0
   36.2640   29.2790   31.6950 N   0  0  0  0  0  0  0  0  0  0  0  0
   37.1190   28.3050   32.0790 C   0  0  0  0  0  0  0  0  0  0  0  0
   38.0510   27.8250   31.2330 N   0  0  0  0  0  0  0  0  0  0  0  0
   38.8640   27.9700   29.2690 H   0  0  0  0  0  0  0  0  0  0  0  0
   37.3110   29.7510   28.5400 H   0  0  0  0  0  0  0  0  0  0  0  0
   35.6060   30.5980   30.1590 H   0  0  0  0  0  0  0  0  0  0  0  0
   38.2730   25.0750   37.1930 O   0  0  0  0  0  0  0  0  0  0  0  0
   38.4040   23.7070   37.2050 C   0  0  0  0  0  3  0  0  0  0  0  0
   38.2700   23.0910   38.5980 C   0  0  0  0  0  2  0  0  0  0  0  0
   39.5510   23.0300   37.8530 C   0  0  0  0  0  2  0  0  0  0  0  0
  1  6  1  1  0  0  0
  1  5  1  0  0  0  0
  1 11  1  0  0  0  0
  2  7  1  6  0  0  0
  2  1  1  0  0  0  0
  3  2  1  0  0  0  0
  3  4  1  0  0  0  0
  4  9  1  0  0  0  0
  4  5  1  0  0  0  0
  5 10  1  6  0  0  0
  5 23  1  0  0  0  0
  8  4  1  0  0  0  0
 12 11  1  0  0  0  0
 13  2  1  0  0  0  0
 14 19  1  0  0  0  0
 15 14  2  0  0  0  0
 15 16  1  0  0  0  0
 16 17  2  0  0  0  0
 17 18  1  0  0  0  0
 18 13  1  0  0  0  0
 19 18  2  0  0  0  0
 20 14  1  0  0  0  0
 21 15  1  0  0  0  0
 22 16  1  0  0  0  0
 23 24  1  0  0  0  0
 24 26  1  0  0  0  0
 24 25  1  0  0  0  0
 26 25  1  0  0  0  0
M  END
>  <minimizedAffinity>
-4.36691666

$$$$

 OpenBabel03272506443D

 26 28  0  0  1  0  0  0  0  0999 V2000
   38.3810   23.2700   35.8940 C   0  0  2  0  0  0  0  0  0  0  0  0
   37.6410   24.4390   36.5190 C   0  0  1  0  0  0  0  0  0  0  0  0
   37.8060   24.3630   37.8870 O   0  0  0  0  0  0  0  0  0  0  0  0
   38.7470   23.3940   38.1780 C   0  0  0  0  0  0  0  0  0  0  0  0
   39.5160   23.1380   36.8720 C   0  0  1  0  0  0  0  0  0  0  0  0
   37.7640   22.3620   35.8310 H   0  0  0  0  0  0  0  0  0  0  0  0
   36.5910   24.4180   36.2140 H   0  0  0  0  0  0  0  0  0  0  0  0
   39.4580   23.8370   38.9150 H   0  0  0  0  0  0  0  0  0  0  0  0
   38.3510   22.4610   38.5970 H   0  0  0  0  0  0  0  0  0  0  0  0
   40.2630   23.9160   36.7100 H   0  0  0  0  0  0  0  0  0  0  0  0
   38.8130   23.5820   34.6160 O   0  0  0  0  0  0  0  0  0  0  0  0
   39.5390   24.2230   34.6960 H   0  0  0  0  0  0  0  0  0  0  0  0
   38.4850   25.9500   35.9510 S   0  0  0  0  0  0  0  0  0  0  0  0
   36.7210   26.5260   32.4500 C   0  0  0  0  0  0  0  0  0  0  0  0
   36.0850   27.7690   32.5580 C   0  0  0  0  0  0  0  0  0  0  0  0
   36.2110   28.4510   33.7650 C   0  0  0  0  0  0  0  0  0  0  0  0
   36.9360   27.8920   34.7790 N   0  0  0  0  0  0  0  0  0  0  0  0
   37.5320   26.6880   34.6270 C   0  0  0  0  0  0  0  0  0  0  0  0
   37.4300   26.0030   33.4710 N   0  0  0  0  0  0  0  0  0  0  0  0
   36.6100   26.0130   31.5050 H   0  0  0  0  0  0  0  0  0  0  0  0
   35.5090   28.2130   31.7570 H   0  0  0  0  0  0  0  0  0  0  0  0
   35.7390   29.4330   33.9260 H   0  0  0  0  0  0  0  0  0  0  0  0
   40.0880   21.8950   36.9010 O   0  0  0  0  0  0  0  0  0  0  0  0
   41.2920   21.7850   36.2480 C   0  0  0  0  0  3  0  0  0  0  0  0
   42.3770   21.0940   37.0750 C   0  0  0  0  0  2  0  0  0  0  0  0
   42.5000   22.5220   36.6890 C   0  0  0  0  0  2  0  0  0  0  0  0
  1  6  1  6  0  0  0
  1  2  1  0  0  0  0
  1  5  1  0  0  0  0
  2  7  1  6  0  0  0
  2  3  1  0  0  0  0
  3  4  1  0  0  0  0
  4  9  1  0  0  0  0
  4  8  1  0  0  0  0
  5 10  1  6  0  0  0
  5 23  1  0  0  0  0
  5  4  1  0  0  0  0
 11 12  1  0  0  0  0
 11  1  1  0  0  0  0
 13  2  1  0  0  0  0
 14 15  2  0  0  0  0
 14 19  1  0  0  0  0
 15 16  1  0  0  0  0
 16 22  1  0  0  0  0
 16 17  2  0  0  0  0
 18 17  1  0  0  0  0
 18 13  1  0  0  0  0
 19 18  2  0  0  0  0
 20 14  1  0  0  0  0
 21 15  1  0  0  0  0
 24 26  1  0  0  0  0
 24 23  1  0  0  0  0
 24 25  1  0  0  0  0
 26 25  1  0  0  0  0
M  END
>  <minimizedAffinity>
-4.21432638

$$$$

 OpenBabel03272506443D

 26 28  0  0  1  0  0  0  0  0999 V2000
   37.5570   25.1870   31.4280 C   0  0  2  0  0  0  0  0  0  0  0  0
   37.5780   23.6900   31.1790 C   0  0  1  0  0  0  0  0  0  0  0  0
   38.1920   23.0890   32.2590 O   0  0  0  0  0  0  0  0  0  0  0  0
   38.3690   24.0250   33.2600 C   0  0  0  0  0  0  0  0  0  0  0  0
   37.4250   25.1910   32.9270 C   0  0  1  0  0  0  0  0  0  0  0  0
   38.4710   25.6890   31.0780 H   0  0  0  0  0  0  0  0  0  0  0  0
   38.0820   23.4790   30.2310 H   0  0  0  0  0  0  0  0  0  0  0  0
   38.0170   23.5590   34.2110 H   0  0  0  0  0  0  0  0  0  0  0  0
   39.3980   24.3740   33.4050 H   0  0  0  0  0  0  0  0  0  0  0  0
   36.4050   24.9560   33.2300 H   0  0  0  0  0  0  0  0  0  0  0  0
   36.4760   25.7800   30.7970 O   0  0  0  0  0  0  0  0  0  0  0  0
   35.6720   25.5140   31.2730 H   0  0  0  0  0  0  0  0  0  0  0  0
   35.8410   23.1410   31.1640 S   0  0  0  0  0  0  0  0  0  0  0  0
   35.3990   19.9570   33.4800 C   0  0  0  0  0  0  0  0  0  0  0  0
   35.6230   18.8590   32.6420 C   0  0  0  0  0  0  0  0  0  0  0  0
   35.9230   19.1200   31.3080 C   0  0  0  0  0  0  0  0  0  0  0  0
   35.9850   20.4140   30.8760 N   0  0  0  0  0  0  0  0  0  0  0  0
   35.7600   21.4430   31.7240 C   0  0  0  0  0  0  0  0  0  0  0  0
   35.4680   21.2240   33.0200 N   0  0  0  0  0  0  0  0  0  0  0  0
   35.1670   19.7330   34.5120 H   0  0  0  0  0  0  0  0  0  0  0  0
   35.5730   17.8330   32.9820 H   0  0  0  0  0  0  0  0  0  0  0  0
   36.1120   18.3080   30.5880 H   0  0  0  0  0  0  0  0  0  0  0  0
   37.8700   26.3400   33.5240 O   0  0  0  0  0  0  0  0  0  0  0  0
   38.5160   26.1680   34.7250 C   0  0  0  0  0  3  0  0  0  0  0  0
   38.4120   27.3770   35.6550 C   0  0  0  0  0  2  0  0  0  0  0  0
   39.7170   26.9520   35.0940 C   0  0  0  0  0  2  0  0  0  0  0  0
  1  6  1  6  0  0  0
  1  5  1  0  0  0  0
  2  7  1  6  0  0  0
  2  1  1  0  0  0  0
  2  3  1  0  0  0  0
  3  4  1  0  0  0  0
  4  9  1  0  0  0  0
  4  8  1  0  0  0  0
  5 10  1  1  0  0  0
  5  4  1  0  0  0  0
  5 23  1  0  0  0  0
 11 12  1  0  0  0  0
 11  1  1  0  0  0  0
 13  2  1  0  0  0  0
 13 18  1  0  0  0  0
 14 20  1  0  0  0  0
 15 21  1  0  0  0  0
 15 14  2  0  0  0  0
 16 15  1  0  0  0  0
 17 16  2  0  0  0  0
 17 18  1  0  0  0  0
 18 19  2  0  0  0  0
 19 14  1  0  0  0  0
 22 16  1  0  0  0  0
 23 24  1  0  0  0  0
 24 26  1  0  0  0  0
 24 25  1  0  0  0  0
 26 25  1  0  0  0  0
M  END
>  <minimizedAffinity>
-4.20251703

$$$$

 OpenBabel03272506443D

 26 28  0  0  1  0  0  0  0  0999 V2000
   38.0810   26.4080   32.8970 C   0  0  2  0  0  0  0  0  0  0  0  0
   39.0470   25.6630   33.8000 C   0  0  1  0  0  0  0  0  0  0  0  0
   39.2080   26.4030   34.9530 O   0  0  0  0  0  0  0  0  0  0  0  0
   38.2840   27.4290   34.9670 C   0  0  0  0  0  0  0  0  0  0  0  0
   37.2050   27.0480   33.9410 C   0  0  1  0  0  0  0  0  0  0  0  0
   38.5840   27.1440   32.2530 H   0  0  0  0  0  0  0  0  0  0  0  0
   39.9880   25.4880   33.2710 H   0  0  0  0  0  0  0  0  0  0  0  0
   37.8110   27.4320   35.9780 H   0  0  0  0  0  0  0  0  0  0  0  0
   38.6860   28.4300   34.7700 H   0  0  0  0  0  0  0  0  0  0  0  0
   36.5120   26.3230   34.3670 H   0  0  0  0  0  0  0  0  0  0  0  0
   37.3840   25.5320   32.0830 O   0  0  0  0  0  0  0  0  0  0  0  0
   36.7570   25.0420   32.6410 H   0  0  0  0  0  0  0  0  0  0  0  0
   38.2260   24.1030   34.2620 S   0  0  0  0  0  0  0  0  0  0  0  0
   37.8160   24.0350   38.2030 C   0  0  0  0  0  0  0  0  0  0  0  0
   38.9230   23.3180   38.6750 C   0  0  0  0  0  0  0  0  0  0  0  0
   39.8270   22.8400   37.7320 C   0  0  0  0  0  0  0  0  0  0  0  0
   39.6060   23.0830   36.4060 N   0  0  0  0  0  0  0  0  0  0  0  0
   38.5220   23.7800   35.9980 C   0  0  0  0  0  0  0  0  0  0  0  0
   37.6280   24.2570   36.8850 N   0  0  0  0  0  0  0  0  0  0  0  0
   37.1250   24.3970   38.9510 H   0  0  0  0  0  0  0  0  0  0  0  0
   39.0990   23.1230   39.7250 H   0  0  0  0  0  0  0  0  0  0  0  0
   40.7210   22.2680   38.0270 H   0  0  0  0  0  0  0  0  0  0  0  0
   36.5510   28.1710   33.5090 O   0  0  0  0  0  0  0  0  0  0  0  0
   35.8350   28.8420   34.4710 C   0  0  0  0  0  3  0  0  0  0  0  0
   34.5190   29.4270   33.9590 C   0  0  0  0  0  2  0  0  0  0  0  0
   35.6210   30.3070   34.4180 C   0  0  0  0  0  2  0  0  0  0  0  0
  1  6  1  6  0  0  0
  1  2  1  0  0  0  0
  1  5  1  0  0  0  0
  2  7  1  6  0  0  0
  2 13  1  0  0  0  0
  2  3  1  0  0  0  0
  3  4  1  0  0  0  0
  4  8  1  0  0  0  0
  5 10  1  1  0  0  0
  5  4  1  0  0  0  0
  9  4  1  0  0  0  0
 11 12  1  0  0  0  0
 11  1  1  0  0  0  0
 13 18  1  0  0  0  0
 14 15  1  0  0  0  0
 14 20  1  0  0  0  0
 15 21  1  0  0  0  0
 16 22  1  0  0  0  0
 16 15  2  0  0  0  0
 17 16  1  0  0  0  0
 18 17  2  0  0  0  0
 18 19  1  0  0  0  0
 19 14  2  0  0  0  0
 23  5  1  0  0  0  0
 23 24  1  0  0  0  0
 25 26  1  0  0  0  0
 25 24  1  0  0  0  0
 26 24  1  0  0  0  0
M  END
>  <minimizedAffinity>
-4.13158512

$$$$

 OpenBabel03272506443D

 26 28  0  0  1  0  0  0  0  0999 V2000
   37.7330   21.8780   33.5570 C   0  0  2  0  0  0  0  0  0  0  0  0
   38.9370   22.7590   33.2760 C   0  0  1  0  0  0  0  0  0  0  0  0
   38.9110   23.1000   31.9390 O   0  0  0  0  0  0  0  0  0  0  0  0
   37.7050   22.7060   31.3940 C   0  0  0  0  0  0  0  0  0  0  0  0
   36.7550   22.4700   32.5780 C   0  0  1  0  0  0  0  0  0  0  0  0
   37.9330   20.8130   33.3690 H   0  0  0  0  0  0  0  0  0  0  0  0
   39.8540   22.2360   33.5640 H   0  0  0  0  0  0  0  0  0  0  0  0
   37.3130   23.5700   30.8050 H   0  0  0  0  0  0  0  0  0  0  0  0
   37.7470   21.8300   30.7360 H   0  0  0  0  0  0  0  0  0  0  0  0
   36.3600   23.4180   32.9470 H   0  0  0  0  0  0  0  0  0  0  0  0
   37.3170   22.0100   34.8710 O   0  0  0  0  0  0  0  0  0  0  0  0
   36.9150   22.8890   34.9690 H   0  0  0  0  0  0  0  0  0  0  0  0
   38.6960   24.2890   34.2360 S   0  0  0  0  0  0  0  0  0  0  0  0
   37.9360   24.1630   38.1220 C   0  0  0  0  0  0  0  0  0  0  0  0
   38.9440   23.3600   38.6690 C   0  0  0  0  0  0  0  0  0  0  0  0
   39.8940   22.8400   37.7950 C   0  0  0  0  0  0  0  0  0  0  0  0
   39.8080   23.1270   36.4620 N   0  0  0  0  0  0  0  0  0  0  0  0
   38.8140   23.9080   35.9810 C   0  0  0  0  0  0  0  0  0  0  0  0
   37.8800   24.4270   36.8000 N   0  0  0  0  0  0  0  0  0  0  0  0
   37.2080   24.5570   38.8180 H   0  0  0  0  0  0  0  0  0  0  0  0
   39.0140   23.1310   39.7240 H   0  0  0  0  0  0  0  0  0  0  0  0
   40.7170   22.2000   38.1500 H   0  0  0  0  0  0  0  0  0  0  0  0
   35.7480   21.6190   32.2100 O   0  0  0  0  0  0  0  0  0  0  0  0
   36.0660   20.2830   32.2400 C   0  0  0  0  0  3  0  0  0  0  0  0
   34.9020   19.3680   31.8570 C   0  0  0  0  0  2  0  0  0  0  0  0
   35.4710   19.3520   33.2270 C   0  0  0  0  0  2  0  0  0  0  0  0
  1  6  1  6  0  0  0
  1 11  1  0  0  0  0
  2  1  1  0  0  0  0
  2  7  1  1  0  0  0
  2 13  1  0  0  0  0
  3  2  1  0  0  0  0
  4  3  1  0  0  0  0
  4  5  1  0  0  0  0
  5 10  1  1  0  0  0
  5  1  1  0  0  0  0
  8  4  1  0  0  0  0
  9  4  1  0  0  0  0
 11 12  1  0  0  0  0
 13 18  1  0  0  0  0
 14 15  1  0  0  0  0
 14 20  1  0  0  0  0
 15 21  1  0  0  0  0
 16 22  1  0  0  0  0
 16 15  2  0  0  0  0
 17 16  1  0  0  0  0
 18 17  2  0  0  0  0
 18 19  1  0  0  0  0
 19 14  2  0  0  0  0
 23 24  1  0  0  0  0
 23  5  1  0  0  0  0
 24 26  1  0  0  0  0
 25 24  1  0  0  0  0
 25 26  1  0  0  0  0
M  END
>  <minimizedAffinity>
-4.12994432

$$$$

 OpenBabel03272506443D

 26 28  0  0  1  0  0  0  0  0999 V2000
   38.9420   24.3080   33.8720 C   0  0  2  0  0  0  0  0  0  0  0  0
   38.8710   23.1510   32.8910 C   0  0  1  0  0  0  0  0  0  0  0  0
   38.9330   21.9770   33.6130 O   0  0  0  0  0  0  0  0  0  0  0  0
   38.8200   22.2660   34.9600 C   0  0  0  0  0  0  0  0  0  0  0  0
   38.2370   23.6850   35.0460 C   0  0  1  0  0  0  0  0  0  0  0  0
   39.9760   24.6050   34.1030 H   0  0  0  0  0  0  0  0  0  0  0  0
   39.6740   23.2410   32.1540 H   0  0  0  0  0  0  0  0  0  0  0  0
   38.0690   21.5590   35.3860 H   0  0  0  0  0  0  0  0  0  0  0  0
   39.7460   22.1790   35.5410 H   0  0  0  0  0  0  0  0  0  0  0  0
   37.1580   23.6650   34.8880 H   0  0  0  0  0  0  0  0  0  0  0  0
   38.2780   25.4180   33.3800 O   0  0  0  0  0  0  0  0  0  0  0  0
   37.3250   25.2300   33.4050 H   0  0  0  0  0  0  0  0  0  0  0  0
   37.2240   23.2300   32.1160 S   0  0  0  0  0  0  0  0  0  0  0  0
   36.1250   19.6120   30.9320 C   0  0  0  0  0  0  0  0  0  0  0  0
   35.4280   19.0660   32.0160 C   0  0  0  0  0  0  0  0  0  0  0  0
   35.2960   19.8530   33.1560 C   0  0  0  0  0  0  0  0  0  0  0  0
   35.8420   21.1060   33.1730 N   0  0  0  0  0  0  0  0  0  0  0  0
   36.5070   21.5900   32.1000 C   0  0  0  0  0  0  0  0  0  0  0  0
   36.6520   20.8530   30.9820 N   0  0  0  0  0  0  0  0  0  0  0  0
   36.2170   18.9840   30.0560 H   0  0  0  0  0  0  0  0  0  0  0  0
   34.9960   18.0740   32.0050 H   0  0  0  0  0  0  0  0  0  0  0  0
   34.7610   19.4930   34.0490 H   0  0  0  0  0  0  0  0  0  0  0  0
   38.5540   24.2490   36.2530 O   0  0  0  0  0  0  0  0  0  0  0  0
   38.0170   23.6280   37.3540 C   0  0  0  0  0  3  0  0  0  0  0  0
   37.9340   24.5280   38.5870 C   0  0  0  0  0  2  0  0  0  0  0  0
   38.8180   23.3370   38.5650 C   0  0  0  0  0  2  0  0  0  0  0  0
  1  6  1  1  0  0  0
  1  5  1  0  0  0  0
  2  7  1  6  0  0  0
  2  3  1  0  0  0  0
  2  1  1  0  0  0  0
  3  4  1  0  0  0  0
  4  5  1  0  0  0  0
  4  8  1  0  0  0  0
  4  9  1  0  0  0  0
  5 10  1  6  0  0  0
  5 23  1  0  0  0  0
 11 12  1  0  0  0  0
 11  1  1  0  0  0  0
 13  2  1  0  0  0  0
 14 19  2  0  0  0  0
 14 15  1  0  0  0  0
 15 16  2  0  0  0  0
 16 17  1  0  0  0  0
 16 22  1  0  0  0  0
 18 13  1  0  0  0  0
 18 17  2  0  0  0  0
 19 18  1  0  0  0  0
 20 14  1  0  0  0  0
 21 15  1  0  0  0  0
 23 24  1  0  0  0  0
 24 26  1  0  0  0  0
 24 25  1  0  0  0  0
 26 25  1  0  0  0  0
M  END
>  <minimizedAffinity>
-4.07859039

$$$$

 OpenBabel03272506443D

 26 28  0  0  1  0  0  0  0  0999 V2000
   37.3080   26.8880   33.6640 C   0  0  2  0  0  0  0  0  0  0  0  0
   37.4870   25.3810   33.6520 C   0  0  1  0  0  0  0  0  0  0  0  0
   37.4520   24.9590   32.3390 O   0  0  0  0  0  0  0  0  0  0  0  0
   37.4840   26.0620   31.5070 C   0  0  0  0  0  0  0  0  0  0  0  0
   37.9870   27.2320   32.3660 C   0  0  1  0  0  0  0  0  0  0  0  0
   36.2500   27.1890   33.6850 H   0  0  0  0  0  0  0  0  0  0  0  0
   36.7170   24.9120   34.2710 H   0  0  0  0  0  0  0  0  0  0  0  0
   38.2500   25.8580   30.7210 H   0  0  0  0  0  0  0  0  0  0  0  0
   36.5380   26.3080   31.0120 H   0  0  0  0  0  0  0  0  0  0  0  0
   39.0720   27.1910   32.4710 H   0  0  0  0  0  0  0  0  0  0  0  0
   37.9360   27.4550   34.7600 O   0  0  0  0  0  0  0  0  0  0  0  0
   38.8950   27.3960   34.6160 H   0  0  0  0  0  0  0  0  0  0  0  0
   39.1630   25.0530   34.2870 S   0  0  0  0  0  0  0  0  0  0  0  0
   37.9610   24.3460   37.9960 C   0  0  0  0  0  0  0  0  0  0  0  0
   38.8000   23.3280   38.4660 C   0  0  0  0  0  0  0  0  0  0  0  0
   39.7730   22.8460   37.5970 C   0  0  0  0  0  0  0  0  0  0  0  0
   39.8720   23.3740   36.3410 N   0  0  0  0  0  0  0  0  0  0  0  0
   39.0380   24.3560   35.9310 C   0  0  0  0  0  0  0  0  0  0  0  0
   38.0860   24.8450   36.7480 N   0  0  0  0  0  0  0  0  0  0  0  0
   37.2120   24.7070   38.6870 H   0  0  0  0  0  0  0  0  0  0  0  0
   38.7230   22.9080   39.4610 H   0  0  0  0  0  0  0  0  0  0  0  0
   40.4700   22.0470   37.8950 H   0  0  0  0  0  0  0  0  0  0  0  0
   37.5830   28.4220   31.8220 O   0  0  0  0  0  0  0  0  0  0  0  0
   36.2520   28.7210   31.9810 C   0  0  0  0  0  3  0  0  0  0  0  0
   35.7660   29.8540   31.0770 C   0  0  0  0  0  2  0  0  0  0  0  0
   35.7950   30.0090   32.5520 C   0  0  0  0  0  2  0  0  0  0  0  0
  1  6  1  6  0  0  0
  1 11  1  0  0  0  0
  2  1  1  0  0  0  0
  2  7  1  1  0  0  0
  2 13  1  0  0  0  0
  3  2  1  0  0  0  0
  4  3  1  0  0  0  0
  4  5  1  0  0  0  0
  5 10  1  1  0  0  0
  5  1  1  0  0  0  0
  8  4  1  0  0  0  0
  9  4  1  0  0  0  0
 12 11  1  0  0  0  0
 13 18  1  0  0  0  0
 14 15  1  0  0  0  0
 14 20  1  0  0  0  0
 15 21  1  0  0  0  0
 16 22  1  0  0  0  0
 16 15  2  0  0  0  0
 17 16  1  0  0  0  0
 18 17  2  0  0  0  0
 18 19  1  0  0  0  0
 19 14  2  0  0  0  0
 23 24  1  0  0  0  0
 23  5  1  0  0  0  0
 24 26  1  0  0  0  0
 25 24  1  0  0  0  0
 25 26  1  0  0  0  0
M  END
>  <minimizedAffinity>
-4.07147694

$$$$

 OpenBabel03272506443D

 26 28  0  0  1  0  0  0  0  0999 V2000
   38.1230   25.9800   32.5440 C   0  0  2  0  0  0  0  0  0  0  0  0
   39.0540   25.4270   33.6080 C   0  0  1  0  0  0  0  0  0  0  0  0
   38.9940   26.2660   34.7020 O   0  0  0  0  0  0  0  0  0  0  0  0
   37.9650   27.1710   34.5240 C   0  0  0  0  0  0  0  0  0  0  0  0
   37.0650   26.5850   33.4250 C   0  0  1  0  0  0  0  0  0  0  0  0
   38.6130   26.7200   31.8940 H   0  0  0  0  0  0  0  0  0  0  0  0
   40.0650   25.3290   33.2010 H   0  0  0  0  0  0  0  0  0  0  0  0
   37.3780   27.1920   35.4740 H   0  0  0  0  0  0  0  0  0  0  0  0
   38.2720   28.1950   34.2840 H   0  0  0  0  0  0  0  0  0  0  0  0
   36.4120   25.8140   33.8360 H   0  0  0  0  0  0  0  0  0  0  0  0
   37.6310   24.9660   31.7400 O   0  0  0  0  0  0  0  0  0  0  0  0
   37.0010   24.4470   32.2670 H   0  0  0  0  0  0  0  0  0  0  0  0
   38.3650   23.8180   34.1150 S   0  0  0  0  0  0  0  0  0  0  0  0
   37.7520   23.9560   38.0270 C   0  0  0  0  0  0  0  0  0  0  0  0
   38.8740   23.3420   38.5970 C   0  0  0  0  0  0  0  0  0  0  0  0
   39.8550   22.8680   37.7310 C   0  0  0  0  0  0  0  0  0  0  0  0
   39.6890   23.0180   36.3830 N   0  0  0  0  0  0  0  0  0  0  0  0
   38.5870   23.6180   35.8800 C   0  0  0  0  0  0  0  0  0  0  0  0
   37.6200   24.0880   36.6910 N   0  0  0  0  0  0  0  0  0  0  0  0
   37.0010   24.3170   38.7170 H   0  0  0  0  0  0  0  0  0  0  0  0
   39.0060   23.2210   39.6640 H   0  0  0  0  0  0  0  0  0  0  0  0
   40.7650   22.3730   38.1040 H   0  0  0  0  0  0  0  0  0  0  0  0
   36.3440   27.5840   32.8270 O   0  0  0  0  0  0  0  0  0  0  0  0
   37.0400   28.3570   31.9300 C   0  0  0  0  0  3  0  0  0  0  0  0
   36.3810   29.7070   31.6440 C   0  0  0  0  0  2  0  0  0  0  0  0
   36.5080   28.6770   30.5850 C   0  0  0  0  0  2  0  0  0  0  0  0
  1  6  1  6  0  0  0
  1  5  1  0  0  0  0
  1  2  1  0  0  0  0
  2  7  1  6  0  0  0
  2 13  1  0  0  0  0
  2  3  1  0  0  0  0
  4  3  1  0  0  0  0
  4  8  1  0  0  0  0
  5 10  1  1  0  0  0
  5  4  1  0  0  0  0
  9  4  1  0  0  0  0
 11 12  1  0  0  0  0
 11  1  1  0  0  0  0
 13 18  1  0  0  0  0
 14 15  1  0  0  0  0
 14 20  1  0  0  0  0
 15 21  1  0  0  0  0
 16 22  1  0  0  0  0
 16 15  2  0  0  0  0
 17 16  1  0  0  0  0
 18 17  2  0  0  0  0
 18 19  1  0  0  0  0
 19 14  2  0  0  0  0
 23  5  1  0  0  0  0
 24 23  1  0  0  0  0
 25 24  1  0  0  0  0
 26 25  1  0  0  0  0
 26 24  1  0  0  0  0
M  END
>  <minimizedAffinity>
-4.01991129

$$$$

 OpenBabel03272506443D

 26 28  0  0  1  0  0  0  0  0999 V2000
   35.6080   24.8570   31.4820 C   0  0  2  0  0  0  0  0  0  0  0  0
   36.6800   25.6350   32.2230 C   0  0  1  0  0  0  0  0  0  0  0  0
   37.4770   24.7300   32.8930 O   0  0  0  0  0  0  0  0  0  0  0  0
   37.1540   23.4510   32.4830 C   0  0  0  0  0  0  0  0  0  0  0  0
   36.3820   23.6060   31.1630 C   0  0  1  0  0  0  0  0  0  0  0  0
   34.7200   24.6630   32.1010 H   0  0  0  0  0  0  0  0  0  0  0  0
   36.2120   26.3660   32.8900 H   0  0  0  0  0  0  0  0  0  0  0  0
   38.1130   22.9250   32.2600 H   0  0  0  0  0  0  0  0  0  0  0  0
   36.5900   22.8500   33.2060 H   0  0  0  0  0  0  0  0  0  0  0  0
   37.0710   23.7740   30.3350 H   0  0  0  0  0  0  0  0  0  0  0  0
   35.1990   25.5330   30.3460 O   0  0  0  0  0  0  0  0  0  0  0  0
   35.9220   25.4920   29.6980 H   0  0  0  0  0  0  0  0  0  0  0  0
   37.7120   26.4360   30.9530 S   0  0  0  0  0  0  0  0  0  0  0  0
   35.5900   29.7730   31.2100 C   0  0  0  0  0  0  0  0  0  0  0  0
   36.3170   30.7270   30.4860 C   0  0  0  0  0  0  0  0  0  0  0  0
   37.5080   30.3150   29.8980 C   0  0  0  0  0  0  0  0  0  0  0  0
   37.9170   29.0200   30.0460 N   0  0  0  0  0  0  0  0  0  0  0  0
   37.1820   28.1340   30.7560 C   0  0  0  0  0  0  0  0  0  0  0  0
   36.0240   28.5010   31.3370 N   0  0  0  0  0  0  0  0  0  0  0  0
   34.6680   30.1130   31.6600 H   0  0  0  0  0  0  0  0  0  0  0  0
   35.9950   31.7530   30.3690 H   0  0  0  0  0  0  0  0  0  0  0  0
   38.1340   31.0080   29.3140 H   0  0  0  0  0  0  0  0  0  0  0  0
   35.5990   22.5040   30.9450 O   0  0  0  0  0  0  0  0  0  0  0  0
   35.7480   21.4860   31.8550 C   0  0  0  0  0  3  0  0  0  0  0  0
   35.8200   20.0990   31.2160 C   0  0  0  0  0  2  0  0  0  0  0  0
   34.6870   20.4800   32.0950 C   0  0  0  0  0  2  0  0  0  0  0  0
  1  6  1  1  0  0  0
  1  2  1  0  0  0  0
  2  7  1  1  0  0  0
  2  3  1  0  0  0  0
  4  3  1  0  0  0  0
  4  9  1  0  0  0  0
  5 10  1  6  0  0  0
  5  1  1  0  0  0  0
  5  4  1  0  0  0  0
  8  4  1  0  0  0  0
 11  1  1  0  0  0  0
 12 11  1  0  0  0  0
 13  2  1  0  0  0  0
 14 19  1  0  0  0  0
 14 20  1  0  0  0  0
 15 14  2  0  0  0  0
 16 17  2  0  0  0  0
 16 15  1  0  0  0  0
 17 18  1  0  0  0  0
 18 13  1  0  0  0  0
 18 19  2  0  0  0  0
 21 15  1  0  0  0  0
 22 16  1  0  0  0  0
 23  5  1  0  0  0  0
 23 24  1  0  0  0  0
 24 26  1  0  0  0  0
 25 24  1  0  0  0  0
 25 26  1  0  0  0  0
M  END
>  <minimizedAffinity>
-4.01937866

$$$$
