
 OpenBabel03272507273D

 33 35  0  0  1  0  0  0  0  0999 V2000
   36.9390   30.2600   49.0550 C   0  0  0  0  0  0  0  0  0  0  0  0
   37.9230   30.8920   48.2680 C   0  0  0  0  0  0  0  0  0  0  0  0
   37.6460   31.0760   46.9070 C   0  0  0  0  0  0  0  0  0  0  0  0
   36.4730   30.6460   46.4350 N   0  0  0  0  0  0  0  0  0  0  0  0
   35.5540   30.0470   47.2090 C   0  0  0  0  0  0  0  0  0  0  0  0
   35.7890   29.8570   48.5140 N   0  0  0  0  0  0  0  0  0  0  0  0
   38.5930   31.6990   46.0760 N   0  0  0  0  0  0  0  0  0  0  0  0
   39.5840   32.6910   46.5130 C   0  0  0  0  0  0  0  0  0  0  0  0
   40.2030   33.2600   45.2670 C   0  0  0  0  0  0  0  0  0  0  0  0
   39.2310   32.8950   44.2180 C   0  0  0  0  0  0  0  0  0  0  0  0
   38.7950   31.5110   44.6750 C   0  0  2  0  0  0  0  0  0  0  0  0
   37.2610   30.1690   50.1030 H   0  0  0  0  0  0  0  0  0  0  0  0
   38.8750   31.2450   48.6280 H   0  0  0  0  0  0  0  0  0  0  0  0
   34.5970   29.6900   46.8520 H   0  0  0  0  0  0  0  0  0  0  0  0
   40.3380   32.1000   47.0750 H   0  0  0  0  0  0  0  0  0  0  0  0
   39.1050   33.4350   47.1460 H   0  0  0  0  0  0  0  0  0  0  0  0
   40.1670   34.3790   45.3900 H   0  0  0  0  0  0  0  0  0  0  0  0
   41.2430   32.9730   45.1170 H   0  0  0  0  0  0  0  0  0  0  0  0
   39.6420   32.8710   43.1900 H   0  0  0  0  0  0  0  0  0  0  0  0
   38.3820   33.5940   44.2170 H   0  0  0  0  0  0  0  0  0  0  0  0
   37.6670   30.9730   43.8700 C   0  0  0  0  0  0  0  0  0  0  0  0
   36.5380   31.7010   44.2230 F   0  0  0  0  0  0  0  0  0  0  0  0
   37.3820   29.6590   44.0550 F   0  0  0  0  0  0  0  0  0  0  0  0
   37.9320   31.2910   42.5490 F   0  0  0  0  0  0  0  0  0  0  0  0
   39.9580   30.5950   44.5490 C   0  0  0  0  0  0  0  0  0  0  0  0
   39.7020   29.6990   45.1520 H   0  0  0  0  0  0  0  0  0  0  0  0
   40.8060   31.0860   45.1180 H   0  0  0  0  0  0  0  0  0  0  0  0
   40.3000   30.6130   43.3520 O   0  0  0  0  0  0  0  0  0  0  0  0
   40.8030   29.7340   42.4640 C   0  0  0  0  0  0  0  0  0  0  0  0
   40.1870   28.6460   42.5980 O   0  0  0  0  0  0  0  0  0  0  0  0
   41.6230   29.1840   41.4050 C   0  0  0  0  0  3  0  0  0  0  0  0
   41.1110   28.7380   40.0970 C   0  0  0  0  0  2  0  0  0  0  0  0
   41.7850   30.0350   40.1600 C   0  0  0  0  0  2  0  0  0  0  0  0
  1 12  1  0  0  0  0
  2 13  1  0  0  0  0
  2  1  2  0  0  0  0
  3  2  1  0  0  0  0
  4  3  2  0  0  0  0
  4  5  1  0  0  0  0
  5  6  2  0  0  0  0
  6  1  1  0  0  0  0
  7  8  1  0  0  0  0
  7  3  1  0  0  0  0
  8 15  1  0  0  0  0
  8 16  1  0  0  0  0
  9 17  1  0  0  0  0
  9  8  1  0  0  0  0
 10 11  1  0  0  0  0
 10  9  1  0  0  0  0
 11 21  1  6  0  0  0
 11  7  1  0  0  0  0
 14  5  1  0  0  0  0
 18  9  1  0  0  0  0
 19 10  1  0  0  0  0
 20 10  1  0  0  0  0
 21 23  1  0  0  0  0
 21 22  1  0  0  0  0
 24 21  1  0  0  0  0
 25 11  1  0  0  0  0
 25 27  1  0  0  0  0
 25 26  1  0  0  0  0
 28 25  1  0  0  0  0
 29 30  2  0  0  0  0
 29 28  1  0  0  0  0
 31 29  1  0  0  0  0
 32 33  1  0  0  0  0
 32 31  1  0  0  0  0
 33 31  1  0  0  0  0
M  END
>  <minimizedAffinity>
-4.78115654

>  <minimizedRMSD>
0.618643403

$$$$
