
 OpenBabel03262521103D

 18 19  0  0  0  0  0  0  0  0999 V2000
   37.0140   27.5280   33.6020 C   0  0  0  0  0  0  0  0  0  0  0  0
   37.1840   27.9020   32.2690 C   0  0  0  0  0  0  0  0  0  0  0  0
   36.5900   29.0650   31.8050 C   0  0  0  0  0  0  0  0  0  0  0  0
   35.8570   29.8020   32.6860 N   0  0  0  0  0  0  0  0  0  0  0  0
   35.7020   29.4230   33.9790 C   0  0  0  0  0  0  0  0  0  0  0  0
   36.2790   28.2850   34.4440 N   0  0  0  0  0  0  0  0  0  0  0  0
   37.7830   27.2380   31.6760 H   0  0  0  0  0  0  0  0  0  0  0  0
   36.7310   29.3420   30.7700 H   0  0  0  0  0  0  0  0  0  0  0  0
   35.1100   30.0460   34.6330 H   0  0  0  0  0  0  0  0  0  0  0  0
   37.5410   26.3970   34.2160 O   0  0  0  0  0  0  0  0  0  0  0  0
   40.1890   26.6690   34.5810 O   0  0  0  0  0  0  0  0  0  0  0  0
   38.8700   26.4860   35.3050 P   0  0  1  0  0  0  0  0  0  0  0  0
   38.5410   27.7910   36.3350 O   0  0  0  0  0  0  0  0  0  0  0  0
   38.4990   27.5360   37.2840 H   0  0  0  0  0  0  0  0  0  0  0  0
   38.9880   25.0470   36.1750 O   0  0  0  0  0  0  0  0  0  0  0  0
   37.8130   24.6950   36.8070 C   0  0  0  0  0  3  0  0  0  0  0  0
   38.0160   24.2200   38.2310 C   0  0  0  0  0  2  0  0  0  0  0  0
   37.6630   23.2000   37.1640 C   0  0  0  0  0  2  0  0  0  0  0  0
  1 10  1  0  0  0  0
  1  6  1  0  0  0  0
  2  1  2  0  0  0  0
  3  2  1  0  0  0  0
  3  4  2  0  0  0  0
  4  5  1  0  0  0  0
  5  6  2  0  0  0  0
  5  9  1  0  0  0  0
  7  2  1  0  0  0  0
  8  3  1  0  0  0  0
 10 12  1  0  0  0  0
 12 11  2  6  0  0  0
 12 15  1  0  0  0  0
 12 13  1  0  0  0  0
 13 14  1  0  0  0  0
 15 16  1  0  0  0  0
 16 18  1  0  0  0  0
 16 17  1  0  0  0  0
 18 17  1  0  0  0  0
M  END
>  <minimizedAffinity>
-3.98746657

$$$$

 OpenBabel03262521103D

 18 19  0  0  0  0  0  0  0  0999 V2000
   38.4590   24.4080   36.0810 C   0  0  0  0  0  0  0  0  0  0  0  0
   39.5910   23.5930   36.0750 C   0  0  0  0  0  0  0  0  0  0  0  0
   39.9540   22.9220   37.2320 C   0  0  0  0  0  0  0  0  0  0  0  0
   39.1780   23.0910   38.3380 N   0  0  0  0  0  0  0  0  0  0  0  0
   38.0810   23.8880   38.3250 C   0  0  0  0  0  0  0  0  0  0  0  0
   37.7160   24.5500   37.1980 N   0  0  0  0  0  0  0  0  0  0  0  0
   40.1190   23.5410   35.1420 H   0  0  0  0  0  0  0  0  0  0  0  0
   40.8330   22.2930   37.2130 H   0  0  0  0  0  0  0  0  0  0  0  0
   37.5010   23.9860   39.2320 H   0  0  0  0  0  0  0  0  0  0  0  0
   37.9660   25.1430   35.0080 O   0  0  0  0  0  0  0  0  0  0  0  0
   36.5340   27.4000   34.7310 O   0  0  0  0  0  0  0  0  0  0  0  0
   37.9220   26.8630   35.0230 P   0  0  1  0  0  0  0  0  0  0  0  0
   38.4540   27.3280   36.5640 O   0  0  0  0  0  0  0  0  0  0  0  0
   39.2520   27.9040   36.5410 H   0  0  0  0  0  0  0  0  0  0  0  0
   38.9410   27.4670   33.8250 O   0  0  0  0  0  0  0  0  0  0  0  0
   39.9710   26.6080   33.5020 C   0  0  0  0  0  3  0  0  0  0  0  0
   41.1490   26.6980   34.4500 C   0  0  0  0  0  2  0  0  0  0  0  0
   41.2890   27.2760   33.0540 C   0  0  0  0  0  2  0  0  0  0  0  0
  1  6  1  0  0  0  0
  2  1  2  0  0  0  0
  2  3  1  0  0  0  0
  3  4  2  0  0  0  0
  5  4  1  0  0  0  0
  5  9  1  0  0  0  0
  6  5  2  0  0  0  0
  7  2  1  0  0  0  0
  8  3  1  0  0  0  0
 10 12  1  0  0  0  0
 10  1  1  0  0  0  0
 12 11  2  6  0  0  0
 12 13  1  0  0  0  0
 14 13  1  0  0  0  0
 15 12  1  0  0  0  0
 16 15  1  0  0  0  0
 16 17  1  0  0  0  0
 18 16  1  0  0  0  0
 18 17  1  0  0  0  0
M  END
>  <minimizedAffinity>
-3.9048667

$$$$

 OpenBabel03262521103D

 18 19  0  0  0  0  0  0  0  0999 V2000
   38.0890   24.6990   36.1610 C   0  0  0  0  0  0  0  0  0  0  0  0
   37.7620   24.2260   37.4310 C   0  0  0  0  0  0  0  0  0  0  0  0
   38.6220   23.3530   38.0770 C   0  0  0  0  0  0  0  0  0  0  0  0
   39.7670   22.9920   37.4330 N   0  0  0  0  0  0  0  0  0  0  0  0
   40.0690   23.4620   36.1970 C   0  0  0  0  0  0  0  0  0  0  0  0
   39.2330   24.3170   35.5550 N   0  0  0  0  0  0  0  0  0  0  0  0
   36.8320   24.5830   37.8320 H   0  0  0  0  0  0  0  0  0  0  0  0
   38.3560   22.9950   39.0620 H   0  0  0  0  0  0  0  0  0  0  0  0
   40.9910   23.1420   35.7330 H   0  0  0  0  0  0  0  0  0  0  0  0
   37.3360   25.5740   35.3860 O   0  0  0  0  0  0  0  0  0  0  0  0
   36.7340   28.1270   34.8000 O   0  0  0  0  0  0  0  0  0  0  0  0
   37.8840   27.1590   35.0040 P   0  0  1  0  0  0  0  0  0  0  0  0
   38.8720   27.6330   36.2970 O   0  0  0  0  0  0  0  0  0  0  0  0
   39.7910   27.8520   36.0240 H   0  0  0  0  0  0  0  0  0  0  0  0
   38.7540   27.1270   33.5610 O   0  0  0  0  0  0  0  0  0  0  0  0
   38.0000   27.4810   32.4610 C   0  0  0  0  0  3  0  0  0  0  0  0
   37.5150   26.2920   31.6580 C   0  0  0  0  0  2  0  0  0  0  0  0
   38.6220   27.1570   31.0860 C   0  0  0  0  0  2  0  0  0  0  0  0
  1  2  1  0  0  0  0
  2  7  1  0  0  0  0
  2  3  2  0  0  0  0
  3  8  1  0  0  0  0
  4  3  1  0  0  0  0
  5  4  2  0  0  0  0
  6  1  2  0  0  0  0
  6  5  1  0  0  0  0
  9  5  1  0  0  0  0
 10  1  1  0  0  0  0
 12 11  2  6  0  0  0
 12 10  1  0  0  0  0
 12 13  1  0  0  0  0
 14 13  1  0  0  0  0
 15 12  1  0  0  0  0
 16 15  1  0  0  0  0
 17 16  1  0  0  0  0
 18 17  1  0  0  0  0
 18 16  1  0  0  0  0
M  END
>  <minimizedAffinity>
-3.8978219

$$$$

 OpenBabel03262521103D

 18 19  0  0  0  0  0  0  0  0999 V2000
   40.7140   22.6960   36.0880 C   0  0  0  0  0  0  0  0  0  0  0  0
   41.7420   23.5130   35.6180 C   0  0  0  0  0  0  0  0  0  0  0  0
   43.0590   23.1720   35.8820 C   0  0  0  0  0  0  0  0  0  0  0  0
   43.2930   22.0370   36.6000 N   0  0  0  0  0  0  0  0  0  0  0  0
   42.2800   21.2560   37.0490 C   0  0  0  0  0  0  0  0  0  0  0  0
   40.9860   21.5800   36.7960 N   0  0  0  0  0  0  0  0  0  0  0  0
   41.4310   24.3780   35.0650 H   0  0  0  0  0  0  0  0  0  0  0  0
   43.8460   23.8140   35.5120 H   0  0  0  0  0  0  0  0  0  0  0  0
   42.5230   20.3670   37.6130 H   0  0  0  0  0  0  0  0  0  0  0  0
   39.3500   22.9000   35.9070 O   0  0  0  0  0  0  0  0  0  0  0  0
   36.9130   22.8940   37.0400 O   0  0  0  0  0  0  0  0  0  0  0  0
   38.3270   23.4220   37.1880 P   0  0  1  0  0  0  0  0  0  0  0  0
   39.0500   22.8650   38.6160 O   0  0  0  0  0  0  0  0  0  0  0  0
   39.2730   23.5880   39.2450 H   0  0  0  0  0  0  0  0  0  0  0  0
   38.2220   25.1040   37.1810 O   0  0  0  0  0  0  0  0  0  0  0  0
   38.0790   25.6360   35.9160 C   0  0  0  0  0  3  0  0  0  0  0  0
   39.3160   26.3600   35.4250 C   0  0  0  0  0  2  0  0  0  0  0  0
   38.1020   27.1770   35.8270 C   0  0  0  0  0  2  0  0  0  0  0  0
  1  6  1  0  0  0  0
  2  3  1  0  0  0  0
  2  1  2  0  0  0  0
  3  4  2  0  0  0  0
  4  5  1  0  0  0  0
  5  9  1  0  0  0  0
  6  5  2  0  0  0  0
  7  2  1  0  0  0  0
  8  3  1  0  0  0  0
 10  1  1  0  0  0  0
 10 12  1  0  0  0  0
 12 11  2  6  0  0  0
 12 13  1  0  0  0  0
 13 14  1  0  0  0  0
 15 12  1  0  0  0  0
 16 15  1  0  0  0  0
 17 18  1  0  0  0  0
 17 16  1  0  0  0  0
 18 16  1  0  0  0  0
M  END
>  <minimizedAffinity>
-3.8743484

$$$$

 OpenBabel03262521103D

 18 19  0  0  0  0  0  0  0  0999 V2000
   37.4590   22.0040   33.7530 C   0  0  0  0  0  0  0  0  0  0  0  0
   36.3770   21.1350   33.6230 C   0  0  0  0  0  0  0  0  0  0  0  0
   35.4050   21.3920   32.6690 C   0  0  0  0  0  0  0  0  0  0  0  0
   35.5540   22.5000   31.8900 N   0  0  0  0  0  0  0  0  0  0  0  0
   36.6140   23.3350   32.0310 C   0  0  0  0  0  0  0  0  0  0  0  0
   37.5710   23.0920   32.9620 N   0  0  0  0  0  0  0  0  0  0  0  0
   36.3720   20.2970   34.2950 H   0  0  0  0  0  0  0  0  0  0  0  0
   34.5720   20.7100   32.5790 H   0  0  0  0  0  0  0  0  0  0  0  0
   36.6810   24.1990   31.3860 H   0  0  0  0  0  0  0  0  0  0  0  0
   38.5100   21.8850   34.6560 O   0  0  0  0  0  0  0  0  0  0  0  0
   37.1740   22.8380   36.7840 O   0  0  0  0  0  0  0  0  0  0  0  0
   38.5440   22.7570   36.1390 P   0  0  1  0  0  0  0  0  0  0  0  0
   39.6500   21.9440   37.1320 O   0  0  0  0  0  0  0  0  0  0  0  0
   40.3980   22.5110   37.4250 H   0  0  0  0  0  0  0  0  0  0  0  0
   39.0420   24.3420   35.8530 O   0  0  0  0  0  0  0  0  0  0  0  0
   38.1100   25.2840   36.2400 C   0  0  0  0  0  3  0  0  0  0  0  0
   37.5570   26.0910   35.0850 C   0  0  0  0  0  2  0  0  0  0  0  0
   38.5230   26.7590   36.0450 C   0  0  0  0  0  2  0  0  0  0  0  0
  1 10  1  0  0  0  0
  2  1  1  0  0  0  0
  2  7  1  0  0  0  0
  3  2  2  0  0  0  0
  4  5  2  0  0  0  0
  4  3  1  0  0  0  0
  5  6  1  0  0  0  0
  6  1  2  0  0  0  0
  8  3  1  0  0  0  0
  9  5  1  0  0  0  0
 10 12  1  0  0  0  0
 12 11  2  1  0  0  0
 12 13  1  0  0  0  0
 13 14  1  0  0  0  0
 15 12  1  0  0  0  0
 15 16  1  0  0  0  0
 17 18  1  0  0  0  0
 17 16  1  0  0  0  0
 18 16  1  0  0  0  0
M  END
>  <minimizedAffinity>
-3.8473351

$$$$

 OpenBabel03262521103D

 18 19  0  0  0  0  0  0  0  0999 V2000
   37.3720   25.2710   32.4710 C   0  0  0  0  0  0  0  0  0  0  0  0
   36.8010   24.0550   32.0980 C   0  0  0  0  0  0  0  0  0  0  0  0
   35.6550   24.0490   31.3200 C   0  0  0  0  0  0  0  0  0  0  0  0
   35.1300   25.2510   30.9490 N   0  0  0  0  0  0  0  0  0  0  0  0
   35.6990   26.4230   31.3210 C   0  0  0  0  0  0  0  0  0  0  0  0
   36.8220   26.4410   32.0830 N   0  0  0  0  0  0  0  0  0  0  0  0
   37.3080   23.1770   32.4520 H   0  0  0  0  0  0  0  0  0  0  0  0
   35.2230   23.0990   31.0380 H   0  0  0  0  0  0  0  0  0  0  0  0
   35.2390   27.3470   30.9980 H   0  0  0  0  0  0  0  0  0  0  0  0
   38.5150   25.4440   33.2440 O   0  0  0  0  0  0  0  0  0  0  0  0
   39.5010   27.1310   35.0890 O   0  0  0  0  0  0  0  0  0  0  0  0
   38.4480   26.0670   34.8460 P   0  0  1  0  0  0  0  0  0  0  0  0
   36.8830   26.6890   35.0380 O   0  0  0  0  0  0  0  0  0  0  0  0
   36.3860   26.2690   35.7760 H   0  0  0  0  0  0  0  0  0  0  0  0
   38.7440   24.8290   35.9500 O   0  0  0  0  0  0  0  0  0  0  0  0
   37.6600   24.5480   36.7580 C   0  0  0  0  0  3  0  0  0  0  0  0
   38.0390   24.2870   38.2000 C   0  0  0  0  0  2  0  0  0  0  0  0
   37.6040   23.1180   37.3360 C   0  0  0  0  0  2  0  0  0  0  0  0
  1 10  1  0  0  0  0
  2  7  1  0  0  0  0
  2  1  1  0  0  0  0
  3  2  2  0  0  0  0
  4  3  1  0  0  0  0
  4  5  2  0  0  0  0
  5  6  1  0  0  0  0
  6  1  2  0  0  0  0
  8  3  1  0  0  0  0
  9  5  1  0  0  0  0
 10 12  1  0  0  0  0
 12 13  1  0  0  0  0
 12 11  2  1  0  0  0
 12 15  1  0  0  0  0
 13 14  1  0  0  0  0
 15 16  1  0  0  0  0
 16 18  1  0  0  0  0
 16 17  1  0  0  0  0
 18 17  1  0  0  0  0
M  END
>  <minimizedAffinity>
-3.73570299

$$$$

 OpenBabel03262521103D

 18 19  0  0  0  0  0  0  0  0999 V2000
   38.0850   25.1890   35.2900 C   0  0  0  0  0  0  0  0  0  0  0  0
   37.5080   26.3950   34.8930 C   0  0  0  0  0  0  0  0  0  0  0  0
   37.0260   26.5280   33.6010 C   0  0  0  0  0  0  0  0  0  0  0  0
   37.1380   25.4580   32.7650 N   0  0  0  0  0  0  0  0  0  0  0  0
   37.7020   24.2930   33.1690 C   0  0  0  0  0  0  0  0  0  0  0  0
   38.1780   24.1520   34.4330 N   0  0  0  0  0  0  0  0  0  0  0  0
   37.4780   27.1630   35.6420 H   0  0  0  0  0  0  0  0  0  0  0  0
   36.5810   27.4680   33.3060 H   0  0  0  0  0  0  0  0  0  0  0  0
   37.7650   23.4760   32.4640 H   0  0  0  0  0  0  0  0  0  0  0  0
   38.6110   24.9000   36.5450 O   0  0  0  0  0  0  0  0  0  0  0  0
   38.6210   23.3820   38.7620 O   0  0  0  0  0  0  0  0  0  0  0  0
   38.4770   23.3380   37.2530 P   0  0  1  0  0  0  0  0  0  0  0  0
   36.9560   22.7480   36.7930 O   0  0  0  0  0  0  0  0  0  0  0  0
   37.0040   21.9040   36.2890 H   0  0  0  0  0  0  0  0  0  0  0  0
   39.7100   22.3450   36.6750 O   0  0  0  0  0  0  0  0  0  0  0  0
   40.8360   22.3520   37.4730 C   0  0  0  0  0  3  0  0  0  0  0  0
   42.1050   22.6850   36.7170 C   0  0  0  0  0  2  0  0  0  0  0  0
   41.8800   21.2550   37.1740 C   0  0  0  0  0  2  0  0  0  0  0  0
  1 10  1  0  0  0  0
  2  1  1  0  0  0  0
  2  7  1  0  0  0  0
  3  2  2  0  0  0  0
  4  5  2  0  0  0  0
  4  3  1  0  0  0  0
  5  6  1  0  0  0  0
  6  1  2  0  0  0  0
  8  3  1  0  0  0  0
  9  5  1  0  0  0  0
 10 12  1  0  0  0  0
 12 11  2  1  0  0  0
 13 12  1  0  0  0  0
 14 13  1  0  0  0  0
 15 12  1  0  0  0  0
 15 16  1  0  0  0  0
 17 18  1  0  0  0  0
 17 16  1  0  0  0  0
 18 16  1  0  0  0  0
M  END
>  <minimizedAffinity>
-3.71249413

$$$$

 OpenBabel03262521103D

 18 19  0  0  0  0  0  0  0  0999 V2000
   37.3640   22.2350   33.6260 C   0  0  0  0  0  0  0  0  0  0  0  0
   37.1290   22.9730   32.4670 C   0  0  0  0  0  0  0  0  0  0  0  0
   36.0500   22.6520   31.6600 C   0  0  0  0  0  0  0  0  0  0  0  0
   35.2540   21.6140   32.0430 N   0  0  0  0  0  0  0  0  0  0  0  0
   35.4980   20.9070   33.1740 C   0  0  0  0  0  0  0  0  0  0  0  0
   36.5530   21.2130   33.9720 N   0  0  0  0  0  0  0  0  0  0  0  0
   37.8260   23.7660   32.2740 H   0  0  0  0  0  0  0  0  0  0  0  0
   35.8790   23.2330   30.7650 H   0  0  0  0  0  0  0  0  0  0  0  0
   34.8340   20.0930   33.4290 H   0  0  0  0  0  0  0  0  0  0  0  0
   38.3990   22.4320   34.5350 O   0  0  0  0  0  0  0  0  0  0  0  0
   37.6310   24.3780   36.2220 O   0  0  0  0  0  0  0  0  0  0  0  0
   38.1090   22.9400   36.1530 P   0  0  1  0  0  0  0  0  0  0  0  0
   36.9500   21.8710   36.7760 O   0  0  0  0  0  0  0  0  0  0  0  0
   37.2600   21.3860   37.5730 H   0  0  0  0  0  0  0  0  0  0  0  0
   39.5410   22.8600   37.0380 O   0  0  0  0  0  0  0  0  0  0  0  0
   40.5140   22.0920   36.4310 C   0  0  0  0  0  3  0  0  0  0  0  0
   41.4920   21.4780   37.4110 C   0  0  0  0  0  2  0  0  0  0  0  0
   41.9580   22.6280   36.5380 C   0  0  0  0  0  2  0  0  0  0  0  0
  1  6  1  0  0  0  0
  1 10  1  0  0  0  0
  2  1  2  0  0  0  0
  3  4  2  0  0  0  0
  3  2  1  0  0  0  0
  4  5  1  0  0  0  0
  5  9  1  0  0  0  0
  5  6  2  0  0  0  0
  7  2  1  0  0  0  0
  8  3  1  0  0  0  0
 10 12  1  0  0  0  0
 12 11  2  1  0  0  0
 12 13  1  0  0  0  0
 12 15  1  0  0  0  0
 13 14  1  0  0  0  0
 16 18  1  0  0  0  0
 16 15  1  0  0  0  0
 16 17  1  0  0  0  0
 18 17  1  0  0  0  0
M  END
>  <minimizedAffinity>
-3.62860584

$$$$

 OpenBabel03262521103D

 18 19  0  0  0  0  0  0  0  0999 V2000
   38.2600   25.2650   34.6460 C   0  0  0  0  0  0  0  0  0  0  0  0
   37.2720   25.9730   33.9620 C   0  0  0  0  0  0  0  0  0  0  0  0
   36.9950   27.2810   34.3260 C   0  0  0  0  0  0  0  0  0  0  0  0
   37.7110   27.8240   35.3500 N   0  0  0  0  0  0  0  0  0  0  0  0
   38.6670   27.1190   36.0040 C   0  0  0  0  0  0  0  0  0  0  0  0
   38.9470   25.8370   35.6560 N   0  0  0  0  0  0  0  0  0  0  0  0
   36.7790   25.4360   33.1740 H   0  0  0  0  0  0  0  0  0  0  0  0
   36.2270   27.8180   33.7870 H   0  0  0  0  0  0  0  0  0  0  0  0
   39.2040   27.6000   36.8090 H   0  0  0  0  0  0  0  0  0  0  0  0
   38.6530   23.9530   34.4020 O   0  0  0  0  0  0  0  0  0  0  0  0
   37.4480   23.1340   36.6600 O   0  0  0  0  0  0  0  0  0  0  0  0
   38.1640   22.6500   35.4140 P   0  0  1  0  0  0  0  0  0  0  0  0
   37.1580   21.6740   34.4600 O   0  0  0  0  0  0  0  0  0  0  0  0
   37.4850   20.7510   34.3720 H   0  0  0  0  0  0  0  0  0  0  0  0
   39.5200   21.7940   35.9320 O   0  0  0  0  0  0  0  0  0  0  0  0
   40.1720   22.3950   36.9890 C   0  0  0  0  0  3  0  0  0  0  0  0
   41.5640   22.8770   36.6400 C   0  0  0  0  0  2  0  0  0  0  0  0
   41.4160   21.6510   37.5220 C   0  0  0  0  0  2  0  0  0  0  0  0
  1  6  1  0  0  0  0
  2  3  1  0  0  0  0
  2  1  2  0  0  0  0
  3  4  2  0  0  0  0
  4  5  1  0  0  0  0
  5  9  1  0  0  0  0
  6  5  2  0  0  0  0
  7  2  1  0  0  0  0
  8  3  1  0  0  0  0
 10  1  1  0  0  0  0
 10 12  1  0  0  0  0
 12 15  1  0  0  0  0
 12 11  2  1  0  0  0
 13 12  1  0  0  0  0
 14 13  1  0  0  0  0
 15 16  1  0  0  0  0
 16 18  1  0  0  0  0
 17 16  1  0  0  0  0
 17 18  1  0  0  0  0
M  END
>  <minimizedAffinity>
-3.58077884

$$$$
