
 OpenBabel03262522253D

 29 31  0  0  0  0  0  0  0  0999 V2000
   37.1790   26.1510   33.4690 C   0  0  0  0  0  0  0  0  0  0  0  0
   38.0070   26.1010   34.6120 C   0  0  0  0  0  0  0  0  0  0  0  0
   38.0150   27.1820   35.4750 C   0  0  0  0  0  0  0  0  0  0  0  0
   37.2120   28.2400   35.1680 N   0  0  0  0  0  0  0  0  0  0  0  0
   36.4560   28.2520   34.0990 C   0  0  0  0  0  0  0  0  0  0  0  0
   36.4080   27.1960   33.1950 N   0  0  0  0  0  0  0  0  0  0  0  0
   37.0910   25.3690   32.7250 H   0  0  0  0  0  0  0  0  0  0  0  0
   38.6490   27.1210   36.3340 H   0  0  0  0  0  0  0  0  0  0  0  0
   38.7450   24.9520   34.7550 O   0  0  0  0  0  0  0  0  0  0  0  0
   38.7710   24.3560   36.0290 C   0  0  0  0  0  0  0  0  0  0  0  0
   37.9010   24.5650   37.0880 C   0  0  0  0  0  0  0  0  0  0  0  0
   38.0840   23.9010   38.2420 C   0  0  0  0  0  0  0  0  0  0  0  0
   39.1440   23.0180   38.3400 C   0  0  0  0  0  0  0  0  0  0  0  0
   40.0030   22.8170   37.2810 C   0  0  0  0  0  0  0  0  0  0  0  0
   39.7830   23.5090   36.1350 N   0  0  0  0  0  0  0  0  0  0  0  0
   37.1140   25.2950   36.8520 H   0  0  0  0  0  0  0  0  0  0  0  0
   37.3750   24.0970   39.0470 H   0  0  0  0  0  0  0  0  0  0  0  0
   39.2770   22.4900   39.2760 H   0  0  0  0  0  0  0  0  0  0  0  0
   41.1450   21.8540   37.4150 C   0  0  0  0  0  0  0  0  0  0  0  0
   40.8280   20.9800   38.0270 H   0  0  0  0  0  0  0  0  0  0  0  0
   41.5050   21.5720   36.4000 H   0  0  0  0  0  0  0  0  0  0  0  0
   41.9790   22.3440   37.9950 H   0  0  0  0  0  0  0  0  0  0  0  0
   35.5160   29.7950   33.9770 S   0  0  0  0  0  0  0  0  0  0  0  0
   36.0180   30.7550   35.4470 C   0  0  0  0  0  0  0  0  0  0  0  0
   36.9740   31.2860   35.2590 H   0  0  0  0  0  0  0  0  0  0  0  0
   36.0710   30.1030   36.3440 H   0  0  0  0  0  0  0  0  0  0  0  0
   34.9570   31.8140   35.6670 C   0  0  0  0  0  3  0  0  0  0  0  0
   34.6810   32.2830   37.0510 C   0  0  0  0  0  2  0  0  0  0  0  0
   35.3960   33.1870   36.1260 C   0  0  0  0  0  2  0  0  0  0  0  0
  1  2  1  0  0  0  0
  2  9  1  0  0  0  0
  2  3  2  0  0  0  0
  3  8  1  0  0  0  0
  4  3  1  0  0  0  0
  5  4  2  0  0  0  0
  6  1  2  0  0  0  0
  6  5  1  0  0  0  0
  7  1  1  0  0  0  0
  9 10  1  0  0  0  0
 10 15  2  0  0  0  0
 10 11  1  0  0  0  0
 11 12  2  0  0  0  0
 12 13  1  0  0  0  0
 12 17  1  0  0  0  0
 13 18  1  0  0  0  0
 14 19  1  0  0  0  0
 14 13  2  0  0  0  0
 15 14  1  0  0  0  0
 16 11  1  0  0  0  0
 19 22  1  0  0  0  0
 19 20  1  0  0  0  0
 21 19  1  0  0  0  0
 23  5  1  0  0  0  0
 23 24  1  0  0  0  0
 24 27  1  0  0  0  0
 24 26  1  0  0  0  0
 25 24  1  0  0  0  0
 27 29  1  0  0  0  0
 27 28  1  0  0  0  0
 29 28  1  0  0  0  0
M  END
>  <minimizedAffinity>
-4.96068287

$$$$

 OpenBabel03262522253D

 29 31  0  0  0  0  0  0  0  0999 V2000
   36.2930   27.6420   32.6230 C   0  0  0  0  0  0  0  0  0  0  0  0
   36.2850   28.5140   33.7340 C   0  0  0  0  0  0  0  0  0  0  0  0
   36.8360   28.0760   34.9260 C   0  0  0  0  0  0  0  0  0  0  0  0
   37.3590   26.8180   34.9540 N   0  0  0  0  0  0  0  0  0  0  0  0
   37.3490   26.0360   33.9030 C   0  0  0  0  0  0  0  0  0  0  0  0
   36.8090   26.4210   32.6810 N   0  0  0  0  0  0  0  0  0  0  0  0
   35.8920   27.8740   31.6440 H   0  0  0  0  0  0  0  0  0  0  0  0
   36.8200   28.7530   35.7540 H   0  0  0  0  0  0  0  0  0  0  0  0
   35.7160   29.7430   33.5160 O   0  0  0  0  0  0  0  0  0  0  0  0
   35.2250   30.4370   34.6370 C   0  0  0  0  0  0  0  0  0  0  0  0
   35.9090   31.3160   35.4630 C   0  0  0  0  0  0  0  0  0  0  0  0
   35.2730   31.8910   36.4980 C   0  0  0  0  0  0  0  0  0  0  0  0
   33.9400   31.5870   36.7100 C   0  0  0  0  0  0  0  0  0  0  0  0
   33.2700   30.7120   35.8830 C   0  0  0  0  0  0  0  0  0  0  0  0
   33.9510   30.1540   34.8510 N   0  0  0  0  0  0  0  0  0  0  0  0
   36.9580   31.4510   35.1630 H   0  0  0  0  0  0  0  0  0  0  0  0
   35.8500   32.5750   37.1200 H   0  0  0  0  0  0  0  0  0  0  0  0
   33.4420   32.0580   37.5470 H   0  0  0  0  0  0  0  0  0  0  0  0
   31.8250   30.4000   36.1360 C   0  0  0  0  0  0  0  0  0  0  0  0
   31.3010   31.3140   36.4940 H   0  0  0  0  0  0  0  0  0  0  0  0
   31.3770   29.9700   35.2120 H   0  0  0  0  0  0  0  0  0  0  0  0
   31.7470   29.6560   36.9810 H   0  0  0  0  0  0  0  0  0  0  0  0
   38.1160   24.4360   34.2680 S   0  0  0  0  0  0  0  0  0  0  0  0
   38.9240   24.6730   35.8880 C   0  0  0  0  0  0  0  0  0  0  0  0
   38.8010   25.7200   36.2360 H   0  0  0  0  0  0  0  0  0  0  0  0
   39.9910   24.3700   35.8440 H   0  0  0  0  0  0  0  0  0  0  0  0
   38.1970   23.7860   36.8780 C   0  0  0  0  0  3  0  0  0  0  0  0
   38.9380   23.2610   38.0560 C   0  0  0  0  0  2  0  0  0  0  0  0
   37.9340   24.3260   38.2670 C   0  0  0  0  0  2  0  0  0  0  0  0
  1  6  2  0  0  0  0
  1  2  1  0  0  0  0
  2  3  2  0  0  0  0
  3  4  1  0  0  0  0
  3  8  1  0  0  0  0
  5 23  1  0  0  0  0
  5  4  2  0  0  0  0
  6  5  1  0  0  0  0
  7  1  1  0  0  0  0
  9  2  1  0  0  0  0
  9 10  1  0  0  0  0
 10 15  2  0  0  0  0
 10 11  1  0  0  0  0
 11 12  2  0  0  0  0
 12 13  1  0  0  0  0
 12 17  1  0  0  0  0
 13 18  1  0  0  0  0
 14 19  1  0  0  0  0
 14 13  2  0  0  0  0
 15 14  1  0  0  0  0
 16 11  1  0  0  0  0
 19 20  1  0  0  0  0
 19 22  1  0  0  0  0
 21 19  1  0  0  0  0
 23 24  1  0  0  0  0
 24 25  1  0  0  0  0
 24 27  1  0  0  0  0
 26 24  1  0  0  0  0
 27 28  1  0  0  0  0
 27 29  1  0  0  0  0
 28 29  1  0  0  0  0
M  END
>  <minimizedAffinity>
-4.82022429

$$$$

 OpenBabel03262522253D

 29 31  0  0  0  0  0  0  0  0999 V2000
   37.0350   27.8440   34.8790 C   0  0  0  0  0  0  0  0  0  0  0  0
   36.5580   28.1040   33.5750 C   0  0  0  0  0  0  0  0  0  0  0  0
   36.6220   27.0940   32.6300 C   0  0  0  0  0  0  0  0  0  0  0  0
   37.1470   25.8990   33.0210 N   0  0  0  0  0  0  0  0  0  0  0  0
   37.5800   25.6930   34.2400 C   0  0  0  0  0  0  0  0  0  0  0  0
   37.5420   26.6700   35.2290 N   0  0  0  0  0  0  0  0  0  0  0  0
   37.0360   28.5540   35.6970 H   0  0  0  0  0  0  0  0  0  0  0  0
   36.2540   27.3130   31.6500 H   0  0  0  0  0  0  0  0  0  0  0  0
   36.0640   29.3670   33.3680 O   0  0  0  0  0  0  0  0  0  0  0  0
   35.0270   29.8040   34.2130 C   0  0  0  0  0  0  0  0  0  0  0  0
   33.7310   29.3190   34.2950 C   0  0  0  0  0  0  0  0  0  0  0  0
   32.8690   29.8650   35.1690 C   0  0  0  0  0  0  0  0  0  0  0  0
   33.3050   30.9030   35.9720 C   0  0  0  0  0  0  0  0  0  0  0  0
   34.5960   31.3780   35.8830 C   0  0  0  0  0  0  0  0  0  0  0  0
   35.4330   30.7990   34.9860 N   0  0  0  0  0  0  0  0  0  0  0  0
   33.5420   28.4950   33.5920 H   0  0  0  0  0  0  0  0  0  0  0  0
   31.8610   29.4510   35.1980 H   0  0  0  0  0  0  0  0  0  0  0  0
   32.5990   31.3320   36.6710 H   0  0  0  0  0  0  0  0  0  0  0  0
   35.0420   32.5060   36.7650 C   0  0  0  0  0  0  0  0  0  0  0  0
   34.5710   32.4060   37.7680 H   0  0  0  0  0  0  0  0  0  0  0  0
   36.1550   32.5220   36.8010 H   0  0  0  0  0  0  0  0  0  0  0  0
   34.6590   33.4800   36.3450 H   0  0  0  0  0  0  0  0  0  0  0  0
   38.2150   24.0080   34.4360 S   0  0  0  0  0  0  0  0  0  0  0  0
   39.1900   24.0630   35.9780 C   0  0  0  0  0  0  0  0  0  0  0  0
   39.4250   25.1120   36.2560 H   0  0  0  0  0  0  0  0  0  0  0  0
   40.1040   23.4400   35.8890 H   0  0  0  0  0  0  0  0  0  0  0  0
   38.3120   23.4990   37.0760 C   0  0  0  0  0  3  0  0  0  0  0  0
   38.8950   23.2790   38.4270 C   0  0  0  0  0  2  0  0  0  0  0  0
   37.9470   24.3980   38.2380 C   0  0  0  0  0  2  0  0  0  0  0  0
  1  6  1  0  0  0  0
  1  7  1  0  0  0  0
  2  1  2  0  0  0  0
  3  4  2  0  0  0  0
  3  2  1  0  0  0  0
  4  5  1  0  0  0  0
  5 23  1  0  0  0  0
  5  6  2  0  0  0  0
  8  3  1  0  0  0  0
  9  2  1  0  0  0  0
  9 10  1  0  0  0  0
 10 11  2  0  0  0  0
 10 15  1  0  0  0  0
 11 12  1  0  0  0  0
 12 17  1  0  0  0  0
 12 13  2  0  0  0  0
 13 18  1  0  0  0  0
 14 13  1  0  0  0  0
 14 19  1  0  0  0  0
 15 14  2  0  0  0  0
 16 11  1  0  0  0  0
 19 21  1  0  0  0  0
 19 20  1  0  0  0  0
 22 19  1  0  0  0  0
 23 24  1  0  0  0  0
 24 25  1  0  0  0  0
 24 27  1  0  0  0  0
 26 24  1  0  0  0  0
 27 29  1  0  0  0  0
 27 28  1  0  0  0  0
 29 28  1  0  0  0  0
M  END
>  <minimizedAffinity>
-4.65585184

$$$$

 OpenBabel03262522253D

 29 31  0  0  0  0  0  0  0  0999 V2000
   37.8910   25.2120   32.7170 C   0  0  0  0  0  0  0  0  0  0  0  0
   37.1840   24.3790   31.8220 C   0  0  0  0  0  0  0  0  0  0  0  0
   36.0720   24.8900   31.1760 C   0  0  0  0  0  0  0  0  0  0  0  0
   35.7240   26.1800   31.4460 N   0  0  0  0  0  0  0  0  0  0  0  0
   36.4040   26.9240   32.2820 C   0  0  0  0  0  0  0  0  0  0  0  0
   37.5280   26.4650   32.9600 N   0  0  0  0  0  0  0  0  0  0  0  0
   38.7720   24.9230   33.2770 H   0  0  0  0  0  0  0  0  0  0  0  0
   35.5530   24.2420   30.5030 H   0  0  0  0  0  0  0  0  0  0  0  0
   37.6840   23.1100   31.6780 O   0  0  0  0  0  0  0  0  0  0  0  0
   36.8250   22.0370   31.9830 C   0  0  0  0  0  0  0  0  0  0  0  0
   36.1610   21.1980   31.1010 C   0  0  0  0  0  0  0  0  0  0  0  0
   35.3740   20.2190   31.5780 C   0  0  0  0  0  0  0  0  0  0  0  0
   35.2490   20.0750   32.9470 C   0  0  0  0  0  0  0  0  0  0  0  0
   35.9130   20.9140   33.8150 C   0  0  0  0  0  0  0  0  0  0  0  0
   36.6970   21.8900   33.2910 N   0  0  0  0  0  0  0  0  0  0  0  0
   36.3640   21.4430   30.0490 H   0  0  0  0  0  0  0  0  0  0  0  0
   34.8720   19.5840   30.8470 H   0  0  0  0  0  0  0  0  0  0  0  0
   34.6110   19.2810   33.3150 H   0  0  0  0  0  0  0  0  0  0  0  0
   35.7590   20.7350   35.2960 C   0  0  0  0  0  0  0  0  0  0  0  0
   35.6920   19.6520   35.5380 H   0  0  0  0  0  0  0  0  0  0  0  0
   36.5980   21.2510   35.8150 H   0  0  0  0  0  0  0  0  0  0  0  0
   34.7750   21.1800   35.6240 H   0  0  0  0  0  0  0  0  0  0  0  0
   35.6860   28.5810   32.4200 S   0  0  0  0  0  0  0  0  0  0  0  0
   35.7260   28.9510   34.2070 C   0  0  0  0  0  0  0  0  0  0  0  0
   36.7210   28.7090   34.6350 H   0  0  0  0  0  0  0  0  0  0  0  0
   34.9040   28.4250   34.7370 H   0  0  0  0  0  0  0  0  0  0  0  0
   35.5310   30.4460   34.3530 C   0  0  0  0  0  3  0  0  0  0  0  0
   34.5300   30.9520   35.3310 C   0  0  0  0  0  2  0  0  0  0  0  0
   35.9670   31.1050   35.6440 C   0  0  0  0  0  2  0  0  0  0  0  0
  1  6  1  0  0  0  0
  1  7  1  0  0  0  0
  2  1  2  0  0  0  0
  3  4  2  0  0  0  0
  3  2  1  0  0  0  0
  4  5  1  0  0  0  0
  5 23  1  0  0  0  0
  5  6  2  0  0  0  0
  8  3  1  0  0  0  0
  9  2  1  0  0  0  0
  9 10  1  0  0  0  0
 10 15  1  0  0  0  0
 11 12  1  0  0  0  0
 11 10  2  0  0  0  0
 12 13  2  0  0  0  0
 13 18  1  0  0  0  0
 13 14  1  0  0  0  0
 14 19  1  0  0  0  0
 15 14  2  0  0  0  0
 16 11  1  0  0  0  0
 17 12  1  0  0  0  0
 19 20  1  0  0  0  0
 19 22  1  0  0  0  0
 19 21  1  0  0  0  0
 23 24  1  0  0  0  0
 24 27  1  0  0  0  0
 24 25  1  0  0  0  0
 24 26  1  0  0  0  0
 27 28  1  0  0  0  0
 27 29  1  0  0  0  0
 28 29  1  0  0  0  0
M  END
>  <minimizedAffinity>
-4.63127661

$$$$

 OpenBabel03262522253D

 29 31  0  0  0  0  0  0  0  0999 V2000
   37.3540   26.0390   33.4270 C   0  0  0  0  0  0  0  0  0  0  0  0
   38.1900   26.1710   34.5580 C   0  0  0  0  0  0  0  0  0  0  0  0
   38.0960   27.3200   35.3230 C   0  0  0  0  0  0  0  0  0  0  0  0
   37.1920   28.2630   34.9350 N   0  0  0  0  0  0  0  0  0  0  0  0
   36.4320   28.1070   33.8800 C   0  0  0  0  0  0  0  0  0  0  0  0
   36.4840   26.9750   33.0730 N   0  0  0  0  0  0  0  0  0  0  0  0
   37.3400   25.1890   32.7560 H   0  0  0  0  0  0  0  0  0  0  0  0
   38.7380   27.3970   36.1750 H   0  0  0  0  0  0  0  0  0  0  0  0
   39.0370   25.1170   34.7920 O   0  0  0  0  0  0  0  0  0  0  0  0
   38.9410   24.4730   36.0390 C   0  0  0  0  0  0  0  0  0  0  0  0
   38.0060   24.6880   37.0400 C   0  0  0  0  0  0  0  0  0  0  0  0
   38.0710   23.9730   38.1760 C   0  0  0  0  0  0  0  0  0  0  0  0
   39.0770   23.0340   38.3150 C   0  0  0  0  0  0  0  0  0  0  0  0
   40.0010   22.8280   37.3130 C   0  0  0  0  0  0  0  0  0  0  0  0
   39.8990   23.5720   36.1830 N   0  0  0  0  0  0  0  0  0  0  0  0
   37.2750   25.4660   36.7780 H   0  0  0  0  0  0  0  0  0  0  0  0
   37.3150   24.1760   38.9360 H   0  0  0  0  0  0  0  0  0  0  0  0
   39.1140   22.4670   39.2360 H   0  0  0  0  0  0  0  0  0  0  0  0
   41.0820   21.8040   37.4900 C   0  0  0  0  0  0  0  0  0  0  0  0
   40.6790   20.9260   38.0420 H   0  0  0  0  0  0  0  0  0  0  0  0
   41.5010   21.5420   36.4920 H   0  0  0  0  0  0  0  0  0  0  0  0
   41.8930   22.2290   38.1470 H   0  0  0  0  0  0  0  0  0  0  0  0
   35.3440   29.5340   33.6370 S   0  0  0  0  0  0  0  0  0  0  0  0
   35.2110   29.7050   31.8240 C   0  0  0  0  0  0  0  0  0  0  0  0
   34.5540   30.5600   31.5590 H   0  0  0  0  0  0  0  0  0  0  0  0
   34.8660   28.7560   31.3630 H   0  0  0  0  0  0  0  0  0  0  0  0
   36.5970   30.0320   31.3080 C   0  0  0  0  0  3  0  0  0  0  0  0
   37.1020   29.3270   30.0990 C   0  0  0  0  0  2  0  0  0  0  0  0
   36.7180   30.7510   29.9820 C   0  0  0  0  0  2  0  0  0  0  0  0
  1  2  1  0  0  0  0
  2  9  1  0  0  0  0
  2  3  2  0  0  0  0
  3  8  1  0  0  0  0
  4  3  1  0  0  0  0
  5  4  2  0  0  0  0
  6  1  2  0  0  0  0
  6  5  1  0  0  0  0
  7  1  1  0  0  0  0
  9 10  1  0  0  0  0
 10 15  2  0  0  0  0
 10 11  1  0  0  0  0
 11 12  2  0  0  0  0
 12 13  1  0  0  0  0
 12 17  1  0  0  0  0
 13 18  1  0  0  0  0
 14 19  1  0  0  0  0
 14 13  2  0  0  0  0
 15 14  1  0  0  0  0
 16 11  1  0  0  0  0
 19 20  1  0  0  0  0
 19 22  1  0  0  0  0
 21 19  1  0  0  0  0
 23  5  1  0  0  0  0
 24 23  1  0  0  0  0
 25 24  1  0  0  0  0
 26 24  1  0  0  0  0
 27 24  1  0  0  0  0
 28 27  1  0  0  0  0
 29 28  1  0  0  0  0
 29 27  1  0  0  0  0
M  END
>  <minimizedAffinity>
-4.62989426

$$$$

 OpenBabel03262522253D

 29 31  0  0  0  0  0  0  0  0999 V2000
   35.8620   27.5170   31.6160 C   0  0  0  0  0  0  0  0  0  0  0  0
   36.2720   28.1480   32.8120 C   0  0  0  0  0  0  0  0  0  0  0  0
   36.9230   27.3930   33.7720 C   0  0  0  0  0  0  0  0  0  0  0  0
   37.1330   26.0740   33.5010 N   0  0  0  0  0  0  0  0  0  0  0  0
   36.7390   25.5220   32.3810 C   0  0  0  0  0  0  0  0  0  0  0  0
   36.0800   26.2300   31.3810 N   0  0  0  0  0  0  0  0  0  0  0  0
   35.3460   28.0040   30.7980 H   0  0  0  0  0  0  0  0  0  0  0  0
   37.2250   27.8920   34.6690 H   0  0  0  0  0  0  0  0  0  0  0  0
   35.9740   29.4840   32.9060 O   0  0  0  0  0  0  0  0  0  0  0  0
   34.9790   29.8620   33.8270 C   0  0  0  0  0  0  0  0  0  0  0  0
   33.6660   29.4240   33.8920 C   0  0  0  0  0  0  0  0  0  0  0  0
   32.8510   29.9000   34.8480 C   0  0  0  0  0  0  0  0  0  0  0  0
   33.3520   30.8200   35.7510 C   0  0  0  0  0  0  0  0  0  0  0  0
   34.6600   31.2490   35.6780 C   0  0  0  0  0  0  0  0  0  0  0  0
   35.4470   30.7440   34.6950 N   0  0  0  0  0  0  0  0  0  0  0  0
   33.4220   28.6950   33.1060 H   0  0  0  0  0  0  0  0  0  0  0  0
   31.8260   29.5270   34.8610 H   0  0  0  0  0  0  0  0  0  0  0  0
   32.6830   31.1940   36.5150 H   0  0  0  0  0  0  0  0  0  0  0  0
   35.1770   32.2490   36.6690 C   0  0  0  0  0  0  0  0  0  0  0  0
   34.7280   32.0530   37.6680 H   0  0  0  0  0  0  0  0  0  0  0  0
   36.2900   32.2150   36.6730 H   0  0  0  0  0  0  0  0  0  0  0  0
   34.8260   33.2800   36.3750 H   0  0  0  0  0  0  0  0  0  0  0  0
   37.1660   23.7630   32.3300 S   0  0  0  0  0  0  0  0  0  0  0  0
   35.6990   22.9570   31.6000 C   0  0  0  0  0  0  0  0  0  0  0  0
   35.6470   23.1540   30.5080 H   0  0  0  0  0  0  0  0  0  0  0  0
   34.7740   23.2710   32.1260 H   0  0  0  0  0  0  0  0  0  0  0  0
   35.8850   21.4630   31.7730 C   0  0  0  0  0  3  0  0  0  0  0  0
   35.6720   20.8600   33.1160 C   0  0  0  0  0  2  0  0  0  0  0  0
   34.6640   20.6170   32.0620 C   0  0  0  0  0  2  0  0  0  0  0  0
  1  2  1  0  0  0  0
  2  9  1  0  0  0  0
  2  3  2  0  0  0  0
  3  8  1  0  0  0  0
  4  3  1  0  0  0  0
  5  4  2  0  0  0  0
  6  1  2  0  0  0  0
  6  5  1  0  0  0  0
  7  1  1  0  0  0  0
  9 10  1  0  0  0  0
 10 11  2  0  0  0  0
 10 15  1  0  0  0  0
 11 12  1  0  0  0  0
 12 17  1  0  0  0  0
 12 13  2  0  0  0  0
 13 18  1  0  0  0  0
 14 13  1  0  0  0  0
 14 19  1  0  0  0  0
 15 14  2  0  0  0  0
 16 11  1  0  0  0  0
 19 21  1  0  0  0  0
 19 20  1  0  0  0  0
 22 19  1  0  0  0  0
 23  5  1  0  0  0  0
 24 27  1  0  0  0  0
 24 26  1  0  0  0  0
 24 23  1  0  0  0  0
 25 24  1  0  0  0  0
 27 29  1  0  0  0  0
 27 28  1  0  0  0  0
 29 28  1  0  0  0  0
M  END
>  <minimizedAffinity>
-4.53315592

$$$$

 OpenBabel03262522253D

 29 31  0  0  0  0  0  0  0  0999 V2000
   37.1520   26.1240   33.2750 C   0  0  0  0  0  0  0  0  0  0  0  0
   37.9130   26.0520   34.4620 C   0  0  0  0  0  0  0  0  0  0  0  0
   37.9110   27.1370   35.3200 C   0  0  0  0  0  0  0  0  0  0  0  0
   37.1640   28.2210   34.9640 N   0  0  0  0  0  0  0  0  0  0  0  0
   36.4690   28.2530   33.8550 C   0  0  0  0  0  0  0  0  0  0  0  0
   36.4350   27.1930   32.9540 N   0  0  0  0  0  0  0  0  0  0  0  0
   37.0780   25.3410   32.5300 H   0  0  0  0  0  0  0  0  0  0  0  0
   38.4940   27.0600   36.2130 H   0  0  0  0  0  0  0  0  0  0  0  0
   38.6010   24.8800   34.6510 O   0  0  0  0  0  0  0  0  0  0  0  0
   38.6360   24.3540   35.9560 C   0  0  0  0  0  0  0  0  0  0  0  0
   37.7900   24.6420   37.0160 C   0  0  0  0  0  0  0  0  0  0  0  0
   37.9780   24.0380   38.2020 C   0  0  0  0  0  0  0  0  0  0  0  0
   39.0190   23.1370   38.3310 C   0  0  0  0  0  0  0  0  0  0  0  0
   39.8550   22.8580   37.2720 C   0  0  0  0  0  0  0  0  0  0  0  0
   39.6300   23.4910   36.0930 N   0  0  0  0  0  0  0  0  0  0  0  0
   37.0160   25.3760   36.7530 H   0  0  0  0  0  0  0  0  0  0  0  0
   37.2880   24.2960   39.0060 H   0  0  0  0  0  0  0  0  0  0  0  0
   39.1570   22.6600   39.2930 H   0  0  0  0  0  0  0  0  0  0  0  0
   40.9770   21.8770   37.4400 C   0  0  0  0  0  0  0  0  0  0  0  0
   40.6520   21.0470   38.1050 H   0  0  0  0  0  0  0  0  0  0  0  0
   41.3120   21.5310   36.4360 H   0  0  0  0  0  0  0  0  0  0  0  0
   41.8320   22.3790   37.9780 H   0  0  0  0  0  0  0  0  0  0  0  0
   35.5920   29.8270   33.6740 S   0  0  0  0  0  0  0  0  0  0  0  0
   33.9650   29.3690   32.9830 C   0  0  0  0  0  0  0  0  0  0  0  0
   33.4430   28.6550   33.6540 H   0  0  0  0  0  0  0  0  0  0  0  0
   34.0720   28.9720   31.9520 H   0  0  0  0  0  0  0  0  0  0  0  0
   33.1310   30.6330   32.9430 C   0  0  0  0  0  3  0  0  0  0  0  0
   32.3130   30.9200   31.7340 C   0  0  0  0  0  2  0  0  0  0  0  0
   31.6240   30.5000   32.9730 C   0  0  0  0  0  2  0  0  0  0  0  0
  1  2  1  0  0  0  0
  2  9  1  0  0  0  0
  2  3  2  0  0  0  0
  3  8  1  0  0  0  0
  4  3  1  0  0  0  0
  5  4  2  0  0  0  0
  6  1  2  0  0  0  0
  6  5  1  0  0  0  0
  7  1  1  0  0  0  0
  9 10  1  0  0  0  0
 10 15  2  0  0  0  0
 10 11  1  0  0  0  0
 11 12  2  0  0  0  0
 12 13  1  0  0  0  0
 12 17  1  0  0  0  0
 13 18  1  0  0  0  0
 14 19  1  0  0  0  0
 14 13  2  0  0  0  0
 15 14  1  0  0  0  0
 16 11  1  0  0  0  0
 19 22  1  0  0  0  0
 19 20  1  0  0  0  0
 21 19  1  0  0  0  0
 23  5  1  0  0  0  0
 24 25  1  0  0  0  0
 24 23  1  0  0  0  0
 26 24  1  0  0  0  0
 27 29  1  0  0  0  0
 27 24  1  0  0  0  0
 28 27  1  0  0  0  0
 28 29  1  0  0  0  0
M  END
>  <minimizedAffinity>
-4.50475025

$$$$

 OpenBabel03262522253D

 29 31  0  0  0  0  0  0  0  0999 V2000
   35.4370   26.2390   31.0260 C   0  0  0  0  0  0  0  0  0  0  0  0
   36.1100   27.1170   31.9040 C   0  0  0  0  0  0  0  0  0  0  0  0
   36.9840   26.5850   32.8360 C   0  0  0  0  0  0  0  0  0  0  0  0
   37.1450   25.2310   32.8480 N   0  0  0  0  0  0  0  0  0  0  0  0
   36.5040   24.4470   32.0180 C   0  0  0  0  0  0  0  0  0  0  0  0
   35.6130   24.9250   31.0620 N   0  0  0  0  0  0  0  0  0  0  0  0
   34.7320   26.5390   30.2610 H   0  0  0  0  0  0  0  0  0  0  0  0
   37.4830   27.2690   33.4890 H   0  0  0  0  0  0  0  0  0  0  0  0
   35.8210   28.4490   31.7430 O   0  0  0  0  0  0  0  0  0  0  0  0
   35.1380   29.0950   32.7900 C   0  0  0  0  0  0  0  0  0  0  0  0
   35.6750   29.8380   33.8290 C   0  0  0  0  0  0  0  0  0  0  0  0
   34.8610   30.3860   34.7480 C   0  0  0  0  0  0  0  0  0  0  0  0
   33.4970   30.1900   34.6280 C   0  0  0  0  0  0  0  0  0  0  0  0
   32.9730   29.4490   33.5910 C   0  0  0  0  0  0  0  0  0  0  0  0
   33.8310   28.9130   32.6870 N   0  0  0  0  0  0  0  0  0  0  0  0
   36.7720   29.9000   33.7840 H   0  0  0  0  0  0  0  0  0  0  0  0
   35.3280   30.9620   35.5470 H   0  0  0  0  0  0  0  0  0  0  0  0
   32.8560   30.6370   35.3760 H   0  0  0  0  0  0  0  0  0  0  0  0
   31.4900   29.2520   33.4850 C   0  0  0  0  0  0  0  0  0  0  0  0
   30.9650   30.1790   33.8060 H   0  0  0  0  0  0  0  0  0  0  0  0
   31.2370   28.9390   32.4470 H   0  0  0  0  0  0  0  0  0  0  0  0
   31.1680   28.4530   34.2150 H   0  0  0  0  0  0  0  0  0  0  0  0
   36.9350   22.7090   32.2910 S   0  0  0  0  0  0  0  0  0  0  0  0
   35.7980   21.7790   31.2060 C   0  0  0  0  0  0  0  0  0  0  0  0
   36.1480   21.8140   30.1530 H   0  0  0  0  0  0  0  0  0  0  0  0
   34.7580   22.1510   31.3140 H   0  0  0  0  0  0  0  0  0  0  0  0
   35.8550   20.3300   31.6460 C   0  0  0  0  0  3  0  0  0  0  0  0
   35.6250   20.0020   33.0780 C   0  0  0  0  0  2  0  0  0  0  0  0
   34.5720   19.6660   32.0960 C   0  0  0  0  0  2  0  0  0  0  0  0
  1  6  2  0  0  0  0
  1  2  1  0  0  0  0
  2  3  2  0  0  0  0
  3  4  1  0  0  0  0
  3  8  1  0  0  0  0
  5 23  1  0  0  0  0
  5  4  2  0  0  0  0
  6  5  1  0  0  0  0
  7  1  1  0  0  0  0
  9  2  1  0  0  0  0
  9 10  1  0  0  0  0
 10 11  1  0  0  0  0
 11 12  2  0  0  0  0
 12 17  1  0  0  0  0
 13 12  1  0  0  0  0
 13 18  1  0  0  0  0
 14 13  2  0  0  0  0
 15 10  2  0  0  0  0
 15 14  1  0  0  0  0
 16 11  1  0  0  0  0
 19 14  1  0  0  0  0
 19 20  1  0  0  0  0
 19 22  1  0  0  0  0
 21 19  1  0  0  0  0
 24 26  1  0  0  0  0
 24 27  1  0  0  0  0
 24 23  1  0  0  0  0
 25 24  1  0  0  0  0
 27 29  1  0  0  0  0
 27 28  1  0  0  0  0
 29 28  1  0  0  0  0
M  END
>  <minimizedAffinity>
-4.46028805

$$$$

 OpenBabel03262522253D

 29 31  0  0  0  0  0  0  0  0999 V2000
   34.8550   28.8810   32.2950 C   0  0  0  0  0  0  0  0  0  0  0  0
   34.8920   29.4440   33.5900 C   0  0  0  0  0  0  0  0  0  0  0  0
   35.8870   29.0400   34.4630 C   0  0  0  0  0  0  0  0  0  0  0  0
   36.7820   28.1150   34.0130 N   0  0  0  0  0  0  0  0  0  0  0  0
   36.7180   27.6150   32.8040 C   0  0  0  0  0  0  0  0  0  0  0  0
   35.7400   27.9820   31.8860 N   0  0  0  0  0  0  0  0  0  0  0  0
   34.1260   29.1190   31.5300 H   0  0  0  0  0  0  0  0  0  0  0  0
   35.8950   29.4790   35.4370 H   0  0  0  0  0  0  0  0  0  0  0  0
   33.9080   30.3600   33.8630 O   0  0  0  0  0  0  0  0  0  0  0  0
   33.2210   30.2280   35.0850 C   0  0  0  0  0  0  0  0  0  0  0  0
   33.2240   31.0990   36.1640 C   0  0  0  0  0  0  0  0  0  0  0  0
   32.5020   30.8060   37.2580 C   0  0  0  0  0  0  0  0  0  0  0  0
   31.7690   29.6330   37.2760 C   0  0  0  0  0  0  0  0  0  0  0  0
   31.7730   28.7740   36.1980 C   0  0  0  0  0  0  0  0  0  0  0  0
   32.5160   29.1080   35.1140 N   0  0  0  0  0  0  0  0  0  0  0  0
   33.8540   31.9830   35.9930 H   0  0  0  0  0  0  0  0  0  0  0  0
   32.5330   31.5190   38.0820 H   0  0  0  0  0  0  0  0  0  0  0  0
   31.1920   29.4110   38.1650 H   0  0  0  0  0  0  0  0  0  0  0  0
   30.9690   27.5090   36.2450 C   0  0  0  0  0  0  0  0  0  0  0  0
   30.0150   27.6900   36.7870 H   0  0  0  0  0  0  0  0  0  0  0  0
   30.8220   27.1320   35.2080 H   0  0  0  0  0  0  0  0  0  0  0  0
   31.5230   26.7390   36.8570 H   0  0  0  0  0  0  0  0  0  0  0  0
   38.0450   26.4160   32.5190 S   0  0  0  0  0  0  0  0  0  0  0  0
   37.2340   24.7880   32.6750 C   0  0  0  0  0  0  0  0  0  0  0  0
   36.3860   24.8410   33.3900 H   0  0  0  0  0  0  0  0  0  0  0  0
   37.9690   24.0060   32.9570 H   0  0  0  0  0  0  0  0  0  0  0  0
   36.6510   24.4530   31.3170 C   0  0  0  0  0  3  0  0  0  0  0  0
   35.8270   23.2230   31.1690 C   0  0  0  0  0  2  0  0  0  0  0  0
   35.1500   24.5370   31.1390 C   0  0  0  0  0  2  0  0  0  0  0  0
  1  2  1  0  0  0  0
  2  9  1  0  0  0  0
  2  3  2  0  0  0  0
  3  8  1  0  0  0  0
  4  3  1  0  0  0  0
  5  4  2  0  0  0  0
  6  1  2  0  0  0  0
  6  5  1  0  0  0  0
  7  1  1  0  0  0  0
  9 10  1  0  0  0  0
 10 15  2  0  0  0  0
 10 11  1  0  0  0  0
 11 12  2  0  0  0  0
 12 13  1  0  0  0  0
 12 17  1  0  0  0  0
 13 18  1  0  0  0  0
 14 19  1  0  0  0  0
 14 13  2  0  0  0  0
 15 14  1  0  0  0  0
 16 11  1  0  0  0  0
 19 20  1  0  0  0  0
 19 22  1  0  0  0  0
 21 19  1  0  0  0  0
 23 24  1  0  0  0  0
 23  5  1  0  0  0  0
 24 26  1  0  0  0  0
 24 25  1  0  0  0  0
 27 24  1  0  0  0  0
 28 27  1  0  0  0  0
 29 28  1  0  0  0  0
 29 27  1  0  0  0  0
M  END
>  <minimizedAffinity>
-4.38821125

$$$$
