
 OpenBabel03262523313D

 27 30  0  0  0  0  0  0  0  0999 V2000
   38.3450   25.0310   33.9210 C   0  0  0  0  0  0  0  0  0  0  0  0
   37.6810   26.0280   34.6420 C   0  0  0  0  0  0  0  0  0  0  0  0
   37.5530   25.9130   36.0090 C   0  0  0  0  0  0  0  0  0  0  0  0
   38.0880   24.8040   36.6330 C   0  0  0  0  0  0  0  0  0  0  0  0
   38.0870   24.4770   37.9440 N   0  0  0  0  0  0  0  0  0  0  0  0
   38.7270   23.3100   38.0670 C   0  0  0  0  0  0  0  0  0  0  0  0
   39.1370   22.8810   36.8760 N   0  0  0  0  0  0  0  0  0  0  0  0
   38.7540   23.7920   35.9540 C   0  0  0  0  0  0  0  0  0  0  0  0
   38.8760   23.9210   34.5800 C   0  0  0  0  0  0  0  0  0  0  0  0
   38.5000   25.0240   32.8490 H   0  0  0  0  0  0  0  0  0  0  0  0
   37.0510   26.6640   36.5630 H   0  0  0  0  0  0  0  0  0  0  0  0
   37.6610   25.0430   38.6990 H   0  0  0  0  0  0  0  0  0  0  0  0
   38.8610   22.8270   39.0400 H   0  0  0  0  0  0  0  0  0  0  0  0
   39.3950   23.1330   34.0400 H   0  0  0  0  0  0  0  0  0  0  0  0
   36.7820   28.3820   31.8590 C   0  0  0  0  0  0  0  0  0  0  0  0
   37.3190   27.2740   32.4900 C   0  0  0  0  0  0  0  0  0  0  0  0
   37.1600   27.1460   33.8770 C   0  0  0  0  0  0  0  0  0  0  0  0
   36.4760   28.1250   34.5600 N   0  0  0  0  0  0  0  0  0  0  0  0
   35.9730   29.1820   33.8960 C   0  0  0  0  0  0  0  0  0  0  0  0
   36.1120   29.3270   32.5710 N   0  0  0  0  0  0  0  0  0  0  0  0
   36.9160   28.4620   30.7880 H   0  0  0  0  0  0  0  0  0  0  0  0
   37.8540   26.5090   31.9600 H   0  0  0  0  0  0  0  0  0  0  0  0
   35.2580   30.1930   34.6540 C   0  0  0  0  0  0  0  0  0  0  0  0
   34.0480   30.4420   34.4750 O   0  0  0  0  0  0  0  0  0  0  0  0
   35.9940   30.9810   35.7040 C   0  0  0  0  0  3  0  0  0  0  0  0
   36.2150   32.4610   35.4290 C   0  0  0  0  0  2  0  0  0  0  0  0
   35.2600   32.0130   36.4750 C   0  0  0  0  0  2  0  0  0  0  0  0
  1  9  2  0  0  0  0
  1  2  1  0  0  0  0
  2  3  2  0  0  0  0
  3 11  1  0  0  0  0
  3  4  1  0  0  0  0
  4  5  1  0  0  0  0
  5  6  1  0  0  0  0
  5 12  1  0  0  0  0
  6 13  1  0  0  0  0
  7  6  2  0  0  0  0
  8  4  2  0  0  0  0
  8  7  1  0  0  0  0
  9  8  1  0  0  0  0
 10  1  1  0  0  0  0
 14  9  1  0  0  0  0
 15 16  2  0  0  0  0
 15 20  1  0  0  0  0
 16 17  1  0  0  0  0
 17 18  2  0  0  0  0
 17  2  1  0  0  0  0
 19 18  1  0  0  0  0
 19 23  1  0  0  0  0
 20 19  2  0  0  0  0
 21 15  1  0  0  0  0
 22 16  1  0  0  0  0
 23 25  1  0  0  0  0
 24 23  2  0  0  0  0
 25 27  1  0  0  0  0
 26 25  1  0  0  0  0
 26 27  1  0  0  0  0
M  END
>  <minimizedAffinity>
-5.40918589

$$$$

 OpenBabel03262523313D

 27 30  0  0  0  0  0  0  0  0999 V2000
   37.7480   26.6460   35.5160 C   0  0  0  0  0  0  0  0  0  0  0  0
   38.0480   25.3190   35.1930 C   0  0  0  0  0  0  0  0  0  0  0  0
   37.8620   24.8700   33.9030 C   0  0  0  0  0  0  0  0  0  0  0  0
   37.3790   25.7520   32.9580 C   0  0  0  0  0  0  0  0  0  0  0  0
   37.1200   25.5440   31.6490 N   0  0  0  0  0  0  0  0  0  0  0  0
   36.6670   26.6960   31.1410 C   0  0  0  0  0  0  0  0  0  0  0  0
   36.6300   27.6330   32.0860 N   0  0  0  0  0  0  0  0  0  0  0  0
   37.0690   27.0770   33.2370 C   0  0  0  0  0  0  0  0  0  0  0  0
   37.2610   27.5150   34.5380 C   0  0  0  0  0  0  0  0  0  0  0  0
   37.8560   27.0980   36.4930 H   0  0  0  0  0  0  0  0  0  0  0  0
   38.0870   23.8660   33.6510 H   0  0  0  0  0  0  0  0  0  0  0  0
   37.2540   24.6480   31.1500 H   0  0  0  0  0  0  0  0  0  0  0  0
   36.3840   26.7890   30.0890 H   0  0  0  0  0  0  0  0  0  0  0  0
   37.0200   28.5510   34.7660 H   0  0  0  0  0  0  0  0  0  0  0  0
   38.4640   23.5230   38.4630 C   0  0  0  0  0  0  0  0  0  0  0  0
   37.8980   24.3440   37.5040 C   0  0  0  0  0  0  0  0  0  0  0  0
   38.5480   24.4860   36.2700 C   0  0  0  0  0  0  0  0  0  0  0  0
   39.7240   23.8030   36.0570 N   0  0  0  0  0  0  0  0  0  0  0  0
   40.2300   23.0170   37.0260 C   0  0  0  0  0  0  0  0  0  0  0  0
   39.6270   22.8660   38.2130 N   0  0  0  0  0  0  0  0  0  0  0  0
   37.9470   23.4280   39.4090 H   0  0  0  0  0  0  0  0  0  0  0  0
   36.9820   24.8780   37.6680 H   0  0  0  0  0  0  0  0  0  0  0  0
   41.4730   22.3140   36.7600 C   0  0  0  0  0  0  0  0  0  0  0  0
   41.7150   21.1760   37.2120 O   0  0  0  0  0  0  0  0  0  0  0  0
   42.5210   22.9740   35.9050 C   0  0  0  0  0  3  0  0  0  0  0  0
   43.5390   23.8520   36.6150 C   0  0  0  0  0  2  0  0  0  0  0  0
   43.9330   22.5410   36.0380 C   0  0  0  0  0  2  0  0  0  0  0  0
  1 10  1  0  0  0  0
  2  1  1  0  0  0  0
  2 17  1  0  0  0  0
  3  2  2  0  0  0  0
  4  8  2  0  0  0  0
  4  3  1  0  0  0  0
  5  4  1  0  0  0  0
  6  5  1  0  0  0  0
  6  7  2  0  0  0  0
  7  8  1  0  0  0  0
  8  9  1  0  0  0  0
  9 14  1  0  0  0  0
  9  1  2  0  0  0  0
 11  3  1  0  0  0  0
 12  5  1  0  0  0  0
 13  6  1  0  0  0  0
 15 21  1  0  0  0  0
 16 22  1  0  0  0  0
 16 15  2  0  0  0  0
 17 16  1  0  0  0  0
 18 17  2  0  0  0  0
 18 19  1  0  0  0  0
 19 20  2  0  0  0  0
 20 15  1  0  0  0  0
 23 19  1  0  0  0  0
 23 24  2  0  0  0  0
 25 27  1  0  0  0  0
 25 26  1  0  0  0  0
 25 23  1  0  0  0  0
 27 26  1  0  0  0  0
M  END
>  <minimizedAffinity>
-5.35596848

$$$$

 OpenBabel03262523313D

 27 30  0  0  0  0  0  0  0  0999 V2000
   36.9200   27.2520   32.4260 C   0  0  0  0  0  0  0  0  0  0  0  0
   37.1730   27.3630   33.7970 C   0  0  0  0  0  0  0  0  0  0  0  0
   36.4660   28.2760   34.5500 C   0  0  0  0  0  0  0  0  0  0  0  0
   35.5230   29.0630   33.9240 C   0  0  0  0  0  0  0  0  0  0  0  0
   34.7180   30.0130   34.4470 N   0  0  0  0  0  0  0  0  0  0  0  0
   33.9710   30.5020   33.4510 C   0  0  0  0  0  0  0  0  0  0  0  0
   34.2730   29.8920   32.3070 N   0  0  0  0  0  0  0  0  0  0  0  0
   35.2420   28.9840   32.5660 C   0  0  0  0  0  0  0  0  0  0  0  0
   35.9580   28.0620   31.8200 C   0  0  0  0  0  0  0  0  0  0  0  0
   37.4160   26.5710   31.7460 H   0  0  0  0  0  0  0  0  0  0  0  0
   36.6520   28.3650   35.5900 H   0  0  0  0  0  0  0  0  0  0  0  0
   34.7000   30.2970   35.4420 H   0  0  0  0  0  0  0  0  0  0  0  0
   33.2330   31.2910   33.6190 H   0  0  0  0  0  0  0  0  0  0  0  0
   35.7460   27.9940   30.7560 H   0  0  0  0  0  0  0  0  0  0  0  0
   40.4470   25.8480   34.8340 C   0  0  0  0  0  0  0  0  0  0  0  0
   39.5630   26.7560   34.2810 C   0  0  0  0  0  0  0  0  0  0  0  0
   38.1890   26.4830   34.3430 C   0  0  0  0  0  0  0  0  0  0  0  0
   37.7690   25.3230   34.9530 N   0  0  0  0  0  0  0  0  0  0  0  0
   38.6730   24.4740   35.4760 C   0  0  0  0  0  0  0  0  0  0  0  0
   39.9910   24.7120   35.4290 N   0  0  0  0  0  0  0  0  0  0  0  0
   41.5020   26.0760   34.7760 H   0  0  0  0  0  0  0  0  0  0  0  0
   39.8870   27.6610   33.8040 H   0  0  0  0  0  0  0  0  0  0  0  0
   38.1890   23.2600   36.1110 C   0  0  0  0  0  0  0  0  0  0  0  0
   38.1360   22.1630   35.5190 O   0  0  0  0  0  0  0  0  0  0  0  0
   37.7290   23.3150   37.5430 C   0  0  0  0  0  3  0  0  0  0  0  0
   38.8070   23.3320   38.6150 C   0  0  0  0  0  2  0  0  0  0  0  0
   37.9900   24.5410   38.3350 C   0  0  0  0  0  2  0  0  0  0  0  0
  1  2  1  0  0  0  0
  2 17  1  0  0  0  0
  2  3  2  0  0  0  0
  3 11  1  0  0  0  0
  4  5  1  0  0  0  0
  4  3  1  0  0  0  0
  5 12  1  0  0  0  0
  6 13  1  0  0  0  0
  6  5  1  0  0  0  0
  7  8  1  0  0  0  0
  7  6  2  0  0  0  0
  8  4  2  0  0  0  0
  9  1  2  0  0  0  0
  9  8  1  0  0  0  0
 10  1  1  0  0  0  0
 14  9  1  0  0  0  0
 15 20  1  0  0  0  0
 16 17  1  0  0  0  0
 16 15  2  0  0  0  0
 17 18  2  0  0  0  0
 18 19  1  0  0  0  0
 19 23  1  0  0  0  0
 20 19  2  0  0  0  0
 21 15  1  0  0  0  0
 22 16  1  0  0  0  0
 23 25  1  0  0  0  0
 24 23  2  0  0  0  0
 25 27  1  0  0  0  0
 25 26  1  0  0  0  0
 27 26  1  0  0  0  0
M  END
>  <minimizedAffinity>
-5.33294582

$$$$

 OpenBabel03262523313D

 27 30  0  0  0  0  0  0  0  0999 V2000
   37.7740   27.5350   35.4110 C   0  0  0  0  0  0  0  0  0  0  0  0
   37.1510   27.2470   34.1920 C   0  0  0  0  0  0  0  0  0  0  0  0
   37.2820   25.9910   33.6390 C   0  0  0  0  0  0  0  0  0  0  0  0
   38.0310   25.0460   34.3090 C   0  0  0  0  0  0  0  0  0  0  0  0
   38.2970   23.7670   33.9670 N   0  0  0  0  0  0  0  0  0  0  0  0
   39.0650   23.2450   34.9300 C   0  0  0  0  0  0  0  0  0  0  0  0
   39.2970   24.1510   35.8760 N   0  0  0  0  0  0  0  0  0  0  0  0
   38.6650   25.2920   35.5200 C   0  0  0  0  0  0  0  0  0  0  0  0
   38.5250   26.5580   36.0660 C   0  0  0  0  0  0  0  0  0  0  0  0
   37.7350   28.4840   35.9300 H   0  0  0  0  0  0  0  0  0  0  0  0
   36.8130   25.7650   32.7150 H   0  0  0  0  0  0  0  0  0  0  0  0
   37.9580   23.2960   33.1100 H   0  0  0  0  0  0  0  0  0  0  0  0
   39.4190   22.2110   34.8860 H   0  0  0  0  0  0  0  0  0  0  0  0
   39.0180   26.7600   37.0140 H   0  0  0  0  0  0  0  0  0  0  0  0
   35.6870   29.6790   31.7360 C   0  0  0  0  0  0  0  0  0  0  0  0
   36.4560   28.6330   32.2150 C   0  0  0  0  0  0  0  0  0  0  0  0
   36.3910   28.3200   33.5810 C   0  0  0  0  0  0  0  0  0  0  0  0
   35.5660   29.0620   34.3930 N   0  0  0  0  0  0  0  0  0  0  0  0
   34.8390   30.0700   33.8740 C   0  0  0  0  0  0  0  0  0  0  0  0
   34.8840   30.3880   32.5730 N   0  0  0  0  0  0  0  0  0  0  0  0
   35.7520   29.9040   30.6800 H   0  0  0  0  0  0  0  0  0  0  0  0
   37.1010   28.0530   31.5840 H   0  0  0  0  0  0  0  0  0  0  0  0
   33.9800   30.8290   34.7660 C   0  0  0  0  0  0  0  0  0  0  0  0
   32.8140   30.4800   35.0410 O   0  0  0  0  0  0  0  0  0  0  0  0
   34.5080   32.0910   35.3940 C   0  0  0  0  0  3  0  0  0  0  0  0
   34.8440   32.0380   36.8760 C   0  0  0  0  0  2  0  0  0  0  0  0
   35.9170   32.1300   35.8530 C   0  0  0  0  0  2  0  0  0  0  0  0
  1 10  1  0  0  0  0
  1  9  1  0  0  0  0
  2  1  2  0  0  0  0
  3  2  1  0  0  0  0
  3  4  2  0  0  0  0
  4  8  1  0  0  0  0
  5  4  1  0  0  0  0
  5  6  1  0  0  0  0
  6  7  2  0  0  0  0
  8  7  1  0  0  0  0
  8  9  2  0  0  0  0
  9 14  1  0  0  0  0
 11  3  1  0  0  0  0
 12  5  1  0  0  0  0
 13  6  1  0  0  0  0
 15 16  2  0  0  0  0
 15 20  1  0  0  0  0
 16 17  1  0  0  0  0
 17  2  1  0  0  0  0
 17 18  2  0  0  0  0
 19 18  1  0  0  0  0
 19 23  1  0  0  0  0
 20 19  2  0  0  0  0
 21 15  1  0  0  0  0
 22 16  1  0  0  0  0
 23 24  2  0  0  0  0
 23 25  1  0  0  0  0
 25 27  1  0  0  0  0
 25 26  1  0  0  0  0
 27 26  1  0  0  0  0
M  END
>  <minimizedAffinity>
-5.1644001

$$$$

 OpenBabel03262523313D

 27 30  0  0  0  0  0  0  0  0999 V2000
   35.3570   21.5790   32.4820 C   0  0  0  0  0  0  0  0  0  0  0  0
   36.3560   22.2940   31.8130 C   0  0  0  0  0  0  0  0  0  0  0  0
   37.3880   21.6150   31.2000 C   0  0  0  0  0  0  0  0  0  0  0  0
   37.4070   20.2370   31.2680 C   0  0  0  0  0  0  0  0  0  0  0  0
   38.3030   19.3680   30.7520 N   0  0  0  0  0  0  0  0  0  0  0  0
   37.9000   18.1350   31.0760 C   0  0  0  0  0  0  0  0  0  0  0  0
   36.7730   18.1890   31.7820 N   0  0  0  0  0  0  0  0  0  0  0  0
   36.4350   19.4910   31.9220 C   0  0  0  0  0  0  0  0  0  0  0  0
   35.4030   20.1850   32.5330 C   0  0  0  0  0  0  0  0  0  0  0  0
   34.5070   22.0120   32.9930 H   0  0  0  0  0  0  0  0  0  0  0  0
   38.1490   22.1490   30.6910 H   0  0  0  0  0  0  0  0  0  0  0  0
   39.1430   19.6310   30.2080 H   0  0  0  0  0  0  0  0  0  0  0  0
   38.4620   17.2470   30.7720 H   0  0  0  0  0  0  0  0  0  0  0  0
   34.6380   19.6090   33.0480 H   0  0  0  0  0  0  0  0  0  0  0  0
   35.2580   25.8120   31.1030 C   0  0  0  0  0  0  0  0  0  0  0  0
   35.2920   24.4310   31.0310 C   0  0  0  0  0  0  0  0  0  0  0  0
   36.2310   23.7390   31.8100 C   0  0  0  0  0  0  0  0  0  0  0  0
   37.0820   24.4570   32.6170 N   0  0  0  0  0  0  0  0  0  0  0  0
   37.0060   25.8000   32.6490 C   0  0  0  0  0  0  0  0  0  0  0  0
   36.1180   26.4840   31.9150 N   0  0  0  0  0  0  0  0  0  0  0  0
   34.5270   26.3280   30.4950 H   0  0  0  0  0  0  0  0  0  0  0  0
   34.6300   23.8690   30.4020 H   0  0  0  0  0  0  0  0  0  0  0  0
   37.9230   26.5200   33.5150 C   0  0  0  0  0  0  0  0  0  0  0  0
   39.0440   26.9140   33.1340 O   0  0  0  0  0  0  0  0  0  0  0  0
   37.5170   26.8110   34.9350 C   0  0  0  0  0  3  0  0  0  0  0  0
   38.1150   25.9290   36.0200 C   0  0  0  0  0  2  0  0  0  0  0  0
   38.5280   27.3490   35.8760 C   0  0  0  0  0  2  0  0  0  0  0  0
  1  9  1  0  0  0  0
  1 10  1  0  0  0  0
  2  1  2  0  0  0  0
  3  4  2  0  0  0  0
  3  2  1  0  0  0  0
  4  8  1  0  0  0  0
  5  6  1  0  0  0  0
  5  4  1  0  0  0  0
  6  7  2  0  0  0  0
  7  8  1  0  0  0  0
  8  9  2  0  0  0  0
  9 14  1  0  0  0  0
 11  3  1  0  0  0  0
 12  5  1  0  0  0  0
 13  6  1  0  0  0  0
 15 20  1  0  0  0  0
 16 15  2  0  0  0  0
 16 17  1  0  0  0  0
 17  2  1  0  0  0  0
 17 18  2  0  0  0  0
 18 19  1  0  0  0  0
 19 23  1  0  0  0  0
 20 19  2  0  0  0  0
 21 15  1  0  0  0  0
 22 16  1  0  0  0  0
 23 25  1  0  0  0  0
 24 23  2  0  0  0  0
 25 27  1  0  0  0  0
 25 26  1  0  0  0  0
 27 26  1  0  0  0  0
M  END
>  <minimizedAffinity>
-5.1272068

$$$$

 OpenBabel03262523313D

 27 30  0  0  0  0  0  0  0  0999 V2000
   35.9440   30.8740   35.4110 C   0  0  0  0  0  0  0  0  0  0  0  0
   35.2010   30.0020   34.6080 C   0  0  0  0  0  0  0  0  0  0  0  0
   33.8290   29.9620   34.7330 C   0  0  0  0  0  0  0  0  0  0  0  0
   33.2230   30.7890   35.6550 C   0  0  0  0  0  0  0  0  0  0  0  0
   31.9110   30.9230   35.9510 N   0  0  0  0  0  0  0  0  0  0  0  0
   31.8090   31.8490   36.9110 C   0  0  0  0  0  0  0  0  0  0  0  0
   33.0140   32.3110   37.2370 N   0  0  0  0  0  0  0  0  0  0  0  0
   33.9230   31.6680   36.4700 C   0  0  0  0  0  0  0  0  0  0  0  0
   35.3030   31.7000   36.3350 C   0  0  0  0  0  0  0  0  0  0  0  0
   37.0210   30.9840   35.3930 H   0  0  0  0  0  0  0  0  0  0  0  0
   33.2590   29.3040   34.1280 H   0  0  0  0  0  0  0  0  0  0  0  0
   31.1420   30.3950   35.5040 H   0  0  0  0  0  0  0  0  0  0  0  0
   30.8410   32.1410   37.3280 H   0  0  0  0  0  0  0  0  0  0  0  0
   35.8600   32.3850   36.9690 H   0  0  0  0  0  0  0  0  0  0  0  0
   36.9010   28.6800   31.5340 C   0  0  0  0  0  0  0  0  0  0  0  0
   36.1740   29.5390   32.3390 C   0  0  0  0  0  0  0  0  0  0  0  0
   35.9490   29.1810   33.6760 C   0  0  0  0  0  0  0  0  0  0  0  0
   36.4590   27.9900   34.1390 N   0  0  0  0  0  0  0  0  0  0  0  0
   37.1600   27.1920   33.3120 C   0  0  0  0  0  0  0  0  0  0  0  0
   37.3890   27.5120   32.0310 N   0  0  0  0  0  0  0  0  0  0  0  0
   37.0640   28.9750   30.5060 H   0  0  0  0  0  0  0  0  0  0  0  0
   35.7750   30.4680   31.9810 H   0  0  0  0  0  0  0  0  0  0  0  0
   37.6810   25.9430   33.8410 C   0  0  0  0  0  0  0  0  0  0  0  0
   37.4340   24.8350   33.3240 O   0  0  0  0  0  0  0  0  0  0  0  0
   38.5590   25.9740   35.0630 C   0  0  0  0  0  3  0  0  0  0  0  0
   39.9810   25.4570   34.9060 C   0  0  0  0  0  2  0  0  0  0  0  0
   39.7120   26.9050   35.0960 C   0  0  0  0  0  2  0  0  0  0  0  0
  1  9  1  0  0  0  0
  2  3  1  0  0  0  0
  2  1  2  0  0  0  0
  3  4  2  0  0  0  0
  4  5  1  0  0  0  0
  4  8  1  0  0  0  0
  5  6  1  0  0  0  0
  6  7  2  0  0  0  0
  6 13  1  0  0  0  0
  8  7  1  0  0  0  0
  9  8  2  0  0  0  0
  9 14  1  0  0  0  0
 10  1  1  0  0  0  0
 11  3  1  0  0  0  0
 12  5  1  0  0  0  0
 15 20  2  0  0  0  0
 15 16  1  0  0  0  0
 16 17  2  0  0  0  0
 17 18  1  0  0  0  0
 17  2  1  0  0  0  0
 19 23  1  0  0  0  0
 19 18  2  0  0  0  0
 20 19  1  0  0  0  0
 21 15  1  0  0  0  0
 22 16  1  0  0  0  0
 23 25  1  0  0  0  0
 24 23  2  0  0  0  0
 25 27  1  0  0  0  0
 26 25  1  0  0  0  0
 26 27  1  0  0  0  0
M  END
>  <minimizedAffinity>
-5.10900164

$$$$

 OpenBabel03262523313D

 27 30  0  0  0  0  0  0  0  0999 V2000
   39.4550   24.6470   34.2430 C   0  0  0  0  0  0  0  0  0  0  0  0
   38.4770   25.5990   34.5530 C   0  0  0  0  0  0  0  0  0  0  0  0
   37.8940   25.5970   35.8020 C   0  0  0  0  0  0  0  0  0  0  0  0
   38.2940   24.6470   36.7190 C   0  0  0  0  0  0  0  0  0  0  0  0
   37.8710   24.4510   37.9870 N   0  0  0  0  0  0  0  0  0  0  0  0
   38.5500   23.4100   38.4800 C   0  0  0  0  0  0  0  0  0  0  0  0
   39.3940   22.9350   37.5670 N   0  0  0  0  0  0  0  0  0  0  0  0
   39.2600   23.6860   36.4510 C   0  0  0  0  0  0  0  0  0  0  0  0
   39.8390   23.6990   35.1920 C   0  0  0  0  0  0  0  0  0  0  0  0
   39.9740   24.5610   33.2970 H   0  0  0  0  0  0  0  0  0  0  0  0
   37.1520   26.3150   36.0440 H   0  0  0  0  0  0  0  0  0  0  0  0
   37.1500   25.0160   38.4690 H   0  0  0  0  0  0  0  0  0  0  0  0
   38.3880   23.0480   39.5000 H   0  0  0  0  0  0  0  0  0  0  0  0
   40.5960   22.9500   34.9730 H   0  0  0  0  0  0  0  0  0  0  0  0
   38.4640   27.6230   31.3930 C   0  0  0  0  0  0  0  0  0  0  0  0
   38.8750   26.6860   32.3240 C   0  0  0  0  0  0  0  0  0  0  0  0
   38.1390   26.5460   33.5090 C   0  0  0  0  0  0  0  0  0  0  0  0
   37.0340   27.3440   33.7020 N   0  0  0  0  0  0  0  0  0  0  0  0
   36.6790   28.2400   32.7620 C   0  0  0  0  0  0  0  0  0  0  0  0
   37.3660   28.3920   31.6220 N   0  0  0  0  0  0  0  0  0  0  0  0
   39.0460   27.7160   30.4850 H   0  0  0  0  0  0  0  0  0  0  0  0
   39.7360   26.0630   32.1760 H   0  0  0  0  0  0  0  0  0  0  0  0
   35.5070   29.0630   33.0060 C   0  0  0  0  0  0  0  0  0  0  0  0
   34.8020   29.5240   32.0850 O   0  0  0  0  0  0  0  0  0  0  0  0
   35.1140   29.3790   34.4240 C   0  0  0  0  0  3  0  0  0  0  0  0
   35.6240   30.6870   35.0070 C   0  0  0  0  0  2  0  0  0  0  0  0
   34.1870   30.5080   34.6780 C   0  0  0  0  0  2  0  0  0  0  0  0
  1  2  2  0  0  0  0
  1  9  1  0  0  0  0
  2  3  1  0  0  0  0
  3 11  1  0  0  0  0
  3  4  2  0  0  0  0
  4  5  1  0  0  0  0
  5 12  1  0  0  0  0
  5  6  1  0  0  0  0
  6 13  1  0  0  0  0
  7  6  2  0  0  0  0
  8  4  1  0  0  0  0
  8  7  1  0  0  0  0
  9  8  2  0  0  0  0
 10  1  1  0  0  0  0
 14  9  1  0  0  0  0
 15 20  2  0  0  0  0
 15 16  1  0  0  0  0
 16 17  2  0  0  0  0
 17 18  1  0  0  0  0
 17  2  1  0  0  0  0
 19 23  1  0  0  0  0
 19 18  2  0  0  0  0
 20 19  1  0  0  0  0
 21 15  1  0  0  0  0
 22 16  1  0  0  0  0
 23 25  1  0  0  0  0
 24 23  2  0  0  0  0
 25 27  1  0  0  0  0
 25 26  1  0  0  0  0
 27 26  1  0  0  0  0
M  END
>  <minimizedAffinity>
-5.08042192

$$$$

 OpenBabel03262523313D

 27 30  0  0  0  0  0  0  0  0999 V2000
   39.2910   26.1480   32.5310 C   0  0  0  0  0  0  0  0  0  0  0  0
   38.0720   25.4620   32.4980 C   0  0  0  0  0  0  0  0  0  0  0  0
   37.0640   25.9020   31.6680 C   0  0  0  0  0  0  0  0  0  0  0  0
   37.2870   27.0170   30.8880 C   0  0  0  0  0  0  0  0  0  0  0  0
   36.4600   27.6260   30.0100 N   0  0  0  0  0  0  0  0  0  0  0  0
   37.1190   28.6690   29.4940 C   0  0  0  0  0  0  0  0  0  0  0  0
   38.3420   28.7450   30.0140 N   0  0  0  0  0  0  0  0  0  0  0  0
   38.4810   27.7260   30.8920 C   0  0  0  0  0  0  0  0  0  0  0  0
   39.4870   27.2730   31.7300 C   0  0  0  0  0  0  0  0  0  0  0  0
   40.1440   25.8870   33.1440 H   0  0  0  0  0  0  0  0  0  0  0  0
   36.1370   25.3880   31.6370 H   0  0  0  0  0  0  0  0  0  0  0  0
   35.4940   27.3230   29.7920 H   0  0  0  0  0  0  0  0  0  0  0  0
   36.6610   29.3290   28.7510 H   0  0  0  0  0  0  0  0  0  0  0  0
   40.4260   27.8220   31.7400 H   0  0  0  0  0  0  0  0  0  0  0  0
   38.0790   23.1710   35.4720 C   0  0  0  0  0  0  0  0  0  0  0  0
   38.2220   24.3360   34.7390 C   0  0  0  0  0  0  0  0  0  0  0  0
   37.9540   24.3040   33.3630 C   0  0  0  0  0  0  0  0  0  0  0  0
   37.5570   23.1170   32.7920 N   0  0  0  0  0  0  0  0  0  0  0  0
   37.4330   22.0130   33.5520 C   0  0  0  0  0  0  0  0  0  0  0  0
   37.6830   22.0180   34.8690 N   0  0  0  0  0  0  0  0  0  0  0  0
   38.2910   23.2170   36.5320 H   0  0  0  0  0  0  0  0  0  0  0  0
   38.5320   25.2630   35.1810 H   0  0  0  0  0  0  0  0  0  0  0  0
   37.0110   20.7800   32.9100 C   0  0  0  0  0  0  0  0  0  0  0  0
   37.7380   20.1490   32.1160 O   0  0  0  0  0  0  0  0  0  0  0  0
   35.6430   20.2290   33.2080 C   0  0  0  0  0  3  0  0  0  0  0  0
   34.5980   20.3420   32.1080 C   0  0  0  0  0  2  0  0  0  0  0  0
   35.1780   19.0250   32.4770 C   0  0  0  0  0  2  0  0  0  0  0  0
  1 10  1  0  0  0  0
  2  1  1  0  0  0  0
  2 17  1  0  0  0  0
  3  2  2  0  0  0  0
  4  8  2  0  0  0  0
  4  3  1  0  0  0  0
  5  4  1  0  0  0  0
  6  5  1  0  0  0  0
  6  7  2  0  0  0  0
  7  8  1  0  0  0  0
  8  9  1  0  0  0  0
  9 14  1  0  0  0  0
  9  1  2  0  0  0  0
 11  3  1  0  0  0  0
 12  5  1  0  0  0  0
 13  6  1  0  0  0  0
 15 21  1  0  0  0  0
 16 22  1  0  0  0  0
 16 15  2  0  0  0  0
 17 16  1  0  0  0  0
 18 17  2  0  0  0  0
 18 19  1  0  0  0  0
 19 20  2  0  0  0  0
 20 15  1  0  0  0  0
 23 25  1  0  0  0  0
 23 19  1  0  0  0  0
 24 23  2  0  0  0  0
 26 27  1  0  0  0  0
 26 25  1  0  0  0  0
 27 25  1  0  0  0  0
M  END
>  <minimizedAffinity>
-5.00319338

$$$$

 OpenBabel03262523313D

 27 30  0  0  0  0  0  0  0  0999 V2000
   36.2610   28.3220   34.1300 C   0  0  0  0  0  0  0  0  0  0  0  0
   36.5300   27.6140   32.9550 C   0  0  0  0  0  0  0  0  0  0  0  0
   36.3240   28.2160   31.7320 C   0  0  0  0  0  0  0  0  0  0  0  0
   35.8520   29.5120   31.7030 C   0  0  0  0  0  0  0  0  0  0  0  0
   35.5770   30.2980   30.6400 N   0  0  0  0  0  0  0  0  0  0  0  0
   35.1450   31.4740   31.1100 C   0  0  0  0  0  0  0  0  0  0  0  0
   35.1360   31.4630   32.4400 N   0  0  0  0  0  0  0  0  0  0  0  0
   35.5720   30.2490   32.8470 C   0  0  0  0  0  0  0  0  0  0  0  0
   35.7850   29.6320   34.0690 C   0  0  0  0  0  0  0  0  0  0  0  0
   36.3880   27.9450   35.1370 H   0  0  0  0  0  0  0  0  0  0  0  0
   36.5250   27.6860   30.8360 H   0  0  0  0  0  0  0  0  0  0  0  0
   35.6870   30.0210   29.6490 H   0  0  0  0  0  0  0  0  0  0  0  0
   34.8550   32.2890   30.4410 H   0  0  0  0  0  0  0  0  0  0  0  0
   35.5680   30.2020   34.9700 H   0  0  0  0  0  0  0  0  0  0  0  0
   37.3480   23.9930   32.3990 C   0  0  0  0  0  0  0  0  0  0  0  0
   36.8380   25.2540   32.1490 C   0  0  0  0  0  0  0  0  0  0  0  0
   37.0210   26.2580   33.1100 C   0  0  0  0  0  0  0  0  0  0  0  0
   37.7020   25.9540   34.2670 N   0  0  0  0  0  0  0  0  0  0  0  0
   38.1780   24.7090   34.4590 C   0  0  0  0  0  0  0  0  0  0  0  0
   38.0160   23.7330   33.5550 N   0  0  0  0  0  0  0  0  0  0  0  0
   37.1960   23.2320   31.6450 H   0  0  0  0  0  0  0  0  0  0  0  0
   36.3060   25.4950   31.2480 H   0  0  0  0  0  0  0  0  0  0  0  0
   38.8910   24.4290   35.6930 C   0  0  0  0  0  0  0  0  0  0  0  0
   40.1120   24.1720   35.7250 O   0  0  0  0  0  0  0  0  0  0  0  0
   38.1380   24.4480   36.9960 C   0  0  0  0  0  3  0  0  0  0  0  0
   37.3890   23.1810   37.3800 C   0  0  0  0  0  2  0  0  0  0  0  0
   38.6130   23.5960   38.1130 C   0  0  0  0  0  2  0  0  0  0  0  0
  1 10  1  0  0  0  0
  2 17  1  0  0  0  0
  2  1  2  0  0  0  0
  3  2  1  0  0  0  0
  4  3  2  0  0  0  0
  4  8  1  0  0  0  0
  5  6  1  0  0  0  0
  5  4  1  0  0  0  0
  6  7  2  0  0  0  0
  7  8  1  0  0  0  0
  8  9  2  0  0  0  0
  9  1  1  0  0  0  0
  9 14  1  0  0  0  0
 11  3  1  0  0  0  0
 12  5  1  0  0  0  0
 13  6  1  0  0  0  0
 15 20  1  0  0  0  0
 16 15  2  0  0  0  0
 16 17  1  0  0  0  0
 17 18  2  0  0  0  0
 18 19  1  0  0  0  0
 19 23  1  0  0  0  0
 20 19  2  0  0  0  0
 21 15  1  0  0  0  0
 22 16  1  0  0  0  0
 23 24  2  0  0  0  0
 23 25  1  0  0  0  0
 25 26  1  0  0  0  0
 25 27  1  0  0  0  0
 26 27  1  0  0  0  0
M  END
>  <minimizedAffinity>
-4.98582792

$$$$
