
 OpenBabel03262521103D

 18 19  0  0  0  0  0  0  0  0999 V2000
   35.7480   30.4320   49.7850 C   0  0  0  0  0  0  0  0  0  0  0  0
   36.2740   29.9450   50.9810 C   0  0  0  0  0  0  0  0  0  0  0  0
   37.5970   30.2040   51.2990 C   0  0  0  0  0  0  0  0  0  0  0  0
   38.3350   30.9320   50.4150 N   0  0  0  0  0  0  0  0  0  0  0  0
   37.8070   31.3970   49.2570 C   0  0  0  0  0  0  0  0  0  0  0  0
   36.5110   31.1500   48.9350 N   0  0  0  0  0  0  0  0  0  0  0  0
   35.5930   29.3850   51.5930 H   0  0  0  0  0  0  0  0  0  0  0  0
   37.9920   29.8210   52.2300 H   0  0  0  0  0  0  0  0  0  0  0  0
   38.4380   31.9700   48.5930 H   0  0  0  0  0  0  0  0  0  0  0  0
   34.4470   30.2590   49.3240 O   0  0  0  0  0  0  0  0  0  0  0  0
   34.7900   27.5990   49.1460 O   0  0  0  0  0  0  0  0  0  0  0  0
   33.8760   28.7420   48.7460 P   0  0  1  0  0  0  0  0  0  0  0  0
   32.3230   28.5510   49.3970 O   0  0  0  0  0  0  0  0  0  0  0  0
   31.6260   28.4450   48.7110 H   0  0  0  0  0  0  0  0  0  0  0  0
   33.8270   28.7590   47.0620 O   0  0  0  0  0  0  0  0  0  0  0  0
   33.9460   30.0260   46.5260 C   0  0  0  0  0  0  0  0  0  0  0  0
   32.6280   30.6050   46.0560 C   0  0  0  0  0  0  0  0  0  0  0  0
   33.6380   30.1500   45.0180 C   0  0  0  0  0  0  0  0  0  0  0  0
  1  2  1  0  0  0  0
  2  3  2  0  0  0  0
  2  7  1  0  0  0  0
  3  8  1  0  0  0  0
  4  3  1  0  0  0  0
  5  4  2  0  0  0  0
  6  5  1  0  0  0  0
  6  1  2  0  0  0  0
  9  5  1  0  0  0  0
 10  1  1  0  0  0  0
 12 11  2  1  0  0  0
 12 10  1  0  0  0  0
 12 13  1  0  0  0  0
 14 13  1  0  0  0  0
 15 12  1  0  0  0  0
 16 15  1  0  0  0  0
 17 16  1  0  0  0  0
 18 17  1  0  0  0  0
 18 16  1  0  0  0  0
M  END
>  <minimizedAffinity>
-3.80780697

>  <minimizedRMSD>
2.14008999

$$$$
