
 OpenBabel03272509313D

 32 34  0  0  1  0  0  0  0  0999 V2000
   36.2320   30.7110   49.0150 C   0  0  2  0  0  0  0  0  0  0  0  0
   37.2210   31.6090   49.6940 C   0  0  0  0  0  0  0  0  0  0  0  0
   38.1700   30.8630   50.6060 C   0  0  0  0  0  0  0  0  0  0  0  0
   37.3970   30.0600   51.6480 C   0  0  0  0  0  0  0  0  0  0  0  0
   36.1240   29.4510   51.1280 C   0  0  0  0  0  0  0  0  0  0  0  0
   36.2280   29.3330   49.5980 C   0  0  1  0  0  0  0  0  0  0  0  0
   35.1690   31.0720   49.0690 H   0  0  0  0  0  0  0  0  0  0  0  0
   36.5840   32.2120   50.4280 H   0  0  0  0  0  0  0  0  0  0  0  0
   37.7210   32.3480   49.0990 H   0  0  0  0  0  0  0  0  0  0  0  0
   38.9220   30.2630   50.0950 H   0  0  0  0  0  0  0  0  0  0  0  0
   38.7250   31.6350   51.1820 H   0  0  0  0  0  0  0  0  0  0  0  0
   37.2180   30.6190   52.5780 H   0  0  0  0  0  0  0  0  0  0  0  0
   38.0660   29.1870   51.9020 H   0  0  0  0  0  0  0  0  0  0  0  0
   35.9300   28.4440   51.5070 H   0  0  0  0  0  0  0  0  0  0  0  0
   35.2700   30.1500   51.3350 H   0  0  0  0  0  0  0  0  0  0  0  0
   37.1970   28.9020   49.5010 H   0  0  0  0  0  0  0  0  0  0  0  0
   36.5240   30.6040   47.5620 C   0  0  0  0  0  0  0  0  0  0  0  0
   37.8440   30.8510   47.1820 C   0  0  0  0  0  0  0  0  0  0  0  0
   38.1390   30.7500   45.8160 C   0  0  0  0  0  0  0  0  0  0  0  0
   37.1350   30.4210   44.9430 N   0  0  0  0  0  0  0  0  0  0  0  0
   35.8470   30.1850   45.3700 C   0  0  0  0  0  0  0  0  0  0  0  0
   35.5730   30.2830   46.6710 N   0  0  0  0  0  0  0  0  0  0  0  0
   38.7180   31.1050   47.7470 H   0  0  0  0  0  0  0  0  0  0  0  0
   39.1110   30.9140   45.3840 H   0  0  0  0  0  0  0  0  0  0  0  0
   35.0850   29.9270   44.6510 H   0  0  0  0  0  0  0  0  0  0  0  0
   33.9010   28.3640   49.2240 C   0  0  0  0  0  0  0  0  0  0  0  0
   33.1630   29.0180   50.0160 O   0  0  0  0  0  0  0  0  0  0  0  0
   35.3140   28.4200   49.0160 N   0  0  0  0  0  0  0  0  0  0  0  0
   35.6560   27.6660   48.3380 H   0  0  0  0  0  0  0  0  0  0  0  0
   33.0570   27.3990   48.4140 C   0  0  0  0  0  3  0  0  0  0  0  0
   31.5740   27.6230   48.3310 C   0  0  0  0  0  2  0  0  0  0  0  0
   32.3920   27.9660   47.1440 C   0  0  0  0  0  2  0  0  0  0  0  0
  1  7  1  1  0  0  0
  1  6  1  0  0  0  0
  1  2  1  0  0  0  0
  2  8  1  0  0  0  0
  2  3  1  0  0  0  0
  3 11  1  0  0  0  0
  3  4  1  0  0  0  0
  4 13  1  0  0  0  0
  4 12  1  0  0  0  0
  5 15  1  0  0  0  0
  5 14  1  0  0  0  0
  5  4  1  0  0  0  0
  6 16  1  6  0  0  0
  6  5  1  0  0  0  0
  9  2  1  0  0  0  0
 10  3  1  0  0  0  0
 17  1  1  0  0  0  0
 18 17  1  0  0  0  0
 18 23  1  0  0  0  0
 19 18  2  0  0  0  0
 20 21  2  0  0  0  0
 20 19  1  0  0  0  0
 21 22  1  0  0  0  0
 22 17  2  0  0  0  0
 24 19  1  0  0  0  0
 25 21  1  0  0  0  0
 26 27  2  0  0  0  0
 28 26  1  0  0  0  0
 28  6  1  0  0  0  0
 29 28  1  0  0  0  0
 30 26  1  0  0  0  0
 31 30  1  0  0  0  0
 32 31  1  0  0  0  0
 32 30  1  0  0  0  0
M  END
>  <minimizedAffinity>
-5.67657137

>  <minimizedRMSD>
0.624075174

$$$$
