
 OpenBabel03262520353D

 36 38  0  0  0  0  0  0  0  0999 V2000
   30.3900   26.1520   47.5150 O   0  0  0  0  0  0  0  0  0  0  0  0
   30.8580   27.5840   47.7620 P   0  0  2  0  0  0  0  0  0  0  0  0
   31.3480   28.3140   46.3090 O   0  0  0  0  0  0  0  0  0  0  0  0
   31.0830   29.2730   46.3210 H   0  0  0  0  0  0  0  0  0  0  0  0
   32.2280   27.4260   48.7680 O   0  0  0  0  0  0  0  0  0  0  0  0
   33.3580   27.2520   47.9480 C   0  0  0  0  0  0  0  0  0  0  0  0
   33.0650   27.5390   46.9200 H   0  0  0  0  0  0  0  0  0  0  0  0
   33.6180   26.1650   48.0110 H   0  0  0  0  0  0  0  0  0  0  0  0
   34.7610   28.3380   49.6560 C   0  0  0  0  0  0  0  0  0  0  0  0
   34.5030   28.0800   48.4010 C   0  0  0  0  0  0  0  0  0  0  0  0
   37.3510   30.2420   51.4210 C   0  0  0  0  0  0  0  0  0  0  0  0
   38.1120   30.7360   50.3660 C   0  0  0  0  0  0  0  0  0  0  0  0
   37.7420   30.4190   49.0590 C   0  0  0  0  0  0  0  0  0  0  0  0
   36.6270   29.6250   48.9460 N   0  0  0  0  0  0  0  0  0  0  0  0
   35.9200   29.1680   49.9600 C   0  0  0  0  0  0  0  0  0  0  0  0
   36.2980   29.4880   51.1910 N   0  0  0  0  0  0  0  0  0  0  0  0
   37.6820   30.5170   52.3930 H   0  0  0  0  0  0  0  0  0  0  0  0
   38.9910   31.3620   50.4660 H   0  0  0  0  0  0  0  0  0  0  0  0
   38.2470   30.7380   48.1660 H   0  0  0  0  0  0  0  0  0  0  0  0
   29.6480   28.4790   48.5040 O   0  0  0  0  0  0  0  0  0  0  0  0
   27.5330   28.6010   49.4240 C   0  0  0  0  0  0  0  0  0  0  0  0
   28.8330   28.0770   49.5410 C   0  0  0  0  0  0  0  0  0  0  0  0
   29.1900   27.2600   50.5900 C   0  0  0  0  0  0  0  0  0  0  0  0
   28.2530   26.9520   51.5470 C   0  0  0  0  0  0  0  0  0  0  0  0
   26.9950   27.4560   51.4410 C   0  0  0  0  0  0  0  0  0  0  0  0
   26.5880   28.2750   50.4130 C   0  0  0  0  0  0  0  0  0  0  0  0
   30.2090   26.9000   50.6040 H   0  0  0  0  0  0  0  0  0  0  0  0
   28.5130   26.3200   52.3690 H   0  0  0  0  0  0  0  0  0  0  0  0
   26.2330   27.2270   52.1860 H   0  0  0  0  0  0  0  0  0  0  0  0
   25.5870   28.6770   50.3270 H   0  0  0  0  0  0  0  0  0  0  0  0
   27.0060   29.6350   48.1170 S   0  0  0  0  0  0  0  0  0  0  0  0
   28.1110   29.8960   47.1640 O   0  0  0  0  0  0  0  0  0  0  0  0
   25.8310   28.9350   47.4190 O   0  0  0  0  0  0  0  0  0  0  0  0
   26.4100   31.1740   48.7350 C   0  0  0  0  0  0  0  0  0  0  0  0
   25.9980   32.1510   47.6080 C   0  0  0  0  0  0  0  0  0  0  0  0
   25.0260   31.6170   48.5790 C   0  0  0  0  0  0  0  0  0  0  0  0
  2  1  2  6  0  0  0
  2 20  1  0  0  0  0
  2  5  1  0  0  0  0
  3  4  1  0  0  0  0
  3  2  1  0  0  0  0
  6  8  1  0  0  0  0
  6 10  1  0  0  0  0
  6  5  1  0  0  0  0
  7  6  1  0  0  0  0
  9 15  1  0  0  0  0
 10  9  2  0  0  0  0
 11 17  1  0  0  0  0
 12 18  1  0  0  0  0
 12 11  2  0  0  0  0
 13 12  1  0  0  0  0
 14 13  2  0  0  0  0
 14 15  1  0  0  0  0
 15 16  2  0  0  0  0
 16 11  1  0  0  0  0
 19 13  1  0  0  0  0
 20 22  1  0  0  0  0
 21 22  2  0  0  0  0
 21 26  1  0  0  0  0
 22 23  1  0  0  0  0
 23 27  1  0  0  0  0
 23 24  2  0  0  0  0
 24 28  1  0  0  0  0
 25 24  1  0  0  0  0
 25 29  1  0  0  0  0
 26 25  2  0  0  0  0
 30 26  1  0  0  0  0
 31 34  1  0  0  0  0
 31 21  1  0  0  0  0
 32 31  2  0  0  0  0
 33 31  2  0  0  0  0
 35 36  1  0  0  0  0
 35 34  1  0  0  0  0
 36 34  1  0  0  0  0
M  END
>  <minimizedAffinity>
-6.68983889

>  <minimizedRMSD>
1.20137596

$$$$
