
     RDKit          3D

 32 34  0  0  0  0  0  0  0  0999 V2000
   36.9894   31.5674   48.6720 C   0  0  1  0  0  0  0  0  0  0  0  0
   36.2125   30.9241   47.6420 C   0  0  0  0  0  0  0  0  0  0  0  0
   37.1734   30.1306   48.4639 C   0  0  2  0  0  0  0  0  0  0  0  0
   38.1445   32.4614   48.3244 C   0  0  0  0  0  0  0  0  0  0  0  0
   38.5279   33.3860   49.3222 C   0  0  0  0  0  0  0  0  0  0  0  0
   39.5940   34.1830   48.9812 C   0  0  0  0  0  0  0  0  0  0  0  0
   40.1979   34.0531   47.7684 N   0  0  0  0  0  0  0  0  0  0  0  0
   39.7950   33.1490   46.8389 C   0  0  0  0  0  0  0  0  0  0  0  0
   38.7352   32.3390   47.1446 N   0  0  0  0  0  0  0  0  0  0  0  0
   40.4131   32.9923   45.5936 N   0  0  0  0  0  0  0  0  0  0  0  0
   36.5978   29.3033   49.4331 O   0  0  0  0  0  0  0  0  0  0  0  0
   34.6221   27.6634   49.6846 O   0  0  0  0  0  0  0  0  0  0  0  0
   35.0190   28.9516   49.0380 P   0  0  1  0  0  0  0  0  0  0  0  0
   33.9774   30.1426   49.7415 O   0  0  0  0  0  0  0  0  0  0  0  0
   34.8537   28.9601   47.3655 O   0  0  0  0  0  0  0  0  0  0  0  0
   36.5463   31.8328   49.6944 H   0  0  0  0  0  0  0  0  0  0  0  0
   35.1814   31.1775   47.8008 H   0  0  0  0  0  0  0  0  0  0  0  0
   36.5177   31.1215   46.5929 H   0  0  0  0  0  0  0  0  0  0  0  0
   37.8786   29.6260   47.8290 H   0  0  0  0  0  0  0  0  0  0  0  0
   38.0540   33.4936   50.2851 H   0  0  0  0  0  0  0  0  0  0  0  0
   39.9225   34.9046   49.7114 H   0  0  0  0  0  0  0  0  0  0  0  0
   40.7270   33.7770   44.9879 H   0  0  0  0  0  0  0  0  0  0  0  0
   40.6314   32.0779   45.1274 H   0  0  0  0  0  0  0  0  0  0  0  0
   33.8516   29.9336   50.7003 H   0  0  0  0  0  0  0  0  0  0  0  0
   34.0914   27.9420   46.8694 C   0  0  0  0  0  0  0  0  0  0  0  0
   34.7368   26.6165   46.7060 C   0  0  0  0  0  0  0  0  0  0  0  0
   34.5100   27.4160   45.4793 C   0  0  0  0  0  0  0  0  0  0  0  0
   32.9977   28.0353   47.0096 H   0  0  0  0  0  0  0  0  0  0  0  0
   34.0962   25.7115   46.8417 H   0  0  0  0  0  0  0  0  0  0  0  0
   35.7395   26.4822   47.1477 H   0  0  0  0  0  0  0  0  0  0  0  0
   35.3535   27.9396   44.9658 H   0  0  0  0  0  0  0  0  0  0  0  0
   33.7161   27.0933   44.7832 H   0  0  0  0  0  0  0  0  0  0  0  0
  2  3  1  0
  2  1  1  0
  3  1  1  0
  3 11  1  0
  4  1  1  0
  4  5  2  0
  6  5  1  0
  7  6  2  0
  8  9  2  0
  8  7  1  0
  9  4  1  0
 10  8  1  0
 13 11  1  6
 13 12  2  0
 13 14  1  0
 15 13  1  0
  1 16  1  1
  2 17  1  0
  2 18  1  0
  3 19  1  6
  5 20  1  0
  6 21  1  0
 10 22  1  0
 10 23  1  0
 14 24  1  0
 25 26  1  0
 26 27  1  0
 27 25  1  0
 25 28  1  0
 26 29  1  0
 26 30  1  0
 27 31  1  0
 27 32  1  0
 15 25  1  0
M  ISO  7  16  13  17  13  18  13  19  13  20  14  21  14  24   3
M  END
>  <DihAtoms>  (1) 
12,14,24,25

>  <DihDeg>  (1) 
-155.80170768065796

$$$$
