
 OpenBabel03272500453D

 19 21  0  0  0  0  0  0  0  0999 V2000
   38.0420   25.0560   34.8760 C   0  0  0  0  0  0  0  0  0  0  0  0
   37.5610   26.3500   35.0520 C   0  0  0  0  0  0  0  0  0  0  0  0
   37.0280   26.7750   33.8280 C   0  0  0  0  0  0  0  0  0  0  0  0
   37.1960   25.7510   32.9660 N   0  0  0  0  0  0  0  0  0  0  0  0
   37.7870   24.7690   33.6070 N   0  0  0  0  0  0  0  0  0  0  0  0
   37.5530   26.9920   35.9280 H   0  0  0  0  0  0  0  0  0  0  0  0
   36.5730   27.7540   33.6490 H   0  0  0  0  0  0  0  0  0  0  0  0
   38.0680   24.0940   37.1910 C   0  0  0  0  0  0  0  0  0  0  0  0
   38.6630   24.2920   35.9270 C   0  0  0  0  0  0  0  0  0  0  0  0
   39.9060   23.7090   35.7160 C   0  0  0  0  0  0  0  0  0  0  0  0
   40.4760   22.9890   36.7240 N   0  0  0  0  0  0  0  0  0  0  0  0
   39.8680   22.8280   37.9200 C   0  0  0  0  0  0  0  0  0  0  0  0
   38.6530   23.3840   38.1580 N   0  0  0  0  0  0  0  0  0  0  0  0
   37.0950   24.5870   37.2650 H   0  0  0  0  0  0  0  0  0  0  0  0
   40.4520   23.8000   34.7750 H   0  0  0  0  0  0  0  0  0  0  0  0
   40.3040   22.2610   38.7330 H   0  0  0  0  0  0  0  0  0  0  0  0
   36.7960   25.7380   31.5780 C   0  0  0  0  0  3  0  0  0  0  0  0
   35.5700   24.8650   31.2050 C   0  0  0  0  0  2  0  0  0  0  0  0
   35.5230   26.3550   31.1670 C   0  0  0  0  0  2  0  0  0  0  0  0
  1  2  1  0  0  0  0
  1  9  1  0  0  0  0
  2  6  1  0  0  0  0
  3  2  2  0  0  0  0
  4  5  1  0  0  0  0
  4  3  1  0  0  0  0
  5  1  2  0  0  0  0
  7  3  1  0  0  0  0
  8 14  1  0  0  0  0
  8 13  1  0  0  0  0
  9  8  2  0  0  0  0
 10  9  1  0  0  0  0
 10 11  2  0  0  0  0
 11 12  1  0  0  0  0
 12 13  2  0  0  0  0
 12 16  1  0  0  0  0
 15 10  1  0  0  0  0
 17  4  1  0  0  0  0
 18 17  1  0  0  0  0
 19 18  1  0  0  0  0
 19 17  1  0  0  0  0
M  END
>  <minimizedAffinity>
-4.03937149

$$$$

 OpenBabel03272500453D

 19 21  0  0  0  0  0  0  0  0999 V2000
   37.8840   22.5880   34.8180 C   0  0  0  0  0  0  0  0  0  0  0  0
   38.1450   23.4360   33.7460 C   0  0  0  0  0  0  0  0  0  0  0  0
   37.5960   22.8480   32.5970 C   0  0  0  0  0  0  0  0  0  0  0  0
   37.0320   21.6900   32.9970 N   0  0  0  0  0  0  0  0  0  0  0  0
   37.2170   21.5700   34.2920 N   0  0  0  0  0  0  0  0  0  0  0  0
   38.6640   24.3880   33.7020 H   0  0  0  0  0  0  0  0  0  0  0  0
   37.6390   23.2800   31.5920 H   0  0  0  0  0  0  0  0  0  0  0  0
   39.5890   22.5650   36.6550 C   0  0  0  0  0  0  0  0  0  0  0  0
   38.3010   22.8680   36.1680 C   0  0  0  0  0  0  0  0  0  0  0  0
   37.4140   23.4650   37.0550 C   0  0  0  0  0  0  0  0  0  0  0  0
   37.8300   23.7230   38.3280 N   0  0  0  0  0  0  0  0  0  0  0  0
   39.0750   23.4130   38.7500 C   0  0  0  0  0  0  0  0  0  0  0  0
   39.9650   22.8290   37.9080 N   0  0  0  0  0  0  0  0  0  0  0  0
   40.2150   22.0990   35.8890 H   0  0  0  0  0  0  0  0  0  0  0  0
   36.3940   23.7410   36.7800 H   0  0  0  0  0  0  0  0  0  0  0  0
   39.4240   23.6090   39.7570 H   0  0  0  0  0  0  0  0  0  0  0  0
   36.3450   20.7450   32.1480 C   0  0  0  0  0  3  0  0  0  0  0  0
   34.7950   20.7620   32.1820 C   0  0  0  0  0  2  0  0  0  0  0  0
   35.5660   21.2180   30.9910 C   0  0  0  0  0  2  0  0  0  0  0  0
  1  9  1  0  0  0  0
  2  1  1  0  0  0  0
  3  4  1  0  0  0  0
  3  2  2  0  0  0  0
  4  5  1  0  0  0  0
  5  1  2  0  0  0  0
  6  2  1  0  0  0  0
  7  3  1  0  0  0  0
  8 13  1  0  0  0  0
  9  8  2  0  0  0  0
  9 10  1  0  0  0  0
 10 11  2  0  0  0  0
 11 12  1  0  0  0  0
 12 16  1  0  0  0  0
 13 12  2  0  0  0  0
 14  8  1  0  0  0  0
 15 10  1  0  0  0  0
 17 18  1  0  0  0  0
 17  4  1  0  0  0  0
 19 17  1  0  0  0  0
 19 18  1  0  0  0  0
M  END
>  <minimizedAffinity>
-4.02596855

$$$$

 OpenBabel03272500453D

 19 21  0  0  0  0  0  0  0  0999 V2000
   38.0400   25.1620   34.9100 C   0  0  0  0  0  0  0  0  0  0  0  0
   37.5220   26.4350   35.1240 C   0  0  0  0  0  0  0  0  0  0  0  0
   37.0200   26.8990   33.9000 C   0  0  0  0  0  0  0  0  0  0  0  0
   37.2410   25.9180   33.0030 N   0  0  0  0  0  0  0  0  0  0  0  0
   37.8350   24.9230   33.6220 N   0  0  0  0  0  0  0  0  0  0  0  0
   37.4690   27.0400   36.0240 H   0  0  0  0  0  0  0  0  0  0  0  0
   36.5460   27.8740   33.7470 H   0  0  0  0  0  0  0  0  0  0  0  0
   39.8590   23.6720   35.7800 C   0  0  0  0  0  0  0  0  0  0  0  0
   38.6440   24.3690   35.9490 C   0  0  0  0  0  0  0  0  0  0  0  0
   38.0250   24.2670   37.1890 C   0  0  0  0  0  0  0  0  0  0  0  0
   38.6160   23.5120   38.1600 N   0  0  0  0  0  0  0  0  0  0  0  0
   39.7810   22.8610   37.9500 C   0  0  0  0  0  0  0  0  0  0  0  0
   40.4100   22.9410   36.7500 N   0  0  0  0  0  0  0  0  0  0  0  0
   40.2710   23.8110   34.7760 H   0  0  0  0  0  0  0  0  0  0  0  0
   37.0840   24.7660   37.4260 H   0  0  0  0  0  0  0  0  0  0  0  0
   40.2650   22.2570   38.7080 H   0  0  0  0  0  0  0  0  0  0  0  0
   36.8880   25.9530   31.6020 C   0  0  0  0  0  3  0  0  0  0  0  0
   35.5390   25.3050   31.1980 C   0  0  0  0  0  2  0  0  0  0  0  0
   35.7580   26.7790   31.1440 C   0  0  0  0  0  2  0  0  0  0  0  0
  1  2  1  0  0  0  0
  1  9  1  0  0  0  0
  2  6  1  0  0  0  0
  3  2  2  0  0  0  0
  4  5  1  0  0  0  0
  4  3  1  0  0  0  0
  5  1  2  0  0  0  0
  7  3  1  0  0  0  0
  8  9  2  0  0  0  0
  8 13  1  0  0  0  0
  9 10  1  0  0  0  0
 10 15  1  0  0  0  0
 10 11  2  0  0  0  0
 12 11  1  0  0  0  0
 12 16  1  0  0  0  0
 13 12  2  0  0  0  0
 14  8  1  0  0  0  0
 17  4  1  0  0  0  0
 18 17  1  0  0  0  0
 19 18  1  0  0  0  0
 19 17  1  0  0  0  0
M  END
>  <minimizedAffinity>
-3.99327779

$$$$

 OpenBabel03272500453D

 19 21  0  0  0  0  0  0  0  0999 V2000
   38.0350   26.6840   34.4230 C   0  0  0  0  0  0  0  0  0  0  0  0
   38.3470   27.4130   35.5660 C   0  0  0  0  0  0  0  0  0  0  0  0
   38.2560   26.5430   36.6620 C   0  0  0  0  0  0  0  0  0  0  0  0
   37.9010   25.3420   36.1630 N   0  0  0  0  0  0  0  0  0  0  0  0
   37.7810   25.4580   34.8600 N   0  0  0  0  0  0  0  0  0  0  0  0
   38.6210   28.4560   35.6920 H   0  0  0  0  0  0  0  0  0  0  0  0
   38.4460   26.8260   37.7020 H   0  0  0  0  0  0  0  0  0  0  0  0
   39.0670   27.0570   32.1690 C   0  0  0  0  0  0  0  0  0  0  0  0
   38.0260   27.2520   33.1000 C   0  0  0  0  0  0  0  0  0  0  0  0
   36.9520   28.0350   32.6920 C   0  0  0  0  0  0  0  0  0  0  0  0
   36.9630   28.5630   31.4340 N   0  0  0  0  0  0  0  0  0  0  0  0
   37.9850   28.3480   30.5770 C   0  0  0  0  0  0  0  0  0  0  0  0
   39.0470   27.5880   30.9450 N   0  0  0  0  0  0  0  0  0  0  0  0
   39.8650   26.4300   32.5770 H   0  0  0  0  0  0  0  0  0  0  0  0
   36.0950   28.2480   33.3330 H   0  0  0  0  0  0  0  0  0  0  0  0
   38.0120   28.7590   29.5750 H   0  0  0  0  0  0  0  0  0  0  0  0
   37.6890   24.1360   36.9290 C   0  0  0  0  0  3  0  0  0  0  0  0
   38.9500   23.3580   37.3870 C   0  0  0  0  0  2  0  0  0  0  0  0
   38.0720   24.0830   38.3500 C   0  0  0  0  0  2  0  0  0  0  0  0
  1  5  2  0  0  0  0
  1  2  1  0  0  0  0
  2  6  1  0  0  0  0
  2  3  2  0  0  0  0
  3  7  1  0  0  0  0
  4  3  1  0  0  0  0
  4 17  1  0  0  0  0
  5  4  1  0  0  0  0
  8 14  1  0  0  0  0
  8  9  1  0  0  0  0
  9  1  1  0  0  0  0
 10  9  2  0  0  0  0
 10 15  1  0  0  0  0
 11 10  1  0  0  0  0
 12 13  1  0  0  0  0
 12 11  2  0  0  0  0
 13  8  2  0  0  0  0
 16 12  1  0  0  0  0
 17 18  1  0  0  0  0
 17 19  1  0  0  0  0
 18 19  1  0  0  0  0
M  END
>  <minimizedAffinity>
-3.97276068

$$$$

 OpenBabel03272500453D

 19 21  0  0  0  0  0  0  0  0999 V2000
   37.6070   26.8560   34.3740 C   0  0  0  0  0  0  0  0  0  0  0  0
   38.1620   27.5060   35.4730 C   0  0  0  0  0  0  0  0  0  0  0  0
   38.2600   26.5710   36.5130 C   0  0  0  0  0  0  0  0  0  0  0  0
   37.7750   25.4100   36.0260 N   0  0  0  0  0  0  0  0  0  0  0  0
   37.4050   25.6110   34.7820 N   0  0  0  0  0  0  0  0  0  0  0  0
   38.4880   28.5330   35.6020 H   0  0  0  0  0  0  0  0  0  0  0  0
   38.6600   26.7830   37.5100 H   0  0  0  0  0  0  0  0  0  0  0  0
   36.2570   28.3630   32.8940 C   0  0  0  0  0  0  0  0  0  0  0  0
   37.3560   27.5070   33.1140 C   0  0  0  0  0  0  0  0  0  0  0  0
   38.2210   27.3020   32.0460 C   0  0  0  0  0  0  0  0  0  0  0  0
   37.9650   27.9290   30.8620 N   0  0  0  0  0  0  0  0  0  0  0  0
   36.8970   28.7400   30.6990 C   0  0  0  0  0  0  0  0  0  0  0  0
   36.0340   28.9610   31.7220 N   0  0  0  0  0  0  0  0  0  0  0  0
   35.6340   28.4640   33.7880 H   0  0  0  0  0  0  0  0  0  0  0  0
   39.1010   26.6600   32.1100 H   0  0  0  0  0  0  0  0  0  0  0  0
   36.6770   29.2460   29.7660 H   0  0  0  0  0  0  0  0  0  0  0  0
   37.6790   24.1630   36.7490 C   0  0  0  0  0  3  0  0  0  0  0  0
   39.0080   23.4450   37.0980 C   0  0  0  0  0  2  0  0  0  0  0  0
   38.1490   24.0750   38.1410 C   0  0  0  0  0  2  0  0  0  0  0  0
  1  5  2  0  0  0  0
  1  2  1  0  0  0  0
  2  6  1  0  0  0  0
  2  3  2  0  0  0  0
  3  7  1  0  0  0  0
  4  3  1  0  0  0  0
  4 17  1  0  0  0  0
  5  4  1  0  0  0  0
  8  9  1  0  0  0  0
  8 14  1  0  0  0  0
  9  1  1  0  0  0  0
 10 15  1  0  0  0  0
 10  9  2  0  0  0  0
 11 10  1  0  0  0  0
 12 11  2  0  0  0  0
 12 13  1  0  0  0  0
 13  8  2  0  0  0  0
 16 12  1  0  0  0  0
 17 18  1  0  0  0  0
 17 19  1  0  0  0  0
 18 19  1  0  0  0  0
M  END
>  <minimizedAffinity>
-3.96213722

$$$$

 OpenBabel03272500453D

 19 21  0  0  0  0  0  0  0  0999 V2000
   39.4560   26.4440   34.6560 C   0  0  0  0  0  0  0  0  0  0  0  0
   38.8460   27.3070   35.5610 C   0  0  0  0  0  0  0  0  0  0  0  0
   38.2010   26.5220   36.5260 C   0  0  0  0  0  0  0  0  0  0  0  0
   38.4330   25.2370   36.1870 N   0  0  0  0  0  0  0  0  0  0  0  0
   39.1650   25.2280   35.0960 N   0  0  0  0  0  0  0  0  0  0  0  0
   38.8160   28.3920   35.6000 H   0  0  0  0  0  0  0  0  0  0  0  0
   37.6320   26.9150   37.3750 H   0  0  0  0  0  0  0  0  0  0  0  0
   39.6780   26.9940   32.2200 C   0  0  0  0  0  0  0  0  0  0  0  0
   40.2170   26.8970   33.5200 C   0  0  0  0  0  0  0  0  0  0  0  0
   41.5470   27.2640   33.6810 C   0  0  0  0  0  0  0  0  0  0  0  0
   42.2490   27.6920   32.5920 N   0  0  0  0  0  0  0  0  0  0  0  0
   41.6890   27.7670   31.3650 C   0  0  0  0  0  0  0  0  0  0  0  0
   40.3920   27.4160   31.1750 N   0  0  0  0  0  0  0  0  0  0  0  0
   38.6290   26.6860   32.1900 H   0  0  0  0  0  0  0  0  0  0  0  0
   42.0600   27.2280   34.6430 H   0  0  0  0  0  0  0  0  0  0  0  0
   42.2300   28.1030   30.4890 H   0  0  0  0  0  0  0  0  0  0  0  0
   37.9590   24.0740   36.9000 C   0  0  0  0  0  3  0  0  0  0  0  0
   38.9990   23.2840   37.7350 C   0  0  0  0  0  2  0  0  0  0  0  0
   37.9070   24.0750   38.3710 C   0  0  0  0  0  2  0  0  0  0  0  0
  1  5  2  0  0  0  0
  1  2  1  0  0  0  0
  2  6  1  0  0  0  0
  2  3  2  0  0  0  0
  3  7  1  0  0  0  0
  4  3  1  0  0  0  0
  4 17  1  0  0  0  0
  5  4  1  0  0  0  0
  8  9  1  0  0  0  0
  9 10  2  0  0  0  0
  9  1  1  0  0  0  0
 10 15  1  0  0  0  0
 11 10  1  0  0  0  0
 12 11  2  0  0  0  0
 13 12  1  0  0  0  0
 13  8  2  0  0  0  0
 14  8  1  0  0  0  0
 16 12  1  0  0  0  0
 17 18  1  0  0  0  0
 17 19  1  0  0  0  0
 18 19  1  0  0  0  0
M  END
>  <minimizedAffinity>
-3.93732285

$$$$

 OpenBabel03272500453D

 19 21  0  0  0  0  0  0  0  0999 V2000
   38.3360   24.6270   35.8930 C   0  0  0  0  0  0  0  0  0  0  0  0
   37.5920   24.1880   36.9840 C   0  0  0  0  0  0  0  0  0  0  0  0
   38.4130   23.3450   37.7450 C   0  0  0  0  0  0  0  0  0  0  0  0
   39.6010   23.2980   37.1090 N   0  0  0  0  0  0  0  0  0  0  0  0
   39.5220   24.0540   36.0380 N   0  0  0  0  0  0  0  0  0  0  0  0
   36.5690   24.4000   37.2790 H   0  0  0  0  0  0  0  0  0  0  0  0
   38.1100   22.8430   38.6700 H   0  0  0  0  0  0  0  0  0  0  0  0
   37.6890   25.1550   33.5290 C   0  0  0  0  0  0  0  0  0  0  0  0
   37.8150   25.5160   34.8870 C   0  0  0  0  0  0  0  0  0  0  0  0
   37.4080   26.7970   35.2410 C   0  0  0  0  0  0  0  0  0  0  0  0
   36.9170   27.6230   34.2720 N   0  0  0  0  0  0  0  0  0  0  0  0
   36.8160   27.2320   32.9830 C   0  0  0  0  0  0  0  0  0  0  0  0
   37.2050   25.9880   32.6060 N   0  0  0  0  0  0  0  0  0  0  0  0
   38.0320   24.1330   33.3460 H   0  0  0  0  0  0  0  0  0  0  0  0
   37.4620   27.1760   36.2630 H   0  0  0  0  0  0  0  0  0  0  0  0
   36.4290   27.8730   32.2000 H   0  0  0  0  0  0  0  0  0  0  0  0
   40.7600   22.5470   37.5320 C   0  0  0  0  0  3  0  0  0  0  0  0
   41.2530   21.4190   36.5900 C   0  0  0  0  0  2  0  0  0  0  0  0
   42.0320   22.6720   36.8020 C   0  0  0  0  0  2  0  0  0  0  0  0
  1  5  2  0  0  0  0
  1  2  1  0  0  0  0
  2  6  1  0  0  0  0
  2  3  2  0  0  0  0
  3  7  1  0  0  0  0
  4 17  1  0  0  0  0
  4  3  1  0  0  0  0
  5  4  1  0  0  0  0
  8  9  1  0  0  0  0
  9 10  2  0  0  0  0
  9  1  1  0  0  0  0
 10 15  1  0  0  0  0
 11 10  1  0  0  0  0
 12 11  2  0  0  0  0
 13 12  1  0  0  0  0
 13  8  2  0  0  0  0
 14  8  1  0  0  0  0
 16 12  1  0  0  0  0
 18 19  1  0  0  0  0
 18 17  1  0  0  0  0
 19 17  1  0  0  0  0
M  END
>  <minimizedAffinity>
-3.90944195

$$$$

 OpenBabel03272500453D

 19 21  0  0  0  0  0  0  0  0999 V2000
   36.1260   23.9440   31.7030 C   0  0  0  0  0  0  0  0  0  0  0  0
   35.2350   24.7460   30.9960 C   0  0  0  0  0  0  0  0  0  0  0  0
   35.5460   26.0820   31.2840 C   0  0  0  0  0  0  0  0  0  0  0  0
   36.5920   26.0520   32.1360 N   0  0  0  0  0  0  0  0  0  0  0  0
   36.9030   24.7950   32.3580 N   0  0  0  0  0  0  0  0  0  0  0  0
   34.4210   24.4860   30.3250 H   0  0  0  0  0  0  0  0  0  0  0  0
   35.0190   26.9500   30.8760 H   0  0  0  0  0  0  0  0  0  0  0  0
   35.0860   21.7250   32.2320 C   0  0  0  0  0  0  0  0  0  0  0  0
   36.1080   22.5050   31.6500 C   0  0  0  0  0  0  0  0  0  0  0  0
   37.1310   21.8240   31.0020 C   0  0  0  0  0  0  0  0  0  0  0  0
   37.0940   20.4610   30.9640 N   0  0  0  0  0  0  0  0  0  0  0  0
   36.0940   19.7570   31.5370 C   0  0  0  0  0  0  0  0  0  0  0  0
   35.0800   20.3920   32.1770 N   0  0  0  0  0  0  0  0  0  0  0  0
   34.3270   22.3450   32.7180 H   0  0  0  0  0  0  0  0  0  0  0  0
   37.9680   22.3310   30.5190 H   0  0  0  0  0  0  0  0  0  0  0  0
   36.0470   18.6750   31.5170 H   0  0  0  0  0  0  0  0  0  0  0  0
   37.2530   27.2030   32.7060 C   0  0  0  0  0  3  0  0  0  0  0  0
   36.8750   27.5860   34.1600 C   0  0  0  0  0  2  0  0  0  0  0  0
   38.2150   27.0340   33.8090 C   0  0  0  0  0  2  0  0  0  0  0  0
  1  5  2  0  0  0  0
  2  3  2  0  0  0  0
  2  1  1  0  0  0  0
  3  4  1  0  0  0  0
  4  5  1  0  0  0  0
  4 17  1  0  0  0  0
  6  2  1  0  0  0  0
  7  3  1  0  0  0  0
  8 14  1  0  0  0  0
  9  1  1  0  0  0  0
  9  8  2  0  0  0  0
 10  9  1  0  0  0  0
 11 10  2  0  0  0  0
 11 12  1  0  0  0  0
 12 13  2  0  0  0  0
 13  8  1  0  0  0  0
 15 10  1  0  0  0  0
 16 12  1  0  0  0  0
 17 19  1  0  0  0  0
 17 18  1  0  0  0  0
 19 18  1  0  0  0  0
M  END
>  <minimizedAffinity>
-3.88855219

$$$$

 OpenBabel03272500453D

 19 21  0  0  0  0  0  0  0  0999 V2000
   37.7210   26.7110   34.4350 C   0  0  0  0  0  0  0  0  0  0  0  0
   39.1040   26.8680   34.4200 C   0  0  0  0  0  0  0  0  0  0  0  0
   39.6500   25.8950   35.2680 C   0  0  0  0  0  0  0  0  0  0  0  0
   38.6090   25.1930   35.7590 N   0  0  0  0  0  0  0  0  0  0  0  0
   37.5030   25.6930   35.2550 N   0  0  0  0  0  0  0  0  0  0  0  0
   39.7340   27.5760   33.8890 H   0  0  0  0  0  0  0  0  0  0  0  0
   40.7190   25.7640   35.4640 H   0  0  0  0  0  0  0  0  0  0  0  0
   36.5890   27.3640   32.2950 C   0  0  0  0  0  0  0  0  0  0  0  0
   36.8220   27.5420   33.6750 C   0  0  0  0  0  0  0  0  0  0  0  0
   36.1380   28.5740   34.3040 C   0  0  0  0  0  0  0  0  0  0  0  0
   35.2910   29.3480   33.5660 N   0  0  0  0  0  0  0  0  0  0  0  0
   35.1000   29.1400   32.2450 C   0  0  0  0  0  0  0  0  0  0  0  0
   35.7530   28.1400   31.6020 N   0  0  0  0  0  0  0  0  0  0  0  0
   37.1680   26.5310   31.8880 H   0  0  0  0  0  0  0  0  0  0  0  0
   36.2450   28.7970   35.3670 H   0  0  0  0  0  0  0  0  0  0  0  0
   34.4320   29.7440   31.6420 H   0  0  0  0  0  0  0  0  0  0  0  0
   38.6940   24.0840   36.6810 C   0  0  0  0  0  3  0  0  0  0  0  0
   38.0660   24.2820   38.0840 C   0  0  0  0  0  2  0  0  0  0  0  0
   37.4780   23.3540   37.0770 C   0  0  0  0  0  2  0  0  0  0  0  0
  1  5  2  0  0  0  0
  2  1  1  0  0  0  0
  2  3  2  0  0  0  0
  3  7  1  0  0  0  0
  3  4  1  0  0  0  0
  4 17  1  0  0  0  0
  5  4  1  0  0  0  0
  6  2  1  0  0  0  0
  8  9  1  0  0  0  0
  9 10  2  0  0  0  0
  9  1  1  0  0  0  0
 10 15  1  0  0  0  0
 11 10  1  0  0  0  0
 12 11  2  0  0  0  0
 13 12  1  0  0  0  0
 13  8  2  0  0  0  0
 14  8  1  0  0  0  0
 16 12  1  0  0  0  0
 17 19  1  0  0  0  0
 17 18  1  0  0  0  0
 19 18  1  0  0  0  0
M  END
>  <minimizedAffinity>
-3.85803318

$$$$
