REMARK  Name = 
REMARK  7 active torsions:
REMARK  status: ('A' for Active; 'I' for Inactive)
REMARK    1  A    between atoms: C_3  and  C_9
REMARK    2  A    between atoms: C_5  and  O_14
REMARK    3  A    between atoms: O_14  and  C_15
REMARK    4  A    between atoms: C_15  and  C_16
REMARK    5  A    between atoms: C_16  and  C_17
REMARK    6  A    between atoms: C_21  and  C_23
REMARK    7  A    between atoms: C_23  and  C_38
REMARK                            x       y       z     vdW  Elec       q    Type
REMARK                         _______ _______ _______ _____ _____    ______ ____
ROOT
ATOM      1  O   UNL     1      34.995  28.355  49.449  0.00  0.00    +0.000 OA
ENDROOT
BRANCH   1   6
ATOM      2  C   UNL     1      37.332  30.181  51.522  0.00  0.00    +0.000 A 
ATOM      3  C   UNL     1      38.060  30.863  50.520  0.00  0.00    +0.000 A 
ATOM      4  C   UNL     1      37.703  30.654  49.198  0.00  0.00    +0.000 A 
ATOM      5  N   UNL     1      36.659  29.789  48.983  0.00  0.00    +0.000 NA
ATOM      6  C   UNL     1      35.987  29.156  49.939  0.00  0.00    +0.000 A 
ATOM      7  N   UNL     1      36.336  29.362  51.227  0.00  0.00    +0.000 NA
ATOM      8  H   UNL     1      37.630  30.362  52.548  0.00  0.00    +0.000 HD
ATOM      9  H   UNL     1      38.878  31.540  50.704  0.00  0.00    +0.000 HD
BRANCH   4  12
ATOM     10  F   UNL     1      38.944  33.264  49.011  0.00  0.00    +0.000 F 
ATOM     11  C   UNL     1      38.914  32.481  47.950  0.00  0.00    +0.000 A 
ATOM     12  C   UNL     1      38.331  31.262  48.047  0.00  0.00    +0.000 A 
ATOM     13  C   UNL     1      38.350  30.514  46.873  0.00  0.00    +0.000 A 
ATOM     14  C   UNL     1      38.922  30.989  45.713  0.00  0.00    +0.000 A 
ATOM     15  C   UNL     1      39.500  32.230  45.660  0.00  0.00    +0.000 A 
ATOM     16  C   UNL     1      39.491  32.977  46.798  0.00  0.00    +0.000 A 
ATOM     17  H   UNL     1      37.923  29.522  46.801  0.00  0.00    +0.000 HD
ATOM     18  H   UNL     1      38.930  30.396  44.804  0.00  0.00    +0.000 HD
ATOM     19  H   UNL     1      39.959  32.630  44.755  0.00  0.00    +0.000 HD
ATOM     20  H   UNL     1      39.944  33.955  46.767  0.00  0.00    +0.000 HD
ENDBRANCH   4  12
ENDBRANCH   1   6
BRANCH   1  21
ATOM     21  C   UNL     1      34.437  28.646  48.179  0.00  0.00    +0.000 C 
ATOM     22  H   UNL     1      33.823  29.551  48.270  0.00  0.00    +0.000 HD
ATOM     23  H   UNL     1      35.278  28.740  47.448  0.00  0.00    +0.000 HD
BRANCH  21  24
ATOM     24  C   UNL     1      33.563  27.519  47.702  0.00  0.00    +0.000 C 
ATOM     25  H   UNL     1      33.820  27.200  46.662  0.00  0.00    +0.000 HD
ATOM     26  H   UNL     1      33.731  26.638  48.328  0.00  0.00    +0.000 HD
BRANCH  24  27
ATOM     27  C   UNL     1      32.114  27.888  47.738  0.00  0.00    +0.000 A 
ATOM     28  C   UNL     1      31.376  27.479  48.831  0.00  0.00    +0.000 A 
ATOM     29  C   UNL     1      30.043  27.763  48.963  0.00  0.00    +0.000 A 
ATOM     30  N   UNL     1      29.434  28.456  48.012  0.00  0.00    +0.000 NA
ATOM     31  C   UNL     1      30.161  28.857  46.940  0.00  0.00    +0.000 A 
ATOM     32  N   UNL     1      31.473  28.588  46.788  0.00  0.00    +0.000 NA
ATOM     33  H   UNL     1      31.864  26.912  49.614  0.00  0.00    +0.000 HD
ATOM     34  H   UNL     1      29.522  27.403  49.862  0.00  0.00    +0.000 HD
BRANCH  31  35
ATOM     35  C   UNL     1      29.459  29.642  45.867  0.00  0.00    +0.000 C 
ATOM     36  H   UNL     1      29.021  30.571  46.310  0.00  0.00    +0.000 HD
ATOM     37  H   UNL     1      28.628  29.029  45.430  0.00  0.00    +0.000 HD
BRANCH  35  38
ATOM     38  C   UNL     1      30.381  30.014  44.753  0.00  0.00    +0.000 C 
ATOM     39  C   UNL     1      31.279  28.844  44.300  0.00  0.00    +0.000 C 
ATOM     40  C   UNL     1      30.271  29.474  43.392  0.00  0.00    +0.000 C 
ENDBRANCH  35  38
ENDBRANCH  31  35
ENDBRANCH  24  27
ENDBRANCH  21  24
ENDBRANCH   1  21
TORSDOF 7
