
 OpenBabel03272501583D

 25 27  0  0  0  0  0  0  0  0999 V2000
   34.4120   28.7270   47.9260 C   0  0  0  0  0  0  0  0  0  0  0  0
   34.9860   28.2230   47.1520 H   0  0  0  0  0  0  0  0  0  0  0  0
   34.4560   29.8420   47.8490 H   0  0  0  0  0  0  0  0  0  0  0  0
   32.9710   28.3210   47.8310 C   0  0  0  0  0  0  0  0  0  0  0  0
   32.2780   27.4390   48.6190 C   0  0  0  0  0  0  0  0  0  0  0  0
   30.9690   27.3260   48.2220 C   0  0  0  0  0  0  0  0  0  0  0  0
   30.8950   28.1660   47.1710 N   0  0  0  0  0  0  0  0  0  0  0  0
   32.0720   28.7570   46.9330 N   0  0  0  0  0  0  0  0  0  0  0  0
   32.7020   26.8860   49.4650 H   0  0  0  0  0  0  0  0  0  0  0  0
   30.1650   26.7270   48.6230 H   0  0  0  0  0  0  0  0  0  0  0  0
   29.6680   28.3890   46.3990 C   0  0  0  0  0  0  0  0  0  0  0  0
   28.3950   27.8650   46.9370 C   0  0  0  0  0  0  0  0  0  0  0  0
   28.6930   29.3210   47.0810 C   0  0  0  0  0  0  0  0  0  0  0  0
   34.8520   28.3300   49.3160 C   0  0  0  0  0  0  0  0  0  0  0  0
   35.2350   27.2850   49.3350 H   0  0  0  0  0  0  0  0  0  0  0  0
   34.0530   28.4250   50.0700 H   0  0  0  0  0  0  0  0  0  0  0  0
   37.2660   30.1730   51.4280 C   0  0  0  0  0  0  0  0  0  0  0  0
   38.1040   30.7780   50.4670 C   0  0  0  0  0  0  0  0  0  0  0  0
   37.8250   30.5410   49.1100 C   0  0  0  0  0  0  0  0  0  0  0  0
   36.7630   29.7420   48.7820 N   0  0  0  0  0  0  0  0  0  0  0  0
   35.9900   29.1880   49.7430 C   0  0  0  0  0  0  0  0  0  0  0  0
   36.2440   29.4050   51.0220 N   0  0  0  0  0  0  0  0  0  0  0  0
   37.5030   30.3740   52.4680 H   0  0  0  0  0  0  0  0  0  0  0  0
   38.9290   31.3990   50.7900 H   0  0  0  0  0  0  0  0  0  0  0  0
   38.4610   30.9980   48.3780 H   0  0  0  0  0  0  0  0  0  0  0  0
  1 14  1  0  0  0  0
  2  1  1  0  0  0  0
  3  1  1  0  0  0  0
  4  1  1  0  0  0  0
  4  5  1  0  0  0  0
  5  9  1  0  0  0  0
  6  5  2  0  0  0  0
  6 10  1  0  0  0  0
  7  6  1  0  0  0  0
  8  7  1  0  0  0  0
  8  4  2  0  0  0  0
 11 12  1  0  0  0  0
 11 13  1  0  0  0  0
 11  7  1  0  0  0  0
 12 13  1  0  0  0  0
 14 15  1  0  0  0  0
 14 21  1  0  0  0  0
 14 16  1  0  0  0  0
 17 23  1  0  0  0  0
 18 24  1  0  0  0  0
 18 17  2  0  0  0  0
 19 18  1  0  0  0  0
 20 19  2  0  0  0  0
 20 21  1  0  0  0  0
 21 22  2  0  0  0  0
 22 17  1  0  0  0  0
 25 19  1  0  0  0  0
M  END
>  <minimizedAffinity>
-4.44621325

>  <minimizedRMSD>
0.474332809

$$$$
