
 OpenBabel03272510103D

 22 24  0  0  0  0  0  0  0  0999 V2000
   37.1990   31.1580   48.3920 C   0  0  0  0  0  0  0  0  0  0  0  0
   38.2030   32.0310   48.6750 C   0  0  0  0  0  0  0  0  0  0  0  0
   38.9590   32.6740   47.7130 C   0  0  0  0  0  0  0  0  0  0  0  0
   38.7130   32.4400   46.3730 C   0  0  0  0  0  0  0  0  0  0  0  0
   37.6940   31.5520   46.1220 C   0  0  0  0  0  0  0  0  0  0  0  0
   36.9680   30.9370   47.0710 N   0  0  0  0  0  0  0  0  0  0  0  0
   38.4110   32.2290   49.7240 H   0  0  0  0  0  0  0  0  0  0  0  0
   39.7540   33.3660   47.9620 H   0  0  0  0  0  0  0  0  0  0  0  0
   37.3540   31.2420   45.1420 H   0  0  0  0  0  0  0  0  0  0  0  0
   36.9130   30.0060   50.6120 C   0  0  0  0  0  0  0  0  0  0  0  0
   36.4020   30.4790   49.4060 C   0  0  0  0  0  0  0  0  0  0  0  0
   35.0600   30.2870   49.1660 C   0  0  0  0  0  0  0  0  0  0  0  0
   34.2980   29.6510   50.1020 N   0  0  0  0  0  0  0  0  0  0  0  0
   34.8470   29.2100   51.2610 C   0  0  0  0  0  0  0  0  0  0  0  0
   36.1660   29.3840   51.5310 N   0  0  0  0  0  0  0  0  0  0  0  0
   37.9790   30.1960   50.7250 H   0  0  0  0  0  0  0  0  0  0  0  0
   34.6440   30.6470   48.2360 H   0  0  0  0  0  0  0  0  0  0  0  0
   34.2860   28.7020   52.0350 H   0  0  0  0  0  0  0  0  0  0  0  0
   39.3930   33.0130   45.3210 O   0  0  0  0  0  0  0  0  0  0  0  0
   40.5180   32.5390   44.6630 C   0  0  0  0  0  3  0  0  0  0  0  0
   41.3010   31.3950   45.3880 C   0  0  0  0  0  2  0  0  0  0  0  0
   40.5710   31.1800   44.0690 C   0  0  0  0  0  2  0  0  0  0  0  0
  1  2  1  0  0  0  0
  1 11  1  0  0  0  0
  2  7  1  0  0  0  0
  3  8  1  0  0  0  0
  3  2  2  0  0  0  0
  4  3  1  0  0  0  0
  5  4  2  0  0  0  0
  5  6  1  0  0  0  0
  6  1  2  0  0  0  0
  9  5  1  0  0  0  0
 10 16  1  0  0  0  0
 10 15  1  0  0  0  0
 11 10  2  0  0  0  0
 12 11  1  0  0  0  0
 12 13  2  0  0  0  0
 13 14  1  0  0  0  0
 14 15  2  0  0  0  0
 14 18  1  0  0  0  0
 17 12  1  0  0  0  0
 19  4  1  0  0  0  0
 20 19  1  0  0  0  0
 20 21  1  0  0  0  0
 22 20  1  0  0  0  0
 22 21  1  0  0  0  0
M  END
>  <minimizedAffinity>
-4.95842552

>  <minimizedRMSD>
1.32831967

$$$$
