
 OpenBabel03272510303D

 22 24  0  0  0  0  0  0  0  0999 V2000
   37.4150   31.3720   49.2460 C   0  0  0  0  0  0  0  0  0  0  0  0
   37.7550   32.6780   49.6080 C   0  0  0  0  0  0  0  0  0  0  0  0
   38.6100   33.3370   48.7530 C   0  0  0  0  0  0  0  0  0  0  0  0
   39.0690   32.7060   47.6250 N   0  0  0  0  0  0  0  0  0  0  0  0
   38.7050   31.4230   47.3150 C   0  0  0  0  0  0  0  0  0  0  0  0
   37.8550   30.7420   48.1500 N   0  0  0  0  0  0  0  0  0  0  0  0
   37.3680   33.1350   50.5070 H   0  0  0  0  0  0  0  0  0  0  0  0
   38.9300   34.3520   48.9490 H   0  0  0  0  0  0  0  0  0  0  0  0
   36.4560   30.6340   50.1440 C   0  0  0  0  0  0  0  0  0  0  0  0
   36.3740   29.1970   50.1970 C   0  0  0  0  0  0  0  0  0  0  0  0
   37.1670   29.8940   51.2890 C   0  0  0  0  0  0  0  0  0  0  0  0
   35.5860   31.2720   50.4870 H   0  0  0  0  0  0  0  0  0  0  0  0
   35.3920   28.7520   50.4730 H   0  0  0  0  0  0  0  0  0  0  0  0
   36.9670   28.5490   49.5220 H   0  0  0  0  0  0  0  0  0  0  0  0
   36.6900   29.9390   52.2960 H   0  0  0  0  0  0  0  0  0  0  0  0
   38.2610   29.8560   51.2950 H   0  0  0  0  0  0  0  0  0  0  0  0
   39.1720   30.7280   46.1070 C   0  0  0  0  0  0  0  0  0  0  0  0
   40.2750   30.7600   46.0070 H   0  0  0  0  0  0  0  0  0  0  0  0
   38.9070   29.6530   46.1820 H   0  0  0  0  0  0  0  0  0  0  0  0
   38.4880   31.2790   44.8780 C   0  0  0  0  0  3  0  0  0  0  0  0
   38.2800   30.4560   43.6750 C   0  0  0  0  0  2  0  0  0  0  0  0
   37.1010   30.9070   44.5590 C   0  0  0  0  0  2  0  0  0  0  0  0
  1  2  1  0  0  0  0
  1  9  1  0  0  0  0
  2  7  1  0  0  0  0
  3  8  1  0  0  0  0
  3  2  2  0  0  0  0
  4  3  1  0  0  0  0
  5  4  2  0  0  0  0
  5  6  1  0  0  0  0
  6  1  2  0  0  0  0
  9 10  1  0  0  0  0
  9 12  1  0  0  0  0
  9 11  1  0  0  0  0
 10 13  1  0  0  0  0
 10 11  1  0  0  0  0
 11 16  1  0  0  0  0
 11 15  1  0  0  0  0
 14 10  1  0  0  0  0
 17 19  1  0  0  0  0
 17  5  1  0  0  0  0
 18 17  1  0  0  0  0
 20 17  1  0  0  0  0
 21 22  1  0  0  0  0
 21 20  1  0  0  0  0
 22 20  1  0  0  0  0
M  END
>  <minimizedAffinity>
-4.61045074

>  <minimizedRMSD>
0.24675715

$$$$
