
 OpenBabel03272508573D

 34 37  0  0  1  0  0  0  0  0999 V2000
   38.3910   31.8560   44.5380 C   0  0  0  0  0  0  0  0  0  0  0  0
   37.2850   32.4450   44.4190 O   0  0  0  0  0  0  0  0  0  0  0  0
   38.9400   31.5570   45.8340 N   0  0  0  0  0  0  0  0  0  0  0  0
   39.9250   31.2520   45.9950 H   0  0  0  0  0  0  0  0  0  0  0  0
   39.1560   31.4570   43.3490 C   0  0  0  0  0  0  0  0  0  0  0  0
   40.2320   30.6280   43.5070 C   0  0  0  0  0  0  0  0  0  0  0  0
   40.9490   30.2260   42.3930 C   0  0  0  0  0  0  0  0  0  0  0  0
   40.5310   30.6920   41.1850 C   0  0  0  0  0  0  0  0  0  0  0  0
   39.4450   31.5340   40.9950 C   0  0  0  0  0  0  0  0  0  0  0  0
   38.7860   31.8890   42.1250 N   0  0  0  0  0  0  0  0  0  0  0  0
   40.5850   30.2440   44.4730 H   0  0  0  0  0  0  0  0  0  0  0  0
   41.8060   29.5780   42.4250 H   0  0  0  0  0  0  0  0  0  0  0  0
   41.0590   30.4060   40.2740 H   0  0  0  0  0  0  0  0  0  0  0  0
   39.0650   32.0080   39.6600 C   0  0  0  0  0  0  0  0  0  0  0  0
   39.1280   33.2640   39.4500 O   0  0  0  0  0  0  0  0  0  0  0  0
   38.6400   30.9570   38.6820 C   0  0  0  0  0  3  0  0  0  0  0  0
   37.1480   31.0810   38.3130 C   0  0  0  0  0  2  0  0  0  0  0  0
   37.6230   29.9440   39.1130 C   0  0  0  0  0  2  0  0  0  0  0  0
   38.4210   31.0980   48.2230 C   0  0  2  0  0  0  0  0  0  0  0  0
   38.6800   32.5530   48.1140 C   0  0  0  0  0  0  0  0  0  0  0  0
   38.0630   31.6920   46.9750 C   0  0  1  0  0  0  0  0  0  0  0  0
   39.3620   30.4970   48.3160 H   0  0  0  0  0  0  0  0  0  0  0  0
   37.9700   33.2230   48.6500 H   0  0  0  0  0  0  0  0  0  0  0  0
   39.6990   32.9210   47.9770 H   0  0  0  0  0  0  0  0  0  0  0  0
   36.9840   31.9530   46.7650 H   0  0  0  0  0  0  0  0  0  0  0  0
   35.0740   30.2060   49.5270 C   0  0  0  0  0  0  0  0  0  0  0  0
   35.4020   29.5590   50.7530 C   0  0  0  0  0  0  0  0  0  0  0  0
   36.7980   29.4500   51.1230 C   0  0  0  0  0  0  0  0  0  0  0  0
   37.7480   29.9680   50.2810 N   0  0  0  0  0  0  0  0  0  0  0  0
   37.3510   30.5710   49.1250 C   0  0  0  0  0  0  0  0  0  0  0  0
   36.0300   30.7090   48.7160 N   0  0  0  0  0  0  0  0  0  0  0  0
   34.0190   30.2610   49.3000 H   0  0  0  0  0  0  0  0  0  0  0  0
   34.6310   29.1740   51.3700 H   0  0  0  0  0  0  0  0  0  0  0  0
   37.0350   28.9620   52.0460 H   0  0  0  0  0  0  0  0  0  0  0  0
  1  3  1  0  0  0  0
  2  1  2  0  0  0  0
  3  4  1  0  0  0  0
  3 21  1  0  0  0  0
  5  6  1  0  0  0  0
  5  1  1  0  0  0  0
  6 11  1  0  0  0  0
  7 12  1  0  0  0  0
  7  6  2  0  0  0  0
  8  7  1  0  0  0  0
  9  8  2  0  0  0  0
  9 10  1  0  0  0  0
 10  5  2  0  0  0  0
 13  8  1  0  0  0  0
 14  9  1  0  0  0  0
 15 14  2  0  0  0  0
 16 18  1  0  0  0  0
 16 14  1  0  0  0  0
 17 16  1  0  0  0  0
 17 18  1  0  0  0  0
 19 22  1  6  0  0  0
 19 30  1  0  0  0  0
 20 19  1  0  0  0  0
 20 23  1  0  0  0  0
 21 25  1  6  0  0  0
 21 20  1  0  0  0  0
 21 19  1  0  0  0  0
 24 20  1  0  0  0  0
 26 27  1  0  0  0  0
 27 28  2  0  0  0  0
 27 33  1  0  0  0  0
 28 34  1  0  0  0  0
 29 28  1  0  0  0  0
 30 29  2  0  0  0  0
 31 30  1  0  0  0  0
 31 26  2  0  0  0  0
 32 26  1  0  0  0  0
M  END
>  <minimizedAffinity>
-4.819911

>  <minimizedRMSD>
0.5313254

$$$$
