
 OpenBabel03272509433D

 32 34  0  0  1  0  0  0  0  0999 V2000
   37.0270   30.9230   49.0340 C   0  0  0  0  0  0  0  0  0  0  0  0
   36.7390   31.8020   50.0790 C   0  0  0  0  0  0  0  0  0  0  0  0
   37.3270   33.0560   50.1650 C   0  0  0  0  0  0  0  0  0  0  0  0
   38.2340   33.4550   49.1800 C   0  0  0  0  0  0  0  0  0  0  0  0
   38.5060   32.5860   48.1640 C   0  0  0  0  0  0  0  0  0  0  0  0
   37.9000   31.3390   48.1110 C   0  0  0  0  0  0  0  0  0  0  0  0
   36.0260   31.4600   50.8340 H   0  0  0  0  0  0  0  0  0  0  0  0
   37.0200   33.6360   51.0200 H   0  0  0  0  0  0  0  0  0  0  0  0
   38.6380   34.4370   49.3270 H   0  0  0  0  0  0  0  0  0  0  0  0
   39.2280   33.0360   47.4810 H   0  0  0  0  0  0  0  0  0  0  0  0
   36.4370   29.6030   48.9670 C   0  0  2  0  0  0  0  0  0  0  0  0
   36.9650   29.0840   48.0780 H   0  0  0  0  0  0  0  0  0  0  0  0
   33.5810   30.1010   46.7770 C   0  0  0  0  0  0  0  0  0  0  0  0
   32.8920   28.9050   46.8480 C   0  0  0  0  0  0  0  0  0  0  0  0
   33.3680   27.9290   47.7020 C   0  0  0  0  0  0  0  0  0  0  0  0
   34.5030   28.1770   48.4460 N   0  0  0  0  0  0  0  0  0  0  0  0
   35.1150   29.3380   48.3310 C   0  0  0  0  0  0  0  0  0  0  0  0
   34.6630   30.3050   47.5020 N   0  0  0  0  0  0  0  0  0  0  0  0
   33.2320   30.8940   46.1130 H   0  0  0  0  0  0  0  0  0  0  0  0
   32.0180   28.8050   46.2270 H   0  0  0  0  0  0  0  0  0  0  0  0
   32.8330   26.9920   47.7640 H   0  0  0  0  0  0  0  0  0  0  0  0
   36.8800   28.8170   49.8830 O   0  0  0  0  0  0  0  0  0  0  0  0
   36.5460   28.7740   50.7950 H   0  0  0  0  0  0  0  0  0  0  0  0
   38.3020   30.5080   47.0000 C   0  0  0  0  0  3  0  0  0  0  0  0
   39.0290   30.9480   45.9670 C   0  0  0  0  0  3  0  0  0  0  0  0
   39.5300   30.1810   44.8030 C   0  0  0  0  0  0  0  0  0  0  0  0
   39.0790   29.1590   44.7440 H   0  0  0  0  0  0  0  0  0  0  0  0
   40.6290   30.0500   44.8260 H   0  0  0  0  0  0  0  0  0  0  0  0
   39.1140   31.0440   43.2840 S   0  0  0  0  0  0  0  0  0  0  0  0
   37.3590   30.7400   42.8650 C   0  0  0  0  0  3  0  0  0  0  0  0
   36.7460   29.5540   43.5070 C   0  0  0  0  0  2  0  0  0  0  0  0
   37.0220   29.5490   42.0470 C   0  0  0  0  0  2  0  0  0  0  0  0
  1  2  1  0  0  0  0
  2  3  2  0  0  0  0
  2  7  1  0  0  0  0
  3  8  1  0  0  0  0
  4  9  1  0  0  0  0
  4  3  1  0  0  0  0
  5  4  2  0  0  0  0
  6  5  1  0  0  0  0
  6  1  2  0  0  0  0
 10  5  1  0  0  0  0
 11 12  1  6  0  0  0
 11  1  1  0  0  0  0
 11 22  1  0  0  0  0
 13 14  2  0  0  0  0
 13 18  1  0  0  0  0
 14 15  1  0  0  0  0
 15 21  1  0  0  0  0
 15 16  2  0  0  0  0
 17 16  1  0  0  0  0
 17 11  1  0  0  0  0
 18 17  2  0  0  0  0
 19 13  1  0  0  0  0
 20 14  1  0  0  0  0
 22 23  1  0  0  0  0
 24  6  1  0  0  0  0
 25 24  2  0  0  0  0
 26 28  1  0  0  0  0
 26 25  1  0  0  0  0
 27 26  1  0  0  0  0
 29 26  1  0  0  0  0
 30 29  1  0  0  0  0
 30 31  1  0  0  0  0
 32 30  1  0  0  0  0
 32 31  1  0  0  0  0
M  END
>  <minimizedAffinity>
-5.17601824

>  <minimizedRMSD>
0.346196175

$$$$
