
     RDKit          3D

 39 41  0  0  0  0  0  0  0  0999 V2000
   37.0800   30.9489   49.0284 C   0  0  0  0  0  0  0  0  0  0  0  0
   36.8124   31.8793   50.0344 C   0  0  0  0  0  0  0  0  0  0  0  0
   37.4263   33.1228   50.0639 C   0  0  0  0  0  0  0  0  0  0  0  0
   38.3388   33.4601   49.0611 C   0  0  0  0  0  0  0  0  0  0  0  0
   38.5914   32.5413   48.0838 C   0  0  0  0  0  0  0  0  0  0  0  0
   37.9593   31.3064   48.0863 C   0  0  0  0  0  0  0  0  0  0  0  0
   36.4629   29.6400   49.0199 C   0  0  1  0  0  0  0  0  0  0  0  0
   36.8634   28.8992   49.9921 O   0  0  0  0  0  0  0  0  0  0  0  0
   33.6137   30.1474   46.8219 C   0  0  0  0  0  0  0  0  0  0  0  0
   32.9551   28.9323   46.8426 C   0  0  0  0  0  0  0  0  0  0  0  0
   33.4490   27.9369   47.6654 C   0  0  0  0  0  0  0  0  0  0  0  0
   34.5697   28.1856   48.4278 N   0  0  0  0  0  0  0  0  0  0  0  0
   35.1545   29.3650   48.3618 C   0  0  0  0  0  0  0  0  0  0  0  0
   34.6840   30.3509   47.5650 N   0  0  0  0  0  0  0  0  0  0  0  0
   38.3423   30.4190   47.0121 C   0  0  0  0  0  0  0  0  0  0  0  0
   38.8252   30.8376   45.8376 C   0  0  0  0  0  0  0  0  0  0  0  0
   39.2850   30.0231   44.6902 C   0  0  0  0  0  0  0  0  0  0  0  0
   39.1799   30.9902   43.1798 S   0  0  0  0  0  0  0  0  0  0  0  0
   36.0939   31.5855   50.8038 H   0  0  0  0  0  0  0  0  0  0  0  0
   37.1329   33.7462   50.8934 H   0  0  0  0  0  0  0  0  0  0  0  0
   38.7630   34.4388   49.1642 H   0  0  0  0  0  0  0  0  0  0  0  0
   39.3199   32.9456   47.3812 H   0  0  0  0  0  0  0  0  0  0  0  0
   37.0039   29.0591   48.1779 H   0  0  0  0  0  0  0  0  0  0  0  0
   36.5032   28.9163   50.8948 H   0  0  0  0  0  0  0  0  0  0  0  0
   33.2505   30.9546   46.1849 H   0  0  0  0  0  0  0  0  0  0  0  0
   32.0889   28.8334   46.2102 H   0  0  0  0  0  0  0  0  0  0  0  0
   32.9374   26.9855   47.6867 H   0  0  0  0  0  0  0  0  0  0  0  0
   38.3526   29.3296   46.8937 H   0  0  0  0  0  0  0  0  0  0  0  0
   38.9301   31.9332   45.6907 H   0  0  0  0  0  0  0  0  0  0  0  0
   38.6621   29.1051   44.5462 H   0  0  0  0  0  0  0  0  0  0  0  0
   40.3340   29.6889   44.8029 H   0  0  0  0  0  0  0  0  0  0  0  0
   37.4265   31.3470   42.7994 C   0  0  0  0  0  0  0  0  0  0  0  0
   36.8403   30.5583   41.6907 C   0  0  0  0  0  0  0  0  0  0  0  0
   37.0997   32.0105   41.5122 C   0  0  0  0  0  0  0  0  0  0  0  0
   36.7857   31.6340   43.6566 H   0  0  0  0  0  0  0  0  0  0  0  0
   37.4876   29.8739   41.0998 H   0  0  0  0  0  0  0  0  0  0  0  0
   35.7931   30.1886   41.7909 H   0  0  0  0  0  0  0  0  0  0  0  0
   36.2126   32.6570   41.4465 H   0  0  0  0  0  0  0  0  0  0  0  0
   37.9503   32.3403   40.8609 H   0  0  0  0  0  0  0  0  0  0  0  0
  1  7  1  0
  1  2  2  0
  2  3  1  0
  4  3  2  0
  5  6  2  0
  5  4  1  0
  6  1  1  0
  7  8  1  0
  9 10  2  0
  9 14  1  0
 10 11  1  0
 11 12  2  0
 13 12  1  0
 13  7  1  0
 14 13  2  0
 15  6  1  0
 16 15  2  0
 17 16  1  0
 18 17  1  0
  2 19  1  0
  3 20  1  0
  4 21  1  0
  5 22  1  0
  7 23  1  6
  8 24  1  0
  9 25  1  0
 10 26  1  0
 11 27  1  0
 15 28  1  0
 16 29  1  0
 17 30  1  0
 17 31  1  0
 32 33  1  0
 33 34  1  0
 34 32  1  0
 32 35  1  0
 33 36  1  0
 33 37  1  0
 34 38  1  0
 34 39  1  0
 18 32  1  0
M  ISO  8  19  14  20  14  21  14  22  14  23   8  24   3  25  14  26  14
M  ISO  3  27  14  30   8  31   8
M  END
>  <DihAtoms>  (1) 
16,17,31,32

>  <DihDeg>  (1) 
179.93166995472163

$$$$
