
 OpenBabel03272502313D

 21 22  0  0  1  0  0  0  0  0999 V2000
   37.6470   30.9580   47.2250 C   0  0  0  0  0  0  0  0  0  0  0  0
   37.4600   31.5500   48.3580 C   0  0  0  0  0  0  0  0  0  0  0  0
   40.3630   32.9810   45.6780 C   0  0  0  0  0  0  0  0  0  0  0  0
   39.3200   32.5720   46.4960 C   0  0  0  0  0  0  0  0  0  0  0  0
   38.7290   31.3310   46.3600 C   0  0  0  0  0  0  0  0  0  0  0  0
   39.2200   30.5400   45.3920 N   0  0  0  0  0  0  0  0  0  0  0  0
   40.2230   30.9260   44.6050 C   0  0  0  0  0  0  0  0  0  0  0  0
   40.7980   32.1220   44.7300 N   0  0  0  0  0  0  0  0  0  0  0  0
   40.8550   33.9410   45.7480 H   0  0  0  0  0  0  0  0  0  0  0  0
   39.0560   33.3320   47.2140 H   0  0  0  0  0  0  0  0  0  0  0  0
   40.5950   30.2480   43.8250 H   0  0  0  0  0  0  0  0  0  0  0  0
   36.2750   31.1090   49.2170 C   0  0  2  0  0  0  0  0  0  0  0  0
   35.5510   32.0080   49.2210 H   0  0  0  0  0  0  0  0  0  0  0  0
   36.8750   30.9990   50.5730 C   0  0  0  0  0  0  0  0  0  0  0  0
   38.3060   30.6680   50.6780 C   0  0  0  0  0  0  0  0  0  0  0  0
   37.3190   29.5920   50.9910 C   0  0  0  0  0  0  0  0  0  0  0  0
   35.5400   29.7190   48.4180 S   0  0  0  0  0  0  0  0  0  0  0  0
   34.1940   28.9390   49.3080 C   0  0  0  0  0  0  0  0  0  0  0  0
   33.8210   29.6850   50.3880 F   0  0  0  0  0  0  0  0  0  0  0  0
   33.1240   28.6720   48.4510 F   0  0  0  0  0  0  0  0  0  0  0  0
   34.6460   27.6940   49.7440 F   0  0  0  0  0  0  0  0  0  0  0  0
  1  2  2  0  0  0  0
  2 12  1  0  0  0  0
  3  9  1  0  0  0  0
  3  4  1  0  0  0  0
  4 10  1  0  0  0  0
  5  4  2  0  0  0  0
  5  1  1  0  0  0  0
  6  5  1  0  0  0  0
  7  8  1  0  0  0  0
  7  6  2  0  0  0  0
  8  3  2  0  0  0  0
 11  7  1  0  0  0  0
 12 13  1  1  0  0  0
 12 14  1  0  0  0  0
 14 15  1  0  0  0  0
 14 16  1  0  0  0  0
 15 16  1  0  0  0  0
 17 12  1  0  0  0  0
 17 18  1  0  0  0  0
 18 21  1  0  0  0  0
 18 19  1  0  0  0  0
 20 18  1  0  0  0  0
M  END
>  <minimizedAffinity>
-5.36721611

>  <minimizedRMSD>
2.1699307

$$$$
