
     RDKit          3D

 26 28  0  0  0  0  0  0  0  0999 V2000
   37.5246   30.4376   50.9265 C   0  0  0  0  0  0  0  0  0  0  0  0
   37.1977   31.0507   49.7177 C   0  0  0  0  0  0  0  0  0  0  0  0
   35.9576   30.7810   49.1250 C   0  0  0  0  0  0  0  0  0  0  0  0
   35.1327   29.9095   49.7951 N   0  0  0  0  0  0  0  0  0  0  0  0
   35.4695   29.3334   50.9549 C   0  0  0  0  0  0  0  0  0  0  0  0
   36.6576   29.5904   51.5250 N   0  0  0  0  0  0  0  0  0  0  0  0
   38.0780   31.9715   49.0168 C   0  0  0  0  0  0  0  0  0  0  0  0
   38.5529   33.1421   49.5646 C   0  0  0  0  0  0  0  0  0  0  0  0
   39.3855   34.0419   48.9413 C   0  0  0  0  0  0  0  0  0  0  0  0
   39.7942   33.7693   47.6542 C   0  0  0  0  0  0  0  0  0  0  0  0
   39.3213   32.6008   47.1048 C   0  0  0  0  0  0  0  0  0  0  0  0
   38.5035   31.7397   47.7481 N   0  0  0  0  0  0  0  0  0  0  0  0
   38.4882   30.6573   51.3715 H   0  0  0  0  0  0  0  0  0  0  0  0
   35.6096   31.2049   48.1901 H   0  0  0  0  0  0  0  0  0  0  0  0
   34.6997   28.6757   51.3410 H   0  0  0  0  0  0  0  0  0  0  0  0
   38.2440   33.3811   50.5826 H   0  0  0  0  0  0  0  0  0  0  0  0
   39.7002   34.9343   49.4645 H   0  0  0  0  0  0  0  0  0  0  0  0
   39.6242   32.3451   46.0771 H   0  0  0  0  0  0  0  0  0  0  0  0
   40.6895   34.6974   46.9300 C   0  0  0  0  0  0  0  0  0  0  0  0
   42.0937   34.9203   47.4523 C   0  0  0  0  0  0  0  0  0  0  0  0
   41.8397   34.1999   46.1714 C   0  0  0  0  0  0  0  0  0  0  0  0
   40.1629   35.6120   46.5790 H   0  0  0  0  0  0  0  0  0  0  0  0
   42.5599   35.9267   47.3596 H   0  0  0  0  0  0  0  0  0  0  0  0
   42.3771   34.3322   48.3489 H   0  0  0  0  0  0  0  0  0  0  0  0
   42.0796   34.6576   45.1968 H   0  0  0  0  0  0  0  0  0  0  0  0
   42.1051   33.1136   46.1963 H   0  0  0  0  0  0  0  0  0  0  0  0
  1  6  2  0
  2  1  1  0
  3  2  2  0
  3  4  1  0
  4  5  2  0
  5  6  1  0
  7  8  2  0
  7  2  1  0
  9  8  1  0
 10  9  2  0
 11 10  1  0
 11 12  2  0
 12  7  1  0
  1 13  1  0
  3 14  1  0
  5 15  1  0
  8 16  1  0
  9 17  1  0
 11 18  1  0
 19 20  1  0
 20 21  1  0
 21 19  1  0
 19 22  1  0
 20 23  1  0
 20 24  1  0
 21 25  1  0
 21 26  1  0
 10 19  1  0
M  ISO  6  13  14  14  14  15  14  16  14  17  14  18  14
M  END
>  <DihAtoms>  (1) 
8,9,18,19

>  <DihDeg>  (1) 
139.36778409675318

$$$$
