
 OpenBabel03272506353D

 13 14  0  0  0  0  0  0  0  0999 V2000
   37.3450   29.9750   51.1450 C   0  0  0  0  0  0  0  0  0  0  0  0
   37.9490   30.9740   50.3540 C   0  0  0  0  0  0  0  0  0  0  0  0
   37.2940   31.3700   49.2000 C   0  0  0  0  0  0  0  0  0  0  0  0
   36.1130   30.7780   48.8900 N   0  0  0  0  0  0  0  0  0  0  0  0
   35.5430   29.8210   49.6580 C   0  0  0  0  0  0  0  0  0  0  0  0
   36.1700   29.4270   50.7840 N   0  0  0  0  0  0  0  0  0  0  0  0
   38.8900   31.4530   50.5890 H   0  0  0  0  0  0  0  0  0  0  0  0
   37.6910   32.1320   48.5370 H   0  0  0  0  0  0  0  0  0  0  0  0
   34.2640   29.1980   49.2990 C   0  0  0  0  0  0  0  0  0  0  0  0
   34.3070   27.8120   48.6780 C   0  0  0  0  0  0  0  0  0  0  0  0
   33.8730   29.0120   47.8810 C   0  0  0  0  0  0  0  0  0  0  0  0
   38.0980   29.6740   52.2640 O   0  0  0  0  0  0  0  0  0  0  0  0
   37.6190   29.2050   53.0410 H   0  0  0  0  0  0  0  0  0  0  0  0
  1 12  1  0  0  0  0
  2  7  1  0  0  0  0
  2  1  2  0  0  0  0
  3  2  1  0  0  0  0
  4  3  2  0  0  0  0
  4  5  1  0  0  0  0
  5  6  2  0  0  0  0
  6  1  1  0  0  0  0
  8  3  1  0  0  0  0
  9  5  1  0  0  0  0
 10  9  1  0  0  0  0
 11 10  1  0  0  0  0
 11  9  1  0  0  0  0
 12 13  1  0  0  0  0
M  END
>  <minimizedAffinity>
-4.21965408

>  <minimizedRMSD>
0.348437816

$$$$
