
 OpenBabel03272510223D

 30 33  0  0  0  0  0  0  0  0999 V2000
   35.1600   30.4840   31.6920 Br  0  0  0  0  0  0  0  0  0  0  0  0
   36.0960   29.0810   32.5770 C   0  0  0  0  0  0  0  0  0  0  0  0
   36.0180   28.9310   33.9590 C   0  0  0  0  0  0  0  0  0  0  0  0
   36.7200   27.8960   34.5250 C   0  0  0  0  0  0  0  0  0  0  0  0
   37.4870   27.0090   33.8060 C   0  0  0  0  0  0  0  0  0  0  0  0
   37.5450   27.1820   32.4440 C   0  0  0  0  0  0  0  0  0  0  0  0
   36.8550   28.2060   31.8530 C   0  0  0  0  0  0  0  0  0  0  0  0
   36.6540   27.7870   35.6000 H   0  0  0  0  0  0  0  0  0  0  0  0
   38.1370   26.5060   31.8390 H   0  0  0  0  0  0  0  0  0  0  0  0
   36.9200   28.3160   30.7790 H   0  0  0  0  0  0  0  0  0  0  0  0
   35.1990   31.7190   36.1720 C   0  0  0  0  0  0  0  0  0  0  0  0
   33.7810   31.6300   36.3010 C   0  0  0  0  0  0  0  0  0  0  0  0
   33.1400   30.6100   35.6220 C   0  0  0  0  0  0  0  0  0  0  0  0
   33.8680   29.7300   34.8590 N   0  0  0  0  0  0  0  0  0  0  0  0
   35.2150   29.8490   34.7630 C   0  0  0  0  0  0  0  0  0  0  0  0
   35.8720   30.8420   35.4190 N   0  0  0  0  0  0  0  0  0  0  0  0
   35.7690   32.4840   36.6690 H   0  0  0  0  0  0  0  0  0  0  0  0
   33.2790   32.3450   36.9090 H   0  0  0  0  0  0  0  0  0  0  0  0
   32.0850   30.5020   35.6860 H   0  0  0  0  0  0  0  0  0  0  0  0
   38.2320   25.9110   34.4090 C   0  0  0  0  0  0  0  0  0  0  0  0
   39.3870   25.3700   33.8990 C   0  0  0  0  0  0  0  0  0  0  0  0
   40.0620   24.3240   34.5090 C   0  0  0  0  0  0  0  0  0  0  0  0
   39.5770   23.8120   35.6400 N   0  0  0  0  0  0  0  0  0  0  0  0
   38.4370   24.3330   36.1600 C   0  0  0  0  0  0  0  0  0  0  0  0
   37.8120   25.3360   35.5520 N   0  0  0  0  0  0  0  0  0  0  0  0
   39.7820   25.7890   32.9730 H   0  0  0  0  0  0  0  0  0  0  0  0
   40.9680   23.9750   34.0130 H   0  0  0  0  0  0  0  0  0  0  0  0
   37.8660   23.7840   37.4270 C   0  0  0  0  0  3  0  0  0  0  0  0
   37.8760   24.6150   38.6590 C   0  0  0  0  0  2  0  0  0  0  0  0
   38.7650   23.4280   38.5700 C   0  0  0  0  0  2  0  0  0  0  0  0
  1  2  1  0  0  0  0
  2  3  1  0  0  0  0
  3  4  2  0  0  0  0
  3 15  1  0  0  0  0
  4  8  1  0  0  0  0
  5 20  1  0  0  0  0
  5  4  1  0  0  0  0
  6  5  2  0  0  0  0
  7  6  1  0  0  0  0
  7  2  2  0  0  0  0
  9  6  1  0  0  0  0
 10  7  1  0  0  0  0
 11 12  1  0  0  0  0
 11 17  1  0  0  0  0
 12 18  1  0  0  0  0
 13 19  1  0  0  0  0
 13 12  2  0  0  0  0
 14 13  1  0  0  0  0
 15 14  2  0  0  0  0
 15 16  1  0  0  0  0
 16 11  2  0  0  0  0
 20 25  1  0  0  0  0
 21 20  2  0  0  0  0
 21 22  1  0  0  0  0
 22 23  2  0  0  0  0
 23 24  1  0  0  0  0
 24 28  1  0  0  0  0
 25 24  2  0  0  0  0
 26 21  1  0  0  0  0
 27 22  1  0  0  0  0
 28 30  1  0  0  0  0
 28 29  1  0  0  0  0
 30 29  1  0  0  0  0
M  END
>  <minimizedAffinity>
-6.01953697

$$$$

 OpenBabel03272510223D

 30 33  0  0  0  0  0  0  0  0999 V2000
   35.2810   31.7930   32.1340 Br  0  0  0  0  0  0  0  0  0  0  0  0
   35.8810   30.0620   32.6550 C   0  0  0  0  0  0  0  0  0  0  0  0
   35.7300   29.6170   33.9650 C   0  0  0  0  0  0  0  0  0  0  0  0
   36.1880   28.3580   34.2650 C   0  0  0  0  0  0  0  0  0  0  0  0
   36.7820   27.5230   33.3480 C   0  0  0  0  0  0  0  0  0  0  0  0
   36.9180   27.9890   32.0630 C   0  0  0  0  0  0  0  0  0  0  0  0
   36.4710   29.2400   31.7360 C   0  0  0  0  0  0  0  0  0  0  0  0
   36.0650   28.0210   35.2860 H   0  0  0  0  0  0  0  0  0  0  0  0
   37.3810   27.3640   31.3080 H   0  0  0  0  0  0  0  0  0  0  0  0
   36.5920   29.5790   30.7160 H   0  0  0  0  0  0  0  0  0  0  0  0
   33.1170   31.1230   36.0270 C   0  0  0  0  0  0  0  0  0  0  0  0
   33.8360   32.0410   36.8490 C   0  0  0  0  0  0  0  0  0  0  0  0
   35.2060   32.1200   36.6730 C   0  0  0  0  0  0  0  0  0  0  0  0
   35.8230   31.3300   35.7340 N   0  0  0  0  0  0  0  0  0  0  0  0
   35.1040   30.4710   34.9730 C   0  0  0  0  0  0  0  0  0  0  0  0
   33.7560   30.3720   35.1240 N   0  0  0  0  0  0  0  0  0  0  0  0
   32.0510   31.0040   36.1040 H   0  0  0  0  0  0  0  0  0  0  0  0
   33.2950   32.6220   37.5580 H   0  0  0  0  0  0  0  0  0  0  0  0
   35.7860   32.7870   37.2610 H   0  0  0  0  0  0  0  0  0  0  0  0
   37.2670   26.1870   33.6680 C   0  0  0  0  0  0  0  0  0  0  0  0
   37.3150   25.1350   32.7860 C   0  0  0  0  0  0  0  0  0  0  0  0
   37.7860   23.8780   33.1370 C   0  0  0  0  0  0  0  0  0  0  0  0
   38.2140   23.6710   34.3820 N   0  0  0  0  0  0  0  0  0  0  0  0
   38.1760   24.6990   35.2680 C   0  0  0  0  0  0  0  0  0  0  0  0
   37.7180   25.8920   34.9030 N   0  0  0  0  0  0  0  0  0  0  0  0
   36.9640   25.3050   31.7680 H   0  0  0  0  0  0  0  0  0  0  0  0
   37.7760   23.1200   32.3540 H   0  0  0  0  0  0  0  0  0  0  0  0
   38.6480   24.5020   36.6720 C   0  0  0  0  0  3  0  0  0  0  0  0
   38.8490   23.1250   37.1940 C   0  0  0  0  0  2  0  0  0  0  0  0
   37.7230   23.9460   37.7110 C   0  0  0  0  0  2  0  0  0  0  0  0
  1  2  1  0  0  0  0
  2  3  1  0  0  0  0
  3  4  2  0  0  0  0
  3 15  1  0  0  0  0
  4  8  1  0  0  0  0
  5 20  1  0  0  0  0
  5  4  1  0  0  0  0
  6  5  2  0  0  0  0
  7  6  1  0  0  0  0
  7  2  2  0  0  0  0
  9  6  1  0  0  0  0
 10  7  1  0  0  0  0
 11 17  1  0  0  0  0
 11 12  1  0  0  0  0
 12 18  1  0  0  0  0
 13 12  2  0  0  0  0
 13 19  1  0  0  0  0
 14 13  1  0  0  0  0
 15 16  1  0  0  0  0
 15 14  2  0  0  0  0
 16 11  2  0  0  0  0
 20 25  1  0  0  0  0
 21 22  1  0  0  0  0
 21 20  2  0  0  0  0
 22 23  2  0  0  0  0
 23 24  1  0  0  0  0
 24 28  1  0  0  0  0
 25 24  2  0  0  0  0
 26 21  1  0  0  0  0
 27 22  1  0  0  0  0
 28 29  1  0  0  0  0
 28 30  1  0  0  0  0
 29 30  1  0  0  0  0
M  END
>  <minimizedAffinity>
-5.76140022

$$$$

 OpenBabel03272510223D

 30 33  0  0  0  0  0  0  0  0999 V2000
   37.2130   28.7280   29.6260 Br  0  0  0  0  0  0  0  0  0  0  0  0
   36.4810   29.3350   31.2760 C   0  0  0  0  0  0  0  0  0  0  0  0
   36.0570   28.4300   32.2460 C   0  0  0  0  0  0  0  0  0  0  0  0
   35.5410   28.9430   33.4100 C   0  0  0  0  0  0  0  0  0  0  0  0
   35.4210   30.2900   33.6640 C   0  0  0  0  0  0  0  0  0  0  0  0
   35.8480   31.1590   32.6890 C   0  0  0  0  0  0  0  0  0  0  0  0
   36.3670   30.6740   31.5190 C   0  0  0  0  0  0  0  0  0  0  0  0
   35.2140   28.2320   34.1580 H   0  0  0  0  0  0  0  0  0  0  0  0
   35.7720   32.2270   32.8480 H   0  0  0  0  0  0  0  0  0  0  0  0
   36.6940   31.3830   30.7710 H   0  0  0  0  0  0  0  0  0  0  0  0
   37.3880   25.0320   32.4090 C   0  0  0  0  0  0  0  0  0  0  0  0
   36.4510   24.2760   31.6430 C   0  0  0  0  0  0  0  0  0  0  0  0
   35.3830   24.9550   31.0870 C   0  0  0  0  0  0  0  0  0  0  0  0
   35.2540   26.3090   31.2830 N   0  0  0  0  0  0  0  0  0  0  0  0
   36.1660   26.9910   32.0180 C   0  0  0  0  0  0  0  0  0  0  0  0
   37.2260   26.3490   32.5760 N   0  0  0  0  0  0  0  0  0  0  0  0
   38.2440   24.5760   32.8730 H   0  0  0  0  0  0  0  0  0  0  0  0
   36.6120   23.2290   31.5310 H   0  0  0  0  0  0  0  0  0  0  0  0
   34.6580   24.4370   30.5090 H   0  0  0  0  0  0  0  0  0  0  0  0
   34.8720   30.8320   34.9000 C   0  0  0  0  0  0  0  0  0  0  0  0
   35.5300   31.6980   35.7400 C   0  0  0  0  0  0  0  0  0  0  0  0
   34.9670   32.1890   36.9080 C   0  0  0  0  0  0  0  0  0  0  0  0
   33.7330   31.8110   37.2410 N   0  0  0  0  0  0  0  0  0  0  0  0
   33.0660   30.9560   36.4240 C   0  0  0  0  0  0  0  0  0  0  0  0
   33.6330   30.5020   35.3100 N   0  0  0  0  0  0  0  0  0  0  0  0
   36.5400   32.0060   35.4670 H   0  0  0  0  0  0  0  0  0  0  0  0
   35.5830   32.8690   37.4960 H   0  0  0  0  0  0  0  0  0  0  0  0
   31.6800   30.5120   36.7660 C   0  0  0  0  0  3  0  0  0  0  0  0
   30.7820   30.0130   35.6930 C   0  0  0  0  0  2  0  0  0  0  0  0
   30.4980   31.3230   36.3350 C   0  0  0  0  0  2  0  0  0  0  0  0
  1  2  1  0  0  0  0
  2  7  2  0  0  0  0
  2  3  1  0  0  0  0
  3  4  2  0  0  0  0
  4  5  1  0  0  0  0
  4  8  1  0  0  0  0
  5 20  1  0  0  0  0
  6  9  1  0  0  0  0
  6  5  2  0  0  0  0
  7  6  1  0  0  0  0
 10  7  1  0  0  0  0
 11 16  1  0  0  0  0
 11 17  1  0  0  0  0
 12 11  2  0  0  0  0
 13 14  2  0  0  0  0
 13 12  1  0  0  0  0
 14 15  1  0  0  0  0
 15  3  1  0  0  0  0
 15 16  2  0  0  0  0
 18 12  1  0  0  0  0
 19 13  1  0  0  0  0
 20 25  2  0  0  0  0
 20 21  1  0  0  0  0
 21 22  2  0  0  0  0
 22 23  1  0  0  0  0
 22 27  1  0  0  0  0
 24 28  1  0  0  0  0
 24 23  2  0  0  0  0
 25 24  1  0  0  0  0
 26 21  1  0  0  0  0
 29 30  1  0  0  0  0
 29 28  1  0  0  0  0
 30 28  1  0  0  0  0
M  END
>  <minimizedAffinity>
-5.60066652

$$$$

 OpenBabel03272510223D

 30 33  0  0  0  0  0  0  0  0999 V2000
   35.0220   32.1670   32.3820 Br  0  0  0  0  0  0  0  0  0  0  0  0
   35.6760   30.4250   32.7920 C   0  0  0  0  0  0  0  0  0  0  0  0
   35.5160   29.8820   34.0630 C   0  0  0  0  0  0  0  0  0  0  0  0
   36.0150   28.6210   34.2820 C   0  0  0  0  0  0  0  0  0  0  0  0
   36.6580   27.8770   33.3210 C   0  0  0  0  0  0  0  0  0  0  0  0
   36.8020   28.4390   32.0750 C   0  0  0  0  0  0  0  0  0  0  0  0
   36.3140   29.6940   31.8300 C   0  0  0  0  0  0  0  0  0  0  0  0
   35.8850   28.2070   35.2730 H   0  0  0  0  0  0  0  0  0  0  0  0
   37.3020   27.8880   31.2890 H   0  0  0  0  0  0  0  0  0  0  0  0
   36.4420   30.1100   30.8390 H   0  0  0  0  0  0  0  0  0  0  0  0
   35.0520   32.1600   36.8800 C   0  0  0  0  0  0  0  0  0  0  0  0
   33.6470   32.1010   37.1220 C   0  0  0  0  0  0  0  0  0  0  0  0
   32.8920   31.2770   36.3080 C   0  0  0  0  0  0  0  0  0  0  0  0
   33.5000   30.5530   35.3110 N   0  0  0  0  0  0  0  0  0  0  0  0
   34.8390   30.6370   35.1140 C   0  0  0  0  0  0  0  0  0  0  0  0
   35.6060   31.4400   35.8990 N   0  0  0  0  0  0  0  0  0  0  0  0
   35.7060   32.7770   37.4710 H   0  0  0  0  0  0  0  0  0  0  0  0
   33.2410   32.6880   37.9120 H   0  0  0  0  0  0  0  0  0  0  0  0
   31.8420   31.1990   36.4470 H   0  0  0  0  0  0  0  0  0  0  0  0
   37.1870   26.5400   33.5550 C   0  0  0  0  0  0  0  0  0  0  0  0
   37.9610   26.1770   34.6300 C   0  0  0  0  0  0  0  0  0  0  0  0
   38.4430   24.8900   34.8120 C   0  0  0  0  0  0  0  0  0  0  0  0
   38.1480   23.9540   33.9100 N   0  0  0  0  0  0  0  0  0  0  0  0
   37.3830   24.2920   32.8410 C   0  0  0  0  0  0  0  0  0  0  0  0
   36.9360   25.5350   32.6930 N   0  0  0  0  0  0  0  0  0  0  0  0
   38.2020   26.9430   35.3680 H   0  0  0  0  0  0  0  0  0  0  0  0
   39.0480   24.7180   35.7020 H   0  0  0  0  0  0  0  0  0  0  0  0
   37.0330   23.2680   31.8100 C   0  0  0  0  0  3  0  0  0  0  0  0
   35.7090   23.3240   31.1390 C   0  0  0  0  0  2  0  0  0  0  0  0
   35.9970   22.2270   32.0990 C   0  0  0  0  0  2  0  0  0  0  0  0
  1  2  1  0  0  0  0
  2  3  1  0  0  0  0
  3  4  2  0  0  0  0
  3 15  1  0  0  0  0
  4  8  1  0  0  0  0
  5 20  1  0  0  0  0
  5  4  1  0  0  0  0
  6  5  2  0  0  0  0
  7  6  1  0  0  0  0
  7  2  2  0  0  0  0
  9  6  1  0  0  0  0
 10  7  1  0  0  0  0
 11 12  1  0  0  0  0
 11 17  1  0  0  0  0
 12 18  1  0  0  0  0
 13 19  1  0  0  0  0
 13 12  2  0  0  0  0
 14 13  1  0  0  0  0
 15 14  2  0  0  0  0
 15 16  1  0  0  0  0
 16 11  2  0  0  0  0
 20 21  1  0  0  0  0
 21 22  2  0  0  0  0
 21 26  1  0  0  0  0
 22 27  1  0  0  0  0
 23 22  1  0  0  0  0
 24 23  2  0  0  0  0
 25 24  1  0  0  0  0
 25 20  2  0  0  0  0
 28 30  1  0  0  0  0
 28 24  1  0  0  0  0
 29 28  1  0  0  0  0
 29 30  1  0  0  0  0
M  END
>  <minimizedAffinity>
-5.58339691

$$$$

 OpenBabel03272510223D

 30 33  0  0  0  0  0  0  0  0999 V2000
   38.5710   27.0130   30.8880 Br  0  0  0  0  0  0  0  0  0  0  0  0
   37.3700   27.8700   32.0930 C   0  0  0  0  0  0  0  0  0  0  0  0
   37.3920   27.5760   33.4540 C   0  0  0  0  0  0  0  0  0  0  0  0
   36.4960   28.2350   34.2590 C   0  0  0  0  0  0  0  0  0  0  0  0
   35.5890   29.1590   33.7970 C   0  0  0  0  0  0  0  0  0  0  0  0
   35.5900   29.4290   32.4490 C   0  0  0  0  0  0  0  0  0  0  0  0
   36.4730   28.7870   31.6230 C   0  0  0  0  0  0  0  0  0  0  0  0
   36.5200   28.0000   35.3160 H   0  0  0  0  0  0  0  0  0  0  0  0
   34.8920   30.1500   32.0430 H   0  0  0  0  0  0  0  0  0  0  0  0
   36.4500   29.0210   30.5680 H   0  0  0  0  0  0  0  0  0  0  0  0
   40.4780   26.2240   34.8640 C   0  0  0  0  0  0  0  0  0  0  0  0
   40.1900   24.8350   35.0110 C   0  0  0  0  0  0  0  0  0  0  0  0
   38.9390   24.3950   34.6200 C   0  0  0  0  0  0  0  0  0  0  0  0
   38.0260   25.2880   34.1130 N   0  0  0  0  0  0  0  0  0  0  0  0
   38.3390   26.6010   33.9890 C   0  0  0  0  0  0  0  0  0  0  0  0
   39.5620   27.0610   34.3650 N   0  0  0  0  0  0  0  0  0  0  0  0
   41.4290   26.6420   35.1450 H   0  0  0  0  0  0  0  0  0  0  0  0
   40.9440   24.1980   35.4120 H   0  0  0  0  0  0  0  0  0  0  0  0
   38.6760   23.3700   34.7100 H   0  0  0  0  0  0  0  0  0  0  0  0
   34.6380   29.8560   34.6530 C   0  0  0  0  0  0  0  0  0  0  0  0
   33.3000   29.5620   34.7460 C   0  0  0  0  0  0  0  0  0  0  0  0
   32.4320   30.2540   35.5770 C   0  0  0  0  0  0  0  0  0  0  0  0
   32.9070   31.2520   36.3230 N   0  0  0  0  0  0  0  0  0  0  0  0
   34.2270   31.5580   36.2450 C   0  0  0  0  0  0  0  0  0  0  0  0
   35.0340   30.8760   35.4390 N   0  0  0  0  0  0  0  0  0  0  0  0
   32.9120   28.7460   34.1350 H   0  0  0  0  0  0  0  0  0  0  0  0
   31.3900   29.9330   35.5680 H   0  0  0  0  0  0  0  0  0  0  0  0
   34.7930   32.6700   37.0680 C   0  0  0  0  0  3  0  0  0  0  0  0
   33.8840   33.6930   37.6470 C   0  0  0  0  0  2  0  0  0  0  0  0
   34.8010   34.0720   36.5410 C   0  0  0  0  0  2  0  0  0  0  0  0
  1  2  1  0  0  0  0
  2  3  1  0  0  0  0
  3 15  1  0  0  0  0
  3  4  2  0  0  0  0
  4  8  1  0  0  0  0
  5  4  1  0  0  0  0
  5 20  1  0  0  0  0
  6  5  2  0  0  0  0
  7  2  2  0  0  0  0
  7  6  1  0  0  0  0
  9  6  1  0  0  0  0
 10  7  1  0  0  0  0
 11 12  1  0  0  0  0
 11 17  1  0  0  0  0
 12 18  1  0  0  0  0
 13 19  1  0  0  0  0
 13 12  2  0  0  0  0
 14 13  1  0  0  0  0
 15 14  2  0  0  0  0
 15 16  1  0  0  0  0
 16 11  2  0  0  0  0
 20 21  2  0  0  0  0
 20 25  1  0  0  0  0
 21 22  1  0  0  0  0
 22 23  2  0  0  0  0
 24 23  1  0  0  0  0
 24 28  1  0  0  0  0
 25 24  2  0  0  0  0
 26 21  1  0  0  0  0
 27 22  1  0  0  0  0
 28 29  1  0  0  0  0
 30 28  1  0  0  0  0
 30 29  1  0  0  0  0
M  END
>  <minimizedAffinity>
-5.29973316

$$$$

 OpenBabel03272510223D

 30 33  0  0  0  0  0  0  0  0999 V2000
   39.0740   27.5310   30.7170 Br  0  0  0  0  0  0  0  0  0  0  0  0
   38.2040   25.8510   30.9380 C   0  0  0  0  0  0  0  0  0  0  0  0
   37.0750   25.7310   31.7420 C   0  0  0  0  0  0  0  0  0  0  0  0
   36.5030   24.4870   31.8520 C   0  0  0  0  0  0  0  0  0  0  0  0
   36.9850   23.3670   31.2160 C   0  0  0  0  0  0  0  0  0  0  0  0
   38.1010   23.5150   30.4290 C   0  0  0  0  0  0  0  0  0  0  0  0
   38.6910   24.7440   30.3020 C   0  0  0  0  0  0  0  0  0  0  0  0
   35.6250   24.4040   32.4790 H   0  0  0  0  0  0  0  0  0  0  0  0
   38.5140   22.6590   29.9100 H   0  0  0  0  0  0  0  0  0  0  0  0
   39.5680   24.8290   29.6750 H   0  0  0  0  0  0  0  0  0  0  0  0
   36.5030   28.1720   34.3990 C   0  0  0  0  0  0  0  0  0  0  0  0
   35.5550   29.0680   33.8220 C   0  0  0  0  0  0  0  0  0  0  0  0
   35.1340   28.8100   32.5300 C   0  0  0  0  0  0  0  0  0  0  0  0
   35.6290   27.7230   31.8520 N   0  0  0  0  0  0  0  0  0  0  0  0
   36.5290   26.8950   32.4360 C   0  0  0  0  0  0  0  0  0  0  0  0
   36.9600   27.1240   33.7040 N   0  0  0  0  0  0  0  0  0  0  0  0
   36.8780   28.3060   35.3980 H   0  0  0  0  0  0  0  0  0  0  0  0
   35.2130   29.8920   34.4040 H   0  0  0  0  0  0  0  0  0  0  0  0
   34.4300   29.4480   32.0560 H   0  0  0  0  0  0  0  0  0  0  0  0
   36.3770   22.0480   31.3340 C   0  0  0  0  0  0  0  0  0  0  0  0
   35.3140   21.7410   32.1480 C   0  0  0  0  0  0  0  0  0  0  0  0
   34.7680   20.4690   32.2280 C   0  0  0  0  0  0  0  0  0  0  0  0
   35.2900   19.4920   31.4870 N   0  0  0  0  0  0  0  0  0  0  0  0
   36.3410   19.7750   30.6760 C   0  0  0  0  0  0  0  0  0  0  0  0
   36.8430   21.0040   30.6210 N   0  0  0  0  0  0  0  0  0  0  0  0
   34.8880   22.5410   32.7540 H   0  0  0  0  0  0  0  0  0  0  0  0
   33.9260   20.3430   32.9090 H   0  0  0  0  0  0  0  0  0  0  0  0
   36.9510   18.7030   29.8310 C   0  0  0  0  0  3  0  0  0  0  0  0
   37.9510   19.0660   28.7930 C   0  0  0  0  0  2  0  0  0  0  0  0
   36.6040   18.5960   28.3780 C   0  0  0  0  0  2  0  0  0  0  0  0
  1  2  1  0  0  0  0
  2  3  1  0  0  0  0
  3  4  2  0  0  0  0
  3 15  1  0  0  0  0
  4  8  1  0  0  0  0
  5 20  1  0  0  0  0
  5  4  1  0  0  0  0
  6  5  2  0  0  0  0
  7  6  1  0  0  0  0
  7  2  2  0  0  0  0
  9  6  1  0  0  0  0
 10  7  1  0  0  0  0
 11 17  1  0  0  0  0
 12 11  1  0  0  0  0
 12 18  1  0  0  0  0
 13 12  2  0  0  0  0
 14 15  2  0  0  0  0
 14 13  1  0  0  0  0
 15 16  1  0  0  0  0
 16 11  2  0  0  0  0
 19 13  1  0  0  0  0
 20 21  1  0  0  0  0
 21 22  2  0  0  0  0
 21 26  1  0  0  0  0
 22 27  1  0  0  0  0
 23 22  1  0  0  0  0
 24 23  2  0  0  0  0
 25 24  1  0  0  0  0
 25 20  2  0  0  0  0
 28 24  1  0  0  0  0
 29 28  1  0  0  0  0
 30 29  1  0  0  0  0
 30 28  1  0  0  0  0
M  END
>  <minimizedAffinity>
-5.29426813

$$$$

 OpenBabel03272510223D

 30 33  0  0  0  0  0  0  0  0999 V2000
   37.5730   27.1210   30.8900 Br  0  0  0  0  0  0  0  0  0  0  0  0
   36.7850   28.1630   32.2760 C   0  0  0  0  0  0  0  0  0  0  0  0
   37.0440   27.8840   33.6150 C   0  0  0  0  0  0  0  0  0  0  0  0
   36.4400   28.6790   34.5570 C   0  0  0  0  0  0  0  0  0  0  0  0
   35.6000   29.7240   34.2500 C   0  0  0  0  0  0  0  0  0  0  0  0
   35.3630   29.9760   32.9200 C   0  0  0  0  0  0  0  0  0  0  0  0
   35.9530   29.1990   31.9600 C   0  0  0  0  0  0  0  0  0  0  0  0
   36.6470   28.4540   35.5960 H   0  0  0  0  0  0  0  0  0  0  0  0
   34.7080   30.7890   32.6340 H   0  0  0  0  0  0  0  0  0  0  0  0
   35.7470   29.4220   30.9220 H   0  0  0  0  0  0  0  0  0  0  0  0
   40.0830   26.1370   34.6430 C   0  0  0  0  0  0  0  0  0  0  0  0
   39.6720   24.7720   34.7030 C   0  0  0  0  0  0  0  0  0  0  0  0
   38.3570   24.4850   34.3870 C   0  0  0  0  0  0  0  0  0  0  0  0
   37.5000   25.4990   34.0320 N   0  0  0  0  0  0  0  0  0  0  0  0
   37.9300   26.7830   33.9880 C   0  0  0  0  0  0  0  0  0  0  0  0
   39.2170   27.0940   34.2930 N   0  0  0  0  0  0  0  0  0  0  0  0
   41.0890   26.4390   34.8740 H   0  0  0  0  0  0  0  0  0  0  0  0
   40.3880   24.0360   34.9850 H   0  0  0  0  0  0  0  0  0  0  0  0
   38.0020   23.4840   34.4170 H   0  0  0  0  0  0  0  0  0  0  0  0
   34.9590   30.5660   35.2510 C   0  0  0  0  0  0  0  0  0  0  0  0
   35.5920   31.5470   35.9760 C   0  0  0  0  0  0  0  0  0  0  0  0
   34.9390   32.3250   36.9210 C   0  0  0  0  0  0  0  0  0  0  0  0
   33.6410   32.1200   37.1440 N   0  0  0  0  0  0  0  0  0  0  0  0
   32.9980   31.1560   36.4380 C   0  0  0  0  0  0  0  0  0  0  0  0
   33.6510   30.4260   35.5380 N   0  0  0  0  0  0  0  0  0  0  0  0
   36.6530   31.7130   35.7930 H   0  0  0  0  0  0  0  0  0  0  0  0
   35.5430   33.0730   37.4360 H   0  0  0  0  0  0  0  0  0  0  0  0
   31.5430   30.9000   36.6620 C   0  0  0  0  0  3  0  0  0  0  0  0
   30.7670   30.1320   35.6540 C   0  0  0  0  0  2  0  0  0  0  0  0
   30.5150   31.5880   35.8180 C   0  0  0  0  0  2  0  0  0  0  0  0
  1  2  1  0  0  0  0
  2  3  1  0  0  0  0
  3 15  1  0  0  0  0
  3  4  2  0  0  0  0
  4  8  1  0  0  0  0
  5  4  1  0  0  0  0
  5 20  1  0  0  0  0
  6  5  2  0  0  0  0
  7  2  2  0  0  0  0
  7  6  1  0  0  0  0
  9  6  1  0  0  0  0
 10  7  1  0  0  0  0
 11 12  1  0  0  0  0
 11 17  1  0  0  0  0
 12 18  1  0  0  0  0
 13 19  1  0  0  0  0
 13 12  2  0  0  0  0
 14 13  1  0  0  0  0
 15 14  2  0  0  0  0
 15 16  1  0  0  0  0
 16 11  2  0  0  0  0
 20 25  2  0  0  0  0
 20 21  1  0  0  0  0
 21 22  2  0  0  0  0
 22 23  1  0  0  0  0
 22 27  1  0  0  0  0
 24 28  1  0  0  0  0
 24 23  2  0  0  0  0
 25 24  1  0  0  0  0
 26 21  1  0  0  0  0
 29 30  1  0  0  0  0
 29 28  1  0  0  0  0
 30 28  1  0  0  0  0
M  END
>  <minimizedAffinity>
-5.17146444

$$$$

 OpenBabel03272510223D

 30 33  0  0  0  0  0  0  0  0999 V2000
   37.0300   28.8350   31.2420 Br  0  0  0  0  0  0  0  0  0  0  0  0
   37.5370   27.5920   32.5940 C   0  0  0  0  0  0  0  0  0  0  0  0
   38.6350   26.7540   32.4200 C   0  0  0  0  0  0  0  0  0  0  0  0
   38.9380   25.8860   33.4390 C   0  0  0  0  0  0  0  0  0  0  0  0
   38.2210   25.8020   34.6100 C   0  0  0  0  0  0  0  0  0  0  0  0
   37.1420   26.6410   34.7530 C   0  0  0  0  0  0  0  0  0  0  0  0
   36.8180   27.5170   33.7530 C   0  0  0  0  0  0  0  0  0  0  0  0
   39.7940   25.2390   33.2950 H   0  0  0  0  0  0  0  0  0  0  0  0
   36.5500   26.6070   35.6590 H   0  0  0  0  0  0  0  0  0  0  0  0
   35.9630   28.1650   33.8960 H   0  0  0  0  0  0  0  0  0  0  0  0
   39.7620   25.9570   29.0380 C   0  0  0  0  0  0  0  0  0  0  0  0
   40.8590   26.8460   28.8400 C   0  0  0  0  0  0  0  0  0  0  0  0
   41.1860   27.7010   29.8770 C   0  0  0  0  0  0  0  0  0  0  0  0
   40.4610   27.6710   31.0440 N   0  0  0  0  0  0  0  0  0  0  0  0
   39.4250   26.8100   31.1920 C   0  0  0  0  0  0  0  0  0  0  0  0
   39.0820   25.9590   30.1900 N   0  0  0  0  0  0  0  0  0  0  0  0
   39.4470   25.2620   28.2790 H   0  0  0  0  0  0  0  0  0  0  0  0
   41.3780   26.8160   27.9100 H   0  0  0  0  0  0  0  0  0  0  0  0
   41.9940   28.3830   29.7780 H   0  0  0  0  0  0  0  0  0  0  0  0
   38.5440   24.8790   35.6900 C   0  0  0  0  0  0  0  0  0  0  0  0
   37.9030   24.8330   36.9040 C   0  0  0  0  0  0  0  0  0  0  0  0
   38.2460   23.9350   37.9040 C   0  0  0  0  0  0  0  0  0  0  0  0
   39.2410   23.0750   37.6880 N   0  0  0  0  0  0  0  0  0  0  0  0
   39.8860   23.1040   36.4950 C   0  0  0  0  0  0  0  0  0  0  0  0
   39.5350   23.9760   35.5550 N   0  0  0  0  0  0  0  0  0  0  0  0
   37.0910   25.5380   37.0790 H   0  0  0  0  0  0  0  0  0  0  0  0
   37.6690   23.9920   38.8270 H   0  0  0  0  0  0  0  0  0  0  0  0
   41.0060   22.1520   36.2190 C   0  0  0  0  0  3  0  0  0  0  0  0
   41.6590   21.4390   37.3470 C   0  0  0  0  0  2  0  0  0  0  0  0
   42.4070   22.4970   36.6190 C   0  0  0  0  0  2  0  0  0  0  0  0
  1  2  1  0  0  0  0
  2  7  1  0  0  0  0
  3  2  2  0  0  0  0
  3  4  1  0  0  0  0
  4  5  2  0  0  0  0
  5  6  1  0  0  0  0
  5 20  1  0  0  0  0
  6  9  1  0  0  0  0
  7 10  1  0  0  0  0
  7  6  2  0  0  0  0
  8  4  1  0  0  0  0
 11 16  1  0  0  0  0
 12 11  2  0  0  0  0
 12 13  1  0  0  0  0
 13 14  2  0  0  0  0
 14 15  1  0  0  0  0
 15  3  1  0  0  0  0
 16 15  2  0  0  0  0
 17 11  1  0  0  0  0
 18 12  1  0  0  0  0
 19 13  1  0  0  0  0
 20 21  1  0  0  0  0
 21 26  1  0  0  0  0
 21 22  2  0  0  0  0
 22 27  1  0  0  0  0
 23 22  1  0  0  0  0
 24 23  2  0  0  0  0
 25 20  2  0  0  0  0
 25 24  1  0  0  0  0
 28 24  1  0  0  0  0
 28 30  1  0  0  0  0
 28 29  1  0  0  0  0
 30 29  1  0  0  0  0
M  END
>  <minimizedAffinity>
-5.15826988

$$$$

 OpenBabel03272510223D

 30 33  0  0  0  0  0  0  0  0999 V2000
   39.4840   23.0440   36.4450 Br  0  0  0  0  0  0  0  0  0  0  0  0
   38.6410   24.5110   35.5680 C   0  0  0  0  0  0  0  0  0  0  0  0
   38.1920   24.3960   34.2560 C   0  0  0  0  0  0  0  0  0  0  0  0
   37.5940   25.4960   33.6910 C   0  0  0  0  0  0  0  0  0  0  0  0
   37.4180   26.6910   34.3490 C   0  0  0  0  0  0  0  0  0  0  0  0
   37.8710   26.7750   35.6430 C   0  0  0  0  0  0  0  0  0  0  0  0
   38.4710   25.6940   36.2310 C   0  0  0  0  0  0  0  0  0  0  0  0
   37.2490   25.3980   32.6700 H   0  0  0  0  0  0  0  0  0  0  0  0
   37.7530   27.6970   36.1980 H   0  0  0  0  0  0  0  0  0  0  0  0
   38.8170   25.7900   37.2510 H   0  0  0  0  0  0  0  0  0  0  0  0
   37.4140   21.0910   32.9090 C   0  0  0  0  0  0  0  0  0  0  0  0
   38.5810   20.7600   32.1590 C   0  0  0  0  0  0  0  0  0  0  0  0
   39.6110   21.6830   32.1350 C   0  0  0  0  0  0  0  0  0  0  0  0
   39.4840   22.8680   32.8180 N   0  0  0  0  0  0  0  0  0  0  0  0
   38.3580   23.1450   33.5190 C   0  0  0  0  0  0  0  0  0  0  0  0
   37.3310   22.2560   33.5600 N   0  0  0  0  0  0  0  0  0  0  0  0
   36.5720   20.4260   32.9760 H   0  0  0  0  0  0  0  0  0  0  0  0
   38.6130   19.8230   31.6530 H   0  0  0  0  0  0  0  0  0  0  0  0
   40.5000   21.4830   31.5900 H   0  0  0  0  0  0  0  0  0  0  0  0
   36.7840   27.8570   33.7480 C   0  0  0  0  0  0  0  0  0  0  0  0
   36.7200   28.1110   32.4000 C   0  0  0  0  0  0  0  0  0  0  0  0
   36.1040   29.2360   31.8730 C   0  0  0  0  0  0  0  0  0  0  0  0
   35.5470   30.1180   32.7030 N   0  0  0  0  0  0  0  0  0  0  0  0
   35.6000   29.8860   34.0390 C   0  0  0  0  0  0  0  0  0  0  0  0
   36.1980   28.7980   34.5140 N   0  0  0  0  0  0  0  0  0  0  0  0
   37.1760   27.3890   31.7220 H   0  0  0  0  0  0  0  0  0  0  0  0
   36.1150   29.3330   30.7870 H   0  0  0  0  0  0  0  0  0  0  0  0
   34.9860   30.8540   34.9980 C   0  0  0  0  0  3  0  0  0  0  0  0
   35.2160   32.3110   34.8200 C   0  0  0  0  0  2  0  0  0  0  0  0
   35.8450   31.6060   35.9670 C   0  0  0  0  0  2  0  0  0  0  0  0
  2  7  1  0  0  0  0
  2  1  1  0  0  0  0
  3  2  2  0  0  0  0
  4  3  1  0  0  0  0
  4  5  2  0  0  0  0
  5  6  1  0  0  0  0
  6  9  1  0  0  0  0
  6  7  2  0  0  0  0
  7 10  1  0  0  0  0
  8  4  1  0  0  0  0
 11 17  1  0  0  0  0
 11 16  1  0  0  0  0
 12 11  2  0  0  0  0
 13 12  1  0  0  0  0
 13 14  2  0  0  0  0
 14 15  1  0  0  0  0
 15 16  2  0  0  0  0
 15  3  1  0  0  0  0
 18 12  1  0  0  0  0
 19 13  1  0  0  0  0
 20  5  1  0  0  0  0
 20 25  1  0  0  0  0
 21 20  2  0  0  0  0
 22 21  1  0  0  0  0
 22 23  2  0  0  0  0
 23 24  1  0  0  0  0
 24 25  2  0  0  0  0
 24 28  1  0  0  0  0
 26 21  1  0  0  0  0
 27 22  1  0  0  0  0
 28 30  1  0  0  0  0
 29 28  1  0  0  0  0
 29 30  1  0  0  0  0
M  END
>  <minimizedAffinity>
-5.13273001

$$$$
