
 OpenBabel03272507403D

 28 30  0  0  0  0  0  0  0  0999 V2000
   38.5020   24.0000   35.0610 O   0  0  0  0  0  0  0  0  0  0  0  0
   37.4990   25.7830   33.7070 C   0  0  0  0  0  0  0  0  0  0  0  0
   38.1080   25.3020   34.8360 C   0  0  0  0  0  0  0  0  0  0  0  0
   38.3840   26.1510   35.8920 C   0  0  0  0  0  0  0  0  0  0  0  0
   38.0410   27.4940   35.8040 C   0  0  0  0  0  0  0  0  0  0  0  0
   37.4230   27.9720   34.6540 C   0  0  0  0  0  0  0  0  0  0  0  0
   37.1540   27.1050   33.6020 C   0  0  0  0  0  0  0  0  0  0  0  0
   38.8610   25.8420   36.8110 H   0  0  0  0  0  0  0  0  0  0  0  0
   38.2370   28.1960   36.6050 H   0  0  0  0  0  0  0  0  0  0  0  0
   37.1380   29.0030   34.5360 H   0  0  0  0  0  0  0  0  0  0  0  0
   36.4950   27.5100   32.3230 C   0  0  0  0  0  3  0  0  0  0  0  0
   36.1920   28.9360   32.0350 C   0  0  0  0  0  2  0  0  0  0  0  0
   37.3190   28.3110   31.3090 C   0  0  0  0  0  2  0  0  0  0  0  0
   37.0550   24.0690   31.8260 N   0  0  0  0  0  0  0  0  0  0  0  0
   37.2480   24.8380   32.6550 C   0  0  0  0  0  0  0  0  0  0  0  0
   39.7130   23.6290   35.5650 C   0  0  0  0  0  0  0  0  0  0  0  0
   39.5850   22.9020   36.7500 C   0  0  0  0  0  0  0  0  0  0  0  0
   40.6970   22.4400   37.4100 C   0  0  0  0  0  0  0  0  0  0  0  0
   41.9190   22.7250   36.8530 N   0  0  0  0  0  0  0  0  0  0  0  0
   42.0270   23.4280   35.7090 C   0  0  0  0  0  0  0  0  0  0  0  0
   40.9440   23.8670   35.0840 N   0  0  0  0  0  0  0  0  0  0  0  0
   40.6940   21.8710   38.3290 H   0  0  0  0  0  0  0  0  0  0  0  0
   42.9370   23.6940   35.2040 H   0  0  0  0  0  0  0  0  0  0  0  0
   37.7900   23.4110   38.3360 C   0  0  0  0  0  0  0  0  0  0  0  0
   38.1780   24.4930   38.9340 O   0  0  0  0  0  0  0  0  0  0  0  0
   38.3880   22.5420   37.3740 N   0  0  0  0  0  0  0  0  0  0  0  0
   37.0370   23.7880   39.0150 H   0  0  0  0  0  0  0  0  0  0  0  0
   37.6450   21.8450   37.4820 H   0  0  0  0  0  0  0  0  0  0  0  0
  1 16  1  0  0  0  0
  2  3  1  0  0  0  0
  3  1  1  0  0  0  0
  3  4  2  0  0  0  0
  4  8  1  0  0  0  0
  5  4  1  0  0  0  0
  5  9  1  0  0  0  0
  6  5  2  0  0  0  0
  7  2  2  0  0  0  0
  7  6  1  0  0  0  0
 10  6  1  0  0  0  0
 11  7  1  0  0  0  0
 12 11  1  0  0  0  0
 13 12  1  0  0  0  0
 13 11  1  0  0  0  0
 14 15  3  0  0  0  0
 15  2  1  0  0  0  0
 16 17  1  0  0  0  0
 17 26  1  0  0  0  0
 17 18  2  0  0  0  0
 18 22  1  0  0  0  0
 19 18  1  0  0  0  0
 20 19  2  0  0  0  0
 21 16  2  0  0  0  0
 21 20  1  0  0  0  0
 23 20  1  0  0  0  0
 24 25  2  0  0  0  0
 24 27  1  0  0  0  0
 26 28  1  0  0  0  0
 26 24  1  0  0  0  0
M  END
>  <minimizedAffinity>
-5.3086524

$$$$

 OpenBabel03272507403D

 28 30  0  0  0  0  0  0  0  0999 V2000
   38.2440   23.6780   35.0660 O   0  0  0  0  0  0  0  0  0  0  0  0
   37.8120   25.7520   33.8290 C   0  0  0  0  0  0  0  0  0  0  0  0
   37.9440   24.3910   33.9260 C   0  0  0  0  0  0  0  0  0  0  0  0
   37.7740   23.5950   32.8070 C   0  0  0  0  0  0  0  0  0  0  0  0
   37.4680   24.1800   31.5850 C   0  0  0  0  0  0  0  0  0  0  0  0
   37.3360   25.5610   31.4980 C   0  0  0  0  0  0  0  0  0  0  0  0
   37.5100   26.3460   32.6310 C   0  0  0  0  0  0  0  0  0  0  0  0
   37.8630   22.5190   32.8090 H   0  0  0  0  0  0  0  0  0  0  0  0
   37.3260   23.5980   30.6830 H   0  0  0  0  0  0  0  0  0  0  0  0
   37.1000   26.0630   30.5760 H   0  0  0  0  0  0  0  0  0  0  0  0
   37.3920   27.8360   32.6520 C   0  0  0  0  0  3  0  0  0  0  0  0
   36.9450   28.5860   31.4490 C   0  0  0  0  0  2  0  0  0  0  0  0
   35.9910   28.4500   32.5700 C   0  0  0  0  0  2  0  0  0  0  0  0
   38.1680   27.1240   35.9870 N   0  0  0  0  0  0  0  0  0  0  0  0
   38.0030   26.5080   35.0340 C   0  0  0  0  0  0  0  0  0  0  0  0
   39.5050   23.4510   35.5340 C   0  0  0  0  0  0  0  0  0  0  0  0
   39.4940   22.8940   36.8140 C   0  0  0  0  0  0  0  0  0  0  0  0
   40.6710   22.5930   37.4550 C   0  0  0  0  0  0  0  0  0  0  0  0
   41.8360   22.8640   36.7820 N   0  0  0  0  0  0  0  0  0  0  0  0
   41.8310   23.4020   35.5480 C   0  0  0  0  0  0  0  0  0  0  0  0
   40.6860   23.6870   34.9430 N   0  0  0  0  0  0  0  0  0  0  0  0
   40.7590   22.1620   38.4420 H   0  0  0  0  0  0  0  0  0  0  0  0
   42.6900   23.6440   34.9500 H   0  0  0  0  0  0  0  0  0  0  0  0
   37.7480   23.5320   38.4080 C   0  0  0  0  0  0  0  0  0  0  0  0
   38.0800   24.7220   38.7990 O   0  0  0  0  0  0  0  0  0  0  0  0
   38.3620   22.5610   37.5610 N   0  0  0  0  0  0  0  0  0  0  0  0
   37.0030   23.9630   39.0630 H   0  0  0  0  0  0  0  0  0  0  0  0
   37.6820   21.8410   37.8260 H   0  0  0  0  0  0  0  0  0  0  0  0
  1 16  1  0  0  0  0
  2  3  1  0  0  0  0
  2 15  1  0  0  0  0
  3  1  1  0  0  0  0
  4  8  1  0  0  0  0
  4  3  2  0  0  0  0
  5  4  1  0  0  0  0
  6  5  2  0  0  0  0
  6  7  1  0  0  0  0
  7 11  1  0  0  0  0
  7  2  2  0  0  0  0
  9  5  1  0  0  0  0
 10  6  1  0  0  0  0
 12 13  1  0  0  0  0
 12 11  1  0  0  0  0
 13 11  1  0  0  0  0
 15 14  3  0  0  0  0
 16 17  1  0  0  0  0
 17 18  2  0  0  0  0
 17 26  1  0  0  0  0
 18 22  1  0  0  0  0
 19 18  1  0  0  0  0
 20 19  2  0  0  0  0
 21 16  2  0  0  0  0
 21 20  1  0  0  0  0
 23 20  1  0  0  0  0
 24 25  2  0  0  0  0
 24 27  1  0  0  0  0
 26 28  1  0  0  0  0
 26 24  1  0  0  0  0
M  END
>  <minimizedAffinity>
-4.85531282

$$$$

 OpenBabel03272507403D

 28 30  0  0  0  0  0  0  0  0999 V2000
   38.2430   24.2410   34.6380 O   0  0  0  0  0  0  0  0  0  0  0  0
   37.1880   26.2090   33.6220 C   0  0  0  0  0  0  0  0  0  0  0  0
   37.8840   25.5720   34.6150 C   0  0  0  0  0  0  0  0  0  0  0  0
   38.2990   26.2730   35.7330 C   0  0  0  0  0  0  0  0  0  0  0  0
   38.0070   27.6260   35.8450 C   0  0  0  0  0  0  0  0  0  0  0  0
   37.2990   28.2630   34.8310 C   0  0  0  0  0  0  0  0  0  0  0  0
   36.8900   27.5440   33.7150 C   0  0  0  0  0  0  0  0  0  0  0  0
   38.8510   25.8380   36.5530 H   0  0  0  0  0  0  0  0  0  0  0  0
   38.3100   28.2160   36.7000 H   0  0  0  0  0  0  0  0  0  0  0  0
   37.0480   29.3090   34.8700 H   0  0  0  0  0  0  0  0  0  0  0  0
   36.1260   28.1250   32.5700 C   0  0  0  0  0  3  0  0  0  0  0  0
   35.8970   29.5900   32.4670 C   0  0  0  0  0  2  0  0  0  0  0  0
   36.8890   28.9830   31.5550 C   0  0  0  0  0  2  0  0  0  0  0  0
   36.4950   24.7640   31.5960 N   0  0  0  0  0  0  0  0  0  0  0  0
   36.7940   25.4120   32.4950 C   0  0  0  0  0  0  0  0  0  0  0  0
   39.3820   23.7510   35.2050 C   0  0  0  0  0  0  0  0  0  0  0  0
   39.1060   22.9000   36.2770 C   0  0  0  0  0  0  0  0  0  0  0  0
   40.1270   22.3070   36.9790 C   0  0  0  0  0  0  0  0  0  0  0  0
   41.4080   22.5890   36.5770 N   0  0  0  0  0  0  0  0  0  0  0  0
   41.6590   23.4130   35.5410 C   0  0  0  0  0  0  0  0  0  0  0  0
   40.6620   23.9780   34.8740 N   0  0  0  0  0  0  0  0  0  0  0  0
   40.0090   21.6370   37.8190 H   0  0  0  0  0  0  0  0  0  0  0  0
   42.6250   23.6870   35.1590 H   0  0  0  0  0  0  0  0  0  0  0  0
   36.9850   21.7240   35.9310 C   0  0  0  0  0  0  0  0  0  0  0  0
   37.0370   21.3080   34.7050 O   0  0  0  0  0  0  0  0  0  0  0  0
   37.8390   22.5350   36.7390 N   0  0  0  0  0  0  0  0  0  0  0  0
   36.1290   21.1140   35.6770 H   0  0  0  0  0  0  0  0  0  0  0  0
   37.1410   22.5960   37.4860 H   0  0  0  0  0  0  0  0  0  0  0  0
  1 16  1  0  0  0  0
  2  7  2  0  0  0  0
  2  3  1  0  0  0  0
  3  1  1  0  0  0  0
  3  4  2  0  0  0  0
  4  5  1  0  0  0  0
  4  8  1  0  0  0  0
  5  9  1  0  0  0  0
  6 10  1  0  0  0  0
  6  5  2  0  0  0  0
  7  6  1  0  0  0  0
 11  7  1  0  0  0  0
 12 11  1  0  0  0  0
 13 12  1  0  0  0  0
 13 11  1  0  0  0  0
 14 15  3  0  0  0  0
 15  2  1  0  0  0  0
 16 17  1  0  0  0  0
 17 26  1  0  0  0  0
 17 18  2  0  0  0  0
 18 22  1  0  0  0  0
 19 18  1  0  0  0  0
 20 19  2  0  0  0  0
 21 16  2  0  0  0  0
 21 20  1  0  0  0  0
 23 20  1  0  0  0  0
 24 26  1  0  0  0  0
 25 24  2  0  0  0  0
 26 28  1  0  0  0  0
 27 24  1  0  0  0  0
M  END
>  <minimizedAffinity>
-4.71448803

$$$$

 OpenBabel03272507403D

 28 30  0  0  0  0  0  0  0  0999 V2000
   38.5940   24.1320   34.6880 O   0  0  0  0  0  0  0  0  0  0  0  0
   37.3930   26.0200   33.6830 C   0  0  0  0  0  0  0  0  0  0  0  0
   38.1410   25.4340   34.6700 C   0  0  0  0  0  0  0  0  0  0  0  0
   38.5130   26.1620   35.7860 C   0  0  0  0  0  0  0  0  0  0  0  0
   38.1250   27.4910   35.9020 C   0  0  0  0  0  0  0  0  0  0  0  0
   37.3660   28.0760   34.8950 C   0  0  0  0  0  0  0  0  0  0  0  0
   37.0010   27.3300   33.7810 C   0  0  0  0  0  0  0  0  0  0  0  0
   39.1010   25.7660   36.6010 H   0  0  0  0  0  0  0  0  0  0  0  0
   38.3920   28.1000   36.7560 H   0  0  0  0  0  0  0  0  0  0  0  0
   37.0400   29.1010   34.9370 H   0  0  0  0  0  0  0  0  0  0  0  0
   36.1880   27.8560   32.6420 C   0  0  0  0  0  3  0  0  0  0  0  0
   35.8220   29.2950   32.5630 C   0  0  0  0  0  2  0  0  0  0  0  0
   36.8700   28.7990   31.6450 C   0  0  0  0  0  2  0  0  0  0  0  0
   36.7790   24.5250   31.6690 N   0  0  0  0  0  0  0  0  0  0  0  0
   37.0490   25.1980   32.5580 C   0  0  0  0  0  0  0  0  0  0  0  0
   39.3450   23.5830   35.6850 C   0  0  0  0  0  0  0  0  0  0  0  0
   40.6790   23.4210   35.3050 C   0  0  0  0  0  0  0  0  0  0  0  0
   41.5930   22.8810   36.1760 C   0  0  0  0  0  0  0  0  0  0  0  0
   41.1340   22.5180   37.4180 N   0  0  0  0  0  0  0  0  0  0  0  0
   39.8450   22.6800   37.7700 C   0  0  0  0  0  0  0  0  0  0  0  0
   38.9750   23.2020   36.9170 N   0  0  0  0  0  0  0  0  0  0  0  0
   42.6420   22.7180   35.9690 H   0  0  0  0  0  0  0  0  0  0  0  0
   39.4020   22.4270   38.7160 H   0  0  0  0  0  0  0  0  0  0  0  0
   41.8430   25.0680   33.9150 C   0  0  0  0  0  0  0  0  0  0  0  0
   41.8940   26.1370   34.6460 O   0  0  0  0  0  0  0  0  0  0  0  0
   41.2390   23.7850   34.0780 N   0  0  0  0  0  0  0  0  0  0  0  0
   42.4110   25.8560   33.4380 H   0  0  0  0  0  0  0  0  0  0  0  0
   41.4360   23.5250   33.1060 H   0  0  0  0  0  0  0  0  0  0  0  0
  1 16  1  0  0  0  0
  2  7  2  0  0  0  0
  2  3  1  0  0  0  0
  3  1  1  0  0  0  0
  3  4  2  0  0  0  0
  4  5  1  0  0  0  0
  4  8  1  0  0  0  0
  5  9  1  0  0  0  0
  6 10  1  0  0  0  0
  6  5  2  0  0  0  0
  7  6  1  0  0  0  0
 11  7  1  0  0  0  0
 12 11  1  0  0  0  0
 13 12  1  0  0  0  0
 13 11  1  0  0  0  0
 14 15  3  0  0  0  0
 15  2  1  0  0  0  0
 16 21  1  0  0  0  0
 17 16  2  0  0  0  0
 17 18  1  0  0  0  0
 18 19  2  0  0  0  0
 19 20  1  0  0  0  0
 20 23  1  0  0  0  0
 21 20  2  0  0  0  0
 22 18  1  0  0  0  0
 24 26  1  0  0  0  0
 24 25  2  0  0  0  0
 26 17  1  0  0  0  0
 27 24  1  0  0  0  0
 28 26  1  0  0  0  0
M  END
>  <minimizedAffinity>
-4.63117218

$$$$

 OpenBabel03272507403D

 28 30  0  0  0  0  0  0  0  0999 V2000
   38.9540   23.1640   34.5720 O   0  0  0  0  0  0  0  0  0  0  0  0
   37.2000   21.9750   33.3370 C   0  0  0  0  0  0  0  0  0  0  0  0
   37.8460   22.3500   34.4860 C   0  0  0  0  0  0  0  0  0  0  0  0
   37.3930   21.9030   35.7140 C   0  0  0  0  0  0  0  0  0  0  0  0
   36.2820   21.0720   35.7780 C   0  0  0  0  0  0  0  0  0  0  0  0
   35.6340   20.6980   34.6070 C   0  0  0  0  0  0  0  0  0  0  0  0
   36.1020   21.1570   33.3810 C   0  0  0  0  0  0  0  0  0  0  0  0
   37.8510   22.1570   36.6590 H   0  0  0  0  0  0  0  0  0  0  0  0
   35.8910   20.6980   36.7160 H   0  0  0  0  0  0  0  0  0  0  0  0
   34.7700   20.0580   34.6020 H   0  0  0  0  0  0  0  0  0  0  0  0
   35.4850   20.8180   32.0620 C   0  0  0  0  0  3  0  0  0  0  0  0
   35.9560   19.6500   31.2730 C   0  0  0  0  0  2  0  0  0  0  0  0
   34.6530   19.5350   31.9630 C   0  0  0  0  0  2  0  0  0  0  0  0
   38.1610   22.9020   31.1260 N   0  0  0  0  0  0  0  0  0  0  0  0
   37.7310   22.4820   32.1030 C   0  0  0  0  0  0  0  0  0  0  0  0
   38.9290   24.4790   34.9310 C   0  0  0  0  0  0  0  0  0  0  0  0
   40.1150   25.1350   34.5960 C   0  0  0  0  0  0  0  0  0  0  0  0
   40.2800   26.4690   34.8790 C   0  0  0  0  0  0  0  0  0  0  0  0
   39.2350   27.1110   35.4950 N   0  0  0  0  0  0  0  0  0  0  0  0
   38.0970   26.4660   35.8120 C   0  0  0  0  0  0  0  0  0  0  0  0
   37.9530   25.1780   35.5330 N   0  0  0  0  0  0  0  0  0  0  0  0
   41.1600   27.0560   34.6580 H   0  0  0  0  0  0  0  0  0  0  0  0
   37.2330   26.8880   36.2910 H   0  0  0  0  0  0  0  0  0  0  0  0
   42.2640   23.9640   34.7030 C   0  0  0  0  0  0  0  0  0  0  0  0
   42.5460   23.9120   35.9670 O   0  0  0  0  0  0  0  0  0  0  0  0
   41.2160   24.5720   33.9470 N   0  0  0  0  0  0  0  0  0  0  0  0
   43.1630   23.3940   34.8920 H   0  0  0  0  0  0  0  0  0  0  0  0
   41.6890   24.3740   33.0590 H   0  0  0  0  0  0  0  0  0  0  0  0
  1 16  1  0  0  0  0
  2  7  2  0  0  0  0
  2  3  1  0  0  0  0
  3  1  1  0  0  0  0
  3  4  2  0  0  0  0
  4  5  1  0  0  0  0
  4  8  1  0  0  0  0
  5  9  1  0  0  0  0
  6  5  2  0  0  0  0
  7  6  1  0  0  0  0
 10  6  1  0  0  0  0
 11  7  1  0  0  0  0
 12 13  1  0  0  0  0
 12 11  1  0  0  0  0
 13 11  1  0  0  0  0
 14 15  3  0  0  0  0
 15  2  1  0  0  0  0
 16 21  1  0  0  0  0
 17 18  1  0  0  0  0
 17 16  2  0  0  0  0
 18 19  2  0  0  0  0
 19 20  1  0  0  0  0
 20 23  1  0  0  0  0
 21 20  2  0  0  0  0
 22 18  1  0  0  0  0
 24 27  1  0  0  0  0
 24 25  2  0  0  0  0
 26 17  1  0  0  0  0
 26 24  1  0  0  0  0
 28 26  1  0  0  0  0
M  END
>  <minimizedAffinity>
-4.62029648

$$$$

 OpenBabel03272507403D

 28 30  0  0  0  0  0  0  0  0999 V2000
   36.2650   26.7690   32.3280 O   0  0  0  0  0  0  0  0  0  0  0  0
   37.6700   25.3310   33.7330 C   0  0  0  0  0  0  0  0  0  0  0  0
   37.0390   26.5110   33.4380 C   0  0  0  0  0  0  0  0  0  0  0  0
   37.1500   27.5910   34.2960 C   0  0  0  0  0  0  0  0  0  0  0  0
   37.9020   27.4750   35.4570 C   0  0  0  0  0  0  0  0  0  0  0  0
   38.5380   26.2730   35.7470 C   0  0  0  0  0  0  0  0  0  0  0  0
   38.4160   25.1980   34.8750 C   0  0  0  0  0  0  0  0  0  0  0  0
   36.6820   28.5500   34.1280 H   0  0  0  0  0  0  0  0  0  0  0  0
   38.0170   28.2920   36.1580 H   0  0  0  0  0  0  0  0  0  0  0  0
   39.1320   26.1310   36.6330 H   0  0  0  0  0  0  0  0  0  0  0  0
   39.0550   23.8630   35.0860 C   0  0  0  0  0  3  0  0  0  0  0  0
   39.7150   23.5250   36.3750 C   0  0  0  0  0  2  0  0  0  0  0  0
   38.4050   22.9030   36.0880 C   0  0  0  0  0  2  0  0  0  0  0  0
   37.3610   23.4120   32.0330 N   0  0  0  0  0  0  0  0  0  0  0  0
   37.5060   24.2580   32.7940 C   0  0  0  0  0  0  0  0  0  0  0  0
   36.2880   27.9310   31.6150 C   0  0  0  0  0  0  0  0  0  0  0  0
   37.1240   27.8440   30.5010 C   0  0  0  0  0  0  0  0  0  0  0  0
   37.2790   28.9170   29.6570 C   0  0  0  0  0  0  0  0  0  0  0  0
   36.5810   30.0580   29.9620 N   0  0  0  0  0  0  0  0  0  0  0  0
   35.7780   30.1280   31.0410 C   0  0  0  0  0  0  0  0  0  0  0  0
   35.6390   29.0840   31.8460 N   0  0  0  0  0  0  0  0  0  0  0  0
   37.9030   28.9390   28.7750 H   0  0  0  0  0  0  0  0  0  0  0  0
   35.1960   30.9750   31.3530 H   0  0  0  0  0  0  0  0  0  0  0  0
   39.2200   26.5760   30.4750 C   0  0  0  0  0  0  0  0  0  0  0  0
   40.0840   27.3600   31.0390 O   0  0  0  0  0  0  0  0  0  0  0  0
   37.8500   26.7200   30.0980 N   0  0  0  0  0  0  0  0  0  0  0  0
   40.1800   26.0940   30.5970 H   0  0  0  0  0  0  0  0  0  0  0  0
   37.8590   25.8360   29.5790 H   0  0  0  0  0  0  0  0  0  0  0  0
  1  3  1  0  0  0  0
  2  7  1  0  0  0  0
  3  2  2  0  0  0  0
  3  4  1  0  0  0  0
  4  5  2  0  0  0  0
  5  6  1  0  0  0  0
  5  9  1  0  0  0  0
  6 10  1  0  0  0  0
  7 11  1  0  0  0  0
  7  6  2  0  0  0  0
  8  4  1  0  0  0  0
 11 13  1  0  0  0  0
 11 12  1  0  0  0  0
 13 12  1  0  0  0  0
 14 15  3  0  0  0  0
 15  2  1  0  0  0  0
 16 21  1  0  0  0  0
 16  1  1  0  0  0  0
 17 16  2  0  0  0  0
 18 19  2  0  0  0  0
 18 17  1  0  0  0  0
 19 20  1  0  0  0  0
 20 23  1  0  0  0  0
 20 21  2  0  0  0  0
 22 18  1  0  0  0  0
 24 27  1  0  0  0  0
 24 25  2  0  0  0  0
 26 24  1  0  0  0  0
 26 17  1  0  0  0  0
 28 26  1  0  0  0  0
M  END
>  <minimizedAffinity>
-4.53915787

$$$$

 OpenBabel03272507403D

 28 30  0  0  0  0  0  0  0  0999 V2000
   38.9900   23.6840   34.2980 O   0  0  0  0  0  0  0  0  0  0  0  0
   38.0920   25.7660   33.3610 C   0  0  0  0  0  0  0  0  0  0  0  0
   38.1440   24.4020   33.4800 C   0  0  0  0  0  0  0  0  0  0  0  0
   37.2930   23.6070   32.7330 C   0  0  0  0  0  0  0  0  0  0  0  0
   36.3850   24.1960   31.8630 C   0  0  0  0  0  0  0  0  0  0  0  0
   36.3400   25.5810   31.7510 C   0  0  0  0  0  0  0  0  0  0  0  0
   37.2020   26.3660   32.5090 C   0  0  0  0  0  0  0  0  0  0  0  0
   37.2790   22.5280   32.7750 H   0  0  0  0  0  0  0  0  0  0  0  0
   35.7000   23.6150   31.2590 H   0  0  0  0  0  0  0  0  0  0  0  0
   35.6550   26.0870   31.0930 H   0  0  0  0  0  0  0  0  0  0  0  0
   37.2400   27.8590   32.4670 C   0  0  0  0  0  3  0  0  0  0  0  0
   36.2030   28.6320   31.7350 C   0  0  0  0  0  2  0  0  0  0  0  0
   36.1440   28.6290   33.2120 C   0  0  0  0  0  2  0  0  0  0  0  0
   39.7490   27.1080   34.8180 N   0  0  0  0  0  0  0  0  0  0  0  0
   39.0060   26.5210   34.1700 C   0  0  0  0  0  0  0  0  0  0  0  0
   38.8530   23.5680   35.6490 C   0  0  0  0  0  0  0  0  0  0  0  0
   39.9730   22.9800   36.2390 C   0  0  0  0  0  0  0  0  0  0  0  0
   40.0230   22.7760   37.5960 C   0  0  0  0  0  0  0  0  0  0  0  0
   38.9340   23.1770   38.3280 N   0  0  0  0  0  0  0  0  0  0  0  0
   37.8600   23.7430   37.7460 C   0  0  0  0  0  0  0  0  0  0  0  0
   37.8270   23.9320   36.4340 N   0  0  0  0  0  0  0  0  0  0  0  0
   40.8460   22.3300   38.1370 H   0  0  0  0  0  0  0  0  0  0  0  0
   36.9690   24.0860   38.2400 H   0  0  0  0  0  0  0  0  0  0  0  0
   42.1790   23.5010   35.3100 C   0  0  0  0  0  0  0  0  0  0  0  0
   42.2830   24.7890   35.4140 O   0  0  0  0  0  0  0  0  0  0  0  0
   41.1340   22.5670   35.5790 N   0  0  0  0  0  0  0  0  0  0  0  0
   43.1550   23.8520   35.0020 H   0  0  0  0  0  0  0  0  0  0  0  0
   41.6470   21.8020   35.1300 H   0  0  0  0  0  0  0  0  0  0  0  0
  1 16  1  0  0  0  0
  2  3  1  0  0  0  0
  2 15  1  0  0  0  0
  3  1  1  0  0  0  0
  4  8  1  0  0  0  0
  4  3  2  0  0  0  0
  5  4  1  0  0  0  0
  6  5  2  0  0  0  0
  6  7  1  0  0  0  0
  7  2  2  0  0  0  0
  9  5  1  0  0  0  0
 10  6  1  0  0  0  0
 11  7  1  0  0  0  0
 11 13  1  0  0  0  0
 12 11  1  0  0  0  0
 12 13  1  0  0  0  0
 15 14  3  0  0  0  0
 16 17  2  0  0  0  0
 16 21  1  0  0  0  0
 17 18  1  0  0  0  0
 18 22  1  0  0  0  0
 18 19  2  0  0  0  0
 20 23  1  0  0  0  0
 20 19  1  0  0  0  0
 21 20  2  0  0  0  0
 24 25  2  0  0  0  0
 24 26  1  0  0  0  0
 26 17  1  0  0  0  0
 27 24  1  0  0  0  0
 28 26  1  0  0  0  0
M  END
>  <minimizedAffinity>
-4.53853321

$$$$

 OpenBabel03272507403D

 28 30  0  0  0  0  0  0  0  0999 V2000
   38.1280   25.7010   32.2990 O   0  0  0  0  0  0  0  0  0  0  0  0
   38.3680   24.8470   34.5870 C   0  0  0  0  0  0  0  0  0  0  0  0
   38.1830   25.8480   33.6690 C   0  0  0  0  0  0  0  0  0  0  0  0
   38.0290   27.1570   34.0890 C   0  0  0  0  0  0  0  0  0  0  0  0
   38.0630   27.4530   35.4460 C   0  0  0  0  0  0  0  0  0  0  0  0
   38.2510   26.4310   36.3690 C   0  0  0  0  0  0  0  0  0  0  0  0
   38.4030   25.1210   35.9290 C   0  0  0  0  0  0  0  0  0  0  0  0
   37.8800   27.9940   33.4240 H   0  0  0  0  0  0  0  0  0  0  0  0
   37.9470   28.4620   35.8220 H   0  0  0  0  0  0  0  0  0  0  0  0
   38.2840   26.6070   37.4290 H   0  0  0  0  0  0  0  0  0  0  0  0
   38.6110   23.9470   36.8310 C   0  0  0  0  0  3  0  0  0  0  0  0
   38.2640   24.0190   38.2740 C   0  0  0  0  0  2  0  0  0  0  0  0
   37.3720   23.2390   37.3900 C   0  0  0  0  0  2  0  0  0  0  0  0
   38.6530   22.4590   33.6460 N   0  0  0  0  0  0  0  0  0  0  0  0
   38.5180   23.5160   34.0710 C   0  0  0  0  0  0  0  0  0  0  0  0
   39.0450   26.2060   31.4260 C   0  0  0  0  0  0  0  0  0  0  0  0
   38.4410   26.9140   30.3850 C   0  0  0  0  0  0  0  0  0  0  0  0
   39.2020   27.4970   29.4020 C   0  0  0  0  0  0  0  0  0  0  0  0
   40.5630   27.3520   29.4960 N   0  0  0  0  0  0  0  0  0  0  0  0
   41.1330   26.6660   30.5050 C   0  0  0  0  0  0  0  0  0  0  0  0
   40.3840   26.1080   31.4460 N   0  0  0  0  0  0  0  0  0  0  0  0
   38.8210   28.0620   28.5620 H   0  0  0  0  0  0  0  0  0  0  0  0
   42.1830   26.5040   30.6580 H   0  0  0  0  0  0  0  0  0  0  0  0
   36.4760   28.3420   30.7000 C   0  0  0  0  0  0  0  0  0  0  0  0
   36.8980   29.3240   31.4330 O   0  0  0  0  0  0  0  0  0  0  0  0
   37.0710   27.1350   30.2230 N   0  0  0  0  0  0  0  0  0  0  0  0
   35.7120   29.0940   30.8460 H   0  0  0  0  0  0  0  0  0  0  0  0
   36.1720   26.7800   29.8820 H   0  0  0  0  0  0  0  0  0  0  0  0
  1  3  1  0  0  0  0
  2  7  1  0  0  0  0
  3  4  1  0  0  0  0
  3  2  2  0  0  0  0
  4  5  2  0  0  0  0
  5  9  1  0  0  0  0
  5  6  1  0  0  0  0
  6 10  1  0  0  0  0
  7  6  2  0  0  0  0
  7 11  1  0  0  0  0
  8  4  1  0  0  0  0
 11 13  1  0  0  0  0
 11 12  1  0  0  0  0
 13 12  1  0  0  0  0
 14 15  3  0  0  0  0
 15  2  1  0  0  0  0
 16 21  1  0  0  0  0
 16  1  1  0  0  0  0
 17 16  2  0  0  0  0
 18 19  2  0  0  0  0
 18 17  1  0  0  0  0
 19 20  1  0  0  0  0
 20 23  1  0  0  0  0
 20 21  2  0  0  0  0
 22 18  1  0  0  0  0
 24 27  1  0  0  0  0
 24 25  2  0  0  0  0
 26 17  1  0  0  0  0
 26 24  1  0  0  0  0
 28 26  1  0  0  0  0
M  END
>  <minimizedAffinity>
-4.50622463

$$$$

 OpenBabel03272507403D

 28 30  0  0  0  0  0  0  0  0999 V2000
   34.9180   28.9980   33.7370 O   0  0  0  0  0  0  0  0  0  0  0  0
   36.9410   27.8900   32.9040 C   0  0  0  0  0  0  0  0  0  0  0  0
   35.9040   28.7790   32.8000 C   0  0  0  0  0  0  0  0  0  0  0  0
   35.7740   29.5650   31.6700 C   0  0  0  0  0  0  0  0  0  0  0  0
   36.6990   29.4510   30.6400 C   0  0  0  0  0  0  0  0  0  0  0  0
   37.7480   28.5460   30.7560 C   0  0  0  0  0  0  0  0  0  0  0  0
   37.8640   27.7630   31.8990 C   0  0  0  0  0  0  0  0  0  0  0  0
   34.9830   30.2860   31.5190 H   0  0  0  0  0  0  0  0  0  0  0  0
   36.6380   30.0450   29.7370 H   0  0  0  0  0  0  0  0  0  0  0  0
   38.4910   28.4190   29.9880 H   0  0  0  0  0  0  0  0  0  0  0  0
   38.9480   26.7610   32.1280 C   0  0  0  0  0  3  0  0  0  0  0  0
   40.1380   26.7010   31.2380 C   0  0  0  0  0  2  0  0  0  0  0  0
   40.3170   27.2710   32.5900 C   0  0  0  0  0  2  0  0  0  0  0  0
   37.0690   26.5040   35.0800 N   0  0  0  0  0  0  0  0  0  0  0  0
   37.0070   27.1110   34.1080 C   0  0  0  0  0  0  0  0  0  0  0  0
   34.9190   30.0140   34.6460 C   0  0  0  0  0  0  0  0  0  0  0  0
   33.6240   30.4130   34.9840 C   0  0  0  0  0  0  0  0  0  0  0  0
   33.4190   31.4280   35.8870 C   0  0  0  0  0  0  0  0  0  0  0  0
   34.5340   32.0160   36.4310 N   0  0  0  0  0  0  0  0  0  0  0  0
   35.7770   31.6200   36.0950 C   0  0  0  0  0  0  0  0  0  0  0  0
   35.9570   30.6400   35.2210 N   0  0  0  0  0  0  0  0  0  0  0  0
   32.4570   31.8020   36.2070 H   0  0  0  0  0  0  0  0  0  0  0  0
   36.7000   32.0210   36.4700 H   0  0  0  0  0  0  0  0  0  0  0  0
   31.7430   28.8710   35.2690 C   0  0  0  0  0  0  0  0  0  0  0  0
   32.0290   28.1980   36.3390 O   0  0  0  0  0  0  0  0  0  0  0  0
   32.4360   29.8570   34.5050 N   0  0  0  0  0  0  0  0  0  0  0  0
   30.9410   28.2020   35.5510 H   0  0  0  0  0  0  0  0  0  0  0  0
   31.7420   29.8180   33.7510 H   0  0  0  0  0  0  0  0  0  0  0  0
  1 16  1  0  0  0  0
  2 15  1  0  0  0  0
  3  2  1  0  0  0  0
  3  1  1  0  0  0  0
  4  3  2  0  0  0  0
  5  6  2  0  0  0  0
  5  4  1  0  0  0  0
  6  7  1  0  0  0  0
  7 11  1  0  0  0  0
  7  2  2  0  0  0  0
  8  4  1  0  0  0  0
  9  5  1  0  0  0  0
 10  6  1  0  0  0  0
 11 13  1  0  0  0  0
 12 11  1  0  0  0  0
 12 13  1  0  0  0  0
 15 14  3  0  0  0  0
 16 17  2  0  0  0  0
 16 21  1  0  0  0  0
 17 18  1  0  0  0  0
 18 22  1  0  0  0  0
 18 19  2  0  0  0  0
 20 19  1  0  0  0  0
 20 23  1  0  0  0  0
 21 20  2  0  0  0  0
 24 27  1  0  0  0  0
 24 25  2  0  0  0  0
 26 17  1  0  0  0  0
 26 24  1  0  0  0  0
 28 26  1  0  0  0  0
M  END
>  <minimizedAffinity>
-4.47753382

$$$$
