
 OpenBabel03262523553D

 28 30  0  0  1  0  0  0  0  0999 V2000
   37.7890   25.8060   34.4710 C   0  0  1  0  0  0  0  0  0  0  0  0
   37.3060   27.1050   34.9750 C   0  0  0  0  0  0  0  0  0  0  0  0
   36.6890   27.8700   33.8420 C   0  0  0  0  0  0  0  0  0  0  0  0
   37.4390   27.6740   32.5760 C   0  0  0  0  0  0  0  0  0  0  0  0
   38.8420   27.2240   32.7020 C   0  0  0  0  0  0  0  0  0  0  0  0
   39.0840   26.1140   33.6960 C   0  0  1  0  0  0  0  0  0  0  0  0
   37.0890   25.4280   33.6830 H   0  0  0  0  0  0  0  0  0  0  0  0
   36.4890   26.9240   35.7150 H   0  0  0  0  0  0  0  0  0  0  0  0
   38.0850   27.6960   35.5040 H   0  0  0  0  0  0  0  0  0  0  0  0
   36.7340   28.9490   34.1060 H   0  0  0  0  0  0  0  0  0  0  0  0
   35.6040   27.6470   33.7120 H   0  0  0  0  0  0  0  0  0  0  0  0
   36.8680   26.8860   32.0030 H   0  0  0  0  0  0  0  0  0  0  0  0
   37.4270   28.5970   31.9700 H   0  0  0  0  0  0  0  0  0  0  0  0
   39.1880   26.9620   31.6630 H   0  0  0  0  0  0  0  0  0  0  0  0
   39.4360   28.1240   33.0430 H   0  0  0  0  0  0  0  0  0  0  0  0
   39.3630   25.2340   33.0850 H   0  0  0  0  0  0  0  0  0  0  0  0
   38.2670   24.1930   37.7970 C   0  0  0  0  0  0  0  0  0  0  0  0
   37.9270   25.1660   36.8170 C   0  0  0  0  0  0  0  0  0  0  0  0
   38.1270   24.8110   35.4860 C   0  0  0  0  0  0  0  0  0  0  0  0
   38.6330   23.5640   35.1860 N   0  0  0  0  0  0  0  0  0  0  0  0
   38.9410   22.6720   36.1390 C   0  0  0  0  0  0  0  0  0  0  0  0
   38.7600   22.9830   37.4500 N   0  0  0  0  0  0  0  0  0  0  0  0
   38.1470   24.3760   38.8560 H   0  0  0  0  0  0  0  0  0  0  0  0
   37.5640   26.0650   37.2350 H   0  0  0  0  0  0  0  0  0  0  0  0
   39.3250   21.7470   35.7380 H   0  0  0  0  0  0  0  0  0  0  0  0
   40.2280   26.4570   34.6040 C   0  0  0  0  0  3  0  0  0  0  0  0
   41.4120   27.1300   34.0180 C   0  0  0  0  0  2  0  0  0  0  0  0
   41.5100   25.7040   34.5090 C   0  0  0  0  0  2  0  0  0  0  0  0
  1  7  1  6  0  0  0
  1  2  1  0  0  0  0
  1 19  1  0  0  0  0
  2  9  1  0  0  0  0
  2  8  1  0  0  0  0
  3 10  1  0  0  0  0
  3  2  1  0  0  0  0
  4  5  1  0  0  0  0
  4  3  1  0  0  0  0
  5 15  1  0  0  0  0
  5  6  1  0  0  0  0
  6 16  1  6  0  0  0
  6  1  1  0  0  0  0
  6 26  1  0  0  0  0
 11  3  1  0  0  0  0
 12  4  1  0  0  0  0
 13  4  1  0  0  0  0
 14  5  1  0  0  0  0
 17 23  1  0  0  0  0
 18 24  1  0  0  0  0
 18 17  2  0  0  0  0
 19 18  1  0  0  0  0
 20 19  2  0  0  0  0
 20 21  1  0  0  0  0
 21 22  2  0  0  0  0
 22 17  1  0  0  0  0
 25 21  1  0  0  0  0
 27 28  1  0  0  0  0
 27 26  1  0  0  0  0
 28 26  1  0  0  0  0
M  END
>  <minimizedAffinity>
-4.38946915

$$$$

 OpenBabel03262523553D

 28 30  0  0  1  0  0  0  0  0999 V2000
   38.5710   22.4740   36.0450 C   0  0  1  0  0  0  0  0  0  0  0  0
   39.9560   22.7110   36.4900 C   0  0  0  0  0  0  0  0  0  0  0  0
   39.9870   22.7640   37.9880 C   0  0  0  0  0  0  0  0  0  0  0  0
   38.7880   23.4470   38.5370 C   0  0  0  0  0  0  0  0  0  0  0  0
   38.0640   24.3510   37.6160 C   0  0  0  0  0  0  0  0  0  0  0  0
   37.8390   23.8180   36.2220 C   0  0  1  0  0  0  0  0  0  0  0  0
   38.0570   21.7930   36.7700 H   0  0  0  0  0  0  0  0  0  0  0  0
   40.5850   21.8370   36.1930 H   0  0  0  0  0  0  0  0  0  0  0  0
   40.4250   23.6080   36.0300 H   0  0  0  0  0  0  0  0  0  0  0  0
   40.8830   23.3520   38.2820 H   0  0  0  0  0  0  0  0  0  0  0  0
   40.1320   21.7600   38.4520 H   0  0  0  0  0  0  0  0  0  0  0  0
   38.0820   22.6220   38.8460 H   0  0  0  0  0  0  0  0  0  0  0  0
   39.0480   24.0190   39.4460 H   0  0  0  0  0  0  0  0  0  0  0  0
   37.1050   24.6330   38.1350 H   0  0  0  0  0  0  0  0  0  0  0  0
   38.6930   25.2860   37.5280 H   0  0  0  0  0  0  0  0  0  0  0  0
   36.7470   23.6540   36.1480 H   0  0  0  0  0  0  0  0  0  0  0  0
   39.3830   21.6150   32.5100 C   0  0  0  0  0  0  0  0  0  0  0  0
   39.5560   21.9910   33.8710 C   0  0  0  0  0  0  0  0  0  0  0  0
   38.4050   22.0800   34.6480 C   0  0  0  0  0  0  0  0  0  0  0  0
   37.1800   21.8070   34.0780 N   0  0  0  0  0  0  0  0  0  0  0  0
   37.0570   21.4540   32.7890 C   0  0  0  0  0  0  0  0  0  0  0  0
   38.1580   21.3570   31.9990 N   0  0  0  0  0  0  0  0  0  0  0  0
   40.2170   21.5190   31.8290 H   0  0  0  0  0  0  0  0  0  0  0  0
   40.5660   22.1700   34.1250 H   0  0  0  0  0  0  0  0  0  0  0  0
   36.0320   21.2750   32.5010 H   0  0  0  0  0  0  0  0  0  0  0  0
   38.2480   24.8330   35.1960 C   0  0  0  0  0  3  0  0  0  0  0  0
   38.7840   26.1320   35.6680 C   0  0  0  0  0  2  0  0  0  0  0  0
   37.4320   26.0630   34.9950 C   0  0  0  0  0  2  0  0  0  0  0  0
  1  6  1  0  0  0  0
  1  2  1  0  0  0  0
  1  7  1  1  0  0  0
  2  3  1  0  0  0  0
  3 10  1  0  0  0  0
  3 11  1  0  0  0  0
  3  4  1  0  0  0  0
  4 12  1  0  0  0  0
  4 13  1  0  0  0  0
  5 14  1  0  0  0  0
  5  4  1  0  0  0  0
  6 16  1  6  0  0  0
  6  5  1  0  0  0  0
  8  2  1  0  0  0  0
  9  2  1  0  0  0  0
 15  5  1  0  0  0  0
 17 18  1  0  0  0  0
 18 24  1  0  0  0  0
 18 19  2  0  0  0  0
 19  1  1  0  0  0  0
 20 19  1  0  0  0  0
 21 20  2  0  0  0  0
 22 17  2  0  0  0  0
 22 21  1  0  0  0  0
 23 17  1  0  0  0  0
 25 21  1  0  0  0  0
 26 27  1  0  0  0  0
 26  6  1  0  0  0  0
 28 26  1  0  0  0  0
 28 27  1  0  0  0  0
M  END
>  <minimizedAffinity>
-4.24535227

$$$$

 OpenBabel03262523553D

 28 30  0  0  1  0  0  0  0  0999 V2000
   40.4790   22.8340   35.1930 C   0  0  1  0  0  0  0  0  0  0  0  0
   41.5660   23.7520   35.5770 C   0  0  0  0  0  0  0  0  0  0  0  0
   42.7050   22.9540   36.1380 C   0  0  0  0  0  0  0  0  0  0  0  0
   42.2240   21.8150   36.9590 C   0  0  0  0  0  0  0  0  0  0  0  0
   40.8470   21.9190   37.4900 C   0  0  0  0  0  0  0  0  0  0  0  0
   39.8060   22.4080   36.5120 C   0  0  1  0  0  0  0  0  0  0  0  0
   40.9160   21.8830   34.7970 H   0  0  0  0  0  0  0  0  0  0  0  0
   41.9560   24.2540   34.6590 H   0  0  0  0  0  0  0  0  0  0  0  0
   41.2440   24.5630   36.2660 H   0  0  0  0  0  0  0  0  0  0  0  0
   43.2930   23.6300   36.7970 H   0  0  0  0  0  0  0  0  0  0  0  0
   43.4230   22.6170   35.3530 H   0  0  0  0  0  0  0  0  0  0  0  0
   42.2730   20.9110   36.2840 H   0  0  0  0  0  0  0  0  0  0  0  0
   42.9070   21.6310   37.8080 H   0  0  0  0  0  0  0  0  0  0  0  0
   40.5960   20.9110   37.9260 H   0  0  0  0  0  0  0  0  0  0  0  0
   40.8890   22.6590   38.3430 H   0  0  0  0  0  0  0  0  0  0  0  0
   39.1520   21.5350   36.3250 H   0  0  0  0  0  0  0  0  0  0  0  0
   37.4910   23.0770   32.9770 C   0  0  0  0  0  0  0  0  0  0  0  0
   38.5020   22.5160   33.8070 C   0  0  0  0  0  0  0  0  0  0  0  0
   39.4310   23.4000   34.3460 C   0  0  0  0  0  0  0  0  0  0  0  0
   39.3340   24.7450   34.0580 N   0  0  0  0  0  0  0  0  0  0  0  0
   38.3660   25.2360   33.2710 C   0  0  0  0  0  0  0  0  0  0  0  0
   37.4390   24.4040   32.7260 N   0  0  0  0  0  0  0  0  0  0  0  0
   36.7250   22.4700   32.5150 H   0  0  0  0  0  0  0  0  0  0  0  0
   38.4210   21.4670   33.9060 H   0  0  0  0  0  0  0  0  0  0  0  0
   38.4310   26.3060   33.1460 H   0  0  0  0  0  0  0  0  0  0  0  0
   38.9860   23.5070   37.1200 C   0  0  0  0  0  3  0  0  0  0  0  0
   38.6720   23.4320   38.5660 C   0  0  0  0  0  2  0  0  0  0  0  0
   37.5800   23.2480   37.5380 C   0  0  0  0  0  2  0  0  0  0  0  0
  1  7  1  6  0  0  0
  1  2  1  0  0  0  0
  1  6  1  0  0  0  0
  2  3  1  0  0  0  0
  2  9  1  0  0  0  0
  3 10  1  0  0  0  0
  3  4  1  0  0  0  0
  4  5  1  0  0  0  0
  4 13  1  0  0  0  0
  5 14  1  0  0  0  0
  5 15  1  0  0  0  0
  6 16  1  6  0  0  0
  6 26  1  0  0  0  0
  6  5  1  0  0  0  0
  8  2  1  0  0  0  0
 11  3  1  0  0  0  0
 12  4  1  0  0  0  0
 17 18  1  0  0  0  0
 18 24  1  0  0  0  0
 18 19  2  0  0  0  0
 19  1  1  0  0  0  0
 20 19  1  0  0  0  0
 21 20  2  0  0  0  0
 22 17  2  0  0  0  0
 22 21  1  0  0  0  0
 23 17  1  0  0  0  0
 25 21  1  0  0  0  0
 26 28  1  0  0  0  0
 26 27  1  0  0  0  0
 28 27  1  0  0  0  0
M  END
>  <minimizedAffinity>
-4.14124346

$$$$

 OpenBabel03262523553D

 28 30  0  0  1  0  0  0  0  0999 V2000
   38.8690   24.8790   36.0530 C   0  0  1  0  0  0  0  0  0  0  0  0
   37.7680   24.5760   36.9860 C   0  0  0  0  0  0  0  0  0  0  0  0
   38.3300   23.9150   38.2090 C   0  0  0  0  0  0  0  0  0  0  0  0
   39.4370   22.9860   37.8710 C   0  0  0  0  0  0  0  0  0  0  0  0
   39.4820   22.4920   36.4770 C   0  0  0  0  0  0  0  0  0  0  0  0
   39.2520   23.5330   35.4080 C   0  0  1  0  0  0  0  0  0  0  0  0
   39.7820   25.1650   36.6350 H   0  0  0  0  0  0  0  0  0  0  0  0
   37.3110   25.5350   37.3280 H   0  0  0  0  0  0  0  0  0  0  0  0
   36.9470   23.9810   36.5290 H   0  0  0  0  0  0  0  0  0  0  0  0
   37.5120   23.3220   38.6730 H   0  0  0  0  0  0  0  0  0  0  0  0
   38.6380   24.6480   38.9920 H   0  0  0  0  0  0  0  0  0  0  0  0
   40.3890   23.5620   38.0690 H   0  0  0  0  0  0  0  0  0  0  0  0
   39.4320   22.1120   38.5450 H   0  0  0  0  0  0  0  0  0  0  0  0
   40.4660   21.9570   36.3590 H   0  0  0  0  0  0  0  0  0  0  0  0
   38.6600   21.7210   36.3850 H   0  0  0  0  0  0  0  0  0  0  0  0
   40.2250   23.6380   34.8920 H   0  0  0  0  0  0  0  0  0  0  0  0
   36.9810   27.2590   33.8940 C   0  0  0  0  0  0  0  0  0  0  0  0
   37.2830   26.3710   34.9640 C   0  0  0  0  0  0  0  0  0  0  0  0
   38.5510   25.7980   34.9630 C   0  0  0  0  0  0  0  0  0  0  0  0
   39.4350   26.1090   33.9520 N   0  0  0  0  0  0  0  0  0  0  0  0
   39.1130   26.9510   32.9590 C   0  0  0  0  0  0  0  0  0  0  0  0
   37.8840   27.5310   32.9250 N   0  0  0  0  0  0  0  0  0  0  0  0
   36.0230   27.7520   33.8090 H   0  0  0  0  0  0  0  0  0  0  0  0
   36.4790   26.2480   35.6390 H   0  0  0  0  0  0  0  0  0  0  0  0
   39.9150   27.0870   32.2490 H   0  0  0  0  0  0  0  0  0  0  0  0
   38.2270   23.0590   34.4200 C   0  0  0  0  0  3  0  0  0  0  0  0
   37.5110   21.7930   34.7040 C   0  0  0  0  0  2  0  0  0  0  0  0
   38.5050   21.8690   33.5690 C   0  0  0  0  0  2  0  0  0  0  0  0
  1  7  1  1  0  0  0
  1  2  1  0  0  0  0
  2  8  1  0  0  0  0
  2  3  1  0  0  0  0
  3 10  1  0  0  0  0
  3 11  1  0  0  0  0
  4 12  1  0  0  0  0
  4  3  1  0  0  0  0
  4 13  1  0  0  0  0
  5  4  1  0  0  0  0
  6 16  1  6  0  0  0
  6  1  1  0  0  0  0
  6  5  1  0  0  0  0
  9  2  1  0  0  0  0
 14  5  1  0  0  0  0
 15  5  1  0  0  0  0
 17 18  1  0  0  0  0
 18 24  1  0  0  0  0
 19 18  2  0  0  0  0
 19  1  1  0  0  0  0
 20 19  1  0  0  0  0
 21 20  2  0  0  0  0
 22 21  1  0  0  0  0
 22 17  2  0  0  0  0
 23 17  1  0  0  0  0
 25 21  1  0  0  0  0
 26 27  1  0  0  0  0
 26  6  1  0  0  0  0
 28 26  1  0  0  0  0
 28 27  1  0  0  0  0
M  END
>  <minimizedAffinity>
-4.1261363

$$$$

 OpenBabel03262523553D

 28 30  0  0  1  0  0  0  0  0999 V2000
   38.4350   24.4080   34.5660 C   0  0  1  0  0  0  0  0  0  0  0  0
   37.6040   25.6060   34.3450 C   0  0  0  0  0  0  0  0  0  0  0  0
   37.2090   25.6670   32.8990 C   0  0  0  0  0  0  0  0  0  0  0  0
   38.3120   25.2200   32.0110 C   0  0  0  0  0  0  0  0  0  0  0  0
   39.6780   25.2730   32.5770 C   0  0  0  0  0  0  0  0  0  0  0  0
   39.8210   24.7490   33.9850 C   0  0  1  0  0  0  0  0  0  0  0  0
   38.0700   23.5750   33.9150 H   0  0  0  0  0  0  0  0  0  0  0  0
   36.6560   25.4990   34.9260 H   0  0  0  0  0  0  0  0  0  0  0  0
   38.0800   26.5490   34.6890 H   0  0  0  0  0  0  0  0  0  0  0  0
   36.9820   26.7280   32.6600 H   0  0  0  0  0  0  0  0  0  0  0  0
   36.2650   25.1130   32.6870 H   0  0  0  0  0  0  0  0  0  0  0  0
   38.0790   24.1450   31.7540 H   0  0  0  0  0  0  0  0  0  0  0  0
   38.3080   25.7940   31.0670 H   0  0  0  0  0  0  0  0  0  0  0  0
   40.3470   24.7400   31.8440 H   0  0  0  0  0  0  0  0  0  0  0  0
   39.9780   26.3620   32.5850 H   0  0  0  0  0  0  0  0  0  0  0  0
   40.4160   23.8200   33.8890 H   0  0  0  0  0  0  0  0  0  0  0  0
   38.0480   24.2500   38.2700 C   0  0  0  0  0  0  0  0  0  0  0  0
   37.8330   24.6280   36.9160 C   0  0  0  0  0  0  0  0  0  0  0  0
   38.6420   24.0210   35.9600 C   0  0  0  0  0  0  0  0  0  0  0  0
   39.5910   23.1040   36.3590 N   0  0  0  0  0  0  0  0  0  0  0  0
   39.7640   22.7730   37.6470 C   0  0  0  0  0  0  0  0  0  0  0  0
   38.9930   23.3450   38.6090 N   0  0  0  0  0  0  0  0  0  0  0  0
   37.4700   24.6670   39.0830 H   0  0  0  0  0  0  0  0  0  0  0  0
   37.0700   25.3510   36.8040 H   0  0  0  0  0  0  0  0  0  0  0  0
   40.5460   22.0420   37.7900 H   0  0  0  0  0  0  0  0  0  0  0  0
   40.5770   25.7250   34.8380 C   0  0  0  0  0  3  0  0  0  0  0  0
   41.1390   26.9340   34.1910 C   0  0  0  0  0  2  0  0  0  0  0  0
   42.0550   25.8470   34.7020 C   0  0  0  0  0  2  0  0  0  0  0  0
  1  7  1  6  0  0  0
  1 19  1  0  0  0  0
  2  1  1  0  0  0  0
  2  9  1  0  0  0  0
  2  8  1  0  0  0  0
  3  2  1  0  0  0  0
  4  5  1  0  0  0  0
  4  3  1  0  0  0  0
  5 15  1  0  0  0  0
  5  6  1  0  0  0  0
  6 16  1  6  0  0  0
  6  1  1  0  0  0  0
  6 26  1  0  0  0  0
 10  3  1  0  0  0  0
 11  3  1  0  0  0  0
 12  4  1  0  0  0  0
 13  4  1  0  0  0  0
 14  5  1  0  0  0  0
 17 22  1  0  0  0  0
 17 23  1  0  0  0  0
 18 17  2  0  0  0  0
 19 20  2  0  0  0  0
 19 18  1  0  0  0  0
 20 21  1  0  0  0  0
 21 25  1  0  0  0  0
 21 22  2  0  0  0  0
 24 18  1  0  0  0  0
 27 28  1  0  0  0  0
 27 26  1  0  0  0  0
 28 26  1  0  0  0  0
M  END
>  <minimizedAffinity>
-4.12589979

$$$$

 OpenBabel03262523553D

 28 30  0  0  1  0  0  0  0  0999 V2000
   38.3110   25.8330   33.6220 C   0  0  1  0  0  0  0  0  0  0  0  0
   39.5100   26.6480   33.8910 C   0  0  0  0  0  0  0  0  0  0  0  0
   39.5330   27.0200   35.3440 C   0  0  0  0  0  0  0  0  0  0  0  0
   38.1710   27.3150   35.8560 C   0  0  0  0  0  0  0  0  0  0  0  0
   37.1510   27.6780   34.8470 C   0  0  0  0  0  0  0  0  0  0  0  0
   37.1290   26.8220   33.6040 C   0  0  1  0  0  0  0  0  0  0  0  0
   38.0980   25.1790   34.5050 H   0  0  0  0  0  0  0  0  0  0  0  0
   40.4180   26.0240   33.7120 H   0  0  0  0  0  0  0  0  0  0  0  0
   39.6030   27.5370   33.2300 H   0  0  0  0  0  0  0  0  0  0  0  0
   40.1460   27.9420   35.4420 H   0  0  0  0  0  0  0  0  0  0  0  0
   40.0490   26.2590   35.9750 H   0  0  0  0  0  0  0  0  0  0  0  0
   37.8300   26.3730   36.3760 H   0  0  0  0  0  0  0  0  0  0  0  0
   38.2060   28.1180   36.6140 H   0  0  0  0  0  0  0  0  0  0  0  0
   36.1610   27.6910   35.3850 H   0  0  0  0  0  0  0  0  0  0  0  0
   37.3810   28.7380   34.5280 H   0  0  0  0  0  0  0  0  0  0  0  0
   36.1790   26.2580   33.6580 H   0  0  0  0  0  0  0  0  0  0  0  0
   39.3720   24.5780   30.2770 C   0  0  0  0  0  0  0  0  0  0  0  0
   39.4040   25.2660   31.5220 C   0  0  0  0  0  0  0  0  0  0  0  0
   38.2910   25.1240   32.3450 C   0  0  0  0  0  0  0  0  0  0  0  0
   37.2340   24.3440   31.9270 N   0  0  0  0  0  0  0  0  0  0  0  0
   37.2410   23.7100   30.7450 C   0  0  0  0  0  0  0  0  0  0  0  0
   38.3100   23.8240   29.9140 N   0  0  0  0  0  0  0  0  0  0  0  0
   40.1900   24.6270   29.5710 H   0  0  0  0  0  0  0  0  0  0  0  0
   40.2920   25.8210   31.6650 H   0  0  0  0  0  0  0  0  0  0  0  0
   36.3400   23.1430   30.5690 H   0  0  0  0  0  0  0  0  0  0  0  0
   37.1160   27.6790   32.3730 C   0  0  0  0  0  3  0  0  0  0  0  0
   36.3420   28.9420   32.4040 C   0  0  0  0  0  2  0  0  0  0  0  0
   35.8800   27.7850   31.5490 C   0  0  0  0  0  2  0  0  0  0  0  0
  1  2  1  0  0  0  0
  1  7  1  1  0  0  0
  2  3  1  0  0  0  0
  3 10  1  0  0  0  0
  3  4  1  0  0  0  0
  3 11  1  0  0  0  0
  4 12  1  0  0  0  0
  4 13  1  0  0  0  0
  5 14  1  0  0  0  0
  5  4  1  0  0  0  0
  6  1  1  0  0  0  0
  6 16  1  1  0  0  0
  6  5  1  0  0  0  0
  8  2  1  0  0  0  0
  9  2  1  0  0  0  0
 15  5  1  0  0  0  0
 17 18  1  0  0  0  0
 18 24  1  0  0  0  0
 18 19  2  0  0  0  0
 19  1  1  0  0  0  0
 20 19  1  0  0  0  0
 21 20  2  0  0  0  0
 22 17  2  0  0  0  0
 22 21  1  0  0  0  0
 23 17  1  0  0  0  0
 25 21  1  0  0  0  0
 26 27  1  0  0  0  0
 26  6  1  0  0  0  0
 28 26  1  0  0  0  0
 28 27  1  0  0  0  0
M  END
>  <minimizedAffinity>
-4.10262346

$$$$

 OpenBabel03262523553D

 28 30  0  0  1  0  0  0  0  0999 V2000
   37.2500   21.0650   33.1880 C   0  0  1  0  0  0  0  0  0  0  0  0
   35.8870   20.8180   33.6950 C   0  0  0  0  0  0  0  0  0  0  0  0
   35.2620   19.7110   32.8990 C   0  0  0  0  0  0  0  0  0  0  0  0
   35.6360   19.7890   31.4640 C   0  0  0  0  0  0  0  0  0  0  0  0
   36.0930   21.1070   30.9720 C   0  0  0  0  0  0  0  0  0  0  0  0
   37.0700   21.8330   31.8650 C   0  0  1  0  0  0  0  0  0  0  0  0
   37.7120   20.0960   32.8740 H   0  0  0  0  0  0  0  0  0  0  0  0
   35.9540   20.4510   34.7470 H   0  0  0  0  0  0  0  0  0  0  0  0
   35.2480   21.7280   33.7190 H   0  0  0  0  0  0  0  0  0  0  0  0
   34.1600   19.8270   32.9750 H   0  0  0  0  0  0  0  0  0  0  0  0
   35.4790   18.7010   33.3220 H   0  0  0  0  0  0  0  0  0  0  0  0
   36.4800   19.0510   31.3280 H   0  0  0  0  0  0  0  0  0  0  0  0
   34.7990   19.4550   30.8260 H   0  0  0  0  0  0  0  0  0  0  0  0
   36.4950   20.9380   29.9330 H   0  0  0  0  0  0  0  0  0  0  0  0
   35.1690   21.7520   30.8810 H   0  0  0  0  0  0  0  0  0  0  0  0
   38.0270   21.8320   31.3080 H   0  0  0  0  0  0  0  0  0  0  0  0
   40.2400   22.9090   34.4330 C   0  0  0  0  0  0  0  0  0  0  0  0
   39.4070   22.1200   33.5920 C   0  0  0  0  0  0  0  0  0  0  0  0
   38.1110   21.8810   34.0400 C   0  0  0  0  0  0  0  0  0  0  0  0
   37.7040   22.4070   35.2480 N   0  0  0  0  0  0  0  0  0  0  0  0
   38.5190   23.1480   36.0130 C   0  0  0  0  0  0  0  0  0  0  0  0
   39.7920   23.4020   35.6090 N   0  0  0  0  0  0  0  0  0  0  0  0
   41.2610   23.1480   34.1700 H   0  0  0  0  0  0  0  0  0  0  0  0
   39.8950   21.7980   32.7120 H   0  0  0  0  0  0  0  0  0  0  0  0
   38.0480   23.4820   36.9250 H   0  0  0  0  0  0  0  0  0  0  0  0
   36.6350   23.2530   32.0790 C   0  0  0  0  0  3  0  0  0  0  0  0
   35.5020   23.7700   31.2760 C   0  0  0  0  0  2  0  0  0  0  0  0
   36.9030   24.2830   31.0370 C   0  0  0  0  0  2  0  0  0  0  0  0
  1  7  1  6  0  0  0
  1  2  1  0  0  0  0
  1 19  1  0  0  0  0
  2  9  1  0  0  0  0
  2  8  1  0  0  0  0
  3 10  1  0  0  0  0
  3 11  1  0  0  0  0
  3  2  1  0  0  0  0
  4  3  1  0  0  0  0
  5  4  1  0  0  0  0
  5  6  1  0  0  0  0
  6 16  1  6  0  0  0
  6 26  1  0  0  0  0
  6  1  1  0  0  0  0
 12  4  1  0  0  0  0
 13  4  1  0  0  0  0
 14  5  1  0  0  0  0
 15  5  1  0  0  0  0
 17 22  1  0  0  0  0
 18 19  1  0  0  0  0
 18 17  2  0  0  0  0
 19 20  2  0  0  0  0
 20 21  1  0  0  0  0
 21 25  1  0  0  0  0
 22 21  2  0  0  0  0
 23 17  1  0  0  0  0
 24 18  1  0  0  0  0
 27 26  1  0  0  0  0
 28 27  1  0  0  0  0
 28 26  1  0  0  0  0
M  END
>  <minimizedAffinity>
-4.05935812

$$$$

 OpenBabel03262523553D

 28 30  0  0  1  0  0  0  0  0999 V2000
   38.6020   23.7080   34.8110 C   0  0  1  0  0  0  0  0  0  0  0  0
   39.9670   23.6320   35.3620 C   0  0  0  0  0  0  0  0  0  0  0  0
   39.9090   23.0220   36.7310 C   0  0  0  0  0  0  0  0  0  0  0  0
   38.7120   23.4750   37.4830 C   0  0  0  0  0  0  0  0  0  0  0  0
   38.0880   24.7380   37.0300 C   0  0  0  0  0  0  0  0  0  0  0  0
   37.9240   24.8850   35.5370 C   0  0  1  0  0  0  0  0  0  0  0  0
   38.0150   22.8150   35.1440 H   0  0  0  0  0  0  0  0  0  0  0  0
   40.5730   22.9360   34.7330 H   0  0  0  0  0  0  0  0  0  0  0  0
   40.5040   24.6050   35.3610 H   0  0  0  0  0  0  0  0  0  0  0  0
   40.8120   23.3590   37.2840 H   0  0  0  0  0  0  0  0  0  0  0  0
   39.9800   21.9090   36.7100 H   0  0  0  0  0  0  0  0  0  0  0  0
   37.9510   22.6480   37.3720 H   0  0  0  0  0  0  0  0  0  0  0  0
   38.9420   23.5720   38.5590 H   0  0  0  0  0  0  0  0  0  0  0  0
   37.1120   24.8290   37.5860 H   0  0  0  0  0  0  0  0  0  0  0  0
   38.7630   25.5730   37.3840 H   0  0  0  0  0  0  0  0  0  0  0  0
   36.8320   24.8450   35.3600 H   0  0  0  0  0  0  0  0  0  0  0  0
   39.5890   24.3600   31.2760 C   0  0  0  0  0  0  0  0  0  0  0  0
   39.6960   24.0890   32.6690 C   0  0  0  0  0  0  0  0  0  0  0  0
   38.5040   23.9780   33.3780 C   0  0  0  0  0  0  0  0  0  0  0  0
   37.3040   24.1320   32.7170 N   0  0  0  0  0  0  0  0  0  0  0  0
   37.2440   24.3860   31.4010 C   0  0  0  0  0  0  0  0  0  0  0  0
   38.3870   24.5020   30.6740 N   0  0  0  0  0  0  0  0  0  0  0  0
   40.4580   24.4630   30.6420 H   0  0  0  0  0  0  0  0  0  0  0  0
   40.6960   24.0130   32.9990 H   0  0  0  0  0  0  0  0  0  0  0  0
   36.2320   24.4790   31.0390 H   0  0  0  0  0  0  0  0  0  0  0  0
   38.4400   26.2170   35.0780 C   0  0  0  0  0  3  0  0  0  0  0  0
   38.5720   27.3030   36.0780 C   0  0  0  0  0  2  0  0  0  0  0  0
   37.5220   27.3870   34.9950 C   0  0  0  0  0  2  0  0  0  0  0  0
  1  7  1  1  0  0  0
  1  2  1  0  0  0  0
  1  6  1  0  0  0  0
  2  3  1  0  0  0  0
  3 10  1  0  0  0  0
  3  4  1  0  0  0  0
  4 13  1  0  0  0  0
  5 15  1  0  0  0  0
  5  4  1  0  0  0  0
  5 14  1  0  0  0  0
  6 16  1  6  0  0  0
  6  5  1  0  0  0  0
  8  2  1  0  0  0  0
  9  2  1  0  0  0  0
 11  3  1  0  0  0  0
 12  4  1  0  0  0  0
 17 18  1  0  0  0  0
 18 24  1  0  0  0  0
 18 19  2  0  0  0  0
 19  1  1  0  0  0  0
 20 19  1  0  0  0  0
 21 20  2  0  0  0  0
 22 17  2  0  0  0  0
 22 21  1  0  0  0  0
 23 17  1  0  0  0  0
 25 21  1  0  0  0  0
 26  6  1  0  0  0  0
 26 27  1  0  0  0  0
 28 26  1  0  0  0  0
 28 27  1  0  0  0  0
M  END
>  <minimizedAffinity>
-3.98180556

$$$$

 OpenBabel03262523553D

 28 30  0  0  1  0  0  0  0  0999 V2000
   36.0580   21.8570   31.5240 C   0  0  1  0  0  0  0  0  0  0  0  0
   36.7340   20.6860   30.9370 C   0  0  0  0  0  0  0  0  0  0  0  0
   35.8320   19.4930   31.0500 C   0  0  0  0  0  0  0  0  0  0  0  0
   35.0860   19.4890   32.3340 C   0  0  0  0  0  0  0  0  0  0  0  0
   35.6630   20.2930   33.4340 C   0  0  0  0  0  0  0  0  0  0  0  0
   36.1490   21.6700   33.0510 C   0  0  1  0  0  0  0  0  0  0  0  0
   34.9600   21.7990   31.3130 H   0  0  0  0  0  0  0  0  0  0  0  0
   36.8830   20.8650   29.8450 H   0  0  0  0  0  0  0  0  0  0  0  0
   37.7410   20.4910   31.3640 H   0  0  0  0  0  0  0  0  0  0  0  0
   36.4740   18.5860   31.0220 H   0  0  0  0  0  0  0  0  0  0  0  0
   35.1440   19.3890   30.1790 H   0  0  0  0  0  0  0  0  0  0  0  0
   34.0640   19.9060   32.0930 H   0  0  0  0  0  0  0  0  0  0  0  0
   34.9450   18.4570   32.6990 H   0  0  0  0  0  0  0  0  0  0  0  0
   34.8880   20.3170   34.2520 H   0  0  0  0  0  0  0  0  0  0  0  0
   36.5510   19.7120   33.8220 H   0  0  0  0  0  0  0  0  0  0  0  0
   35.4530   22.3710   33.5480 H   0  0  0  0  0  0  0  0  0  0  0  0
   36.4760   25.5480   31.2100 C   0  0  0  0  0  0  0  0  0  0  0  0
   35.8930   24.2860   31.5170 C   0  0  0  0  0  0  0  0  0  0  0  0
   36.6500   23.1580   31.2200 C   0  0  0  0  0  0  0  0  0  0  0  0
   37.8980   23.3080   30.6540 N   0  0  0  0  0  0  0  0  0  0  0  0
   38.4140   24.5150   30.3780 C   0  0  0  0  0  0  0  0  0  0  0  0
   37.7050   25.6410   30.6550 N   0  0  0  0  0  0  0  0  0  0  0  0
   35.9650   26.4800   31.4050 H   0  0  0  0  0  0  0  0  0  0  0  0
   34.9270   24.3690   31.9380 H   0  0  0  0  0  0  0  0  0  0  0  0
   39.3980   24.4590   29.9380 H   0  0  0  0  0  0  0  0  0  0  0  0
   37.5350   21.9050   33.5770 C   0  0  0  0  0  3  0  0  0  0  0  0
   37.7610   21.7910   35.0370 C   0  0  0  0  0  2  0  0  0  0  0  0
   37.8390   23.1380   34.3560 C   0  0  0  0  0  2  0  0  0  0  0  0
  1  7  1  6  0  0  0
  1  6  1  0  0  0  0
  2  3  1  0  0  0  0
  2  9  1  0  0  0  0
  2  1  1  0  0  0  0
  3  4  1  0  0  0  0
  4 13  1  0  0  0  0
  4  5  1  0  0  0  0
  5 15  1  0  0  0  0
  5 14  1  0  0  0  0
  6  5  1  0  0  0  0
  6 16  1  1  0  0  0
  6 26  1  0  0  0  0
  8  2  1  0  0  0  0
 10  3  1  0  0  0  0
 11  3  1  0  0  0  0
 12  4  1  0  0  0  0
 17 23  1  0  0  0  0
 17 18  1  0  0  0  0
 18 24  1  0  0  0  0
 19 18  2  0  0  0  0
 19  1  1  0  0  0  0
 20 19  1  0  0  0  0
 21 20  2  0  0  0  0
 21 22  1  0  0  0  0
 22 17  2  0  0  0  0
 25 21  1  0  0  0  0
 26 28  1  0  0  0  0
 26 27  1  0  0  0  0
 28 27  1  0  0  0  0
M  END
>  <minimizedAffinity>
-3.97874951

$$$$
