
 OpenBabel03272505473D

 28 31  0  0  0  0  0  0  0  0999 V2000
   36.5490   30.4590   44.5820 C   0  0  0  0  0  0  0  0  0  0  0  0
   35.7330   29.3410   44.0580 C   0  0  0  0  0  0  0  0  0  0  0  0
   35.1690   30.7350   44.0670 C   0  0  0  0  0  0  0  0  0  0  0  0
   35.2270   28.6630   44.7550 H   0  0  0  0  0  0  0  0  0  0  0  0
   35.9660   28.8610   43.0910 H   0  0  0  0  0  0  0  0  0  0  0  0
   34.3970   31.0060   44.8160 H   0  0  0  0  0  0  0  0  0  0  0  0
   35.1100   31.3200   43.1210 H   0  0  0  0  0  0  0  0  0  0  0  0
   38.7700   32.8860   42.8940 C   0  0  0  0  0  0  0  0  0  0  0  0
   39.8020   32.0640   42.4000 C   0  0  0  0  0  0  0  0  0  0  0  0
   39.7220   30.6720   42.6490 C   0  0  0  0  0  0  0  0  0  0  0  0
   38.6600   30.1890   43.3500 N   0  0  0  0  0  0  0  0  0  0  0  0
   37.6770   31.0240   43.8130 C   0  0  0  0  0  0  0  0  0  0  0  0
   37.7320   32.3510   43.5880 N   0  0  0  0  0  0  0  0  0  0  0  0
   38.7080   33.9420   42.7790 H   0  0  0  0  0  0  0  0  0  0  0  0
   40.5930   32.5510   41.8600 H   0  0  0  0  0  0  0  0  0  0  0  0
   40.5140   30.0760   42.2640 H   0  0  0  0  0  0  0  0  0  0  0  0
   36.7700   30.5510   46.0650 C   0  0  0  0  0  0  0  0  0  0  0  0
   37.9600   30.9550   46.5750 C   0  0  0  0  0  0  0  0  0  0  0  0
   38.1580   31.0540   47.9410 C   0  0  0  0  0  0  0  0  0  0  0  0
   37.0950   30.7220   48.7800 C   0  0  0  0  0  0  0  0  0  0  0  0
   35.8720   30.3030   48.2520 C   0  0  0  0  0  0  0  0  0  0  0  0
   35.7530   30.2330   46.9050 N   0  0  0  0  0  0  0  0  0  0  0  0
   38.8720   31.2210   46.0780 H   0  0  0  0  0  0  0  0  0  0  0  0
   39.0290   31.3540   48.4680 H   0  0  0  0  0  0  0  0  0  0  0  0
   37.1660   30.7700   49.8710 H   0  0  0  0  0  0  0  0  0  0  0  0
   34.7630   29.9570   49.1800 C   0  0  0  0  0  0  0  0  0  0  0  0
   35.0800   29.3470   50.5090 C   0  0  0  0  0  0  0  0  0  0  0  0
   34.5400   28.4360   49.4530 C   0  0  0  0  0  0  0  0  0  0  0  0
  1 17  1  0  0  0  0
  2  3  1  0  0  0  0
  2  1  1  0  0  0  0
  2  4  1  0  0  0  0
  3  1  1  0  0  0  0
  3  6  1  0  0  0  0
  5  2  1  0  0  0  0
  7  3  1  0  0  0  0
  8 13  1  0  0  0  0
  9 10  1  0  0  0  0
  9  8  2  0  0  0  0
 10 11  2  0  0  0  0
 11 12  1  0  0  0  0
 12  1  1  0  0  0  0
 13 12  2  0  0  0  0
 14  8  1  0  0  0  0
 15  9  1  0  0  0  0
 16 10  1  0  0  0  0
 17 18  2  0  0  0  0
 17 22  1  0  0  0  0
 18 19  1  0  0  0  0
 19 24  1  0  0  0  0
 19 20  2  0  0  0  0
 20 25  1  0  0  0  0
 21 20  1  0  0  0  0
 21 26  1  0  0  0  0
 22 21  2  0  0  0  0
 23 18  1  0  0  0  0
 26 28  1  0  0  0  0
 26 27  1  0  0  0  0
 28 27  1  0  0  0  0
M  END
>  <minimizedAffinity>
-4.81235695

>  <minimizedRMSD>
3.11903739

$$$$
