
 OpenBabel03262522333D

 21 23  0  0  0  0  0  0  0  0999 V2000
   37.9720   31.9360   49.1020 C   0  0  0  0  0  0  0  0  0  0  0  0
   38.4820   33.0820   49.6690 C   0  0  0  0  0  0  0  0  0  0  0  0
   39.3190   33.9650   49.0160 C   0  0  0  0  0  0  0  0  0  0  0  0
   39.6840   33.7050   47.7080 C   0  0  0  0  0  0  0  0  0  0  0  0
   39.1670   32.5600   47.1590 C   0  0  0  0  0  0  0  0  0  0  0  0
   38.3520   31.7140   47.8140 N   0  0  0  0  0  0  0  0  0  0  0  0
   38.2260   33.3270   50.6890 H   0  0  0  0  0  0  0  0  0  0  0  0
   39.7040   34.8610   49.4980 H   0  0  0  0  0  0  0  0  0  0  0  0
   40.3350   34.3530   47.1400 H   0  0  0  0  0  0  0  0  0  0  0  0
   37.4350   30.3700   50.9990 C   0  0  0  0  0  0  0  0  0  0  0  0
   37.0920   31.0150   49.7950 C   0  0  0  0  0  0  0  0  0  0  0  0
   35.8480   30.7550   49.2460 C   0  0  0  0  0  0  0  0  0  0  0  0
   35.0090   29.8940   49.8810 N   0  0  0  0  0  0  0  0  0  0  0  0
   35.3700   29.2880   51.0410 C   0  0  0  0  0  0  0  0  0  0  0  0
   36.5730   29.5200   51.6020 N   0  0  0  0  0  0  0  0  0  0  0  0
   38.4250   30.6500   51.3300 H   0  0  0  0  0  0  0  0  0  0  0  0
   35.4670   31.1900   48.3220 H   0  0  0  0  0  0  0  0  0  0  0  0
   34.6910   28.6030   51.5390 H   0  0  0  0  0  0  0  0  0  0  0  0
   39.5360   32.2440   45.7490 C   0  0  0  0  0  0  0  0  0  0  0  0
   40.8140   32.6620   45.1630 C   0  0  0  0  0  0  0  0  0  0  0  0
   40.6820   31.2390   45.5760 C   0  0  0  0  0  0  0  0  0  0  0  0
  1  2  1  0  0  0  0
  1 11  1  0  0  0  0
  2  7  1  0  0  0  0
  3  8  1  0  0  0  0
  3  2  2  0  0  0  0
  4  3  1  0  0  0  0
  5  4  2  0  0  0  0
  5  6  1  0  0  0  0
  6  1  2  0  0  0  0
  9  4  1  0  0  0  0
 10 16  1  0  0  0  0
 10 15  1  0  0  0  0
 11 10  2  0  0  0  0
 12 11  1  0  0  0  0
 12 13  2  0  0  0  0
 13 14  1  0  0  0  0
 14 18  1  0  0  0  0
 14 15  2  0  0  0  0
 17 12  1  0  0  0  0
 19  5  1  0  0  0  0
 20 21  1  0  0  0  0
 20 19  1  0  0  0  0
 21 19  1  0  0  0  0
M  END
>  <minimizedAffinity>
-5.69592476

>  <minimizedRMSD>
0.559807241

$$$$
