
 OpenBabel03272501513D

 24 26  0  0  0  0  0  0  0  0999 V2000
   38.4020   25.5320   35.2470 C   0  0  0  0  0  0  0  0  0  0  0  0
   38.3180   26.7590   35.8440 C   0  0  0  0  0  0  0  0  0  0  0  0
   37.6270   27.8000   35.2040 C   0  0  0  0  0  0  0  0  0  0  0  0
   37.0260   27.5670   33.9530 C   0  0  0  0  0  0  0  0  0  0  0  0
   37.1150   26.3130   33.3470 C   0  0  0  0  0  0  0  0  0  0  0  0
   37.8070   25.3510   34.0360 C   0  0  0  0  0  0  0  0  0  0  0  0
   38.7800   26.9380   36.8070 H   0  0  0  0  0  0  0  0  0  0  0  0
   37.5830   28.7540   35.7090 H   0  0  0  0  0  0  0  0  0  0  0  0
   36.5230   28.4570   33.5670 H   0  0  0  0  0  0  0  0  0  0  0  0
   36.6310   26.2410   32.4060 H   0  0  0  0  0  0  0  0  0  0  0  0
   41.0420   23.0250   36.2480 C   0  0  0  0  0  0  0  0  0  0  0  0
   40.4010   24.0150   35.4970 C   0  0  0  0  0  0  0  0  0  0  0  0
   39.1500   24.5050   35.9390 C   0  0  0  0  0  0  0  0  0  0  0  0
   38.6600   23.9740   37.0710 N   0  0  0  0  0  0  0  0  0  0  0  0
   39.3010   23.0210   37.7760 C   0  0  0  0  0  0  0  0  0  0  0  0
   40.4970   22.5450   37.3610 N   0  0  0  0  0  0  0  0  0  0  0  0
   38.6110   22.5960   38.9480 N   0  0  0  0  0  0  0  0  0  0  0  0
   42.0010   22.6760   35.8730 H   0  0  0  0  0  0  0  0  0  0  0  0
   40.7920   24.4380   34.5920 H   0  0  0  0  0  0  0  0  0  0  0  0
   38.5280   21.6350   39.3820 H   0  0  0  0  0  0  0  0  0  0  0  0
   38.0740   23.2700   39.5360 H   0  0  0  0  0  0  0  0  0  0  0  0
   37.7710   24.0520   33.2900 C   0  0  0  0  0  3  0  0  0  0  0  0
   38.8240   23.8820   32.1660 C   0  0  0  0  0  2  0  0  0  0  0  0
   37.3980   24.0350   31.8590 C   0  0  0  0  0  2  0  0  0  0  0  0
  1  2  1  0  0  0  0
  1 13  1  0  0  0  0
  2  7  1  0  0  0  0
  3  8  1  0  0  0  0
  3  2  2  0  0  0  0
  4  3  1  0  0  0  0
  5  4  2  0  0  0  0
  5  6  1  0  0  0  0
  6  1  2  0  0  0  0
  9  4  1  0  0  0  0
 10  5  1  0  0  0  0
 11 16  1  0  0  0  0
 12 13  1  0  0  0  0
 12 11  2  0  0  0  0
 13 14  2  0  0  0  0
 14 15  1  0  0  0  0
 15 17  1  0  0  0  0
 16 15  2  0  0  0  0
 17 20  1  0  0  0  0
 17 21  1  0  0  0  0
 18 11  1  0  0  0  0
 19 12  1  0  0  0  0
 22  6  1  0  0  0  0
 23 22  1  0  0  0  0
 24 23  1  0  0  0  0
 24 22  1  0  0  0  0
M  END
>  <minimizedAffinity>
-4.86577463

$$$$

 OpenBabel03272501513D

 24 26  0  0  0  0  0  0  0  0999 V2000
   39.6750   24.3960   35.6850 C   0  0  0  0  0  0  0  0  0  0  0  0
   40.9060   24.2690   35.1050 C   0  0  0  0  0  0  0  0  0  0  0  0
   41.8150   23.3190   35.5980 C   0  0  0  0  0  0  0  0  0  0  0  0
   41.4450   22.5060   36.6860 C   0  0  0  0  0  0  0  0  0  0  0  0
   40.1880   22.6390   37.2760 C   0  0  0  0  0  0  0  0  0  0  0  0
   39.3600   23.5890   36.7360 C   0  0  0  0  0  0  0  0  0  0  0  0
   41.1890   24.8940   34.2670 H   0  0  0  0  0  0  0  0  0  0  0  0
   42.7760   23.2490   35.1110 H   0  0  0  0  0  0  0  0  0  0  0  0
   42.2410   21.8130   36.9690 H   0  0  0  0  0  0  0  0  0  0  0  0
   40.0070   21.9830   38.0880 H   0  0  0  0  0  0  0  0  0  0  0  0
   37.7610   27.6020   35.1220 C   0  0  0  0  0  0  0  0  0  0  0  0
   38.6390   26.6950   35.7240 C   0  0  0  0  0  0  0  0  0  0  0  0
   38.7890   25.4100   35.1530 C   0  0  0  0  0  0  0  0  0  0  0  0
   38.0640   25.1490   34.0540 N   0  0  0  0  0  0  0  0  0  0  0  0
   37.2250   26.0430   33.4950 C   0  0  0  0  0  0  0  0  0  0  0  0
   37.0740   27.2750   34.0330 N   0  0  0  0  0  0  0  0  0  0  0  0
   36.5530   25.5680   32.3320 N   0  0  0  0  0  0  0  0  0  0  0  0
   37.6760   28.5780   35.5930 H   0  0  0  0  0  0  0  0  0  0  0  0
   39.2190   26.9030   36.6030 H   0  0  0  0  0  0  0  0  0  0  0  0
   35.5640   25.7380   31.9960 H   0  0  0  0  0  0  0  0  0  0  0  0
   37.0320   24.9480   31.6430 H   0  0  0  0  0  0  0  0  0  0  0  0
   38.0340   23.5800   37.4350 C   0  0  0  0  0  3  0  0  0  0  0  0
   37.8950   24.5330   38.6480 C   0  0  0  0  0  2  0  0  0  0  0  0
   37.9370   23.0780   38.8220 C   0  0  0  0  0  2  0  0  0  0  0  0
  1  6  1  0  0  0  0
  2  3  1  0  0  0  0
  2  1  2  0  0  0  0
  3  4  2  0  0  0  0
  4  9  1  0  0  0  0
  4  5  1  0  0  0  0
  5 10  1  0  0  0  0
  6  5  2  0  0  0  0
  6 22  1  0  0  0  0
  7  2  1  0  0  0  0
  8  3  1  0  0  0  0
 11 18  1  0  0  0  0
 11 12  1  0  0  0  0
 12 19  1  0  0  0  0
 13  1  1  0  0  0  0
 13 12  2  0  0  0  0
 14 13  1  0  0  0  0
 15 16  1  0  0  0  0
 15 14  2  0  0  0  0
 16 11  2  0  0  0  0
 17 15  1  0  0  0  0
 20 17  1  0  0  0  0
 21 17  1  0  0  0  0
 22 23  1  0  0  0  0
 22 24  1  0  0  0  0
 23 24  1  0  0  0  0
M  END
>  <minimizedAffinity>
-4.80167341

$$$$

 OpenBabel03272501513D

 24 26  0  0  0  0  0  0  0  0999 V2000
   38.5820   24.1080   34.3570 C   0  0  0  0  0  0  0  0  0  0  0  0
   38.0120   23.2080   33.5010 C   0  0  0  0  0  0  0  0  0  0  0  0
   37.1710   23.6590   32.4720 C   0  0  0  0  0  0  0  0  0  0  0  0
   36.9250   25.0390   32.3340 C   0  0  0  0  0  0  0  0  0  0  0  0
   37.5090   25.9540   33.2100 C   0  0  0  0  0  0  0  0  0  0  0  0
   38.3160   25.4320   34.1860 C   0  0  0  0  0  0  0  0  0  0  0  0
   38.2030   22.1470   33.6080 H   0  0  0  0  0  0  0  0  0  0  0  0
   36.7410   22.9160   31.8170 H   0  0  0  0  0  0  0  0  0  0  0  0
   36.2550   25.2540   31.4970 H   0  0  0  0  0  0  0  0  0  0  0  0
   37.2600   26.9670   33.0220 H   0  0  0  0  0  0  0  0  0  0  0  0
   41.5130   22.8060   36.3520 C   0  0  0  0  0  0  0  0  0  0  0  0
   40.7960   23.3040   35.2590 C   0  0  0  0  0  0  0  0  0  0  0  0
   39.4190   23.5830   35.4150 C   0  0  0  0  0  0  0  0  0  0  0  0
   38.8880   23.3450   36.6260 N   0  0  0  0  0  0  0  0  0  0  0  0
   39.6040   22.8650   37.6620 C   0  0  0  0  0  0  0  0  0  0  0  0
   40.9220   22.5950   37.5230 N   0  0  0  0  0  0  0  0  0  0  0  0
   38.8520   22.6870   38.8590 N   0  0  0  0  0  0  0  0  0  0  0  0
   42.5680   22.6060   36.1880 H   0  0  0  0  0  0  0  0  0  0  0  0
   41.2200   23.4940   34.2910 H   0  0  0  0  0  0  0  0  0  0  0  0
   38.9110   21.9310   39.5970 H   0  0  0  0  0  0  0  0  0  0  0  0
   38.1030   23.3590   39.1360 H   0  0  0  0  0  0  0  0  0  0  0  0
   38.9100   26.5330   35.0120 C   0  0  0  0  0  3  0  0  0  0  0  0
   38.2590   26.7730   36.3980 C   0  0  0  0  0  2  0  0  0  0  0  0
   38.1130   27.7430   35.3080 C   0  0  0  0  0  2  0  0  0  0  0  0
  1 13  1  0  0  0  0
  2  7  1  0  0  0  0
  2  1  2  0  0  0  0
  3  2  1  0  0  0  0
  4  3  2  0  0  0  0
  4  5  1  0  0  0  0
  5  6  2  0  0  0  0
  6  1  1  0  0  0  0
  6 22  1  0  0  0  0
  8  3  1  0  0  0  0
  9  4  1  0  0  0  0
 10  5  1  0  0  0  0
 11 16  1  0  0  0  0
 12 13  1  0  0  0  0
 12 11  2  0  0  0  0
 13 14  2  0  0  0  0
 14 15  1  0  0  0  0
 15 17  1  0  0  0  0
 16 15  2  0  0  0  0
 17 21  1  0  0  0  0
 17 20  1  0  0  0  0
 18 11  1  0  0  0  0
 19 12  1  0  0  0  0
 22 24  1  0  0  0  0
 22 23  1  0  0  0  0
 24 23  1  0  0  0  0
M  END
>  <minimizedAffinity>
-4.78395176

$$$$

 OpenBabel03272501513D

 24 26  0  0  0  0  0  0  0  0999 V2000
   38.5920   23.9100   34.3490 C   0  0  0  0  0  0  0  0  0  0  0  0
   37.7510   23.0880   33.6530 C   0  0  0  0  0  0  0  0  0  0  0  0
   37.6060   23.2520   32.2650 C   0  0  0  0  0  0  0  0  0  0  0  0
   38.3330   24.2620   31.6070 C   0  0  0  0  0  0  0  0  0  0  0  0
   39.1910   25.0980   32.3230 C   0  0  0  0  0  0  0  0  0  0  0  0
   39.2750   24.8730   33.6720 C   0  0  0  0  0  0  0  0  0  0  0  0
   37.1920   22.3110   34.1590 H   0  0  0  0  0  0  0  0  0  0  0  0
   36.9320   22.5830   31.7520 H   0  0  0  0  0  0  0  0  0  0  0  0
   38.1290   24.2810   30.5340 H   0  0  0  0  0  0  0  0  0  0  0  0
   39.6910   25.8260   31.7360 H   0  0  0  0  0  0  0  0  0  0  0  0
   38.0100   24.0980   38.0760 C   0  0  0  0  0  0  0  0  0  0  0  0
   37.8440   24.3690   36.7140 C   0  0  0  0  0  0  0  0  0  0  0  0
   38.6810   23.7130   35.7810 C   0  0  0  0  0  0  0  0  0  0  0  0
   39.5910   22.8610   36.2800 N   0  0  0  0  0  0  0  0  0  0  0  0
   39.7280   22.6190   37.5980 C   0  0  0  0  0  0  0  0  0  0  0  0
   38.9340   23.2410   38.4990 N   0  0  0  0  0  0  0  0  0  0  0  0
   40.7510   21.6790   37.9170 N   0  0  0  0  0  0  0  0  0  0  0  0
   37.3480   24.6230   38.7580 H   0  0  0  0  0  0  0  0  0  0  0  0
   37.1180   25.0500   36.3140 H   0  0  0  0  0  0  0  0  0  0  0  0
   41.4280   21.6560   38.7290 H   0  0  0  0  0  0  0  0  0  0  0  0
   40.9340   20.8500   37.3120 H   0  0  0  0  0  0  0  0  0  0  0  0
   40.2690   25.8080   34.2930 C   0  0  0  0  0  3  0  0  0  0  0  0
   39.6880   27.0960   34.9310 C   0  0  0  0  0  2  0  0  0  0  0  0
   40.4890   27.1460   33.7030 C   0  0  0  0  0  2  0  0  0  0  0  0
  1 13  1  0  0  0  0
  2  7  1  0  0  0  0
  2  1  2  0  0  0  0
  3  2  1  0  0  0  0
  4  3  2  0  0  0  0
  4  5  1  0  0  0  0
  5  6  2  0  0  0  0
  6 22  1  0  0  0  0
  6  1  1  0  0  0  0
  8  3  1  0  0  0  0
  9  4  1  0  0  0  0
 10  5  1  0  0  0  0
 11 16  1  0  0  0  0
 11 18  1  0  0  0  0
 12 11  2  0  0  0  0
 13 14  2  0  0  0  0
 13 12  1  0  0  0  0
 14 15  1  0  0  0  0
 15 17  1  0  0  0  0
 15 16  2  0  0  0  0
 17 20  1  0  0  0  0
 19 12  1  0  0  0  0
 21 17  1  0  0  0  0
 22 23  1  0  0  0  0
 24 22  1  0  0  0  0
 24 23  1  0  0  0  0
M  END
>  <minimizedAffinity>
-4.75624609

$$$$

 OpenBabel03272501513D

 24 26  0  0  0  0  0  0  0  0999 V2000
   34.9530   30.4300   34.9760 C   0  0  0  0  0  0  0  0  0  0  0  0
   35.7470   31.3120   35.6530 C   0  0  0  0  0  0  0  0  0  0  0  0
   35.1930   32.1180   36.6610 C   0  0  0  0  0  0  0  0  0  0  0  0
   33.8230   32.0050   36.9640 C   0  0  0  0  0  0  0  0  0  0  0  0
   33.0160   31.1030   36.2700 C   0  0  0  0  0  0  0  0  0  0  0  0
   33.6330   30.3540   35.3020 C   0  0  0  0  0  0  0  0  0  0  0  0
   36.8010   31.3980   35.4210 H   0  0  0  0  0  0  0  0  0  0  0  0
   35.8540   32.8020   37.1720 H   0  0  0  0  0  0  0  0  0  0  0  0
   33.5220   32.6860   37.7640 H   0  0  0  0  0  0  0  0  0  0  0  0
   32.0000   31.0950   36.5710 H   0  0  0  0  0  0  0  0  0  0  0  0
   36.8240   27.7550   33.0770 C   0  0  0  0  0  0  0  0  0  0  0  0
   36.2710   28.4380   34.1650 C   0  0  0  0  0  0  0  0  0  0  0  0
   35.5720   29.6450   33.9290 C   0  0  0  0  0  0  0  0  0  0  0  0
   35.4880   30.0550   32.6530 N   0  0  0  0  0  0  0  0  0  0  0  0
   36.0300   29.3750   31.6240 C   0  0  0  0  0  0  0  0  0  0  0  0
   36.7010   28.2200   31.8380 N   0  0  0  0  0  0  0  0  0  0  0  0
   35.8240   29.9790   30.3500 N   0  0  0  0  0  0  0  0  0  0  0  0
   37.3520   26.8330   33.3030 H   0  0  0  0  0  0  0  0  0  0  0  0
   36.3380   28.1120   35.1850 H   0  0  0  0  0  0  0  0  0  0  0  0
   36.4660   30.0410   29.5110 H   0  0  0  0  0  0  0  0  0  0  0  0
   34.9290   30.4610   30.1160 H   0  0  0  0  0  0  0  0  0  0  0  0
   32.6570   29.4000   34.6830 C   0  0  0  0  0  3  0  0  0  0  0  0
   31.9120   29.9060   33.4220 C   0  0  0  0  0  2  0  0  0  0  0  0
   31.2120   29.7130   34.6960 C   0  0  0  0  0  2  0  0  0  0  0  0
  1  6  2  0  0  0  0
  1  2  1  0  0  0  0
  2  3  2  0  0  0  0
  3  4  1  0  0  0  0
  3  8  1  0  0  0  0
  4  9  1  0  0  0  0
  5 10  1  0  0  0  0
  5  4  2  0  0  0  0
  6  5  1  0  0  0  0
  7  2  1  0  0  0  0
 11 18  1  0  0  0  0
 11 12  1  0  0  0  0
 12 19  1  0  0  0  0
 13 12  2  0  0  0  0
 13  1  1  0  0  0  0
 14 13  1  0  0  0  0
 15 16  1  0  0  0  0
 15 14  2  0  0  0  0
 16 11  2  0  0  0  0
 17 15  1  0  0  0  0
 20 17  1  0  0  0  0
 21 17  1  0  0  0  0
 22 24  1  0  0  0  0
 22  6  1  0  0  0  0
 23 22  1  0  0  0  0
 23 24  1  0  0  0  0
M  END
>  <minimizedAffinity>
-4.71099615

$$$$

 OpenBabel03272501513D

 24 26  0  0  0  0  0  0  0  0999 V2000
   39.3540   25.2740   34.8490 C   0  0  0  0  0  0  0  0  0  0  0  0
   40.1590   26.3770   34.9120 C   0  0  0  0  0  0  0  0  0  0  0  0
   40.4680   27.0840   33.7390 C   0  0  0  0  0  0  0  0  0  0  0  0
   39.9420   26.6470   32.5080 C   0  0  0  0  0  0  0  0  0  0  0  0
   39.1200   25.5210   32.4490 C   0  0  0  0  0  0  0  0  0  0  0  0
   38.8670   24.8880   33.6380 C   0  0  0  0  0  0  0  0  0  0  0  0
   40.5640   26.7130   35.8600 H   0  0  0  0  0  0  0  0  0  0  0  0
   41.1070   27.9490   33.8320 H   0  0  0  0  0  0  0  0  0  0  0  0
   40.2590   27.2830   31.6780 H   0  0  0  0  0  0  0  0  0  0  0  0
   38.7770   25.2740   31.4770 H   0  0  0  0  0  0  0  0  0  0  0  0
   37.8690   24.1470   38.1340 C   0  0  0  0  0  0  0  0  0  0  0  0
   38.0370   24.9010   36.9680 C   0  0  0  0  0  0  0  0  0  0  0  0
   39.0920   24.5700   36.0860 C   0  0  0  0  0  0  0  0  0  0  0  0
   39.8710   23.5340   36.4400 N   0  0  0  0  0  0  0  0  0  0  0  0
   39.6850   22.8250   37.5700 C   0  0  0  0  0  0  0  0  0  0  0  0
   38.6790   23.1340   38.4200 N   0  0  0  0  0  0  0  0  0  0  0  0
   40.6190   21.7650   37.7560 N   0  0  0  0  0  0  0  0  0  0  0  0
   37.0460   24.4370   38.7820 H   0  0  0  0  0  0  0  0  0  0  0  0
   37.4150   25.7290   36.6850 H   0  0  0  0  0  0  0  0  0  0  0  0
   41.0770   21.4040   38.6390 H   0  0  0  0  0  0  0  0  0  0  0  0
   40.9650   21.1980   36.9510 H   0  0  0  0  0  0  0  0  0  0  0  0
   37.9340   23.7350   33.4240 C   0  0  0  0  0  3  0  0  0  0  0  0
   38.5970   22.3530   33.1970 C   0  0  0  0  0  2  0  0  0  0  0  0
   37.8970   23.0510   32.1130 C   0  0  0  0  0  2  0  0  0  0  0  0
  1  2  1  0  0  0  0
  1 13  1  0  0  0  0
  2  7  1  0  0  0  0
  3  8  1  0  0  0  0
  3  2  2  0  0  0  0
  4  3  1  0  0  0  0
  5  4  2  0  0  0  0
  5  6  1  0  0  0  0
  6  1  2  0  0  0  0
  9  4  1  0  0  0  0
 10  5  1  0  0  0  0
 11 16  1  0  0  0  0
 11 18  1  0  0  0  0
 12 11  2  0  0  0  0
 13 14  2  0  0  0  0
 13 12  1  0  0  0  0
 14 15  1  0  0  0  0
 15 17  1  0  0  0  0
 15 16  2  0  0  0  0
 17 20  1  0  0  0  0
 19 12  1  0  0  0  0
 21 17  1  0  0  0  0
 22  6  1  0  0  0  0
 23 22  1  0  0  0  0
 24 23  1  0  0  0  0
 24 22  1  0  0  0  0
M  END
>  <minimizedAffinity>
-4.70749092

$$$$

 OpenBabel03272501513D

 24 26  0  0  0  0  0  0  0  0999 V2000
   39.8450   24.0200   35.6470 C   0  0  0  0  0  0  0  0  0  0  0  0
   41.1000   23.8960   35.1200 C   0  0  0  0  0  0  0  0  0  0  0  0
   42.0400   23.0590   35.7430 C   0  0  0  0  0  0  0  0  0  0  0  0
   41.6760   22.3550   36.9070 C   0  0  0  0  0  0  0  0  0  0  0  0
   40.3940   22.4850   37.4420 C   0  0  0  0  0  0  0  0  0  0  0  0
   39.5370   23.3210   36.7740 C   0  0  0  0  0  0  0  0  0  0  0  0
   41.3790   24.4370   34.2240 H   0  0  0  0  0  0  0  0  0  0  0  0
   43.0190   22.9880   35.2950 H   0  0  0  0  0  0  0  0  0  0  0  0
   42.4960   21.7430   37.2890 H   0  0  0  0  0  0  0  0  0  0  0  0
   40.2200   21.9150   38.3180 H   0  0  0  0  0  0  0  0  0  0  0  0
   37.3770   25.5330   33.2220 C   0  0  0  0  0  0  0  0  0  0  0  0
   38.2500   24.5930   33.7800 C   0  0  0  0  0  0  0  0  0  0  0  0
   38.9280   24.9170   34.9780 C   0  0  0  0  0  0  0  0  0  0  0  0
   38.6800   26.1280   35.5040 N   0  0  0  0  0  0  0  0  0  0  0  0
   37.8330   27.0140   34.9450 C   0  0  0  0  0  0  0  0  0  0  0  0
   37.1790   26.7140   33.7990 N   0  0  0  0  0  0  0  0  0  0  0  0
   37.7090   28.2380   35.6630 N   0  0  0  0  0  0  0  0  0  0  0  0
   36.8780   25.2440   32.3020 H   0  0  0  0  0  0  0  0  0  0  0  0
   38.4490   23.6260   33.3600 H   0  0  0  0  0  0  0  0  0  0  0  0
   37.5980   29.2300   35.3110 H   0  0  0  0  0  0  0  0  0  0  0  0
   37.7170   28.2590   36.7060 H   0  0  0  0  0  0  0  0  0  0  0  0
   38.1910   23.3170   37.4320 C   0  0  0  0  0  3  0  0  0  0  0  0
   37.9330   24.4440   38.4650 C   0  0  0  0  0  2  0  0  0  0  0  0
   38.0800   23.0450   38.8820 C   0  0  0  0  0  2  0  0  0  0  0  0
  1  6  1  0  0  0  0
  2  1  2  0  0  0  0
  2  3  1  0  0  0  0
  3  4  2  0  0  0  0
  4  9  1  0  0  0  0
  4  5  1  0  0  0  0
  5 10  1  0  0  0  0
  6 22  1  0  0  0  0
  6  5  2  0  0  0  0
  7  2  1  0  0  0  0
  8  3  1  0  0  0  0
 11 12  2  0  0  0  0
 11 16  1  0  0  0  0
 12 13  1  0  0  0  0
 13 14  2  0  0  0  0
 13  1  1  0  0  0  0
 15 14  1  0  0  0  0
 15 17  1  0  0  0  0
 16 15  2  0  0  0  0
 17 21  1  0  0  0  0
 18 11  1  0  0  0  0
 19 12  1  0  0  0  0
 20 17  1  0  0  0  0
 22 23  1  0  0  0  0
 22 24  1  0  0  0  0
 23 24  1  0  0  0  0
M  END
>  <minimizedAffinity>
-4.69875956

$$$$

 OpenBabel03272501513D

 24 26  0  0  0  0  0  0  0  0999 V2000
   33.5720   30.2890   35.4020 C   0  0  0  0  0  0  0  0  0  0  0  0
   34.5020   29.8440   34.5050 C   0  0  0  0  0  0  0  0  0  0  0  0
   35.7470   30.4880   34.4130 C   0  0  0  0  0  0  0  0  0  0  0  0
   36.0220   31.5870   35.2500 C   0  0  0  0  0  0  0  0  0  0  0  0
   35.0680   32.0380   36.1630 C   0  0  0  0  0  0  0  0  0  0  0  0
   33.8800   31.3550   36.1900 C   0  0  0  0  0  0  0  0  0  0  0  0
   34.2910   28.9980   33.8630 H   0  0  0  0  0  0  0  0  0  0  0  0
   36.4540   30.1050   33.6930 H   0  0  0  0  0  0  0  0  0  0  0  0
   37.0210   31.9940   35.0770 H   0  0  0  0  0  0  0  0  0  0  0  0
   35.3720   32.8710   36.7450 H   0  0  0  0  0  0  0  0  0  0  0  0
   29.9560   29.3360   34.8730 C   0  0  0  0  0  0  0  0  0  0  0  0
   31.1350   30.0830   34.7840 C   0  0  0  0  0  0  0  0  0  0  0  0
   32.2970   29.6050   35.4330 C   0  0  0  0  0  0  0  0  0  0  0  0
   32.1820   28.4450   36.1000 N   0  0  0  0  0  0  0  0  0  0  0  0
   31.0320   27.7450   36.1680 C   0  0  0  0  0  0  0  0  0  0  0  0
   29.9150   28.1940   35.5510 N   0  0  0  0  0  0  0  0  0  0  0  0
   31.1240   26.5400   36.9220 N   0  0  0  0  0  0  0  0  0  0  0  0
   29.0870   29.7400   34.3600 H   0  0  0  0  0  0  0  0  0  0  0  0
   31.2280   31.0110   34.2520 H   0  0  0  0  0  0  0  0  0  0  0  0
   30.4230   26.0830   37.5700 H   0  0  0  0  0  0  0  0  0  0  0  0
   31.9810   25.9460   36.8940 H   0  0  0  0  0  0  0  0  0  0  0  0
   32.9830   31.9180   37.2510 C   0  0  0  0  0  3  0  0  0  0  0  0
   31.9820   33.0080   36.7900 C   0  0  0  0  0  2  0  0  0  0  0  0
   33.1200   33.3340   37.6560 C   0  0  0  0  0  2  0  0  0  0  0  0
  1 13  1  0  0  0  0
  1  6  1  0  0  0  0
  2  1  2  0  0  0  0
  3  2  1  0  0  0  0
  3  4  2  0  0  0  0
  4  5  1  0  0  0  0
  5  6  2  0  0  0  0
  5 10  1  0  0  0  0
  6 22  1  0  0  0  0
  7  2  1  0  0  0  0
  8  3  1  0  0  0  0
  9  4  1  0  0  0  0
 11 16  1  0  0  0  0
 12 11  2  0  0  0  0
 12 13  1  0  0  0  0
 13 14  2  0  0  0  0
 14 15  1  0  0  0  0
 15 17  1  0  0  0  0
 16 15  2  0  0  0  0
 17 20  1  0  0  0  0
 18 11  1  0  0  0  0
 19 12  1  0  0  0  0
 21 17  1  0  0  0  0
 22 24  1  0  0  0  0
 23 22  1  0  0  0  0
 23 24  1  0  0  0  0
M  END
>  <minimizedAffinity>
-4.69387531

$$$$

 OpenBabel03272501513D

 24 26  0  0  0  0  0  0  0  0999 V2000
   36.0470   29.0730   33.1950 C   0  0  0  0  0  0  0  0  0  0  0  0
   36.0520   29.5850   31.9270 C   0  0  0  0  0  0  0  0  0  0  0  0
   36.8250   28.9700   30.9290 C   0  0  0  0  0  0  0  0  0  0  0  0
   37.5870   27.8300   31.2470 C   0  0  0  0  0  0  0  0  0  0  0  0
   37.5800   27.3120   32.5420 C   0  0  0  0  0  0  0  0  0  0  0  0
   36.7990   27.9700   33.4580 C   0  0  0  0  0  0  0  0  0  0  0  0
   35.4650   30.4620   31.6830 H   0  0  0  0  0  0  0  0  0  0  0  0
   36.8010   29.4050   29.9410 H   0  0  0  0  0  0  0  0  0  0  0  0
   38.1410   27.4530   30.3840 H   0  0  0  0  0  0  0  0  0  0  0  0
   38.1870   26.4530   32.6800 H   0  0  0  0  0  0  0  0  0  0  0  0
   34.8990   31.4020   35.9370 C   0  0  0  0  0  0  0  0  0  0  0  0
   35.7570   30.7950   35.0140 C   0  0  0  0  0  0  0  0  0  0  0  0
   35.2530   29.7640   34.1880 C   0  0  0  0  0  0  0  0  0  0  0  0
   33.9620   29.4360   34.3530 N   0  0  0  0  0  0  0  0  0  0  0  0
   33.1570   30.0380   35.2510 C   0  0  0  0  0  0  0  0  0  0  0  0
   33.6290   31.0250   36.0460 N   0  0  0  0  0  0  0  0  0  0  0  0
   31.8210   29.5430   35.2630 N   0  0  0  0  0  0  0  0  0  0  0  0
   35.3280   32.1890   36.5520 H   0  0  0  0  0  0  0  0  0  0  0  0
   36.7900   31.0570   34.8830 H   0  0  0  0  0  0  0  0  0  0  0  0
   31.1560   29.3910   36.0720 H   0  0  0  0  0  0  0  0  0  0  0  0
   31.3380   29.2610   34.3830 H   0  0  0  0  0  0  0  0  0  0  0  0
   36.8510   27.2700   34.7820 C   0  0  0  0  0  3  0  0  0  0  0  0
   38.0760   27.5890   35.6750 C   0  0  0  0  0  2  0  0  0  0  0  0
   37.9110   26.2740   35.0480 C   0  0  0  0  0  2  0  0  0  0  0  0
  1  6  1  0  0  0  0
  1 13  1  0  0  0  0
  2  1  2  0  0  0  0
  3  4  2  0  0  0  0
  3  2  1  0  0  0  0
  4  5  1  0  0  0  0
  5 10  1  0  0  0  0
  5  6  2  0  0  0  0
  6 22  1  0  0  0  0
  7  2  1  0  0  0  0
  8  3  1  0  0  0  0
  9  4  1  0  0  0  0
 11 16  1  0  0  0  0
 11 18  1  0  0  0  0
 12 11  2  0  0  0  0
 13 14  2  0  0  0  0
 13 12  1  0  0  0  0
 14 15  1  0  0  0  0
 15 17  1  0  0  0  0
 15 16  2  0  0  0  0
 17 20  1  0  0  0  0
 19 12  1  0  0  0  0
 21 17  1  0  0  0  0
 22 24  1  0  0  0  0
 22 23  1  0  0  0  0
 24 23  1  0  0  0  0
M  END
>  <minimizedAffinity>
-4.63715553

$$$$
