
 OpenBabel03272509133D

 34 37  0  0  1  0  0  0  0  0999 V2000
   34.9860   30.2580   47.9020 C   0  0  0  0  0  0  0  0  0  0  0  0
   36.2700   30.8220   47.6570 C   0  0  0  0  0  0  0  0  0  0  0  0
   36.7730   30.7040   46.3510 C   0  0  0  0  0  0  0  0  0  0  0  0
   36.0210   30.0740   45.4110 N   0  0  0  0  0  0  0  0  0  0  0  0
   34.8100   29.5560   45.6880 C   0  0  0  0  0  0  0  0  0  0  0  0
   34.3000   29.6510   46.9280 N   0  0  0  0  0  0  0  0  0  0  0  0
   34.5290   30.3010   48.8580 H   0  0  0  0  0  0  0  0  0  0  0  0
   34.2680   29.0660   44.8860 H   0  0  0  0  0  0  0  0  0  0  0  0
   36.8970   31.4370   48.7680 N   0  0  0  0  0  0  0  0  0  0  0  0
   36.8820   32.7410   49.4390 C   0  0  0  0  0  0  0  0  0  0  0  0
   38.3660   33.0560   49.5500 C   0  0  0  0  0  0  0  0  0  0  0  0
   39.0270   31.7000   49.7400 C   0  0  0  0  0  0  0  0  0  0  0  0
   37.8610   30.7290   49.5920 C   0  0  1  0  0  0  0  0  0  0  0  0
   36.4590   33.5420   48.7960 H   0  0  0  0  0  0  0  0  0  0  0  0
   36.3360   32.7630   50.3730 H   0  0  0  0  0  0  0  0  0  0  0  0
   38.7090   33.4610   48.5730 H   0  0  0  0  0  0  0  0  0  0  0  0
   38.6150   33.6860   50.4140 H   0  0  0  0  0  0  0  0  0  0  0  0
   39.5080   31.5820   50.7160 H   0  0  0  0  0  0  0  0  0  0  0  0
   39.7930   31.5160   48.9480 H   0  0  0  0  0  0  0  0  0  0  0  0
   38.2130   29.7820   49.1450 H   0  0  0  0  0  0  0  0  0  0  0  0
   37.3840   30.4220   50.9700 C   0  0  0  0  0  3  0  0  0  0  0  0
   37.5400   28.9370   51.3260 C   0  0  0  0  0  2  0  0  0  0  0  0
   36.1860   29.5650   51.2230 C   0  0  0  0  0  2  0  0  0  0  0  0
   38.0550   31.2330   45.9860 C   0  0  0  0  0  0  0  0  0  0  0  0
   38.1210   32.4820   45.4290 C   0  0  0  0  0  0  0  0  0  0  0  0
   39.2990   33.0860   45.0420 C   0  0  0  0  0  0  0  0  0  0  0  0
   40.4730   32.3460   45.2470 C   0  0  0  0  0  0  0  0  0  0  0  0
   40.4910   31.0710   45.8070 C   0  0  0  0  0  0  0  0  0  0  0  0
   39.2430   30.5470   46.1670 C   0  0  0  0  0  0  0  0  0  0  0  0
   37.2070   33.0660   45.2660 H   0  0  0  0  0  0  0  0  0  0  0  0
   39.3390   34.0690   44.6040 H   0  0  0  0  0  0  0  0  0  0  0  0
   41.4120   32.7950   44.9530 H   0  0  0  0  0  0  0  0  0  0  0  0
   41.4100   30.5390   45.9470 H   0  0  0  0  0  0  0  0  0  0  0  0
   39.1850   29.5650   46.6050 H   0  0  0  0  0  0  0  0  0  0  0  0
  1  7  1  0  0  0  0
  2  1  1  0  0  0  0
  2  9  1  0  0  0  0
  3  2  2  0  0  0  0
  4  5  2  0  0  0  0
  4  3  1  0  0  0  0
  5  6  1  0  0  0  0
  6  1  2  0  0  0  0
  8  5  1  0  0  0  0
  9 10  1  0  0  0  0
  9 13  1  0  0  0  0
 10 11  1  0  0  0  0
 10 15  1  0  0  0  0
 11 12  1  0  0  0  0
 11 17  1  0  0  0  0
 12 18  1  0  0  0  0
 13 20  1  6  0  0  0
 13 12  1  0  0  0  0
 13 21  1  0  0  0  0
 14 10  1  0  0  0  0
 16 11  1  0  0  0  0
 19 12  1  0  0  0  0
 21 23  1  0  0  0  0
 21 22  1  0  0  0  0
 23 22  1  0  0  0  0
 24 29  1  0  0  0  0
 24  3  1  0  0  0  0
 25 24  2  0  0  0  0
 26 27  2  0  0  0  0
 26 25  1  0  0  0  0
 27 28  1  0  0  0  0
 28 33  1  0  0  0  0
 28 29  2  0  0  0  0
 29 34  1  0  0  0  0
 30 25  1  0  0  0  0
 31 26  1  0  0  0  0
 32 27  1  0  0  0  0
M  END
>  <minimizedAffinity>
-5.50746965

>  <minimizedRMSD>
1.37874651

$$$$
