REMARK  Name = 
REMARK  2 active torsions:
REMARK  status: ('A' for Active; 'I' for Inactive)
REMARK    1  A    between atoms: C_2  and  C_12
REMARK    2  A    between atoms: C_20  and  C_36
REMARK                            x       y       z     vdW  Elec       q    Type
REMARK                         _______ _______ _______ _____ _____    ______ ____
ROOT
ATOM      1  C   UNL     1      35.837  28.910  49.399  0.00  0.00    +0.000 A 
ATOM      2  C   UNL     1      35.885  30.075  48.586  0.00  0.00    +0.000 A 
ATOM      3  C   UNL     1      34.801  30.297  47.671  0.00  0.00    +0.000 A 
ATOM      4  N   UNL     1      33.789  29.397  47.608  0.00  0.00    +0.000 NA
ATOM      5  C   UNL     1      33.812  28.297  48.412  0.00  0.00    +0.000 A 
ATOM      6  N   UNL     1      34.809  28.059  49.288  0.00  0.00    +0.000 NA
ATOM      7  N   UNL     1      32.728  27.350  48.268  0.00  0.00    +0.000 N 
ATOM      8  C   UNL     1      31.356  27.663  48.518  0.00  0.00    +0.000 C 
ATOM      9  C   UNL     1      30.609  26.451  48.048  0.00  0.00    +0.000 C 
ATOM     10  C   UNL     1      31.594  25.623  47.236  0.00  0.00    +0.000 C 
ATOM     11  C   UNL     1      32.896  25.945  47.841  0.00  0.00    +0.000 C 
ATOM     12  H   UNL     1      36.677  28.808  50.069  0.00  0.00    +0.000 HD
ATOM     13  H   UNL     1      34.763  31.149  47.036  0.00  0.00    +0.000 HD
ATOM     14  H   UNL     1      31.123  27.970  49.553  0.00  0.00    +0.000 HD
ATOM     15  H   UNL     1      31.049  28.493  47.818  0.00  0.00    +0.000 HD
ATOM     16  H   UNL     1      30.345  25.845  48.940  0.00  0.00    +0.000 HD
ATOM     17  H   UNL     1      29.693  26.683  47.490  0.00  0.00    +0.000 HD
ATOM     18  H   UNL     1      31.312  24.550  47.242  0.00  0.00    +0.000 HD
ATOM     19  H   UNL     1      31.588  26.004  46.189  0.00  0.00    +0.000 HD
ATOM     20  H   UNL     1      33.142  25.347  48.741  0.00  0.00    +0.000 HD
ATOM     21  H   UNL     1      33.718  25.901  47.089  0.00  0.00    +0.000 HD
ENDROOT
BRANCH   2  22
ATOM     22  C   UNL     1      36.872  31.088  48.573  0.00  0.00    +0.000 A 
ATOM     23  N   UNL     1      36.799  31.984  49.577  0.00  0.00    +0.000 NA
ATOM     24  C   UNL     1      37.658  33.024  49.597  0.00  0.00    +0.000 A 
ATOM     25  N   UNL     1      38.623  33.252  48.658  0.00  0.00    +0.000 NA
ATOM     26  C   UNL     1      38.711  32.363  47.645  0.00  0.00    +0.000 A 
ATOM     27  C   UNL     1      39.636  32.512  46.626  0.00  0.00    +0.000 A 
ATOM     28  C   UNL     1      39.686  31.583  45.575  0.00  0.00    +0.000 A 
ATOM     29  C   UNL     1      38.793  30.511  45.578  0.00  0.00    +0.000 A 
ATOM     30  C   UNL     1      37.896  30.395  46.600  0.00  0.00    +0.000 A 
ATOM     31  C   UNL     1      37.848  31.306  47.617  0.00  0.00    +0.000 A 
ATOM     32  H   UNL     1      37.609  33.751  50.402  0.00  0.00    +0.000 HD
ATOM     33  H   UNL     1      40.272  33.379  46.737  0.00  0.00    +0.000 HD
ATOM     34  H   UNL     1      40.443  31.833  44.869  0.00  0.00    +0.000 HD
ATOM     35  H   UNL     1      39.031  29.974  44.677  0.00  0.00    +0.000 HD
BRANCH  30  36
ATOM     36  C   UNL     1      37.084  29.131  46.452  0.00  0.00    +0.000 C 
ATOM     37  C   UNL     1      36.540  28.806  45.003  0.00  0.00    +0.000 C 
ATOM     38  C   UNL     1      35.691  29.150  46.108  0.00  0.00    +0.000 C 
ENDBRANCH  30  36
ENDBRANCH   2  22
TORSDOF 2
