REMARK  Name = 
REMARK  2 active torsions:
REMARK  status: ('A' for Active; 'I' for Inactive)
REMARK    1  A    between atoms: C_2  and  C_7
REMARK    2  A    between atoms: C_10  and  C_19
REMARK                            x       y       z     vdW  Elec       q    Type
REMARK                         _______ _______ _______ _____ _____    ______ ____
ROOT
ATOM      1  C   UNL     1      38.078  31.971  49.017  0.00  0.00    +0.000 A 
ATOM      2  C   UNL     1      38.553  33.142  49.565  0.00  0.00    +0.000 A 
ATOM      3  C   UNL     1      39.386  34.042  48.941  0.00  0.00    +0.000 A 
ATOM      4  C   UNL     1      39.794  33.769  47.654  0.00  0.00    +0.000 A 
ATOM      5  C   UNL     1      39.321  32.601  47.105  0.00  0.00    +0.000 A 
ATOM      6  N   UNL     1      38.504  31.740  47.748  0.00  0.00    +0.000 NA
ATOM      7  H   UNL     1      38.244  33.381  50.583  0.00  0.00    +0.000 HD
ATOM      8  H   UNL     1      39.700  34.934  49.465  0.00  0.00    +0.000 HD
ATOM      9  H   UNL     1      39.624  32.345  46.077  0.00  0.00    +0.000 HD
ENDROOT
BRANCH   1  11
ATOM     10  C   UNL     1      37.525  30.438  50.926  0.00  0.00    +0.000 A 
ATOM     11  C   UNL     1      37.198  31.051  49.718  0.00  0.00    +0.000 A 
ATOM     12  C   UNL     1      35.958  30.781  49.125  0.00  0.00    +0.000 A 
ATOM     13  N   UNL     1      35.133  29.910  49.795  0.00  0.00    +0.000 NA
ATOM     14  C   UNL     1      35.469  29.333  50.955  0.00  0.00    +0.000 A 
ATOM     15  N   UNL     1      36.658  29.590  51.525  0.00  0.00    +0.000 NA
ATOM     16  H   UNL     1      38.488  30.657  51.371  0.00  0.00    +0.000 HD
ATOM     17  H   UNL     1      35.610  31.205  48.190  0.00  0.00    +0.000 HD
ATOM     18  H   UNL     1      34.700  28.676  51.341  0.00  0.00    +0.000 HD
ENDBRANCH   1  11
BRANCH   4  19
ATOM     19  C   UNL     1      40.690  34.697  46.930  0.00  0.00    +0.000 C 
ATOM     20  C   UNL     1      42.094  34.920  47.452  0.00  0.00    +0.000 C 
ATOM     21  C   UNL     1      41.840  34.200  46.171  0.00  0.00    +0.000 C 
ENDBRANCH   4  19
TORSDOF 2
