
 OpenBabel03272506563D

 14 15  0  0  0  0  0  0  0  0999 V2000
   36.2310   30.4140   50.2120 C   0  0  0  0  0  0  0  0  0  0  0  0
   37.5280   30.5590   49.7000 C   0  0  0  0  0  0  0  0  0  0  0  0
   37.6600   30.5530   48.2890 C   0  0  0  0  0  0  0  0  0  0  0  0
   36.5450   30.4110   47.5230 N   0  0  0  0  0  0  0  0  0  0  0  0
   35.3320   30.2760   48.0770 C   0  0  0  0  0  0  0  0  0  0  0  0
   35.1350   30.2730   49.4110 N   0  0  0  0  0  0  0  0  0  0  0  0
   36.1810   30.4240   51.2940 H   0  0  0  0  0  0  0  0  0  0  0  0
   38.6280   30.6600   47.8490 H   0  0  0  0  0  0  0  0  0  0  0  0
   38.6480   30.7040   50.5560 N   0  0  0  0  0  0  0  0  0  0  0  0
   39.4340   31.3680   50.4450 H   0  0  0  0  0  0  0  0  0  0  0  0
   38.6720   30.0620   51.3910 H   0  0  0  0  0  0  0  0  0  0  0  0
   34.1200   30.1200   47.2300 C   0  0  0  0  0  3  0  0  0  0  0  0
   33.7250   28.6570   46.9540 C   0  0  0  0  0  2  0  0  0  0  0  0
   34.2380   29.5910   45.8490 C   0  0  0  0  0  2  0  0  0  0  0  0
  1  7  1  0  0  0  0
  2  1  1  0  0  0  0
  2  9  1  0  0  0  0
  3  2  2  0  0  0  0
  4  5  2  0  0  0  0
  4  3  1  0  0  0  0
  5  6  1  0  0  0  0
  6  1  2  0  0  0  0
  8  3  1  0  0  0  0
  9 11  1  0  0  0  0
 10  9  1  0  0  0  0
 12  5  1  0  0  0  0
 13 12  1  0  0  0  0
 14 13  1  0  0  0  0
 14 12  1  0  0  0  0
M  END
>  <minimizedAffinity>
-3.55433297

>  <minimizedRMSD>
2.43226361

$$$$
