
 OpenBabel03262521583D

 27 29  0  0  1  0  0  0  0  0999 V2000
   38.2720   22.7560   35.8430 N   0  0  0  0  0  0  0  0  0  0  0  0
   39.6350   22.5020   36.2280 C   0  0  0  0  0  0  0  0  0  0  0  0
   39.9660   22.5350   37.6550 C   0  0  0  0  0  0  0  0  0  0  0  0
   39.1630   23.4330   38.5380 C   0  0  0  0  0  0  0  0  0  0  0  0
   37.7890   23.6870   38.0180 C   0  0  0  0  0  0  0  0  0  0  0  0
   37.8520   23.9460   36.5030 C   0  0  1  0  0  0  0  0  0  0  0  0
   40.3150   23.2010   35.6730 H   0  0  0  0  0  0  0  0  0  0  0  0
   39.8870   21.5040   35.8090 H   0  0  0  0  0  0  0  0  0  0  0  0
   39.9180   21.5080   38.0730 H   0  0  0  0  0  0  0  0  0  0  0  0
   41.0410   22.8280   37.7770 H   0  0  0  0  0  0  0  0  0  0  0  0
   39.6960   24.3950   38.6830 H   0  0  0  0  0  0  0  0  0  0  0  0
   39.1010   22.9880   39.5600 H   0  0  0  0  0  0  0  0  0  0  0  0
   37.3020   24.5250   38.5220 H   0  0  0  0  0  0  0  0  0  0  0  0
   37.1970   22.7410   38.1220 H   0  0  0  0  0  0  0  0  0  0  0  0
   36.7880   24.1280   36.2450 H   0  0  0  0  0  0  0  0  0  0  0  0
   37.5090   21.9460   34.9580 C   0  0  0  0  0  0  0  0  0  0  0  0
   36.3370   21.2860   35.3260 C   0  0  0  0  0  0  0  0  0  0  0  0
   35.6620   20.5180   34.3910 C   0  0  0  0  0  0  0  0  0  0  0  0
   36.2010   20.4540   33.1390 N   0  0  0  0  0  0  0  0  0  0  0  0
   37.3250   21.0950   32.8100 C   0  0  0  0  0  0  0  0  0  0  0  0
   37.9840   21.8430   33.7150 N   0  0  0  0  0  0  0  0  0  0  0  0
   35.9720   21.3750   36.3140 H   0  0  0  0  0  0  0  0  0  0  0  0
   34.7740   20.0330   34.7130 H   0  0  0  0  0  0  0  0  0  0  0  0
   37.7010   20.9980   31.7790 H   0  0  0  0  0  0  0  0  0  0  0  0
   38.6440   25.1640   36.1860 C   0  0  0  0  0  3  0  0  0  0  0  0
   38.8850   25.6720   34.8460 C   0  0  0  0  0  2  0  0  0  0  0  0
   37.8330   26.3580   35.6370 C   0  0  0  0  0  2  0  0  0  0  0  0
  1  2  1  0  0  0  0
  1  6  1  0  0  0  0
  2  3  1  0  0  0  0
  3 10  1  0  0  0  0
  3  9  1  0  0  0  0
  3  4  1  0  0  0  0
  4 11  1  0  0  0  0
  4 12  1  0  0  0  0
  5 14  1  0  0  0  0
  5 13  1  0  0  0  0
  5  4  1  0  0  0  0
  6 15  1  6  0  0  0
  6  5  1  0  0  0  0
  7  2  1  0  0  0  0
  8  2  1  0  0  0  0
 16 17  1  0  0  0  0
 16  1  1  0  0  0  0
 17 22  1  0  0  0  0
 18 23  1  0  0  0  0
 18 17  2  0  0  0  0
 19 18  1  0  0  0  0
 20 19  2  0  0  0  0
 20 21  1  0  0  0  0
 21 16  2  0  0  0  0
 24 20  1  0  0  0  0
 25  6  1  0  0  0  0
 26 27  1  0  0  0  0
 26 25  1  0  0  0  0
 27 25  1  0  0  0  0
M  END
>  <minimizedAffinity>
-4.41997528

$$$$

 OpenBabel03262521583D

 27 29  0  0  1  0  0  0  0  0999 V2000
   38.4930   23.5990   35.2670 N   0  0  0  0  0  0  0  0  0  0  0  0
   39.7450   23.1860   35.8440 C   0  0  0  0  0  0  0  0  0  0  0  0
   39.7710   22.8570   37.2710 C   0  0  0  0  0  0  0  0  0  0  0  0
   38.8050   23.5570   38.1680 C   0  0  0  0  0  0  0  0  0  0  0  0
   37.5690   24.0030   37.4610 C   0  0  0  0  0  0  0  0  0  0  0  0
   37.9470   24.6150   36.1020 C   0  0  1  0  0  0  0  0  0  0  0  0
   40.5280   23.9610   35.6270 H   0  0  0  0  0  0  0  0  0  0  0  0
   40.0770   22.3070   35.2510 H   0  0  0  0  0  0  0  0  0  0  0  0
   39.6350   21.7630   37.4040 H   0  0  0  0  0  0  0  0  0  0  0  0
   40.7980   23.0530   37.6760 H   0  0  0  0  0  0  0  0  0  0  0  0
   39.2980   24.4260   38.6510 H   0  0  0  0  0  0  0  0  0  0  0  0
   38.5290   22.8820   39.0150 H   0  0  0  0  0  0  0  0  0  0  0  0
   36.9910   24.7190   38.0480 H   0  0  0  0  0  0  0  0  0  0  0  0
   36.9670   23.0930   37.2070 H   0  0  0  0  0  0  0  0  0  0  0  0
   36.9610   24.9110   35.6880 H   0  0  0  0  0  0  0  0  0  0  0  0
   37.9290   23.0680   34.0740 C   0  0  0  0  0  0  0  0  0  0  0  0
   37.8510   23.7720   32.8730 C   0  0  0  0  0  0  0  0  0  0  0  0
   37.2840   23.1680   31.7630 C   0  0  0  0  0  0  0  0  0  0  0  0
   36.8260   21.8920   31.9190 N   0  0  0  0  0  0  0  0  0  0  0  0
   36.9120   21.2390   33.0800 C   0  0  0  0  0  0  0  0  0  0  0  0
   37.4630   21.8210   34.1620 N   0  0  0  0  0  0  0  0  0  0  0  0
   38.2240   24.7600   32.8180 H   0  0  0  0  0  0  0  0  0  0  0  0
   37.2450   23.7390   30.8680 H   0  0  0  0  0  0  0  0  0  0  0  0
   36.5210   20.2100   33.1330 H   0  0  0  0  0  0  0  0  0  0  0  0
   38.7920   25.8290   36.2620 C   0  0  0  0  0  3  0  0  0  0  0  0
   39.3320   26.6150   35.1660 C   0  0  0  0  0  2  0  0  0  0  0  0
   38.1270   27.1580   35.8400 C   0  0  0  0  0  2  0  0  0  0  0  0
  1  2  1  0  0  0  0
  1  6  1  0  0  0  0
  2  3  1  0  0  0  0
  3  9  1  0  0  0  0
  3 10  1  0  0  0  0
  3  4  1  0  0  0  0
  4 11  1  0  0  0  0
  4 12  1  0  0  0  0
  5 13  1  0  0  0  0
  5  4  1  0  0  0  0
  6 15  1  6  0  0  0
  6 25  1  0  0  0  0
  6  5  1  0  0  0  0
  7  2  1  0  0  0  0
  8  2  1  0  0  0  0
 14  5  1  0  0  0  0
 16 21  1  0  0  0  0
 16  1  1  0  0  0  0
 17 16  2  0  0  0  0
 18 19  2  0  0  0  0
 18 17  1  0  0  0  0
 19 20  1  0  0  0  0
 20 24  1  0  0  0  0
 20 21  2  0  0  0  0
 22 17  1  0  0  0  0
 23 18  1  0  0  0  0
 26 27  1  0  0  0  0
 26 25  1  0  0  0  0
 27 25  1  0  0  0  0
M  END
>  <minimizedAffinity>
-4.31864643

$$$$

 OpenBabel03262521583D

 27 29  0  0  1  0  0  0  0  0999 V2000
   38.5690   26.0370   35.1260 N   0  0  0  0  0  0  0  0  0  0  0  0
   38.0750   27.3260   35.5320 C   0  0  0  0  0  0  0  0  0  0  0  0
   36.9490   27.8980   34.7900 C   0  0  0  0  0  0  0  0  0  0  0  0
   36.8030   27.5340   33.3500 C   0  0  0  0  0  0  0  0  0  0  0  0
   37.4050   26.2100   33.0180 C   0  0  0  0  0  0  0  0  0  0  0  0
   38.7680   26.0750   33.7160 C   0  0  1  0  0  0  0  0  0  0  0  0
   38.9230   28.0620   35.5450 H   0  0  0  0  0  0  0  0  0  0  0  0
   37.8030   27.2220   36.6040 H   0  0  0  0  0  0  0  0  0  0  0  0
   35.9980   27.6490   35.3060 H   0  0  0  0  0  0  0  0  0  0  0  0
   37.0020   29.0160   34.8440 H   0  0  0  0  0  0  0  0  0  0  0  0
   37.2540   28.3240   32.7130 H   0  0  0  0  0  0  0  0  0  0  0  0
   35.7210   27.5340   33.0750 H   0  0  0  0  0  0  0  0  0  0  0  0
   37.5180   26.0640   31.9410 H   0  0  0  0  0  0  0  0  0  0  0  0
   36.7660   25.4140   33.4790 H   0  0  0  0  0  0  0  0  0  0  0  0
   39.1090   25.0710   33.3880 H   0  0  0  0  0  0  0  0  0  0  0  0
   38.8050   24.9400   36.0010 C   0  0  0  0  0  0  0  0  0  0  0  0
   38.0310   24.6660   37.1280 C   0  0  0  0  0  0  0  0  0  0  0  0
   38.3410   23.5730   37.9200 C   0  0  0  0  0  0  0  0  0  0  0  0
   39.4100   22.8160   37.5390 N   0  0  0  0  0  0  0  0  0  0  0  0
   40.1370   23.0990   36.4550 C   0  0  0  0  0  0  0  0  0  0  0  0
   39.8400   24.1600   35.6820 N   0  0  0  0  0  0  0  0  0  0  0  0
   37.2160   25.2940   37.3700 H   0  0  0  0  0  0  0  0  0  0  0  0
   37.7250   23.4000   38.7680 H   0  0  0  0  0  0  0  0  0  0  0  0
   40.9860   22.4430   36.2080 H   0  0  0  0  0  0  0  0  0  0  0  0
   39.7350   27.0980   33.2380 C   0  0  0  0  0  3  0  0  0  0  0  0
   41.1220   27.1910   33.6600 C   0  0  0  0  0  2  0  0  0  0  0  0
   40.8710   26.5660   32.3380 C   0  0  0  0  0  2  0  0  0  0  0  0
  1  2  1  0  0  0  0
  1 16  1  0  0  0  0
  2  7  1  0  0  0  0
  2  8  1  0  0  0  0
  3 10  1  0  0  0  0
  3  9  1  0  0  0  0
  3  2  1  0  0  0  0
  4  3  1  0  0  0  0
  5  4  1  0  0  0  0
  5 14  1  0  0  0  0
  5  6  1  0  0  0  0
  6 15  1  6  0  0  0
  6  1  1  0  0  0  0
 11  4  1  0  0  0  0
 12  4  1  0  0  0  0
 13  5  1  0  0  0  0
 16 17  1  0  0  0  0
 17 22  1  0  0  0  0
 17 18  2  0  0  0  0
 18 23  1  0  0  0  0
 19 18  1  0  0  0  0
 20 19  2  0  0  0  0
 21 16  2  0  0  0  0
 21 20  1  0  0  0  0
 24 20  1  0  0  0  0
 25 26  1  0  0  0  0
 25  6  1  0  0  0  0
 27 25  1  0  0  0  0
 27 26  1  0  0  0  0
M  END
>  <minimizedAffinity>
-4.23851442

$$$$

 OpenBabel03262521583D

 27 29  0  0  1  0  0  0  0  0999 V2000
   37.5770   26.1800   33.2770 N   0  0  0  0  0  0  0  0  0  0  0  0
   38.8910   26.7240   33.0570 C   0  0  0  0  0  0  0  0  0  0  0  0
   39.7580   26.9250   34.2210 C   0  0  0  0  0  0  0  0  0  0  0  0
   39.1100   27.2180   35.5330 C   0  0  0  0  0  0  0  0  0  0  0  0
   37.7270   26.6680   35.6370 C   0  0  0  0  0  0  0  0  0  0  0  0
   36.9700   26.9300   34.3250 C   0  0  1  0  0  0  0  0  0  0  0  0
   38.8040   27.6870   32.4880 H   0  0  0  0  0  0  0  0  0  0  0  0
   39.3860   26.0380   32.3360 H   0  0  0  0  0  0  0  0  0  0  0  0
   40.4170   26.0410   34.3510 H   0  0  0  0  0  0  0  0  0  0  0  0
   40.4690   27.7650   34.0090 H   0  0  0  0  0  0  0  0  0  0  0  0
   39.0950   28.3120   35.7120 H   0  0  0  0  0  0  0  0  0  0  0  0
   39.7400   26.8050   36.3580 H   0  0  0  0  0  0  0  0  0  0  0  0
   37.1750   27.0900   36.4800 H   0  0  0  0  0  0  0  0  0  0  0  0
   37.8010   25.5520   35.7080 H   0  0  0  0  0  0  0  0  0  0  0  0
   35.9710   26.4910   34.5300 H   0  0  0  0  0  0  0  0  0  0  0  0
   37.0140   25.0880   32.5600 C   0  0  0  0  0  0  0  0  0  0  0  0
   37.4750   23.7760   32.6570 C   0  0  0  0  0  0  0  0  0  0  0  0
   36.8600   22.7790   31.9170 C   0  0  0  0  0  0  0  0  0  0  0  0
   35.8190   23.1550   31.1200 N   0  0  0  0  0  0  0  0  0  0  0  0
   35.3950   24.4180   31.0430 C   0  0  0  0  0  0  0  0  0  0  0  0
   35.9890   25.3900   31.7610 N   0  0  0  0  0  0  0  0  0  0  0  0
   38.2890   23.5510   33.2940 H   0  0  0  0  0  0  0  0  0  0  0  0
   37.2420   21.7940   32.0220 H   0  0  0  0  0  0  0  0  0  0  0  0
   34.5480   24.6480   30.3780 H   0  0  0  0  0  0  0  0  0  0  0  0
   36.8160   28.3850   34.0590 C   0  0  0  0  0  3  0  0  0  0  0  0
   36.0660   28.9520   32.9510 C   0  0  0  0  0  2  0  0  0  0  0  0
   35.3950   28.9510   34.2750 C   0  0  0  0  0  2  0  0  0  0  0  0
  1  6  1  0  0  0  0
  2  1  1  0  0  0  0
  2  3  1  0  0  0  0
  3  9  1  0  0  0  0
  3  4  1  0  0  0  0
  4  5  1  0  0  0  0
  4 11  1  0  0  0  0
  4 12  1  0  0  0  0
  5 14  1  0  0  0  0
  5 13  1  0  0  0  0
  6 15  1  1  0  0  0
  6  5  1  0  0  0  0
  7  2  1  0  0  0  0
  8  2  1  0  0  0  0
 10  3  1  0  0  0  0
 16 17  1  0  0  0  0
 16  1  1  0  0  0  0
 17 22  1  0  0  0  0
 18 23  1  0  0  0  0
 18 17  2  0  0  0  0
 19 18  1  0  0  0  0
 20 19  2  0  0  0  0
 20 21  1  0  0  0  0
 21 16  2  0  0  0  0
 24 20  1  0  0  0  0
 25 27  1  0  0  0  0
 25  6  1  0  0  0  0
 26 25  1  0  0  0  0
 26 27  1  0  0  0  0
M  END
>  <minimizedAffinity>
-4.19078684

$$$$

 OpenBabel03262521583D

 27 29  0  0  1  0  0  0  0  0999 V2000
   38.0110   25.2490   33.3600 N   0  0  0  0  0  0  0  0  0  0  0  0
   39.1650   25.4910   32.5350 C   0  0  0  0  0  0  0  0  0  0  0  0
   39.3850   26.8510   32.0400 C   0  0  0  0  0  0  0  0  0  0  0  0
   38.1890   27.7140   31.8100 C   0  0  0  0  0  0  0  0  0  0  0  0
   37.0260   27.3410   32.6660 C   0  0  0  0  0  0  0  0  0  0  0  0
   36.8820   25.8110   32.6990 C   0  0  1  0  0  0  0  0  0  0  0  0
   39.1590   24.7770   31.6690 H   0  0  0  0  0  0  0  0  0  0  0  0
   40.0410   25.1640   33.1360 H   0  0  0  0  0  0  0  0  0  0  0  0
   40.0720   27.3910   32.7260 H   0  0  0  0  0  0  0  0  0  0  0  0
   39.9490   26.8050   31.0720 H   0  0  0  0  0  0  0  0  0  0  0  0
   37.8970   27.6780   30.7400 H   0  0  0  0  0  0  0  0  0  0  0  0
   38.4610   28.7820   31.9920 H   0  0  0  0  0  0  0  0  0  0  0  0
   36.0950   27.7990   32.3250 H   0  0  0  0  0  0  0  0  0  0  0  0
   37.2660   27.6290   33.7220 H   0  0  0  0  0  0  0  0  0  0  0  0
   35.9930   25.6660   33.3480 H   0  0  0  0  0  0  0  0  0  0  0  0
   38.0280   24.5660   34.6090 C   0  0  0  0  0  0  0  0  0  0  0  0
   37.9660   25.2080   35.8440 C   0  0  0  0  0  0  0  0  0  0  0  0
   37.9890   24.4560   37.0070 C   0  0  0  0  0  0  0  0  0  0  0  0
   38.0740   23.1010   36.8660 N   0  0  0  0  0  0  0  0  0  0  0  0
   38.1320   22.5090   35.6710 C   0  0  0  0  0  0  0  0  0  0  0  0
   38.1100   23.2360   34.5380 N   0  0  0  0  0  0  0  0  0  0  0  0
   37.9030   26.2630   35.8860 H   0  0  0  0  0  0  0  0  0  0  0  0
   37.9390   24.9850   37.9270 H   0  0  0  0  0  0  0  0  0  0  0  0
   38.1990   21.4110   35.6330 H   0  0  0  0  0  0  0  0  0  0  0  0
   36.5940   25.2570   31.3490 C   0  0  0  0  0  3  0  0  0  0  0  0
   36.2140   23.8800   31.0810 C   0  0  0  0  0  2  0  0  0  0  0  0
   35.1190   24.8810   31.0880 C   0  0  0  0  0  2  0  0  0  0  0  0
  1 16  1  0  0  0  0
  2  8  1  0  0  0  0
  2  1  1  0  0  0  0
  3  2  1  0  0  0  0
  3  9  1  0  0  0  0
  4 12  1  0  0  0  0
  4  3  1  0  0  0  0
  4  5  1  0  0  0  0
  5  6  1  0  0  0  0
  5 14  1  0  0  0  0
  6 15  1  1  0  0  0
  6  1  1  0  0  0  0
  7  2  1  0  0  0  0
 10  3  1  0  0  0  0
 11  4  1  0  0  0  0
 13  5  1  0  0  0  0
 16 17  1  0  0  0  0
 17 22  1  0  0  0  0
 17 18  2  0  0  0  0
 18 23  1  0  0  0  0
 19 18  1  0  0  0  0
 20 19  2  0  0  0  0
 21 16  2  0  0  0  0
 21 20  1  0  0  0  0
 24 20  1  0  0  0  0
 25  6  1  0  0  0  0
 26 27  1  0  0  0  0
 26 25  1  0  0  0  0
 27 25  1  0  0  0  0
M  END
>  <minimizedAffinity>
-4.17606449

$$$$

 OpenBabel03262521583D

 27 29  0  0  1  0  0  0  0  0999 V2000
   37.9150   25.6740   33.8670 N   0  0  0  0  0  0  0  0  0  0  0  0
   38.1320   24.7250   34.9280 C   0  0  0  0  0  0  0  0  0  0  0  0
   38.0520   25.2060   36.3100 C   0  0  0  0  0  0  0  0  0  0  0  0
   38.4240   26.6260   36.5780 C   0  0  0  0  0  0  0  0  0  0  0  0
   38.2250   27.5160   35.3980 C   0  0  0  0  0  0  0  0  0  0  0  0
   38.7340   26.8090   34.1300 C   0  0  1  0  0  0  0  0  0  0  0  0
   39.1160   24.2090   34.7710 H   0  0  0  0  0  0  0  0  0  0  0  0
   37.3860   23.9170   34.7690 H   0  0  0  0  0  0  0  0  0  0  0  0
   37.0280   25.0370   36.7040 H   0  0  0  0  0  0  0  0  0  0  0  0
   38.7030   24.5660   36.9600 H   0  0  0  0  0  0  0  0  0  0  0  0
   39.4780   26.6830   36.9200 H   0  0  0  0  0  0  0  0  0  0  0  0
   37.8260   27.0090   37.4410 H   0  0  0  0  0  0  0  0  0  0  0  0
   38.7230   28.4800   35.5150 H   0  0  0  0  0  0  0  0  0  0  0  0
   37.1230   27.6360   35.2350 H   0  0  0  0  0  0  0  0  0  0  0  0
   38.5420   27.5640   33.3390 H   0  0  0  0  0  0  0  0  0  0  0  0
   37.0350   25.4810   32.7670 C   0  0  0  0  0  0  0  0  0  0  0  0
   36.7710   24.2380   32.1930 C   0  0  0  0  0  0  0  0  0  0  0  0
   35.8970   24.1510   31.1220 C   0  0  0  0  0  0  0  0  0  0  0  0
   35.3350   25.3160   30.6870 N   0  0  0  0  0  0  0  0  0  0  0  0
   35.6030   26.4950   31.2530 C   0  0  0  0  0  0  0  0  0  0  0  0
   36.4520   26.5840   32.2940 N   0  0  0  0  0  0  0  0  0  0  0  0
   37.2410   23.3720   32.5770 H   0  0  0  0  0  0  0  0  0  0  0  0
   35.7240   23.1860   30.7160 H   0  0  0  0  0  0  0  0  0  0  0  0
   35.1130   27.3940   30.8490 H   0  0  0  0  0  0  0  0  0  0  0  0
   40.1940   26.5380   34.2010 C   0  0  0  0  0  3  0  0  0  0  0  0
   40.9770   25.9270   33.1400 C   0  0  0  0  0  2  0  0  0  0  0  0
   41.0740   27.4020   33.2700 C   0  0  0  0  0  2  0  0  0  0  0  0
  1  6  1  0  0  0  0
  1  2  1  0  0  0  0
  2  3  1  0  0  0  0
  3  4  1  0  0  0  0
  3  9  1  0  0  0  0
  3 10  1  0  0  0  0
  4 11  1  0  0  0  0
  4 12  1  0  0  0  0
  5 13  1  0  0  0  0
  5  4  1  0  0  0  0
  6 15  1  6  0  0  0
  6 25  1  0  0  0  0
  6  5  1  0  0  0  0
  7  2  1  0  0  0  0
  8  2  1  0  0  0  0
 14  5  1  0  0  0  0
 16  1  1  0  0  0  0
 17 22  1  0  0  0  0
 17 16  2  0  0  0  0
 18 17  1  0  0  0  0
 19 18  2  0  0  0  0
 19 20  1  0  0  0  0
 20 21  2  0  0  0  0
 21 16  1  0  0  0  0
 23 18  1  0  0  0  0
 24 20  1  0  0  0  0
 26 27  1  0  0  0  0
 26 25  1  0  0  0  0
 27 25  1  0  0  0  0
M  END
>  <minimizedAffinity>
-4.16486931

$$$$

 OpenBabel03262521583D

 27 29  0  0  1  0  0  0  0  0999 V2000
   37.5810   26.6750   32.5850 N   0  0  0  0  0  0  0  0  0  0  0  0
   38.5800   26.8600   31.5670 C   0  0  0  0  0  0  0  0  0  0  0  0
   38.4810   28.0440   30.7100 C   0  0  0  0  0  0  0  0  0  0  0  0
   37.1220   28.6010   30.4420 C   0  0  0  0  0  0  0  0  0  0  0  0
   36.1430   28.3000   31.5260 C   0  0  0  0  0  0  0  0  0  0  0  0
   36.3050   26.8370   31.9740 C   0  0  1  0  0  0  0  0  0  0  0  0
   38.6310   25.9410   30.9240 H   0  0  0  0  0  0  0  0  0  0  0  0
   39.5570   26.8620   32.0970 H   0  0  0  0  0  0  0  0  0  0  0  0
   39.1110   28.8580   31.1260 H   0  0  0  0  0  0  0  0  0  0  0  0
   38.9470   27.8200   29.7160 H   0  0  0  0  0  0  0  0  0  0  0  0
   36.7410   28.2200   29.4730 H   0  0  0  0  0  0  0  0  0  0  0  0
   37.1950   29.7070   30.3010 H   0  0  0  0  0  0  0  0  0  0  0  0
   35.1110   28.4850   31.2180 H   0  0  0  0  0  0  0  0  0  0  0  0
   36.4220   28.9070   32.4260 H   0  0  0  0  0  0  0  0  0  0  0  0
   35.5290   26.7370   32.7610 H   0  0  0  0  0  0  0  0  0  0  0  0
   37.8520   26.3820   33.9510 C   0  0  0  0  0  0  0  0  0  0  0  0
   38.0990   27.3550   34.9180 C   0  0  0  0  0  0  0  0  0  0  0  0
   38.3530   26.9710   36.2250 C   0  0  0  0  0  0  0  0  0  0  0  0
   38.3450   25.6310   36.4880 N   0  0  0  0  0  0  0  0  0  0  0  0
   38.1060   24.7180   35.5440 C   0  0  0  0  0  0  0  0  0  0  0  0
   37.8580   25.0870   34.2730 N   0  0  0  0  0  0  0  0  0  0  0  0
   38.0910   28.3770   34.6490 H   0  0  0  0  0  0  0  0  0  0  0  0
   38.5350   27.7430   36.9300 H   0  0  0  0  0  0  0  0  0  0  0  0
   38.1160   23.6550   35.8290 H   0  0  0  0  0  0  0  0  0  0  0  0
   36.0040   25.8880   30.8690 C   0  0  0  0  0  3  0  0  0  0  0  0
   35.8710   24.4490   31.0240 C   0  0  0  0  0  2  0  0  0  0  0  0
   34.6100   25.2240   30.9280 C   0  0  0  0  0  2  0  0  0  0  0  0
  1 16  1  0  0  0  0
  2  8  1  0  0  0  0
  2  1  1  0  0  0  0
  3  9  1  0  0  0  0
  3  2  1  0  0  0  0
  4  3  1  0  0  0  0
  4  5  1  0  0  0  0
  5  6  1  0  0  0  0
  5 14  1  0  0  0  0
  6  1  1  0  0  0  0
  6 15  1  1  0  0  0
  7  2  1  0  0  0  0
 10  3  1  0  0  0  0
 11  4  1  0  0  0  0
 12  4  1  0  0  0  0
 13  5  1  0  0  0  0
 16 21  2  0  0  0  0
 16 17  1  0  0  0  0
 17 18  2  0  0  0  0
 18 19  1  0  0  0  0
 18 23  1  0  0  0  0
 20 24  1  0  0  0  0
 20 19  2  0  0  0  0
 21 20  1  0  0  0  0
 22 17  1  0  0  0  0
 25 27  1  0  0  0  0
 25 26  1  0  0  0  0
 25  6  1  0  0  0  0
 27 26  1  0  0  0  0
M  END
>  <minimizedAffinity>
-4.11093473

$$$$

 OpenBabel03262521583D

 27 29  0  0  1  0  0  0  0  0999 V2000
   39.6100   26.1910   34.5300 N   0  0  0  0  0  0  0  0  0  0  0  0
   38.7040   26.1080   33.4140 C   0  0  0  0  0  0  0  0  0  0  0  0
   37.6100   27.0790   33.3410 C   0  0  0  0  0  0  0  0  0  0  0  0
   37.0660   27.6180   34.6220 C   0  0  0  0  0  0  0  0  0  0  0  0
   38.0620   27.6010   35.7330 C   0  0  0  0  0  0  0  0  0  0  0  0
   38.8270   26.2670   35.7170 C   0  0  1  0  0  0  0  0  0  0  0  0
   38.2830   25.0690   33.3530 H   0  0  0  0  0  0  0  0  0  0  0  0
   39.3360   26.1860   32.5040 H   0  0  0  0  0  0  0  0  0  0  0  0
   37.9160   27.9380   32.7080 H   0  0  0  0  0  0  0  0  0  0  0  0
   36.7500   26.6240   32.7830 H   0  0  0  0  0  0  0  0  0  0  0  0
   36.1610   27.0490   34.9180 H   0  0  0  0  0  0  0  0  0  0  0  0
   36.7030   28.6620   34.4610 H   0  0  0  0  0  0  0  0  0  0  0  0
   37.5980   27.7560   36.7090 H   0  0  0  0  0  0  0  0  0  0  0  0
   38.8390   28.3780   35.5150 H   0  0  0  0  0  0  0  0  0  0  0  0
   39.5160   26.3730   36.5800 H   0  0  0  0  0  0  0  0  0  0  0  0
   41.0290   26.1930   34.4300 C   0  0  0  0  0  0  0  0  0  0  0  0
   41.7560   27.1640   33.7440 C   0  0  0  0  0  0  0  0  0  0  0  0
   43.1390   27.0810   33.7030 C   0  0  0  0  0  0  0  0  0  0  0  0
   43.7140   26.0290   34.3540 N   0  0  0  0  0  0  0  0  0  0  0  0
   42.9960   25.1110   35.0060 C   0  0  0  0  0  0  0  0  0  0  0  0
   41.6520   25.1880   35.0480 N   0  0  0  0  0  0  0  0  0  0  0  0
   41.2490   27.9550   33.2580 H   0  0  0  0  0  0  0  0  0  0  0  0
   43.6530   27.8410   33.1700 H   0  0  0  0  0  0  0  0  0  0  0  0
   43.5280   24.2890   35.5090 H   0  0  0  0  0  0  0  0  0  0  0  0
   37.9210   25.1110   35.9570 C   0  0  0  0  0  3  0  0  0  0  0  0
   38.3570   23.7340   36.1150 C   0  0  0  0  0  2  0  0  0  0  0  0
   38.0220   24.4710   37.3590 C   0  0  0  0  0  2  0  0  0  0  0  0
  1  6  1  0  0  0  0
  2  1  1  0  0  0  0
  3  2  1  0  0  0  0
  3  4  1  0  0  0  0
  4 11  1  0  0  0  0
  4  5  1  0  0  0  0
  5 13  1  0  0  0  0
  6  5  1  0  0  0  0
  6 25  1  0  0  0  0
  6 15  1  1  0  0  0
  7  2  1  0  0  0  0
  8  2  1  0  0  0  0
  9  3  1  0  0  0  0
 10  3  1  0  0  0  0
 12  4  1  0  0  0  0
 14  5  1  0  0  0  0
 16  1  1  0  0  0  0
 16 21  1  0  0  0  0
 17 16  2  0  0  0  0
 18 17  1  0  0  0  0
 18 19  2  0  0  0  0
 19 20  1  0  0  0  0
 20 21  2  0  0  0  0
 20 24  1  0  0  0  0
 22 17  1  0  0  0  0
 23 18  1  0  0  0  0
 25 26  1  0  0  0  0
 25 27  1  0  0  0  0
 26 27  1  0  0  0  0
M  END
>  <minimizedAffinity>
-4.10093689

$$$$

 OpenBabel03262521583D

 27 29  0  0  1  0  0  0  0  0999 V2000
   38.6140   24.2420   35.8350 N   0  0  0  0  0  0  0  0  0  0  0  0
   38.1740   23.6130   37.0510 C   0  0  0  0  0  0  0  0  0  0  0  0
   39.1920   23.1040   37.9730 C   0  0  0  0  0  0  0  0  0  0  0  0
   40.4880   22.6390   37.3950 C   0  0  0  0  0  0  0  0  0  0  0  0
   40.8230   23.3040   36.1020 C   0  0  0  0  0  0  0  0  0  0  0  0
   39.5650   23.3780   35.2210 C   0  0  1  0  0  0  0  0  0  0  0  0
   37.4520   22.7890   36.8030 H   0  0  0  0  0  0  0  0  0  0  0  0
   37.5420   24.3650   37.5700 H   0  0  0  0  0  0  0  0  0  0  0  0
   39.4140   23.8710   38.7440 H   0  0  0  0  0  0  0  0  0  0  0  0
   38.7660   22.2470   38.5560 H   0  0  0  0  0  0  0  0  0  0  0  0
   40.4690   21.5390   37.2590 H   0  0  0  0  0  0  0  0  0  0  0  0
   41.3080   22.8190   38.1320 H   0  0  0  0  0  0  0  0  0  0  0  0
   41.6270   22.7920   35.5680 H   0  0  0  0  0  0  0  0  0  0  0  0
   41.0840   24.3720   36.3180 H   0  0  0  0  0  0  0  0  0  0  0  0
   39.9420   23.8740   34.3030 H   0  0  0  0  0  0  0  0  0  0  0  0
   38.1610   25.5040   35.3580 C   0  0  0  0  0  0  0  0  0  0  0  0
   38.2970   26.6960   36.0680 C   0  0  0  0  0  0  0  0  0  0  0  0
   37.8240   27.8760   35.5190 C   0  0  0  0  0  0  0  0  0  0  0  0
   37.2400   27.7950   34.2890 N   0  0  0  0  0  0  0  0  0  0  0  0
   37.1220   26.6420   33.6270 C   0  0  0  0  0  0  0  0  0  0  0  0
   37.5800   25.4920   34.1570 N   0  0  0  0  0  0  0  0  0  0  0  0
   38.7590   26.6900   37.0190 H   0  0  0  0  0  0  0  0  0  0  0  0
   37.9480   28.7610   36.0930 H   0  0  0  0  0  0  0  0  0  0  0  0
   36.6390   26.6520   32.6380 H   0  0  0  0  0  0  0  0  0  0  0  0
   39.0600   22.0240   34.8690 C   0  0  0  0  0  3  0  0  0  0  0  0
   37.8960   21.7620   34.0400 C   0  0  0  0  0  2  0  0  0  0  0  0
   39.2210   21.6210   33.3870 C   0  0  0  0  0  2  0  0  0  0  0  0
  1  2  1  0  0  0  0
  2  8  1  0  0  0  0
  2  3  1  0  0  0  0
  3 10  1  0  0  0  0
  3  9  1  0  0  0  0
  4  3  1  0  0  0  0
  4 12  1  0  0  0  0
  5 14  1  0  0  0  0
  5  4  1  0  0  0  0
  6 15  1  6  0  0  0
  6  1  1  0  0  0  0
  6  5  1  0  0  0  0
  7  2  1  0  0  0  0
 11  4  1  0  0  0  0
 13  5  1  0  0  0  0
 16  1  1  0  0  0  0
 16 17  1  0  0  0  0
 17 22  1  0  0  0  0
 18 17  2  0  0  0  0
 18 23  1  0  0  0  0
 19 18  1  0  0  0  0
 20 21  1  0  0  0  0
 20 19  2  0  0  0  0
 21 16  2  0  0  0  0
 24 20  1  0  0  0  0
 25  6  1  0  0  0  0
 26 25  1  0  0  0  0
 27 26  1  0  0  0  0
 27 25  1  0  0  0  0
M  END
>  <minimizedAffinity>
-4.09411812

$$$$
