
 OpenBabel03262523293D

 25 28  0  0  0  0  0  0  0  0999 V2000
   37.2500   30.8000   46.4690 C   0  0  0  0  0  0  0  0  0  0  0  0
   37.8520   31.2240   47.6320 C   0  0  0  0  0  0  0  0  0  0  0  0
   38.8440   32.1750   47.5960 C   0  0  0  0  0  0  0  0  0  0  0  0
   39.2120   32.6880   46.3560 C   0  0  0  0  0  0  0  0  0  0  0  0
   40.1570   33.6270   46.0750 N   0  0  0  0  0  0  0  0  0  0  0  0
   40.1530   33.7960   44.7350 C   0  0  0  0  0  0  0  0  0  0  0  0
   39.2410   32.9990   44.1770 N   0  0  0  0  0  0  0  0  0  0  0  0
   38.6370   32.2920   45.1620 C   0  0  0  0  0  0  0  0  0  0  0  0
   37.6360   31.3270   45.2390 C   0  0  0  0  0  0  0  0  0  0  0  0
   36.4670   30.0550   46.4380 H   0  0  0  0  0  0  0  0  0  0  0  0
   39.3220   32.5140   48.5070 H   0  0  0  0  0  0  0  0  0  0  0  0
   40.7880   34.1440   46.7330 H   0  0  0  0  0  0  0  0  0  0  0  0
   40.7530   34.4520   44.0980 H   0  0  0  0  0  0  0  0  0  0  0  0
   37.1720   31.0030   44.3280 H   0  0  0  0  0  0  0  0  0  0  0  0
   37.3640   30.2880   51.2380 C   0  0  0  0  0  0  0  0  0  0  0  0
   37.8960   30.9400   50.1290 C   0  0  0  0  0  0  0  0  0  0  0  0
   37.3940   30.6240   48.8820 C   0  0  0  0  0  0  0  0  0  0  0  0
   36.4040   29.6920   48.8040 N   0  0  0  0  0  0  0  0  0  0  0  0
   35.9030   29.0720   49.9000 C   0  0  0  0  0  0  0  0  0  0  0  0
   36.3750   29.3640   51.1080 N   0  0  0  0  0  0  0  0  0  0  0  0
   37.7640   30.5420   52.2080 H   0  0  0  0  0  0  0  0  0  0  0  0
   38.6680   31.6670   50.1940 H   0  0  0  0  0  0  0  0  0  0  0  0
   34.8210   28.0620   49.7400 C   0  0  0  0  0  0  0  0  0  0  0  0
   34.2470   27.7420   48.4270 C   0  0  0  0  0  0  0  0  0  0  0  0
   33.4770   28.6730   49.2780 C   0  0  0  0  0  0  0  0  0  0  0  0
  1  2  1  0  0  0  0
  2 17  1  0  0  0  0
  3  2  2  0  0  0  0
  3 11  1  0  0  0  0
  4  3  1  0  0  0  0
  5  4  1  0  0  0  0
  5 12  1  0  0  0  0
  6  5  1  0  0  0  0
  7  6  2  0  0  0  0
  7  8  1  0  0  0  0
  8  9  1  0  0  0  0
  8  4  2  0  0  0  0
  9  1  2  0  0  0  0
 10  1  1  0  0  0  0
 13  6  1  0  0  0  0
 14  9  1  0  0  0  0
 15 21  1  0  0  0  0
 16 22  1  0  0  0  0
 16 15  2  0  0  0  0
 17 16  1  0  0  0  0
 18 17  2  0  0  0  0
 18 19  1  0  0  0  0
 19 20  2  0  0  0  0
 20 15  1  0  0  0  0
 23 19  1  0  0  0  0
 24 25  1  0  0  0  0
 24 23  1  0  0  0  0
 25 23  1  0  0  0  0
M  END
>  <minimizedAffinity>
-6.52975559

>  <minimizedRMSD>
0.983967781

$$$$
