
 OpenBabel03272502433D

 22 24  0  0  0  0  0  0  0  0999 V2000
   35.5730   20.8630   36.5680 Cl  0  0  0  0  0  0  0  0  0  0  0  0
   36.2180   21.1120   34.9750 C   0  0  0  0  0  0  0  0  0  0  0  0
   37.3770   21.8170   34.8240 C   0  0  0  0  0  0  0  0  0  0  0  0
   37.9300   22.0400   33.5770 C   0  0  0  0  0  0  0  0  0  0  0  0
   37.3110   21.5460   32.4400 C   0  0  0  0  0  0  0  0  0  0  0  0
   36.1280   20.8240   32.5750 C   0  0  0  0  0  0  0  0  0  0  0  0
   35.2460   20.1470   31.2220 Cl  0  0  0  0  0  0  0  0  0  0  0  0
   35.6120   20.6270   33.8540 C   0  0  0  0  0  0  0  0  0  0  0  0
   38.8500   22.6020   33.4780 H   0  0  0  0  0  0  0  0  0  0  0  0
   37.7020   21.6920   31.4310 H   0  0  0  0  0  0  0  0  0  0  0  0
   34.6940   20.0690   33.9830 H   0  0  0  0  0  0  0  0  0  0  0  0
   38.0680   23.6990   37.8920 C   0  0  0  0  0  0  0  0  0  0  0  0
   39.3930   23.3470   38.1940 C   0  0  0  0  0  0  0  0  0  0  0  0
   40.0400   22.4440   37.3140 C   0  0  0  0  0  0  0  0  0  0  0  0
   39.3290   21.9960   36.2550 N   0  0  0  0  0  0  0  0  0  0  0  0
   38.0560   22.3510   35.9860 C   0  0  0  0  0  0  0  0  0  0  0  0
   37.4280   23.2130   36.8210 N   0  0  0  0  0  0  0  0  0  0  0  0
   37.6300   24.3950   38.6060 H   0  0  0  0  0  0  0  0  0  0  0  0
   39.9570   23.6930   39.0220 H   0  0  0  0  0  0  0  0  0  0  0  0
   41.4370   21.9680   37.4860 C   0  0  0  0  0  3  0  0  0  0  0  0
   42.5170   22.6650   36.6690 C   0  0  0  0  0  2  0  0  0  0  0  0
   42.1210   21.2250   36.4250 C   0  0  0  0  0  2  0  0  0  0  0  0
  2  1  1  0  0  0  0
  3  2  1  0  0  0  0
  3 16  1  0  0  0  0
  4  3  2  0  0  0  0
  5  6  2  0  0  0  0
  5  4  1  0  0  0  0
  6  8  1  0  0  0  0
  7  6  1  0  0  0  0
  8 11  1  0  0  0  0
  8  2  2  0  0  0  0
  9  4  1  0  0  0  0
 10  5  1  0  0  0  0
 12 13  1  0  0  0  0
 12 18  1  0  0  0  0
 13 19  1  0  0  0  0
 14 20  1  0  0  0  0
 14 13  2  0  0  0  0
 15 14  1  0  0  0  0
 16 15  2  0  0  0  0
 16 17  1  0  0  0  0
 17 12  2  0  0  0  0
 21 20  1  0  0  0  0
 22 21  1  0  0  0  0
 22 20  1  0  0  0  0
M  END
>  <minimizedAffinity>
-5.12961197

$$$$

 OpenBabel03272502433D

 22 24  0  0  0  0  0  0  0  0999 V2000
   38.1730   27.6490   35.7250 Cl  0  0  0  0  0  0  0  0  0  0  0  0
   37.3640   27.3690   34.2150 C   0  0  0  0  0  0  0  0  0  0  0  0
   37.4310   26.1340   33.6370 C   0  0  0  0  0  0  0  0  0  0  0  0
   36.8030   25.8640   32.4360 C   0  0  0  0  0  0  0  0  0  0  0  0
   36.0820   26.8530   31.7860 C   0  0  0  0  0  0  0  0  0  0  0  0
   36.0030   28.1180   32.3610 C   0  0  0  0  0  0  0  0  0  0  0  0
   35.1270   29.4550   31.6450 Cl  0  0  0  0  0  0  0  0  0  0  0  0
   36.6540   28.3390   33.5730 C   0  0  0  0  0  0  0  0  0  0  0  0
   36.8690   24.8780   31.9940 H   0  0  0  0  0  0  0  0  0  0  0  0
   35.5680   26.6950   30.8360 H   0  0  0  0  0  0  0  0  0  0  0  0
   36.6060   29.3160   34.0380 H   0  0  0  0  0  0  0  0  0  0  0  0
   39.8930   23.4930   34.2670 C   0  0  0  0  0  0  0  0  0  0  0  0
   39.5630   23.0470   35.5560 C   0  0  0  0  0  0  0  0  0  0  0  0
   38.4720   23.6800   36.2010 C   0  0  0  0  0  0  0  0  0  0  0  0
   37.8370   24.6620   35.5230 N   0  0  0  0  0  0  0  0  0  0  0  0
   38.1740   25.0720   34.2830 C   0  0  0  0  0  0  0  0  0  0  0  0
   39.2150   24.4740   33.6580 N   0  0  0  0  0  0  0  0  0  0  0  0
   40.7390   22.9650   33.8280 H   0  0  0  0  0  0  0  0  0  0  0  0
   40.0560   22.2780   36.0950 H   0  0  0  0  0  0  0  0  0  0  0  0
   37.9910   23.3310   37.5640 C   0  0  0  0  0  3  0  0  0  0  0  0
   37.9710   24.4460   38.6020 C   0  0  0  0  0  2  0  0  0  0  0  0
   38.9140   23.2660   38.6990 C   0  0  0  0  0  2  0  0  0  0  0  0
  2  1  1  0  0  0  0
  3  2  1  0  0  0  0
  3 16  1  0  0  0  0
  4  3  2  0  0  0  0
  5  6  2  0  0  0  0
  5  4  1  0  0  0  0
  6  8  1  0  0  0  0
  7  6  1  0  0  0  0
  8 11  1  0  0  0  0
  8  2  2  0  0  0  0
  9  4  1  0  0  0  0
 10  5  1  0  0  0  0
 12 13  1  0  0  0  0
 13 19  1  0  0  0  0
 13 14  2  0  0  0  0
 14 20  1  0  0  0  0
 15 14  1  0  0  0  0
 16 15  2  0  0  0  0
 17 12  2  0  0  0  0
 17 16  1  0  0  0  0
 18 12  1  0  0  0  0
 20 21  1  0  0  0  0
 20 22  1  0  0  0  0
 21 22  1  0  0  0  0
M  END
>  <minimizedAffinity>
-4.87693071

$$$$

 OpenBabel03272502433D

 22 24  0  0  0  0  0  0  0  0999 V2000
   38.4810   27.3460   36.0390 Cl  0  0  0  0  0  0  0  0  0  0  0  0
   38.0090   26.5140   34.5900 C   0  0  0  0  0  0  0  0  0  0  0  0
   38.0320   25.1490   34.5630 C   0  0  0  0  0  0  0  0  0  0  0  0
   37.6650   24.4430   33.4330 C   0  0  0  0  0  0  0  0  0  0  0  0
   37.2600   25.1150   32.2900 C   0  0  0  0  0  0  0  0  0  0  0  0
   37.2310   26.5060   32.3000 C   0  0  0  0  0  0  0  0  0  0  0  0
   36.7400   27.4750   30.9260 Cl  0  0  0  0  0  0  0  0  0  0  0  0
   37.6100   27.1710   33.4640 C   0  0  0  0  0  0  0  0  0  0  0  0
   37.6900   23.3610   33.4310 H   0  0  0  0  0  0  0  0  0  0  0  0
   36.9600   24.6080   31.3700 H   0  0  0  0  0  0  0  0  0  0  0  0
   37.5950   28.2530   33.4950 H   0  0  0  0  0  0  0  0  0  0  0  0
   38.0040   23.5460   37.8590 C   0  0  0  0  0  0  0  0  0  0  0  0
   39.2890   22.9900   37.9560 C   0  0  0  0  0  0  0  0  0  0  0  0
   40.1640   23.1810   36.8570 C   0  0  0  0  0  0  0  0  0  0  0  0
   39.6890   23.8840   35.8040 N   0  0  0  0  0  0  0  0  0  0  0  0
   38.4490   24.4090   35.7360 C   0  0  0  0  0  0  0  0  0  0  0  0
   37.6060   24.2320   36.7800 N   0  0  0  0  0  0  0  0  0  0  0  0
   37.3850   23.3640   38.7360 H   0  0  0  0  0  0  0  0  0  0  0  0
   39.6690   22.4370   38.7770 H   0  0  0  0  0  0  0  0  0  0  0  0
   41.5540   22.6600   36.7960 C   0  0  0  0  0  3  0  0  0  0  0  0
   41.8330   21.5320   35.8100 C   0  0  0  0  0  2  0  0  0  0  0  0
   41.8880   21.3290   37.3090 C   0  0  0  0  0  2  0  0  0  0  0  0
  2  1  1  0  0  0  0
  3  2  1  0  0  0  0
  3 16  1  0  0  0  0
  4  3  2  0  0  0  0
  5  6  2  0  0  0  0
  5  4  1  0  0  0  0
  6  8  1  0  0  0  0
  7  6  1  0  0  0  0
  8 11  1  0  0  0  0
  8  2  2  0  0  0  0
  9  4  1  0  0  0  0
 10  5  1  0  0  0  0
 12 13  1  0  0  0  0
 12 18  1  0  0  0  0
 13 19  1  0  0  0  0
 14 13  2  0  0  0  0
 15 14  1  0  0  0  0
 16 15  2  0  0  0  0
 16 17  1  0  0  0  0
 17 12  2  0  0  0  0
 20 14  1  0  0  0  0
 20 22  1  0  0  0  0
 21 20  1  0  0  0  0
 21 22  1  0  0  0  0
M  END
>  <minimizedAffinity>
-4.85205126

$$$$

 OpenBabel03272502433D

 22 24  0  0  0  0  0  0  0  0999 V2000
   39.2660   24.3120   31.0230 Cl  0  0  0  0  0  0  0  0  0  0  0  0
   37.8410   23.3260   31.1470 C   0  0  0  0  0  0  0  0  0  0  0  0
   36.6850   23.8760   31.6200 C   0  0  0  0  0  0  0  0  0  0  0  0
   35.5260   23.1320   31.7350 C   0  0  0  0  0  0  0  0  0  0  0  0
   35.5140   21.7950   31.3680 C   0  0  0  0  0  0  0  0  0  0  0  0
   36.6850   21.2190   30.8840 C   0  0  0  0  0  0  0  0  0  0  0  0
   36.8060   19.5440   30.3860 Cl  0  0  0  0  0  0  0  0  0  0  0  0
   37.8260   22.0120   30.7860 C   0  0  0  0  0  0  0  0  0  0  0  0
   34.6200   23.5860   32.1130 H   0  0  0  0  0  0  0  0  0  0  0  0
   34.6290   21.1610   31.4390 H   0  0  0  0  0  0  0  0  0  0  0  0
   38.7470   21.5840   30.4120 H   0  0  0  0  0  0  0  0  0  0  0  0
   36.1850   27.5070   31.5420 C   0  0  0  0  0  0  0  0  0  0  0  0
   36.6170   27.9170   32.8120 C   0  0  0  0  0  0  0  0  0  0  0  0
   37.0840   26.9120   33.6950 C   0  0  0  0  0  0  0  0  0  0  0  0
   37.0750   25.6380   33.2420 N   0  0  0  0  0  0  0  0  0  0  0  0
   36.6550   25.2690   32.0150 C   0  0  0  0  0  0  0  0  0  0  0  0
   36.2070   26.2220   31.1640 N   0  0  0  0  0  0  0  0  0  0  0  0
   35.8400   28.3270   30.9140 H   0  0  0  0  0  0  0  0  0  0  0  0
   36.6270   28.9130   33.1760 H   0  0  0  0  0  0  0  0  0  0  0  0
   37.5760   27.1730   35.0730 C   0  0  0  0  0  3  0  0  0  0  0  0
   39.0830   27.1350   35.2950 C   0  0  0  0  0  2  0  0  0  0  0  0
   38.1510   26.1010   35.8890 C   0  0  0  0  0  2  0  0  0  0  0  0
  1  2  1  0  0  0  0
  2  3  1  0  0  0  0
  3  4  2  0  0  0  0
  3 16  1  0  0  0  0
  4  9  1  0  0  0  0
  5 10  1  0  0  0  0
  5  4  1  0  0  0  0
  6  5  2  0  0  0  0
  7  6  1  0  0  0  0
  8  6  1  0  0  0  0
  8  2  2  0  0  0  0
 11  8  1  0  0  0  0
 12 13  1  0  0  0  0
 13 19  1  0  0  0  0
 13 14  2  0  0  0  0
 14 20  1  0  0  0  0
 15 14  1  0  0  0  0
 16 15  2  0  0  0  0
 17 12  2  0  0  0  0
 17 16  1  0  0  0  0
 18 12  1  0  0  0  0
 20 21  1  0  0  0  0
 20 22  1  0  0  0  0
 21 22  1  0  0  0  0
M  END
>  <minimizedAffinity>
-4.80300808

$$$$

 OpenBabel03272502433D

 22 24  0  0  0  0  0  0  0  0999 V2000
   37.9410   23.5920   33.6170 Cl  0  0  0  0  0  0  0  0  0  0  0  0
   37.8520   25.2030   34.2600 C   0  0  0  0  0  0  0  0  0  0  0  0
   38.4540   25.4820   35.4530 C   0  0  0  0  0  0  0  0  0  0  0  0
   38.4110   26.7480   36.0040 C   0  0  0  0  0  0  0  0  0  0  0  0
   37.7470   27.7740   35.3490 C   0  0  0  0  0  0  0  0  0  0  0  0
   37.1280   27.5060   34.1320 C   0  0  0  0  0  0  0  0  0  0  0  0
   36.2570   28.7090   33.2030 Cl  0  0  0  0  0  0  0  0  0  0  0  0
   37.2010   26.2140   33.6180 C   0  0  0  0  0  0  0  0  0  0  0  0
   38.8940   26.9500   36.9520 H   0  0  0  0  0  0  0  0  0  0  0  0
   37.6810   28.7910   35.7390 H   0  0  0  0  0  0  0  0  0  0  0  0
   36.7260   25.9830   32.6730 H   0  0  0  0  0  0  0  0  0  0  0  0
   39.2470   22.8540   37.8820 C   0  0  0  0  0  0  0  0  0  0  0  0
   40.5400   22.4540   37.5110 C   0  0  0  0  0  0  0  0  0  0  0  0
   41.1300   23.1110   36.4030 C   0  0  0  0  0  0  0  0  0  0  0  0
   40.3990   24.0720   35.7930 N   0  0  0  0  0  0  0  0  0  0  0  0
   39.1580   24.4390   36.1700 C   0  0  0  0  0  0  0  0  0  0  0  0
   38.5850   23.8170   37.2280 N   0  0  0  0  0  0  0  0  0  0  0  0
   38.8530   22.3110   38.7400 H   0  0  0  0  0  0  0  0  0  0  0  0
   41.1190   21.7010   37.9830 H   0  0  0  0  0  0  0  0  0  0  0  0
   42.4870   22.8100   35.8790 C   0  0  0  0  0  3  0  0  0  0  0  0
   43.6580   23.5560   36.5060 C   0  0  0  0  0  2  0  0  0  0  0  0
   43.2240   23.7880   35.0750 C   0  0  0  0  0  2  0  0  0  0  0  0
  1  2  1  0  0  0  0
  2  3  1  0  0  0  0
  3  4  2  0  0  0  0
  3 16  1  0  0  0  0
  4  9  1  0  0  0  0
  5 10  1  0  0  0  0
  5  4  1  0  0  0  0
  6  5  2  0  0  0  0
  7  6  1  0  0  0  0
  8  6  1  0  0  0  0
  8  2  2  0  0  0  0
 11  8  1  0  0  0  0
 12 18  1  0  0  0  0
 13 12  1  0  0  0  0
 13 19  1  0  0  0  0
 14 13  2  0  0  0  0
 15 16  2  0  0  0  0
 15 14  1  0  0  0  0
 16 17  1  0  0  0  0
 17 12  2  0  0  0  0
 20 14  1  0  0  0  0
 20 21  1  0  0  0  0
 22 20  1  0  0  0  0
 22 21  1  0  0  0  0
M  END
>  <minimizedAffinity>
-4.7958231

$$$$

 OpenBabel03272502433D

 22 24  0  0  0  0  0  0  0  0999 V2000
   36.2150   31.3490   35.6990 Cl  0  0  0  0  0  0  0  0  0  0  0  0
   34.5580   30.9220   35.4060 C   0  0  0  0  0  0  0  0  0  0  0  0
   34.2700   29.9280   34.5150 C   0  0  0  0  0  0  0  0  0  0  0  0
   32.9670   29.5530   34.2490 C   0  0  0  0  0  0  0  0  0  0  0  0
   31.9120   30.1860   34.8890 C   0  0  0  0  0  0  0  0  0  0  0  0
   32.1890   31.2010   35.8000 C   0  0  0  0  0  0  0  0  0  0  0  0
   30.9520   32.0800   36.6750 Cl  0  0  0  0  0  0  0  0  0  0  0  0
   33.5190   31.5420   36.0330 C   0  0  0  0  0  0  0  0  0  0  0  0
   32.7590   28.7630   33.5390 H   0  0  0  0  0  0  0  0  0  0  0  0
   30.8650   29.9310   34.7160 H   0  0  0  0  0  0  0  0  0  0  0  0
   33.7560   32.3290   36.7380 H   0  0  0  0  0  0  0  0  0  0  0  0
   36.5820   28.8380   31.8880 C   0  0  0  0  0  0  0  0  0  0  0  0
   37.4000   27.9070   32.5460 C   0  0  0  0  0  0  0  0  0  0  0  0
   37.1340   27.6650   33.9170 C   0  0  0  0  0  0  0  0  0  0  0  0
   36.1140   28.3520   34.4800 N   0  0  0  0  0  0  0  0  0  0  0  0
   35.3420   29.2420   33.8250 C   0  0  0  0  0  0  0  0  0  0  0  0
   35.5870   29.4800   32.5140 N   0  0  0  0  0  0  0  0  0  0  0  0
   36.8380   28.9760   30.8380 H   0  0  0  0  0  0  0  0  0  0  0  0
   38.2010   27.3650   32.1130 H   0  0  0  0  0  0  0  0  0  0  0  0
   37.9020   26.7140   34.7610 C   0  0  0  0  0  3  0  0  0  0  0  0
   38.5980   27.2790   35.9940 C   0  0  0  0  0  2  0  0  0  0  0  0
   39.3660   26.7490   34.8030 C   0  0  0  0  0  2  0  0  0  0  0  0
  2  1  1  0  0  0  0
  2  8  1  0  0  0  0
  3  2  2  0  0  0  0
  4  3  1  0  0  0  0
  4  5  2  0  0  0  0
  5  6  1  0  0  0  0
  6  8  2  0  0  0  0
  6  7  1  0  0  0  0
  8 11  1  0  0  0  0
  9  4  1  0  0  0  0
 10  5  1  0  0  0  0
 12 17  2  0  0  0  0
 12 13  1  0  0  0  0
 13 14  2  0  0  0  0
 14 15  1  0  0  0  0
 14 20  1  0  0  0  0
 16 15  2  0  0  0  0
 16  3  1  0  0  0  0
 17 16  1  0  0  0  0
 18 12  1  0  0  0  0
 19 13  1  0  0  0  0
 20 22  1  0  0  0  0
 20 21  1  0  0  0  0
 22 21  1  0  0  0  0
M  END
>  <minimizedAffinity>
-4.78526497

$$$$

 OpenBabel03272502433D

 22 24  0  0  0  0  0  0  0  0999 V2000
   40.9000   25.6810   34.0350 Cl  0  0  0  0  0  0  0  0  0  0  0  0
   40.0880   24.6120   35.1360 C   0  0  0  0  0  0  0  0  0  0  0  0
   38.7330   24.6970   35.2770 C   0  0  0  0  0  0  0  0  0  0  0  0
   38.0440   23.8680   36.1400 C   0  0  0  0  0  0  0  0  0  0  0  0
   38.7220   22.9210   36.8910 C   0  0  0  0  0  0  0  0  0  0  0  0
   40.1040   22.8200   36.7600 C   0  0  0  0  0  0  0  0  0  0  0  0
   41.0800   21.6680   37.6480 Cl  0  0  0  0  0  0  0  0  0  0  0  0
   40.7520   23.6790   35.8750 C   0  0  0  0  0  0  0  0  0  0  0  0
   36.9690   23.9520   36.2380 H   0  0  0  0  0  0  0  0  0  0  0  0
   38.2280   22.2410   37.5880 H   0  0  0  0  0  0  0  0  0  0  0  0
   41.8270   23.6180   35.7580 H   0  0  0  0  0  0  0  0  0  0  0  0
   37.0590   27.8060   34.2900 C   0  0  0  0  0  0  0  0  0  0  0  0
   36.5540   27.5070   33.0150 C   0  0  0  0  0  0  0  0  0  0  0  0
   36.8050   26.2090   32.5060 C   0  0  0  0  0  0  0  0  0  0  0  0
   37.5120   25.3630   33.2890 N   0  0  0  0  0  0  0  0  0  0  0  0
   37.9870   25.6740   34.5120 C   0  0  0  0  0  0  0  0  0  0  0  0
   37.7520   26.9120   35.0080 N   0  0  0  0  0  0  0  0  0  0  0  0
   36.8310   28.8170   34.6220 H   0  0  0  0  0  0  0  0  0  0  0  0
   35.9990   28.1640   32.3950 H   0  0  0  0  0  0  0  0  0  0  0  0
   36.3430   25.7300   31.1770 C   0  0  0  0  0  3  0  0  0  0  0  0
   34.9060   25.2360   31.0740 C   0  0  0  0  0  2  0  0  0  0  0  0
   36.0930   24.3080   30.9290 C   0  0  0  0  0  2  0  0  0  0  0  0
  1  2  1  0  0  0  0
  2  3  2  0  0  0  0
  2  8  1  0  0  0  0
  3  4  1  0  0  0  0
  4  9  1  0  0  0  0
  4  5  2  0  0  0  0
  5 10  1  0  0  0  0
  6  5  1  0  0  0  0
  6  7  1  0  0  0  0
  8  6  2  0  0  0  0
 11  8  1  0  0  0  0
 12 18  1  0  0  0  0
 12 17  1  0  0  0  0
 13 12  2  0  0  0  0
 14 13  1  0  0  0  0
 14 15  2  0  0  0  0
 15 16  1  0  0  0  0
 16 17  2  0  0  0  0
 16  3  1  0  0  0  0
 19 13  1  0  0  0  0
 20 14  1  0  0  0  0
 21 20  1  0  0  0  0
 22 21  1  0  0  0  0
 22 20  1  0  0  0  0
M  END
>  <minimizedAffinity>
-4.69502592

$$$$

 OpenBabel03272502433D

 22 24  0  0  0  0  0  0  0  0999 V2000
   37.9610   25.8470   34.7300 Cl  0  0  0  0  0  0  0  0  0  0  0  0
   37.0190   27.0970   33.9770 C   0  0  0  0  0  0  0  0  0  0  0  0
   36.6580   26.9680   32.6670 C   0  0  0  0  0  0  0  0  0  0  0  0
   35.9080   27.9350   32.0260 C   0  0  0  0  0  0  0  0  0  0  0  0
   35.5030   29.0720   32.7080 C   0  0  0  0  0  0  0  0  0  0  0  0
   35.8620   29.2200   34.0450 C   0  0  0  0  0  0  0  0  0  0  0  0
   35.4150   30.6040   35.0210 Cl  0  0  0  0  0  0  0  0  0  0  0  0
   36.6180   28.2150   34.6450 C   0  0  0  0  0  0  0  0  0  0  0  0
   35.6320   27.8140   30.9860 H   0  0  0  0  0  0  0  0  0  0  0  0
   34.9110   29.8670   32.2520 H   0  0  0  0  0  0  0  0  0  0  0  0
   36.9080   28.3100   35.6840 H   0  0  0  0  0  0  0  0  0  0  0  0
   38.6010   24.6810   30.5620 C   0  0  0  0  0  0  0  0  0  0  0  0
   37.7910   23.5370   30.4980 C   0  0  0  0  0  0  0  0  0  0  0  0
   36.5590   23.5740   31.1990 C   0  0  0  0  0  0  0  0  0  0  0  0
   36.2650   24.7090   31.8730 N   0  0  0  0  0  0  0  0  0  0  0  0
   37.0610   25.7960   31.9180 C   0  0  0  0  0  0  0  0  0  0  0  0
   38.2400   25.7710   31.2520 N   0  0  0  0  0  0  0  0  0  0  0  0
   39.5300   24.5870   30.0020 H   0  0  0  0  0  0  0  0  0  0  0  0
   38.0140   22.6430   29.9730 H   0  0  0  0  0  0  0  0  0  0  0  0
   35.5860   22.4520   31.2360 C   0  0  0  0  0  3  0  0  0  0  0  0
   35.6450   21.5170   32.4370 C   0  0  0  0  0  2  0  0  0  0  0  0
   36.0180   21.0660   31.0420 C   0  0  0  0  0  2  0  0  0  0  0  0
  2  8  1  0  0  0  0
  2  1  1  0  0  0  0
  3  2  2  0  0  0  0
  4  3  1  0  0  0  0
  4  5  2  0  0  0  0
  5  6  1  0  0  0  0
  6  8  2  0  0  0  0
  6  7  1  0  0  0  0
  8 11  1  0  0  0  0
  9  4  1  0  0  0  0
 10  5  1  0  0  0  0
 12 17  1  0  0  0  0
 13 12  2  0  0  0  0
 13 14  1  0  0  0  0
 14 20  1  0  0  0  0
 14 15  2  0  0  0  0
 15 16  1  0  0  0  0
 16  3  1  0  0  0  0
 17 16  2  0  0  0  0
 18 12  1  0  0  0  0
 19 13  1  0  0  0  0
 20 21  1  0  0  0  0
 22 20  1  0  0  0  0
 22 21  1  0  0  0  0
M  END
>  <minimizedAffinity>
-4.58802128

$$$$

 OpenBabel03272502433D

 22 24  0  0  0  0  0  0  0  0999 V2000
   38.3780   27.0560   36.4880 Cl  0  0  0  0  0  0  0  0  0  0  0  0
   38.0690   27.1290   34.7800 C   0  0  0  0  0  0  0  0  0  0  0  0
   38.9300   26.5170   33.9160 C   0  0  0  0  0  0  0  0  0  0  0  0
   38.7260   26.5470   32.5500 C   0  0  0  0  0  0  0  0  0  0  0  0
   37.6280   27.2090   32.0220 C   0  0  0  0  0  0  0  0  0  0  0  0
   36.7390   27.8380   32.8890 C   0  0  0  0  0  0  0  0  0  0  0  0
   35.3150   28.7070   32.3540 Cl  0  0  0  0  0  0  0  0  0  0  0  0
   36.9900   27.7780   34.2580 C   0  0  0  0  0  0  0  0  0  0  0  0
   39.4210   26.0560   31.8820 H   0  0  0  0  0  0  0  0  0  0  0  0
   37.4180   27.2650   30.9520 H   0  0  0  0  0  0  0  0  0  0  0  0
   36.3120   28.2610   34.9500 H   0  0  0  0  0  0  0  0  0  0  0  0
   42.3890   25.7080   34.8250 C   0  0  0  0  0  0  0  0  0  0  0  0
   42.2780   24.4390   35.4130 C   0  0  0  0  0  0  0  0  0  0  0  0
   40.9820   23.8700   35.4880 C   0  0  0  0  0  0  0  0  0  0  0  0
   39.9570   24.5970   34.9880 N   0  0  0  0  0  0  0  0  0  0  0  0
   40.0900   25.8160   34.4270 C   0  0  0  0  0  0  0  0  0  0  0  0
   41.3240   26.3680   34.3500 N   0  0  0  0  0  0  0  0  0  0  0  0
   43.4090   26.0870   34.7970 H   0  0  0  0  0  0  0  0  0  0  0  0
   43.0750   23.8620   35.8080 H   0  0  0  0  0  0  0  0  0  0  0  0
   40.6870   22.5390   36.0790 C   0  0  0  0  0  3  0  0  0  0  0  0
   40.4010   22.4870   37.5740 C   0  0  0  0  0  2  0  0  0  0  0  0
   41.6450   21.8740   36.9670 C   0  0  0  0  0  2  0  0  0  0  0  0
  2  1  1  0  0  0  0
  3 16  1  0  0  0  0
  3  2  2  0  0  0  0
  4  3  1  0  0  0  0
  5  4  2  0  0  0  0
  5  6  1  0  0  0  0
  6  8  2  0  0  0  0
  7  6  1  0  0  0  0
  8  2  1  0  0  0  0
  8 11  1  0  0  0  0
  9  4  1  0  0  0  0
 10  5  1  0  0  0  0
 12 13  1  0  0  0  0
 13 14  2  0  0  0  0
 13 19  1  0  0  0  0
 14 20  1  0  0  0  0
 15 14  1  0  0  0  0
 16 15  2  0  0  0  0
 17 16  1  0  0  0  0
 17 12  2  0  0  0  0
 18 12  1  0  0  0  0
 20 22  1  0  0  0  0
 20 21  1  0  0  0  0
 22 21  1  0  0  0  0
M  END
>  <minimizedAffinity>
-4.55527925

$$$$
