
 OpenBabel03272501373D

 30 33  0  0  1  0  0  0  0  0999 V2000
   37.3000   26.7780   35.0840 C   0  0  2  0  0  0  0  0  0  0  0  0
   38.8330   27.1650   35.2710 C   0  0  0  0  0  0  0  0  0  0  0  0
   38.3030   25.7680   35.0610 C   0  0  1  0  0  0  0  0  0  0  0  0
   36.7320   27.1400   35.9670 H   0  0  0  0  0  0  0  0  0  0  0  0
   39.3270   27.6990   34.4720 H   0  0  0  0  0  0  0  0  0  0  0  0
   39.0720   27.4810   36.3150 H   0  0  0  0  0  0  0  0  0  0  0  0
   38.6570   25.3590   34.0610 H   0  0  0  0  0  0  0  0  0  0  0  0
   38.5930   24.8220   36.1420 C   0  0  0  0  0  0  0  0  0  0  0  0
   37.8530   24.9400   37.3170 C   0  0  0  0  0  0  0  0  0  0  0  0
   38.1350   24.0550   38.3230 C   0  0  0  0  0  0  0  0  0  0  0  0
   39.1090   23.0760   38.2030 C   0  0  0  0  0  0  0  0  0  0  0  0
   39.8190   22.9900   37.0260 C   0  0  0  0  0  0  0  0  0  0  0  0
   39.5530   23.8540   36.0260 N   0  0  0  0  0  0  0  0  0  0  0  0
   37.1000   25.7070   37.3940 H   0  0  0  0  0  0  0  0  0  0  0  0
   37.6010   24.0920   39.2570 H   0  0  0  0  0  0  0  0  0  0  0  0
   39.3400   22.3650   39.0020 H   0  0  0  0  0  0  0  0  0  0  0  0
   40.5810   22.2390   36.9040 H   0  0  0  0  0  0  0  0  0  0  0  0
   36.8240   27.4300   33.8090 C   0  0  2  0  0  3  0  0  0  0  0  0
   37.0980   26.8610   32.6850 O   0  0  0  0  0  1  0  0  0  0  0  0
   34.4120   30.1430   32.9460 C   0  0  0  0  0  0  0  0  0  0  0  0
   35.1420   28.9770   32.9420 C   0  0  0  0  0  0  0  0  0  0  0  0
   36.0960   28.6570   33.9280 C   0  0  0  0  0  0  0  0  0  0  0  0
   36.2530   29.5490   34.8710 N   0  0  0  0  0  0  0  0  0  0  0  0
   35.5380   30.7090   34.8890 C   0  0  0  0  0  0  0  0  0  0  0  0
   34.6300   31.0200   33.9550 N   0  0  0  0  0  0  0  0  0  0  0  0
   33.6950   30.3280   32.1590 H   0  0  0  0  0  0  0  0  0  0  0  0
   34.9590   28.2700   32.1190 H   0  0  0  0  0  0  0  0  0  0  0  0
   35.8540   31.6120   36.0490 C   0  0  0  0  0  3  0  0  0  0  0  0
   35.2950   32.9640   36.1080 C   0  0  0  0  0  2  0  0  0  0  0  0
   34.5910   31.9390   36.9080 C   0  0  0  0  0  2  0  0  0  0  0  0
  1  2  1  0  0  0  0
  1  4  1  1  0  0  0
  2  6  1  0  0  0  0
  3  7  1  6  0  0  0
  3  1  1  0  0  0  0
  3  2  1  0  0  0  0
  3  8  1  0  0  0  0
  5  2  1  0  0  0  0
  8  9  1  0  0  0  0
  9 14  1  0  0  0  0
  9 10  2  0  0  0  0
 10 15  1  0  0  0  0
 11 10  1  0  0  0  0
 11 16  1  0  0  0  0
 12 11  2  0  0  0  0
 13  8  2  0  0  0  0
 13 12  1  0  0  0  0
 17 12  1  0  0  0  0
 18 19  1  6  0  0  0
 18 22  1  0  0  0  0
 18  1  1  0  0  0  0
 20 25  1  0  0  0  0
 21 20  2  0  0  0  0
 21 22  1  0  0  0  0
 22 23  2  0  0  0  0
 23 24  1  0  0  0  0
 24 28  1  0  0  0  0
 25 24  2  0  0  0  0
 26 20  1  0  0  0  0
 27 21  1  0  0  0  0
 28 29  1  0  0  0  0
 28 30  1  0  0  0  0
 29 30  1  0  0  0  0
M  END
>  <minimizedAffinity>
-5.60100222

$$$$

 OpenBabel03272501373D

 30 33  0  0  1  0  0  0  0  0999 V2000
   37.4580   26.2940   34.8460 C   0  0  2  0  0  0  0  0  0  0  0  0
   38.9110   26.8280   35.2180 C   0  0  0  0  0  0  0  0  0  0  0  0
   38.5050   25.3770   35.1430 C   0  0  1  0  0  0  0  0  0  0  0  0
   36.7270   26.7320   35.5580 H   0  0  0  0  0  0  0  0  0  0  0  0
   39.5050   27.2810   34.4370 H   0  0  0  0  0  0  0  0  0  0  0  0
   38.9480   27.3080   36.2250 H   0  0  0  0  0  0  0  0  0  0  0  0
   39.0490   24.8590   34.2900 H   0  0  0  0  0  0  0  0  0  0  0  0
   38.6560   24.6220   36.3900 C   0  0  0  0  0  0  0  0  0  0  0  0
   37.8570   24.9920   37.4690 C   0  0  0  0  0  0  0  0  0  0  0  0
   38.0100   24.2850   38.6320 C   0  0  0  0  0  0  0  0  0  0  0  0
   38.9140   23.2410   38.7540 C   0  0  0  0  0  0  0  0  0  0  0  0
   39.6860   22.9020   37.6650 C   0  0  0  0  0  0  0  0  0  0  0  0
   39.5470   23.5900   36.5140 N   0  0  0  0  0  0  0  0  0  0  0  0
   37.1600   25.8070   37.3570 H   0  0  0  0  0  0  0  0  0  0  0  0
   37.4240   24.5210   39.5020 H   0  0  0  0  0  0  0  0  0  0  0  0
   39.0410   22.6700   39.6800 H   0  0  0  0  0  0  0  0  0  0  0  0
   40.3960   22.0960   37.7310 H   0  0  0  0  0  0  0  0  0  0  0  0
   37.1740   26.7160   33.4260 C   0  0  2  0  0  3  0  0  0  0  0  0
   36.8370   27.9400   33.2010 O   0  0  0  0  0  1  0  0  0  0  0  0
   38.5170   24.9420   30.4310 C   0  0  0  0  0  0  0  0  0  0  0  0
   38.3340   25.8290   31.4660 C   0  0  0  0  0  0  0  0  0  0  0  0
   37.2910   25.7180   32.4060 C   0  0  0  0  0  0  0  0  0  0  0  0
   36.4860   24.7020   32.2370 N   0  0  0  0  0  0  0  0  0  0  0  0
   36.6520   23.8150   31.2160 C   0  0  0  0  0  0  0  0  0  0  0  0
   37.6430   23.9140   30.3190 N   0  0  0  0  0  0  0  0  0  0  0  0
   39.3390   25.0840   29.7440 H   0  0  0  0  0  0  0  0  0  0  0  0
   39.0490   26.6610   31.5500 H   0  0  0  0  0  0  0  0  0  0  0  0
   35.6300   22.7130   31.1810 C   0  0  0  0  0  3  0  0  0  0  0  0
   36.0440   21.3260   30.9610 C   0  0  0  0  0  2  0  0  0  0  0  0
   35.7970   21.7110   32.3680 C   0  0  0  0  0  2  0  0  0  0  0  0
  1  3  1  0  0  0  0
  1  2  1  0  0  0  0
  1  4  1  1  0  0  0
  2  6  1  0  0  0  0
  3  7  1  6  0  0  0
  3  2  1  0  0  0  0
  3  8  1  0  0  0  0
  5  2  1  0  0  0  0
  8 13  2  0  0  0  0
  8  9  1  0  0  0  0
  9 10  2  0  0  0  0
 10 11  1  0  0  0  0
 10 15  1  0  0  0  0
 11 16  1  0  0  0  0
 12 17  1  0  0  0  0
 12 11  2  0  0  0  0
 13 12  1  0  0  0  0
 14  9  1  0  0  0  0
 18 19  1  1  0  0  0
 18  1  1  0  0  0  0
 20 21  1  0  0  0  0
 21 27  1  0  0  0  0
 21 22  2  0  0  0  0
 22 18  1  0  0  0  0
 23 22  1  0  0  0  0
 24 23  2  0  0  0  0
 25 20  2  0  0  0  0
 25 24  1  0  0  0  0
 26 20  1  0  0  0  0
 28 24  1  0  0  0  0
 28 30  1  0  0  0  0
 29 28  1  0  0  0  0
 29 30  1  0  0  0  0
M  END
>  <minimizedAffinity>
-5.39163208

$$$$

 OpenBabel03272501373D

 30 33  0  0  1  0  0  0  0  0999 V2000
   35.8170   23.6890   31.7570 C   0  0  2  0  0  0  0  0  0  0  0  0
   37.0640   23.1860   30.9050 C   0  0  0  0  0  0  0  0  0  0  0  0
   35.7210   22.5030   30.9750 C   0  0  1  0  0  0  0  0  0  0  0  0
   36.1230   23.7670   32.8220 H   0  0  0  0  0  0  0  0  0  0  0  0
   37.3540   23.7590   30.0350 H   0  0  0  0  0  0  0  0  0  0  0  0
   37.8880   22.7860   31.5440 H   0  0  0  0  0  0  0  0  0  0  0  0
   35.2050   22.5440   29.9630 H   0  0  0  0  0  0  0  0  0  0  0  0
   35.7460   21.1310   31.4910 C   0  0  0  0  0  0  0  0  0  0  0  0
   35.3490   20.9310   32.8110 C   0  0  0  0  0  0  0  0  0  0  0  0
   35.3800   19.6460   33.2840 C   0  0  0  0  0  0  0  0  0  0  0  0
   35.7860   18.5750   32.5040 C   0  0  0  0  0  0  0  0  0  0  0  0
   36.1700   18.8120   31.2030 C   0  0  0  0  0  0  0  0  0  0  0  0
   36.1450   20.0700   30.7220 N   0  0  0  0  0  0  0  0  0  0  0  0
   35.0370   21.7760   33.4030 H   0  0  0  0  0  0  0  0  0  0  0  0
   35.0870   19.4240   34.2950 H   0  0  0  0  0  0  0  0  0  0  0  0
   35.8130   17.5460   32.8760 H   0  0  0  0  0  0  0  0  0  0  0  0
   36.4900   17.9990   30.5740 H   0  0  0  0  0  0  0  0  0  0  0  0
   35.3980   25.0250   31.1960 C   0  0  2  0  0  3  0  0  0  0  0  0
   34.4870   25.0540   30.2860 O   0  0  0  0  0  1  0  0  0  0  0  0
   36.9870   28.4010   31.2180 C   0  0  0  0  0  0  0  0  0  0  0  0
   36.3360   27.2530   30.8320 C   0  0  0  0  0  0  0  0  0  0  0  0
   36.0530   26.1900   31.7120 C   0  0  0  0  0  0  0  0  0  0  0  0
   36.4510   26.3580   32.9460 N   0  0  0  0  0  0  0  0  0  0  0  0
   37.0970   27.4890   33.3440 C   0  0  0  0  0  0  0  0  0  0  0  0
   37.3710   28.5040   32.5130 N   0  0  0  0  0  0  0  0  0  0  0  0
   37.1740   29.1800   30.4920 H   0  0  0  0  0  0  0  0  0  0  0  0
   36.0280   27.1770   29.7780 H   0  0  0  0  0  0  0  0  0  0  0  0
   37.4790   27.5040   34.7980 C   0  0  0  0  0  3  0  0  0  0  0  0
   37.8440   26.2610   35.4810 C   0  0  0  0  0  2  0  0  0  0  0  0
   38.9720   27.1010   35.0240 C   0  0  0  0  0  2  0  0  0  0  0  0
  1  4  1  1  0  0  0
  2  3  1  0  0  0  0
  2  6  1  0  0  0  0
  2  1  1  0  0  0  0
  3  7  1  6  0  0  0
  3  8  1  0  0  0  0
  3  1  1  0  0  0  0
  5  2  1  0  0  0  0
  8  9  1  0  0  0  0
  9 10  2  0  0  0  0
  9 14  1  0  0  0  0
 10 15  1  0  0  0  0
 11 16  1  0  0  0  0
 11 10  1  0  0  0  0
 12 11  2  0  0  0  0
 13 12  1  0  0  0  0
 13  8  2  0  0  0  0
 17 12  1  0  0  0  0
 18 19  1  6  0  0  0
 18 22  1  0  0  0  0
 18  1  1  0  0  0  0
 20 25  1  0  0  0  0
 21 20  2  0  0  0  0
 21 22  1  0  0  0  0
 22 23  2  0  0  0  0
 23 24  1  0  0  0  0
 24 28  1  0  0  0  0
 25 24  2  0  0  0  0
 26 20  1  0  0  0  0
 27 21  1  0  0  0  0
 28 30  1  0  0  0  0
 28 29  1  0  0  0  0
 30 29  1  0  0  0  0
M  END
>  <minimizedAffinity>
-5.15950012

$$$$

 OpenBabel03272501373D

 30 33  0  0  1  0  0  0  0  0999 V2000
   37.1670   23.6630   31.3120 C   0  0  2  0  0  0  0  0  0  0  0  0
   35.6080   23.7000   30.9930 C   0  0  0  0  0  0  0  0  0  0  0  0
   36.2510   22.9310   32.1200 C   0  0  1  0  0  0  0  0  0  0  0  0
   37.7050   23.3000   30.4110 H   0  0  0  0  0  0  0  0  0  0  0  0
   35.0690   24.6180   31.1810 H   0  0  0  0  0  0  0  0  0  0  0  0
   35.3460   23.1420   30.0620 H   0  0  0  0  0  0  0  0  0  0  0  0
   35.9300   23.3590   33.1230 H   0  0  0  0  0  0  0  0  0  0  0  0
   36.0440   21.4800   32.0820 C   0  0  0  0  0  0  0  0  0  0  0  0
   35.6640   20.8520   33.2660 C   0  0  0  0  0  0  0  0  0  0  0  0
   35.4780   19.4960   33.2220 C   0  0  0  0  0  0  0  0  0  0  0  0
   35.6550   18.7580   32.0620 C   0  0  0  0  0  0  0  0  0  0  0  0
   36.0300   19.4140   30.9110 C   0  0  0  0  0  0  0  0  0  0  0  0
   36.2170   20.7490   30.9380 N   0  0  0  0  0  0  0  0  0  0  0  0
   35.5310   21.4420   34.1590 H   0  0  0  0  0  0  0  0  0  0  0  0
   35.1850   18.9510   34.1020 H   0  0  0  0  0  0  0  0  0  0  0  0
   35.5080   17.6740   32.0190 H   0  0  0  0  0  0  0  0  0  0  0  0
   36.1750   18.8660   29.9950 H   0  0  0  0  0  0  0  0  0  0  0  0
   37.5840   25.0640   31.6850 C   0  0  2  0  0  3  0  0  0  0  0  0
   37.9140   25.8810   30.7440 O   0  0  0  0  0  1  0  0  0  0  0  0
   37.0710   27.0830   34.7800 C   0  0  0  0  0  0  0  0  0  0  0  0
   37.0810   26.6510   33.4740 C   0  0  0  0  0  0  0  0  0  0  0  0
   37.5930   25.4010   33.0760 C   0  0  0  0  0  0  0  0  0  0  0  0
   38.0700   24.6550   34.0380 N   0  0  0  0  0  0  0  0  0  0  0  0
   38.0690   25.0690   35.3360 C   0  0  0  0  0  0  0  0  0  0  0  0
   37.5830   26.2570   35.7220 N   0  0  0  0  0  0  0  0  0  0  0  0
   36.6620   28.0550   35.0190 H   0  0  0  0  0  0  0  0  0  0  0  0
   36.6620   27.3290   32.7150 H   0  0  0  0  0  0  0  0  0  0  0  0
   38.6590   24.0790   36.3020 C   0  0  0  0  0  3  0  0  0  0  0  0
   38.2500   24.0830   37.7080 C   0  0  0  0  0  2  0  0  0  0  0  0
   37.5930   23.0750   36.8480 C   0  0  0  0  0  2  0  0  0  0  0  0
  1  4  1  6  0  0  0
  1 18  1  0  0  0  0
  1  3  1  0  0  0  0
  2  5  1  0  0  0  0
  2  1  1  0  0  0  0
  2  3  1  0  0  0  0
  3  7  1  1  0  0  0
  6  2  1  0  0  0  0
  8  3  1  0  0  0  0
  8  9  1  0  0  0  0
  9 14  1  0  0  0  0
 10  9  2  0  0  0  0
 10 15  1  0  0  0  0
 11 10  1  0  0  0  0
 12 13  1  0  0  0  0
 12 11  2  0  0  0  0
 13  8  2  0  0  0  0
 16 11  1  0  0  0  0
 17 12  1  0  0  0  0
 18 19  1  1  0  0  0
 18 22  1  0  0  0  0
 20 26  1  0  0  0  0
 20 25  1  0  0  0  0
 21 20  2  0  0  0  0
 22 21  1  0  0  0  0
 22 23  2  0  0  0  0
 23 24  1  0  0  0  0
 24 25  2  0  0  0  0
 24 28  1  0  0  0  0
 27 21  1  0  0  0  0
 28 30  1  0  0  0  0
 28 29  1  0  0  0  0
 30 29  1  0  0  0  0
M  END
>  <minimizedAffinity>
-5.12524605

$$$$

 OpenBabel03272501373D

 30 33  0  0  1  0  0  0  0  0999 V2000
   38.3970   25.6500   35.1740 C   0  0  2  0  0  0  0  0  0  0  0  0
   38.5350   27.0070   35.9930 C   0  0  0  0  0  0  0  0  0  0  0  0
   37.3370   26.6000   35.1710 C   0  0  1  0  0  0  0  0  0  0  0  0
   39.2400   25.5830   34.4540 H   0  0  0  0  0  0  0  0  0  0  0  0
   38.5120   26.9580   37.0730 H   0  0  0  0  0  0  0  0  0  0  0  0
   39.2670   27.7140   35.5350 H   0  0  0  0  0  0  0  0  0  0  0  0
   36.4370   26.4300   35.8440 H   0  0  0  0  0  0  0  0  0  0  0  0
   37.0000   27.5060   34.0690 C   0  0  0  0  0  0  0  0  0  0  0  0
   37.6670   27.3270   32.8600 C   0  0  0  0  0  0  0  0  0  0  0  0
   37.3490   28.1820   31.8380 C   0  0  0  0  0  0  0  0  0  0  0  0
   36.4080   29.1900   31.9780 C   0  0  0  0  0  0  0  0  0  0  0  0
   35.7680   29.3360   33.1880 C   0  0  0  0  0  0  0  0  0  0  0  0
   36.0700   28.5020   34.2030 N   0  0  0  0  0  0  0  0  0  0  0  0
   38.3970   26.5380   32.7700 H   0  0  0  0  0  0  0  0  0  0  0  0
   37.8290   28.0980   30.8790 H   0  0  0  0  0  0  0  0  0  0  0  0
   36.1480   29.8770   31.1660 H   0  0  0  0  0  0  0  0  0  0  0  0
   35.0320   30.1090   33.3250 H   0  0  0  0  0  0  0  0  0  0  0  0
   38.4240   24.5180   36.1710 C   0  0  2  0  0  3  0  0  0  0  0  0
   37.3500   24.2530   36.8330 O   0  0  0  0  0  1  0  0  0  0  0  0
   40.8310   21.9640   37.4370 C   0  0  0  0  0  0  0  0  0  0  0  0
   39.6930   22.6970   37.1950 C   0  0  0  0  0  0  0  0  0  0  0  0
   39.6560   23.8040   36.3250 C   0  0  0  0  0  0  0  0  0  0  0  0
   40.7890   24.1050   35.7470 N   0  0  0  0  0  0  0  0  0  0  0  0
   41.9250   23.3890   35.9770 C   0  0  0  0  0  0  0  0  0  0  0  0
   41.9680   22.3340   36.8030 N   0  0  0  0  0  0  0  0  0  0  0  0
   40.7910   21.1230   38.1160 H   0  0  0  0  0  0  0  0  0  0  0  0
   38.7730   22.3880   37.7140 H   0  0  0  0  0  0  0  0  0  0  0  0
   43.1300   23.8820   35.2250 C   0  0  0  0  0  3  0  0  0  0  0  0
   43.2980   25.3100   34.9490 C   0  0  0  0  0  2  0  0  0  0  0  0
   44.0520   24.7840   36.1070 C   0  0  0  0  0  2  0  0  0  0  0  0
  1  4  1  6  0  0  0
  1  2  1  0  0  0  0
  1 18  1  0  0  0  0
  2  5  1  0  0  0  0
  3  1  1  0  0  0  0
  3  7  1  1  0  0  0
  3  2  1  0  0  0  0
  6  2  1  0  0  0  0
  8 13  1  0  0  0  0
  8  3  1  0  0  0  0
  9  8  2  0  0  0  0
 10 11  2  0  0  0  0
 10  9  1  0  0  0  0
 11 12  1  0  0  0  0
 12 17  1  0  0  0  0
 12 13  2  0  0  0  0
 14  9  1  0  0  0  0
 15 10  1  0  0  0  0
 16 11  1  0  0  0  0
 18 22  1  0  0  0  0
 18 19  1  1  0  0  0
 20 26  1  0  0  0  0
 21 20  1  0  0  0  0
 21 27  1  0  0  0  0
 22 21  2  0  0  0  0
 23 24  2  0  0  0  0
 23 22  1  0  0  0  0
 24 25  1  0  0  0  0
 25 20  2  0  0  0  0
 28 24  1  0  0  0  0
 28 30  1  0  0  0  0
 29 28  1  0  0  0  0
 29 30  1  0  0  0  0
M  END
>  <minimizedAffinity>
-5.11274719

$$$$

 OpenBabel03272501373D

 30 33  0  0  1  0  0  0  0  0999 V2000
   37.9250   25.0590   33.9900 C   0  0  2  0  0  0  0  0  0  0  0  0
   39.4920   25.2930   34.1380 C   0  0  0  0  0  0  0  0  0  0  0  0
   38.7360   24.0910   34.6480 C   0  0  1  0  0  0  0  0  0  0  0  0
   37.3930   25.9160   34.4550 H   0  0  0  0  0  0  0  0  0  0  0  0
   40.1050   25.2300   33.2500 H   0  0  0  0  0  0  0  0  0  0  0  0
   39.7400   26.1020   34.8670 H   0  0  0  0  0  0  0  0  0  0  0  0
   39.0540   23.1570   34.0830 H   0  0  0  0  0  0  0  0  0  0  0  0
   38.8100   23.8750   36.0950 C   0  0  0  0  0  0  0  0  0  0  0  0
   37.8830   24.5400   36.8950 C   0  0  0  0  0  0  0  0  0  0  0  0
   37.9650   24.3360   38.2470 C   0  0  0  0  0  0  0  0  0  0  0  0
   38.9180   23.5080   38.8180 C   0  0  0  0  0  0  0  0  0  0  0  0
   39.8160   22.8660   37.9960 C   0  0  0  0  0  0  0  0  0  0  0  0
   39.7490   23.0580   36.6630 N   0  0  0  0  0  0  0  0  0  0  0  0
   37.1490   25.1810   36.4330 H   0  0  0  0  0  0  0  0  0  0  0  0
   37.2790   24.8210   38.9200 H   0  0  0  0  0  0  0  0  0  0  0  0
   38.9890   23.3400   39.8980 H   0  0  0  0  0  0  0  0  0  0  0  0
   40.5680   22.2170   38.4120 H   0  0  0  0  0  0  0  0  0  0  0  0
   37.6240   24.9490   32.5160 C   0  0  2  0  0  3  0  0  0  0  0  0
   37.5680   26.0290   31.8150 O   0  0  0  0  0  1  0  0  0  0  0  0
   38.1970   21.8990   30.4440 C   0  0  0  0  0  0  0  0  0  0  0  0
   38.3260   23.1330   31.0380 C   0  0  0  0  0  0  0  0  0  0  0  0
   37.4110   23.6370   31.9830 C   0  0  0  0  0  0  0  0  0  0  0  0
   36.4080   22.8500   32.2710 N   0  0  0  0  0  0  0  0  0  0  0  0
   36.2640   21.6260   31.6910 C   0  0  0  0  0  0  0  0  0  0  0  0
   37.1310   21.1400   30.7910 N   0  0  0  0  0  0  0  0  0  0  0  0
   38.9360   21.5710   29.7260 H   0  0  0  0  0  0  0  0  0  0  0  0
   39.1950   23.7430   30.7500 H   0  0  0  0  0  0  0  0  0  0  0  0
   35.0510   20.8640   32.1450 C   0  0  0  0  0  3  0  0  0  0  0  0
   34.9680   19.4160   31.9460 C   0  0  0  0  0  2  0  0  0  0  0  0
   35.3760   19.8590   33.2960 C   0  0  0  0  0  2  0  0  0  0  0  0
  1  2  1  0  0  0  0
  1  4  1  1  0  0  0
  1  3  1  0  0  0  0
  2  3  1  0  0  0  0
  2  6  1  0  0  0  0
  3  7  1  6  0  0  0
  3  8  1  0  0  0  0
  5  2  1  0  0  0  0
  8 13  2  0  0  0  0
  8  9  1  0  0  0  0
  9 10  2  0  0  0  0
 10 11  1  0  0  0  0
 10 15  1  0  0  0  0
 11 16  1  0  0  0  0
 12 17  1  0  0  0  0
 12 11  2  0  0  0  0
 13 12  1  0  0  0  0
 14  9  1  0  0  0  0
 18 19  1  1  0  0  0
 18  1  1  0  0  0  0
 20 25  2  0  0  0  0
 20 21  1  0  0  0  0
 21 22  2  0  0  0  0
 22 23  1  0  0  0  0
 22 18  1  0  0  0  0
 24 28  1  0  0  0  0
 24 23  2  0  0  0  0
 25 24  1  0  0  0  0
 26 20  1  0  0  0  0
 27 21  1  0  0  0  0
 28 30  1  0  0  0  0
 29 28  1  0  0  0  0
 29 30  1  0  0  0  0
M  END
>  <minimizedAffinity>
-5.08817005

$$$$

 OpenBabel03272501373D

 30 33  0  0  1  0  0  0  0  0999 V2000
   38.0670   26.2890   34.1680 C   0  0  2  0  0  0  0  0  0  0  0  0
   39.2770   26.9780   34.9400 C   0  0  0  0  0  0  0  0  0  0  0  0
   39.0900   25.4920   34.7570 C   0  0  1  0  0  0  0  0  0  0  0  0
   37.1150   26.6140   34.6380 H   0  0  0  0  0  0  0  0  0  0  0  0
   40.0090   27.5230   34.3610 H   0  0  0  0  0  0  0  0  0  0  0  0
   38.9650   27.4270   35.9130 H   0  0  0  0  0  0  0  0  0  0  0  0
   39.9140   25.0700   34.0980 H   0  0  0  0  0  0  0  0  0  0  0  0
   38.9690   24.7210   35.9970 C   0  0  0  0  0  0  0  0  0  0  0  0
   39.7910   23.6070   36.1470 C   0  0  0  0  0  0  0  0  0  0  0  0
   39.6670   22.8900   37.3070 C   0  0  0  0  0  0  0  0  0  0  0  0
   38.7680   23.2380   38.3040 C   0  0  0  0  0  0  0  0  0  0  0  0
   37.9730   24.3460   38.1210 C   0  0  0  0  0  0  0  0  0  0  0  0
   38.0830   25.0620   36.9840 N   0  0  0  0  0  0  0  0  0  0  0  0
   40.4840   23.3510   35.3610 H   0  0  0  0  0  0  0  0  0  0  0  0
   40.2720   22.0190   37.4850 H   0  0  0  0  0  0  0  0  0  0  0  0
   38.6640   22.6700   39.2340 H   0  0  0  0  0  0  0  0  0  0  0  0
   37.2660   24.6410   38.8780 H   0  0  0  0  0  0  0  0  0  0  0  0
   38.1520   26.7190   32.7240 C   0  0  2  0  0  3  0  0  0  0  0  0
   38.9870   26.1170   31.9490 O   0  0  0  0  0  1  0  0  0  0  0  0
   36.4870   29.1480   30.4330 C   0  0  0  0  0  0  0  0  0  0  0  0
   37.2530   28.1220   30.9360 C   0  0  0  0  0  0  0  0  0  0  0  0
   37.2940   27.7860   32.3030 C   0  0  0  0  0  0  0  0  0  0  0  0
   36.5470   28.5190   33.0870 N   0  0  0  0  0  0  0  0  0  0  0  0
   35.7840   29.5390   32.6040 C   0  0  0  0  0  0  0  0  0  0  0  0
   35.7400   29.8650   31.3050 N   0  0  0  0  0  0  0  0  0  0  0  0
   36.5000   29.3540   29.3710 H   0  0  0  0  0  0  0  0  0  0  0  0
   37.8570   27.5450   30.2200 H   0  0  0  0  0  0  0  0  0  0  0  0
   34.9930   30.2700   33.6530 C   0  0  0  0  0  3  0  0  0  0  0  0
   35.5810   30.5470   34.9650 C   0  0  0  0  0  2  0  0  0  0  0  0
   35.6100   31.6640   33.9970 C   0  0  0  0  0  2  0  0  0  0  0  0
  1  4  1  1  0  0  0
  1  3  1  0  0  0  0
  1  2  1  0  0  0  0
  2  6  1  0  0  0  0
  3  7  1  6  0  0  0
  3  2  1  0  0  0  0
  3  8  1  0  0  0  0
  5  2  1  0  0  0  0
  8  9  2  0  0  0  0
  8 13  1  0  0  0  0
  9 10  1  0  0  0  0
 10 15  1  0  0  0  0
 10 11  2  0  0  0  0
 11 16  1  0  0  0  0
 12 11  1  0  0  0  0
 12 17  1  0  0  0  0
 13 12  2  0  0  0  0
 14  9  1  0  0  0  0
 18 19  1  1  0  0  0
 18  1  1  0  0  0  0
 20 21  2  0  0  0  0
 20 25  1  0  0  0  0
 21 22  1  0  0  0  0
 22 18  1  0  0  0  0
 22 23  2  0  0  0  0
 24 23  1  0  0  0  0
 24 28  1  0  0  0  0
 25 24  2  0  0  0  0
 26 20  1  0  0  0  0
 27 21  1  0  0  0  0
 28 30  1  0  0  0  0
 28 29  1  0  0  0  0
 30 29  1  0  0  0  0
M  END
>  <minimizedAffinity>
-5.03817272

$$$$

 OpenBabel03272501373D

 30 33  0  0  1  0  0  0  0  0999 V2000
   37.4690   26.4350   34.7760 C   0  0  2  0  0  0  0  0  0  0  0  0
   39.0230   26.7470   34.9260 C   0  0  0  0  0  0  0  0  0  0  0  0
   38.4010   25.3720   34.9490 C   0  0  1  0  0  0  0  0  0  0  0  0
   36.9200   26.9810   35.5720 H   0  0  0  0  0  0  0  0  0  0  0  0
   39.5590   27.1010   34.0570 H   0  0  0  0  0  0  0  0  0  0  0  0
   39.2740   27.2230   35.9040 H   0  0  0  0  0  0  0  0  0  0  0  0
   38.7360   24.7740   34.0420 H   0  0  0  0  0  0  0  0  0  0  0  0
   38.6160   24.6110   36.1820 C   0  0  0  0  0  0  0  0  0  0  0  0
   37.8410   24.9460   37.2900 C   0  0  0  0  0  0  0  0  0  0  0  0
   38.0530   24.2330   38.4400 C   0  0  0  0  0  0  0  0  0  0  0  0
   38.9930   23.2170   38.5230 C   0  0  0  0  0  0  0  0  0  0  0  0
   39.7390   22.9140   37.4060 C   0  0  0  0  0  0  0  0  0  0  0  0
   39.5420   23.6070   36.2680 N   0  0  0  0  0  0  0  0  0  0  0  0
   37.1150   25.7390   37.2080 H   0  0  0  0  0  0  0  0  0  0  0  0
   37.4880   24.4420   39.3310 H   0  0  0  0  0  0  0  0  0  0  0  0
   39.1670   22.6420   39.4380 H   0  0  0  0  0  0  0  0  0  0  0  0
   40.4760   22.1290   37.4410 H   0  0  0  0  0  0  0  0  0  0  0  0
   37.0500   26.8850   33.3990 C   0  0  2  0  0  3  0  0  0  0  0  0
   37.1850   26.0650   32.4140 O   0  0  0  0  0  1  0  0  0  0  0  0
   35.4630   30.1130   34.3920 C   0  0  0  0  0  0  0  0  0  0  0  0
   36.0130   28.8520   34.4140 C   0  0  0  0  0  0  0  0  0  0  0  0
   36.5300   28.2130   33.2700 C   0  0  0  0  0  0  0  0  0  0  0  0
   36.4570   28.9000   32.1590 N   0  0  0  0  0  0  0  0  0  0  0  0
   35.9150   30.1490   32.1210 C   0  0  0  0  0  0  0  0  0  0  0  0
   35.4210   30.7630   33.2050 N   0  0  0  0  0  0  0  0  0  0  0  0
   35.0840   30.5470   35.3070 H   0  0  0  0  0  0  0  0  0  0  0  0
   36.0430   28.3310   35.3820 H   0  0  0  0  0  0  0  0  0  0  0  0
   35.9170   30.7830   30.7580 C   0  0  0  0  0  3  0  0  0  0  0  0
   35.8280   32.2370   30.6170 C   0  0  0  0  0  2  0  0  0  0  0  0
   37.1850   31.6610   30.5130 C   0  0  0  0  0  2  0  0  0  0  0  0
  1  2  1  0  0  0  0
  1  3  1  0  0  0  0
  1  4  1  1  0  0  0
  2  3  1  0  0  0  0
  2  6  1  0  0  0  0
  3  7  1  6  0  0  0
  3  8  1  0  0  0  0
  5  2  1  0  0  0  0
  8 13  2  0  0  0  0
  8  9  1  0  0  0  0
  9 10  2  0  0  0  0
 10 11  1  0  0  0  0
 10 15  1  0  0  0  0
 11 16  1  0  0  0  0
 12 17  1  0  0  0  0
 12 11  2  0  0  0  0
 13 12  1  0  0  0  0
 14  9  1  0  0  0  0
 18 19  1  6  0  0  0
 18  1  1  0  0  0  0
 20 21  1  0  0  0  0
 20 26  1  0  0  0  0
 21 27  1  0  0  0  0
 22 18  1  0  0  0  0
 22 21  2  0  0  0  0
 23 22  1  0  0  0  0
 24 23  2  0  0  0  0
 24 25  1  0  0  0  0
 25 20  2  0  0  0  0
 28 24  1  0  0  0  0
 29 28  1  0  0  0  0
 30 29  1  0  0  0  0
 30 28  1  0  0  0  0
M  END
>  <minimizedAffinity>
-5.03136301

$$$$

 OpenBabel03272501373D

 30 33  0  0  1  0  0  0  0  0999 V2000
   39.0570   23.4030   33.4760 C   0  0  2  0  0  0  0  0  0  0  0  0
   38.5200   21.9520   33.8530 C   0  0  0  0  0  0  0  0  0  0  0  0
   38.1100   23.2390   34.5260 C   0  0  1  0  0  0  0  0  0  0  0  0
   40.1630   23.4060   33.5640 H   0  0  0  0  0  0  0  0  0  0  0  0
   37.8610   21.4530   33.1570 H   0  0  0  0  0  0  0  0  0  0  0  0
   39.2950   21.3250   34.3550 H   0  0  0  0  0  0  0  0  0  0  0  0
   37.0120   23.4560   34.3250 H   0  0  0  0  0  0  0  0  0  0  0  0
   38.4000   23.3120   35.9610 C   0  0  0  0  0  0  0  0  0  0  0  0
   39.5750   22.7170   36.4130 C   0  0  0  0  0  0  0  0  0  0  0  0
   39.8340   22.7860   37.7560 C   0  0  0  0  0  0  0  0  0  0  0  0
   38.9790   23.4150   38.6470 C   0  0  0  0  0  0  0  0  0  0  0  0
   37.8260   23.9930   38.1640 C   0  0  0  0  0  0  0  0  0  0  0  0
   37.5580   23.9330   36.8440 N   0  0  0  0  0  0  0  0  0  0  0  0
   40.2290   22.2320   35.7060 H   0  0  0  0  0  0  0  0  0  0  0  0
   40.7250   22.3460   38.1690 H   0  0  0  0  0  0  0  0  0  0  0  0
   39.1790   23.4740   39.7220 H   0  0  0  0  0  0  0  0  0  0  0  0
   37.1430   24.4880   38.8330 H   0  0  0  0  0  0  0  0  0  0  0  0
   38.6090   23.6940   32.0650 C   0  0  2  0  0  3  0  0  0  0  0  0
   39.1840   23.0720   31.0940 O   0  0  0  0  0  1  0  0  0  0  0  0
   35.3400   25.1290   30.9790 C   0  0  0  0  0  0  0  0  0  0  0  0
   36.3880   24.2720   31.2250 C   0  0  0  0  0  0  0  0  0  0  0  0
   37.5660   24.6600   31.8910 C   0  0  0  0  0  0  0  0  0  0  0  0
   37.6120   25.9100   32.2720 N   0  0  0  0  0  0  0  0  0  0  0  0
   36.5840   26.7720   32.0360 C   0  0  0  0  0  0  0  0  0  0  0  0
   35.4600   26.4090   31.4030 N   0  0  0  0  0  0  0  0  0  0  0  0
   34.4620   24.7660   30.4630 H   0  0  0  0  0  0  0  0  0  0  0  0
   36.2820   23.2330   30.8770 H   0  0  0  0  0  0  0  0  0  0  0  0
   36.8160   28.1670   32.5460 C   0  0  0  0  0  3  0  0  0  0  0  0
   35.6820   29.0380   32.8620 C   0  0  0  0  0  2  0  0  0  0  0  0
   36.3110   28.3540   34.0120 C   0  0  0  0  0  2  0  0  0  0  0  0
  1  4  1  1  0  0  0
  1  2  1  0  0  0  0
  1  3  1  0  0  0  0
  2  6  1  0  0  0  0
  2  3  1  0  0  0  0
  3  7  1  6  0  0  0
  3  8  1  0  0  0  0
  5  2  1  0  0  0  0
  8  9  2  0  0  0  0
  8 13  1  0  0  0  0
  9 10  1  0  0  0  0
 10 15  1  0  0  0  0
 10 11  2  0  0  0  0
 11 16  1  0  0  0  0
 12 11  1  0  0  0  0
 12 17  1  0  0  0  0
 13 12  2  0  0  0  0
 14  9  1  0  0  0  0
 18 19  1  6  0  0  0
 18  1  1  0  0  0  0
 20 21  2  0  0  0  0
 20 25  1  0  0  0  0
 21 22  1  0  0  0  0
 22 18  1  0  0  0  0
 22 23  2  0  0  0  0
 24 23  1  0  0  0  0
 24 28  1  0  0  0  0
 25 24  2  0  0  0  0
 26 20  1  0  0  0  0
 27 21  1  0  0  0  0
 28 29  1  0  0  0  0
 28 30  1  0  0  0  0
 29 30  1  0  0  0  0
M  END
>  <minimizedAffinity>
-5.02621317

$$$$
