
 OpenBabel03272509563D

 37 40  0  0  0  0  0  0  0  0999 V2000
   35.7650   29.8150   31.4920 C   0  0  0  0  0  0  0  0  0  0  0  0
   35.1790   30.5670   32.5400 C   0  0  0  0  0  0  0  0  0  0  0  0
   35.2570   30.0720   33.8210 C   0  0  0  0  0  0  0  0  0  0  0  0
   35.9080   28.8780   33.9630 N   0  0  0  0  0  0  0  0  0  0  0  0
   36.4590   28.1740   32.9760 C   0  0  0  0  0  0  0  0  0  0  0  0
   36.3770   28.6630   31.7310 N   0  0  0  0  0  0  0  0  0  0  0  0
   35.6700   30.2510   30.5210 H   0  0  0  0  0  0  0  0  0  0  0  0
   34.6690   31.5010   32.4360 H   0  0  0  0  0  0  0  0  0  0  0  0
   36.6350   31.7480   35.7300 F   0  0  0  0  0  0  0  0  0  0  0  0
   35.3510   31.4860   35.9070 C   0  0  0  0  0  0  0  0  0  0  0  0
   34.7210   30.6990   35.0030 C   0  0  0  0  0  0  0  0  0  0  0  0
   33.3710   30.4890   35.2890 C   0  0  0  0  0  0  0  0  0  0  0  0
   32.7500   31.0360   36.3890 C   0  0  0  0  0  0  0  0  0  0  0  0
   33.4370   31.8270   37.2730 C   0  0  0  0  0  0  0  0  0  0  0  0
   34.7630   32.0520   37.0220 C   0  0  0  0  0  0  0  0  0  0  0  0
   32.7270   29.8830   34.6620 H   0  0  0  0  0  0  0  0  0  0  0  0
   31.6980   30.8690   36.6050 H   0  0  0  0  0  0  0  0  0  0  0  0
   32.9650   32.2630   38.1400 H   0  0  0  0  0  0  0  0  0  0  0  0
   35.3110   32.6670   37.7040 H   0  0  0  0  0  0  0  0  0  0  0  0
   37.0440   27.0170   33.3960 O   0  0  0  0  0  0  0  0  0  0  0  0
   37.1620   26.7750   34.7930 C   0  0  0  0  0  0  0  0  0  0  0  0
   36.8500   27.7110   35.3250 H   0  0  0  0  0  0  0  0  0  0  0  0
   36.4690   25.9790   35.1280 H   0  0  0  0  0  0  0  0  0  0  0  0
   38.5960   26.5440   35.1560 C   0  0  0  0  0  0  0  0  0  0  0  0
   39.1620   26.4990   34.1840 H   0  0  0  0  0  0  0  0  0  0  0  0
   39.0600   27.3860   35.7090 H   0  0  0  0  0  0  0  0  0  0  0  0
   38.8050   25.2850   35.9000 C   0  0  0  0  0  0  0  0  0  0  0  0
   37.9340   24.9780   36.9280 C   0  0  0  0  0  0  0  0  0  0  0  0
   38.0370   23.8420   37.6780 C   0  0  0  0  0  0  0  0  0  0  0  0
   39.0190   22.9890   37.4090 N   0  0  0  0  0  0  0  0  0  0  0  0
   39.8890   23.2800   36.3930 C   0  0  0  0  0  0  0  0  0  0  0  0
   39.7980   24.4010   35.6440 N   0  0  0  0  0  0  0  0  0  0  0  0
   37.1280   25.6690   37.1540 H   0  0  0  0  0  0  0  0  0  0  0  0
   37.3350   23.6180   38.4880 H   0  0  0  0  0  0  0  0  0  0  0  0
   40.9930   22.3040   36.1050 C   0  0  0  0  0  3  0  0  0  0  0  0
   42.3620   22.5940   36.5850 C   0  0  0  0  0  2  0  0  0  0  0  0
   41.5580   21.4740   37.2170 C   0  0  0  0  0  2  0  0  0  0  0  0
  1  6  2  0  0  0  0
  1  2  1  0  0  0  0
  2  3  2  0  0  0  0
  3  4  1  0  0  0  0
  3 11  1  0  0  0  0
  5 20  1  0  0  0  0
  5  4  2  0  0  0  0
  6  5  1  0  0  0  0
  7  1  1  0  0  0  0
  8  2  1  0  0  0  0
  9 10  1  0  0  0  0
 10 15  1  0  0  0  0
 11 12  1  0  0  0  0
 11 10  2  0  0  0  0
 12 13  2  0  0  0  0
 13 17  1  0  0  0  0
 13 14  1  0  0  0  0
 14 18  1  0  0  0  0
 15 14  2  0  0  0  0
 15 19  1  0  0  0  0
 16 12  1  0  0  0  0
 20 21  1  0  0  0  0
 21 23  1  0  0  0  0
 21 24  1  0  0  0  0
 21 22  1  0  0  0  0
 24 26  1  0  0  0  0
 24 27  1  0  0  0  0
 25 24  1  0  0  0  0
 27 28  1  0  0  0  0
 28 33  1  0  0  0  0
 28 29  2  0  0  0  0
 29 34  1  0  0  0  0
 30 29  1  0  0  0  0
 31 30  2  0  0  0  0
 32 27  2  0  0  0  0
 32 31  1  0  0  0  0
 35 31  1  0  0  0  0
 35 36  1  0  0  0  0
 35 37  1  0  0  0  0
 36 37  1  0  0  0  0
M  END
>  <minimizedAffinity>
-6.08974457

$$$$

 OpenBabel03272509563D

 37 40  0  0  0  0  0  0  0  0999 V2000
   36.2650   30.1890   31.6260 C   0  0  0  0  0  0  0  0  0  0  0  0
   35.6420   30.9210   32.6670 C   0  0  0  0  0  0  0  0  0  0  0  0
   35.4470   30.2990   33.8770 C   0  0  0  0  0  0  0  0  0  0  0  0
   35.8840   29.0060   33.9640 N   0  0  0  0  0  0  0  0  0  0  0  0
   36.4710   28.3200   32.9840 C   0  0  0  0  0  0  0  0  0  0  0  0
   36.6560   28.9340   31.8080 N   0  0  0  0  0  0  0  0  0  0  0  0
   36.3870   30.7270   30.7110 H   0  0  0  0  0  0  0  0  0  0  0  0
   35.2970   31.9320   32.6060 H   0  0  0  0  0  0  0  0  0  0  0  0
   36.7090   31.8410   35.9700 F   0  0  0  0  0  0  0  0  0  0  0  0
   35.4080   31.6120   36.0300 C   0  0  0  0  0  0  0  0  0  0  0  0
   34.8330   30.8870   35.0420 C   0  0  0  0  0  0  0  0  0  0  0  0
   33.4590   30.7070   35.2080 C   0  0  0  0  0  0  0  0  0  0  0  0
   32.7650   31.2220   36.2780 C   0  0  0  0  0  0  0  0  0  0  0  0
   33.3990   31.9500   37.2530 C   0  0  0  0  0  0  0  0  0  0  0  0
   34.7470   32.1450   37.1200 C   0  0  0  0  0  0  0  0  0  0  0  0
   32.8520   30.1500   34.5020 H   0  0  0  0  0  0  0  0  0  0  0  0
   31.6950   31.0790   36.4010 H   0  0  0  0  0  0  0  0  0  0  0  0
   32.8700   32.3600   38.0980 H   0  0  0  0  0  0  0  0  0  0  0  0
   35.2540   32.7110   37.8730 H   0  0  0  0  0  0  0  0  0  0  0  0
   36.8080   27.0490   33.3390 O   0  0  0  0  0  0  0  0  0  0  0  0
   38.0640   26.8200   33.9660 C   0  0  0  0  0  0  0  0  0  0  0  0
   38.7520   27.6500   33.6580 H   0  0  0  0  0  0  0  0  0  0  0  0
   37.9840   26.8730   35.0690 H   0  0  0  0  0  0  0  0  0  0  0  0
   38.6750   25.5550   33.4490 C   0  0  0  0  0  0  0  0  0  0  0  0
   38.2580   25.4050   32.4140 H   0  0  0  0  0  0  0  0  0  0  0  0
   39.7720   25.6150   33.3000 H   0  0  0  0  0  0  0  0  0  0  0  0
   38.3500   24.3770   34.2790 C   0  0  0  0  0  0  0  0  0  0  0  0
   38.2230   23.1500   33.6560 C   0  0  0  0  0  0  0  0  0  0  0  0
   37.9260   21.9990   34.3280 C   0  0  0  0  0  0  0  0  0  0  0  0
   37.7510   22.0590   35.6430 N   0  0  0  0  0  0  0  0  0  0  0  0
   37.8730   23.2670   36.2730 C   0  0  0  0  0  0  0  0  0  0  0  0
   38.1660   24.4130   35.6200 N   0  0  0  0  0  0  0  0  0  0  0  0
   38.3660   23.0920   32.5810 H   0  0  0  0  0  0  0  0  0  0  0  0
   37.8310   21.0370   33.8140 H   0  0  0  0  0  0  0  0  0  0  0  0
   37.6700   23.3140   37.7610 C   0  0  0  0  0  3  0  0  0  0  0  0
   38.8500   23.3400   38.6540 C   0  0  0  0  0  2  0  0  0  0  0  0
   37.9780   24.5730   38.5110 C   0  0  0  0  0  2  0  0  0  0  0  0
  1  6  2  0  0  0  0
  1  2  1  0  0  0  0
  2  3  2  0  0  0  0
  3  4  1  0  0  0  0
  3 11  1  0  0  0  0
  5 20  1  0  0  0  0
  5  4  2  0  0  0  0
  6  5  1  0  0  0  0
  7  1  1  0  0  0  0
  8  2  1  0  0  0  0
  9 10  1  0  0  0  0
 10 15  1  0  0  0  0
 11 12  1  0  0  0  0
 11 10  2  0  0  0  0
 12 13  2  0  0  0  0
 13 17  1  0  0  0  0
 13 14  1  0  0  0  0
 14 18  1  0  0  0  0
 15 14  2  0  0  0  0
 15 19  1  0  0  0  0
 16 12  1  0  0  0  0
 20 21  1  0  0  0  0
 21 23  1  0  0  0  0
 22 21  1  0  0  0  0
 24 21  1  0  0  0  0
 24 27  1  0  0  0  0
 25 24  1  0  0  0  0
 26 24  1  0  0  0  0
 27 32  1  0  0  0  0
 28 27  2  0  0  0  0
 28 29  1  0  0  0  0
 29 30  2  0  0  0  0
 30 31  1  0  0  0  0
 31 35  1  0  0  0  0
 32 31  2  0  0  0  0
 33 28  1  0  0  0  0
 34 29  1  0  0  0  0
 35 37  1  0  0  0  0
 35 36  1  0  0  0  0
 37 36  1  0  0  0  0
M  END
>  <minimizedAffinity>
-6.07928896

$$$$

 OpenBabel03272509563D

 37 40  0  0  0  0  0  0  0  0999 V2000
   36.1460   29.3540   31.9550 C   0  0  0  0  0  0  0  0  0  0  0  0
   35.5060   30.2550   32.8410 C   0  0  0  0  0  0  0  0  0  0  0  0
   35.4560   29.9330   34.1770 C   0  0  0  0  0  0  0  0  0  0  0  0
   36.0430   28.7490   34.5300 N   0  0  0  0  0  0  0  0  0  0  0  0
   36.6460   27.9050   33.6950 C   0  0  0  0  0  0  0  0  0  0  0  0
   36.6890   28.2260   32.3960 N   0  0  0  0  0  0  0  0  0  0  0  0
   36.1510   29.6590   30.9310 H   0  0  0  0  0  0  0  0  0  0  0  0
   35.0440   31.1820   32.5710 H   0  0  0  0  0  0  0  0  0  0  0  0
   36.7350   31.8100   35.9630 F   0  0  0  0  0  0  0  0  0  0  0  0
   35.4320   31.6100   36.0600 C   0  0  0  0  0  0  0  0  0  0  0  0
   34.8490   30.7270   35.2160 C   0  0  0  0  0  0  0  0  0  0  0  0
   33.4730   30.5950   35.4080 C   0  0  0  0  0  0  0  0  0  0  0  0
   32.7840   31.3000   36.3680 C   0  0  0  0  0  0  0  0  0  0  0  0
   33.4260   32.1830   37.1980 C   0  0  0  0  0  0  0  0  0  0  0  0
   34.7770   32.3360   37.0360 C   0  0  0  0  0  0  0  0  0  0  0  0
   32.8590   29.9280   34.8120 H   0  0  0  0  0  0  0  0  0  0  0  0
   31.7130   31.1930   36.5120 H   0  0  0  0  0  0  0  0  0  0  0  0
   32.9020   32.7440   37.9560 H   0  0  0  0  0  0  0  0  0  0  0  0
   35.2900   33.0220   37.6760 H   0  0  0  0  0  0  0  0  0  0  0  0
   37.1470   26.7980   34.3120 O   0  0  0  0  0  0  0  0  0  0  0  0
   38.5410   26.7360   34.5880 C   0  0  0  0  0  0  0  0  0  0  0  0
   39.0150   27.6480   34.1390 H   0  0  0  0  0  0  0  0  0  0  0  0
   38.7430   26.7830   35.6760 H   0  0  0  0  0  0  0  0  0  0  0  0
   39.1520   25.5600   33.8930 C   0  0  0  0  0  0  0  0  0  0  0  0
   38.8830   25.6640   32.8040 H   0  0  0  0  0  0  0  0  0  0  0  0
   40.2600   25.5570   33.9060 H   0  0  0  0  0  0  0  0  0  0  0  0
   38.6460   24.2670   34.3970 C   0  0  0  0  0  0  0  0  0  0  0  0
   38.8040   23.9790   35.7390 C   0  0  0  0  0  0  0  0  0  0  0  0
   38.3730   22.8150   36.3090 C   0  0  0  0  0  0  0  0  0  0  0  0
   37.7730   21.9150   35.5380 N   0  0  0  0  0  0  0  0  0  0  0  0
   37.6100   22.1860   34.2060 C   0  0  0  0  0  0  0  0  0  0  0  0
   38.0310   23.3340   33.6310 N   0  0  0  0  0  0  0  0  0  0  0  0
   39.2930   24.7090   36.3760 H   0  0  0  0  0  0  0  0  0  0  0  0
   38.5090   22.6080   37.3750 H   0  0  0  0  0  0  0  0  0  0  0  0
   36.9290   21.1560   33.3520 C   0  0  0  0  0  3  0  0  0  0  0  0
   35.5900   20.6600   33.7400 C   0  0  0  0  0  2  0  0  0  0  0  0
   35.7460   21.5470   32.5190 C   0  0  0  0  0  2  0  0  0  0  0  0
  1  6  2  0  0  0  0
  1  2  1  0  0  0  0
  2  3  2  0  0  0  0
  3  4  1  0  0  0  0
  3 11  1  0  0  0  0
  5 20  1  0  0  0  0
  5  4  2  0  0  0  0
  6  5  1  0  0  0  0
  7  1  1  0  0  0  0
  8  2  1  0  0  0  0
  9 10  1  0  0  0  0
 10 15  1  0  0  0  0
 11 12  1  0  0  0  0
 11 10  2  0  0  0  0
 12 13  2  0  0  0  0
 13 17  1  0  0  0  0
 13 14  1  0  0  0  0
 14 18  1  0  0  0  0
 15 14  2  0  0  0  0
 15 19  1  0  0  0  0
 16 12  1  0  0  0  0
 20 21  1  0  0  0  0
 21 23  1  0  0  0  0
 22 21  1  0  0  0  0
 24 26  1  0  0  0  0
 24 27  1  0  0  0  0
 24 21  1  0  0  0  0
 25 24  1  0  0  0  0
 27 28  1  0  0  0  0
 28 29  2  0  0  0  0
 28 33  1  0  0  0  0
 29 34  1  0  0  0  0
 30 29  1  0  0  0  0
 31 30  2  0  0  0  0
 32 31  1  0  0  0  0
 32 27  2  0  0  0  0
 35 36  1  0  0  0  0
 35 31  1  0  0  0  0
 37 35  1  0  0  0  0
 37 36  1  0  0  0  0
M  END
>  <minimizedAffinity>
-5.85961962

$$$$

 OpenBabel03272509563D

 37 40  0  0  0  0  0  0  0  0999 V2000
   35.7770   29.6890   31.5870 C   0  0  0  0  0  0  0  0  0  0  0  0
   35.1320   30.4510   32.5920 C   0  0  0  0  0  0  0  0  0  0  0  0
   35.1390   29.9730   33.8810 C   0  0  0  0  0  0  0  0  0  0  0  0
   35.7830   28.7820   34.0740 N   0  0  0  0  0  0  0  0  0  0  0  0
   36.3910   28.0680   33.1280 C   0  0  0  0  0  0  0  0  0  0  0  0
   36.3780   28.5410   31.8750 N   0  0  0  0  0  0  0  0  0  0  0  0
   35.7360   30.1130   30.6070 H   0  0  0  0  0  0  0  0  0  0  0  0
   34.6250   31.3830   32.4480 H   0  0  0  0  0  0  0  0  0  0  0  0
   32.4130   29.7490   34.8150 F   0  0  0  0  0  0  0  0  0  0  0  0
   33.2630   30.5180   35.4750 C   0  0  0  0  0  0  0  0  0  0  0  0
   34.5350   30.6120   35.0240 C   0  0  0  0  0  0  0  0  0  0  0  0
   35.3420   31.4490   35.7950 C   0  0  0  0  0  0  0  0  0  0  0  0
   34.8770   32.1120   36.9080 C   0  0  0  0  0  0  0  0  0  0  0  0
   33.5760   31.9810   37.3210 C   0  0  0  0  0  0  0  0  0  0  0  0
   32.7580   31.1670   36.5860 C   0  0  0  0  0  0  0  0  0  0  0  0
   36.3870   31.6300   35.5670 H   0  0  0  0  0  0  0  0  0  0  0  0
   35.5110   32.7630   37.5050 H   0  0  0  0  0  0  0  0  0  0  0  0
   33.1960   32.4940   38.1910 H   0  0  0  0  0  0  0  0  0  0  0  0
   31.7410   31.0560   36.8970 H   0  0  0  0  0  0  0  0  0  0  0  0
   36.9550   26.9190   33.5950 O   0  0  0  0  0  0  0  0  0  0  0  0
   37.1540   26.7710   34.9950 C   0  0  0  0  0  0  0  0  0  0  0  0
   36.4160   27.4360   35.5140 H   0  0  0  0  0  0  0  0  0  0  0  0
   36.9340   25.7390   35.3310 H   0  0  0  0  0  0  0  0  0  0  0  0
   38.5120   27.2710   35.3780 C   0  0  0  0  0  0  0  0  0  0  0  0
   38.7460   28.1150   34.6700 H   0  0  0  0  0  0  0  0  0  0  0  0
   38.5520   27.7340   36.3850 H   0  0  0  0  0  0  0  0  0  0  0  0
   39.5600   26.2370   35.2650 C   0  0  0  0  0  0  0  0  0  0  0  0
   40.7550   26.5770   34.6610 C   0  0  0  0  0  0  0  0  0  0  0  0
   41.7890   25.6990   34.5050 C   0  0  0  0  0  0  0  0  0  0  0  0
   41.6420   24.4580   34.9560 N   0  0  0  0  0  0  0  0  0  0  0  0
   40.4640   24.1070   35.5560 C   0  0  0  0  0  0  0  0  0  0  0  0
   39.4330   24.9660   35.7160 N   0  0  0  0  0  0  0  0  0  0  0  0
   40.8840   27.5890   34.2900 H   0  0  0  0  0  0  0  0  0  0  0  0
   42.7280   25.9900   34.0230 H   0  0  0  0  0  0  0  0  0  0  0  0
   40.3160   22.6990   36.0590 C   0  0  0  0  0  3  0  0  0  0  0  0
   41.4980   21.9980   36.6110 C   0  0  0  0  0  2  0  0  0  0  0  0
   40.3700   22.4280   37.5310 C   0  0  0  0  0  2  0  0  0  0  0  0
  1  6  2  0  0  0  0
  1  2  1  0  0  0  0
  2  3  2  0  0  0  0
  3  4  1  0  0  0  0
  3 11  1  0  0  0  0
  5 20  1  0  0  0  0
  5  4  2  0  0  0  0
  6  5  1  0  0  0  0
  7  1  1  0  0  0  0
  8  2  1  0  0  0  0
  9 10  1  0  0  0  0
 10 15  1  0  0  0  0
 11 10  2  0  0  0  0
 11 12  1  0  0  0  0
 12 13  2  0  0  0  0
 13 14  1  0  0  0  0
 13 17  1  0  0  0  0
 14 18  1  0  0  0  0
 15 19  1  0  0  0  0
 15 14  2  0  0  0  0
 16 12  1  0  0  0  0
 20 21  1  0  0  0  0
 21 23  1  0  0  0  0
 21 24  1  0  0  0  0
 21 22  1  0  0  0  0
 24 26  1  0  0  0  0
 25 24  1  0  0  0  0
 27 24  1  0  0  0  0
 27 32  1  0  0  0  0
 28 27  2  0  0  0  0
 29 28  1  0  0  0  0
 29 30  2  0  0  0  0
 30 31  1  0  0  0  0
 31 32  2  0  0  0  0
 31 35  1  0  0  0  0
 33 28  1  0  0  0  0
 34 29  1  0  0  0  0
 35 36  1  0  0  0  0
 35 37  1  0  0  0  0
 36 37  1  0  0  0  0
M  END
>  <minimizedAffinity>
-5.85231781

$$$$

 OpenBabel03272509563D

 37 40  0  0  0  0  0  0  0  0999 V2000
   35.2760   25.9430   31.1210 C   0  0  0  0  0  0  0  0  0  0  0  0
   35.1340   24.5360   31.0520 C   0  0  0  0  0  0  0  0  0  0  0  0
   36.1350   23.7510   31.5730 C   0  0  0  0  0  0  0  0  0  0  0  0
   37.1950   24.4190   32.1230 N   0  0  0  0  0  0  0  0  0  0  0  0
   37.3250   25.7430   32.1880 C   0  0  0  0  0  0  0  0  0  0  0  0
   36.3450   26.4990   31.6760 N   0  0  0  0  0  0  0  0  0  0  0  0
   34.4660   26.4970   30.6980 H   0  0  0  0  0  0  0  0  0  0  0  0
   34.3080   24.0060   30.6230 H   0  0  0  0  0  0  0  0  0  0  0  0
   38.0430   21.9850   30.3120 F   0  0  0  0  0  0  0  0  0  0  0  0
   37.0430   21.4680   31.0060 C   0  0  0  0  0  0  0  0  0  0  0  0
   36.1590   22.3090   31.5900 C   0  0  0  0  0  0  0  0  0  0  0  0
   35.1470   21.6560   32.2950 C   0  0  0  0  0  0  0  0  0  0  0  0
   35.0670   20.2850   32.3810 C   0  0  0  0  0  0  0  0  0  0  0  0
   35.9920   19.4780   31.7690 C   0  0  0  0  0  0  0  0  0  0  0  0
   36.9970   20.0890   31.0690 C   0  0  0  0  0  0  0  0  0  0  0  0
   34.3610   22.1870   32.8200 H   0  0  0  0  0  0  0  0  0  0  0  0
   34.2770   19.7820   32.9320 H   0  0  0  0  0  0  0  0  0  0  0  0
   35.9440   18.4020   31.8270 H   0  0  0  0  0  0  0  0  0  0  0  0
   37.7250   19.4720   30.5860 H   0  0  0  0  0  0  0  0  0  0  0  0
   38.4810   26.1450   32.7880 O   0  0  0  0  0  0  0  0  0  0  0  0
   38.4030   26.9280   33.9730 C   0  0  0  0  0  0  0  0  0  0  0  0
   38.6200   27.9910   33.6900 H   0  0  0  0  0  0  0  0  0  0  0  0
   37.3820   26.9200   34.4010 H   0  0  0  0  0  0  0  0  0  0  0  0
   39.4800   26.5210   34.9300 C   0  0  0  0  0  0  0  0  0  0  0  0
   40.4040   26.3510   34.3100 H   0  0  0  0  0  0  0  0  0  0  0  0
   39.7680   27.3170   35.6460 H   0  0  0  0  0  0  0  0  0  0  0  0
   39.1560   25.2830   35.6690 C   0  0  0  0  0  0  0  0  0  0  0  0
   37.9730   25.2360   36.3820 C   0  0  0  0  0  0  0  0  0  0  0  0
   37.5770   24.1420   37.0980 C   0  0  0  0  0  0  0  0  0  0  0  0
   38.3640   23.0720   37.1110 N   0  0  0  0  0  0  0  0  0  0  0  0
   39.5380   23.1050   36.4090 C   0  0  0  0  0  0  0  0  0  0  0  0
   39.9410   24.1800   35.6970 N   0  0  0  0  0  0  0  0  0  0  0  0
   37.3240   26.1050   36.3770 H   0  0  0  0  0  0  0  0  0  0  0  0
   36.6360   24.1270   37.6560 H   0  0  0  0  0  0  0  0  0  0  0  0
   40.4140   21.8850   36.4350 C   0  0  0  0  0  3  0  0  0  0  0  0
   41.8560   22.0200   36.1300 C   0  0  0  0  0  2  0  0  0  0  0  0
   41.4050   21.7090   37.5450 C   0  0  0  0  0  2  0  0  0  0  0  0
  1  6  1  0  0  0  0
  2  1  2  0  0  0  0
  2  3  1  0  0  0  0
  3 11  1  0  0  0  0
  3  4  2  0  0  0  0
  4  5  1  0  0  0  0
  5 20  1  0  0  0  0
  6  5  2  0  0  0  0
  7  1  1  0  0  0  0
  8  2  1  0  0  0  0
  9 10  1  0  0  0  0
 10 15  2  0  0  0  0
 10 11  1  0  0  0  0
 11 12  2  0  0  0  0
 12 13  1  0  0  0  0
 12 16  1  0  0  0  0
 13 17  1  0  0  0  0
 14 18  1  0  0  0  0
 14 13  2  0  0  0  0
 15 14  1  0  0  0  0
 19 15  1  0  0  0  0
 20 21  1  0  0  0  0
 21 23  1  0  0  0  0
 21 24  1  0  0  0  0
 22 21  1  0  0  0  0
 24 26  1  0  0  0  0
 24 27  1  0  0  0  0
 25 24  1  0  0  0  0
 27 32  2  0  0  0  0
 27 28  1  0  0  0  0
 28 29  2  0  0  0  0
 29 30  1  0  0  0  0
 29 34  1  0  0  0  0
 31 35  1  0  0  0  0
 31 30  2  0  0  0  0
 32 31  1  0  0  0  0
 33 28  1  0  0  0  0
 35 37  1  0  0  0  0
 36 35  1  0  0  0  0
 36 37  1  0  0  0  0
M  END
>  <minimizedAffinity>
-5.83515215

$$$$

 OpenBabel03272509563D

 37 40  0  0  0  0  0  0  0  0999 V2000
   38.2680   23.3990   38.1590 C   0  0  0  0  0  0  0  0  0  0  0  0
   37.4030   23.0220   37.1010 C   0  0  0  0  0  0  0  0  0  0  0  0
   37.9380   22.3480   36.0290 C   0  0  0  0  0  0  0  0  0  0  0  0
   39.2820   22.0990   36.0880 N   0  0  0  0  0  0  0  0  0  0  0  0
   40.0920   22.4530   37.0840 C   0  0  0  0  0  0  0  0  0  0  0  0
   39.5620   23.1100   38.1230 N   0  0  0  0  0  0  0  0  0  0  0  0
   37.7930   23.9210   38.9610 H   0  0  0  0  0  0  0  0  0  0  0  0
   36.3520   23.2140   37.0490 H   0  0  0  0  0  0  0  0  0  0  0  0
   35.7280   20.4890   35.9320 F   0  0  0  0  0  0  0  0  0  0  0  0
   36.1760   21.0210   34.8080 C   0  0  0  0  0  0  0  0  0  0  0  0
   37.2120   21.8890   34.8710 C   0  0  0  0  0  0  0  0  0  0  0  0
   37.6010   22.3870   33.6260 C   0  0  0  0  0  0  0  0  0  0  0  0
   36.9830   22.0220   32.4530 C   0  0  0  0  0  0  0  0  0  0  0  0
   35.9360   21.1360   32.4460 C   0  0  0  0  0  0  0  0  0  0  0  0
   35.5300   20.6290   33.6510 C   0  0  0  0  0  0  0  0  0  0  0  0
   38.4150   23.0930   33.5070 H   0  0  0  0  0  0  0  0  0  0  0  0
   37.2900   22.4130   31.4870 H   0  0  0  0  0  0  0  0  0  0  0  0
   35.4400   20.8390   31.5350 H   0  0  0  0  0  0  0  0  0  0  0  0
   34.7140   19.9370   33.6610 H   0  0  0  0  0  0  0  0  0  0  0  0
   41.3870   22.0800   36.8870 O   0  0  0  0  0  0  0  0  0  0  0  0
   42.3590   23.0840   36.6230 C   0  0  0  0  0  0  0  0  0  0  0  0
   41.9890   24.0400   37.0770 H   0  0  0  0  0  0  0  0  0  0  0  0
   43.3240   22.8570   37.1160 H   0  0  0  0  0  0  0  0  0  0  0  0
   42.4580   23.3300   35.1500 C   0  0  0  0  0  0  0  0  0  0  0  0
   43.5400   23.1790   34.8780 H   0  0  0  0  0  0  0  0  0  0  0  0
   41.9090   22.5900   34.5330 H   0  0  0  0  0  0  0  0  0  0  0  0
   42.0470   24.6960   34.7660 C   0  0  0  0  0  0  0  0  0  0  0  0
   43.0020   25.5430   34.2340 C   0  0  0  0  0  0  0  0  0  0  0  0
   42.7300   26.8240   33.8460 C   0  0  0  0  0  0  0  0  0  0  0  0
   41.4900   27.2800   33.9840 N   0  0  0  0  0  0  0  0  0  0  0  0
   40.5340   26.4520   34.5090 C   0  0  0  0  0  0  0  0  0  0  0  0
   40.7910   25.1840   34.8970 N   0  0  0  0  0  0  0  0  0  0  0  0
   44.0170   25.1790   34.1170 H   0  0  0  0  0  0  0  0  0  0  0  0
   43.5010   27.4780   33.4280 H   0  0  0  0  0  0  0  0  0  0  0  0
   39.1390   26.9870   34.6580 C   0  0  0  0  0  3  0  0  0  0  0  0
   38.0600   26.0810   35.1130 C   0  0  0  0  0  2  0  0  0  0  0  0
   38.5620   27.1830   36.0260 C   0  0  0  0  0  2  0  0  0  0  0  0
  1  7  1  0  0  0  0
  2  1  2  0  0  0  0
  3  4  2  0  0  0  0
  3  2  1  0  0  0  0
  4  5  1  0  0  0  0
  5  6  2  0  0  0  0
  6  1  1  0  0  0  0
  8  2  1  0  0  0  0
 10 11  1  0  0  0  0
 10  9  1  0  0  0  0
 11  3  1  0  0  0  0
 12 11  2  0  0  0  0
 13 12  1  0  0  0  0
 14 13  2  0  0  0  0
 14 15  1  0  0  0  0
 15 19  1  0  0  0  0
 15 10  2  0  0  0  0
 16 12  1  0  0  0  0
 17 13  1  0  0  0  0
 18 14  1  0  0  0  0
 20  5  1  0  0  0  0
 21 20  1  0  0  0  0
 21 22  1  0  0  0  0
 21 23  1  0  0  0  0
 24 21  1  0  0  0  0
 25 24  1  0  0  0  0
 26 24  1  0  0  0  0
 27 32  1  0  0  0  0
 27 24  1  0  0  0  0
 28 27  2  0  0  0  0
 29 30  2  0  0  0  0
 29 28  1  0  0  0  0
 30 31  1  0  0  0  0
 31 35  1  0  0  0  0
 31 32  2  0  0  0  0
 33 28  1  0  0  0  0
 34 29  1  0  0  0  0
 35 36  1  0  0  0  0
 35 37  1  0  0  0  0
 36 37  1  0  0  0  0
M  END
>  <minimizedAffinity>
-5.81743479

$$$$

 OpenBabel03272509563D

 37 40  0  0  0  0  0  0  0  0999 V2000
   35.4940   20.3860   33.9610 C   0  0  0  0  0  0  0  0  0  0  0  0
   36.1980   20.7750   35.1280 C   0  0  0  0  0  0  0  0  0  0  0  0
   37.1230   21.7870   35.0260 C   0  0  0  0  0  0  0  0  0  0  0  0
   37.2780   22.3350   33.7820 N   0  0  0  0  0  0  0  0  0  0  0  0
   36.6140   21.9680   32.6870 C   0  0  0  0  0  0  0  0  0  0  0  0
   35.7160   20.9810   32.7960 N   0  0  0  0  0  0  0  0  0  0  0  0
   34.7910   19.5950   34.1050 H   0  0  0  0  0  0  0  0  0  0  0  0
   36.0820   20.3520   36.1040 H   0  0  0  0  0  0  0  0  0  0  0  0
   39.9950   21.6740   35.3230 F   0  0  0  0  0  0  0  0  0  0  0  0
   39.2710   22.2660   36.2580 C   0  0  0  0  0  0  0  0  0  0  0  0
   37.9270   22.3100   36.1030 C   0  0  0  0  0  0  0  0  0  0  0  0
   37.2650   22.9560   37.1480 C   0  0  0  0  0  0  0  0  0  0  0  0
   37.9260   23.4950   38.2280 C   0  0  0  0  0  0  0  0  0  0  0  0
   39.2910   23.4220   38.3340 C   0  0  0  0  0  0  0  0  0  0  0  0
   39.9710   22.7930   37.3260 C   0  0  0  0  0  0  0  0  0  0  0  0
   36.1870   23.0760   37.1730 H   0  0  0  0  0  0  0  0  0  0  0  0
   37.4050   23.9970   39.0370 H   0  0  0  0  0  0  0  0  0  0  0  0
   39.8250   23.8390   39.1730 H   0  0  0  0  0  0  0  0  0  0  0  0
   41.0360   22.7290   37.3960 H   0  0  0  0  0  0  0  0  0  0  0  0
   36.9630   22.6790   31.5790 O   0  0  0  0  0  0  0  0  0  0  0  0
   36.0510   23.6420   31.0650 C   0  0  0  0  0  0  0  0  0  0  0  0
   35.6490   23.2440   30.0970 H   0  0  0  0  0  0  0  0  0  0  0  0
   35.1790   23.7750   31.7340 H   0  0  0  0  0  0  0  0  0  0  0  0
   36.7750   24.9090   30.7290 C   0  0  0  0  0  0  0  0  0  0  0  0
   37.8500   24.6220   30.5620 H   0  0  0  0  0  0  0  0  0  0  0  0
   36.4570   25.3670   29.7710 H   0  0  0  0  0  0  0  0  0  0  0  0
   36.7030   25.9160   31.8080 C   0  0  0  0  0  0  0  0  0  0  0  0
   36.1040   27.1300   31.5330 C   0  0  0  0  0  0  0  0  0  0  0  0
   35.9840   28.1290   32.4560 C   0  0  0  0  0  0  0  0  0  0  0  0
   36.4640   27.9260   33.6770 N   0  0  0  0  0  0  0  0  0  0  0  0
   37.0600   26.7280   33.9650 C   0  0  0  0  0  0  0  0  0  0  0  0
   37.1850   25.7320   33.0600 N   0  0  0  0  0  0  0  0  0  0  0  0
   35.7080   27.3040   30.5380 H   0  0  0  0  0  0  0  0  0  0  0  0
   35.5050   29.0840   32.2160 H   0  0  0  0  0  0  0  0  0  0  0  0
   37.5970   26.5180   35.3510 C   0  0  0  0  0  3  0  0  0  0  0  0
   38.9230   25.8840   35.5270 C   0  0  0  0  0  2  0  0  0  0  0  0
   38.7390   27.3570   35.8380 C   0  0  0  0  0  2  0  0  0  0  0  0
  1  7  1  0  0  0  0
  1  2  1  0  0  0  0
  2  8  1  0  0  0  0
  3  2  2  0  0  0  0
  3 11  1  0  0  0  0
  4  3  1  0  0  0  0
  5  6  1  0  0  0  0
  5  4  2  0  0  0  0
  6  1  2  0  0  0  0
  9 10  1  0  0  0  0
 10 15  1  0  0  0  0
 11 10  2  0  0  0  0
 11 12  1  0  0  0  0
 12 16  1  0  0  0  0
 12 13  2  0  0  0  0
 13 14  1  0  0  0  0
 13 17  1  0  0  0  0
 14 18  1  0  0  0  0
 15 19  1  0  0  0  0
 15 14  2  0  0  0  0
 20  5  1  0  0  0  0
 21 20  1  0  0  0  0
 21 23  1  0  0  0  0
 22 21  1  0  0  0  0
 24 21  1  0  0  0  0
 24 27  1  0  0  0  0
 25 24  1  0  0  0  0
 26 24  1  0  0  0  0
 27 32  1  0  0  0  0
 28 27  2  0  0  0  0
 28 29  1  0  0  0  0
 29 30  2  0  0  0  0
 30 31  1  0  0  0  0
 31 35  1  0  0  0  0
 32 31  2  0  0  0  0
 33 28  1  0  0  0  0
 34 29  1  0  0  0  0
 35 36  1  0  0  0  0
 35 37  1  0  0  0  0
 36 37  1  0  0  0  0
M  END
>  <minimizedAffinity>
-5.77065659

$$$$

 OpenBabel03272509563D

 37 40  0  0  0  0  0  0  0  0999 V2000
   35.1520   26.1690   30.9350 C   0  0  0  0  0  0  0  0  0  0  0  0
   36.1410   26.6850   31.8070 C   0  0  0  0  0  0  0  0  0  0  0  0
   36.9220   25.7970   32.5090 C   0  0  0  0  0  0  0  0  0  0  0  0
   36.6650   24.4710   32.2910 N   0  0  0  0  0  0  0  0  0  0  0  0
   35.7350   23.9880   31.4690 C   0  0  0  0  0  0  0  0  0  0  0  0
   34.9780   24.8610   30.7910 N   0  0  0  0  0  0  0  0  0  0  0  0
   34.5780   26.9090   30.4190 H   0  0  0  0  0  0  0  0  0  0  0  0
   36.3480   27.7210   31.9830 H   0  0  0  0  0  0  0  0  0  0  0  0
   36.6700   27.0590   35.0960 F   0  0  0  0  0  0  0  0  0  0  0  0
   37.8710   26.7320   34.6500 C   0  0  0  0  0  0  0  0  0  0  0  0
   37.9710   26.1420   33.4360 C   0  0  0  0  0  0  0  0  0  0  0  0
   39.2830   25.8420   33.0670 C   0  0  0  0  0  0  0  0  0  0  0  0
   40.3650   26.1240   33.8690 C   0  0  0  0  0  0  0  0  0  0  0  0
   40.2060   26.7240   35.0920 C   0  0  0  0  0  0  0  0  0  0  0  0
   38.9310   27.0320   35.4840 C   0  0  0  0  0  0  0  0  0  0  0  0
   39.5320   25.3670   32.1240 H   0  0  0  0  0  0  0  0  0  0  0  0
   41.3840   25.8870   33.5760 H   0  0  0  0  0  0  0  0  0  0  0  0
   41.0420   26.9520   35.7330 H   0  0  0  0  0  0  0  0  0  0  0  0
   38.7920   27.5000   36.4360 H   0  0  0  0  0  0  0  0  0  0  0  0
   35.6910   22.6270   31.4410 O   0  0  0  0  0  0  0  0  0  0  0  0
   36.9070   21.8980   31.5540 C   0  0  0  0  0  0  0  0  0  0  0  0
   37.1120   21.4270   30.5570 H   0  0  0  0  0  0  0  0  0  0  0  0
   37.7630   22.5650   31.7680 H   0  0  0  0  0  0  0  0  0  0  0  0
   36.7420   20.7690   32.5240 C   0  0  0  0  0  0  0  0  0  0  0  0
   35.7440   20.3020   32.2960 H   0  0  0  0  0  0  0  0  0  0  0  0
   37.4730   19.9470   32.3840 H   0  0  0  0  0  0  0  0  0  0  0  0
   36.7600   21.2140   33.9330 C   0  0  0  0  0  0  0  0  0  0  0  0
   35.8140   20.6950   34.7960 C   0  0  0  0  0  0  0  0  0  0  0  0
   35.7410   21.0380   36.1170 C   0  0  0  0  0  0  0  0  0  0  0  0
   36.6210   21.9100   36.5960 N   0  0  0  0  0  0  0  0  0  0  0  0
   37.5630   22.4320   35.7520 C   0  0  0  0  0  0  0  0  0  0  0  0
   37.6450   22.1020   34.4440 N   0  0  0  0  0  0  0  0  0  0  0  0
   35.0920   19.9820   34.4130 H   0  0  0  0  0  0  0  0  0  0  0  0
   34.9830   20.6140   36.7830 H   0  0  0  0  0  0  0  0  0  0  0  0
   38.5480   23.4170   36.3130 C   0  0  0  0  0  3  0  0  0  0  0  0
   39.2590   23.0960   37.5710 C   0  0  0  0  0  2  0  0  0  0  0  0
   40.0140   23.1140   36.2550 C   0  0  0  0  0  2  0  0  0  0  0  0
  1  2  1  0  0  0  0
  2  8  1  0  0  0  0
  2  3  2  0  0  0  0
  3 11  1  0  0  0  0
  4  3  1  0  0  0  0
  5  4  2  0  0  0  0
  6  1  2  0  0  0  0
  6  5  1  0  0  0  0
  7  1  1  0  0  0  0
 10  9  1  0  0  0  0
 10 15  1  0  0  0  0
 11 10  2  0  0  0  0
 12 11  1  0  0  0  0
 12 13  2  0  0  0  0
 13 14  1  0  0  0  0
 14 15  2  0  0  0  0
 14 18  1  0  0  0  0
 15 19  1  0  0  0  0
 16 12  1  0  0  0  0
 17 13  1  0  0  0  0
 20  5  1  0  0  0  0
 20 21  1  0  0  0  0
 21 23  1  0  0  0  0
 21 24  1  0  0  0  0
 22 21  1  0  0  0  0
 24 27  1  0  0  0  0
 25 24  1  0  0  0  0
 26 24  1  0  0  0  0
 27 32  2  0  0  0  0
 27 28  1  0  0  0  0
 28 29  2  0  0  0  0
 29 30  1  0  0  0  0
 29 34  1  0  0  0  0
 31 35  1  0  0  0  0
 31 30  2  0  0  0  0
 32 31  1  0  0  0  0
 33 28  1  0  0  0  0
 35 36  1  0  0  0  0
 37 35  1  0  0  0  0
 37 36  1  0  0  0  0
M  END
>  <minimizedAffinity>
-5.67563677

$$$$

 OpenBabel03272509563D

 37 40  0  0  0  0  0  0  0  0999 V2000
   35.7980   24.2280   31.0660 C   0  0  0  0  0  0  0  0  0  0  0  0
   35.4620   25.6000   31.1670 C   0  0  0  0  0  0  0  0  0  0  0  0
   36.4810   26.5160   31.2830 C   0  0  0  0  0  0  0  0  0  0  0  0
   37.7490   26.0040   31.2870 N   0  0  0  0  0  0  0  0  0  0  0  0
   38.0620   24.7130   31.1900 C   0  0  0  0  0  0  0  0  0  0  0  0
   37.0630   23.8280   31.0790 N   0  0  0  0  0  0  0  0  0  0  0  0
   34.9630   23.5670   30.9790 H   0  0  0  0  0  0  0  0  0  0  0  0
   34.4720   26.0080   31.1650 H   0  0  0  0  0  0  0  0  0  0  0  0
   36.8430   28.5160   29.2290 F   0  0  0  0  0  0  0  0  0  0  0  0
   36.4900   28.8950   30.4460 C   0  0  0  0  0  0  0  0  0  0  0  0
   36.3250   27.9450   31.3960 C   0  0  0  0  0  0  0  0  0  0  0  0
   35.9530   28.4580   32.6390 C   0  0  0  0  0  0  0  0  0  0  0  0
   35.7750   29.8030   32.8670 C   0  0  0  0  0  0  0  0  0  0  0  0
   35.9560   30.7230   31.8670 C   0  0  0  0  0  0  0  0  0  0  0  0
   36.3220   30.2530   30.6340 C   0  0  0  0  0  0  0  0  0  0  0  0
   35.7810   27.8270   33.5050 H   0  0  0  0  0  0  0  0  0  0  0  0
   35.4850   30.1950   33.8380 H   0  0  0  0  0  0  0  0  0  0  0  0
   35.8200   31.7810   32.0280 H   0  0  0  0  0  0  0  0  0  0  0  0
   36.4660   30.9600   29.8440 H   0  0  0  0  0  0  0  0  0  0  0  0
   39.4040   24.4780   31.2200 O   0  0  0  0  0  0  0  0  0  0  0  0
   39.9730   23.8930   32.3860 C   0  0  0  0  0  0  0  0  0  0  0  0
   39.1310   23.4870   33.0050 H   0  0  0  0  0  0  0  0  0  0  0  0
   40.6200   23.0310   32.1340 H   0  0  0  0  0  0  0  0  0  0  0  0
   40.6360   24.9450   33.2190 C   0  0  0  0  0  0  0  0  0  0  0  0
   41.5800   24.4800   33.6190 H   0  0  0  0  0  0  0  0  0  0  0  0
   40.9830   25.8240   32.6380 H   0  0  0  0  0  0  0  0  0  0  0  0
   39.7990   25.3960   34.3500 C   0  0  0  0  0  0  0  0  0  0  0  0
   39.5760   26.7520   34.5010 C   0  0  0  0  0  0  0  0  0  0  0  0
   38.8190   27.2760   35.5090 C   0  0  0  0  0  0  0  0  0  0  0  0
   38.2690   26.4450   36.3870 N   0  0  0  0  0  0  0  0  0  0  0  0
   38.4810   25.1000   36.2500 C   0  0  0  0  0  0  0  0  0  0  0  0
   39.2290   24.5690   35.2580 N   0  0  0  0  0  0  0  0  0  0  0  0
   40.0210   27.4380   33.7870 H   0  0  0  0  0  0  0  0  0  0  0  0
   38.6550   28.3530   35.6100 H   0  0  0  0  0  0  0  0  0  0  0  0
   37.8510   24.1770   37.2540 C   0  0  0  0  0  3  0  0  0  0  0  0
   38.7180   23.3690   38.1410 C   0  0  0  0  0  2  0  0  0  0  0  0
   37.9080   24.5180   38.7120 C   0  0  0  0  0  2  0  0  0  0  0  0
  1  6  2  0  0  0  0
  1  2  1  0  0  0  0
  2  3  2  0  0  0  0
  3  4  1  0  0  0  0
  3 11  1  0  0  0  0
  5 20  1  0  0  0  0
  5  4  2  0  0  0  0
  6  5  1  0  0  0  0
  7  1  1  0  0  0  0
  8  2  1  0  0  0  0
  9 10  1  0  0  0  0
 10 15  2  0  0  0  0
 10 11  1  0  0  0  0
 11 12  2  0  0  0  0
 12 13  1  0  0  0  0
 12 16  1  0  0  0  0
 13 17  1  0  0  0  0
 14 18  1  0  0  0  0
 14 13  2  0  0  0  0
 15 14  1  0  0  0  0
 19 15  1  0  0  0  0
 20 21  1  0  0  0  0
 21 22  1  0  0  0  0
 21 24  1  0  0  0  0
 23 21  1  0  0  0  0
 24 25  1  0  0  0  0
 24 27  1  0  0  0  0
 26 24  1  0  0  0  0
 27 28  2  0  0  0  0
 27 32  1  0  0  0  0
 28 29  1  0  0  0  0
 29 34  1  0  0  0  0
 29 30  2  0  0  0  0
 31 30  1  0  0  0  0
 31 35  1  0  0  0  0
 32 31  2  0  0  0  0
 33 28  1  0  0  0  0
 35 36  1  0  0  0  0
 35 37  1  0  0  0  0
 36 37  1  0  0  0  0
M  END
>  <minimizedAffinity>
-5.6692996

$$$$
