
 OpenBabel03262520183D

 12 13  0  0  0  0  0  0  0  0999 V2000
   38.5320   23.5550   38.2130 C   0  0  0  0  0  0  0  0  0  0  0  0
   38.0890   24.6190   37.4040 C   0  0  0  0  0  0  0  0  0  0  0  0
   38.7350   24.8270   36.1720 C   0  0  0  0  0  0  0  0  0  0  0  0
   39.7520   23.9760   35.8460 N   0  0  0  0  0  0  0  0  0  0  0  0
   40.1460   22.9670   36.6510 C   0  0  0  0  0  0  0  0  0  0  0  0
   39.5330   22.7540   37.8410 N   0  0  0  0  0  0  0  0  0  0  0  0
   38.0410   23.3850   39.1650 H   0  0  0  0  0  0  0  0  0  0  0  0
   37.2620   25.2620   37.7350 H   0  0  0  0  0  0  0  0  0  0  0  0
   40.9780   22.3950   36.2150 H   0  0  0  0  0  0  0  0  0  0  0  0
   38.3200   25.9170   35.2870 C   0  0  0  0  0  3  0  0  0  0  0  0
   38.0590   27.2790   35.7470 C   0  0  0  0  0  2  0  0  0  0  0  0
   39.4060   26.9850   35.0900 C   0  0  0  0  0  2  0  0  0  0  0  0
  1  7  1  0  0  0  0
  2  8  1  0  0  0  0
  2  1  2  0  0  0  0
  3  2  1  0  0  0  0
  4  3  2  0  0  0  0
  4  5  1  0  0  0  0
  5  6  2  0  0  0  0
  6  1  1  0  0  0  0
  9  5  1  0  0  0  0
 10 11  1  0  0  0  0
 10  3  1  0  0  0  0
 12 10  1  0  0  0  0
 12 11  1  0  0  0  0
M  END
>  <minimizedAffinity>
-3.37172556

$$$$

 OpenBabel03262520183D

 12 13  0  0  0  0  0  0  0  0999 V2000
   38.0720   23.5730   38.1040 C   0  0  0  0  0  0  0  0  0  0  0  0
   39.4120   23.1660   38.2560 C   0  0  0  0  0  0  0  0  0  0  0  0
   40.0000   22.4230   37.2170 C   0  0  0  0  0  0  0  0  0  0  0  0
   39.2240   22.1470   36.1270 N   0  0  0  0  0  0  0  0  0  0  0  0
   37.9430   22.5560   36.0210 C   0  0  0  0  0  0  0  0  0  0  0  0
   37.3630   23.2730   37.0140 N   0  0  0  0  0  0  0  0  0  0  0  0
   37.6080   24.1470   38.8990 H   0  0  0  0  0  0  0  0  0  0  0  0
   39.9720   23.4270   39.1640 H   0  0  0  0  0  0  0  0  0  0  0  0
   37.4880   22.2360   35.0720 H   0  0  0  0  0  0  0  0  0  0  0  0
   41.3890   21.9710   37.3170 C   0  0  0  0  0  3  0  0  0  0  0  0
   42.1470   21.4270   36.1920 C   0  0  0  0  0  2  0  0  0  0  0  0
   42.3790   22.8860   36.5810 C   0  0  0  0  0  2  0  0  0  0  0  0
  1  2  1  0  0  0  0
  1  7  1  0  0  0  0
  2  8  1  0  0  0  0
  3 10  1  0  0  0  0
  3  2  2  0  0  0  0
  4  3  1  0  0  0  0
  5  4  2  0  0  0  0
  5  6  1  0  0  0  0
  6  1  2  0  0  0  0
  9  5  1  0  0  0  0
 11 12  1  0  0  0  0
 11 10  1  0  0  0  0
 12 10  1  0  0  0  0
M  END
>  <minimizedAffinity>
-3.25461745

$$$$

 OpenBabel03262520183D

 12 13  0  0  0  0  0  0  0  0999 V2000
   37.4660   23.0430   37.1440 C   0  0  0  0  0  0  0  0  0  0  0  0
   37.7480   24.4200   37.2300 C   0  0  0  0  0  0  0  0  0  0  0  0
   38.2420   25.0680   36.0840 C   0  0  0  0  0  0  0  0  0  0  0  0
   38.4140   24.3100   34.9610 N   0  0  0  0  0  0  0  0  0  0  0  0
   38.1310   22.9920   34.9190 C   0  0  0  0  0  0  0  0  0  0  0  0
   37.6540   22.3530   36.0160 N   0  0  0  0  0  0  0  0  0  0  0  0
   37.0850   22.5320   38.0210 H   0  0  0  0  0  0  0  0  0  0  0  0
   37.5830   24.9620   38.1710 H   0  0  0  0  0  0  0  0  0  0  0  0
   38.3360   22.5600   33.9290 H   0  0  0  0  0  0  0  0  0  0  0  0
   38.5540   26.4980   36.1120 C   0  0  0  0  0  3  0  0  0  0  0  0
   39.1160   27.2270   34.9780 C   0  0  0  0  0  2  0  0  0  0  0  0
   37.6150   27.3410   35.2380 C   0  0  0  0  0  2  0  0  0  0  0  0
  1  2  1  0  0  0  0
  1  7  1  0  0  0  0
  2  8  1  0  0  0  0
  3 10  1  0  0  0  0
  3  2  2  0  0  0  0
  4  3  1  0  0  0  0
  5  4  2  0  0  0  0
  5  6  1  0  0  0  0
  6  1  2  0  0  0  0
  9  5  1  0  0  0  0
 11 12  1  0  0  0  0
 11 10  1  0  0  0  0
 12 10  1  0  0  0  0
M  END
>  <minimizedAffinity>
-3.20495296

$$$$

 OpenBabel03262520183D

 12 13  0  0  0  0  0  0  0  0999 V2000
   40.2270   25.5260   34.6670 C   0  0  0  0  0  0  0  0  0  0  0  0
   39.5250   24.6260   35.4920 C   0  0  0  0  0  0  0  0  0  0  0  0
   38.4810   25.1330   36.2870 C   0  0  0  0  0  0  0  0  0  0  0  0
   38.2220   26.4710   36.2010 N   0  0  0  0  0  0  0  0  0  0  0  0
   38.9190   27.3000   35.3970 C   0  0  0  0  0  0  0  0  0  0  0  0
   39.9270   26.8260   34.6250 N   0  0  0  0  0  0  0  0  0  0  0  0
   41.0330   25.1470   34.0490 H   0  0  0  0  0  0  0  0  0  0  0  0
   39.7930   23.5610   35.5060 H   0  0  0  0  0  0  0  0  0  0  0  0
   38.5600   28.3380   35.4680 H   0  0  0  0  0  0  0  0  0  0  0  0
   37.7150   24.2470   37.1650 C   0  0  0  0  0  3  0  0  0  0  0  0
   38.3150   23.1780   37.9610 C   0  0  0  0  0  2  0  0  0  0  0  0
   37.9800   24.4950   38.6570 C   0  0  0  0  0  2  0  0  0  0  0  0
  1  2  1  0  0  0  0
  2  8  1  0  0  0  0
  2  3  2  0  0  0  0
  3 10  1  0  0  0  0
  4  3  1  0  0  0  0
  5  9  1  0  0  0  0
  5  4  2  0  0  0  0
  6  1  2  0  0  0  0
  6  5  1  0  0  0  0
  7  1  1  0  0  0  0
 10 11  1  0  0  0  0
 10 12  1  0  0  0  0
 11 12  1  0  0  0  0
M  END
>  <minimizedAffinity>
-3.15651202

$$$$

 OpenBabel03262520183D

 12 13  0  0  0  0  0  0  0  0999 V2000
   35.8870   28.1240   32.1980 C   0  0  0  0  0  0  0  0  0  0  0  0
   36.4650   28.2930   33.4710 C   0  0  0  0  0  0  0  0  0  0  0  0
   37.0880   27.1820   34.0680 C   0  0  0  0  0  0  0  0  0  0  0  0
   37.0890   26.0110   33.3640 N   0  0  0  0  0  0  0  0  0  0  0  0
   36.5230   25.8920   32.1450 C   0  0  0  0  0  0  0  0  0  0  0  0
   35.9200   26.9530   31.5570 N   0  0  0  0  0  0  0  0  0  0  0  0
   35.4040   28.9740   31.7280 H   0  0  0  0  0  0  0  0  0  0  0  0
   36.4230   29.2680   33.9750 H   0  0  0  0  0  0  0  0  0  0  0  0
   36.6280   24.8730   31.7430 H   0  0  0  0  0  0  0  0  0  0  0  0
   37.7050   27.2940   35.3900 C   0  0  0  0  0  3  0  0  0  0  0  0
   38.2960   26.1660   36.1070 C   0  0  0  0  0  2  0  0  0  0  0  0
   39.2300   27.1200   35.3650 C   0  0  0  0  0  2  0  0  0  0  0  0
  1  2  1  0  0  0  0
  2  8  1  0  0  0  0
  2  3  2  0  0  0  0
  3 10  1  0  0  0  0
  4  3  1  0  0  0  0
  5  4  2  0  0  0  0
  6  5  1  0  0  0  0
  6  1  2  0  0  0  0
  7  1  1  0  0  0  0
  9  5  1  0  0  0  0
 10 11  1  0  0  0  0
 12 10  1  0  0  0  0
 12 11  1  0  0  0  0
M  END
>  <minimizedAffinity>
-3.14618516

$$$$

 OpenBabel03262520183D

 12 13  0  0  0  0  0  0  0  0999 V2000
   36.4670   24.0920   30.9560 C   0  0  0  0  0  0  0  0  0  0  0  0
   35.5890   23.2130   31.6190 C   0  0  0  0  0  0  0  0  0  0  0  0
   35.9920   21.8760   31.7880 C   0  0  0  0  0  0  0  0  0  0  0  0
   37.2170   21.5240   31.2940 N   0  0  0  0  0  0  0  0  0  0  0  0
   38.0290   22.3980   30.6650 C   0  0  0  0  0  0  0  0  0  0  0  0
   37.6540   23.6900   30.4950 N   0  0  0  0  0  0  0  0  0  0  0  0
   36.1670   25.1250   30.8200 H   0  0  0  0  0  0  0  0  0  0  0  0
   34.6190   23.5710   31.9890 H   0  0  0  0  0  0  0  0  0  0  0  0
   38.9680   21.9250   30.3410 H   0  0  0  0  0  0  0  0  0  0  0  0
   35.1230   20.9150   32.4680 C   0  0  0  0  0  3  0  0  0  0  0  0
   35.5260   19.5490   32.7970 C   0  0  0  0  0  2  0  0  0  0  0  0
   35.5700   20.6010   33.9030 C   0  0  0  0  0  2  0  0  0  0  0  0
  1  2  1  0  0  0  0
  2  3  2  0  0  0  0
  2  8  1  0  0  0  0
  3 10  1  0  0  0  0
  4  3  1  0  0  0  0
  5  4  2  0  0  0  0
  6  5  1  0  0  0  0
  6  1  2  0  0  0  0
  7  1  1  0  0  0  0
  9  5  1  0  0  0  0
 10 11  1  0  0  0  0
 10 12  1  0  0  0  0
 11 12  1  0  0  0  0
M  END
>  <minimizedAffinity>
-3.02646232

$$$$

 OpenBabel03262520183D

 12 13  0  0  0  0  0  0  0  0999 V2000
   38.3270   26.7770   35.9870 C   0  0  0  0  0  0  0  0  0  0  0  0
   38.1800   25.4420   36.4110 C   0  0  0  0  0  0  0  0  0  0  0  0
   39.1420   24.5050   35.9940 C   0  0  0  0  0  0  0  0  0  0  0  0
   40.1580   24.9600   35.2020 N   0  0  0  0  0  0  0  0  0  0  0  0
   40.2630   26.2490   34.8170 C   0  0  0  0  0  0  0  0  0  0  0  0
   39.3430   27.1640   35.2120 N   0  0  0  0  0  0  0  0  0  0  0  0
   37.5920   27.5090   36.3030 H   0  0  0  0  0  0  0  0  0  0  0  0
   37.3350   25.1520   37.0490 H   0  0  0  0  0  0  0  0  0  0  0  0
   41.1460   26.4180   34.1840 H   0  0  0  0  0  0  0  0  0  0  0  0
   39.0430   23.1030   36.4020 C   0  0  0  0  0  3  0  0  0  0  0  0
   40.1660   22.1670   36.3660 C   0  0  0  0  0  2  0  0  0  0  0  0
   39.7910   22.7960   37.7070 C   0  0  0  0  0  2  0  0  0  0  0  0
  1  7  1  0  0  0  0
  1  2  1  0  0  0  0
  2  8  1  0  0  0  0
  3 10  1  0  0  0  0
  3  2  2  0  0  0  0
  4  3  1  0  0  0  0
  5  4  2  0  0  0  0
  5  6  1  0  0  0  0
  6  1  2  0  0  0  0
  9  5  1  0  0  0  0
 10 12  1  0  0  0  0
 11 10  1  0  0  0  0
 11 12  1  0  0  0  0
M  END
>  <minimizedAffinity>
-3.00201178

$$$$

 OpenBabel03262520183D

 12 13  0  0  0  0  0  0  0  0999 V2000
   41.0110   23.0720   35.2340 C   0  0  0  0  0  0  0  0  0  0  0  0
   40.0350   23.5330   36.1380 C   0  0  0  0  0  0  0  0  0  0  0  0
   39.9320   22.8910   37.3860 C   0  0  0  0  0  0  0  0  0  0  0  0
   40.7930   21.8600   37.6330 N   0  0  0  0  0  0  0  0  0  0  0  0
   41.7150   21.4480   36.7380 C   0  0  0  0  0  0  0  0  0  0  0  0
   41.8260   22.0570   35.5320 N   0  0  0  0  0  0  0  0  0  0  0  0
   41.1000   23.5590   34.2690 H   0  0  0  0  0  0  0  0  0  0  0  0
   39.3780   24.3700   35.8670 H   0  0  0  0  0  0  0  0  0  0  0  0
   42.3110   20.6070   37.1210 H   0  0  0  0  0  0  0  0  0  0  0  0
   38.9370   23.3250   38.3680 C   0  0  0  0  0  3  0  0  0  0  0  0
   38.0480   24.4680   38.1700 C   0  0  0  0  0  2  0  0  0  0  0  0
   37.4910   23.0690   37.9200 C   0  0  0  0  0  2  0  0  0  0  0  0
  1  6  2  0  0  0  0
  1  2  1  0  0  0  0
  2  3  2  0  0  0  0
  3  4  1  0  0  0  0
  3 10  1  0  0  0  0
  5  9  1  0  0  0  0
  5  4  2  0  0  0  0
  6  5  1  0  0  0  0
  7  1  1  0  0  0  0
  8  2  1  0  0  0  0
 11 10  1  0  0  0  0
 12 11  1  0  0  0  0
 12 10  1  0  0  0  0
M  END
>  <minimizedAffinity>
-2.98775339

$$$$

 OpenBabel03262520183D

 12 13  0  0  0  0  0  0  0  0999 V2000
   37.8680   22.8470   30.5430 C   0  0  0  0  0  0  0  0  0  0  0  0
   37.1840   21.7780   31.1520 C   0  0  0  0  0  0  0  0  0  0  0  0
   35.9490   22.0470   31.7700 C   0  0  0  0  0  0  0  0  0  0  0  0
   35.4980   23.3360   31.7320 N   0  0  0  0  0  0  0  0  0  0  0  0
   36.1850   24.3330   31.1370 C   0  0  0  0  0  0  0  0  0  0  0  0
   37.3770   24.0890   30.5380 N   0  0  0  0  0  0  0  0  0  0  0  0
   38.8210   22.6520   30.0630 H   0  0  0  0  0  0  0  0  0  0  0  0
   37.6120   20.7670   31.1400 H   0  0  0  0  0  0  0  0  0  0  0  0
   35.6590   25.2960   31.2130 H   0  0  0  0  0  0  0  0  0  0  0  0
   35.1920   20.9770   32.4200 C   0  0  0  0  0  3  0  0  0  0  0  0
   35.7500   19.6630   32.7320 C   0  0  0  0  0  2  0  0  0  0  0  0
   35.6550   20.6930   33.8560 C   0  0  0  0  0  2  0  0  0  0  0  0
  1  2  1  0  0  0  0
  2  3  2  0  0  0  0
  3 10  1  0  0  0  0
  4  3  1  0  0  0  0
  5  9  1  0  0  0  0
  5  4  2  0  0  0  0
  6  1  2  0  0  0  0
  6  5  1  0  0  0  0
  7  1  1  0  0  0  0
  8  2  1  0  0  0  0
 10 11  1  0  0  0  0
 10 12  1  0  0  0  0
 11 12  1  0  0  0  0
M  END
>  <minimizedAffinity>
-2.90991902

$$$$
