
 OpenBabel03272505013D

 22 24  0  0  0  0  0  0  0  0999 V2000
   38.2500   30.4780   46.9040 Cl  0  0  0  0  0  0  0  0  0  0  0  0
   38.7040   31.9410   47.7650 C   0  0  0  0  0  0  0  0  0  0  0  0
   38.2220   32.1370   49.0320 C   0  0  0  0  0  0  0  0  0  0  0  0
   38.6210   33.3120   49.6530 C   0  0  0  0  0  0  0  0  0  0  0  0
   39.4610   34.2100   48.9940 C   0  0  0  0  0  0  0  0  0  0  0  0
   39.9170   33.9670   47.7240 C   0  0  0  0  0  0  0  0  0  0  0  0
   39.5260   32.8040   47.1020 C   0  0  0  0  0  0  0  0  0  0  0  0
   38.2600   33.5050   50.6590 H   0  0  0  0  0  0  0  0  0  0  0  0
   39.7100   35.0900   49.5670 H   0  0  0  0  0  0  0  0  0  0  0  0
   40.5530   34.6940   47.2810 H   0  0  0  0  0  0  0  0  0  0  0  0
   37.8140   30.4650   50.8380 C   0  0  0  0  0  0  0  0  0  0  0  0
   37.3390   31.1970   49.7310 C   0  0  0  0  0  0  0  0  0  0  0  0
   36.0260   31.0080   49.3200 C   0  0  0  0  0  0  0  0  0  0  0  0
   35.2600   30.1230   50.0110 N   0  0  0  0  0  0  0  0  0  0  0  0
   35.7220   29.4310   51.0640 C   0  0  0  0  0  0  0  0  0  0  0  0
   37.0010   29.6030   51.4760 N   0  0  0  0  0  0  0  0  0  0  0  0
   38.8310   30.5850   51.1840 H   0  0  0  0  0  0  0  0  0  0  0  0
   35.7270   31.5890   48.4800 H   0  0  0  0  0  0  0  0  0  0  0  0
   34.9950   28.7570   51.5190 H   0  0  0  0  0  0  0  0  0  0  0  0
   40.0110   32.5220   45.7200 C   0  0  0  0  0  0  0  0  0  0  0  0
   40.1900   33.8070   44.8910 C   0  0  0  0  0  0  0  0  0  0  0  0
   39.1400   32.8100   44.5550 C   0  0  0  0  0  0  0  0  0  0  0  0
  1  2  1  0  0  0  0
  2  3  1  0  0  0  0
  3  4  2  0  0  0  0
  3 12  1  0  0  0  0
  4  8  1  0  0  0  0
  5  9  1  0  0  0  0
  5  4  1  0  0  0  0
  6  5  2  0  0  0  0
  7  6  1  0  0  0  0
  7  2  2  0  0  0  0
 10  6  1  0  0  0  0
 11 17  1  0  0  0  0
 11 16  1  0  0  0  0
 12 11  2  0  0  0  0
 13 12  1  0  0  0  0
 13 14  2  0  0  0  0
 14 15  1  0  0  0  0
 15 16  2  0  0  0  0
 15 19  1  0  0  0  0
 18 13  1  0  0  0  0
 20  7  1  0  0  0  0
 21 20  1  0  0  0  0
 22 21  1  0  0  0  0
 22 20  1  0  0  0  0
M  END
>  <minimizedAffinity>
-6.1594553

>  <minimizedRMSD>
0.194134116

$$$$
