
 OpenBabel03272508383D

 38 41  0  0  1  0  0  0  0  0999 V2000
   37.4100   26.0280   33.5930 C   0  0  0  0  0  0  0  0  0  0  0  0
   38.3450   26.1360   32.9930 H   0  0  0  0  0  0  0  0  0  0  0  0
   36.7690   25.4100   33.0110 H   0  0  0  0  0  0  0  0  0  0  0  0
   35.8470   29.2050   34.1890 C   0  0  0  0  0  0  0  0  0  0  0  0
   35.9800   29.2270   32.8360 C   0  0  0  0  0  0  0  0  0  0  0  0
   36.5800   28.0510   32.4410 C   0  0  0  0  0  0  0  0  0  0  0  0
   36.7860   27.3560   33.5700 N   0  0  0  0  0  0  0  0  0  0  0  0
   36.3420   28.0590   34.6180 N   0  0  0  0  0  0  0  0  0  0  0  0
   35.6510   30.0640   32.1940 H   0  0  0  0  0  0  0  0  0  0  0  0
   36.7360   27.9670   31.3890 H   0  0  0  0  0  0  0  0  0  0  0  0
   35.3730   32.2320   36.3910 C   0  0  0  0  0  0  0  0  0  0  0  0
   36.0160   31.2140   35.7190 C   0  0  0  0  0  0  0  0  0  0  0  0
   35.2960   30.3020   34.9670 C   0  0  0  0  0  0  0  0  0  0  0  0
   33.9480   30.5110   34.9650 N   0  0  0  0  0  0  0  0  0  0  0  0
   33.3340   31.5070   35.6240 C   0  0  0  0  0  0  0  0  0  0  0  0
   34.0580   32.3660   36.3380 N   0  0  0  0  0  0  0  0  0  0  0  0
   35.9400   32.9430   36.9780 H   0  0  0  0  0  0  0  0  0  0  0  0
   37.0890   31.0730   35.7400 H   0  0  0  0  0  0  0  0  0  0  0  0
   32.2540   31.4930   35.4880 H   0  0  0  0  0  0  0  0  0  0  0  0
   37.7920   25.6940   34.9860 C   0  0  0  0  0  0  0  0  0  0  0  0
   38.0500   26.6060   35.5500 H   0  0  0  0  0  0  0  0  0  0  0  0
   36.8130   25.3290   35.4490 H   0  0  0  0  0  0  0  0  0  0  0  0
   38.7280   24.6950   35.2160 N   0  0  0  0  0  0  0  0  0  0  0  0
   39.5520   24.3460   34.1040 C   0  0  0  0  0  0  0  0  0  0  0  0
   39.4290   22.9670   33.5820 C   0  0  0  0  0  0  0  0  0  0  0  0
   39.3810   22.0250   34.6380 O   0  0  0  0  0  0  0  0  0  0  0  0
   38.2480   22.3190   35.3920 C   0  0  0  0  0  0  0  0  0  0  0  0
   38.5010   23.6310   36.0690 C   0  0  2  0  0  0  0  0  0  0  0  0
   39.7970   25.1090   33.3960 H   0  0  0  0  0  0  0  0  0  0  0  0
   40.5520   24.3060   34.6750 H   0  0  0  0  0  0  0  0  0  0  0  0
   38.8420   22.6670   32.7780 H   0  0  0  0  0  0  0  0  0  0  0  0
   40.5010   22.7320   33.1780 H   0  0  0  0  0  0  0  0  0  0  0  0
   37.2960   22.1890   34.9060 H   0  0  0  0  0  0  0  0  0  0  0  0
   38.2730   21.5480   36.2210 H   0  0  0  0  0  0  0  0  0  0  0  0
   39.6170   23.4210   36.4500 H   0  0  0  0  0  0  0  0  0  0  0  0
   37.7920   23.7300   37.3550 C   0  0  0  0  0  3  0  0  0  0  0  0
   38.6260   23.3800   38.6390 C   0  0  0  0  0  2  0  0  0  0  0  0
   37.9500   24.6830   38.4410 C   0  0  0  0  0  2  0  0  0  0  0  0
  1 20  1  0  0  0  0
  2  1  1  0  0  0  0
  3  1  1  0  0  0  0
  4  8  2  0  0  0  0
  4 13  1  0  0  0  0
  5  4  1  0  0  0  0
  6  5  2  0  0  0  0
  6  7  1  0  0  0  0
  7  1  1  0  0  0  0
  7  8  1  0  0  0  0
  9  5  1  0  0  0  0
 10  6  1  0  0  0  0
 11 17  1  0  0  0  0
 12 18  1  0  0  0  0
 12 11  2  0  0  0  0
 13 12  1  0  0  0  0
 14 13  2  0  0  0  0
 14 15  1  0  0  0  0
 15 16  2  0  0  0  0
 16 11  1  0  0  0  0
 19 15  1  0  0  0  0
 20 23  1  0  0  0  0
 20 22  1  0  0  0  0
 20 21  1  0  0  0  0
 23 28  1  0  0  0  0
 24 30  1  0  0  0  0
 24 23  1  0  0  0  0
 25 24  1  0  0  0  0
 25 26  1  0  0  0  0
 26 27  1  0  0  0  0
 27 28  1  0  0  0  0
 27 34  1  0  0  0  0
 28 35  1  1  0  0  0
 28 36  1  0  0  0  0
 29 24  1  0  0  0  0
 31 25  1  0  0  0  0
 32 25  1  0  0  0  0
 33 27  1  0  0  0  0
 36 38  1  0  0  0  0
 36 37  1  0  0  0  0
 38 37  1  0  0  0  0
M  END
>  <minimizedAffinity>
-5.17828417

$$$$

 OpenBabel03272508383D

 38 41  0  0  1  0  0  0  0  0999 V2000
   37.4260   26.5230   33.1980 C   0  0  0  0  0  0  0  0  0  0  0  0
   36.7630   27.4090   33.0550 H   0  0  0  0  0  0  0  0  0  0  0  0
   38.3080   26.7360   32.6430 H   0  0  0  0  0  0  0  0  0  0  0  0
   36.1800   23.4600   31.7970 C   0  0  0  0  0  0  0  0  0  0  0  0
   35.4960   24.3820   31.0680 C   0  0  0  0  0  0  0  0  0  0  0  0
   35.8700   25.6370   31.4950 C   0  0  0  0  0  0  0  0  0  0  0  0
   36.7690   25.4320   32.4680 N   0  0  0  0  0  0  0  0  0  0  0  0
   36.9510   24.1180   32.6450 N   0  0  0  0  0  0  0  0  0  0  0  0
   34.7710   24.1290   30.2730 H   0  0  0  0  0  0  0  0  0  0  0  0
   35.3840   26.4390   30.9860 H   0  0  0  0  0  0  0  0  0  0  0  0
   34.9390   19.9030   31.9940 C   0  0  0  0  0  0  0  0  0  0  0  0
   35.0080   21.2590   32.2320 C   0  0  0  0  0  0  0  0  0  0  0  0
   36.0080   22.0250   31.6560 C   0  0  0  0  0  0  0  0  0  0  0  0
   36.8730   21.3240   30.8680 N   0  0  0  0  0  0  0  0  0  0  0  0
   36.7940   20.0010   30.6440 C   0  0  0  0  0  0  0  0  0  0  0  0
   35.8200   19.2960   31.2140 N   0  0  0  0  0  0  0  0  0  0  0  0
   34.1550   19.3080   32.4460 H   0  0  0  0  0  0  0  0  0  0  0  0
   34.3070   21.7890   32.8630 H   0  0  0  0  0  0  0  0  0  0  0  0
   37.5820   19.6430   29.9850 H   0  0  0  0  0  0  0  0  0  0  0  0
   37.4530   26.1950   34.6430 C   0  0  0  0  0  0  0  0  0  0  0  0
   36.7590   26.8420   35.2050 H   0  0  0  0  0  0  0  0  0  0  0  0
   36.9860   25.1530   34.6870 H   0  0  0  0  0  0  0  0  0  0  0  0
   38.6740   26.1020   35.2990 N   0  0  0  0  0  0  0  0  0  0  0  0
   39.6290   27.1150   34.9830 C   0  0  0  0  0  0  0  0  0  0  0  0
   40.8830   26.6770   34.3310 C   0  0  0  0  0  0  0  0  0  0  0  0
   41.3970   25.5110   34.9460 O   0  0  0  0  0  0  0  0  0  0  0  0
   40.4390   24.5130   34.7860 C   0  0  0  0  0  0  0  0  0  0  0  0
   39.2630   24.8960   35.6300 C   0  0  2  0  0  0  0  0  0  0  0  0
   39.2680   28.0890   34.7300 H   0  0  0  0  0  0  0  0  0  0  0  0
   39.9720   27.3270   36.0620 H   0  0  0  0  0  0  0  0  0  0  0  0
   41.0760   26.6850   33.3090 H   0  0  0  0  0  0  0  0  0  0  0  0
   41.6730   27.4480   34.7150 H   0  0  0  0  0  0  0  0  0  0  0  0
   40.2410   24.1890   33.7780 H   0  0  0  0  0  0  0  0  0  0  0  0
   40.8990   23.6180   35.3060 H   0  0  0  0  0  0  0  0  0  0  0  0
   39.8530   25.2110   36.6240 H   0  0  0  0  0  0  0  0  0  0  0  0
   38.5290   23.7160   36.1160 C   0  0  0  0  0  3  0  0  0  0  0  0
   38.8750   23.2310   37.5690 C   0  0  0  0  0  2  0  0  0  0  0  0
   37.5070   23.6060   37.1430 C   0  0  0  0  0  2  0  0  0  0  0  0
  1 20  1  0  0  0  0
  2  1  1  0  0  0  0
  3  1  1  0  0  0  0
  4  8  2  0  0  0  0
  5  6  2  0  0  0  0
  5  4  1  0  0  0  0
  6  7  1  0  0  0  0
  7  8  1  0  0  0  0
  7  1  1  0  0  0  0
  9  5  1  0  0  0  0
 10  6  1  0  0  0  0
 11 12  1  0  0  0  0
 11 17  1  0  0  0  0
 12 18  1  0  0  0  0
 13  4  1  0  0  0  0
 13 12  2  0  0  0  0
 14 13  1  0  0  0  0
 15 14  2  0  0  0  0
 15 16  1  0  0  0  0
 16 11  2  0  0  0  0
 19 15  1  0  0  0  0
 20 22  1  0  0  0  0
 20 21  1  0  0  0  0
 20 23  1  0  0  0  0
 23 28  1  0  0  0  0
 24 23  1  0  0  0  0
 24 30  1  0  0  0  0
 25 32  1  0  0  0  0
 25 26  1  0  0  0  0
 25 24  1  0  0  0  0
 27 26  1  0  0  0  0
 27 34  1  0  0  0  0
 27 28  1  0  0  0  0
 28 36  1  0  0  0  0
 28 35  1  1  0  0  0
 29 24  1  0  0  0  0
 31 25  1  0  0  0  0
 33 27  1  0  0  0  0
 36 38  1  0  0  0  0
 36 37  1  0  0  0  0
 38 37  1  0  0  0  0
M  END
>  <minimizedAffinity>
-5.1774621

$$$$

 OpenBabel03272508383D

 38 41  0  0  1  0  0  0  0  0999 V2000
   38.1740   27.1220   34.9830 C   0  0  0  0  0  0  0  0  0  0  0  0
   38.0260   27.8110   35.8470 H   0  0  0  0  0  0  0  0  0  0  0  0
   39.1760   27.2780   34.6630 H   0  0  0  0  0  0  0  0  0  0  0  0
   35.7450   28.6780   32.8430 C   0  0  0  0  0  0  0  0  0  0  0  0
   36.6260   28.1870   31.9300 C   0  0  0  0  0  0  0  0  0  0  0  0
   37.6410   27.5480   32.6070 C   0  0  0  0  0  0  0  0  0  0  0  0
   37.3390   27.6720   33.9080 N   0  0  0  0  0  0  0  0  0  0  0  0
   36.1950   28.3540   34.0420 N   0  0  0  0  0  0  0  0  0  0  0  0
   36.5120   28.3010   30.8370 H   0  0  0  0  0  0  0  0  0  0  0  0
   38.3940   27.1270   31.9790 H   0  0  0  0  0  0  0  0  0  0  0  0
   32.2640   30.1170   32.6300 C   0  0  0  0  0  0  0  0  0  0  0  0
   33.2960   29.2910   33.0220 C   0  0  0  0  0  0  0  0  0  0  0  0
   34.5680   29.4550   32.4970 C   0  0  0  0  0  0  0  0  0  0  0  0
   34.6790   30.4720   31.5960 N   0  0  0  0  0  0  0  0  0  0  0  0
   33.6650   31.2710   31.2240 C   0  0  0  0  0  0  0  0  0  0  0  0
   32.4560   31.0840   31.7480 N   0  0  0  0  0  0  0  0  0  0  0  0
   31.2720   29.9860   33.0430 H   0  0  0  0  0  0  0  0  0  0  0  0
   33.1770   28.4900   33.7400 H   0  0  0  0  0  0  0  0  0  0  0  0
   33.9700   32.0190   30.4940 H   0  0  0  0  0  0  0  0  0  0  0  0
   37.6570   25.7860   35.3640 C   0  0  0  0  0  0  0  0  0  0  0  0
   37.0760   25.8430   36.3000 H   0  0  0  0  0  0  0  0  0  0  0  0
   36.8850   25.5580   34.5520 H   0  0  0  0  0  0  0  0  0  0  0  0
   38.5240   24.7010   35.3910 N   0  0  0  0  0  0  0  0  0  0  0  0
   39.1810   24.3980   34.1610 C   0  0  0  0  0  0  0  0  0  0  0  0
   38.8810   23.0880   33.5430 C   0  0  0  0  0  0  0  0  0  0  0  0
   38.8740   22.0570   34.5130 O   0  0  0  0  0  0  0  0  0  0  0  0
   37.8650   22.3630   35.4220 C   0  0  0  0  0  0  0  0  0  0  0  0
   38.3070   23.5820   36.1720 C   0  0  2  0  0  0  0  0  0  0  0  0
   39.4070   25.2050   33.4960 H   0  0  0  0  0  0  0  0  0  0  0  0
   40.2330   24.2300   34.6000 H   0  0  0  0  0  0  0  0  0  0  0  0
   38.1810   22.9100   32.7950 H   0  0  0  0  0  0  0  0  0  0  0  0
   39.8750   22.8120   32.9920 H   0  0  0  0  0  0  0  0  0  0  0  0
   36.8550   22.3510   35.0480 H   0  0  0  0  0  0  0  0  0  0  0  0
   37.9190   21.5170   36.1730 H   0  0  0  0  0  0  0  0  0  0  0  0
   39.4370   23.2530   36.3940 H   0  0  0  0  0  0  0  0  0  0  0  0
   37.7620   23.6120   37.5390 C   0  0  0  0  0  3  0  0  0  0  0  0
   38.7800   23.3300   38.7010 C   0  0  0  0  0  2  0  0  0  0  0  0
   37.9740   24.5690   38.6110 C   0  0  0  0  0  2  0  0  0  0  0  0
  1 20  1  0  0  0  0
  1  2  1  0  0  0  0
  3  1  1  0  0  0  0
  4  8  2  0  0  0  0
  5  6  2  0  0  0  0
  5  4  1  0  0  0  0
  6  7  1  0  0  0  0
  7  8  1  0  0  0  0
  7  1  1  0  0  0  0
  9  5  1  0  0  0  0
 10  6  1  0  0  0  0
 11 12  1  0  0  0  0
 11 17  1  0  0  0  0
 12 18  1  0  0  0  0
 13  4  1  0  0  0  0
 13 12  2  0  0  0  0
 14 13  1  0  0  0  0
 15 14  2  0  0  0  0
 15 16  1  0  0  0  0
 16 11  2  0  0  0  0
 19 15  1  0  0  0  0
 20 23  1  0  0  0  0
 20 21  1  0  0  0  0
 22 20  1  0  0  0  0
 23 28  1  0  0  0  0
 24 30  1  0  0  0  0
 24 23  1  0  0  0  0
 25 24  1  0  0  0  0
 25 26  1  0  0  0  0
 26 27  1  0  0  0  0
 27 28  1  0  0  0  0
 27 34  1  0  0  0  0
 28 35  1  1  0  0  0
 28 36  1  0  0  0  0
 29 24  1  0  0  0  0
 31 25  1  0  0  0  0
 32 25  1  0  0  0  0
 33 27  1  0  0  0  0
 36 38  1  0  0  0  0
 36 37  1  0  0  0  0
 38 37  1  0  0  0  0
M  END
>  <minimizedAffinity>
-4.94092274

$$$$

 OpenBabel03272508383D

 38 41  0  0  1  0  0  0  0  0999 V2000
   34.7510   29.6070   34.0430 C   0  0  0  0  0  0  0  0  0  0  0  0
   34.9890   30.0520   33.0480 H   0  0  0  0  0  0  0  0  0  0  0  0
   33.7280   29.3210   33.9890 H   0  0  0  0  0  0  0  0  0  0  0  0
   34.1940   32.4160   36.2100 C   0  0  0  0  0  0  0  0  0  0  0  0
   35.5220   32.1960   36.4000 C   0  0  0  0  0  0  0  0  0  0  0  0
   35.8990   31.1230   35.6210 C   0  0  0  0  0  0  0  0  0  0  0  0
   34.7850   30.7320   34.9850 N   0  0  0  0  0  0  0  0  0  0  0  0
   33.7620   31.5160   35.3440 N   0  0  0  0  0  0  0  0  0  0  0  0
   36.1600   32.7970   37.0730 H   0  0  0  0  0  0  0  0  0  0  0  0
   36.9310   30.8620   35.7000 H   0  0  0  0  0  0  0  0  0  0  0  0
   31.4790   34.7120   37.4720 C   0  0  0  0  0  0  0  0  0  0  0  0
   32.0920   33.7280   36.7250 C   0  0  0  0  0  0  0  0  0  0  0  0
   33.4350   33.4420   36.9040 C   0  0  0  0  0  0  0  0  0  0  0  0
   34.0530   34.2030   37.8520 N   0  0  0  0  0  0  0  0  0  0  0  0
   33.4440   35.1590   38.5730 C   0  0  0  0  0  0  0  0  0  0  0  0
   32.1520   35.4080   38.3750 N   0  0  0  0  0  0  0  0  0  0  0  0
   30.4290   34.9320   37.3300 H   0  0  0  0  0  0  0  0  0  0  0  0
   31.5740   33.1390   35.9790 H   0  0  0  0  0  0  0  0  0  0  0  0
   34.1190   35.6460   39.2740 H   0  0  0  0  0  0  0  0  0  0  0  0
   35.8280   28.6500   34.3900 C   0  0  0  0  0  0  0  0  0  0  0  0
   36.3920   28.9980   35.2720 H   0  0  0  0  0  0  0  0  0  0  0  0
   35.2580   27.7270   34.7510 H   0  0  0  0  0  0  0  0  0  0  0  0
   36.6950   28.2090   33.3990 N   0  0  0  0  0  0  0  0  0  0  0  0
   36.2970   28.4860   32.0560 C   0  0  0  0  0  0  0  0  0  0  0  0
   36.0250   27.3230   31.1820 C   0  0  0  0  0  0  0  0  0  0  0  0
   37.0140   26.3240   31.3420 O   0  0  0  0  0  0  0  0  0  0  0  0
   36.9580   25.9060   32.6690 C   0  0  0  0  0  0  0  0  0  0  0  0
   37.4400   27.0500   33.5080 C   0  0  2  0  0  0  0  0  0  0  0  0
   35.7300   29.3730   31.8690 H   0  0  0  0  0  0  0  0  0  0  0  0
   37.3220   28.8470   31.6760 H   0  0  0  0  0  0  0  0  0  0  0  0
   35.0920   26.9070   30.9900 H   0  0  0  0  0  0  0  0  0  0  0  0
   36.3240   27.7060   30.1190 H   0  0  0  0  0  0  0  0  0  0  0  0
   36.0560   25.4080   32.9820 H   0  0  0  0  0  0  0  0  0  0  0  0
   37.7740   25.1240   32.7370 H   0  0  0  0  0  0  0  0  0  0  0  0
   38.4020   27.3510   32.8610 H   0  0  0  0  0  0  0  0  0  0  0  0
   38.0840   26.5870   34.7480 C   0  0  0  0  0  3  0  0  0  0  0  0
   39.6290   26.8420   34.8670 C   0  0  0  0  0  2  0  0  0  0  0  0
   38.6450   27.3460   35.8520 C   0  0  0  0  0  2  0  0  0  0  0  0
  1 20  1  0  0  0  0
  1  7  1  0  0  0  0
  2  1  1  0  0  0  0
  3  1  1  0  0  0  0
  4  5  1  0  0  0  0
  4 13  1  0  0  0  0
  5  9  1  0  0  0  0
  6 10  1  0  0  0  0
  6  5  2  0  0  0  0
  7  8  1  0  0  0  0
  7  6  1  0  0  0  0
  8  4  2  0  0  0  0
 11 16  1  0  0  0  0
 12 13  1  0  0  0  0
 12 11  2  0  0  0  0
 13 14  2  0  0  0  0
 14 15  1  0  0  0  0
 15 19  1  0  0  0  0
 16 15  2  0  0  0  0
 17 11  1  0  0  0  0
 18 12  1  0  0  0  0
 20 22  1  0  0  0  0
 20 21  1  0  0  0  0
 23 28  1  0  0  0  0
 23 20  1  0  0  0  0
 24 23  1  0  0  0  0
 25 26  1  0  0  0  0
 25 24  1  0  0  0  0
 26 27  1  0  0  0  0
 27 34  1  0  0  0  0
 27 33  1  0  0  0  0
 27 28  1  0  0  0  0
 28 35  1  6  0  0  0
 28 36  1  0  0  0  0
 29 24  1  0  0  0  0
 30 24  1  0  0  0  0
 31 25  1  0  0  0  0
 32 25  1  0  0  0  0
 36 37  1  0  0  0  0
 36 38  1  0  0  0  0
 37 38  1  0  0  0  0
M  END
>  <minimizedAffinity>
-4.92993498

$$$$

 OpenBabel03272508383D

 38 41  0  0  1  0  0  0  0  0999 V2000
   36.3120   28.0040   33.0590 C   0  0  0  0  0  0  0  0  0  0  0  0
   35.4550   27.3200   32.8510 H   0  0  0  0  0  0  0  0  0  0  0  0
   36.7310   28.2320   32.1090 H   0  0  0  0  0  0  0  0  0  0  0  0
   38.2720   25.7960   35.1040 C   0  0  0  0  0  0  0  0  0  0  0  0
   39.2000   26.2140   34.2020 C   0  0  0  0  0  0  0  0  0  0  0  0
   38.5910   27.0850   33.3260 C   0  0  0  0  0  0  0  0  0  0  0  0
   37.3150   27.1670   33.7300 N   0  0  0  0  0  0  0  0  0  0  0  0
   37.1300   26.3880   34.8020 N   0  0  0  0  0  0  0  0  0  0  0  0
   40.2550   25.8870   34.2030 H   0  0  0  0  0  0  0  0  0  0  0  0
   39.2350   27.4720   32.5680 H   0  0  0  0  0  0  0  0  0  0  0  0
   39.6210   22.9460   37.1760 C   0  0  0  0  0  0  0  0  0  0  0  0
   39.4350   23.7760   36.0900 C   0  0  0  0  0  0  0  0  0  0  0  0
   38.5410   24.8320   36.1570 C   0  0  0  0  0  0  0  0  0  0  0  0
   37.8980   24.9520   37.3530 N   0  0  0  0  0  0  0  0  0  0  0  0
   38.0880   24.1360   38.4030 C   0  0  0  0  0  0  0  0  0  0  0  0
   38.9550   23.1310   38.3040 N   0  0  0  0  0  0  0  0  0  0  0  0
   40.3210   22.1220   37.1190 H   0  0  0  0  0  0  0  0  0  0  0  0
   39.9600   23.6550   35.1520 H   0  0  0  0  0  0  0  0  0  0  0  0
   37.4750   24.4090   39.2600 H   0  0  0  0  0  0  0  0  0  0  0  0
   35.8470   29.0530   33.9980 C   0  0  0  0  0  0  0  0  0  0  0  0
   35.3340   28.6020   34.8650 H   0  0  0  0  0  0  0  0  0  0  0  0
   36.8190   29.4800   34.4210 H   0  0  0  0  0  0  0  0  0  0  0  0
   35.1250   30.1340   33.5110 N   0  0  0  0  0  0  0  0  0  0  0  0
   34.5610   29.9700   32.2090 C   0  0  0  0  0  0  0  0  0  0  0  0
   35.0510   30.8740   31.1450 C   0  0  0  0  0  0  0  0  0  0  0  0
   35.1510   32.2050   31.6140 O   0  0  0  0  0  0  0  0  0  0  0  0
   36.0760   32.2000   32.6550 C   0  0  0  0  0  0  0  0  0  0  0  0
   35.4530   31.4470   33.7900 C   0  0  2  0  0  0  0  0  0  0  0  0
   34.2600   28.9890   31.9090 H   0  0  0  0  0  0  0  0  0  0  0  0
   33.5230   30.4090   32.4490 H   0  0  0  0  0  0  0  0  0  0  0  0
   35.7960   30.6570   30.4540 H   0  0  0  0  0  0  0  0  0  0  0  0
   34.1230   30.9970   30.4450 H   0  0  0  0  0  0  0  0  0  0  0  0
   37.0930   31.9550   32.3980 H   0  0  0  0  0  0  0  0  0  0  0  0
   36.1020   33.2800   32.9930 H   0  0  0  0  0  0  0  0  0  0  0  0
   34.3660   31.9500   33.7600 H   0  0  0  0  0  0  0  0  0  0  0  0
   35.9360   31.9260   35.0960 C   0  0  0  0  0  3  0  0  0  0  0  0
   35.0650   33.0300   35.7970 C   0  0  0  0  0  2  0  0  0  0  0  0
   35.3880   31.7290   36.4270 C   0  0  0  0  0  2  0  0  0  0  0  0
  1  7  1  0  0  0  0
  1 20  1  0  0  0  0
  2  1  1  0  0  0  0
  3  1  1  0  0  0  0
  4 13  1  0  0  0  0
  5  9  1  0  0  0  0
  5  4  1  0  0  0  0
  6  7  1  0  0  0  0
  6  5  2  0  0  0  0
  7  8  1  0  0  0  0
  8  4  2  0  0  0  0
 10  6  1  0  0  0  0
 11 16  1  0  0  0  0
 12 13  1  0  0  0  0
 12 11  2  0  0  0  0
 13 14  2  0  0  0  0
 14 15  1  0  0  0  0
 15 19  1  0  0  0  0
 16 15  2  0  0  0  0
 17 11  1  0  0  0  0
 18 12  1  0  0  0  0
 20 22  1  0  0  0  0
 20 21  1  0  0  0  0
 23 28  1  0  0  0  0
 23 20  1  0  0  0  0
 24 30  1  0  0  0  0
 24 23  1  0  0  0  0
 25 26  1  0  0  0  0
 25 24  1  0  0  0  0
 26 27  1  0  0  0  0
 27 34  1  0  0  0  0
 27 28  1  0  0  0  0
 28 35  1  6  0  0  0
 28 36  1  0  0  0  0
 29 24  1  0  0  0  0
 31 25  1  0  0  0  0
 32 25  1  0  0  0  0
 33 27  1  0  0  0  0
 36 37  1  0  0  0  0
 36 38  1  0  0  0  0
 37 38  1  0  0  0  0
M  END
>  <minimizedAffinity>
-4.82384634

$$$$

 OpenBabel03272508383D

 38 41  0  0  1  0  0  0  0  0999 V2000
   36.2000   28.4670   33.4440 C   0  0  0  0  0  0  0  0  0  0  0  0
   35.4280   28.2090   32.6800 H   0  0  0  0  0  0  0  0  0  0  0  0
   36.9240   29.0510   32.9290 H   0  0  0  0  0  0  0  0  0  0  0  0
   37.8160   25.5690   34.8150 C   0  0  0  0  0  0  0  0  0  0  0  0
   37.8290   25.2750   33.4870 C   0  0  0  0  0  0  0  0  0  0  0  0
   37.2290   26.3120   32.8080 C   0  0  0  0  0  0  0  0  0  0  0  0
   36.8750   27.2000   33.7480 N   0  0  0  0  0  0  0  0  0  0  0  0
   37.2330   26.7450   34.9550 N   0  0  0  0  0  0  0  0  0  0  0  0
   38.2590   24.3500   33.0620 H   0  0  0  0  0  0  0  0  0  0  0  0
   37.1830   26.1790   31.7500 H   0  0  0  0  0  0  0  0  0  0  0  0
   39.7990   23.0410   36.7930 C   0  0  0  0  0  0  0  0  0  0  0  0
   39.3960   23.8120   35.7240 C   0  0  0  0  0  0  0  0  0  0  0  0
   38.3240   24.6810   35.8470 C   0  0  0  0  0  0  0  0  0  0  0  0
   37.7420   24.6890   37.0800 N   0  0  0  0  0  0  0  0  0  0  0  0
   38.1450   23.9320   38.1140 C   0  0  0  0  0  0  0  0  0  0  0  0
   39.1790   23.1070   37.9610 N   0  0  0  0  0  0  0  0  0  0  0  0
   40.6370   22.3630   36.6930 H   0  0  0  0  0  0  0  0  0  0  0  0
   39.8780   23.7840   34.7550 H   0  0  0  0  0  0  0  0  0  0  0  0
   37.5440   24.0920   39.0070 H   0  0  0  0  0  0  0  0  0  0  0  0
   35.5020   28.9510   34.6590 C   0  0  0  0  0  0  0  0  0  0  0  0
   34.7610   28.2110   35.0050 H   0  0  0  0  0  0  0  0  0  0  0  0
   36.3210   28.9430   35.4550 H   0  0  0  0  0  0  0  0  0  0  0  0
   34.9590   30.2290   34.6710 N   0  0  0  0  0  0  0  0  0  0  0  0
   35.7870   31.2520   35.2250 C   0  0  0  0  0  0  0  0  0  0  0  0
   35.2950   31.9260   36.4460 C   0  0  0  0  0  0  0  0  0  0  0  0
   33.9180   32.2330   36.3400 O   0  0  0  0  0  0  0  0  0  0  0  0
   33.2430   31.0240   36.1960 C   0  0  0  0  0  0  0  0  0  0  0  0
   33.6110   30.4740   34.8520 C   0  0  2  0  0  0  0  0  0  0  0  0
   36.8460   31.1580   35.1180 H   0  0  0  0  0  0  0  0  0  0  0  0
   35.5960   32.0440   34.4100 H   0  0  0  0  0  0  0  0  0  0  0  0
   35.5570   31.6880   37.4240 H   0  0  0  0  0  0  0  0  0  0  0  0
   35.7290   33.0080   36.3540 H   0  0  0  0  0  0  0  0  0  0  0  0
   33.2770   30.3480   37.0340 H   0  0  0  0  0  0  0  0  0  0  0  0
   32.1580   31.3340   36.1030 H   0  0  0  0  0  0  0  0  0  0  0  0
   33.4870   31.4780   34.2110 H   0  0  0  0  0  0  0  0  0  0  0  0
   32.5310   29.6550   34.2800 C   0  0  0  0  0  3  0  0  0  0  0  0
   31.6400   30.3430   33.1840 C   0  0  0  0  0  2  0  0  0  0  0  0
   32.3890   29.0870   32.9510 C   0  0  0  0  0  2  0  0  0  0  0  0
  1  7  1  0  0  0  0
  1 20  1  0  0  0  0
  2  1  1  0  0  0  0
  3  1  1  0  0  0  0
  4  8  2  0  0  0  0
  4 13  1  0  0  0  0
  5  4  1  0  0  0  0
  6  5  2  0  0  0  0
  6  7  1  0  0  0  0
  7  8  1  0  0  0  0
  9  5  1  0  0  0  0
 10  6  1  0  0  0  0
 11 16  1  0  0  0  0
 12 13  1  0  0  0  0
 12 11  2  0  0  0  0
 13 14  2  0  0  0  0
 14 15  1  0  0  0  0
 15 19  1  0  0  0  0
 16 15  2  0  0  0  0
 17 11  1  0  0  0  0
 18 12  1  0  0  0  0
 20 23  1  0  0  0  0
 20 21  1  0  0  0  0
 20 22  1  0  0  0  0
 23 28  1  0  0  0  0
 23 24  1  0  0  0  0
 24 25  1  0  0  0  0
 25 31  1  0  0  0  0
 26 25  1  0  0  0  0
 27 26  1  0  0  0  0
 27 33  1  0  0  0  0
 28 35  1  6  0  0  0
 28 27  1  0  0  0  0
 29 24  1  0  0  0  0
 30 24  1  0  0  0  0
 32 25  1  0  0  0  0
 34 27  1  0  0  0  0
 36 28  1  0  0  0  0
 37 36  1  0  0  0  0
 38 37  1  0  0  0  0
 38 36  1  0  0  0  0
M  END
>  <minimizedAffinity>
-4.81020784

$$$$

 OpenBabel03272508383D

 38 41  0  0  1  0  0  0  0  0999 V2000
   36.0180   28.2560   32.6370 C   0  0  0  0  0  0  0  0  0  0  0  0
   35.0510   27.7110   32.5240 H   0  0  0  0  0  0  0  0  0  0  0  0
   36.5680   28.0440   31.7520 H   0  0  0  0  0  0  0  0  0  0  0  0
   37.6590   25.9950   34.8940 C   0  0  0  0  0  0  0  0  0  0  0  0
   37.8010   27.1750   35.5530 C   0  0  0  0  0  0  0  0  0  0  0  0
   37.2120   28.1660   34.7990 C   0  0  0  0  0  0  0  0  0  0  0  0
   36.7310   27.5510   33.7090 N   0  0  0  0  0  0  0  0  0  0  0  0
   37.0040   26.2420   33.7740 N   0  0  0  0  0  0  0  0  0  0  0  0
   38.3100   27.2830   36.5280 H   0  0  0  0  0  0  0  0  0  0  0  0
   37.2720   29.1420   35.2280 H   0  0  0  0  0  0  0  0  0  0  0  0
   38.8370   23.1000   37.0070 C   0  0  0  0  0  0  0  0  0  0  0  0
   38.3360   24.3450   36.6890 C   0  0  0  0  0  0  0  0  0  0  0  0
   38.1980   24.7320   35.3670 C   0  0  0  0  0  0  0  0  0  0  0  0
   38.5940   23.7930   34.4600 N   0  0  0  0  0  0  0  0  0  0  0  0
   39.0820   22.5840   34.7830 C   0  0  0  0  0  0  0  0  0  0  0  0
   39.2010   22.2450   36.0650 N   0  0  0  0  0  0  0  0  0  0  0  0
   38.9430   22.8020   38.0420 H   0  0  0  0  0  0  0  0  0  0  0  0
   38.0300   25.0700   37.4330 H   0  0  0  0  0  0  0  0  0  0  0  0
   39.3370   21.9900   33.9080 H   0  0  0  0  0  0  0  0  0  0  0  0
   35.7200   29.6390   33.0790 C   0  0  0  0  0  0  0  0  0  0  0  0
   36.5400   30.0360   33.7010 H   0  0  0  0  0  0  0  0  0  0  0  0
   35.7670   30.2430   32.1100 H   0  0  0  0  0  0  0  0  0  0  0  0
   34.4880   29.9210   33.6550 N   0  0  0  0  0  0  0  0  0  0  0  0
   33.3570   29.3030   33.0400 C   0  0  0  0  0  0  0  0  0  0  0  0
   32.3500   30.1990   32.4310 C   0  0  0  0  0  0  0  0  0  0  0  0
   32.0720   31.3010   33.2750 O   0  0  0  0  0  0  0  0  0  0  0  0
   33.2630   32.0070   33.4270 C   0  0  0  0  0  0  0  0  0  0  0  0
   34.1850   31.1410   34.2290 C   0  0  2  0  0  0  0  0  0  0  0  0
   33.4900   28.3460   32.5820 H   0  0  0  0  0  0  0  0  0  0  0  0
   32.8350   28.9660   34.0090 H   0  0  0  0  0  0  0  0  0  0  0  0
   32.2950   30.4660   31.4280 H   0  0  0  0  0  0  0  0  0  0  0  0
   31.3480   29.6120   32.5630 H   0  0  0  0  0  0  0  0  0  0  0  0
   33.6650   32.4730   32.5430 H   0  0  0  0  0  0  0  0  0  0  0  0
   32.9810   32.8590   34.1160 H   0  0  0  0  0  0  0  0  0  0  0  0
   33.4110   30.7940   35.0740 H   0  0  0  0  0  0  0  0  0  0  0  0
   35.1240   31.9390   35.0340 C   0  0  0  0  0  3  0  0  0  0  0  0
   34.9140   31.8990   36.5910 C   0  0  0  0  0  2  0  0  0  0  0  0
   36.1830   31.5140   35.9330 C   0  0  0  0  0  2  0  0  0  0  0  0
  1 20  1  0  0  0  0
  1  7  1  0  0  0  0
  2  1  1  0  0  0  0
  3  1  1  0  0  0  0
  4 13  1  0  0  0  0
  4  5  1  0  0  0  0
  5  9  1  0  0  0  0
  6 10  1  0  0  0  0
  6  5  2  0  0  0  0
  7  8  1  0  0  0  0
  7  6  1  0  0  0  0
  8  4  2  0  0  0  0
 11 17  1  0  0  0  0
 12 11  1  0  0  0  0
 12 18  1  0  0  0  0
 13 12  2  0  0  0  0
 14 15  2  0  0  0  0
 14 13  1  0  0  0  0
 15 16  1  0  0  0  0
 16 11  2  0  0  0  0
 19 15  1  0  0  0  0
 20 23  1  0  0  0  0
 20 21  1  0  0  0  0
 22 20  1  0  0  0  0
 23 28  1  0  0  0  0
 24 23  1  0  0  0  0
 24 30  1  0  0  0  0
 25 32  1  0  0  0  0
 25 24  1  0  0  0  0
 25 26  1  0  0  0  0
 26 27  1  0  0  0  0
 27 34  1  0  0  0  0
 27 28  1  0  0  0  0
 28 36  1  0  0  0  0
 28 35  1  1  0  0  0
 29 24  1  0  0  0  0
 31 25  1  0  0  0  0
 33 27  1  0  0  0  0
 36 38  1  0  0  0  0
 36 37  1  0  0  0  0
 38 37  1  0  0  0  0
M  END
>  <minimizedAffinity>
-4.80913782

$$$$

 OpenBabel03272508383D

 38 41  0  0  1  0  0  0  0  0999 V2000
   38.1170   23.7560   32.2020 C   0  0  0  0  0  0  0  0  0  0  0  0
   39.1890   24.0580   32.1250 H   0  0  0  0  0  0  0  0  0  0  0  0
   37.9830   22.9950   31.4720 H   0  0  0  0  0  0  0  0  0  0  0  0
   36.8510   26.8640   30.9230 C   0  0  0  0  0  0  0  0  0  0  0  0
   35.7020   26.1530   31.0740 C   0  0  0  0  0  0  0  0  0  0  0  0
   36.0250   24.9070   31.5670 C   0  0  0  0  0  0  0  0  0  0  0  0
   37.3590   24.9080   31.6990 N   0  0  0  0  0  0  0  0  0  0  0  0
   37.8500   26.0910   31.3090 N   0  0  0  0  0  0  0  0  0  0  0  0
   34.6970   26.5420   30.8320 H   0  0  0  0  0  0  0  0  0  0  0  0
   35.1880   24.2630   31.7190 H   0  0  0  0  0  0  0  0  0  0  0  0
   37.5110   29.9110   28.7980 C   0  0  0  0  0  0  0  0  0  0  0  0
   37.5600   28.6000   29.2240 C   0  0  0  0  0  0  0  0  0  0  0  0
   36.9060   28.2100   30.3810 C   0  0  0  0  0  0  0  0  0  0  0  0
   36.2430   29.2160   31.0200 N   0  0  0  0  0  0  0  0  0  0  0  0
   36.2030   30.4890   30.5950 C   0  0  0  0  0  0  0  0  0  0  0  0
   36.8430   30.8290   29.4790 N   0  0  0  0  0  0  0  0  0  0  0  0
   38.0230   30.2120   27.8940 H   0  0  0  0  0  0  0  0  0  0  0  0
   38.0960   27.8230   28.6940 H   0  0  0  0  0  0  0  0  0  0  0  0
   35.6180   31.1300   31.2520 H   0  0  0  0  0  0  0  0  0  0  0  0
   37.7970   23.5520   33.6350 C   0  0  0  0  0  0  0  0  0  0  0  0
   36.8430   24.0410   33.8970 H   0  0  0  0  0  0  0  0  0  0  0  0
   37.5810   22.4320   33.7020 H   0  0  0  0  0  0  0  0  0  0  0  0
   38.7640   23.8210   34.5950 N   0  0  0  0  0  0  0  0  0  0  0  0
   39.6750   22.7580   34.8760 C   0  0  0  0  0  0  0  0  0  0  0  0
   39.6530   22.1980   36.2450 C   0  0  0  0  0  0  0  0  0  0  0  0
   39.5820   23.2260   37.2150 O   0  0  0  0  0  0  0  0  0  0  0  0
   38.3890   23.9100   36.9950 C   0  0  0  0  0  0  0  0  0  0  0  0
   38.5340   24.6320   35.6900 C   0  0  2  0  0  0  0  0  0  0  0  0
   39.9270   22.0860   34.0840 H   0  0  0  0  0  0  0  0  0  0  0  0
   40.6350   23.3930   34.8840 H   0  0  0  0  0  0  0  0  0  0  0  0
   39.1340   21.3500   36.5520 H   0  0  0  0  0  0  0  0  0  0  0  0
   40.7590   21.8600   36.4190 H   0  0  0  0  0  0  0  0  0  0  0  0
   37.4780   23.3590   37.1570 H   0  0  0  0  0  0  0  0  0  0  0  0
   38.3980   24.7210   37.7850 H   0  0  0  0  0  0  0  0  0  0  0  0
   39.6320   25.0820   35.8580 H   0  0  0  0  0  0  0  0  0  0  0  0
   37.7390   25.8700   35.6580 C   0  0  0  0  0  3  0  0  0  0  0  0
   38.5110   27.2020   35.9710 C   0  0  0  0  0  2  0  0  0  0  0  0
   37.7620   26.9740   34.7140 C   0  0  0  0  0  2  0  0  0  0  0  0
  1 20  1  0  0  0  0
  2  1  1  0  0  0  0
  3  1  1  0  0  0  0
  4  5  1  0  0  0  0
  4  8  2  0  0  0  0
  5  6  2  0  0  0  0
  6  7  1  0  0  0  0
  6 10  1  0  0  0  0
  7  1  1  0  0  0  0
  8  7  1  0  0  0  0
  9  5  1  0  0  0  0
 11 12  2  0  0  0  0
 11 16  1  0  0  0  0
 12 13  1  0  0  0  0
 13  4  1  0  0  0  0
 13 14  2  0  0  0  0
 15 14  1  0  0  0  0
 15 19  1  0  0  0  0
 16 15  2  0  0  0  0
 17 11  1  0  0  0  0
 18 12  1  0  0  0  0
 20 22  1  0  0  0  0
 20 21  1  0  0  0  0
 20 23  1  0  0  0  0
 23 24  1  0  0  0  0
 23 28  1  0  0  0  0
 24 30  1  0  0  0  0
 24 25  1  0  0  0  0
 25 32  1  0  0  0  0
 25 31  1  0  0  0  0
 25 26  1  0  0  0  0
 27 33  1  0  0  0  0
 27 26  1  0  0  0  0
 27 34  1  0  0  0  0
 28 35  1  1  0  0  0
 28 27  1  0  0  0  0
 29 24  1  0  0  0  0
 36 28  1  0  0  0  0
 36 37  1  0  0  0  0
 38 36  1  0  0  0  0
 38 37  1  0  0  0  0
M  END
>  <minimizedAffinity>
-4.79148293

$$$$

 OpenBabel03272508383D

 38 41  0  0  1  0  0  0  0  0999 V2000
   36.6520   26.8830   32.3410 C   0  0  0  0  0  0  0  0  0  0  0  0
   35.5650   26.6410   32.4160 H   0  0  0  0  0  0  0  0  0  0  0  0
   37.0590   26.1570   31.6800 H   0  0  0  0  0  0  0  0  0  0  0  0
   38.1190   25.4870   35.3070 C   0  0  0  0  0  0  0  0  0  0  0  0
   37.8420   26.7520   35.7200 C   0  0  0  0  0  0  0  0  0  0  0  0
   37.2630   27.4330   34.6720 C   0  0  0  0  0  0  0  0  0  0  0  0
   37.2080   26.5560   33.6590 N   0  0  0  0  0  0  0  0  0  0  0  0
   37.7260   25.3850   34.0500 N   0  0  0  0  0  0  0  0  0  0  0  0
   38.0580   27.1340   36.7340 H   0  0  0  0  0  0  0  0  0  0  0  0
   37.0080   28.4460   34.8910 H   0  0  0  0  0  0  0  0  0  0  0  0
   40.4600   22.8700   36.6890 C   0  0  0  0  0  0  0  0  0  0  0  0
   39.9130   23.7700   35.7990 C   0  0  0  0  0  0  0  0  0  0  0  0
   38.7780   24.4900   36.1330 C   0  0  0  0  0  0  0  0  0  0  0  0
   38.2860   24.2230   37.3760 N   0  0  0  0  0  0  0  0  0  0  0  0
   38.8290   23.3430   38.2340 C   0  0  0  0  0  0  0  0  0  0  0  0
   39.9200   22.6680   37.8800 N   0  0  0  0  0  0  0  0  0  0  0  0
   41.3470   22.3100   36.4230 H   0  0  0  0  0  0  0  0  0  0  0  0
   40.3260   23.9610   34.8170 H   0  0  0  0  0  0  0  0  0  0  0  0
   38.2800   23.2820   39.1720 H   0  0  0  0  0  0  0  0  0  0  0  0
   36.7860   28.3400   32.1050 C   0  0  0  0  0  0  0  0  0  0  0  0
   36.3790   28.9130   32.9560 H   0  0  0  0  0  0  0  0  0  0  0  0
   37.9140   28.5130   32.1460 H   0  0  0  0  0  0  0  0  0  0  0  0
   36.3530   28.8790   30.9010 N   0  0  0  0  0  0  0  0  0  0  0  0
   37.0440   28.4310   29.7340 C   0  0  0  0  0  0  0  0  0  0  0  0
   37.7980   29.4470   28.9680 C   0  0  0  0  0  0  0  0  0  0  0  0
   37.0480   30.6390   28.8250 O   0  0  0  0  0  0  0  0  0  0  0  0
   36.8170   31.1290   30.1080 C   0  0  0  0  0  0  0  0  0  0  0  0
   35.8800   30.1720   30.7790 C   0  0  2  0  0  0  0  0  0  0  0  0
   37.4320   27.4350   29.7280 H   0  0  0  0  0  0  0  0  0  0  0  0
   36.1140   28.2640   29.0750 H   0  0  0  0  0  0  0  0  0  0  0  0
   38.8150   29.6470   29.0530 H   0  0  0  0  0  0  0  0  0  0  0  0
   37.7360   29.0600   27.8670 H   0  0  0  0  0  0  0  0  0  0  0  0
   37.6800   31.4500   30.6670 H   0  0  0  0  0  0  0  0  0  0  0  0
   36.2060   32.0650   29.9290 H   0  0  0  0  0  0  0  0  0  0  0  0
   35.0980   30.0310   29.8830 H   0  0  0  0  0  0  0  0  0  0  0  0
   35.0290   30.8450   31.7740 C   0  0  0  0  0  3  0  0  0  0  0  0
   33.5670   31.1930   31.3190 C   0  0  0  0  0  2  0  0  0  0  0  0
   33.8700   30.3550   32.5010 C   0  0  0  0  0  2  0  0  0  0  0  0
  1  2  1  0  0  0  0
  1  7  1  0  0  0  0
  3  1  1  0  0  0  0
  4  5  1  0  0  0  0
  4 13  1  0  0  0  0
  5  9  1  0  0  0  0
  6 10  1  0  0  0  0
  6  5  2  0  0  0  0
  7  8  1  0  0  0  0
  7  6  1  0  0  0  0
  8  4  2  0  0  0  0
 11 16  1  0  0  0  0
 12 13  1  0  0  0  0
 12 11  2  0  0  0  0
 13 14  2  0  0  0  0
 14 15  1  0  0  0  0
 15 19  1  0  0  0  0
 16 15  2  0  0  0  0
 17 11  1  0  0  0  0
 18 12  1  0  0  0  0
 20 22  1  0  0  0  0
 20  1  1  0  0  0  0
 20 21  1  0  0  0  0
 23 20  1  0  0  0  0
 24 23  1  0  0  0  0
 25 31  1  0  0  0  0
 25 24  1  0  0  0  0
 26 25  1  0  0  0  0
 26 27  1  0  0  0  0
 27 33  1  0  0  0  0
 27 28  1  0  0  0  0
 28 35  1  6  0  0  0
 28 23  1  0  0  0  0
 28 36  1  0  0  0  0
 29 24  1  0  0  0  0
 30 24  1  0  0  0  0
 32 25  1  0  0  0  0
 34 27  1  0  0  0  0
 36 38  1  0  0  0  0
 37 36  1  0  0  0  0
 37 38  1  0  0  0  0
M  END
>  <minimizedAffinity>
-4.76171064

$$$$
