
 OpenBabel03272505393D

 25 27  0  0  0  0  0  0  0  0999 V2000
   37.5700   23.2390   33.3510 C   0  0  0  0  0  0  0  0  0  0  0  0
   37.5420   24.4670   32.7070 C   0  0  0  0  0  0  0  0  0  0  0  0
   36.7180   24.6820   31.6260 C   0  0  0  0  0  0  0  0  0  0  0  0
   35.8800   23.6900   31.1280 C   0  0  0  0  0  0  0  0  0  0  0  0
   35.8990   22.4700   31.7540 C   0  0  0  0  0  0  0  0  0  0  0  0
   36.7380   22.2770   32.8410 C   0  0  0  0  0  0  0  0  0  0  0  0
   38.1930   25.2560   33.0860 H   0  0  0  0  0  0  0  0  0  0  0  0
   36.7610   25.6720   31.1850 H   0  0  0  0  0  0  0  0  0  0  0  0
   35.2800   23.9880   30.2690 H   0  0  0  0  0  0  0  0  0  0  0  0
   35.2340   21.7440   31.3280 H   0  0  0  0  0  0  0  0  0  0  0  0
   38.8310   23.1960   36.7810 C   0  0  0  0  0  0  0  0  0  0  0  0
   40.0810   22.5950   36.6440 C   0  0  0  0  0  0  0  0  0  0  0  0
   40.4820   22.2060   35.3610 C   0  0  0  0  0  0  0  0  0  0  0  0
   39.6110   22.4450   34.3480 N   0  0  0  0  0  0  0  0  0  0  0  0
   38.4190   23.0210   34.4970 C   0  0  0  0  0  0  0  0  0  0  0  0
   38.0380   23.3940   35.7240 N   0  0  0  0  0  0  0  0  0  0  0  0
   40.7600   22.4130   37.4720 H   0  0  0  0  0  0  0  0  0  0  0  0
   41.4530   21.7300   35.1990 H   0  0  0  0  0  0  0  0  0  0  0  0
   38.3980   23.6160   38.1650 C   0  0  0  0  0  0  0  0  0  0  0  0
   37.2930   22.8820   38.5560 F   0  0  0  0  0  0  0  0  0  0  0  0
   39.4570   23.4530   38.9960 F   0  0  0  0  0  0  0  0  0  0  0  0
   37.9930   24.9390   38.0960 F   0  0  0  0  0  0  0  0  0  0  0  0
   36.6520   20.8780   33.3580 C   0  0  0  0  0  3  0  0  0  0  0  0
   35.6480   20.6230   34.4630 C   0  0  0  0  0  2  0  0  0  0  0  0
   35.4460   20.0620   33.0710 C   0  0  0  0  0  2  0  0  0  0  0  0
  1 15  1  0  0  0  0
  2  7  1  0  0  0  0
  2  1  2  0  0  0  0
  3  2  1  0  0  0  0
  4  3  2  0  0  0  0
  4  5  1  0  0  0  0
  5  6  2  0  0  0  0
  6  1  1  0  0  0  0
  6 23  1  0  0  0  0
  8  3  1  0  0  0  0
  9  4  1  0  0  0  0
 10  5  1  0  0  0  0
 11 19  1  0  0  0  0
 12 11  1  0  0  0  0
 12 17  1  0  0  0  0
 13 12  2  0  0  0  0
 14 15  2  0  0  0  0
 14 13  1  0  0  0  0
 15 16  1  0  0  0  0
 16 11  2  0  0  0  0
 18 13  1  0  0  0  0
 19 20  1  0  0  0  0
 19 21  1  0  0  0  0
 22 19  1  0  0  0  0
 23 24  1  0  0  0  0
 25 23  1  0  0  0  0
 25 24  1  0  0  0  0
M  END
>  <minimizedAffinity>
-5.59059572

$$$$

 OpenBabel03272505393D

 25 27  0  0  0  0  0  0  0  0999 V2000
   36.9380   21.6770   33.7090 C   0  0  0  0  0  0  0  0  0  0  0  0
   36.1930   20.5270   33.9190 C   0  0  0  0  0  0  0  0  0  0  0  0
   35.2190   20.1400   33.0280 C   0  0  0  0  0  0  0  0  0  0  0  0
   34.9330   20.8740   31.8820 C   0  0  0  0  0  0  0  0  0  0  0  0
   35.6610   22.0150   31.6620 C   0  0  0  0  0  0  0  0  0  0  0  0
   36.6370   22.3850   32.5740 C   0  0  0  0  0  0  0  0  0  0  0  0
   36.4050   19.9390   34.8140 H   0  0  0  0  0  0  0  0  0  0  0  0
   34.6860   19.2270   33.2720 H   0  0  0  0  0  0  0  0  0  0  0  0
   34.1400   20.4600   31.2610 H   0  0  0  0  0  0  0  0  0  0  0  0
   35.3990   22.5410   30.7640 H   0  0  0  0  0  0  0  0  0  0  0  0
   38.6380   22.9670   36.6750 C   0  0  0  0  0  0  0  0  0  0  0  0
   39.9850   22.8190   36.3490 C   0  0  0  0  0  0  0  0  0  0  0  0
   40.2990   22.2700   35.1010 C   0  0  0  0  0  0  0  0  0  0  0  0
   39.2560   21.9220   34.3050 N   0  0  0  0  0  0  0  0  0  0  0  0
   37.9730   22.0710   34.6330 C   0  0  0  0  0  0  0  0  0  0  0  0
   37.6750   22.5970   35.8270 N   0  0  0  0  0  0  0  0  0  0  0  0
   40.8020   23.1040   37.0050 H   0  0  0  0  0  0  0  0  0  0  0  0
   41.3400   22.1320   34.7960 H   0  0  0  0  0  0  0  0  0  0  0  0
   38.3000   23.5580   38.0230 C   0  0  0  0  0  0  0  0  0  0  0  0
   38.0440   24.9110   37.8920 F   0  0  0  0  0  0  0  0  0  0  0  0
   37.2450   22.8700   38.5240 F   0  0  0  0  0  0  0  0  0  0  0  0
   39.4230   23.4420   38.8270 F   0  0  0  0  0  0  0  0  0  0  0  0
   37.2880   23.6730   32.1880 C   0  0  0  0  0  3  0  0  0  0  0  0
   38.4330   23.5860   31.2010 C   0  0  0  0  0  2  0  0  0  0  0  0
   37.1060   24.2050   30.8150 C   0  0  0  0  0  2  0  0  0  0  0  0
  1  2  1  0  0  0  0
  1 15  1  0  0  0  0
  2  7  1  0  0  0  0
  3  8  1  0  0  0  0
  3  2  2  0  0  0  0
  4  3  1  0  0  0  0
  5  4  2  0  0  0  0
  5  6  1  0  0  0  0
  6  1  2  0  0  0  0
  9  4  1  0  0  0  0
 10  5  1  0  0  0  0
 11 19  1  0  0  0  0
 12 11  1  0  0  0  0
 12 17  1  0  0  0  0
 13 12  2  0  0  0  0
 14 15  2  0  0  0  0
 14 13  1  0  0  0  0
 15 16  1  0  0  0  0
 16 11  2  0  0  0  0
 18 13  1  0  0  0  0
 19 21  1  0  0  0  0
 19 22  1  0  0  0  0
 20 19  1  0  0  0  0
 23  6  1  0  0  0  0
 24 23  1  0  0  0  0
 25 24  1  0  0  0  0
 25 23  1  0  0  0  0
M  END
>  <minimizedAffinity>
-5.41170025

$$$$

 OpenBabel03272505393D

 25 27  0  0  0  0  0  0  0  0999 V2000
   37.5020   26.1960   33.9920 C   0  0  0  0  0  0  0  0  0  0  0  0
   37.1290   27.4410   34.4750 C   0  0  0  0  0  0  0  0  0  0  0  0
   36.3700   28.3000   33.7130 C   0  0  0  0  0  0  0  0  0  0  0  0
   35.9430   27.9690   32.4320 C   0  0  0  0  0  0  0  0  0  0  0  0
   36.3060   26.7410   31.9400 C   0  0  0  0  0  0  0  0  0  0  0  0
   37.0700   25.8930   32.7270 C   0  0  0  0  0  0  0  0  0  0  0  0
   37.4560   27.7170   35.4790 H   0  0  0  0  0  0  0  0  0  0  0  0
   36.1250   29.2520   34.1710 H   0  0  0  0  0  0  0  0  0  0  0  0
   35.3510   28.7350   31.9350 H   0  0  0  0  0  0  0  0  0  0  0  0
   35.9490   26.5380   30.9490 H   0  0  0  0  0  0  0  0  0  0  0  0
   38.6300   24.1320   36.7880 C   0  0  0  0  0  0  0  0  0  0  0  0
   39.8050   23.5650   36.3000 C   0  0  0  0  0  0  0  0  0  0  0  0
   40.2020   23.8990   35.0010 C   0  0  0  0  0  0  0  0  0  0  0  0
   39.4000   24.7540   34.3170 N   0  0  0  0  0  0  0  0  0  0  0  0
   38.2790   25.2880   34.7990 C   0  0  0  0  0  0  0  0  0  0  0  0
   37.9020   24.9680   36.0430 N   0  0  0  0  0  0  0  0  0  0  0  0
   40.4290   22.8800   36.8680 H   0  0  0  0  0  0  0  0  0  0  0  0
   41.1160   23.4810   34.5700 H   0  0  0  0  0  0  0  0  0  0  0  0
   38.2020   23.7710   38.1910 C   0  0  0  0  0  0  0  0  0  0  0  0
   37.8290   24.9120   38.8770 F   0  0  0  0  0  0  0  0  0  0  0  0
   37.1990   22.8630   38.0960 F   0  0  0  0  0  0  0  0  0  0  0  0
   39.3070   23.2540   38.8470 F   0  0  0  0  0  0  0  0  0  0  0  0
   37.4020   24.6270   32.0050 C   0  0  0  0  0  3  0  0  0  0  0  0
   36.4040   23.4940   32.1290 C   0  0  0  0  0  2  0  0  0  0  0  0
   36.6040   24.2270   30.8200 C   0  0  0  0  0  2  0  0  0  0  0  0
  1  2  1  0  0  0  0
  1 15  1  0  0  0  0
  2  7  1  0  0  0  0
  3  8  1  0  0  0  0
  3  2  2  0  0  0  0
  4  3  1  0  0  0  0
  5  4  2  0  0  0  0
  5  6  1  0  0  0  0
  6  1  2  0  0  0  0
  9  4  1  0  0  0  0
 10  5  1  0  0  0  0
 11 19  1  0  0  0  0
 12 11  1  0  0  0  0
 12 17  1  0  0  0  0
 13 12  2  0  0  0  0
 14 15  2  0  0  0  0
 14 13  1  0  0  0  0
 15 16  1  0  0  0  0
 16 11  2  0  0  0  0
 18 13  1  0  0  0  0
 19 22  1  0  0  0  0
 19 20  1  0  0  0  0
 21 19  1  0  0  0  0
 23 24  1  0  0  0  0
 23  6  1  0  0  0  0
 25 23  1  0  0  0  0
 25 24  1  0  0  0  0
M  END
>  <minimizedAffinity>
-5.38642359

$$$$

 OpenBabel03272505393D

 25 27  0  0  0  0  0  0  0  0999 V2000
   38.3870   24.8510   34.3510 C   0  0  0  0  0  0  0  0  0  0  0  0
   38.7340   25.9890   33.6390 C   0  0  0  0  0  0  0  0  0  0  0  0
   38.8820   27.2020   34.2700 C   0  0  0  0  0  0  0  0  0  0  0  0
   38.6930   27.3500   35.6400 C   0  0  0  0  0  0  0  0  0  0  0  0
   38.3490   26.2320   36.3570 C   0  0  0  0  0  0  0  0  0  0  0  0
   38.2050   25.0210   35.6980 C   0  0  0  0  0  0  0  0  0  0  0  0
   38.8850   25.8910   32.5630 H   0  0  0  0  0  0  0  0  0  0  0  0
   39.1540   28.0390   33.6360 H   0  0  0  0  0  0  0  0  0  0  0  0
   38.8400   28.3610   36.0150 H   0  0  0  0  0  0  0  0  0  0  0  0
   38.2160   26.4040   37.4080 H   0  0  0  0  0  0  0  0  0  0  0  0
   37.0200   22.0690   32.4140 C   0  0  0  0  0  0  0  0  0  0  0  0
   38.0430   21.1240   32.4660 C   0  0  0  0  0  0  0  0  0  0  0  0
   39.2040   21.4550   33.1720 C   0  0  0  0  0  0  0  0  0  0  0  0
   39.2400   22.6820   33.7510 N   0  0  0  0  0  0  0  0  0  0  0  0
   38.2520   23.5740   33.6910 C   0  0  0  0  0  0  0  0  0  0  0  0
   37.1420   23.2550   33.0160 N   0  0  0  0  0  0  0  0  0  0  0  0
   37.9900   20.1480   31.9930 H   0  0  0  0  0  0  0  0  0  0  0  0
   40.0360   20.7490   33.2440 H   0  0  0  0  0  0  0  0  0  0  0  0
   35.7670   21.7120   31.6510 C   0  0  0  0  0  0  0  0  0  0  0  0
   36.0040   20.6120   30.8470 F   0  0  0  0  0  0  0  0  0  0  0  0
   34.7790   21.4980   32.5550 F   0  0  0  0  0  0  0  0  0  0  0  0
   35.4740   22.7680   30.8040 F   0  0  0  0  0  0  0  0  0  0  0  0
   37.7850   23.9350   36.6350 C   0  0  0  0  0  3  0  0  0  0  0  0
   38.8890   23.2200   37.3860 C   0  0  0  0  0  2  0  0  0  0  0  0
   37.9170   24.1360   38.0990 C   0  0  0  0  0  2  0  0  0  0  0  0
  1  6  1  0  0  0  0
  2  3  1  0  0  0  0
  2  1  2  0  0  0  0
  3  4  2  0  0  0  0
  4  9  1  0  0  0  0
  4  5  1  0  0  0  0
  5 10  1  0  0  0  0
  6  5  2  0  0  0  0
  6 23  1  0  0  0  0
  7  2  1  0  0  0  0
  8  3  1  0  0  0  0
 11 12  2  0  0  0  0
 11 16  1  0  0  0  0
 12 13  1  0  0  0  0
 13 18  1  0  0  0  0
 13 14  2  0  0  0  0
 15 14  1  0  0  0  0
 15  1  1  0  0  0  0
 16 15  2  0  0  0  0
 17 12  1  0  0  0  0
 19 11  1  0  0  0  0
 19 21  1  0  0  0  0
 20 19  1  0  0  0  0
 22 19  1  0  0  0  0
 23 24  1  0  0  0  0
 23 25  1  0  0  0  0
 24 25  1  0  0  0  0
M  END
>  <minimizedAffinity>
-5.22281551

$$$$

 OpenBabel03272505393D

 25 27  0  0  0  0  0  0  0  0999 V2000
   37.4050   23.9800   33.1000 C   0  0  0  0  0  0  0  0  0  0  0  0
   36.8280   22.9000   32.4500 C   0  0  0  0  0  0  0  0  0  0  0  0
   35.9450   23.0870   31.4120 C   0  0  0  0  0  0  0  0  0  0  0  0
   35.5890   24.3540   30.9640 C   0  0  0  0  0  0  0  0  0  0  0  0
   36.1530   25.4320   31.5980 C   0  0  0  0  0  0  0  0  0  0  0  0
   37.0390   25.2190   32.6420 C   0  0  0  0  0  0  0  0  0  0  0  0
   37.0960   21.8990   32.7900 H   0  0  0  0  0  0  0  0  0  0  0  0
   35.5420   22.1860   30.9620 H   0  0  0  0  0  0  0  0  0  0  0  0
   34.8820   24.3650   30.1360 H   0  0  0  0  0  0  0  0  0  0  0  0
   35.8430   26.3840   31.2120 H   0  0  0  0  0  0  0  0  0  0  0  0
   38.8360   23.6490   36.4470 C   0  0  0  0  0  0  0  0  0  0  0  0
   40.1850   23.4170   36.1850 C   0  0  0  0  0  0  0  0  0  0  0  0
   40.5940   23.3740   34.8480 C   0  0  0  0  0  0  0  0  0  0  0  0
   39.6330   23.5610   33.9080 N   0  0  0  0  0  0  0  0  0  0  0  0
   38.3470   23.7830   34.1760 C   0  0  0  0  0  0  0  0  0  0  0  0
   37.9580   23.8250   35.4550 N   0  0  0  0  0  0  0  0  0  0  0  0
   40.9350   23.2680   36.9560 H   0  0  0  0  0  0  0  0  0  0  0  0
   41.6400   23.1940   34.5880 H   0  0  0  0  0  0  0  0  0  0  0  0
   38.3950   23.6950   37.8900 C   0  0  0  0  0  0  0  0  0  0  0  0
   38.0980   24.9970   38.2500 F   0  0  0  0  0  0  0  0  0  0  0  0
   37.3380   22.8580   38.0260 F   0  0  0  0  0  0  0  0  0  0  0  0
   39.4710   23.3020   38.6700 F   0  0  0  0  0  0  0  0  0  0  0  0
   37.5090   26.5080   33.2330 C   0  0  0  0  0  3  0  0  0  0  0  0
   38.7660   27.1090   32.6390 C   0  0  0  0  0  2  0  0  0  0  0  0
   37.4120   27.7580   32.4400 C   0  0  0  0  0  2  0  0  0  0  0  0
  1 15  1  0  0  0  0
  2  7  1  0  0  0  0
  2  1  2  0  0  0  0
  3  2  1  0  0  0  0
  4  3  2  0  0  0  0
  4  5  1  0  0  0  0
  5  6  2  0  0  0  0
  6  1  1  0  0  0  0
  6 23  1  0  0  0  0
  8  3  1  0  0  0  0
  9  4  1  0  0  0  0
 10  5  1  0  0  0  0
 11 19  1  0  0  0  0
 12 11  1  0  0  0  0
 12 17  1  0  0  0  0
 13 12  2  0  0  0  0
 14 15  2  0  0  0  0
 14 13  1  0  0  0  0
 15 16  1  0  0  0  0
 16 11  2  0  0  0  0
 18 13  1  0  0  0  0
 19 21  1  0  0  0  0
 19 20  1  0  0  0  0
 19 22  1  0  0  0  0
 24 23  1  0  0  0  0
 25 24  1  0  0  0  0
 25 23  1  0  0  0  0
M  END
>  <minimizedAffinity>
-5.22014666

$$$$

 OpenBabel03272505393D

 25 27  0  0  0  0  0  0  0  0999 V2000
   38.5670   25.2950   33.8440 C   0  0  0  0  0  0  0  0  0  0  0  0
   37.3960   25.1720   33.1120 C   0  0  0  0  0  0  0  0  0  0  0  0
   37.0790   26.0750   32.1240 C   0  0  0  0  0  0  0  0  0  0  0  0
   37.9080   27.1470   31.8110 C   0  0  0  0  0  0  0  0  0  0  0  0
   39.0690   27.2820   32.5280 C   0  0  0  0  0  0  0  0  0  0  0  0
   39.3670   26.3590   33.5190 C   0  0  0  0  0  0  0  0  0  0  0  0
   36.7350   24.3360   33.3450 H   0  0  0  0  0  0  0  0  0  0  0  0
   36.1440   25.9020   31.6030 H   0  0  0  0  0  0  0  0  0  0  0  0
   37.5420   27.7890   31.0110 H   0  0  0  0  0  0  0  0  0  0  0  0
   39.6690   28.1250   32.2440 H   0  0  0  0  0  0  0  0  0  0  0  0
   38.8230   23.6020   37.0730 C   0  0  0  0  0  0  0  0  0  0  0  0
   39.6010   22.4840   36.7760 C   0  0  0  0  0  0  0  0  0  0  0  0
   40.0330   22.3200   35.4550 C   0  0  0  0  0  0  0  0  0  0  0  0
   39.6530   23.2710   34.5640 N   0  0  0  0  0  0  0  0  0  0  0  0
   38.9090   24.3340   34.8660 C   0  0  0  0  0  0  0  0  0  0  0  0
   38.4970   24.4900   36.1300 N   0  0  0  0  0  0  0  0  0  0  0  0
   39.8900   21.7350   37.5070 H   0  0  0  0  0  0  0  0  0  0  0  0
   40.6440   21.4610   35.1690 H   0  0  0  0  0  0  0  0  0  0  0  0
   38.3570   23.7780   38.4980 C   0  0  0  0  0  0  0  0  0  0  0  0
   37.3130   22.9090   38.7620 F   0  0  0  0  0  0  0  0  0  0  0  0
   39.4240   23.5780   39.3100 F   0  0  0  0  0  0  0  0  0  0  0  0
   37.8480   25.0610   38.6190 F   0  0  0  0  0  0  0  0  0  0  0  0
   40.6440   26.6970   34.2160 C   0  0  0  0  0  3  0  0  0  0  0  0
   41.8880   25.9740   33.7420 C   0  0  0  0  0  2  0  0  0  0  0  0
   41.6960   27.4550   33.4940 C   0  0  0  0  0  2  0  0  0  0  0  0
  1 15  1  0  0  0  0
  2  7  1  0  0  0  0
  2  1  2  0  0  0  0
  3  2  1  0  0  0  0
  4  3  2  0  0  0  0
  4  5  1  0  0  0  0
  5  6  2  0  0  0  0
  6  1  1  0  0  0  0
  6 23  1  0  0  0  0
  8  3  1  0  0  0  0
  9  4  1  0  0  0  0
 10  5  1  0  0  0  0
 11 19  1  0  0  0  0
 12 11  1  0  0  0  0
 12 17  1  0  0  0  0
 13 12  2  0  0  0  0
 14 15  2  0  0  0  0
 14 13  1  0  0  0  0
 15 16  1  0  0  0  0
 16 11  2  0  0  0  0
 18 13  1  0  0  0  0
 19 22  1  0  0  0  0
 19 20  1  0  0  0  0
 19 21  1  0  0  0  0
 24 23  1  0  0  0  0
 25 24  1  0  0  0  0
 25 23  1  0  0  0  0
M  END
>  <minimizedAffinity>
-5.14837885

$$$$

 OpenBabel03272505393D

 25 27  0  0  0  0  0  0  0  0999 V2000
   36.5990   27.1680   32.6040 C   0  0  0  0  0  0  0  0  0  0  0  0
   35.6770   28.0340   32.0360 C   0  0  0  0  0  0  0  0  0  0  0  0
   35.1820   29.1060   32.7420 C   0  0  0  0  0  0  0  0  0  0  0  0
   35.5770   29.3750   34.0480 C   0  0  0  0  0  0  0  0  0  0  0  0
   36.4880   28.5260   34.6230 C   0  0  0  0  0  0  0  0  0  0  0  0
   36.9720   27.4530   33.8920 C   0  0  0  0  0  0  0  0  0  0  0  0
   35.3570   27.8360   31.0120 H   0  0  0  0  0  0  0  0  0  0  0  0
   34.4660   29.7300   32.2190 H   0  0  0  0  0  0  0  0  0  0  0  0
   35.1110   30.2520   34.4940 H   0  0  0  0  0  0  0  0  0  0  0  0
   36.7560   28.7820   35.6300 H   0  0  0  0  0  0  0  0  0  0  0  0
   37.0750   23.8150   31.2310 C   0  0  0  0  0  0  0  0  0  0  0  0
   38.2000   23.9690   30.4220 C   0  0  0  0  0  0  0  0  0  0  0  0
   38.7890   25.2360   30.3540 C   0  0  0  0  0  0  0  0  0  0  0  0
   38.2090   26.2200   31.0870 N   0  0  0  0  0  0  0  0  0  0  0  0
   37.1330   26.0560   31.8560 C   0  0  0  0  0  0  0  0  0  0  0  0
   36.5720   24.8430   31.9200 N   0  0  0  0  0  0  0  0  0  0  0  0
   38.6440   23.1640   29.8440 H   0  0  0  0  0  0  0  0  0  0  0  0
   39.6720   25.4100   29.7340 H   0  0  0  0  0  0  0  0  0  0  0  0
   36.4410   22.4470   31.3040 C   0  0  0  0  0  0  0  0  0  0  0  0
   35.2130   22.4640   30.6670 F   0  0  0  0  0  0  0  0  0  0  0  0
   37.3060   21.5600   30.7530 F   0  0  0  0  0  0  0  0  0  0  0  0
   36.1930   22.1680   32.6380 F   0  0  0  0  0  0  0  0  0  0  0  0
   37.9150   26.6210   34.6990 C   0  0  0  0  0  3  0  0  0  0  0  0
   39.3800   26.9980   34.6320 C   0  0  0  0  0  2  0  0  0  0  0  0
   38.5710   27.2070   35.8950 C   0  0  0  0  0  2  0  0  0  0  0  0
  1  6  1  0  0  0  0
  2  1  2  0  0  0  0
  2  3  1  0  0  0  0
  3  4  2  0  0  0  0
  4  9  1  0  0  0  0
  4  5  1  0  0  0  0
  5 10  1  0  0  0  0
  6  5  2  0  0  0  0
  6 23  1  0  0  0  0
  7  2  1  0  0  0  0
  8  3  1  0  0  0  0
 11 19  1  0  0  0  0
 11 16  1  0  0  0  0
 12 11  2  0  0  0  0
 13 12  1  0  0  0  0
 13 14  2  0  0  0  0
 14 15  1  0  0  0  0
 15 16  2  0  0  0  0
 15  1  1  0  0  0  0
 17 12  1  0  0  0  0
 18 13  1  0  0  0  0
 19 22  1  0  0  0  0
 20 19  1  0  0  0  0
 21 19  1  0  0  0  0
 23 25  1  0  0  0  0
 24 23  1  0  0  0  0
 24 25  1  0  0  0  0
M  END
>  <minimizedAffinity>
-5.13450098

$$$$

 OpenBabel03272505393D

 25 27  0  0  0  0  0  0  0  0999 V2000
   38.8840   26.1980   32.5130 C   0  0  0  0  0  0  0  0  0  0  0  0
   39.9890   26.3050   31.6820 C   0  0  0  0  0  0  0  0  0  0  0  0
   41.1770   26.8210   32.1460 C   0  0  0  0  0  0  0  0  0  0  0  0
   41.3310   27.2570   33.4570 C   0  0  0  0  0  0  0  0  0  0  0  0
   40.2450   27.1580   34.2900 C   0  0  0  0  0  0  0  0  0  0  0  0
   39.0590   26.6350   33.8000 C   0  0  0  0  0  0  0  0  0  0  0  0
   39.8850   25.9670   30.6510 H   0  0  0  0  0  0  0  0  0  0  0  0
   41.9880   26.8670   31.4270 H   0  0  0  0  0  0  0  0  0  0  0  0
   42.3200   27.6440   33.6970 H   0  0  0  0  0  0  0  0  0  0  0  0
   40.4210   27.5090   35.2890 H   0  0  0  0  0  0  0  0  0  0  0  0
   36.2950   23.8020   31.5570 C   0  0  0  0  0  0  0  0  0  0  0  0
   35.2700   24.6230   31.0920 C   0  0  0  0  0  0  0  0  0  0  0  0
   35.4790   26.0060   31.1130 C   0  0  0  0  0  0  0  0  0  0  0  0
   36.6740   26.4370   31.5910 N   0  0  0  0  0  0  0  0  0  0  0  0
   37.6440   25.6380   32.0320 C   0  0  0  0  0  0  0  0  0  0  0  0
   37.4420   24.3150   32.0100 N   0  0  0  0  0  0  0  0  0  0  0  0
   34.3210   24.2530   30.7140 H   0  0  0  0  0  0  0  0  0  0  0  0
   34.7070   26.6950   30.7600 H   0  0  0  0  0  0  0  0  0  0  0  0
   36.0690   22.3090   31.5340 C   0  0  0  0  0  0  0  0  0  0  0  0
   35.1300   21.9910   30.5690 F   0  0  0  0  0  0  0  0  0  0  0  0
   37.2670   21.7120   31.3180 F   0  0  0  0  0  0  0  0  0  0  0  0
   35.5230   21.9480   32.7550 F   0  0  0  0  0  0  0  0  0  0  0  0
   37.9840   26.6500   34.8380 C   0  0  0  0  0  3  0  0  0  0  0  0
   37.9810   25.5050   35.8290 C   0  0  0  0  0  2  0  0  0  0  0  0
   38.3360   26.9140   36.2550 C   0  0  0  0  0  2  0  0  0  0  0  0
  1  6  1  0  0  0  0
  2  3  1  0  0  0  0
  2  1  2  0  0  0  0
  3  4  2  0  0  0  0
  4  9  1  0  0  0  0
  4  5  1  0  0  0  0
  5 10  1  0  0  0  0
  6  5  2  0  0  0  0
  6 23  1  0  0  0  0
  7  2  1  0  0  0  0
  8  3  1  0  0  0  0
 11 16  1  0  0  0  0
 12 13  1  0  0  0  0
 12 11  2  0  0  0  0
 13 14  2  0  0  0  0
 14 15  1  0  0  0  0
 15  1  1  0  0  0  0
 16 15  2  0  0  0  0
 17 12  1  0  0  0  0
 18 13  1  0  0  0  0
 19 11  1  0  0  0  0
 19 22  1  0  0  0  0
 20 19  1  0  0  0  0
 21 19  1  0  0  0  0
 23 24  1  0  0  0  0
 23 25  1  0  0  0  0
 24 25  1  0  0  0  0
M  END
>  <minimizedAffinity>
-5.08940029

$$$$

 OpenBabel03272505393D

 25 27  0  0  0  0  0  0  0  0999 V2000
   34.3380   30.5470   35.0710 C   0  0  0  0  0  0  0  0  0  0  0  0
   33.1010   30.0990   35.5060 C   0  0  0  0  0  0  0  0  0  0  0  0
   32.4840   30.6690   36.5960 C   0  0  0  0  0  0  0  0  0  0  0  0
   33.0620   31.7130   37.3100 C   0  0  0  0  0  0  0  0  0  0  0  0
   34.2870   32.1650   36.8900 C   0  0  0  0  0  0  0  0  0  0  0  0
   34.8890   31.5750   35.7900 C   0  0  0  0  0  0  0  0  0  0  0  0
   32.6340   29.2800   34.9580 H   0  0  0  0  0  0  0  0  0  0  0  0
   31.5180   30.2550   36.8660 H   0  0  0  0  0  0  0  0  0  0  0  0
   32.4720   32.0730   38.1510 H   0  0  0  0  0  0  0  0  0  0  0  0
   34.6850   32.9710   37.4770 H   0  0  0  0  0  0  0  0  0  0  0  0
   36.4370   28.4210   32.9650 C   0  0  0  0  0  0  0  0  0  0  0  0
   36.1720   28.8970   31.6830 C   0  0  0  0  0  0  0  0  0  0  0  0
   35.2640   29.9540   31.5520 C   0  0  0  0  0  0  0  0  0  0  0  0
   34.7100   30.4300   32.6960 N   0  0  0  0  0  0  0  0  0  0  0  0
   34.9760   29.9630   33.9150 C   0  0  0  0  0  0  0  0  0  0  0  0
   35.8440   28.9530   34.0380 N   0  0  0  0  0  0  0  0  0  0  0  0
   36.6270   28.4970   30.7820 H   0  0  0  0  0  0  0  0  0  0  0  0
   35.0210   30.3640   30.5680 H   0  0  0  0  0  0  0  0  0  0  0  0
   37.4160   27.2800   33.1050 C   0  0  0  0  0  0  0  0  0  0  0  0
   36.7320   26.0950   33.3060 F   0  0  0  0  0  0  0  0  0  0  0  0
   38.1870   27.2580   31.9910 F   0  0  0  0  0  0  0  0  0  0  0  0
   38.1640   27.5070   34.2490 F   0  0  0  0  0  0  0  0  0  0  0  0
   36.2320   32.1710   35.5160 C   0  0  0  0  0  3  0  0  0  0  0  0
   36.3410   33.0680   34.3000 C   0  0  0  0  0  2  0  0  0  0  0  0
   36.4410   33.6280   35.7030 C   0  0  0  0  0  2  0  0  0  0  0  0
  1  2  2  0  0  0  0
  1  6  1  0  0  0  0
  2  3  1  0  0  0  0
  3  8  1  0  0  0  0
  3  4  2  0  0  0  0
  4  9  1  0  0  0  0
  5  4  1  0  0  0  0
  5 10  1  0  0  0  0
  6  5  2  0  0  0  0
  7  2  1  0  0  0  0
 11 19  1  0  0  0  0
 11 16  1  0  0  0  0
 12 11  2  0  0  0  0
 13 12  1  0  0  0  0
 13 14  2  0  0  0  0
 14 15  1  0  0  0  0
 15 16  2  0  0  0  0
 15  1  1  0  0  0  0
 17 12  1  0  0  0  0
 18 13  1  0  0  0  0
 19 20  1  0  0  0  0
 19 22  1  0  0  0  0
 21 19  1  0  0  0  0
 23 25  1  0  0  0  0
 23  6  1  0  0  0  0
 24 23  1  0  0  0  0
 24 25  1  0  0  0  0
M  END
>  <minimizedAffinity>
-5.04176521

$$$$
