
 OpenBabel03272509053D

 27 29  0  0  0  0  0  0  0  0999 V2000
   33.2630   27.3730   48.0980 C   0  0  0  0  0  0  0  0  0  0  0  0
   32.5340   28.0630   47.5980 H   0  0  0  0  0  0  0  0  0  0  0  0
   32.8000   26.9120   48.9850 H   0  0  0  0  0  0  0  0  0  0  0  0
   33.6940   26.3610   47.0790 C   0  0  0  0  0  0  0  0  0  0  0  0
   33.9510   25.0380   47.3230 C   0  0  0  0  0  0  0  0  0  0  0  0
   34.3420   24.2030   46.3030 C   0  0  0  0  0  0  0  0  0  0  0  0
   34.4890   24.6640   45.0020 C   0  0  0  0  0  0  0  0  0  0  0  0
   34.2350   25.9840   44.7500 C   0  0  0  0  0  0  0  0  0  0  0  0
   33.8430   26.8280   45.7620 C   0  0  0  0  0  0  0  0  0  0  0  0
   33.8100   24.7710   48.3620 H   0  0  0  0  0  0  0  0  0  0  0  0
   34.5180   23.1720   46.6160 H   0  0  0  0  0  0  0  0  0  0  0  0
   34.8000   23.9050   44.3050 H   0  0  0  0  0  0  0  0  0  0  0  0
   34.3590   26.3170   43.7210 H   0  0  0  0  0  0  0  0  0  0  0  0
   33.6670   27.8650   45.4460 H   0  0  0  0  0  0  0  0  0  0  0  0
   34.7450   28.4370   49.7870 C   0  0  0  0  0  3  0  0  0  0  0  0
   34.3740   28.2130   48.5580 C   0  0  0  0  0  3  0  0  0  0  0  0
   37.5110   30.2410   51.3860 C   0  0  0  0  0  0  0  0  0  0  0  0
   38.0010   30.9900   50.2790 C   0  0  0  0  0  0  0  0  0  0  0  0
   37.3730   30.8580   49.0240 C   0  0  0  0  0  0  0  0  0  0  0  0
   36.3200   30.0020   48.9650 N   0  0  0  0  0  0  0  0  0  0  0  0
   35.8870   29.3150   50.0190 C   0  0  0  0  0  0  0  0  0  0  0  0
   36.4770   29.4350   51.2130 N   0  0  0  0  0  0  0  0  0  0  0  0
   38.0350   30.3870   52.3210 H   0  0  0  0  0  0  0  0  0  0  0  0
   38.8290   31.6370   50.4100 H   0  0  0  0  0  0  0  0  0  0  0  0
   37.8520   31.6200   47.8510 C   0  0  0  0  0  3  0  0  0  0  0  0
   38.8370   30.9470   46.9040 C   0  0  0  0  0  2  0  0  0  0  0  0
   37.4410   31.2720   46.4920 C   0  0  0  0  0  2  0  0  0  0  0  0
  1 16  1  0  0  0  0
  1  3  1  0  0  0  0
  2  1  1  0  0  0  0
  4  5  1  0  0  0  0
  4  1  1  0  0  0  0
  5 10  1  0  0  0  0
  6 11  1  0  0  0  0
  6  5  2  0  0  0  0
  7  6  1  0  0  0  0
  8  7  2  0  0  0  0
  8  9  1  0  0  0  0
  9  4  2  0  0  0  0
 12  7  1  0  0  0  0
 13  8  1  0  0  0  0
 14  9  1  0  0  0  0
 15 21  1  0  0  0  0
 16 15  2  0  0  0  0
 17 23  1  0  0  0  0
 18 24  1  0  0  0  0
 18 17  2  0  0  0  0
 19 18  1  0  0  0  0
 20 19  2  0  0  0  0
 20 21  1  0  0  0  0
 21 22  2  0  0  0  0
 22 17  1  0  0  0  0
 25 19  1  0  0  0  0
 26 25  1  0  0  0  0
 27 26  1  0  0  0  0
 27 25  1  0  0  0  0
M  END
>  <minimizedAffinity>
-5.24982738

>  <minimizedRMSD>
0.571092308

$$$$
