REMARK  Name = 
REMARK  4 active torsions:
REMARK  status: ('A' for Active; 'I' for Inactive)
REMARK    1  A    between atoms: C_3  and  C_12
REMARK    2  A    between atoms: C_7  and  S_14
REMARK    3  A    between atoms: S_14  and  C_17
REMARK    4  A    between atoms: C_21  and  C_31
REMARK                            x       y       z     vdW  Elec       q    Type
REMARK                         _______ _______ _______ _____ _____    ______ ____
ROOT
ATOM      1 CL   UNL     1      36.397  30.895  45.692  0.00  0.00    +0.000 Cl
ATOM      2  C   UNL     1      36.681  30.755  47.406  0.00  0.00    +0.000 A 
ATOM      3  C   UNL     1      37.939  31.078  47.871  0.00  0.00    +0.000 A 
ATOM      4  C   UNL     1      38.173  30.970  49.230  0.00  0.00    +0.000 A 
ATOM      5  C   UNL     1      37.183  30.556  50.064  0.00  0.00    +0.000 A 
ATOM      6  C   UNL     1      35.927  30.242  49.531  0.00  0.00    +0.000 A 
ATOM      7  C   UNL     1      35.619  30.324  48.203  0.00  0.00    +0.000 A 
ATOM      8  H   UNL     1      39.158  31.222  49.602  0.00  0.00    +0.000 HD
ATOM      9  H   UNL     1      37.392  30.481  51.115  0.00  0.00    +0.000 HD
ATOM     10  H   UNL     1      35.147  29.912  50.214  0.00  0.00    +0.000 HD
ENDROOT
BRANCH   3  15
ATOM     11  C   UNL     1      40.201  33.308  46.085  0.00  0.00    +0.000 A 
ATOM     12  C   UNL     1      40.912  32.460  45.214  0.00  0.00    +0.000 A 
ATOM     13  C   UNL     1      40.593  31.098  45.257  0.00  0.00    +0.000 A 
ATOM     14  N   UNL     1      39.628  30.673  46.124  0.00  0.00    +0.000 NA
ATOM     15  C   UNL     1      38.986  31.525  46.927  0.00  0.00    +0.000 A 
ATOM     16  N   UNL     1      39.269  32.827  46.908  0.00  0.00    +0.000 NA
ATOM     17  H   UNL     1      40.485  34.349  46.013  0.00  0.00    +0.000 HD
ATOM     18  H   UNL     1      41.672  32.714  44.515  0.00  0.00    +0.000 HD
ATOM     19  H   UNL     1      41.054  30.338  44.650  0.00  0.00    +0.000 HD
ENDBRANCH   3  15
BRANCH   7  20
ATOM     20  S   UNL     1      34.051  29.936  47.513  0.00  0.00    +0.000 S 
BRANCH  20  23
ATOM     21 CL   UNL     1      33.743  29.194  44.475  0.00  0.00    +0.000 Cl
ATOM     22  C   UNL     1      33.777  27.946  45.714  0.00  0.00    +0.000 A 
ATOM     23  C   UNL     1      33.911  28.201  47.078  0.00  0.00    +0.000 A 
ATOM     24  C   UNL     1      33.926  27.155  47.967  0.00  0.00    +0.000 A 
ATOM     25  C   UNL     1      33.812  25.870  47.529  0.00  0.00    +0.000 A 
ATOM     26  C   UNL     1      33.678  25.567  46.189  0.00  0.00    +0.000 A 
ATOM     27  C   UNL     1      33.664  26.616  45.316  0.00  0.00    +0.000 A 
ATOM     28  H   UNL     1      34.034  27.459  49.000  0.00  0.00    +0.000 HD
ATOM     29  H   UNL     1      33.831  25.090  48.279  0.00  0.00    +0.000 HD
ATOM     30  H   UNL     1      33.591  24.542  45.900  0.00  0.00    +0.000 HD
BRANCH  27  31
ATOM     31  C   UNL     1      33.520  26.330  43.865  0.00  0.00    +0.000 C 
ATOM     32  C   UNL     1      34.352  25.241  43.299  0.00  0.00    +0.000 C 
ATOM     33  C   UNL     1      32.820  25.064  43.422  0.00  0.00    +0.000 C 
ENDBRANCH  27  31
ENDBRANCH  20  23
ENDBRANCH   7  20
TORSDOF 4
