
 OpenBabel03272507503D

 22 24  0  0  0  0  0  0  0  0999 V2000
   37.4380   31.6960   48.4050 N   0  0  0  0  0  0  0  0  0  0  0  0
   37.4610   32.6220   49.3970 C   0  0  0  0  0  0  0  0  0  0  0  0
   38.4180   33.6450   49.3490 C   0  0  0  0  0  0  0  0  0  0  0  0
   39.2540   33.5840   48.2560 C   0  0  0  0  0  0  0  0  0  0  0  0
   40.1150   34.5210   48.2320 O   0  0  0  0  0  0  0  0  0  0  0  0
   39.2440   32.6800   47.2720 N   0  0  0  0  0  0  0  0  0  0  0  0
   38.3020   31.7180   47.3700 C   0  0  0  0  0  0  0  0  0  0  0  0
   38.2790   30.8630   46.4540 O   0  0  0  0  0  0  0  0  0  0  0  0
   36.7590   32.5850   50.2170 H   0  0  0  0  0  0  0  0  0  0  0  0
   38.4700   34.3860   50.1030 H   0  0  0  0  0  0  0  0  0  0  0  0
   39.9250   32.7330   46.4950 H   0  0  0  0  0  0  0  0  0  0  0  0
   36.6470   29.6260   49.3960 C   0  0  0  0  0  0  0  0  0  0  0  0
   36.4840   30.6320   48.4100 C   0  0  0  0  0  0  0  0  0  0  0  0
   35.4180   30.5090   47.5300 C   0  0  0  0  0  0  0  0  0  0  0  0
   34.5860   29.4480   47.6450 N   0  0  0  0  0  0  0  0  0  0  0  0
   34.7510   28.5020   48.5840 C   0  0  0  0  0  0  0  0  0  0  0  0
   35.7730   28.5880   49.4540 N   0  0  0  0  0  0  0  0  0  0  0  0
   35.3280   31.2970   46.7920 H   0  0  0  0  0  0  0  0  0  0  0  0
   34.0270   27.6880   48.5930 H   0  0  0  0  0  0  0  0  0  0  0  0
   37.7590   29.6640   50.3880 C   0  0  0  0  0  0  0  0  0  0  0  0
   37.7790   28.6330   51.4530 C   0  0  0  0  0  0  0  0  0  0  0  0
   37.3590   30.0200   51.7940 C   0  0  0  0  0  0  0  0  0  0  0  0
  1 13  1  0  0  0  0
  1  2  1  0  0  0  0
  2  9  1  0  0  0  0
  3  2  2  0  0  0  0
  3 10  1  0  0  0  0
  4  3  1  0  0  0  0
  5  4  2  0  0  0  0
  6  7  1  0  0  0  0
  6  4  1  0  0  0  0
  7  1  1  0  0  0  0
  8  7  2  0  0  0  0
 11  6  1  0  0  0  0
 12 17  1  0  0  0  0
 12 20  1  0  0  0  0
 13 12  2  0  0  0  0
 14 15  2  0  0  0  0
 14 13  1  0  0  0  0
 15 16  1  0  0  0  0
 16 19  1  0  0  0  0
 16 17  2  0  0  0  0
 18 14  1  0  0  0  0
 20 21  1  0  0  0  0
 20 22  1  0  0  0  0
 21 22  1  0  0  0  0
M  END
>  <minimizedAffinity>
-5.47078514

>  <minimizedRMSD>
0.781869054

$$$$
