
 OpenBabel03272504273D

 36 39  0  0  0  0  0  0  0  0999 V2000
   35.5650   29.6010   48.4040 C   0  0  0  0  0  0  0  0  0  0  0  0
   35.3380   28.7870   49.4570 C   0  0  0  0  0  0  0  0  0  0  0  0
   34.4870   27.7580   49.3700 C   0  0  0  0  0  0  0  0  0  0  0  0
   33.8400   27.5360   48.1960 N   0  0  0  0  0  0  0  0  0  0  0  0
   34.0700   28.3420   47.1650 C   0  0  0  0  0  0  0  0  0  0  0  0
   34.9220   29.3730   47.2470 N   0  0  0  0  0  0  0  0  0  0  0  0
   35.8510   28.9570   50.3990 H   0  0  0  0  0  0  0  0  0  0  0  0
   34.3120   27.1130   50.2170 H   0  0  0  0  0  0  0  0  0  0  0  0
   31.9730   27.7730   46.0190 C   0  0  0  0  0  0  0  0  0  0  0  0
   33.3490   28.0020   45.9610 C   0  0  0  0  0  0  0  0  0  0  0  0
   34.1000   27.9060   44.8060 C   0  0  0  0  0  0  0  0  0  0  0  0
   33.4740   27.5610   43.6280 C   0  0  0  0  0  0  0  0  0  0  0  0
   32.1210   27.3150   43.5890 C   0  0  0  0  0  0  0  0  0  0  0  0
   31.4670   27.4350   44.7710 C   0  0  0  0  0  0  0  0  0  0  0  0
   35.1650   28.0940   44.8070 H   0  0  0  0  0  0  0  0  0  0  0  0
   34.0610   27.4840   42.7160 H   0  0  0  0  0  0  0  0  0  0  0  0
   31.6220   27.0470   42.6850 H   0  0  0  0  0  0  0  0  0  0  0  0
   30.3840   27.2370   44.7330 H   0  0  0  0  0  0  0  0  0  0  0  0
   31.0290   27.9010   47.3850 S   0  0  0  0  0  0  0  0  0  0  0  0
   30.1130   26.6650   47.0940 O   0  0  0  0  0  0  0  0  0  0  0  0
   30.2020   29.1510   47.2420 O   0  0  0  0  0  0  0  0  0  0  0  0
   30.7530   27.6660   48.9400 C   0  0  0  0  0  0  0  0  0  0  0  0
   30.2290   26.4840   49.5030 F   0  0  0  0  0  0  0  0  0  0  0  0
   29.5320   28.3850   49.3400 F   0  0  0  0  0  0  0  0  0  0  0  0
   31.4230   28.4350   49.9410 F   0  0  0  0  0  0  0  0  0  0  0  0
   37.5180   32.4810   49.5780 C   0  0  0  0  0  0  0  0  0  0  0  0
   38.2750   32.8140   48.4370 C   0  0  0  0  0  0  0  0  0  0  0  0
   38.0980   32.0450   47.2950 C   0  0  0  0  0  0  0  0  0  0  0  0
   37.2070   31.0220   47.3500 N   0  0  0  0  0  0  0  0  0  0  0  0
   36.4870   30.7200   48.4670 C   0  0  0  0  0  0  0  0  0  0  0  0
   36.6540   31.4570   49.5650 N   0  0  0  0  0  0  0  0  0  0  0  0
   37.6510   33.0720   50.4630 H   0  0  0  0  0  0  0  0  0  0  0  0
   38.9810   33.6240   48.3940 H   0  0  0  0  0  0  0  0  0  0  0  0
   38.8260   32.2720   46.0100 C   0  0  0  0  0  0  0  0  0  0  0  0
   40.1260   33.0650   46.0730 C   0  0  0  0  0  0  0  0  0  0  0  0
   40.1700   31.5680   45.8630 C   0  0  0  0  0  0  0  0  0  0  0  0
  1 30  1  0  0  0  0
  1  2  1  0  0  0  0
  2  7  1  0  0  0  0
  3  2  2  0  0  0  0
  3  8  1  0  0  0  0
  4  3  1  0  0  0  0
  5  6  1  0  0  0  0
  5  4  2  0  0  0  0
  6  1  2  0  0  0  0
  9 19  1  0  0  0  0
 10  9  1  0  0  0  0
 10  5  1  0  0  0  0
 11 15  1  0  0  0  0
 11 10  2  0  0  0  0
 12 11  1  0  0  0  0
 13 12  2  0  0  0  0
 13 14  1  0  0  0  0
 14  9  2  0  0  0  0
 16 12  1  0  0  0  0
 17 13  1  0  0  0  0
 18 14  1  0  0  0  0
 19 22  1  0  0  0  0
 20 19  2  0  0  0  0
 21 19  2  0  0  0  0
 22 24  1  0  0  0  0
 22 23  1  0  0  0  0
 22 25  1  0  0  0  0
 26 32  1  0  0  0  0
 27 26  2  0  0  0  0
 28 29  2  0  0  0  0
 28 27  1  0  0  0  0
 29 30  1  0  0  0  0
 30 31  2  0  0  0  0
 31 26  1  0  0  0  0
 33 27  1  0  0  0  0
 34 35  1  0  0  0  0
 34 28  1  0  0  0  0
 36 34  1  0  0  0  0
 36 35  1  0  0  0  0
M  END
>  <minimizedAffinity>
-5.93767405

>  <minimizedRMSD>
0.529257238

$$$$
