
 OpenBabel03272505123D

 33 36  0  0  0  0  0  0  0  0999 V2000
   36.4070   30.8980   45.6980 Cl  0  0  0  0  0  0  0  0  0  0  0  0
   36.6900   30.7700   47.4130 C   0  0  0  0  0  0  0  0  0  0  0  0
   37.9470   31.0980   47.8760 C   0  0  0  0  0  0  0  0  0  0  0  0
   38.1800   31.0000   49.2360 C   0  0  0  0  0  0  0  0  0  0  0  0
   37.1900   30.5910   50.0730 C   0  0  0  0  0  0  0  0  0  0  0  0
   35.9340   30.2720   49.5410 C   0  0  0  0  0  0  0  0  0  0  0  0
   35.6270   30.3440   48.2120 C   0  0  0  0  0  0  0  0  0  0  0  0
   39.1650   31.2550   49.6070 H   0  0  0  0  0  0  0  0  0  0  0  0
   37.3980   30.5240   51.1240 H   0  0  0  0  0  0  0  0  0  0  0  0
   35.1540   29.9470   50.2260 H   0  0  0  0  0  0  0  0  0  0  0  0
   40.2060   33.3170   46.0730 C   0  0  0  0  0  0  0  0  0  0  0  0
   40.9210   32.4620   45.2110 C   0  0  0  0  0  0  0  0  0  0  0  0
   40.6050   31.1000   45.2670 C   0  0  0  0  0  0  0  0  0  0  0  0
   39.6400   30.6810   46.1360 N   0  0  0  0  0  0  0  0  0  0  0  0
   38.9940   31.5380   46.9300 C   0  0  0  0  0  0  0  0  0  0  0  0
   39.2740   32.8410   46.8990 N   0  0  0  0  0  0  0  0  0  0  0  0
   40.4880   34.3580   45.9920 H   0  0  0  0  0  0  0  0  0  0  0  0
   41.6810   32.7120   44.5110 H   0  0  0  0  0  0  0  0  0  0  0  0
   41.0690   30.3350   44.6670 H   0  0  0  0  0  0  0  0  0  0  0  0
   34.0600   29.9500   47.5240 S   0  0  0  0  0  0  0  0  0  0  0  0
   33.7660   29.1880   44.4900 Cl  0  0  0  0  0  0  0  0  0  0  0  0
   33.7940   27.9490   45.7370 C   0  0  0  0  0  0  0  0  0  0  0  0
   33.9220   28.2130   47.1000 C   0  0  0  0  0  0  0  0  0  0  0  0
   33.9330   27.1720   47.9960 C   0  0  0  0  0  0  0  0  0  0  0  0
   33.8220   25.8850   47.5660 C   0  0  0  0  0  0  0  0  0  0  0  0
   33.6940   25.5730   46.2270 C   0  0  0  0  0  0  0  0  0  0  0  0
   33.6830   26.6160   45.3470 C   0  0  0  0  0  0  0  0  0  0  0  0
   34.0370   27.4830   49.0270 H   0  0  0  0  0  0  0  0  0  0  0  0
   33.8370   25.1090   48.3210 H   0  0  0  0  0  0  0  0  0  0  0  0
   33.6080   24.5460   45.9440 H   0  0  0  0  0  0  0  0  0  0  0  0
   33.5460   26.3200   43.8970 C   0  0  0  0  0  3  0  0  0  0  0  0
   34.1720   25.0750   43.3930 C   0  0  0  0  0  2  0  0  0  0  0  0
   32.6310   25.2010   43.4500 C   0  0  0  0  0  2  0  0  0  0  0  0
  1  2  1  0  0  0  0
  2  3  2  0  0  0  0
  2  7  1  0  0  0  0
  3  4  1  0  0  0  0
  4  8  1  0  0  0  0
  4  5  2  0  0  0  0
  5  9  1  0  0  0  0
  6  5  1  0  0  0  0
  6 10  1  0  0  0  0
  7  6  2  0  0  0  0
 11 16  1  0  0  0  0
 12 13  1  0  0  0  0
 12 11  2  0  0  0  0
 13 14  2  0  0  0  0
 14 15  1  0  0  0  0
 15  3  1  0  0  0  0
 16 15  2  0  0  0  0
 17 11  1  0  0  0  0
 18 12  1  0  0  0  0
 19 13  1  0  0  0  0
 20  7  1  0  0  0  0
 21 22  1  0  0  0  0
 22 23  1  0  0  0  0
 23 20  1  0  0  0  0
 23 24  2  0  0  0  0
 24 28  1  0  0  0  0
 25 24  1  0  0  0  0
 25 29  1  0  0  0  0
 26 25  2  0  0  0  0
 27 22  2  0  0  0  0
 27 26  1  0  0  0  0
 30 26  1  0  0  0  0
 31 27  1  0  0  0  0
 32 33  1  0  0  0  0
 32 31  1  0  0  0  0
 33 31  1  0  0  0  0
M  END
>  <minimizedAffinity>
-5.60934782

>  <minimizedRMSD>
0.0417304151

$$$$
