REMARK  Name = 
REMARK  2 active torsions:
REMARK  status: ('A' for Active; 'I' for Inactive)
REMARK    1  A    between atoms: C_2  and  N_7
REMARK    2  A    between atoms: C_5  and  C_12
REMARK                            x       y       z     vdW  Elec       q    Type
REMARK                         _______ _______ _______ _____ _____    ______ ____
ROOT
ATOM      1  C   UNL     1      36.632  29.762  51.273  0.00  0.00    +0.000 A 
ATOM      2  C   UNL     1      37.375  30.114  50.137  0.00  0.00    +0.000 A 
ATOM      3  C   UNL     1      36.804  29.794  48.880  0.00  0.00    +0.000 A 
ATOM      4  N   UNL     1      35.592  29.177  48.843  0.00  0.00    +0.000 NA
ATOM      5  C   UNL     1      34.934  28.868  49.969  0.00  0.00    +0.000 A 
ATOM      6  N   UNL     1      35.419  29.143  51.197  0.00  0.00    +0.000 NA
ATOM      7  H   UNL     1      37.109  30.026  52.209  0.00  0.00    +0.000 HD
ATOM      8  H   UNL     1      37.331  30.041  47.983  0.00  0.00    +0.000 HD
ENDROOT
BRANCH   2   9
ATOM      9  N   UNL     1      38.633  30.756  50.246  0.00  0.00    +0.000 N 
ATOM     10  H   UNL     1      38.974  31.556  49.684  0.00  0.00    +0.000 HD
ATOM     11  H   UNL     1      39.281  30.371  50.981  0.00  0.00    +0.000 HD
ENDBRANCH   2   9
BRANCH   5  12
ATOM     12  C   UNL     1      33.610  28.193  49.917  0.00  0.00    +0.000 C 
ATOM     13  C   UNL     1      32.584  28.735  50.930  0.00  0.00    +0.000 C 
ATOM     14  C   UNL     1      33.172  27.322  51.033  0.00  0.00    +0.000 C 
ENDBRANCH   5  12
TORSDOF 2
