
 OpenBabel03272505193D

 27 29  0  0  0  0  0  0  0  0999 V2000
   38.9740   32.4380   47.4850 C   0  0  0  0  0  0  0  0  0  0  0  0
   38.6080   31.1520   47.2160 C   0  0  0  0  0  0  0  0  0  0  0  0
   39.1410   30.5630   46.0930 C   0  0  0  0  0  0  0  0  0  0  0  0
   39.9910   31.2100   45.2770 C   0  0  0  0  0  0  0  0  0  0  0  0
   40.3880   32.5150   45.5110 C   0  0  0  0  0  0  0  0  0  0  0  0
   39.8590   33.1100   46.6330 C   0  0  0  0  0  0  0  0  0  0  0  0
   38.8400   29.5410   45.8940 H   0  0  0  0  0  0  0  0  0  0  0  0
   40.3600   30.6610   44.4120 H   0  0  0  0  0  0  0  0  0  0  0  0
   41.0740   32.9960   44.8270 H   0  0  0  0  0  0  0  0  0  0  0  0
   40.2100   34.1270   46.7550 H   0  0  0  0  0  0  0  0  0  0  0  0
   37.3180   29.5130   50.3040 C   0  0  0  0  0  0  0  0  0  0  0  0
   38.1490   30.1620   49.3680 C   0  0  0  0  0  0  0  0  0  0  0  0
   37.6880   30.4880   48.1080 C   0  0  0  0  0  0  0  0  0  0  0  0
   36.4040   30.1260   47.8910 N   0  0  0  0  0  0  0  0  0  0  0  0
   35.6000   29.5110   48.7600 C   0  0  0  0  0  0  0  0  0  0  0  0
   36.0680   29.2020   49.9830 N   0  0  0  0  0  0  0  0  0  0  0  0
   37.6790   29.2610   51.2820 H   0  0  0  0  0  0  0  0  0  0  0  0
   39.1570   30.3880   49.6890 H   0  0  0  0  0  0  0  0  0  0  0  0
   34.1980   29.1940   48.3220 C   0  0  0  0  0  0  0  0  0  0  0  0
   33.9740   27.7850   47.8610 C   0  0  0  0  0  0  0  0  0  0  0  0
   33.3770   28.2680   49.1360 C   0  0  0  0  0  0  0  0  0  0  0  0
   39.3050   34.2800   48.9790 N   0  0  0  0  0  0  0  0  0  0  0  0
   38.5760   33.2570   48.5880 C   0  0  0  0  0  0  0  0  0  0  0  0
   37.5830   33.4290   49.5590 N   0  0  0  0  0  0  0  0  0  0  0  0
   39.0030   34.8640   49.7910 H   0  0  0  0  0  0  0  0  0  0  0  0
   36.7760   34.0960   49.5490 H   0  0  0  0  0  0  0  0  0  0  0  0
   37.7210   32.7730   50.3840 H   0  0  0  0  0  0  0  0  0  0  0  0
  1 23  1  0  0  0  0
  2  1  1  0  0  0  0
  2 13  1  0  0  0  0
  3  2  2  0  0  0  0
  4  5  2  0  0  0  0
  4  3  1  0  0  0  0
  5  6  1  0  0  0  0
  6 10  1  0  0  0  0
  6  1  2  0  0  0  0
  7  3  1  0  0  0  0
  8  4  1  0  0  0  0
  9  5  1  0  0  0  0
 11 17  1  0  0  0  0
 12 18  1  0  0  0  0
 12 11  2  0  0  0  0
 13 12  1  0  0  0  0
 14 13  2  0  0  0  0
 14 15  1  0  0  0  0
 15 16  2  0  0  0  0
 16 11  1  0  0  0  0
 19 15  1  0  0  0  0
 19 21  1  0  0  0  0
 20 19  1  0  0  0  0
 20 21  1  0  0  0  0
 22 25  1  0  0  0  0
 23 22  2  0  0  0  0
 23 24  1  0  0  0  0
 24 27  1  0  0  0  0
 26 24  1  0  0  0  0
M  END
>  <minimizedAffinity>
-6.25113726

>  <minimizedRMSD>
1.09659052

$$$$
