
 OpenBabel03272500393D

 19 21  0  0  1  0  0  0  0  0999 V2000
   36.3080   31.1030   48.7300 C   0  0  1  0  0  0  0  0  0  0  0  0
   35.8340   30.1530   47.7270 C   0  0  0  0  0  0  0  0  0  0  0  0
   36.6330   29.6300   48.8930 C   0  0  2  0  0  0  0  0  0  0  0  0
   35.5830   31.5280   49.4450 H   0  0  0  0  0  0  0  0  0  0  0  0
   34.7750   29.9180   47.5990 H   0  0  0  0  0  0  0  0  0  0  0  0
   36.4380   30.1290   46.7750 H   0  0  0  0  0  0  0  0  0  0  0  0
   37.6670   29.2890   48.7770 H   0  0  0  0  0  0  0  0  0  0  0  0
   37.5200   31.9570   48.4610 C   0  0  0  0  0  0  0  0  0  0  0  0
   37.8990   32.8760   49.4520 C   0  0  0  0  0  0  0  0  0  0  0  0
   39.0010   33.6620   49.1540 C   0  0  0  0  0  0  0  0  0  0  0  0
   39.6550   33.5220   47.9570 N   0  0  0  0  0  0  0  0  0  0  0  0
   39.2450   32.6100   47.0250 C   0  0  0  0  0  0  0  0  0  0  0  0
   38.1650   31.8240   47.2860 N   0  0  0  0  0  0  0  0  0  0  0  0
   37.3310   32.9220   50.3620 H   0  0  0  0  0  0  0  0  0  0  0  0
   39.3180   34.3760   49.8930 H   0  0  0  0  0  0  0  0  0  0  0  0
   39.8100   32.5580   46.1050 H   0  0  0  0  0  0  0  0  0  0  0  0
   35.7790   28.9280   49.9230 C   0  0  0  0  0  0  0  0  0  0  0  0
   34.5540   28.2040   49.5240 C   0  0  0  0  0  0  0  0  0  0  0  0
   34.4330   29.5270   50.2140 C   0  0  0  0  0  0  0  0  0  0  0  0
  1  3  1  0  0  0  0
  1  4  1  1  0  0  0
  2  1  1  0  0  0  0
  2  3  1  0  0  0  0
  3  7  1  6  0  0  0
  3 17  1  0  0  0  0
  5  2  1  0  0  0  0
  6  2  1  0  0  0  0
  8  1  1  0  0  0  0
  8  9  1  0  0  0  0
  9 14  1  0  0  0  0
 10  9  2  0  0  0  0
 10 15  1  0  0  0  0
 11 10  1  0  0  0  0
 12 13  1  0  0  0  0
 12 11  2  0  0  0  0
 13  8  2  0  0  0  0
 16 12  1  0  0  0  0
 17 19  1  0  0  0  0
 18 17  1  0  0  0  0
 18 19  1  0  0  0  0
M  END
>  <minimizedAffinity>
-4.75013113

>  <minimizedRMSD>
1.84444559

$$$$
