
 OpenBabel03272505383D

 25 27  0  0  0  0  0  0  0  0999 V2000
   37.4010   30.7020   46.3010 C   0  0  0  0  0  0  0  0  0  0  0  0
   36.1730   30.3630   45.7530 C   0  0  0  0  0  0  0  0  0  0  0  0
   36.0670   29.9760   44.4370 C   0  0  0  0  0  0  0  0  0  0  0  0
   37.1730   29.9060   43.5970 C   0  0  0  0  0  0  0  0  0  0  0  0
   38.3930   30.2400   44.1260 C   0  0  0  0  0  0  0  0  0  0  0  0
   38.4750   30.6270   45.4540 C   0  0  0  0  0  0  0  0  0  0  0  0
   35.2960   30.4130   46.3990 H   0  0  0  0  0  0  0  0  0  0  0  0
   35.0690   29.7290   44.0930 H   0  0  0  0  0  0  0  0  0  0  0  0
   36.9540   29.5870   42.5790 H   0  0  0  0  0  0  0  0  0  0  0  0
   39.2100   30.1680   43.4330 H   0  0  0  0  0  0  0  0  0  0  0  0
   37.3750   30.5790   49.9540 C   0  0  0  0  0  0  0  0  0  0  0  0
   37.7300   31.8790   50.3100 C   0  0  0  0  0  0  0  0  0  0  0  0
   37.9790   32.7940   49.2810 C   0  0  0  0  0  0  0  0  0  0  0  0
   37.8550   32.3350   48.0100 N   0  0  0  0  0  0  0  0  0  0  0  0
   37.5140   31.0880   47.6870 C   0  0  0  0  0  0  0  0  0  0  0  0
   37.2760   30.2140   48.6730 N   0  0  0  0  0  0  0  0  0  0  0  0
   37.8240   32.2210   51.3360 H   0  0  0  0  0  0  0  0  0  0  0  0
   38.2620   33.8250   49.5070 H   0  0  0  0  0  0  0  0  0  0  0  0
   37.1070   29.5920   51.0640 C   0  0  0  0  0  0  0  0  0  0  0  0
   35.7500   29.3340   51.1480 F   0  0  0  0  0  0  0  0  0  0  0  0
   37.8380   28.4780   50.8130 F   0  0  0  0  0  0  0  0  0  0  0  0
   37.4720   30.1930   52.2580 F   0  0  0  0  0  0  0  0  0  0  0  0
   39.8730   30.9940   45.8330 C   0  0  0  0  0  0  0  0  0  0  0  0
   40.8310   31.2830   44.6960 C   0  0  0  0  0  0  0  0  0  0  0  0
   40.3510   32.3820   45.6190 C   0  0  0  0  0  0  0  0  0  0  0  0
  1 15  1  0  0  0  0
  2  1  1  0  0  0  0
  2  7  1  0  0  0  0
  3  2  2  0  0  0  0
  4  5  2  0  0  0  0
  4  3  1  0  0  0  0
  5  6  1  0  0  0  0
  6 23  1  0  0  0  0
  6  1  2  0  0  0  0
  8  3  1  0  0  0  0
  9  4  1  0  0  0  0
 10  5  1  0  0  0  0
 11 12  1  0  0  0  0
 11 19  1  0  0  0  0
 12 17  1  0  0  0  0
 13 18  1  0  0  0  0
 13 12  2  0  0  0  0
 14 13  1  0  0  0  0
 15 14  2  0  0  0  0
 15 16  1  0  0  0  0
 16 11  2  0  0  0  0
 19 20  1  0  0  0  0
 19 22  1  0  0  0  0
 21 19  1  0  0  0  0
 24 25  1  0  0  0  0
 24 23  1  0  0  0  0
 25 23  1  0  0  0  0
M  END
>  <minimizedAffinity>
-6.13461447

>  <minimizedRMSD>
1.3477

$$$$
