
     RDKit          3D

 17 18  0  0  0  0  0  0  0  0999 V2000
   37.2920   30.1794   51.4119 C   0  0  0  0  0  0  0  0  0  0  0  0
   38.0654   30.6783   50.3461 C   0  0  0  0  0  0  0  0  0  0  0  0
   37.6804   30.3442   49.0354 C   0  0  0  0  0  0  0  0  0  0  0  0
   36.5752   29.5536   48.8894 N   0  0  0  0  0  0  0  0  0  0  0  0
   35.8606   29.0956   49.9379 C   0  0  0  0  0  0  0  0  0  0  0  0
   36.2204   29.4099   51.2073 N   0  0  0  0  0  0  0  0  0  0  0  0
   37.5790   30.4302   52.4274 H   0  0  0  0  0  0  0  0  0  0  0  0
   38.9416   31.3089   50.5436 H   0  0  0  0  0  0  0  0  0  0  0  0
   35.0104   28.4776   49.6158 H   0  0  0  0  0  0  0  0  0  0  0  0
   38.4440   30.8322   47.8856 C   0  0  0  0  0  0  0  0  0  0  0  0
   39.8349   30.4688   47.6231 C   0  0  0  0  0  0  0  0  0  0  0  0
   38.7385   29.7424   46.8461 C   0  0  0  0  0  0  0  0  0  0  0  0
   38.0920   31.8175   47.4876 H   0  0  0  0  0  0  0  0  0  0  0  0
   40.4568   31.1985   47.0313 H   0  0  0  0  0  0  0  0  0  0  0  0
   40.4456   29.8136   48.2603 H   0  0  0  0  0  0  0  0  0  0  0  0
   38.5815   29.9821   45.7802 H   0  0  0  0  0  0  0  0  0  0  0  0
   38.4931   28.6999   47.0907 H   0  0  0  0  0  0  0  0  0  0  0  0
  2  1  2  0
  3  2  1  0
  4  3  2  0
  4  5  1  0
  5  6  2  0
  6  1  1  0
  1  7  1  0
  2  8  1  0
  5  9  1  0
 10 11  1  0
 11 12  1  0
 12 10  1  0
 10 13  1  0
 11 14  1  0
 11 15  1  0
 12 16  1  0
 12 17  1  0
  3 10  1  0
M  ISO  3   7  14   8  14   9  14
M  END
>  <DihAtoms>  (1) 
1,2,9,10

>  <DihDeg>  (1) 
-26.285321676816736

$$$$
