
 OpenBabel03272505553D

 28 30  0  0  1  0  0  0  0  0999 V2000
   35.3580   29.9250   49.9920 C   0  0  2  0  0  0  0  0  0  0  0  0
   35.8910   31.2130   49.4320 C   0  0  0  0  0  0  0  0  0  0  0  0
   37.3780   31.2670   49.2990 C   0  0  1  0  0  0  0  0  0  0  0  0
   38.0870   30.9210   50.5740 C   0  0  0  0  0  0  0  0  0  0  0  0
   37.5210   29.7120   51.2640 C   0  0  0  0  0  0  0  0  0  0  0  0
   36.4280   29.0280   50.5020 C   0  0  0  0  0  0  0  0  0  0  0  0
   34.6560   30.1700   50.8080 H   0  0  0  0  0  0  0  0  0  0  0  0
   35.4730   31.3660   48.4030 H   0  0  0  0  0  0  0  0  0  0  0  0
   35.5600   32.0840   50.0520 H   0  0  0  0  0  0  0  0  0  0  0  0
   37.5960   32.3790   49.1630 H   0  0  0  0  0  0  0  0  0  0  0  0
   39.1640   30.8820   50.4420 H   0  0  0  0  0  0  0  0  0  0  0  0
   37.9060   31.7800   51.2900 H   0  0  0  0  0  0  0  0  0  0  0  0
   38.3410   28.9850   51.4280 H   0  0  0  0  0  0  0  0  0  0  0  0
   37.1110   29.9410   52.2880 H   0  0  0  0  0  0  0  0  0  0  0  0
   35.9470   28.3270   51.2600 H   0  0  0  0  0  0  0  0  0  0  0  0
   36.7590   28.3370   49.7090 H   0  0  0  0  0  0  0  0  0  0  0  0
   34.6160   29.1860   48.9260 C   0  0  0  0  0  0  0  0  0  0  0  0
   34.2170   29.9490   47.8120 C   0  0  0  0  0  0  0  0  0  0  0  0
   33.5060   29.2680   46.8110 C   0  0  0  0  0  0  0  0  0  0  0  0
   33.2440   27.9290   46.9620 N   0  0  0  0  0  0  0  0  0  0  0  0
   33.6510   27.2310   48.0600 C   0  0  0  0  0  0  0  0  0  0  0  0
   34.3300   27.8660   49.0250 N   0  0  0  0  0  0  0  0  0  0  0  0
   34.3980   30.9880   47.6540 H   0  0  0  0  0  0  0  0  0  0  0  0
   33.1710   29.7960   45.9290 H   0  0  0  0  0  0  0  0  0  0  0  0
   33.4030   26.1800   48.1020 H   0  0  0  0  0  0  0  0  0  0  0  0
   37.9090   30.6410   48.0620 C   0  0  0  0  0  0  0  0  0  0  0  0
   37.5300   31.3590   46.7500 C   0  0  0  0  0  0  0  0  0  0  0  0
   38.9390   31.2410   47.1850 C   0  0  0  0  0  0  0  0  0  0  0  0
  1  6  1  0  0  0  0
  1  7  1  1  0  0  0
  2  1  1  0  0  0  0
  2  9  1  0  0  0  0
  3 10  1  6  0  0  0
  3  2  1  0  0  0  0
  3  4  1  0  0  0  0
  4  5  1  0  0  0  0
  4 12  1  0  0  0  0
  5 13  1  0  0  0  0
  5 14  1  0  0  0  0
  6 15  1  0  0  0  0
  6  5  1  0  0  0  0
  8  2  1  0  0  0  0
 11  4  1  0  0  0  0
 16  6  1  0  0  0  0
 17 22  1  0  0  0  0
 17  1  1  0  0  0  0
 18 17  2  0  0  0  0
 19 20  2  0  0  0  0
 19 18  1  0  0  0  0
 20 21  1  0  0  0  0
 21 25  1  0  0  0  0
 21 22  2  0  0  0  0
 23 18  1  0  0  0  0
 24 19  1  0  0  0  0
 26  3  1  0  0  0  0
 27 28  1  0  0  0  0
 27 26  1  0  0  0  0
 28 26  1  0  0  0  0
M  END
>  <minimizedAffinity>
-5.46993685

>  <minimizedRMSD>
1.0815469

$$$$
