
 OpenBabel03272510273D

 39 43  0  0  1  0  0  0  0  0999 V2000
   36.1420   30.2300   46.8950 C   0  0  0  0  0  0  0  0  0  0  0  0
   37.0390   30.7470   47.8270 C   0  0  0  0  0  0  0  0  0  0  0  0
   38.0620   31.6090   47.4380 C   0  0  0  0  0  0  0  0  0  0  0  0
   38.1360   31.9210   46.0840 C   0  0  0  0  0  0  0  0  0  0  0  0
   39.0350   32.7360   45.4600 N   0  0  0  0  0  0  0  0  0  0  0  0
   38.7110   32.7340   44.1580 C   0  0  0  0  0  0  0  0  0  0  0  0
   37.6630   31.9590   43.9610 N   0  0  0  0  0  0  0  0  0  0  0  0
   37.2680   31.4310   45.1320 C   0  0  0  0  0  0  0  0  0  0  0  0
   36.2500   30.5660   45.5560 C   0  0  0  0  0  0  0  0  0  0  0  0
   35.3420   29.5640   47.1500 H   0  0  0  0  0  0  0  0  0  0  0  0
   38.7460   32.0010   48.1620 H   0  0  0  0  0  0  0  0  0  0  0  0
   39.8060   33.2470   45.9130 H   0  0  0  0  0  0  0  0  0  0  0  0
   35.5670   30.1770   44.8130 H   0  0  0  0  0  0  0  0  0  0  0  0
   37.4980   30.1600   51.5090 C   0  0  0  0  0  0  0  0  0  0  0  0
   37.7830   30.5910   50.2230 C   0  0  0  0  0  0  0  0  0  0  0  0
   36.8630   30.3510   49.2080 C   0  0  0  0  0  0  0  0  0  0  0  0
   35.7170   29.6930   49.5490 N   0  0  0  0  0  0  0  0  0  0  0  0
   35.4480   29.2780   50.8000 C   0  0  0  0  0  0  0  0  0  0  0  0
   36.3190   29.5080   51.7570 N   0  0  0  0  0  0  0  0  0  0  0  0
   38.2050   30.3420   52.3090 H   0  0  0  0  0  0  0  0  0  0  0  0
   38.6980   31.1140   49.9620 H   0  0  0  0  0  0  0  0  0  0  0  0
   34.5120   28.7540   51.0190 H   0  0  0  0  0  0  0  0  0  0  0  0
   39.4270   33.4700   43.2130 O   0  0  0  0  0  0  0  0  0  0  0  0
   38.9860   31.6230   41.9220 N   0  0  0  0  0  0  0  0  0  0  0  0
   39.3010   33.0260   41.8710 C   0  0  1  0  0  0  0  0  0  0  0  0
   38.2600   33.7650   41.1690 C   0  0  0  0  0  0  0  0  0  0  0  0
   38.2030   33.3050   39.8420 O   0  0  0  0  0  0  0  0  0  0  0  0
   38.0250   31.9600   39.6960 C   0  0  0  0  0  0  0  0  0  0  0  0
   38.9610   31.1500   40.5680 C   0  0  1  0  0  0  0  0  0  0  0  0
   38.3070   31.2720   42.5500 H   0  0  0  0  0  0  0  0  0  0  0  0
   40.2700   33.1420   41.3630 H   0  0  0  0  0  0  0  0  0  0  0  0
   37.2430   33.8100   41.4570 H   0  0  0  0  0  0  0  0  0  0  0  0
   38.6130   34.8340   41.0580 H   0  0  0  0  0  0  0  0  0  0  0  0
   38.2910   31.7020   38.6550 H   0  0  0  0  0  0  0  0  0  0  0  0
   36.9650   31.7050   39.9470 H   0  0  0  0  0  0  0  0  0  0  0  0
   38.5970   30.1100   40.5740 H   0  0  0  0  0  0  0  0  0  0  0  0
   40.3360   31.1570   39.9440 C   0  0  0  0  0  3  0  0  0  0  0  0
   41.3790   30.2320   40.4820 C   0  0  0  0  0  2  0  0  0  0  0  0
   40.7530   29.9190   39.1720 C   0  0  0  0  0  2  0  0  0  0  0  0
  1 10  1  0  0  0  0
  1  2  1  0  0  0  0
  2 16  1  0  0  0  0
  3  2  2  0  0  0  0
  3 11  1  0  0  0  0
  4  3  1  0  0  0  0
  5 12  1  0  0  0  0
  5  4  1  0  0  0  0
  6  5  1  0  0  0  0
  7  6  2  0  0  0  0
  7  8  1  0  0  0  0
  8  9  1  0  0  0  0
  8  4  2  0  0  0  0
  9  1  2  0  0  0  0
 13  9  1  0  0  0  0
 14 19  1  0  0  0  0
 14 20  1  0  0  0  0
 15 14  2  0  0  0  0
 16 17  2  0  0  0  0
 16 15  1  0  0  0  0
 17 18  1  0  0  0  0
 18 22  1  0  0  0  0
 18 19  2  0  0  0  0
 21 15  1  0  0  0  0
 23  6  1  0  0  0  0
 24 30  1  0  0  0  0
 25 31  1  6  0  0  0
 25 24  1  0  0  0  0
 25 23  1  0  0  0  0
 26 32  1  0  0  0  0
 26 25  1  0  0  0  0
 27 26  1  0  0  0  0
 28 27  1  0  0  0  0
 28 35  1  0  0  0  0
 28 29  1  0  0  0  0
 29 36  1  1  0  0  0
 29 24  1  0  0  0  0
 33 26  1  0  0  0  0
 34 28  1  0  0  0  0
 37 38  1  0  0  0  0
 37 29  1  0  0  0  0
 39 37  1  0  0  0  0
 39 38  1  0  0  0  0
M  END
>  <minimizedAffinity>
-5.62151957

>  <minimizedRMSD>
0.971220374

$$$$
