
 OpenBabel03272508013D

 15 16  0  0  0  0  0  0  0  0999 V2000
   38.2130   25.3740   35.1010 C   0  0  0  0  0  0  0  0  0  0  0  0
   38.2260   25.2110   36.5140 C   0  0  0  0  0  0  0  0  0  0  0  0
   38.1670   23.9010   37.0150 C   0  0  0  0  0  0  0  0  0  0  0  0
   38.1030   22.8740   36.1180 N   0  0  0  0  0  0  0  0  0  0  0  0
   38.0930   23.0680   34.7830 C   0  0  0  0  0  0  0  0  0  0  0  0
   38.1470   24.3070   34.2870 N   0  0  0  0  0  0  0  0  0  0  0  0
   38.2780   26.0450   37.1750 H   0  0  0  0  0  0  0  0  0  0  0  0
   38.0400   22.2180   34.1070 H   0  0  0  0  0  0  0  0  0  0  0  0
   38.1790   23.6950   38.4800 C   0  0  0  0  0  0  0  0  0  0  0  0
   37.8080   24.9010   39.0320 F   0  0  0  0  0  0  0  0  0  0  0  0
   37.2890   22.7260   38.8860 F   0  0  0  0  0  0  0  0  0  0  0  0
   39.4460   23.3660   38.9520 F   0  0  0  0  0  0  0  0  0  0  0  0
   38.2750   26.7700   34.5860 C   0  0  0  0  0  3  0  0  0  0  0  0
   37.7350   27.9070   35.3230 C   0  0  0  0  0  2  0  0  0  0  0  0
   36.9020   27.3190   34.2240 C   0  0  0  0  0  2  0  0  0  0  0  0
  1  2  1  0  0  0  0
  2  3  2  0  0  0  0
  2  7  1  0  0  0  0
  3  9  1  0  0  0  0
  4  3  1  0  0  0  0
  5  4  2  0  0  0  0
  6  5  1  0  0  0  0
  6  1  2  0  0  0  0
  8  5  1  0  0  0  0
  9 11  1  0  0  0  0
  9 12  1  0  0  0  0
  9 10  1  0  0  0  0
 13  1  1  0  0  0  0
 13 14  1  0  0  0  0
 15 13  1  0  0  0  0
 15 14  1  0  0  0  0
M  END
>  <minimizedAffinity>
-4.58615637

$$$$

 OpenBabel03272508013D

 15 16  0  0  0  0  0  0  0  0999 V2000
   38.1770   25.4090   35.0250 C   0  0  0  0  0  0  0  0  0  0  0  0
   38.2210   25.2780   36.4410 C   0  0  0  0  0  0  0  0  0  0  0  0
   38.1950   23.9790   36.9720 C   0  0  0  0  0  0  0  0  0  0  0  0
   38.1290   22.9310   36.1000 N   0  0  0  0  0  0  0  0  0  0  0  0
   38.0880   23.0940   34.7610 C   0  0  0  0  0  0  0  0  0  0  0  0
   38.1110   24.3230   34.2360 N   0  0  0  0  0  0  0  0  0  0  0  0
   38.2740   26.1270   37.0820 H   0  0  0  0  0  0  0  0  0  0  0  0
   38.0340   22.2290   34.1060 H   0  0  0  0  0  0  0  0  0  0  0  0
   38.2410   23.8070   38.4410 C   0  0  0  0  0  0  0  0  0  0  0  0
   37.2970   22.8480   38.7360 F   0  0  0  0  0  0  0  0  0  0  0  0
   39.4700   23.3760   38.8860 F   0  0  0  0  0  0  0  0  0  0  0  0
   37.9050   24.9760   39.1150 F   0  0  0  0  0  0  0  0  0  0  0  0
   38.2050   26.7940   34.4780 C   0  0  0  0  0  3  0  0  0  0  0  0
   37.4090   27.8790   35.0380 C   0  0  0  0  0  2  0  0  0  0  0  0
   36.8920   27.1850   33.8140 C   0  0  0  0  0  2  0  0  0  0  0  0
  1  2  1  0  0  0  0
  2  3  2  0  0  0  0
  2  7  1  0  0  0  0
  3  9  1  0  0  0  0
  4  3  1  0  0  0  0
  5  4  2  0  0  0  0
  6  5  1  0  0  0  0
  6  1  2  0  0  0  0
  8  5  1  0  0  0  0
  9 10  1  0  0  0  0
  9 11  1  0  0  0  0
  9 12  1  0  0  0  0
 13  1  1  0  0  0  0
 13 14  1  0  0  0  0
 15 13  1  0  0  0  0
 15 14  1  0  0  0  0
M  END
>  <minimizedAffinity>
-4.53109026

$$$$

 OpenBabel03272508013D

 15 16  0  0  0  0  0  0  0  0999 V2000
   38.1270   23.0540   34.7330 C   0  0  0  0  0  0  0  0  0  0  0  0
   38.1690   22.8480   36.1410 C   0  0  0  0  0  0  0  0  0  0  0  0
   38.1500   23.9850   36.9620 C   0  0  0  0  0  0  0  0  0  0  0  0
   38.0930   25.2090   36.3620 N   0  0  0  0  0  0  0  0  0  0  0  0
   38.0540   25.3670   35.0220 C   0  0  0  0  0  0  0  0  0  0  0  0
   38.0720   24.2960   34.2230 N   0  0  0  0  0  0  0  0  0  0  0  0
   38.2130   21.8710   36.5630 H   0  0  0  0  0  0  0  0  0  0  0  0
   38.0100   26.3620   34.5900 H   0  0  0  0  0  0  0  0  0  0  0  0
   38.1920   23.8060   38.4310 C   0  0  0  0  0  0  0  0  0  0  0  0
   39.4690   23.3780   38.7210 F   0  0  0  0  0  0  0  0  0  0  0  0
   37.9470   24.9750   39.1140 F   0  0  0  0  0  0  0  0  0  0  0  0
   37.2940   22.8360   38.8650 F   0  0  0  0  0  0  0  0  0  0  0  0
   38.1480   21.8370   33.8750 C   0  0  0  0  0  3  0  0  0  0  0  0
   37.7010   21.8420   32.4880 C   0  0  0  0  0  2  0  0  0  0  0  0
   36.7510   21.3400   33.5330 C   0  0  0  0  0  2  0  0  0  0  0  0
  1  2  1  0  0  0  0
  2  7  1  0  0  0  0
  2  3  2  0  0  0  0
  3  9  1  0  0  0  0
  4  3  1  0  0  0  0
  5  4  2  0  0  0  0
  6  1  2  0  0  0  0
  6  5  1  0  0  0  0
  8  5  1  0  0  0  0
  9 10  1  0  0  0  0
  9 12  1  0  0  0  0
  9 11  1  0  0  0  0
 13  1  1  0  0  0  0
 14 15  1  0  0  0  0
 14 13  1  0  0  0  0
 15 13  1  0  0  0  0
M  END
>  <minimizedAffinity>
-4.18380928

$$$$

 OpenBabel03272508013D

 15 16  0  0  0  0  0  0  0  0999 V2000
   38.5510   24.7990   36.2670 C   0  0  0  0  0  0  0  0  0  0  0  0
   39.7380   24.0350   36.0810 C   0  0  0  0  0  0  0  0  0  0  0  0
   40.0280   23.0480   37.0340 C   0  0  0  0  0  0  0  0  0  0  0  0
   39.1590   22.8850   38.0740 N   0  0  0  0  0  0  0  0  0  0  0  0
   38.0420   23.6290   38.2180 C   0  0  0  0  0  0  0  0  0  0  0  0
   37.7490   24.5740   37.3200 N   0  0  0  0  0  0  0  0  0  0  0  0
   40.3860   24.1990   35.2510 H   0  0  0  0  0  0  0  0  0  0  0  0
   37.3800   23.4630   39.0630 H   0  0  0  0  0  0  0  0  0  0  0  0
   41.2540   22.2350   36.8710 C   0  0  0  0  0  0  0  0  0  0  0  0
   41.2790   21.3720   37.9440 F   0  0  0  0  0  0  0  0  0  0  0  0
   41.2520   21.5010   35.7060 F   0  0  0  0  0  0  0  0  0  0  0  0
   42.4060   23.0140   36.9060 F   0  0  0  0  0  0  0  0  0  0  0  0
   38.2580   25.8420   35.2460 C   0  0  0  0  0  3  0  0  0  0  0  0
   39.2900   26.6980   34.6740 C   0  0  0  0  0  2  0  0  0  0  0  0
   38.4490   27.2540   35.7830 C   0  0  0  0  0  2  0  0  0  0  0  0
  1  6  1  0  0  0  0
  2  1  2  0  0  0  0
  2  3  1  0  0  0  0
  3  4  2  0  0  0  0
  4  5  1  0  0  0  0
  5  8  1  0  0  0  0
  6  5  2  0  0  0  0
  7  2  1  0  0  0  0
  9 12  1  0  0  0  0
  9  3  1  0  0  0  0
  9 10  1  0  0  0  0
 11  9  1  0  0  0  0
 13 15  1  0  0  0  0
 13  1  1  0  0  0  0
 14 13  1  0  0  0  0
 14 15  1  0  0  0  0
M  END
>  <minimizedAffinity>
-4.16690159

$$$$

 OpenBabel03272508013D

 15 16  0  0  0  0  0  0  0  0999 V2000
   37.4160   26.5980   33.7610 C   0  0  0  0  0  0  0  0  0  0  0  0
   36.9670   25.5010   32.9730 C   0  0  0  0  0  0  0  0  0  0  0  0
   36.1200   25.7850   31.8920 C   0  0  0  0  0  0  0  0  0  0  0  0
   35.7830   27.0890   31.6660 N   0  0  0  0  0  0  0  0  0  0  0  0
   36.2280   28.1040   32.4350 C   0  0  0  0  0  0  0  0  0  0  0  0
   37.0350   27.8530   33.4710 N   0  0  0  0  0  0  0  0  0  0  0  0
   37.2580   24.4990   33.1890 H   0  0  0  0  0  0  0  0  0  0  0  0
   35.9320   29.1260   32.2170 H   0  0  0  0  0  0  0  0  0  0  0  0
   35.6350   24.6680   31.0510 C   0  0  0  0  0  0  0  0  0  0  0  0
   36.7290   24.2310   30.3380 F   0  0  0  0  0  0  0  0  0  0  0  0
   35.1400   23.6210   31.7960 F   0  0  0  0  0  0  0  0  0  0  0  0
   34.6570   25.0780   30.1500 F   0  0  0  0  0  0  0  0  0  0  0  0
   38.3130   26.2790   34.9060 C   0  0  0  0  0  3  0  0  0  0  0  0
   38.7570   27.2830   35.8650 C   0  0  0  0  0  2  0  0  0  0  0  0
   39.6930   26.9040   34.7570 C   0  0  0  0  0  2  0  0  0  0  0  0
  1 13  1  0  0  0  0
  2  7  1  0  0  0  0
  2  1  2  0  0  0  0
  3  2  1  0  0  0  0
  4  3  2  0  0  0  0
  4  5  1  0  0  0  0
  5  6  2  0  0  0  0
  6  1  1  0  0  0  0
  8  5  1  0  0  0  0
  9 11  1  0  0  0  0
  9  3  1  0  0  0  0
 10  9  1  0  0  0  0
 12  9  1  0  0  0  0
 13 14  1  0  0  0  0
 15 13  1  0  0  0  0
 15 14  1  0  0  0  0
M  END
>  <minimizedAffinity>
-4.15444565

$$$$

 OpenBabel03272508013D

 15 16  0  0  0  0  0  0  0  0999 V2000
   37.3840   26.6060   33.8270 C   0  0  0  0  0  0  0  0  0  0  0  0
   36.9910   25.5000   33.0210 C   0  0  0  0  0  0  0  0  0  0  0  0
   36.1720   25.7660   31.9130 C   0  0  0  0  0  0  0  0  0  0  0  0
   35.8080   27.0610   31.6810 N   0  0  0  0  0  0  0  0  0  0  0  0
   36.2000   28.0840   32.4670 C   0  0  0  0  0  0  0  0  0  0  0  0
   36.9790   27.8510   33.5280 N   0  0  0  0  0  0  0  0  0  0  0  0
   37.3020   24.5060   33.2430 H   0  0  0  0  0  0  0  0  0  0  0  0
   35.8840   29.0990   32.2430 H   0  0  0  0  0  0  0  0  0  0  0  0
   35.7460   24.6390   31.0530 C   0  0  0  0  0  0  0  0  0  0  0  0
   34.7910   25.1540   30.2050 F   0  0  0  0  0  0  0  0  0  0  0  0
   36.7790   24.1240   30.3030 F   0  0  0  0  0  0  0  0  0  0  0  0
   35.1700   23.6090   31.7900 F   0  0  0  0  0  0  0  0  0  0  0  0
   38.2520   26.3060   34.9990 C   0  0  0  0  0  3  0  0  0  0  0  0
   38.7230   27.3370   35.9150 C   0  0  0  0  0  2  0  0  0  0  0  0
   39.6580   26.8670   34.8420 C   0  0  0  0  0  2  0  0  0  0  0  0
  1 13  1  0  0  0  0
  2  7  1  0  0  0  0
  2  1  2  0  0  0  0
  3  2  1  0  0  0  0
  4  3  2  0  0  0  0
  4  5  1  0  0  0  0
  5  6  2  0  0  0  0
  6  1  1  0  0  0  0
  8  5  1  0  0  0  0
  9 12  1  0  0  0  0
  9  3  1  0  0  0  0
 10  9  1  0  0  0  0
 11  9  1  0  0  0  0
 13 14  1  0  0  0  0
 15 13  1  0  0  0  0
 15 14  1  0  0  0  0
M  END
>  <minimizedAffinity>
-4.13450718

$$$$

 OpenBabel03272508013D

 15 16  0  0  0  0  0  0  0  0999 V2000
   37.9290   23.8220   36.2190 C   0  0  0  0  0  0  0  0  0  0  0  0
   37.9290   25.2370   36.0730 C   0  0  0  0  0  0  0  0  0  0  0  0
   38.0140   25.7530   34.7720 C   0  0  0  0  0  0  0  0  0  0  0  0
   38.0910   24.8690   33.7350 N   0  0  0  0  0  0  0  0  0  0  0  0
   38.0890   23.5310   33.9110 C   0  0  0  0  0  0  0  0  0  0  0  0
   38.0090   23.0210   35.1440 N   0  0  0  0  0  0  0  0  0  0  0  0
   37.8660   25.8880   36.9150 H   0  0  0  0  0  0  0  0  0  0  0  0
   38.1530   22.8670   33.0550 H   0  0  0  0  0  0  0  0  0  0  0  0
   38.0150   27.2220   34.5840 C   0  0  0  0  0  0  0  0  0  0  0  0
   38.7130   27.4510   33.4190 F   0  0  0  0  0  0  0  0  0  0  0  0
   36.7470   27.7410   34.4540 F   0  0  0  0  0  0  0  0  0  0  0  0
   38.6640   27.8810   35.6230 F   0  0  0  0  0  0  0  0  0  0  0  0
   37.8390   23.2900   37.6080 C   0  0  0  0  0  3  0  0  0  0  0  0
   38.1330   24.1010   38.7830 C   0  0  0  0  0  2  0  0  0  0  0  0
   39.2010   23.1780   38.2780 C   0  0  0  0  0  2  0  0  0  0  0  0
  1 13  1  0  0  0  0
  2  1  1  0  0  0  0
  2  7  1  0  0  0  0
  3  2  2  0  0  0  0
  4  5  2  0  0  0  0
  4  3  1  0  0  0  0
  5  6  1  0  0  0  0
  6  1  2  0  0  0  0
  8  5  1  0  0  0  0
  9  3  1  0  0  0  0
  9 12  1  0  0  0  0
 10  9  1  0  0  0  0
 11  9  1  0  0  0  0
 13 15  1  0  0  0  0
 13 14  1  0  0  0  0
 15 14  1  0  0  0  0
M  END
>  <minimizedAffinity>
-4.10373592

$$$$

 OpenBabel03272508013D

 15 16  0  0  0  0  0  0  0  0999 V2000
   38.8560   23.7460   36.0940 C   0  0  0  0  0  0  0  0  0  0  0  0
   38.7970   25.1420   35.8230 C   0  0  0  0  0  0  0  0  0  0  0  0
   39.4650   25.6070   34.6800 C   0  0  0  0  0  0  0  0  0  0  0  0
   40.1250   24.6960   33.9070 N   0  0  0  0  0  0  0  0  0  0  0  0
   40.1590   23.3790   34.1960 C   0  0  0  0  0  0  0  0  0  0  0  0
   39.5290   22.9160   35.2800 N   0  0  0  0  0  0  0  0  0  0  0  0
   38.2680   25.8150   36.4570 H   0  0  0  0  0  0  0  0  0  0  0  0
   40.6980   22.6910   33.5510 H   0  0  0  0  0  0  0  0  0  0  0  0
   39.4240   27.0530   34.3680 C   0  0  0  0  0  0  0  0  0  0  0  0
   39.0980   27.6840   35.5490 F   0  0  0  0  0  0  0  0  0  0  0  0
   40.6350   27.5350   33.9240 F   0  0  0  0  0  0  0  0  0  0  0  0
   38.4480   27.3570   33.4240 F   0  0  0  0  0  0  0  0  0  0  0  0
   38.1420   23.2690   37.3110 C   0  0  0  0  0  3  0  0  0  0  0  0
   37.8630   24.1320   38.4520 C   0  0  0  0  0  2  0  0  0  0  0  0
   39.0470   23.2160   38.5340 C   0  0  0  0  0  2  0  0  0  0  0  0
  1 13  1  0  0  0  0
  2  1  1  0  0  0  0
  2  7  1  0  0  0  0
  3  2  2  0  0  0  0
  4  5  2  0  0  0  0
  4  3  1  0  0  0  0
  5  6  1  0  0  0  0
  6  1  2  0  0  0  0
  8  5  1  0  0  0  0
  9  3  1  0  0  0  0
  9 10  1  0  0  0  0
 11  9  1  0  0  0  0
 12  9  1  0  0  0  0
 13 14  1  0  0  0  0
 13 15  1  0  0  0  0
 14 15  1  0  0  0  0
M  END
>  <minimizedAffinity>
-3.91080976

$$$$

 OpenBabel03272508013D

 15 16  0  0  0  0  0  0  0  0999 V2000
   38.2900   24.9370   35.2320 C   0  0  0  0  0  0  0  0  0  0  0  0
   39.0250   24.3780   36.3140 C   0  0  0  0  0  0  0  0  0  0  0  0
   39.8120   23.2480   36.0460 C   0  0  0  0  0  0  0  0  0  0  0  0
   39.8210   22.7590   34.7720 N   0  0  0  0  0  0  0  0  0  0  0  0
   39.1100   23.3160   33.7690 C   0  0  0  0  0  0  0  0  0  0  0  0
   38.3540   24.3930   34.0050 N   0  0  0  0  0  0  0  0  0  0  0  0
   38.9870   24.7960   37.2930 H   0  0  0  0  0  0  0  0  0  0  0  0
   39.1480   22.8920   32.7700 H   0  0  0  0  0  0  0  0  0  0  0  0
   40.5910   22.6410   37.1500 C   0  0  0  0  0  0  0  0  0  0  0  0
   39.9520   23.0170   38.3110 F   0  0  0  0  0  0  0  0  0  0  0  0
   40.6230   21.2670   37.0820 F   0  0  0  0  0  0  0  0  0  0  0  0
   41.8960   23.1190   37.1920 F   0  0  0  0  0  0  0  0  0  0  0  0
   37.4590   26.1350   35.5330 C   0  0  0  0  0  3  0  0  0  0  0  0
   37.1860   27.1740   34.5470 C   0  0  0  0  0  2  0  0  0  0  0  0
   38.2740   27.4210   35.5480 C   0  0  0  0  0  2  0  0  0  0  0  0
  1 13  1  0  0  0  0
  1  2  1  0  0  0  0
  2  7  1  0  0  0  0
  3  2  2  0  0  0  0
  3  9  1  0  0  0  0
  4  3  1  0  0  0  0
  5  6  1  0  0  0  0
  5  4  2  0  0  0  0
  6  1  2  0  0  0  0
  8  5  1  0  0  0  0
  9 12  1  0  0  0  0
  9 10  1  0  0  0  0
 11  9  1  0  0  0  0
 13 15  1  0  0  0  0
 14 13  1  0  0  0  0
 14 15  1  0  0  0  0
M  END
>  <minimizedAffinity>
-3.88055634

$$$$
