
 OpenBabel03272501363D

 30 33  0  0  1  0  0  0  0  0999 V2000
   38.1350   32.0570   47.1750 C   0  0  2  0  0  0  0  0  0  0  0  0
   38.5420   30.5310   46.9750 C   0  0  0  0  0  0  0  0  0  0  0  0
   39.3390   31.7190   46.4940 C   0  0  1  0  0  0  0  0  0  0  0  0
   37.1320   32.2190   46.7260 H   0  0  0  0  0  0  0  0  0  0  0  0
   38.8530   29.9660   47.8420 H   0  0  0  0  0  0  0  0  0  0  0  0
   37.8900   30.0060   46.2360 H   0  0  0  0  0  0  0  0  0  0  0  0
   40.3280   31.7810   47.0500 H   0  0  0  0  0  0  0  0  0  0  0  0
   39.5510   31.7820   45.0450 C   0  0  0  0  0  0  0  0  0  0  0  0
   39.1460   32.9400   44.3840 C   0  0  0  0  0  0  0  0  0  0  0  0
   39.3440   32.9870   43.0300 C   0  0  0  0  0  0  0  0  0  0  0  0
   39.9200   31.9410   42.3250 C   0  0  0  0  0  0  0  0  0  0  0  0
   40.3080   30.8140   43.0130 C   0  0  0  0  0  0  0  0  0  0  0  0
   40.1200   30.7520   44.3460 N   0  0  0  0  0  0  0  0  0  0  0  0
   38.7000   33.7430   44.9480 H   0  0  0  0  0  0  0  0  0  0  0  0
   39.0530   33.8520   42.4600 H   0  0  0  0  0  0  0  0  0  0  0  0
   40.0810   31.9720   41.2430 H   0  0  0  0  0  0  0  0  0  0  0  0
   40.7580   29.9860   42.4910 H   0  0  0  0  0  0  0  0  0  0  0  0
   38.1320   32.3300   48.6590 C   0  0  2  0  0  0  0  0  0  0  0  0
   38.7580   33.3690   49.0960 O   0  0  0  0  0  0  0  0  0  0  0  0
   37.4730   30.0660   51.5510 C   0  0  0  0  0  0  0  0  0  0  0  0
   38.0460   30.9750   50.6910 C   0  0  0  0  0  0  0  0  0  0  0  0
   37.4320   31.4050   49.4990 C   0  0  0  0  0  0  0  0  0  0  0  0
   36.2610   30.8810   49.2460 N   0  0  0  0  0  0  0  0  0  0  0  0
   35.6810   29.9800   50.0870 C   0  0  0  0  0  0  0  0  0  0  0  0
   36.2590   29.5660   51.2230 N   0  0  0  0  0  0  0  0  0  0  0  0
   37.9980   29.7790   52.4520 H   0  0  0  0  0  0  0  0  0  0  0  0
   39.0330   31.3770   50.9660 H   0  0  0  0  0  0  0  0  0  0  0  0
   34.3360   29.4870   49.6320 C   0  0  0  0  0  0  0  0  0  0  0  0
   34.0830   29.2230   48.2140 C   0  0  0  0  0  0  0  0  0  0  0  0
   34.4010   28.0410   49.0440 C   0  0  0  0  0  0  0  0  0  0  0  0
  1  4  1  6  0  0  0
  1 18  1  0  0  0  0
  2  1  1  0  0  0  0
  2  5  1  0  0  0  0
  3  2  1  0  0  0  0
  3  7  1  1  0  0  0
  3  1  1  0  0  0  0
  6  2  1  0  0  0  0
  8  3  1  0  0  0  0
  9 14  1  0  0  0  0
  9  8  1  0  0  0  0
 10  9  2  0  0  0  0
 11 12  2  0  0  0  0
 11 10  1  0  0  0  0
 12 13  1  0  0  0  0
 13  8  2  0  0  0  0
 15 10  1  0  0  0  0
 16 11  1  0  0  0  0
 17 12  1  0  0  0  0
 18 19  1  1  0  0  0
 18 22  1  0  0  0  0
 20 26  1  0  0  0  0
 21 27  1  0  0  0  0
 21 20  2  0  0  0  0
 22 21  1  0  0  0  0
 23 22  2  0  0  0  0
 23 24  1  0  0  0  0
 24 25  2  0  0  0  0
 25 20  1  0  0  0  0
 28 24  1  0  0  0  0
 29 30  1  0  0  0  0
 29 28  1  0  0  0  0
 30 28  1  0  0  0  0
M  END
>  <minimizedAffinity>
-6.31537247

>  <minimizedRMSD>
0.50422442

$$$$
