
 OpenBabel03272504123D

 15 16  0  0  0  0  0  0  0  0999 V2000
   37.2770   30.2520   49.9900 C   0  0  0  0  0  0  0  0  0  0  0  0
   37.7340   31.5740   50.1630 C   0  0  0  0  0  0  0  0  0  0  0  0
   37.9010   32.3510   49.0070 C   0  0  0  0  0  0  0  0  0  0  0  0
   37.6160   31.7880   47.8030 N   0  0  0  0  0  0  0  0  0  0  0  0
   37.1770   30.5090   47.6920 C   0  0  0  0  0  0  0  0  0  0  0  0
   37.0110   29.7510   48.7810 N   0  0  0  0  0  0  0  0  0  0  0  0
   37.9480   31.9750   51.1410 H   0  0  0  0  0  0  0  0  0  0  0  0
   36.9430   30.0340   46.7550 H   0  0  0  0  0  0  0  0  0  0  0  0
   37.0980   29.4200   51.2290 C   0  0  0  0  0  0  0  0  0  0  0  0
   35.7500   29.1230   51.4030 F   0  0  0  0  0  0  0  0  0  0  0  0
   37.8670   28.3020   51.0930 F   0  0  0  0  0  0  0  0  0  0  0  0
   37.4740   30.1870   52.3140 F   0  0  0  0  0  0  0  0  0  0  0  0
   38.3740   33.7410   49.0820 C   0  0  0  0  0  0  0  0  0  0  0  0
   39.7120   33.9630   48.3400 C   0  0  0  0  0  0  0  0  0  0  0  0
   39.5860   34.1320   49.8070 C   0  0  0  0  0  0  0  0  0  0  0  0
  1  2  1  0  0  0  0
  1  9  1  0  0  0  0
  2  7  1  0  0  0  0
  3 13  1  0  0  0  0
  3  2  2  0  0  0  0
  4  3  1  0  0  0  0
  5  4  2  0  0  0  0
  5  6  1  0  0  0  0
  6  1  2  0  0  0  0
  8  5  1  0  0  0  0
  9 10  1  0  0  0  0
  9 12  1  0  0  0  0
 11  9  1  0  0  0  0
 13 15  1  0  0  0  0
 14 13  1  0  0  0  0
 14 15  1  0  0  0  0
M  END
>  <minimizedAffinity>
-5.12661409

>  <minimizedRMSD>
0.794196665

$$$$
