
 OpenBabel03272510333D

 22 24  0  0  0  0  0  0  0  0999 V2000
   36.3540   30.4300   48.4840 C   0  0  0  0  0  0  0  0  0  0  0  0
   35.3080   30.4300   47.5820 C   0  0  0  0  0  0  0  0  0  0  0  0
   34.3140   29.4820   47.6540 C   0  0  0  0  0  0  0  0  0  0  0  0
   34.3790   28.5330   48.6400 C   0  0  0  0  0  0  0  0  0  0  0  0
   35.4160   28.5050   49.5610 C   0  0  0  0  0  0  0  0  0  0  0  0
   36.4290   29.4640   49.4930 C   0  0  0  0  0  0  0  0  0  0  0  0
   35.2790   31.1990   46.8040 H   0  0  0  0  0  0  0  0  0  0  0  0
   33.5250   29.5450   46.9130 H   0  0  0  0  0  0  0  0  0  0  0  0
   33.5890   27.7980   48.6800 H   0  0  0  0  0  0  0  0  0  0  0  0
   35.4790   27.7570   50.3470 H   0  0  0  0  0  0  0  0  0  0  0  0
   38.3140   33.4150   49.2120 C   0  0  0  0  0  0  0  0  0  0  0  0
   39.2440   33.4840   48.1770 C   0  0  0  0  0  0  0  0  0  0  0  0
   39.1900   32.4600   47.1940 C   0  0  0  0  0  0  0  0  0  0  0  0
   38.2470   31.4940   47.3250 N   0  0  0  0  0  0  0  0  0  0  0  0
   37.3760   31.4750   48.3400 C   0  0  0  0  0  0  0  0  0  0  0  0
   37.4180   32.4360   49.2760 N   0  0  0  0  0  0  0  0  0  0  0  0
   38.4230   34.2210   49.9100 H   0  0  0  0  0  0  0  0  0  0  0  0
   40.0200   34.1960   47.9840 H   0  0  0  0  0  0  0  0  0  0  0  0
   39.8220   32.3460   46.3240 H   0  0  0  0  0  0  0  0  0  0  0  0
   37.5800   29.5210   50.4300 C   0  0  0  0  0  3  0  0  0  0  0  0
   37.3340   30.0080   51.8430 C   0  0  0  0  0  2  0  0  0  0  0  0
   37.6750   28.5750   51.5620 C   0  0  0  0  0  2  0  0  0  0  0  0
  1  6  1  0  0  0  0
  2  3  1  0  0  0  0
  2  1  2  0  0  0  0
  3  4  2  0  0  0  0
  4  9  1  0  0  0  0
  4  5  1  0  0  0  0
  5 10  1  0  0  0  0
  6  5  2  0  0  0  0
  6 20  1  0  0  0  0
  7  2  1  0  0  0  0
  8  3  1  0  0  0  0
 11 16  1  0  0  0  0
 11 17  1  0  0  0  0
 12 11  2  0  0  0  0
 13 14  2  0  0  0  0
 13 12  1  0  0  0  0
 14 15  1  0  0  0  0
 15  1  1  0  0  0  0
 15 16  2  0  0  0  0
 18 12  1  0  0  0  0
 19 13  1  0  0  0  0
 20 22  1  0  0  0  0
 20 21  1  0  0  0  0
 22 21  1  0  0  0  0
M  END
>  <minimizedAffinity>
-5.52922106

>  <minimizedRMSD>
0.874512076

$$$$
