
 OpenBabel03272506353D

 13 14  0  0  0  0  0  0  0  0999 V2000
   39.0000   23.1880   37.8260 C   0  0  0  0  0  0  0  0  0  0  0  0
   40.1440   22.5020   37.3700 C   0  0  0  0  0  0  0  0  0  0  0  0
   40.7410   22.9440   36.2010 C   0  0  0  0  0  0  0  0  0  0  0  0
   40.1950   24.0080   35.5580 N   0  0  0  0  0  0  0  0  0  0  0  0
   39.0970   24.6580   36.0060 C   0  0  0  0  0  0  0  0  0  0  0  0
   38.5080   24.2380   37.1440 N   0  0  0  0  0  0  0  0  0  0  0  0
   40.5890   21.6530   37.8730 H   0  0  0  0  0  0  0  0  0  0  0  0
   41.6230   22.4720   35.7820 H   0  0  0  0  0  0  0  0  0  0  0  0
   38.5290   25.8060   35.2900 C   0  0  0  0  0  3  0  0  0  0  0  0
   39.4310   27.0060   35.0600 C   0  0  0  0  0  2  0  0  0  0  0  0
   38.2490   27.0840   35.9880 C   0  0  0  0  0  2  0  0  0  0  0  0
   38.5060   22.6480   38.9990 O   0  0  0  0  0  0  0  0  0  0  0  0
   37.8870   23.2410   39.5650 H   0  0  0  0  0  0  0  0  0  0  0  0
  1 12  1  0  0  0  0
  2  1  1  0  0  0  0
  2  7  1  0  0  0  0
  3  2  2  0  0  0  0
  4  5  2  0  0  0  0
  4  3  1  0  0  0  0
  5  6  1  0  0  0  0
  6  1  2  0  0  0  0
  8  3  1  0  0  0  0
  9 11  1  0  0  0  0
  9  5  1  0  0  0  0
 10  9  1  0  0  0  0
 10 11  1  0  0  0  0
 12 13  1  0  0  0  0
M  END
>  <minimizedAffinity>
-4.0174942

$$$$

 OpenBabel03272506353D

 13 14  0  0  0  0  0  0  0  0999 V2000
   39.6990   22.8650   37.4970 C   0  0  0  0  0  0  0  0  0  0  0  0
   38.7330   23.2140   38.4630 C   0  0  0  0  0  0  0  0  0  0  0  0
   37.9220   24.3050   38.2010 C   0  0  0  0  0  0  0  0  0  0  0  0
   38.0980   24.9790   37.0360 N   0  0  0  0  0  0  0  0  0  0  0  0
   39.0280   24.6320   36.1160 C   0  0  0  0  0  0  0  0  0  0  0  0
   39.8240   23.5720   36.3590 N   0  0  0  0  0  0  0  0  0  0  0  0
   38.5820   22.6860   39.3950 H   0  0  0  0  0  0  0  0  0  0  0  0
   37.1540   24.6400   38.8910 H   0  0  0  0  0  0  0  0  0  0  0  0
   39.1970   25.3790   34.8650 C   0  0  0  0  0  3  0  0  0  0  0  0
   40.1840   26.5340   34.8630 C   0  0  0  0  0  2  0  0  0  0  0  0
   38.7040   26.7700   34.7280 C   0  0  0  0  0  2  0  0  0  0  0  0
   40.4390   21.7610   37.8800 O   0  0  0  0  0  0  0  0  0  0  0  0
   40.9370   21.2500   37.1420 H   0  0  0  0  0  0  0  0  0  0  0  0
  1 12  1  0  0  0  0
  1  2  1  0  0  0  0
  2  7  1  0  0  0  0
  3  2  2  0  0  0  0
  3  8  1  0  0  0  0
  4  3  1  0  0  0  0
  5  6  1  0  0  0  0
  5  4  2  0  0  0  0
  6  1  2  0  0  0  0
  9  5  1  0  0  0  0
 10  9  1  0  0  0  0
 11 10  1  0  0  0  0
 11  9  1  0  0  0  0
 13 12  1  0  0  0  0
M  END
>  <minimizedAffinity>
-3.9791491

$$$$

 OpenBabel03272506353D

 13 14  0  0  0  0  0  0  0  0999 V2000
   35.6360   21.2040   36.5990 C   0  0  0  0  0  0  0  0  0  0  0  0
   35.7110   20.8130   35.2470 C   0  0  0  0  0  0  0  0  0  0  0  0
   36.7500   21.3190   34.4840 C   0  0  0  0  0  0  0  0  0  0  0  0
   37.6360   22.1610   35.0730 N   0  0  0  0  0  0  0  0  0  0  0  0
   37.5530   22.5290   36.3720 C   0  0  0  0  0  0  0  0  0  0  0  0
   36.5470   22.0430   37.1260 N   0  0  0  0  0  0  0  0  0  0  0  0
   35.0120   20.1430   34.7650 H   0  0  0  0  0  0  0  0  0  0  0  0
   36.8800   21.0680   33.4360 H   0  0  0  0  0  0  0  0  0  0  0  0
   38.5260   23.4410   36.9830 C   0  0  0  0  0  3  0  0  0  0  0  0
   39.7780   22.8300   37.5900 C   0  0  0  0  0  2  0  0  0  0  0  0
   38.7270   23.4780   38.4510 C   0  0  0  0  0  2  0  0  0  0  0  0
   34.5580   20.6290   37.2460 O   0  0  0  0  0  0  0  0  0  0  0  0
   34.5870   20.5980   38.2710 H   0  0  0  0  0  0  0  0  0  0  0  0
  1  6  1  0  0  0  0
  1 12  1  0  0  0  0
  2  1  2  0  0  0  0
  3  4  2  0  0  0  0
  3  2  1  0  0  0  0
  4  5  1  0  0  0  0
  5  9  1  0  0  0  0
  5  6  2  0  0  0  0
  7  2  1  0  0  0  0
  8  3  1  0  0  0  0
  9 10  1  0  0  0  0
  9 11  1  0  0  0  0
 10 11  1  0  0  0  0
 12 13  1  0  0  0  0
M  END
>  <minimizedAffinity>
-3.97853684

$$$$

 OpenBabel03272506353D

 13 14  0  0  0  0  0  0  0  0999 V2000
   39.7080   22.8070   37.5620 C   0  0  0  0  0  0  0  0  0  0  0  0
   38.8330   23.2800   38.5600 C   0  0  0  0  0  0  0  0  0  0  0  0
   37.9830   24.3240   38.2350 C   0  0  0  0  0  0  0  0  0  0  0  0
   38.0380   24.8360   36.9790 N   0  0  0  0  0  0  0  0  0  0  0  0
   38.8820   24.3720   36.0290 C   0  0  0  0  0  0  0  0  0  0  0  0
   39.7140   23.3560   36.3330 N   0  0  0  0  0  0  0  0  0  0  0  0
   38.7790   22.8810   39.5650 H   0  0  0  0  0  0  0  0  0  0  0  0
   37.2790   24.7460   38.9450 H   0  0  0  0  0  0  0  0  0  0  0  0
   38.9190   24.9450   34.6790 C   0  0  0  0  0  3  0  0  0  0  0  0
   38.0200   24.3190   33.6260 C   0  0  0  0  0  2  0  0  0  0  0  0
   39.5180   24.1990   33.5460 C   0  0  0  0  0  2  0  0  0  0  0  0
   40.4980   21.7660   38.0150 O   0  0  0  0  0  0  0  0  0  0  0  0
   40.9320   21.1630   37.3080 H   0  0  0  0  0  0  0  0  0  0  0  0
  1 12  1  0  0  0  0
  1  2  1  0  0  0  0
  2  7  1  0  0  0  0
  3  2  2  0  0  0  0
  3  8  1  0  0  0  0
  4  3  1  0  0  0  0
  5  6  1  0  0  0  0
  5  4  2  0  0  0  0
  6  1  2  0  0  0  0
  9  5  1  0  0  0  0
 10  9  1  0  0  0  0
 11 10  1  0  0  0  0
 11  9  1  0  0  0  0
 13 12  1  0  0  0  0
M  END
>  <minimizedAffinity>
-3.6725347

$$$$

 OpenBabel03272506353D

 13 14  0  0  0  0  0  0  0  0999 V2000
   38.6450   26.8780   35.7290 C   0  0  0  0  0  0  0  0  0  0  0  0
   39.7280   27.0360   34.8400 C   0  0  0  0  0  0  0  0  0  0  0  0
   40.5100   25.9260   34.5710 C   0  0  0  0  0  0  0  0  0  0  0  0
   40.1970   24.7510   35.1740 N   0  0  0  0  0  0  0  0  0  0  0  0
   39.1550   24.6120   36.0240 C   0  0  0  0  0  0  0  0  0  0  0  0
   38.3850   25.6850   36.2950 N   0  0  0  0  0  0  0  0  0  0  0  0
   39.9880   27.9660   34.3530 H   0  0  0  0  0  0  0  0  0  0  0  0
   41.3620   25.9610   33.8990 H   0  0  0  0  0  0  0  0  0  0  0  0
   38.8390   23.3290   36.6620 C   0  0  0  0  0  3  0  0  0  0  0  0
   39.1180   23.1970   38.1500 C   0  0  0  0  0  2  0  0  0  0  0  0
   39.9130   22.4220   37.1330 C   0  0  0  0  0  2  0  0  0  0  0  0
   37.9470   28.0580   35.9100 O   0  0  0  0  0  0  0  0  0  0  0  0
   36.9910   27.9870   36.2760 H   0  0  0  0  0  0  0  0  0  0  0  0
  1 12  1  0  0  0  0
  1  6  1  0  0  0  0
  2  1  2  0  0  0  0
  3  2  1  0  0  0  0
  3  4  2  0  0  0  0
  4  5  1  0  0  0  0
  5  6  2  0  0  0  0
  5  9  1  0  0  0  0
  7  2  1  0  0  0  0
  8  3  1  0  0  0  0
  9 11  1  0  0  0  0
  9 10  1  0  0  0  0
 11 10  1  0  0  0  0
 12 13  1  0  0  0  0
M  END
>  <minimizedAffinity>
-3.59478927

$$$$

 OpenBabel03272506353D

 13 14  0  0  0  0  0  0  0  0999 V2000
   39.3210   22.9810   37.8950 C   0  0  0  0  0  0  0  0  0  0  0  0
   38.6220   23.7670   36.9560 C   0  0  0  0  0  0  0  0  0  0  0  0
   39.2920   24.1500   35.8060 C   0  0  0  0  0  0  0  0  0  0  0  0
   40.5790   23.7510   35.6440 N   0  0  0  0  0  0  0  0  0  0  0  0
   41.2380   22.9960   36.5520 C   0  0  0  0  0  0  0  0  0  0  0  0
   40.5970   22.6170   37.6760 N   0  0  0  0  0  0  0  0  0  0  0  0
   37.5960   24.0920   37.0730 H   0  0  0  0  0  0  0  0  0  0  0  0
   38.8270   24.7550   35.0340 H   0  0  0  0  0  0  0  0  0  0  0  0
   42.6300   22.5800   36.3500 C   0  0  0  0  0  3  0  0  0  0  0  0
   43.7170   23.6090   36.6110 C   0  0  0  0  0  2  0  0  0  0  0  0
   43.4330   23.1070   35.2210 C   0  0  0  0  0  2  0  0  0  0  0  0
   38.5400   22.6690   38.9930 O   0  0  0  0  0  0  0  0  0  0  0  0
   38.8340   21.8700   39.5670 H   0  0  0  0  0  0  0  0  0  0  0  0
  1 12  1  0  0  0  0
  2  7  1  0  0  0  0
  2  1  2  0  0  0  0
  3  2  1  0  0  0  0
  4  3  2  0  0  0  0
  4  5  1  0  0  0  0
  5  6  2  0  0  0  0
  6  1  1  0  0  0  0
  8  3  1  0  0  0  0
  9  5  1  0  0  0  0
  9 10  1  0  0  0  0
 11  9  1  0  0  0  0
 11 10  1  0  0  0  0
 12 13  1  0  0  0  0
M  END
>  <minimizedAffinity>
-3.56863332

$$$$

 OpenBabel03272506353D

 13 14  0  0  0  0  0  0  0  0999 V2000
   41.3460   21.7830   37.2900 C   0  0  0  0  0  0  0  0  0  0  0  0
   42.4490   22.3330   36.6070 C   0  0  0  0  0  0  0  0  0  0  0  0
   42.2120   23.3780   35.7300 C   0  0  0  0  0  0  0  0  0  0  0  0
   40.9360   23.8150   35.5730 N   0  0  0  0  0  0  0  0  0  0  0  0
   39.8860   23.2780   36.2350 C   0  0  0  0  0  0  0  0  0  0  0  0
   40.1040   22.2610   37.0920 N   0  0  0  0  0  0  0  0  0  0  0  0
   43.4710   21.9950   36.7220 H   0  0  0  0  0  0  0  0  0  0  0  0
   43.0050   23.8580   35.1650 H   0  0  0  0  0  0  0  0  0  0  0  0
   38.5170   23.7710   36.0460 C   0  0  0  0  0  3  0  0  0  0  0  0
   38.1690   25.1250   36.6410 C   0  0  0  0  0  2  0  0  0  0  0  0
   37.5680   23.8560   37.1820 C   0  0  0  0  0  2  0  0  0  0  0  0
   41.7190   20.7510   38.1320 O   0  0  0  0  0  0  0  0  0  0  0  0
   41.0670   20.4980   38.8830 H   0  0  0  0  0  0  0  0  0  0  0  0
  1 12  1  0  0  0  0
  2  7  1  0  0  0  0
  2  1  2  0  0  0  0
  3  2  1  0  0  0  0
  4  3  2  0  0  0  0
  4  5  1  0  0  0  0
  5  6  2  0  0  0  0
  6  1  1  0  0  0  0
  8  3  1  0  0  0  0
  9  5  1  0  0  0  0
  9 10  1  0  0  0  0
  9 11  1  0  0  0  0
 10 11  1  0  0  0  0
 12 13  1  0  0  0  0
M  END
>  <minimizedAffinity>
-3.48264265

$$$$

 OpenBabel03272506353D

 13 14  0  0  0  0  0  0  0  0999 V2000
   40.2150   25.4630   34.7110 C   0  0  0  0  0  0  0  0  0  0  0  0
   39.8910   26.8310   34.6100 C   0  0  0  0  0  0  0  0  0  0  0  0
   38.8600   27.3120   35.3990 C   0  0  0  0  0  0  0  0  0  0  0  0
   38.2170   26.4460   36.2220 N   0  0  0  0  0  0  0  0  0  0  0  0
   38.5380   25.1350   36.3110 C   0  0  0  0  0  0  0  0  0  0  0  0
   39.5400   24.6540   35.5490 N   0  0  0  0  0  0  0  0  0  0  0  0
   40.3950   27.5320   33.9570 H   0  0  0  0  0  0  0  0  0  0  0  0
   38.5480   28.3510   35.3810 H   0  0  0  0  0  0  0  0  0  0  0  0
   37.8250   24.2220   37.2110 C   0  0  0  0  0  3  0  0  0  0  0  0
   37.9650   24.4570   38.7060 C   0  0  0  0  0  2  0  0  0  0  0  0
   38.5590   23.2410   38.0470 C   0  0  0  0  0  2  0  0  0  0  0  0
   41.2590   25.1140   33.8740 O   0  0  0  0  0  0  0  0  0  0  0  0
   41.7640   24.2470   34.0890 H   0  0  0  0  0  0  0  0  0  0  0  0
  1  6  1  0  0  0  0
  2  1  2  0  0  0  0
  2  3  1  0  0  0  0
  3  4  2  0  0  0  0
  4  5  1  0  0  0  0
  5  9  1  0  0  0  0
  6  5  2  0  0  0  0
  7  2  1  0  0  0  0
  8  3  1  0  0  0  0
  9 11  1  0  0  0  0
  9 10  1  0  0  0  0
 11 10  1  0  0  0  0
 12 13  1  0  0  0  0
 12  1  1  0  0  0  0
M  END
>  <minimizedAffinity>
-3.45546961

$$$$

 OpenBabel03272506353D

 13 14  0  0  0  0  0  0  0  0999 V2000
   36.6110   26.6820   31.2840 C   0  0  0  0  0  0  0  0  0  0  0  0
   36.5900   25.2790   31.1510 C   0  0  0  0  0  0  0  0  0  0  0  0
   36.9570   24.5190   32.2490 C   0  0  0  0  0  0  0  0  0  0  0  0
   37.3190   25.1610   33.3890 N   0  0  0  0  0  0  0  0  0  0  0  0
   37.3340   26.5090   33.5040 C   0  0  0  0  0  0  0  0  0  0  0  0
   36.9780   27.2600   32.4430 N   0  0  0  0  0  0  0  0  0  0  0  0
   36.3040   24.7550   30.2480 H   0  0  0  0  0  0  0  0  0  0  0  0
   36.9680   23.4340   32.2300 H   0  0  0  0  0  0  0  0  0  0  0  0
   37.7290   27.1760   34.7490 C   0  0  0  0  0  3  0  0  0  0  0  0
   39.2010   27.1440   35.1280 C   0  0  0  0  0  2  0  0  0  0  0  0
   38.1700   26.3970   35.9310 C   0  0  0  0  0  2  0  0  0  0  0  0
   36.2230   27.3190   30.1200 O   0  0  0  0  0  0  0  0  0  0  0  0
   35.9130   28.2940   30.1980 H   0  0  0  0  0  0  0  0  0  0  0  0
  1  6  1  0  0  0  0
  2  1  2  0  0  0  0
  2  3  1  0  0  0  0
  3  4  2  0  0  0  0
  4  5  1  0  0  0  0
  5  9  1  0  0  0  0
  6  5  2  0  0  0  0
  7  2  1  0  0  0  0
  8  3  1  0  0  0  0
  9 10  1  0  0  0  0
  9 11  1  0  0  0  0
 10 11  1  0  0  0  0
 12 13  1  0  0  0  0
 12  1  1  0  0  0  0
M  END
>  <minimizedAffinity>
-3.34074569

$$$$
