
 OpenBabel03272510023D

 15 16  0  0  0  0  0  0  0  0999 V2000
   37.7510   31.6440   50.1290 C   0  0  0  0  0  0  0  0  0  0  0  0
   38.5150   31.7640   48.9450 C   0  0  0  0  0  0  0  0  0  0  0  0
   38.0420   31.1440   47.7980 C   0  0  0  0  0  0  0  0  0  0  0  0
   36.8690   30.4570   47.8850 N   0  0  0  0  0  0  0  0  0  0  0  0
   36.1610   30.3580   49.0270 C   0  0  0  0  0  0  0  0  0  0  0  0
   36.6040   30.9490   50.1370 N   0  0  0  0  0  0  0  0  0  0  0  0
   38.1270   32.1330   51.0290 H   0  0  0  0  0  0  0  0  0  0  0  0
   39.4310   32.3100   48.9080 H   0  0  0  0  0  0  0  0  0  0  0  0
   34.9030   29.5830   48.9930 C   0  0  0  0  0  0  0  0  0  0  0  0
   34.0930   29.8280   50.0970 F   0  0  0  0  0  0  0  0  0  0  0  0
   34.1370   29.9270   47.8750 F   0  0  0  0  0  0  0  0  0  0  0  0
   35.0950   28.2210   48.9140 F   0  0  0  0  0  0  0  0  0  0  0  0
   38.7530   31.1960   46.4920 C   0  0  0  0  0  3  0  0  0  0  0  0
   38.3280   32.2980   45.5120 C   0  0  0  0  0  2  0  0  0  0  0  0
   39.6740   32.3050   46.1740 C   0  0  0  0  0  2  0  0  0  0  0  0
  1  6  1  0  0  0  0
  1  7  1  0  0  0  0
  2  1  2  0  0  0  0
  3  4  2  0  0  0  0
  3  2  1  0  0  0  0
  4  5  1  0  0  0  0
  5  6  2  0  0  0  0
  8  2  1  0  0  0  0
  9  5  1  0  0  0  0
  9 10  1  0  0  0  0
 11  9  1  0  0  0  0
 12  9  1  0  0  0  0
 13  3  1  0  0  0  0
 14 15  1  0  0  0  0
 14 13  1  0  0  0  0
 15 13  1  0  0  0  0
M  END
>  <minimizedAffinity>
-4.36814165

>  <minimizedRMSD>
1.81194818

$$$$
