
 OpenBabel03272510343D

 22 24  0  0  0  0  0  0  0  0999 V2000
   36.3120   30.1620   47.9800 C   0  0  0  0  0  0  0  0  0  0  0  0
   35.2080   30.1080   47.1510 C   0  0  0  0  0  0  0  0  0  0  0  0
   34.0800   29.4140   47.5220 C   0  0  0  0  0  0  0  0  0  0  0  0
   34.0700   28.7740   48.7340 C   0  0  0  0  0  0  0  0  0  0  0  0
   35.1620   28.8080   49.5880 C   0  0  0  0  0  0  0  0  0  0  0  0
   36.3100   29.5100   49.2180 C   0  0  0  0  0  0  0  0  0  0  0  0
   35.2410   30.6280   46.1900 H   0  0  0  0  0  0  0  0  0  0  0  0
   33.2530   29.4170   46.8220 H   0  0  0  0  0  0  0  0  0  0  0  0
   33.1750   28.2350   49.0070 H   0  0  0  0  0  0  0  0  0  0  0  0
   35.1650   28.3030   50.5510 H   0  0  0  0  0  0  0  0  0  0  0  0
   38.7740   32.8380   47.7430 C   0  0  0  0  0  0  0  0  0  0  0  0
   39.6300   32.4360   46.7200 C   0  0  0  0  0  0  0  0  0  0  0  0
   39.3440   31.1950   46.0930 C   0  0  0  0  0  0  0  0  0  0  0  0
   38.2680   30.4900   46.5230 N   0  0  0  0  0  0  0  0  0  0  0  0
   37.4770   30.9230   47.5120 C   0  0  0  0  0  0  0  0  0  0  0  0
   37.7380   32.0940   48.1130 N   0  0  0  0  0  0  0  0  0  0  0  0
   39.0590   33.7820   48.1640 H   0  0  0  0  0  0  0  0  0  0  0  0
   40.4960   32.9130   46.3100 H   0  0  0  0  0  0  0  0  0  0  0  0
   39.8900   30.7220   45.2870 H   0  0  0  0  0  0  0  0  0  0  0  0
   37.5300   29.6090   50.0600 C   0  0  0  0  0  3  0  0  0  0  0  0
   37.4820   30.4870   51.2930 C   0  0  0  0  0  2  0  0  0  0  0  0
   37.5640   28.9950   51.4060 C   0  0  0  0  0  2  0  0  0  0  0  0
  1  6  1  0  0  0  0
  2  3  1  0  0  0  0
  2  1  2  0  0  0  0
  3  4  2  0  0  0  0
  4  9  1  0  0  0  0
  4  5  1  0  0  0  0
  5 10  1  0  0  0  0
  6  5  2  0  0  0  0
  6 20  1  0  0  0  0
  7  2  1  0  0  0  0
  8  3  1  0  0  0  0
 11 16  1  0  0  0  0
 11 17  1  0  0  0  0
 12 11  2  0  0  0  0
 13 14  2  0  0  0  0
 13 12  1  0  0  0  0
 14 15  1  0  0  0  0
 15  1  1  0  0  0  0
 15 16  2  0  0  0  0
 18 12  1  0  0  0  0
 19 13  1  0  0  0  0
 20 21  1  0  0  0  0
 20 22  1  0  0  0  0
 21 22  1  0  0  0  0
M  END
>  <minimizedAffinity>
-5.58742332

>  <minimizedRMSD>
1.25721407

$$$$
