REMARK  Name = 
REMARK  2 active torsions:
REMARK  status: ('A' for Active; 'I' for Inactive)
REMARK    1  A    between atoms: C_2  and  C_12
REMARK    2  A    between atoms: C_6  and  C_23
REMARK                            x       y       z     vdW  Elec       q    Type
REMARK                         _______ _______ _______ _____ _____    ______ ____
ROOT
ATOM      1  C   UNL     1      37.061  30.716  46.774  0.00  0.00    +0.000 A 
ATOM      2  C   UNL     1      37.702  31.140  47.923  0.00  0.00    +0.000 A 
ATOM      3  C   UNL     1      38.712  32.060  47.831  0.00  0.00    +0.000 A 
ATOM      4  C   UNL     1      39.059  32.538  46.565  0.00  0.00    +0.000 A 
ATOM      5  N   UNL     1      40.025  33.446  46.258  0.00  0.00    +0.000 N 
ATOM      6  C   UNL     1      39.989  33.589  44.928  0.00  0.00    +0.000 A 
ATOM      7  N   UNL     1      39.040  32.807  44.395  0.00  0.00    +0.000 NA
ATOM      8  C   UNL     1      38.437  32.134  45.395  0.00  0.00    +0.000 A 
ATOM      9  C   UNL     1      37.419  31.203  45.516  0.00  0.00    +0.000 A 
ATOM     10  H   UNL     1      36.249  29.989  46.758  0.00  0.00    +0.000 HD
ATOM     11  H   UNL     1      39.227  32.405  48.717  0.00  0.00    +0.000 HD
ATOM     12  H   UNL     1      40.657  33.926  46.925  0.00  0.00    +0.000 HD
ATOM     13  H   UNL     1      36.920  30.874  44.617  0.00  0.00    +0.000 HD
ENDROOT
BRANCH   2  16
ATOM     14  C   UNL     1      37.389  30.163  51.539  0.00  0.00    +0.000 A 
ATOM     15  C   UNL     1      37.913  30.759  50.385  0.00  0.00    +0.000 A 
ATOM     16  C   UNL     1      37.257  30.575  49.184  0.00  0.00    +0.000 A 
ATOM     17  N   UNL     1      36.122  29.816  49.170  0.00  0.00    +0.000 NA
ATOM     18  C   UNL     1      35.627  29.245  50.300  0.00  0.00    +0.000 A 
ATOM     19  N   UNL     1      36.260  29.420  51.474  0.00  0.00    +0.000 NA
ATOM     20  H   UNL     1      37.947  30.346  52.440  0.00  0.00    +0.000 HD
ATOM     21  H   UNL     1      38.804  31.350  50.411  0.00  0.00    +0.000 HD
ATOM     22  H   UNL     1      34.732  28.644  50.304  0.00  0.00    +0.000 HD
ENDBRANCH   2  16
BRANCH   6  23
ATOM     23  C   UNL     1      40.886  34.500  44.134  0.00  0.00    +0.000 C 
ATOM     24  C   UNL     1      41.551  35.557  45.017  0.00  0.00    +0.000 C 
ATOM     25  C   UNL     1      42.342  34.476  44.296  0.00  0.00    +0.000 C 
ENDBRANCH   6  23
TORSDOF 2
