
 OpenBabel03262520283D

 14 15  0  0  0  0  0  0  0  0999 V2000
   37.9430   24.3390   38.2580 C   0  0  0  0  0  0  0  0  0  0  0  0
   38.7700   23.2340   38.5300 C   0  0  0  0  0  0  0  0  0  0  0  0
   39.7130   22.8940   37.5420 C   0  0  0  0  0  0  0  0  0  0  0  0
   39.7730   23.6320   36.4070 N   0  0  0  0  0  0  0  0  0  0  0  0
   38.9570   24.6810   36.1970 C   0  0  0  0  0  0  0  0  0  0  0  0
   38.0520   25.0310   37.1120 N   0  0  0  0  0  0  0  0  0  0  0  0
   40.5490   21.7790   37.8120 N   0  0  0  0  0  0  0  0  0  0  0  0
   37.1930   24.6410   39.0000 H   0  0  0  0  0  0  0  0  0  0  0  0
   38.6470   22.7060   39.4660 H   0  0  0  0  0  0  0  0  0  0  0  0
   41.0820   21.6980   38.7250 H   0  0  0  0  0  0  0  0  0  0  0  0
   40.7570   20.9340   37.2050 H   0  0  0  0  0  0  0  0  0  0  0  0
   39.0580   25.4650   34.9350 C   0  0  0  0  0  3  0  0  0  0  0  0
   39.3300   26.9680   35.1400 C   0  0  0  0  0  2  0  0  0  0  0  0
   40.3400   26.0560   34.5110 C   0  0  0  0  0  2  0  0  0  0  0  0
  1  2  1  0  0  0  0
  1  8  1  0  0  0  0
  2  9  1  0  0  0  0
  3  7  1  0  0  0  0
  3  2  2  0  0  0  0
  4  3  1  0  0  0  0
  5  4  2  0  0  0  0
  5  6  1  0  0  0  0
  6  1  2  0  0  0  0
  7 10  1  0  0  0  0
 11  7  1  0  0  0  0
 12 13  1  0  0  0  0
 12  5  1  0  0  0  0
 14 12  1  0  0  0  0
 14 13  1  0  0  0  0
M  END
>  <minimizedAffinity>
-3.98470426

$$$$

 OpenBabel03262520283D

 14 15  0  0  0  0  0  0  0  0999 V2000
   40.4390   23.2900   35.9320 C   0  0  0  0  0  0  0  0  0  0  0  0
   39.9920   22.7060   37.1310 C   0  0  0  0  0  0  0  0  0  0  0  0
   38.8480   23.2770   37.7200 C   0  0  0  0  0  0  0  0  0  0  0  0
   38.2520   24.3330   37.1150 N   0  0  0  0  0  0  0  0  0  0  0  0
   38.7230   24.8520   35.9670 C   0  0  0  0  0  0  0  0  0  0  0  0
   39.8030   24.3370   35.3810 N   0  0  0  0  0  0  0  0  0  0  0  0
   38.3930   22.6920   38.9310 N   0  0  0  0  0  0  0  0  0  0  0  0
   41.3280   22.8770   35.4360 H   0  0  0  0  0  0  0  0  0  0  0  0
   40.5350   21.8640   37.5390 H   0  0  0  0  0  0  0  0  0  0  0  0
   38.2400   21.6470   39.0150 H   0  0  0  0  0  0  0  0  0  0  0  0
   38.1540   23.1600   39.8540 H   0  0  0  0  0  0  0  0  0  0  0  0
   38.0360   26.0140   35.3360 C   0  0  0  0  0  3  0  0  0  0  0  0
   38.5010   27.3870   35.8580 C   0  0  0  0  0  2  0  0  0  0  0  0
   38.7690   26.9390   34.4530 C   0  0  0  0  0  2  0  0  0  0  0  0
  1  2  1  0  0  0  0
  2  9  1  0  0  0  0
  2  3  2  0  0  0  0
  3  7  1  0  0  0  0
  4  3  1  0  0  0  0
  5  4  2  0  0  0  0
  6  1  2  0  0  0  0
  6  5  1  0  0  0  0
  7 10  1  0  0  0  0
  7 11  1  0  0  0  0
  8  1  1  0  0  0  0
 12 13  1  0  0  0  0
 12  5  1  0  0  0  0
 14 12  1  0  0  0  0
 14 13  1  0  0  0  0
M  END
>  <minimizedAffinity>
-3.90421772

$$$$

 OpenBabel03262520283D

 14 15  0  0  0  0  0  0  0  0999 V2000
   38.1140   24.9510   33.9710 C   0  0  0  0  0  0  0  0  0  0  0  0
   38.1700   26.3070   34.3420 C   0  0  0  0  0  0  0  0  0  0  0  0
   38.2760   26.5790   35.7190 C   0  0  0  0  0  0  0  0  0  0  0  0
   38.3180   25.5450   36.5940 N   0  0  0  0  0  0  0  0  0  0  0  0
   38.2610   24.2650   36.1850 C   0  0  0  0  0  0  0  0  0  0  0  0
   38.1600   23.9710   34.8890 N   0  0  0  0  0  0  0  0  0  0  0  0
   38.3320   27.9460   36.0990 N   0  0  0  0  0  0  0  0  0  0  0  0
   38.0300   24.6900   32.9080 H   0  0  0  0  0  0  0  0  0  0  0  0
   38.1290   27.0630   33.5700 H   0  0  0  0  0  0  0  0  0  0  0  0
   39.0150   28.6170   35.6430 H   0  0  0  0  0  0  0  0  0  0  0  0
   37.7600   28.4640   36.8270 H   0  0  0  0  0  0  0  0  0  0  0  0
   38.3110   23.1590   37.1820 C   0  0  0  0  0  3  0  0  0  0  0  0
   39.7240   22.8470   37.7130 C   0  0  0  0  0  2  0  0  0  0  0  0
   38.6550   23.4250   38.5910 C   0  0  0  0  0  2  0  0  0  0  0  0
  1  2  2  0  0  0  0
  1  6  1  0  0  0  0
  2  3  1  0  0  0  0
  3  7  1  0  0  0  0
  3  4  2  0  0  0  0
  5  4  1  0  0  0  0
  5 12  1  0  0  0  0
  6  5  2  0  0  0  0
  7 11  1  0  0  0  0
  8  1  1  0  0  0  0
  9  2  1  0  0  0  0
 10  7  1  0  0  0  0
 12 13  1  0  0  0  0
 12 14  1  0  0  0  0
 13 14  1  0  0  0  0
M  END
>  <minimizedAffinity>
-3.75660443

$$$$

 OpenBabel03262520283D

 14 15  0  0  0  0  0  0  0  0999 V2000
   41.9760   23.3350   35.8120 C   0  0  0  0  0  0  0  0  0  0  0  0
   42.5280   22.2360   36.4940 C   0  0  0  0  0  0  0  0  0  0  0  0
   41.6560   21.5060   37.3240 C   0  0  0  0  0  0  0  0  0  0  0  0
   40.3600   21.8910   37.4180 N   0  0  0  0  0  0  0  0  0  0  0  0
   39.8830   22.9510   36.7420 C   0  0  0  0  0  0  0  0  0  0  0  0
   40.6810   23.6650   35.9480 N   0  0  0  0  0  0  0  0  0  0  0  0
   42.2100   20.3960   38.0150 N   0  0  0  0  0  0  0  0  0  0  0  0
   42.6180   23.9340   35.1540 H   0  0  0  0  0  0  0  0  0  0  0  0
   43.5760   22.0070   36.3550 H   0  0  0  0  0  0  0  0  0  0  0  0
   42.7740   19.6570   37.5070 H   0  0  0  0  0  0  0  0  0  0  0  0
   42.1520   20.1520   39.0460 H   0  0  0  0  0  0  0  0  0  0  0  0
   38.4510   23.3390   36.8750 C   0  0  0  0  0  3  0  0  0  0  0  0
   38.1250   24.1370   38.1520 C   0  0  0  0  0  2  0  0  0  0  0  0
   38.0370   24.7510   36.7880 C   0  0  0  0  0  2  0  0  0  0  0  0
  1  6  2  0  0  0  0
  1  2  1  0  0  0  0
  2  3  2  0  0  0  0
  3  4  1  0  0  0  0
  3  7  1  0  0  0  0
  5 12  1  0  0  0  0
  5  4  2  0  0  0  0
  6  5  1  0  0  0  0
  7 11  1  0  0  0  0
  8  1  1  0  0  0  0
  9  2  1  0  0  0  0
 10  7  1  0  0  0  0
 12 13  1  0  0  0  0
 14 12  1  0  0  0  0
 14 13  1  0  0  0  0
M  END
>  <minimizedAffinity>
-3.73116827

$$$$

 OpenBabel03262520283D

 14 15  0  0  0  0  0  0  0  0999 V2000
   36.7680   21.3040   34.3070 C   0  0  0  0  0  0  0  0  0  0  0  0
   35.7400   20.7960   35.1220 C   0  0  0  0  0  0  0  0  0  0  0  0
   35.7340   21.2180   36.4650 C   0  0  0  0  0  0  0  0  0  0  0  0
   36.6960   22.0720   36.8920 N   0  0  0  0  0  0  0  0  0  0  0  0
   37.6570   22.5280   36.0680 C   0  0  0  0  0  0  0  0  0  0  0  0
   37.6930   22.1490   34.7910 N   0  0  0  0  0  0  0  0  0  0  0  0
   34.6990   20.7080   37.2920 N   0  0  0  0  0  0  0  0  0  0  0  0
   36.8130   21.0020   33.2530 H   0  0  0  0  0  0  0  0  0  0  0  0
   35.0160   20.1170   34.6910 H   0  0  0  0  0  0  0  0  0  0  0  0
   33.6820   20.7550   36.9950 H   0  0  0  0  0  0  0  0  0  0  0  0
   34.7680   20.2460   38.2450 H   0  0  0  0  0  0  0  0  0  0  0  0
   38.6940   23.4670   36.5800 C   0  0  0  0  0  3  0  0  0  0  0  0
   39.8280   22.7890   37.3740 C   0  0  0  0  0  2  0  0  0  0  0  0
   40.0690   23.4410   36.0460 C   0  0  0  0  0  2  0  0  0  0  0  0
  1  6  2  0  0  0  0
  1  2  1  0  0  0  0
  2  3  2  0  0  0  0
  3  4  1  0  0  0  0
  3  7  1  0  0  0  0
  5 12  1  0  0  0  0
  5  4  2  0  0  0  0
  6  5  1  0  0  0  0
  7 11  1  0  0  0  0
  8  1  1  0  0  0  0
  9  2  1  0  0  0  0
 10  7  1  0  0  0  0
 12 13  1  0  0  0  0
 14 12  1  0  0  0  0
 14 13  1  0  0  0  0
M  END
>  <minimizedAffinity>
-3.71417499

$$$$

 OpenBabel03262520283D

 14 15  0  0  0  0  0  0  0  0999 V2000
   35.6410   28.9990   33.3700 C   0  0  0  0  0  0  0  0  0  0  0  0
   35.5320   28.5860   32.0300 C   0  0  0  0  0  0  0  0  0  0  0  0
   36.2480   27.4290   31.6670 C   0  0  0  0  0  0  0  0  0  0  0  0
   36.9870   26.7900   32.6070 N   0  0  0  0  0  0  0  0  0  0  0  0
   37.0560   27.2300   33.8760 C   0  0  0  0  0  0  0  0  0  0  0  0
   36.3910   28.3210   34.2540 N   0  0  0  0  0  0  0  0  0  0  0  0
   36.1420   27.0080   30.3160 N   0  0  0  0  0  0  0  0  0  0  0  0
   35.1000   29.8960   33.6980 H   0  0  0  0  0  0  0  0  0  0  0  0
   34.9170   29.1620   31.3520 H   0  0  0  0  0  0  0  0  0  0  0  0
   35.1990   26.8930   29.8470 H   0  0  0  0  0  0  0  0  0  0  0  0
   36.9120   26.7630   29.6270 H   0  0  0  0  0  0  0  0  0  0  0  0
   37.8800   26.4950   34.8770 C   0  0  0  0  0  3  0  0  0  0  0  0
   39.3390   26.9820   34.9780 C   0  0  0  0  0  2  0  0  0  0  0  0
   38.3610   27.1640   36.0990 C   0  0  0  0  0  2  0  0  0  0  0  0
  1  8  1  0  0  0  0
  1  6  1  0  0  0  0
  2  1  2  0  0  0  0
  3  2  1  0  0  0  0
  3  4  2  0  0  0  0
  4  5  1  0  0  0  0
  5  6  2  0  0  0  0
  5 12  1  0  0  0  0
  7  3  1  0  0  0  0
  9  2  1  0  0  0  0
 10  7  1  0  0  0  0
 11  7  1  0  0  0  0
 12 13  1  0  0  0  0
 12 14  1  0  0  0  0
 13 14  1  0  0  0  0
M  END
>  <minimizedAffinity>
-3.55972099

$$$$

 OpenBabel03262520283D

 14 15  0  0  0  0  0  0  0  0999 V2000
   40.7100   23.5290   34.6400 C   0  0  0  0  0  0  0  0  0  0  0  0
   40.9820   22.6220   35.6810 C   0  0  0  0  0  0  0  0  0  0  0  0
   40.1730   22.7200   36.8290 C   0  0  0  0  0  0  0  0  0  0  0  0
   39.1980   23.6600   36.8700 N   0  0  0  0  0  0  0  0  0  0  0  0
   38.9800   24.5030   35.8440 C   0  0  0  0  0  0  0  0  0  0  0  0
   39.7270   24.4380   34.7420 N   0  0  0  0  0  0  0  0  0  0  0  0
   40.4440   21.8080   37.8830 N   0  0  0  0  0  0  0  0  0  0  0  0
   41.3160   23.4900   33.7260 H   0  0  0  0  0  0  0  0  0  0  0  0
   41.7840   21.9070   35.5570 H   0  0  0  0  0  0  0  0  0  0  0  0
   40.5240   20.7660   37.7030 H   0  0  0  0  0  0  0  0  0  0  0  0
   40.5930   22.0010   38.9160 H   0  0  0  0  0  0  0  0  0  0  0  0
   37.8960   25.5200   35.9310 C   0  0  0  0  0  3  0  0  0  0  0  0
   38.3950   26.9640   36.1330 C   0  0  0  0  0  2  0  0  0  0  0  0
   37.7160   26.5280   34.8700 C   0  0  0  0  0  2  0  0  0  0  0  0
  1  6  2  0  0  0  0
  1  2  1  0  0  0  0
  2  3  2  0  0  0  0
  3  4  1  0  0  0  0
  3  7  1  0  0  0  0
  5 12  1  0  0  0  0
  5  4  2  0  0  0  0
  6  5  1  0  0  0  0
  7 11  1  0  0  0  0
  8  1  1  0  0  0  0
  9  2  1  0  0  0  0
 10  7  1  0  0  0  0
 12 13  1  0  0  0  0
 14 12  1  0  0  0  0
 14 13  1  0  0  0  0
M  END
>  <minimizedAffinity>
-3.52801013

$$$$

 OpenBabel03262520283D

 14 15  0  0  0  0  0  0  0  0999 V2000
   38.4550   24.6980   36.2930 C   0  0  0  0  0  0  0  0  0  0  0  0
   37.9490   24.1380   37.4800 C   0  0  0  0  0  0  0  0  0  0  0  0
   38.7310   23.1380   38.0890 C   0  0  0  0  0  0  0  0  0  0  0  0
   39.9030   22.7770   37.5130 N   0  0  0  0  0  0  0  0  0  0  0  0
   40.3410   23.3460   36.3760 C   0  0  0  0  0  0  0  0  0  0  0  0
   39.6260   24.2960   35.7730 N   0  0  0  0  0  0  0  0  0  0  0  0
   38.2230   22.5700   39.2870 N   0  0  0  0  0  0  0  0  0  0  0  0
   37.8800   25.4810   35.7840 H   0  0  0  0  0  0  0  0  0  0  0  0
   37.0020   24.4920   37.8640 H   0  0  0  0  0  0  0  0  0  0  0  0
   37.8990   23.1790   40.0920 H   0  0  0  0  0  0  0  0  0  0  0  0
   38.1010   21.5480   39.5450 H   0  0  0  0  0  0  0  0  0  0  0  0
   41.6360   22.9180   35.7780 C   0  0  0  0  0  3  0  0  0  0  0  0
   42.8510   23.7530   36.2270 C   0  0  0  0  0  2  0  0  0  0  0  0
   42.6920   22.3130   36.6110 C   0  0  0  0  0  2  0  0  0  0  0  0
  1  2  1  0  0  0  0
  2  9  1  0  0  0  0
  2  3  2  0  0  0  0
  3  7  1  0  0  0  0
  4  3  1  0  0  0  0
  5  4  2  0  0  0  0
  6  1  2  0  0  0  0
  6  5  1  0  0  0  0
  7 11  1  0  0  0  0
  7 10  1  0  0  0  0
  8  1  1  0  0  0  0
 12 13  1  0  0  0  0
 12  5  1  0  0  0  0
 12 14  1  0  0  0  0
 13 14  1  0  0  0  0
M  END
>  <minimizedAffinity>
-3.5024569

$$$$

 OpenBabel03262520283D

 14 15  0  0  0  0  0  0  0  0999 V2000
   38.8360   27.2980   35.6250 C   0  0  0  0  0  0  0  0  0  0  0  0
   39.6830   26.9390   34.5610 C   0  0  0  0  0  0  0  0  0  0  0  0
   39.9270   25.5630   34.3860 C   0  0  0  0  0  0  0  0  0  0  0  0
   39.3450   24.6790   35.2320 N   0  0  0  0  0  0  0  0  0  0  0  0
   38.5420   25.0770   36.2350 C   0  0  0  0  0  0  0  0  0  0  0  0
   38.2890   26.3710   36.4290 N   0  0  0  0  0  0  0  0  0  0  0  0
   40.7820   25.1960   33.3140 N   0  0  0  0  0  0  0  0  0  0  0  0
   38.6170   28.3590   35.7990 H   0  0  0  0  0  0  0  0  0  0  0  0
   40.1010   27.7180   33.9380 H   0  0  0  0  0  0  0  0  0  0  0  0
   40.6240   25.5630   32.3330 H   0  0  0  0  0  0  0  0  0  0  0  0
   41.6290   24.5570   33.3210 H   0  0  0  0  0  0  0  0  0  0  0  0
   37.9230   24.0700   37.1410 C   0  0  0  0  0  3  0  0  0  0  0  0
   38.9220   23.3500   38.0670 C   0  0  0  0  0  2  0  0  0  0  0  0
   37.8800   24.2870   38.5990 C   0  0  0  0  0  2  0  0  0  0  0  0
  1  8  1  0  0  0  0
  1  6  1  0  0  0  0
  2  1  2  0  0  0  0
  3  2  1  0  0  0  0
  3  4  2  0  0  0  0
  4  5  1  0  0  0  0
  5  6  2  0  0  0  0
  5 12  1  0  0  0  0
  7 11  1  0  0  0  0
  7  3  1  0  0  0  0
  9  2  1  0  0  0  0
 10  7  1  0  0  0  0
 12 13  1  0  0  0  0
 12 14  1  0  0  0  0
 13 14  1  0  0  0  0
M  END
>  <minimizedAffinity>
-3.49704027

$$$$
