
 OpenBabel03272505133D

 33 36  0  0  0  0  0  0  0  0999 V2000
   36.4110   30.8990   45.6980 Cl  0  0  0  0  0  0  0  0  0  0  0  0
   36.6920   30.7740   47.4140 C   0  0  0  0  0  0  0  0  0  0  0  0
   37.9480   31.1020   47.8790 C   0  0  0  0  0  0  0  0  0  0  0  0
   38.1800   31.0050   49.2390 C   0  0  0  0  0  0  0  0  0  0  0  0
   37.1890   30.5970   50.0740 C   0  0  0  0  0  0  0  0  0  0  0  0
   35.9340   30.2770   49.5420 C   0  0  0  0  0  0  0  0  0  0  0  0
   35.6290   30.3480   48.2120 C   0  0  0  0  0  0  0  0  0  0  0  0
   39.1640   31.2620   49.6110 H   0  0  0  0  0  0  0  0  0  0  0  0
   37.3960   30.5310   51.1260 H   0  0  0  0  0  0  0  0  0  0  0  0
   35.1530   29.9520   50.2260 H   0  0  0  0  0  0  0  0  0  0  0  0
   40.2100   33.3210   46.0780 C   0  0  0  0  0  0  0  0  0  0  0  0
   40.9250   32.4660   45.2160 C   0  0  0  0  0  0  0  0  0  0  0  0
   40.6090   31.1040   45.2710 C   0  0  0  0  0  0  0  0  0  0  0  0
   39.6420   30.6850   46.1400 N   0  0  0  0  0  0  0  0  0  0  0  0
   38.9970   31.5430   46.9330 C   0  0  0  0  0  0  0  0  0  0  0  0
   39.2770   32.8450   46.9030 N   0  0  0  0  0  0  0  0  0  0  0  0
   40.4920   34.3610   45.9970 H   0  0  0  0  0  0  0  0  0  0  0  0
   41.6860   32.7150   44.5170 H   0  0  0  0  0  0  0  0  0  0  0  0
   41.0730   30.3390   44.6720 H   0  0  0  0  0  0  0  0  0  0  0  0
   34.0630   29.9520   47.5220 S   0  0  0  0  0  0  0  0  0  0  0  0
   33.7870   29.1880   44.4870 Cl  0  0  0  0  0  0  0  0  0  0  0  0
   33.8070   27.9490   45.7350 C   0  0  0  0  0  0  0  0  0  0  0  0
   33.9270   28.2140   47.0980 C   0  0  0  0  0  0  0  0  0  0  0  0
   33.9320   27.1750   47.9950 C   0  0  0  0  0  0  0  0  0  0  0  0
   33.8220   25.8860   47.5650 C   0  0  0  0  0  0  0  0  0  0  0  0
   33.7020   25.5740   46.2260 C   0  0  0  0  0  0  0  0  0  0  0  0
   33.6980   26.6170   45.3450 C   0  0  0  0  0  0  0  0  0  0  0  0
   34.0290   27.4860   49.0270 H   0  0  0  0  0  0  0  0  0  0  0  0
   33.8330   25.1120   48.3210 H   0  0  0  0  0  0  0  0  0  0  0  0
   33.6180   24.5470   45.9430 H   0  0  0  0  0  0  0  0  0  0  0  0
   33.5690   26.3200   43.8950 C   0  0  0  0  0  3  0  0  0  0  0  0
   34.7800   25.8400   43.1870 C   0  0  0  0  0  2  0  0  0  0  0  0
   33.5880   24.8830   43.4230 C   0  0  0  0  0  2  0  0  0  0  0  0
  1  2  1  0  0  0  0
  2  3  2  0  0  0  0
  2  7  1  0  0  0  0
  3  4  1  0  0  0  0
  4  8  1  0  0  0  0
  4  5  2  0  0  0  0
  5  9  1  0  0  0  0
  6  5  1  0  0  0  0
  6 10  1  0  0  0  0
  7  6  2  0  0  0  0
 11 16  1  0  0  0  0
 12 13  1  0  0  0  0
 12 11  2  0  0  0  0
 13 14  2  0  0  0  0
 14 15  1  0  0  0  0
 15  3  1  0  0  0  0
 16 15  2  0  0  0  0
 17 11  1  0  0  0  0
 18 12  1  0  0  0  0
 19 13  1  0  0  0  0
 20  7  1  0  0  0  0
 21 22  1  0  0  0  0
 22 23  1  0  0  0  0
 23 20  1  0  0  0  0
 23 24  2  0  0  0  0
 24 28  1  0  0  0  0
 25 24  1  0  0  0  0
 25 29  1  0  0  0  0
 26 25  2  0  0  0  0
 27 22  2  0  0  0  0
 27 26  1  0  0  0  0
 30 26  1  0  0  0  0
 31 27  1  0  0  0  0
 32 33  1  0  0  0  0
 32 31  1  0  0  0  0
 33 31  1  0  0  0  0
M  END
>  <minimizedAffinity>
-5.64504671

>  <minimizedRMSD>
0.751453936

$$$$
