
 OpenBabel03272505133D

 33 36  0  0  0  0  0  0  0  0999 V2000
   37.9410   25.1030   32.1700 Cl  0  0  0  0  0  0  0  0  0  0  0  0
   38.1230   25.7730   33.7690 C   0  0  0  0  0  0  0  0  0  0  0  0
   37.7490   27.0880   33.9550 C   0  0  0  0  0  0  0  0  0  0  0  0
   37.8910   27.6270   35.2210 C   0  0  0  0  0  0  0  0  0  0  0  0
   38.3860   26.8700   36.2350 C   0  0  0  0  0  0  0  0  0  0  0  0
   38.7480   25.5420   35.9830 C   0  0  0  0  0  0  0  0  0  0  0  0
   38.6380   24.9390   34.7630 C   0  0  0  0  0  0  0  0  0  0  0  0
   37.5990   28.6580   35.3740 H   0  0  0  0  0  0  0  0  0  0  0  0
   38.4850   27.3140   37.2090 H   0  0  0  0  0  0  0  0  0  0  0  0
   39.1430   24.9520   36.8080 H   0  0  0  0  0  0  0  0  0  0  0  0
   35.4090   29.0340   31.9510 C   0  0  0  0  0  0  0  0  0  0  0  0
   36.1250   29.3410   30.7780 C   0  0  0  0  0  0  0  0  0  0  0  0
   37.4370   28.8610   30.6940 C   0  0  0  0  0  0  0  0  0  0  0  0
   37.9420   28.1340   31.7330 N   0  0  0  0  0  0  0  0  0  0  0  0
   37.2140   27.8730   32.8220 C   0  0  0  0  0  0  0  0  0  0  0  0
   35.9630   28.3180   32.9300 N   0  0  0  0  0  0  0  0  0  0  0  0
   34.4020   29.4290   31.9670 H   0  0  0  0  0  0  0  0  0  0  0  0
   35.8030   29.8980   29.9310 H   0  0  0  0  0  0  0  0  0  0  0  0
   38.0980   29.0190   29.8590 H   0  0  0  0  0  0  0  0  0  0  0  0
   39.0860   23.2740   34.4240 S   0  0  0  0  0  0  0  0  0  0  0  0
   38.0620   21.7670   31.8640 Cl  0  0  0  0  0  0  0  0  0  0  0  0
   37.3010   21.5150   33.4300 C   0  0  0  0  0  0  0  0  0  0  0  0
   37.7010   22.1480   34.6050 C   0  0  0  0  0  0  0  0  0  0  0  0
   37.0410   21.8830   35.7790 C   0  0  0  0  0  0  0  0  0  0  0  0
   35.9970   21.0070   35.8060 C   0  0  0  0  0  0  0  0  0  0  0  0
   35.5640   20.3560   34.6690 C   0  0  0  0  0  0  0  0  0  0  0  0
   36.2290   20.6280   33.5090 C   0  0  0  0  0  0  0  0  0  0  0  0
   37.4280   22.4240   36.6320 H   0  0  0  0  0  0  0  0  0  0  0  0
   35.5180   20.8410   36.7620 H   0  0  0  0  0  0  0  0  0  0  0  0
   34.7400   19.6800   34.7460 H   0  0  0  0  0  0  0  0  0  0  0  0
   35.7920   19.9480   32.2630 C   0  0  0  0  0  3  0  0  0  0  0  0
   35.1940   18.5980   32.3960 C   0  0  0  0  0  2  0  0  0  0  0  0
   34.3130   19.7990   31.9770 C   0  0  0  0  0  2  0  0  0  0  0  0
  1  2  1  0  0  0  0
  2  3  2  0  0  0  0
  2  7  1  0  0  0  0
  3  4  1  0  0  0  0
  4  8  1  0  0  0  0
  4  5  2  0  0  0  0
  5  9  1  0  0  0  0
  6  5  1  0  0  0  0
  6 10  1  0  0  0  0
  7  6  2  0  0  0  0
 11 17  1  0  0  0  0
 11 16  1  0  0  0  0
 12 11  2  0  0  0  0
 13 12  1  0  0  0  0
 13 14  2  0  0  0  0
 14 15  1  0  0  0  0
 15 16  2  0  0  0  0
 15  3  1  0  0  0  0
 18 12  1  0  0  0  0
 19 13  1  0  0  0  0
 20 23  1  0  0  0  0
 20  7  1  0  0  0  0
 21 22  1  0  0  0  0
 22 27  2  0  0  0  0
 22 23  1  0  0  0  0
 23 24  2  0  0  0  0
 24 25  1  0  0  0  0
 24 28  1  0  0  0  0
 25 29  1  0  0  0  0
 26 30  1  0  0  0  0
 26 25  2  0  0  0  0
 27 26  1  0  0  0  0
 31 32  1  0  0  0  0
 31 27  1  0  0  0  0
 33 31  1  0  0  0  0
 33 32  1  0  0  0  0
M  END
>  <minimizedAffinity>
-5.91810703

$$$$

 OpenBabel03272505133D

 33 36  0  0  0  0  0  0  0  0999 V2000
   39.2240   23.4180   33.2750 Cl  0  0  0  0  0  0  0  0  0  0  0  0
   38.3490   24.9000   33.5520 C   0  0  0  0  0  0  0  0  0  0  0  0
   38.1470   25.2840   34.8610 C   0  0  0  0  0  0  0  0  0  0  0  0
   37.4530   26.4590   35.0900 C   0  0  0  0  0  0  0  0  0  0  0  0
   36.9920   27.1960   34.0450 C   0  0  0  0  0  0  0  0  0  0  0  0
   37.2290   26.7520   32.7390 C   0  0  0  0  0  0  0  0  0  0  0  0
   37.9050   25.6060   32.4320 C   0  0  0  0  0  0  0  0  0  0  0  0
   37.2910   26.7670   36.1150 H   0  0  0  0  0  0  0  0  0  0  0  0
   36.4570   28.1040   34.2520 H   0  0  0  0  0  0  0  0  0  0  0  0
   36.8520   27.3550   31.9150 H   0  0  0  0  0  0  0  0  0  0  0  0
   38.2540   23.5090   38.0420 C   0  0  0  0  0  0  0  0  0  0  0  0
   39.5340   22.9220   38.0710 C   0  0  0  0  0  0  0  0  0  0  0  0
   40.3610   23.1520   36.9660 C   0  0  0  0  0  0  0  0  0  0  0  0
   39.8920   23.9200   35.9390 N   0  0  0  0  0  0  0  0  0  0  0  0
   38.6680   24.4520   35.9670 C   0  0  0  0  0  0  0  0  0  0  0  0
   37.8580   24.2490   37.0060 N   0  0  0  0  0  0  0  0  0  0  0  0
   37.6550   23.3010   38.9180 H   0  0  0  0  0  0  0  0  0  0  0  0
   39.9680   22.3160   38.8290 H   0  0  0  0  0  0  0  0  0  0  0  0
   41.3600   22.7670   36.8530 H   0  0  0  0  0  0  0  0  0  0  0  0
   38.2130   25.0300   30.8020 S   0  0  0  0  0  0  0  0  0  0  0  0
   35.4800   23.7950   31.7380 Cl  0  0  0  0  0  0  0  0  0  0  0  0
   36.7600   22.7770   31.0890 C   0  0  0  0  0  0  0  0  0  0  0  0
   37.9950   23.2560   30.6550 C   0  0  0  0  0  0  0  0  0  0  0  0
   38.9290   22.3780   30.1640 C   0  0  0  0  0  0  0  0  0  0  0  0
   38.6610   21.0440   30.0960 C   0  0  0  0  0  0  0  0  0  0  0  0
   37.4520   20.5230   30.5130 C   0  0  0  0  0  0  0  0  0  0  0  0
   36.5330   21.4060   30.9990 C   0  0  0  0  0  0  0  0  0  0  0  0
   39.8530   22.8490   29.8540 H   0  0  0  0  0  0  0  0  0  0  0  0
   39.4380   20.4040   29.6990 H   0  0  0  0  0  0  0  0  0  0  0  0
   37.2940   19.4690   30.4390 H   0  0  0  0  0  0  0  0  0  0  0  0
   35.2200   20.8830   31.4590 C   0  0  0  0  0  3  0  0  0  0  0  0
   35.1280   19.4330   31.7520 C   0  0  0  0  0  2  0  0  0  0  0  0
   35.0510   20.4630   32.9030 C   0  0  0  0  0  2  0  0  0  0  0  0
  1  2  1  0  0  0  0
  2  3  1  0  0  0  0
  3  4  2  0  0  0  0
  3 15  1  0  0  0  0
  4  8  1  0  0  0  0
  5  9  1  0  0  0  0
  5  4  1  0  0  0  0
  6  5  2  0  0  0  0
  7  6  1  0  0  0  0
  7  2  2  0  0  0  0
 10  6  1  0  0  0  0
 11 12  1  0  0  0  0
 11 17  1  0  0  0  0
 12 18  1  0  0  0  0
 13 12  2  0  0  0  0
 14 15  2  0  0  0  0
 14 13  1  0  0  0  0
 15 16  1  0  0  0  0
 16 11  2  0  0  0  0
 19 13  1  0  0  0  0
 20  7  1  0  0  0  0
 22 21  1  0  0  0  0
 23 20  1  0  0  0  0
 23 22  2  0  0  0  0
 24 23  1  0  0  0  0
 25 24  2  0  0  0  0
 25 26  1  0  0  0  0
 26 27  2  0  0  0  0
 27 22  1  0  0  0  0
 27 31  1  0  0  0  0
 28 24  1  0  0  0  0
 29 25  1  0  0  0  0
 30 26  1  0  0  0  0
 31 32  1  0  0  0  0
 31 33  1  0  0  0  0
 32 33  1  0  0  0  0
M  END
>  <minimizedAffinity>
-5.72758341

$$$$

 OpenBabel03272505133D

 33 36  0  0  0  0  0  0  0  0999 V2000
   38.4190   22.9360   33.7090 Cl  0  0  0  0  0  0  0  0  0  0  0  0
   37.8710   24.5850   33.8470 C   0  0  0  0  0  0  0  0  0  0  0  0
   37.9320   25.1740   35.0930 C   0  0  0  0  0  0  0  0  0  0  0  0
   37.4990   26.4820   35.2120 C   0  0  0  0  0  0  0  0  0  0  0  0
   37.0300   27.1490   34.1240 C   0  0  0  0  0  0  0  0  0  0  0  0
   36.9930   26.4960   32.8860 C   0  0  0  0  0  0  0  0  0  0  0  0
   37.4020   25.2080   32.6890 C   0  0  0  0  0  0  0  0  0  0  0  0
   37.5440   26.9500   36.1870 H   0  0  0  0  0  0  0  0  0  0  0  0
   36.7000   28.1640   34.2440 H   0  0  0  0  0  0  0  0  0  0  0  0
   36.6140   27.0460   32.0270 H   0  0  0  0  0  0  0  0  0  0  0  0
   40.1750   23.1210   37.1030 C   0  0  0  0  0  0  0  0  0  0  0  0
   39.5040   22.9710   38.3320 C   0  0  0  0  0  0  0  0  0  0  0  0
   38.2570   23.5960   38.4520 C   0  0  0  0  0  0  0  0  0  0  0  0
   37.7680   24.3030   37.3920 N   0  0  0  0  0  0  0  0  0  0  0  0
   38.4500   24.4100   36.2490 C   0  0  0  0  0  0  0  0  0  0  0  0
   39.6390   23.8270   36.1060 N   0  0  0  0  0  0  0  0  0  0  0  0
   41.1320   22.6200   37.0610 H   0  0  0  0  0  0  0  0  0  0  0  0
   39.8170   22.4400   39.1980 H   0  0  0  0  0  0  0  0  0  0  0  0
   37.6350   23.5650   39.3300 H   0  0  0  0  0  0  0  0  0  0  0  0
   37.3650   24.3700   31.1460 S   0  0  0  0  0  0  0  0  0  0  0  0
   38.9120   21.9340   29.9020 Cl  0  0  0  0  0  0  0  0  0  0  0  0
   37.3610   21.7110   30.7010 C   0  0  0  0  0  0  0  0  0  0  0  0
   36.6200   22.7430   31.2750 C   0  0  0  0  0  0  0  0  0  0  0  0
   35.4180   22.4650   31.8760 C   0  0  0  0  0  0  0  0  0  0  0  0
   34.9420   21.1890   31.9180 C   0  0  0  0  0  0  0  0  0  0  0  0
   35.6390   20.1330   31.3650 C   0  0  0  0  0  0  0  0  0  0  0  0
   36.8320   20.4240   30.7700 C   0  0  0  0  0  0  0  0  0  0  0  0
   34.9230   23.3330   32.2890 H   0  0  0  0  0  0  0  0  0  0  0  0
   33.9880   21.0340   32.4060 H   0  0  0  0  0  0  0  0  0  0  0  0
   35.2190   19.1520   31.4250 H   0  0  0  0  0  0  0  0  0  0  0  0
   37.6110   19.3140   30.1620 C   0  0  0  0  0  3  0  0  0  0  0  0
   36.8550   18.1360   29.6760 C   0  0  0  0  0  2  0  0  0  0  0  0
   37.5410   19.0880   28.6670 C   0  0  0  0  0  2  0  0  0  0  0  0
  1  2  1  0  0  0  0
  2  3  1  0  0  0  0
  3  4  2  0  0  0  0
  3 15  1  0  0  0  0
  4  8  1  0  0  0  0
  5  9  1  0  0  0  0
  5  4  1  0  0  0  0
  6  5  2  0  0  0  0
  7  6  1  0  0  0  0
  7  2  2  0  0  0  0
 10  6  1  0  0  0  0
 11 12  1  0  0  0  0
 12 13  2  0  0  0  0
 12 18  1  0  0  0  0
 13 19  1  0  0  0  0
 14 13  1  0  0  0  0
 15 14  2  0  0  0  0
 16 15  1  0  0  0  0
 16 11  2  0  0  0  0
 17 11  1  0  0  0  0
 20 23  1  0  0  0  0
 20  7  1  0  0  0  0
 21 22  1  0  0  0  0
 22 27  2  0  0  0  0
 22 23  1  0  0  0  0
 23 24  2  0  0  0  0
 24 25  1  0  0  0  0
 24 28  1  0  0  0  0
 25 29  1  0  0  0  0
 26 30  1  0  0  0  0
 26 25  2  0  0  0  0
 27 26  1  0  0  0  0
 31 27  1  0  0  0  0
 32 31  1  0  0  0  0
 33 32  1  0  0  0  0
 33 31  1  0  0  0  0
M  END
>  <minimizedAffinity>
-5.72660208

$$$$

 OpenBabel03272505133D

 33 36  0  0  0  0  0  0  0  0999 V2000
   36.5530   27.6080   34.8810 Cl  0  0  0  0  0  0  0  0  0  0  0  0
   36.5760   28.3020   33.2820 C   0  0  0  0  0  0  0  0  0  0  0  0
   35.9360   29.5100   33.1030 C   0  0  0  0  0  0  0  0  0  0  0  0
   35.9490   30.0680   31.8380 C   0  0  0  0  0  0  0  0  0  0  0  0
   36.5780   29.4300   30.8160 C   0  0  0  0  0  0  0  0  0  0  0  0
   37.2110   28.2050   31.0600 C   0  0  0  0  0  0  0  0  0  0  0  0
   37.2410   27.5920   32.2800 C   0  0  0  0  0  0  0  0  0  0  0  0
   35.4490   31.0160   31.6900 H   0  0  0  0  0  0  0  0  0  0  0  0
   36.5740   29.8860   29.8430 H   0  0  0  0  0  0  0  0  0  0  0  0
   37.7080   27.7090   30.2300 H   0  0  0  0  0  0  0  0  0  0  0  0
   33.2900   30.4760   35.4160 C   0  0  0  0  0  0  0  0  0  0  0  0
   33.9240   31.3400   36.3310 C   0  0  0  0  0  0  0  0  0  0  0  0
   35.2880   31.5810   36.1310 C   0  0  0  0  0  0  0  0  0  0  0  0
   35.9190   30.9790   35.0810 N   0  0  0  0  0  0  0  0  0  0  0  0
   35.2650   30.1690   34.2450 C   0  0  0  0  0  0  0  0  0  0  0  0
   33.9660   29.9200   34.4100 N   0  0  0  0  0  0  0  0  0  0  0  0
   32.2380   30.3230   35.6140 H   0  0  0  0  0  0  0  0  0  0  0  0
   33.5040   31.8430   37.1680 H   0  0  0  0  0  0  0  0  0  0  0  0
   35.8980   32.2170   36.7500 H   0  0  0  0  0  0  0  0  0  0  0  0
   38.0280   26.0570   32.6100 S   0  0  0  0  0  0  0  0  0  0  0  0
   38.4630   23.3450   34.1370 Cl  0  0  0  0  0  0  0  0  0  0  0  0
   37.2520   23.4870   32.8690 C   0  0  0  0  0  0  0  0  0  0  0  0
   37.0050   24.6560   32.1510 C   0  0  0  0  0  0  0  0  0  0  0  0
   36.0360   24.6650   31.1780 C   0  0  0  0  0  0  0  0  0  0  0  0
   35.3140   23.5420   30.9080 C   0  0  0  0  0  0  0  0  0  0  0  0
   35.5210   22.3610   31.5920 C   0  0  0  0  0  0  0  0  0  0  0  0
   36.4870   22.3660   32.5560 C   0  0  0  0  0  0  0  0  0  0  0  0
   35.9230   25.6190   30.6800 H   0  0  0  0  0  0  0  0  0  0  0  0
   34.5650   23.6130   30.1300 H   0  0  0  0  0  0  0  0  0  0  0  0
   34.9270   21.5090   31.3390 H   0  0  0  0  0  0  0  0  0  0  0  0
   36.7410   21.1130   33.3130 C   0  0  0  0  0  3  0  0  0  0  0  0
   35.7730   20.7490   34.3750 C   0  0  0  0  0  2  0  0  0  0  0  0
   35.8540   19.9090   33.0780 C   0  0  0  0  0  2  0  0  0  0  0  0
  2  1  1  0  0  0  0
  3  2  1  0  0  0  0
  3 15  1  0  0  0  0
  4  3  2  0  0  0  0
  5  6  2  0  0  0  0
  5  4  1  0  0  0  0
  6  7  1  0  0  0  0
  7 20  1  0  0  0  0
  7  2  2  0  0  0  0
  8  4  1  0  0  0  0
  9  5  1  0  0  0  0
 10  6  1  0  0  0  0
 11 17  1  0  0  0  0
 11 12  1  0  0  0  0
 12 18  1  0  0  0  0
 13 12  2  0  0  0  0
 13 19  1  0  0  0  0
 14 13  1  0  0  0  0
 15 16  1  0  0  0  0
 15 14  2  0  0  0  0
 16 11  2  0  0  0  0
 22 21  1  0  0  0  0
 23 20  1  0  0  0  0
 23 22  2  0  0  0  0
 24 23  1  0  0  0  0
 25 24  2  0  0  0  0
 25 26  1  0  0  0  0
 26 27  2  0  0  0  0
 27 22  1  0  0  0  0
 27 31  1  0  0  0  0
 28 24  1  0  0  0  0
 29 25  1  0  0  0  0
 30 26  1  0  0  0  0
 31 32  1  0  0  0  0
 33 31  1  0  0  0  0
 33 32  1  0  0  0  0
M  END
>  <minimizedAffinity>
-5.66739988

$$$$

 OpenBabel03272505133D

 33 36  0  0  0  0  0  0  0  0999 V2000
   39.2530   23.5980   33.5560 Cl  0  0  0  0  0  0  0  0  0  0  0  0
   37.8840   22.5190   33.5510 C   0  0  0  0  0  0  0  0  0  0  0  0
   37.4620   22.0200   34.7660 C   0  0  0  0  0  0  0  0  0  0  0  0
   36.3770   21.1630   34.7700 C   0  0  0  0  0  0  0  0  0  0  0  0
   35.7600   20.8340   33.6050 C   0  0  0  0  0  0  0  0  0  0  0  0
   36.2360   21.3730   32.4040 C   0  0  0  0  0  0  0  0  0  0  0  0
   37.3000   22.2250   32.3180 C   0  0  0  0  0  0  0  0  0  0  0  0
   36.0400   20.7680   35.7200 H   0  0  0  0  0  0  0  0  0  0  0  0
   34.9190   20.1670   33.6370 H   0  0  0  0  0  0  0  0  0  0  0  0
   35.7290   21.0980   31.4810 H   0  0  0  0  0  0  0  0  0  0  0  0
   38.0330   23.5000   38.0460 C   0  0  0  0  0  0  0  0  0  0  0  0
   39.3680   23.1730   38.3500 C   0  0  0  0  0  0  0  0  0  0  0  0
   40.0700   22.4280   37.3950 C   0  0  0  0  0  0  0  0  0  0  0  0
   39.4340   22.0660   36.2420 N   0  0  0  0  0  0  0  0  0  0  0  0
   38.1640   22.4060   36.0090 C   0  0  0  0  0  0  0  0  0  0  0  0
   37.4710   23.1150   36.9000 N   0  0  0  0  0  0  0  0  0  0  0  0
   37.5360   24.0750   38.8160 H   0  0  0  0  0  0  0  0  0  0  0  0
   39.9300   23.4170   39.2190 H   0  0  0  0  0  0  0  0  0  0  0  0
   41.0930   22.1090   37.4930 H   0  0  0  0  0  0  0  0  0  0  0  0
   37.9130   22.9130   30.8220 S   0  0  0  0  0  0  0  0  0  0  0  0
   35.3950   24.6990   31.4050 Cl  0  0  0  0  0  0  0  0  0  0  0  0
   36.9870   25.4170   31.1970 C   0  0  0  0  0  0  0  0  0  0  0  0
   38.1460   24.6880   30.9370 C   0  0  0  0  0  0  0  0  0  0  0  0
   39.3430   25.3440   30.7900 C   0  0  0  0  0  0  0  0  0  0  0  0
   39.4100   26.7000   30.8960 C   0  0  0  0  0  0  0  0  0  0  0  0
   38.2900   27.4660   31.1530 C   0  0  0  0  0  0  0  0  0  0  0  0
   37.1060   26.8020   31.2970 C   0  0  0  0  0  0  0  0  0  0  0  0
   40.1810   24.6880   30.5910 H   0  0  0  0  0  0  0  0  0  0  0  0
   40.3820   27.1580   30.7710 H   0  0  0  0  0  0  0  0  0  0  0  0
   38.3980   28.5260   31.2260 H   0  0  0  0  0  0  0  0  0  0  0  0
   35.8780   27.5910   31.5730 C   0  0  0  0  0  3  0  0  0  0  0  0
   35.8600   28.4170   32.8030 C   0  0  0  0  0  2  0  0  0  0  0  0
   35.9100   29.0960   31.4140 C   0  0  0  0  0  2  0  0  0  0  0  0
  2  1  1  0  0  0  0
  2  3  1  0  0  0  0
  3  4  2  0  0  0  0
  3 15  1  0  0  0  0
  4  8  1  0  0  0  0
  5  9  1  0  0  0  0
  5  4  1  0  0  0  0
  6  5  2  0  0  0  0
  7  6  1  0  0  0  0
  7  2  2  0  0  0  0
 10  6  1  0  0  0  0
 11 12  1  0  0  0  0
 11 17  1  0  0  0  0
 12 18  1  0  0  0  0
 13 19  1  0  0  0  0
 13 12  2  0  0  0  0
 14 13  1  0  0  0  0
 15 14  2  0  0  0  0
 15 16  1  0  0  0  0
 16 11  2  0  0  0  0
 20 23  1  0  0  0  0
 20  7  1  0  0  0  0
 22 27  1  0  0  0  0
 22 21  1  0  0  0  0
 23 22  2  0  0  0  0
 24 25  2  0  0  0  0
 24 23  1  0  0  0  0
 25 26  1  0  0  0  0
 26 30  1  0  0  0  0
 26 27  2  0  0  0  0
 27 31  1  0  0  0  0
 28 24  1  0  0  0  0
 29 25  1  0  0  0  0
 31 32  1  0  0  0  0
 33 31  1  0  0  0  0
 33 32  1  0  0  0  0
M  END
>  <minimizedAffinity>
-5.6594615

$$$$

 OpenBabel03272505133D

 33 36  0  0  0  0  0  0  0  0999 V2000
   38.7950   23.6540   33.7690 Cl  0  0  0  0  0  0  0  0  0  0  0  0
   37.5560   22.4340   33.8900 C   0  0  0  0  0  0  0  0  0  0  0  0
   37.2830   21.9270   35.1440 C   0  0  0  0  0  0  0  0  0  0  0  0
   36.3010   20.9580   35.2490 C   0  0  0  0  0  0  0  0  0  0  0  0
   35.6390   20.5310   34.1410 C   0  0  0  0  0  0  0  0  0  0  0  0
   35.9630   21.0850   32.8960 C   0  0  0  0  0  0  0  0  0  0  0  0
   36.9170   22.0440   32.7120 C   0  0  0  0  0  0  0  0  0  0  0  0
   36.0810   20.5550   36.2290 H   0  0  0  0  0  0  0  0  0  0  0  0
   34.8820   19.7780   34.2510 H   0  0  0  0  0  0  0  0  0  0  0  0
   35.4220   20.7310   32.0210 H   0  0  0  0  0  0  0  0  0  0  0  0
   37.9430   23.6100   38.3070 C   0  0  0  0  0  0  0  0  0  0  0  0
   39.3130   23.3840   38.5440 C   0  0  0  0  0  0  0  0  0  0  0  0
   40.0050   22.6360   37.5850 C   0  0  0  0  0  0  0  0  0  0  0  0
   39.3290   22.1740   36.4930 N   0  0  0  0  0  0  0  0  0  0  0  0
   38.0280   22.4210   36.3220 C   0  0  0  0  0  0  0  0  0  0  0  0
   37.3430   23.1300   37.2180 N   0  0  0  0  0  0  0  0  0  0  0  0
   37.4550   24.1930   39.0770 H   0  0  0  0  0  0  0  0  0  0  0  0
   39.9060   23.7080   39.3650 H   0  0  0  0  0  0  0  0  0  0  0  0
   41.0510   22.3870   37.6360 H   0  0  0  0  0  0  0  0  0  0  0  0
   37.3380   22.7520   31.1610 S   0  0  0  0  0  0  0  0  0  0  0  0
   39.5600   24.9020   30.5980 Cl  0  0  0  0  0  0  0  0  0  0  0  0
   37.8750   25.3680   30.7900 C   0  0  0  0  0  0  0  0  0  0  0  0
   36.8380   24.4710   31.0400 C   0  0  0  0  0  0  0  0  0  0  0  0
   35.5540   24.9360   31.1750 C   0  0  0  0  0  0  0  0  0  0  0  0
   35.2820   26.2660   31.0650 C   0  0  0  0  0  0  0  0  0  0  0  0
   36.2740   27.1940   30.8170 C   0  0  0  0  0  0  0  0  0  0  0  0
   37.5470   26.7180   30.6860 C   0  0  0  0  0  0  0  0  0  0  0  0
   34.8240   24.1600   31.3670 H   0  0  0  0  0  0  0  0  0  0  0  0
   34.2500   26.5700   31.1810 H   0  0  0  0  0  0  0  0  0  0  0  0
   36.0060   28.2250   30.7420 H   0  0  0  0  0  0  0  0  0  0  0  0
   38.6420   27.6860   30.4200 C   0  0  0  0  0  3  0  0  0  0  0  0
   38.8850   28.0710   29.0090 C   0  0  0  0  0  2  0  0  0  0  0  0
   38.3010   29.1000   30.0050 C   0  0  0  0  0  2  0  0  0  0  0  0
  1  2  1  0  0  0  0
  2  3  1  0  0  0  0
  3  4  2  0  0  0  0
  3 15  1  0  0  0  0
  4  8  1  0  0  0  0
  5  9  1  0  0  0  0
  5  4  1  0  0  0  0
  6  5  2  0  0  0  0
  7  6  1  0  0  0  0
  7  2  2  0  0  0  0
 10  6  1  0  0  0  0
 11 12  1  0  0  0  0
 11 17  1  0  0  0  0
 12 18  1  0  0  0  0
 13 19  1  0  0  0  0
 13 12  2  0  0  0  0
 14 13  1  0  0  0  0
 15 14  2  0  0  0  0
 15 16  1  0  0  0  0
 16 11  2  0  0  0  0
 20  7  1  0  0  0  0
 21 22  1  0  0  0  0
 22 23  1  0  0  0  0
 23 20  1  0  0  0  0
 23 24  2  0  0  0  0
 24 28  1  0  0  0  0
 25 24  1  0  0  0  0
 25 29  1  0  0  0  0
 26 25  2  0  0  0  0
 27 22  2  0  0  0  0
 27 26  1  0  0  0  0
 30 26  1  0  0  0  0
 31 27  1  0  0  0  0
 32 33  1  0  0  0  0
 32 31  1  0  0  0  0
 33 31  1  0  0  0  0
M  END
>  <minimizedAffinity>
-5.63621426

$$$$

 OpenBabel03272505133D

 33 36  0  0  0  0  0  0  0  0999 V2000
   35.7780   27.5470   31.1830 Cl  0  0  0  0  0  0  0  0  0  0  0  0
   36.5320   27.5400   32.7550 C   0  0  0  0  0  0  0  0  0  0  0  0
   37.5170   26.6010   32.9830 C   0  0  0  0  0  0  0  0  0  0  0  0
   38.1210   26.5890   34.2280 C   0  0  0  0  0  0  0  0  0  0  0  0
   37.7420   27.4790   35.1820 C   0  0  0  0  0  0  0  0  0  0  0  0
   36.7350   28.4070   34.8890 C   0  0  0  0  0  0  0  0  0  0  0  0
   36.0930   28.4830   33.6860 C   0  0  0  0  0  0  0  0  0  0  0  0
   38.8950   25.8550   34.4140 H   0  0  0  0  0  0  0  0  0  0  0  0
   38.2270   27.4470   36.1390 H   0  0  0  0  0  0  0  0  0  0  0  0
   36.4440   29.1120   35.6650 H   0  0  0  0  0  0  0  0  0  0  0  0
   39.3120   25.2050   30.1360 C   0  0  0  0  0  0  0  0  0  0  0  0
   38.6880   23.9640   29.9040 C   0  0  0  0  0  0  0  0  0  0  0  0
   37.6320   23.6190   30.7550 C   0  0  0  0  0  0  0  0  0  0  0  0
   37.2700   24.4870   31.7440 N   0  0  0  0  0  0  0  0  0  0  0  0
   37.8990   25.6520   31.9160 C   0  0  0  0  0  0  0  0  0  0  0  0
   38.9080   26.0070   31.1210 N   0  0  0  0  0  0  0  0  0  0  0  0
   40.1210   25.4240   29.4520 H   0  0  0  0  0  0  0  0  0  0  0  0
   38.9110   23.2390   29.1590 H   0  0  0  0  0  0  0  0  0  0  0  0
   37.0660   22.7050   30.6940 H   0  0  0  0  0  0  0  0  0  0  0  0
   34.8290   29.6380   33.2960 S   0  0  0  0  0  0  0  0  0  0  0  0
   36.0730   32.1500   34.7180 Cl  0  0  0  0  0  0  0  0  0  0  0  0
   34.6170   31.3840   35.3410 C   0  0  0  0  0  0  0  0  0  0  0  0
   34.0110   30.2700   34.7630 C   0  0  0  0  0  0  0  0  0  0  0  0
   32.8740   29.7450   35.3270 C   0  0  0  0  0  0  0  0  0  0  0  0
   32.3330   30.3030   36.4450 C   0  0  0  0  0  0  0  0  0  0  0  0
   32.8960   31.4070   37.0530 C   0  0  0  0  0  0  0  0  0  0  0  0
   34.0260   31.9180   36.4830 C   0  0  0  0  0  0  0  0  0  0  0  0
   32.4830   28.8830   34.8030 H   0  0  0  0  0  0  0  0  0  0  0  0
   31.4370   29.8440   36.8410 H   0  0  0  0  0  0  0  0  0  0  0  0
   32.4310   31.8040   37.9300 H   0  0  0  0  0  0  0  0  0  0  0  0
   34.6620   33.1060   37.1100 C   0  0  0  0  0  3  0  0  0  0  0  0
   34.3190   34.4370   36.5550 C   0  0  0  0  0  2  0  0  0  0  0  0
   33.8270   34.0330   37.9650 C   0  0  0  0  0  2  0  0  0  0  0  0
  1  2  1  0  0  0  0
  2  3  2  0  0  0  0
  2  7  1  0  0  0  0
  3  4  1  0  0  0  0
  4  8  1  0  0  0  0
  4  5  2  0  0  0  0
  5  9  1  0  0  0  0
  6  5  1  0  0  0  0
  6 10  1  0  0  0  0
  7  6  2  0  0  0  0
 11 16  1  0  0  0  0
 12 11  2  0  0  0  0
 12 13  1  0  0  0  0
 13 14  2  0  0  0  0
 14 15  1  0  0  0  0
 15  3  1  0  0  0  0
 16 15  2  0  0  0  0
 17 11  1  0  0  0  0
 18 12  1  0  0  0  0
 19 13  1  0  0  0  0
 20  7  1  0  0  0  0
 20 23  1  0  0  0  0
 21 22  1  0  0  0  0
 22 27  1  0  0  0  0
 23 24  1  0  0  0  0
 23 22  2  0  0  0  0
 24 25  2  0  0  0  0
 25 29  1  0  0  0  0
 25 26  1  0  0  0  0
 26 30  1  0  0  0  0
 27 26  2  0  0  0  0
 27 31  1  0  0  0  0
 28 24  1  0  0  0  0
 31 33  1  0  0  0  0
 32 31  1  0  0  0  0
 32 33  1  0  0  0  0
M  END
>  <minimizedAffinity>
-5.4567728

$$$$

 OpenBabel03272505133D

 33 36  0  0  0  0  0  0  0  0999 V2000
   37.6880   23.6970   31.8400 Cl  0  0  0  0  0  0  0  0  0  0  0  0
   37.9530   23.3680   33.5310 C   0  0  0  0  0  0  0  0  0  0  0  0
   37.4940   22.1640   34.0250 C   0  0  0  0  0  0  0  0  0  0  0  0
   37.7010   21.8950   35.3660 C   0  0  0  0  0  0  0  0  0  0  0  0
   38.3370   22.8000   36.1550 C   0  0  0  0  0  0  0  0  0  0  0  0
   38.7790   24.0050   35.5950 C   0  0  0  0  0  0  0  0  0  0  0  0
   38.6130   24.3420   34.2820 C   0  0  0  0  0  0  0  0  0  0  0  0
   37.3440   20.9520   35.7600 H   0  0  0  0  0  0  0  0  0  0  0  0
   38.4840   22.5650   37.1930 H   0  0  0  0  0  0  0  0  0  0  0  0
   39.2860   24.7170   36.2430 H   0  0  0  0  0  0  0  0  0  0  0  0
   37.0330   19.4750   31.6100 C   0  0  0  0  0  0  0  0  0  0  0  0
   35.6380   19.3950   31.4380 C   0  0  0  0  0  0  0  0  0  0  0  0
   34.8570   20.2920   32.1760 C   0  0  0  0  0  0  0  0  0  0  0  0
   35.4790   21.1790   33.0060 N   0  0  0  0  0  0  0  0  0  0  0  0
   36.8080   21.2090   33.1280 C   0  0  0  0  0  0  0  0  0  0  0  0
   37.5770   20.3670   32.4390 N   0  0  0  0  0  0  0  0  0  0  0  0
   37.5900   18.7610   31.0180 H   0  0  0  0  0  0  0  0  0  0  0  0
   35.0830   18.7360   30.8140 H   0  0  0  0  0  0  0  0  0  0  0  0
   33.7830   20.3440   32.1440 H   0  0  0  0  0  0  0  0  0  0  0  0
   39.1600   25.8460   33.5590 S   0  0  0  0  0  0  0  0  0  0  0  0
   38.4200   27.1610   30.8020 Cl  0  0  0  0  0  0  0  0  0  0  0  0
   37.5980   27.6370   32.2830 C   0  0  0  0  0  0  0  0  0  0  0  0
   37.8740   27.0970   33.5380 C   0  0  0  0  0  0  0  0  0  0  0  0
   37.1750   27.5370   34.6360 C   0  0  0  0  0  0  0  0  0  0  0  0
   36.2150   28.4950   34.5090 C   0  0  0  0  0  0  0  0  0  0  0  0
   35.9060   29.0590   33.2880 C   0  0  0  0  0  0  0  0  0  0  0  0
   36.6080   28.6140   32.2050 C   0  0  0  0  0  0  0  0  0  0  0  0
   37.4640   27.0560   35.5610 H   0  0  0  0  0  0  0  0  0  0  0  0
   35.7000   28.7990   35.4110 H   0  0  0  0  0  0  0  0  0  0  0  0
   35.1450   29.8080   33.2450 H   0  0  0  0  0  0  0  0  0  0  0  0
   36.3050   29.1980   30.8730 C   0  0  0  0  0  3  0  0  0  0  0  0
   35.5340   30.4630   30.8420 C   0  0  0  0  0  2  0  0  0  0  0  0
   37.0250   30.4530   30.4300 C   0  0  0  0  0  2  0  0  0  0  0  0
  1  2  1  0  0  0  0
  2  3  2  0  0  0  0
  2  7  1  0  0  0  0
  3  4  1  0  0  0  0
  4  8  1  0  0  0  0
  4  5  2  0  0  0  0
  5  9  1  0  0  0  0
  6  5  1  0  0  0  0
  6 10  1  0  0  0  0
  7  6  2  0  0  0  0
 11 16  1  0  0  0  0
 12 11  2  0  0  0  0
 12 13  1  0  0  0  0
 13 14  2  0  0  0  0
 14 15  1  0  0  0  0
 15  3  1  0  0  0  0
 16 15  2  0  0  0  0
 17 11  1  0  0  0  0
 18 12  1  0  0  0  0
 19 13  1  0  0  0  0
 20  7  1  0  0  0  0
 21 22  1  0  0  0  0
 22 23  1  0  0  0  0
 23 20  1  0  0  0  0
 23 24  2  0  0  0  0
 24 28  1  0  0  0  0
 25 24  1  0  0  0  0
 25 29  1  0  0  0  0
 26 25  2  0  0  0  0
 27 22  2  0  0  0  0
 27 26  1  0  0  0  0
 30 26  1  0  0  0  0
 31 27  1  0  0  0  0
 32 31  1  0  0  0  0
 33 32  1  0  0  0  0
 33 31  1  0  0  0  0
M  END
>  <minimizedAffinity>
-5.44921398

$$$$

 OpenBabel03272505133D

 33 36  0  0  0  0  0  0  0  0999 V2000
   37.7840   23.4770   31.6210 Cl  0  0  0  0  0  0  0  0  0  0  0  0
   37.9460   23.2930   33.3470 C   0  0  0  0  0  0  0  0  0  0  0  0
   37.4700   22.1270   33.9090 C   0  0  0  0  0  0  0  0  0  0  0  0
   37.5950   21.9720   35.2780 C   0  0  0  0  0  0  0  0  0  0  0  0
   38.1690   22.9500   36.0280 C   0  0  0  0  0  0  0  0  0  0  0  0
   38.6320   24.1110   35.3980 C   0  0  0  0  0  0  0  0  0  0  0  0
   38.5460   24.3370   34.0540 C   0  0  0  0  0  0  0  0  0  0  0  0
   37.2240   21.0590   35.7270 H   0  0  0  0  0  0  0  0  0  0  0  0
   38.2530   22.8040   37.0890 H   0  0  0  0  0  0  0  0  0  0  0  0
   39.0880   24.8830   36.0140 H   0  0  0  0  0  0  0  0  0  0  0  0
   34.8930   20.1850   32.2170 C   0  0  0  0  0  0  0  0  0  0  0  0
   35.6080   19.2080   31.4970 C   0  0  0  0  0  0  0  0  0  0  0  0
   37.0030   19.2350   31.6080 C   0  0  0  0  0  0  0  0  0  0  0  0
   37.5840   20.1880   32.3940 N   0  0  0  0  0  0  0  0  0  0  0  0
   36.8540   21.0890   33.0550 C   0  0  0  0  0  0  0  0  0  0  0  0
   35.5240   21.0880   32.9670 N   0  0  0  0  0  0  0  0  0  0  0  0
   33.8200   20.1210   32.0970 H   0  0  0  0  0  0  0  0  0  0  0  0
   35.2300   18.4380   30.8680 H   0  0  0  0  0  0  0  0  0  0  0  0
   37.6730   18.5520   31.1160 H   0  0  0  0  0  0  0  0  0  0  0  0
   39.1200   25.7850   33.2420 S   0  0  0  0  0  0  0  0  0  0  0  0
   37.8700   27.6360   35.4530 Cl  0  0  0  0  0  0  0  0  0  0  0  0
   37.2710   27.6670   33.7990 C   0  0  0  0  0  0  0  0  0  0  0  0
   37.7770   26.8760   32.7690 C   0  0  0  0  0  0  0  0  0  0  0  0
   37.2390   26.9740   31.5100 C   0  0  0  0  0  0  0  0  0  0  0  0
   36.2160   27.8390   31.2570 C   0  0  0  0  0  0  0  0  0  0  0  0
   35.6830   28.6430   32.2430 C   0  0  0  0  0  0  0  0  0  0  0  0
   36.2260   28.5350   33.4910 C   0  0  0  0  0  0  0  0  0  0  0  0
   37.7010   26.3190   30.7830 H   0  0  0  0  0  0  0  0  0  0  0  0
   35.8360   27.8700   30.2440 H   0  0  0  0  0  0  0  0  0  0  0  0
   34.8800   29.3020   31.9910 H   0  0  0  0  0  0  0  0  0  0  0  0
   35.6770   29.3840   34.5800 C   0  0  0  0  0  3  0  0  0  0  0  0
   35.4630   30.8210   34.2840 C   0  0  0  0  0  2  0  0  0  0  0  0
   34.2510   29.8810   34.4880 C   0  0  0  0  0  2  0  0  0  0  0  0
  1  2  1  0  0  0  0
  2  3  2  0  0  0  0
  2  7  1  0  0  0  0
  3  4  1  0  0  0  0
  4  8  1  0  0  0  0
  4  5  2  0  0  0  0
  5  9  1  0  0  0  0
  6 10  1  0  0  0  0
  6  5  1  0  0  0  0
  7  6  2  0  0  0  0
 11 16  1  0  0  0  0
 12 13  1  0  0  0  0
 12 11  2  0  0  0  0
 13 14  2  0  0  0  0
 14 15  1  0  0  0  0
 15  3  1  0  0  0  0
 16 15  2  0  0  0  0
 17 11  1  0  0  0  0
 18 12  1  0  0  0  0
 19 13  1  0  0  0  0
 20  7  1  0  0  0  0
 22 21  1  0  0  0  0
 23 20  1  0  0  0  0
 23 22  2  0  0  0  0
 24 23  1  0  0  0  0
 25 24  2  0  0  0  0
 25 26  1  0  0  0  0
 26 27  2  0  0  0  0
 27 22  1  0  0  0  0
 27 31  1  0  0  0  0
 28 24  1  0  0  0  0
 29 25  1  0  0  0  0
 30 26  1  0  0  0  0
 32 33  1  0  0  0  0
 32 31  1  0  0  0  0
 33 31  1  0  0  0  0
M  END
>  <minimizedAffinity>
-5.42986059

$$$$
