
 OpenBabel03272500303D

 22 24  0  0  0  0  0  0  0  0999 V2000
   36.3480   30.5110   46.3570 Cl  0  0  0  0  0  0  0  0  0  0  0  0
   36.8030   30.6040   48.0590 C   0  0  0  0  0  0  0  0  0  0  0  0
   38.0430   31.1300   48.3140 C   0  0  0  0  0  0  0  0  0  0  0  0
   38.4310   31.2150   49.6630 C   0  0  0  0  0  0  0  0  0  0  0  0
   37.5620   30.7770   50.6370 C   0  0  0  0  0  0  0  0  0  0  0  0
   36.3410   30.2650   50.2870 C   0  0  0  0  0  0  0  0  0  0  0  0
   35.9080   30.1570   48.9960 C   0  0  0  0  0  0  0  0  0  0  0  0
   39.3990   31.6220   49.9150 H   0  0  0  0  0  0  0  0  0  0  0  0
   37.8820   30.8520   51.6780 H   0  0  0  0  0  0  0  0  0  0  0  0
   35.6760   29.9260   51.0950 H   0  0  0  0  0  0  0  0  0  0  0  0
   40.0370   33.3550   46.2240 C   0  0  0  0  0  0  0  0  0  0  0  0
   40.5940   32.5180   45.2630 C   0  0  0  0  0  0  0  0  0  0  0  0
   40.2700   31.1560   45.3410 C   0  0  0  0  0  0  0  0  0  0  0  0
   39.4410   30.7370   46.3410 N   0  0  0  0  0  0  0  0  0  0  0  0
   38.9280   31.5810   47.2470 C   0  0  0  0  0  0  0  0  0  0  0  0
   39.2330   32.8850   47.1760 N   0  0  0  0  0  0  0  0  0  0  0  0
   40.2940   34.4110   46.1540 H   0  0  0  0  0  0  0  0  0  0  0  0
   41.2420   32.7990   44.4680 H   0  0  0  0  0  0  0  0  0  0  0  0
   40.6070   30.3860   44.6920 H   0  0  0  0  0  0  0  0  0  0  0  0
   34.5810   29.6020   48.5970 C   0  0  0  0  0  0  0  0  0  0  0  0
   33.8630   28.6730   49.5530 C   0  0  0  0  0  0  0  0  0  0  0  0
   34.4950   28.1160   48.3540 C   0  0  0  0  0  0  0  0  0  0  0  0
  1  2  1  0  0  0  0
  2  3  2  0  0  0  0
  2  7  1  0  0  0  0
  3  4  1  0  0  0  0
  4  8  1  0  0  0  0
  4  5  2  0  0  0  0
  5  9  1  0  0  0  0
  6  5  1  0  0  0  0
  6 10  1  0  0  0  0
  7  6  2  0  0  0  0
 11 16  1  0  0  0  0
 12 13  1  0  0  0  0
 12 11  2  0  0  0  0
 13 14  2  0  0  0  0
 14 15  1  0  0  0  0
 15  3  1  0  0  0  0
 16 15  2  0  0  0  0
 17 11  1  0  0  0  0
 18 12  1  0  0  0  0
 19 13  1  0  0  0  0
 20  7  1  0  0  0  0
 20 21  1  0  0  0  0
 22 20  1  0  0  0  0
 22 21  1  0  0  0  0
M  END
>  <minimizedAffinity>
-6.08815575

>  <minimizedRMSD>
0.797973573

$$$$
