
 OpenBabel03272506563D

 14 15  0  0  0  0  0  0  0  0999 V2000
   36.8890   29.7660   50.8300 C   0  0  0  0  0  0  0  0  0  0  0  0
   37.7460   30.4510   49.9570 C   0  0  0  0  0  0  0  0  0  0  0  0
   37.4820   30.3160   48.5710 C   0  0  0  0  0  0  0  0  0  0  0  0
   36.4330   29.5470   48.1710 N   0  0  0  0  0  0  0  0  0  0  0  0
   35.6520   28.9180   49.0600 C   0  0  0  0  0  0  0  0  0  0  0  0
   35.8470   29.0020   50.3910 N   0  0  0  0  0  0  0  0  0  0  0  0
   37.1310   29.8990   51.8770 H   0  0  0  0  0  0  0  0  0  0  0  0
   38.1060   30.8180   47.8630 H   0  0  0  0  0  0  0  0  0  0  0  0
   38.8210   31.2360   50.4410 N   0  0  0  0  0  0  0  0  0  0  0  0
   39.1020   32.1770   50.1110 H   0  0  0  0  0  0  0  0  0  0  0  0
   39.3860   30.8090   51.2190 H   0  0  0  0  0  0  0  0  0  0  0  0
   34.5100   28.0790   48.6110 C   0  0  0  0  0  3  0  0  0  0  0  0
   33.4820   28.8260   47.7400 C   0  0  0  0  0  2  0  0  0  0  0  0
   33.1500   28.3190   49.1500 C   0  0  0  0  0  2  0  0  0  0  0  0
  1  7  1  0  0  0  0
  2  9  1  0  0  0  0
  2  1  2  0  0  0  0
  3  2  1  0  0  0  0
  4  3  2  0  0  0  0
  4  5  1  0  0  0  0
  5  6  2  0  0  0  0
  6  1  1  0  0  0  0
  8  3  1  0  0  0  0
  9 11  1  0  0  0  0
 10  9  1  0  0  0  0
 12  5  1  0  0  0  0
 12 14  1  0  0  0  0
 13 12  1  0  0  0  0
 13 14  1  0  0  0  0
M  END
>  <minimizedAffinity>
-3.53145814

>  <minimizedRMSD>
1.06184745

$$$$
