
 OpenBabel03272510233D

 25 28  0  0  0  0  0  0  0  0999 V2000
   36.8590   30.6490   45.5310 C   0  0  0  0  0  0  0  0  0  0  0  0
   38.0620   30.9470   46.1430 C   0  0  0  0  0  0  0  0  0  0  0  0
   39.2350   30.5820   45.5380 C   0  0  0  0  0  0  0  0  0  0  0  0
   39.1680   29.9140   44.3130 C   0  0  0  0  0  0  0  0  0  0  0  0
   40.2060   29.4680   43.5540 N   0  0  0  0  0  0  0  0  0  0  0  0
   39.6570   28.8950   42.4770 C   0  0  0  0  0  0  0  0  0  0  0  0
   38.3200   28.9660   42.5340 N   0  0  0  0  0  0  0  0  0  0  0  0
   37.9800   29.6000   43.6740 C   0  0  0  0  0  0  0  0  0  0  0  0
   36.8090   29.9800   44.3070 C   0  0  0  0  0  0  0  0  0  0  0  0
   35.8830   30.9030   45.9430 H   0  0  0  0  0  0  0  0  0  0  0  0
   40.1870   30.8050   45.9990 H   0  0  0  0  0  0  0  0  0  0  0  0
   41.2150   29.5580   43.7730 H   0  0  0  0  0  0  0  0  0  0  0  0
   35.8700   29.7460   43.8270 H   0  0  0  0  0  0  0  0  0  0  0  0
   38.7180   33.2730   49.0220 C   0  0  0  0  0  0  0  0  0  0  0  0
   38.8620   32.6740   47.7650 C   0  0  0  0  0  0  0  0  0  0  0  0
   38.0110   31.6450   47.4150 C   0  0  0  0  0  0  0  0  0  0  0  0
   37.0610   31.2500   48.3130 N   0  0  0  0  0  0  0  0  0  0  0  0
   36.9340   31.8430   49.5300 C   0  0  0  0  0  0  0  0  0  0  0  0
   37.7590   32.8470   49.8780 N   0  0  0  0  0  0  0  0  0  0  0  0
   39.4110   34.0670   49.2310 H   0  0  0  0  0  0  0  0  0  0  0  0
   39.6120   32.9930   47.0720 H   0  0  0  0  0  0  0  0  0  0  0  0
   36.1890   31.5420   50.2490 H   0  0  0  0  0  0  0  0  0  0  0  0
   40.4280   28.2580   41.3520 C   0  0  0  0  0  3  0  0  0  0  0  0
   40.5130   29.1730   40.1290 C   0  0  0  0  0  2  0  0  0  0  0  0
   41.7370   28.7650   40.9350 C   0  0  0  0  0  2  0  0  0  0  0  0
  1 10  1  0  0  0  0
  1  2  1  0  0  0  0
  2 16  1  0  0  0  0
  3 11  1  0  0  0  0
  3  2  2  0  0  0  0
  4  3  1  0  0  0  0
  5 12  1  0  0  0  0
  5  4  1  0  0  0  0
  6  7  2  0  0  0  0
  6  5  1  0  0  0  0
  7  8  1  0  0  0  0
  8  9  1  0  0  0  0
  8  4  2  0  0  0  0
  9  1  2  0  0  0  0
 13  9  1  0  0  0  0
 14 20  1  0  0  0  0
 14 19  1  0  0  0  0
 15 14  2  0  0  0  0
 16 15  1  0  0  0  0
 16 17  2  0  0  0  0
 17 18  1  0  0  0  0
 18 19  2  0  0  0  0
 18 22  1  0  0  0  0
 21 15  1  0  0  0  0
 23  6  1  0  0  0  0
 24 25  1  0  0  0  0
 24 23  1  0  0  0  0
 25 23  1  0  0  0  0
M  END
>  <minimizedAffinity>
-4.88059425

>  <minimizedRMSD>
4.2971487

$$$$
