
 OpenBabel03272510213D

 30 33  0  0  0  0  0  0  0  0999 V2000
   37.3670   29.2220   50.8820 Br  0  0  0  0  0  0  0  0  0  0  0  0
   35.9790   29.2800   49.5780 C   0  0  0  0  0  0  0  0  0  0  0  0
   35.9750   30.2510   48.5810 C   0  0  0  0  0  0  0  0  0  0  0  0
   34.9420   30.2290   47.6770 C   0  0  0  0  0  0  0  0  0  0  0  0
   33.9210   29.3070   47.7070 C   0  0  0  0  0  0  0  0  0  0  0  0
   33.9510   28.3610   48.7020 C   0  0  0  0  0  0  0  0  0  0  0  0
   34.9700   28.3600   49.6160 C   0  0  0  0  0  0  0  0  0  0  0  0
   34.9480   30.9870   46.9050 H   0  0  0  0  0  0  0  0  0  0  0  0
   33.1670   27.6160   48.7630 H   0  0  0  0  0  0  0  0  0  0  0  0
   34.9660   27.6020   50.3880 H   0  0  0  0  0  0  0  0  0  0  0  0
   37.9910   33.1690   49.4580 C   0  0  0  0  0  0  0  0  0  0  0  0
   39.0100   33.1750   48.4600 C   0  0  0  0  0  0  0  0  0  0  0  0
   38.9800   32.1730   47.5080 C   0  0  0  0  0  0  0  0  0  0  0  0
   37.9910   31.2200   47.5460 N   0  0  0  0  0  0  0  0  0  0  0  0
   37.0400   31.2500   48.5110 C   0  0  0  0  0  0  0  0  0  0  0  0
   37.0450   32.2230   49.4600 N   0  0  0  0  0  0  0  0  0  0  0  0
   37.9470   33.9140   50.2320 H   0  0  0  0  0  0  0  0  0  0  0  0
   39.7470   33.9430   48.4890 H   0  0  0  0  0  0  0  0  0  0  0  0
   39.7170   32.1330   46.7440 H   0  0  0  0  0  0  0  0  0  0  0  0
   32.8250   29.2850   46.7470 C   0  0  0  0  0  0  0  0  0  0  0  0
   31.9660   28.2300   46.5580 C   0  0  0  0  0  0  0  0  0  0  0  0
   30.9350   28.2550   45.6310 C   0  0  0  0  0  0  0  0  0  0  0  0
   30.7610   29.3450   44.8840 N   0  0  0  0  0  0  0  0  0  0  0  0
   31.6000   30.3980   45.0560 C   0  0  0  0  0  0  0  0  0  0  0  0
   32.5790   30.3450   45.9530 N   0  0  0  0  0  0  0  0  0  0  0  0
   32.1090   27.3390   47.1690 H   0  0  0  0  0  0  0  0  0  0  0  0
   30.3160   27.3590   45.5680 H   0  0  0  0  0  0  0  0  0  0  0  0
   31.4340   31.6360   44.2350 C   0  0  0  0  0  0  0  0  0  0  0  0
   31.5940   32.9680   44.8740 C   0  0  0  0  0  0  0  0  0  0  0  0
   30.2450   32.5240   44.4380 C   0  0  0  0  0  0  0  0  0  0  0  0
  2  7  1  0  0  0  0
  2  1  1  0  0  0  0
  3  2  2  0  0  0  0
  4  5  2  0  0  0  0
  4  3  1  0  0  0  0
  5  6  1  0  0  0  0
  6  9  1  0  0  0  0
  6  7  2  0  0  0  0
  7 10  1  0  0  0  0
  8  4  1  0  0  0  0
 11 16  1  0  0  0  0
 11 17  1  0  0  0  0
 12 18  1  0  0  0  0
 12 11  2  0  0  0  0
 13 14  2  0  0  0  0
 13 12  1  0  0  0  0
 14 15  1  0  0  0  0
 15  3  1  0  0  0  0
 15 16  2  0  0  0  0
 19 13  1  0  0  0  0
 20  5  1  0  0  0  0
 21 20  1  0  0  0  0
 21 26  1  0  0  0  0
 22 21  2  0  0  0  0
 23 24  2  0  0  0  0
 23 22  1  0  0  0  0
 24 25  1  0  0  0  0
 25 20  2  0  0  0  0
 27 22  1  0  0  0  0
 28 30  1  0  0  0  0
 28 29  1  0  0  0  0
 28 24  1  0  0  0  0
 30 29  1  0  0  0  0
M  END
>  <minimizedAffinity>
-6.07865477

>  <minimizedRMSD>
0.319853395

$$$$
