
     RDKit          3D

 34 36  0  0  0  0  0  0  0  0999 V2000
   33.2873   27.2781   48.0064 C   0  0  0  0  0  0  0  0  0  0  0  0
   33.7095   26.2033   47.0495 C   0  0  0  0  0  0  0  0  0  0  0  0
   33.9372   24.8906   47.3698 C   0  0  0  0  0  0  0  0  0  0  0  0
   34.3224   23.9931   46.4016 C   0  0  0  0  0  0  0  0  0  0  0  0
   34.4929   24.3785   45.0802 C   0  0  0  0  0  0  0  0  0  0  0  0
   34.2679   25.6859   44.7517 C   0  0  0  0  0  0  0  0  0  0  0  0
   33.8823   26.5925   45.7114 C   0  0  0  0  0  0  0  0  0  0  0  0
   34.6796   28.4052   49.7299 C   0  0  0  0  0  0  0  0  0  0  0  0
   34.4210   28.0673   48.4984 C   0  0  0  0  0  0  0  0  0  0  0  0
   37.3648   30.2316   51.4374 C   0  0  0  0  0  0  0  0  0  0  0  0
   38.1147   30.6881   50.3172 C   0  0  0  0  0  0  0  0  0  0  0  0
   37.6831   30.3601   49.0158 C   0  0  0  0  0  0  0  0  0  0  0  0
   36.5523   29.6122   48.9293 N   0  0  0  0  0  0  0  0  0  0  0  0
   35.8734   29.2006   49.9959 C   0  0  0  0  0  0  0  0  0  0  0  0
   36.2766   29.5078   51.2344 N   0  0  0  0  0  0  0  0  0  0  0  0
   32.6310   27.9905   47.4410 H   0  0  0  0  0  0  0  0  0  0  0  0
   32.7475   26.8811   48.8812 H   0  0  0  0  0  0  0  0  0  0  0  0
   33.7794   24.6851   48.4203 H   0  0  0  0  0  0  0  0  0  0  0  0
   34.4745   22.9778   46.7740 H   0  0  0  0  0  0  0  0  0  0  0  0
   34.7961   23.5748   44.4296 H   0  0  0  0  0  0  0  0  0  0  0  0
   34.4095   25.9589   43.7082 H   0  0  0  0  0  0  0  0  0  0  0  0
   33.7295   27.6140   45.3362 H   0  0  0  0  0  0  0  0  0  0  0  0
   33.9609   28.0523   50.4624 H   0  0  0  0  0  0  0  0  0  0  0  0
   35.0254   28.3283   47.6293 H   0  0  0  0  0  0  0  0  0  0  0  0
   37.7484   30.5168   52.4069 H   0  0  0  0  0  0  0  0  0  0  0  0
   38.9877   31.2684   50.4716 H   0  0  0  0  0  0  0  0  0  0  0  0
   38.4348   30.8156   47.8278 C   0  0  0  0  0  0  0  0  0  0  0  0
   38.7345   29.8042   46.7300 C   0  0  0  0  0  0  0  0  0  0  0  0
   37.7959   30.9431   46.5192 C   0  0  0  0  0  0  0  0  0  0  0  0
   39.3375   31.4193   48.0908 H   0  0  0  0  0  0  0  0  0  0  0  0
   39.7344   29.7874   46.2571 H   0  0  0  0  0  0  0  0  0  0  0  0
   38.2704   28.7987   46.7624 H   0  0  0  0  0  0  0  0  0  0  0  0
   36.7120   30.7269   46.4221 H   0  0  0  0  0  0  0  0  0  0  0  0
   38.0970   31.8360   45.9046 H   0  0  0  0  0  0  0  0  0  0  0  0
  1  9  1  0
  2  3  2  0
  2  1  1  0
  4  3  1  0
  5  4  2  0
  6  5  1  0
  6  7  2  0
  7  2  1  0
  8 14  1  0
  9  8  2  0
 11 10  2  0
 12 11  1  0
 13 12  2  0
 13 14  1  0
 14 15  2  0
 15 10  1  0
  1 16  1  0
  1 17  1  0
  3 18  1  0
  4 19  1  0
  5 20  1  0
  6 21  1  0
  7 22  1  0
  8 23  1  0
  9 24  1  0
 10 25  1  0
 11 26  1  0
 27 28  1  0
 28 29  1  0
 29 27  1  0
 27 30  1  0
 28 31  1  0
 28 32  1  0
 29 33  1  0
 29 34  1  0
 12 27  1  0
M  ISO  8  16   8  17   8  18  14  19  14  20  14  21  14  22  14  25  14
M  ISO  1  26  14
M  END
>  <DihAtoms>  (1) 
10,11,26,27

>  <DihDeg>  (1) 
-46.90886683835218

$$$$
