
 OpenBabel03272505063D

 27 29  0  0  1  0  0  0  0  0999 V2000
   36.8390   29.5800   51.1790 C   0  0  0  0  0  0  0  0  0  0  0  0
   37.5750   30.6630   50.6820 C   0  0  0  0  0  0  0  0  0  0  0  0
   37.1430   31.1990   49.4620 C   0  0  0  0  0  0  0  0  0  0  0  0
   36.0600   30.6650   48.8260 N   0  0  0  0  0  0  0  0  0  0  0  0
   35.4020   29.6140   49.3760 C   0  0  0  0  0  0  0  0  0  0  0  0
   35.7860   29.0680   50.5490 N   0  0  0  0  0  0  0  0  0  0  0  0
   37.7380   32.2990   48.7700 N   0  0  0  0  0  0  0  0  0  0  0  0
   38.1010   33.5470   49.3760 C   0  0  0  0  0  0  0  0  0  0  0  0
   39.4600   34.0540   49.0550 C   0  0  0  0  0  0  0  0  0  0  0  0
   39.8750   33.9060   47.6310 C   0  0  0  0  0  0  0  0  0  0  0  0
   39.5620   32.4940   47.1790 C   0  0  0  0  0  0  0  0  0  0  0  0
   38.0640   32.3290   47.3750 C   0  0  1  0  0  0  0  0  0  0  0  0
   37.2060   29.1980   52.1220 H   0  0  0  0  0  0  0  0  0  0  0  0
   38.4250   31.1330   51.1150 H   0  0  0  0  0  0  0  0  0  0  0  0
   34.5510   29.2360   48.8210 H   0  0  0  0  0  0  0  0  0  0  0  0
   37.3670   34.3100   48.9780 H   0  0  0  0  0  0  0  0  0  0  0  0
   37.9740   33.5540   50.4630 H   0  0  0  0  0  0  0  0  0  0  0  0
   40.1820   33.4670   49.6870 H   0  0  0  0  0  0  0  0  0  0  0  0
   39.5330   35.0870   49.4270 H   0  0  0  0  0  0  0  0  0  0  0  0
   39.5050   34.6770   46.9520 H   0  0  0  0  0  0  0  0  0  0  0  0
   40.9930   33.9990   47.6170 H   0  0  0  0  0  0  0  0  0  0  0  0
   40.1440   31.7950   47.7930 H   0  0  0  0  0  0  0  0  0  0  0  0
   39.7970   32.4350   46.1030 H   0  0  0  0  0  0  0  0  0  0  0  0
   37.5510   33.1370   46.8390 H   0  0  0  0  0  0  0  0  0  0  0  0
   37.7320   30.9660   46.7680 C   0  0  0  0  0  0  0  0  0  0  0  0
   38.6710   30.4150   45.7240 C   0  0  0  0  0  0  0  0  0  0  0  0
   37.2360   30.8580   45.3960 C   0  0  0  0  0  0  0  0  0  0  0  0
  1 13  1  0  0  0  0
  2 14  1  0  0  0  0
  2  1  1  0  0  0  0
  3  2  2  0  0  0  0
  4  5  2  0  0  0  0
  4  3  1  0  0  0  0
  5  6  1  0  0  0  0
  6  1  2  0  0  0  0
  7  8  1  0  0  0  0
  7  3  1  0  0  0  0
  8 17  1  0  0  0  0
  9  8  1  0  0  0  0
  9 19  1  0  0  0  0
  9 18  1  0  0  0  0
 10  9  1  0  0  0  0
 11 12  1  0  0  0  0
 11 10  1  0  0  0  0
 11 22  1  0  0  0  0
 12 24  1  6  0  0  0
 12  7  1  0  0  0  0
 15  5  1  0  0  0  0
 16  8  1  0  0  0  0
 20 10  1  0  0  0  0
 21 10  1  0  0  0  0
 23 11  1  0  0  0  0
 25 12  1  0  0  0  0
 26 25  1  0  0  0  0
 27 26  1  0  0  0  0
 27 25  1  0  0  0  0
M  END
>  <minimizedAffinity>
-5.27270365

>  <minimizedRMSD>
1.52640164

$$$$
