
 OpenBabel03262523553D

 28 30  0  0  1  0  0  0  0  0999 V2000
   37.8830   30.4760   47.4520 C   0  0  1  0  0  0  0  0  0  0  0  0
   37.1510   31.0290   46.2970 C   0  0  0  0  0  0  0  0  0  0  0  0
   38.0160   30.9270   45.0760 C   0  0  0  0  0  0  0  0  0  0  0  0
   39.4410   31.1990   45.3890 C   0  0  0  0  0  0  0  0  0  0  0  0
   39.7100   31.9680   46.6240 C   0  0  0  0  0  0  0  0  0  0  0  0
   38.9210   31.5470   47.8400 C   0  0  1  0  0  0  0  0  0  0  0  0
   38.5060   29.6090   47.1180 H   0  0  0  0  0  0  0  0  0  0  0  0
   36.2540   30.3940   46.1020 H   0  0  0  0  0  0  0  0  0  0  0  0
   36.7760   32.0630   46.4590 H   0  0  0  0  0  0  0  0  0  0  0  0
   37.6670   31.6990   44.3560 H   0  0  0  0  0  0  0  0  0  0  0  0
   37.8940   29.9550   44.5420 H   0  0  0  0  0  0  0  0  0  0  0  0
   39.9290   30.1850   45.4930 H   0  0  0  0  0  0  0  0  0  0  0  0
   39.9320   31.7180   44.5470 H   0  0  0  0  0  0  0  0  0  0  0  0
   40.8240   31.9240   46.7910 H   0  0  0  0  0  0  0  0  0  0  0  0
   39.4410   33.0420   46.3960 H   0  0  0  0  0  0  0  0  0  0  0  0
   39.6650   31.1040   48.5290 H   0  0  0  0  0  0  0  0  0  0  0  0
   36.9650   29.4260   50.9090 C   0  0  0  0  0  0  0  0  0  0  0  0
   37.7530   29.6940   49.7540 C   0  0  0  0  0  0  0  0  0  0  0  0
   37.0850   30.2050   48.6460 C   0  0  0  0  0  0  0  0  0  0  0  0
   35.7260   30.4250   48.7140 N   0  0  0  0  0  0  0  0  0  0  0  0
   35.0170   30.1600   49.8220 C   0  0  0  0  0  0  0  0  0  0  0  0
   35.6340   29.6590   50.9250 N   0  0  0  0  0  0  0  0  0  0  0  0
   37.3940   29.0280   51.8180 H   0  0  0  0  0  0  0  0  0  0  0  0
   38.7740   29.4550   49.8860 H   0  0  0  0  0  0  0  0  0  0  0  0
   33.9680   30.3860   49.7110 H   0  0  0  0  0  0  0  0  0  0  0  0
   38.2960   32.7390   48.5020 C   0  0  0  0  0  0  0  0  0  0  0  0
   39.1050   33.9740   48.6350 C   0  0  0  0  0  0  0  0  0  0  0  0
   38.7450   33.1620   49.8580 C   0  0  0  0  0  0  0  0  0  0  0  0
  1  7  1  6  0  0  0
  1  6  1  0  0  0  0
  1 19  1  0  0  0  0
  2  9  1  0  0  0  0
  2  1  1  0  0  0  0
  3  4  1  0  0  0  0
  3  2  1  0  0  0  0
  4 12  1  0  0  0  0
  4  5  1  0  0  0  0
  5 14  1  0  0  0  0
  5  6  1  0  0  0  0
  6 26  1  0  0  0  0
  6 16  1  1  0  0  0
  8  2  1  0  0  0  0
 10  3  1  0  0  0  0
 11  3  1  0  0  0  0
 13  4  1  0  0  0  0
 15  5  1  0  0  0  0
 17 22  1  0  0  0  0
 17 23  1  0  0  0  0
 18 24  1  0  0  0  0
 18 17  2  0  0  0  0
 19 20  2  0  0  0  0
 19 18  1  0  0  0  0
 20 21  1  0  0  0  0
 21 22  2  0  0  0  0
 25 21  1  0  0  0  0
 26 27  1  0  0  0  0
 26 28  1  0  0  0  0
 27 28  1  0  0  0  0
M  END
>  <minimizedAffinity>
-5.17680359

>  <minimizedRMSD>
1.34430599

$$$$
