
     RDKit          3D

 39 42  0  0  0  0  0  0  0  0999 V2000
   34.9400   30.1263   47.5883 C   0  0  0  0  0  0  0  0  0  0  0  0
   36.2237   30.7159   47.4153 C   0  0  0  0  0  0  0  0  0  0  0  0
   36.7706   30.6725   46.1227 C   0  0  0  0  0  0  0  0  0  0  0  0
   36.0591   30.0819   45.1274 N   0  0  0  0  0  0  0  0  0  0  0  0
   34.8467   29.5360   45.3365 C   0  0  0  0  0  0  0  0  0  0  0  0
   34.2946   29.5608   46.5623 N   0  0  0  0  0  0  0  0  0  0  0  0
   38.0572   31.2343   45.8287 C   0  0  0  0  0  0  0  0  0  0  0  0
   38.1215   32.4472   45.1984 C   0  0  0  0  0  0  0  0  0  0  0  0
   39.3024   33.0781   44.8687 C   0  0  0  0  0  0  0  0  0  0  0  0
   40.4829   32.4048   45.2164 C   0  0  0  0  0  0  0  0  0  0  0  0
   40.5042   31.1702   45.8578 C   0  0  0  0  0  0  0  0  0  0  0  0
   39.2524   30.6137   46.1490 C   0  0  0  0  0  0  0  0  0  0  0  0
   36.8061   31.2810   48.5773 N   0  0  0  0  0  0  0  0  0  0  0  0
   37.5737   32.4785   48.9354 C   0  0  0  0  0  0  0  0  0  0  0  0
   38.7369   31.8841   49.7149 C   0  0  0  0  0  0  0  0  0  0  0  0
   38.1424   30.6763   50.4197 C   0  0  0  0  0  0  0  0  0  0  0  0
   36.7207   30.6265   49.8711 C   0  0  1  0  0  0  0  0  0  0  0  0
   34.4522   30.1138   48.5290 H   0  0  0  0  0  0  0  0  0  0  0  0
   34.3376   29.0816   44.4928 H   0  0  0  0  0  0  0  0  0  0  0  0
   37.2008   32.9786   44.9240 H   0  0  0  0  0  0  0  0  0  0  0  0
   39.3403   34.0334   44.3723 H   0  0  0  0  0  0  0  0  0  0  0  0
   41.4252   32.8768   44.9696 H   0  0  0  0  0  0  0  0  0  0  0  0
   41.4288   30.6894   46.1060 H   0  0  0  0  0  0  0  0  0  0  0  0
   39.1965   29.6589   46.6451 H   0  0  0  0  0  0  0  0  0  0  0  0
   38.0333   32.9651   48.0491 H   0  0  0  0  0  0  0  0  0  0  0  0
   37.0096   33.2378   49.4580 H   0  0  0  0  0  0  0  0  0  0  0  0
   39.4889   31.5093   48.9855 H   0  0  0  0  0  0  0  0  0  0  0  0
   39.1439   32.5630   50.4760 H   0  0  0  0  0  0  0  0  0  0  0  0
   38.1327   30.7690   51.5106 H   0  0  0  0  0  0  0  0  0  0  0  0
   38.6981   29.7448   50.1525 H   0  0  0  0  0  0  0  0  0  0  0  0
   36.3745   29.5792   49.8140 H   0  0  0  0  0  0  0  0  0  0  0  0
   35.8562   31.3299   50.8600 C   0  0  0  0  0  0  0  0  0  0  0  0
   34.6863   30.4589   51.3393 C   0  0  0  0  0  0  0  0  0  0  0  0
   34.4438   31.7080   50.5528 C   0  0  0  0  0  0  0  0  0  0  0  0
   36.3116   31.9139   51.7054 H   0  0  0  0  0  0  0  0  0  0  0  0
   34.4378   30.4448   52.4201 H   0  0  0  0  0  0  0  0  0  0  0  0
   34.4737   29.5063   50.8312 H   0  0  0  0  0  0  0  0  0  0  0  0
   33.9930   32.5555   51.0782 H   0  0  0  0  0  0  0  0  0  0  0  0
   34.0440   31.5696   49.5065 H   0  0  0  0  0  0  0  0  0  0  0  0
  2  1  2  0
  2 13  1  0
  3  2  1  0
  4  5  1  0
  4  3  2  0
  5  6  2  0
  6  1  1  0
  7  3  1  0
  7 12  1  0
  8  7  2  0
  9  8  1  0
  9 10  2  0
 10 11  1  0
 11 12  2  0
 13 14  1  0
 13 17  1  0
 14 15  1  0
 15 16  1  0
 17 16  1  0
  1 18  1  0
  5 19  1  0
  8 20  1  0
  9 21  1  0
 10 22  1  0
 11 23  1  0
 12 24  1  0
 14 25  1  0
 14 26  1  0
 15 27  1  0
 15 28  1  0
 16 29  1  0
 16 30  1  0
 17 31  1  6
 32 33  1  0
 33 34  1  0
 34 32  1  0
 32 35  1  0
 33 36  1  0
 33 37  1  0
 34 38  1  0
 34 39  1  0
 17 32  1  0
M  ISO  8  18  14  19  14  20  14  21  14  22  14  23  14  24  14  25  13
M  ISO  6  26  13  27  13  28  13  29  13  30  13  31  13
M  END
>  <DihAtoms>  (1) 
12,16,31,32

>  <DihDeg>  (1) 
-179.99034515460883

$$$$
