
 OpenBabel03272506283D

 36 39  0  0  0  0  0  0  0  0999 V2000
   38.6940   26.4490   32.7180 C   0  0  0  0  0  0  0  0  0  0  0  0
   39.6640   26.9810   31.8920 C   0  0  0  0  0  0  0  0  0  0  0  0
   40.9070   27.4290   32.3450 C   0  0  0  0  0  0  0  0  0  0  0  0
   41.1870   27.3320   33.7290 C   0  0  0  0  0  0  0  0  0  0  0  0
   40.2100   26.8020   34.5200 C   0  0  0  0  0  0  0  0  0  0  0  0
   39.0000   26.3630   34.0790 C   0  0  0  0  0  0  0  0  0  0  0  0
   39.4700   27.0680   30.8110 H   0  0  0  0  0  0  0  0  0  0  0  0
   41.5970   27.8350   31.5850 H   0  0  0  0  0  0  0  0  0  0  0  0
   42.1650   27.7100   33.9260 H   0  0  0  0  0  0  0  0  0  0  0  0
   40.6190   26.8380   35.5040 H   0  0  0  0  0  0  0  0  0  0  0  0
   37.3680   24.7270   31.6580 C   0  0  0  0  0  0  0  0  0  0  0  0
   37.4600   26.0560   32.0900 C   0  0  0  0  0  0  0  0  0  0  0  0
   36.3570   26.8950   31.8840 C   0  0  0  0  0  0  0  0  0  0  0  0
   35.2510   26.3930   31.2770 N   0  0  0  0  0  0  0  0  0  0  0  0
   35.1840   25.0930   30.8650 C   0  0  0  0  0  0  0  0  0  0  0  0
   36.2490   24.2650   31.0590 N   0  0  0  0  0  0  0  0  0  0  0  0
   38.2040   24.0570   31.8050 H   0  0  0  0  0  0  0  0  0  0  0  0
   34.2970   24.7010   30.3810 H   0  0  0  0  0  0  0  0  0  0  0  0
   36.3130   28.3320   32.2880 C   0  0  0  0  0  0  0  0  0  0  0  0
   37.3240   29.0400   31.6110 F   0  0  0  0  0  0  0  0  0  0  0  0
   35.1400   28.9640   32.0930 F   0  0  0  0  0  0  0  0  0  0  0  0
   36.6760   28.4550   33.6240 F   0  0  0  0  0  0  0  0  0  0  0  0
   37.7830   25.6610   35.1130 S   0  0  0  0  0  0  0  0  0  0  0  0
   39.7470   23.4010   34.2630 Cl  0  0  0  0  0  0  0  0  0  0  0  0
   39.2900   23.6030   35.9380 C   0  0  0  0  0  0  0  0  0  0  0  0
   38.4160   24.5830   36.3690 C   0  0  0  0  0  0  0  0  0  0  0  0
   38.0850   24.7040   37.6920 C   0  0  0  0  0  0  0  0  0  0  0  0
   38.6610   23.8110   38.5940 C   0  0  0  0  0  0  0  0  0  0  0  0
   39.5440   22.8210   38.1620 C   0  0  0  0  0  0  0  0  0  0  0  0
   39.8680   22.7080   36.8170 C   0  0  0  0  0  0  0  0  0  0  0  0
   37.4050   25.3910   38.1190 H   0  0  0  0  0  0  0  0  0  0  0  0
   38.4230   23.8780   39.6610 H   0  0  0  0  0  0  0  0  0  0  0  0
   39.9400   22.1720   38.9450 H   0  0  0  0  0  0  0  0  0  0  0  0
   40.7960   21.5900   36.5510 C   0  0  0  0  0  3  0  0  0  0  0  0
   42.2730   21.8230   36.3730 C   0  0  0  0  0  2  0  0  0  0  0  0
   41.7720   21.2890   37.6570 C   0  0  0  0  0  2  0  0  0  0  0  0
  1  6  1  0  0  0  0
  2  3  1  0  0  0  0
  2  1  2  0  0  0  0
  3  4  2  0  0  0  0
  4  9  1  0  0  0  0
  4  5  1  0  0  0  0
  5 10  1  0  0  0  0
  6  5  2  0  0  0  0
  6 23  1  0  0  0  0
  7  2  1  0  0  0  0
  8  3  1  0  0  0  0
 11 17  1  0  0  0  0
 11 12  1  0  0  0  0
 12  1  1  0  0  0  0
 13 12  2  0  0  0  0
 13 19  1  0  0  0  0
 14 13  1  0  0  0  0
 15 16  1  0  0  0  0
 15 14  2  0  0  0  0
 16 11  2  0  0  0  0
 18 15  1  0  0  0  0
 19 22  1  0  0  0  0
 20 19  1  0  0  0  0
 21 19  1  0  0  0  0
 23 26  1  0  0  0  0
 24 25  1  0  0  0  0
 25 26  2  0  0  0  0
 25 30  1  0  0  0  0
 26 27  1  0  0  0  0
 27 31  1  0  0  0  0
 27 28  2  0  0  0  0
 28 32  1  0  0  0  0
 29 28  1  0  0  0  0
 29 33  1  0  0  0  0
 30 29  2  0  0  0  0
 34 30  1  0  0  0  0
 34 36  1  0  0  0  0
 35 34  1  0  0  0  0
 35 36  1  0  0  0  0
M  END
>  <minimizedAffinity>
-6.34415722

$$$$

 OpenBabel03272506283D

 36 39  0  0  0  0  0  0  0  0999 V2000
   39.2000   26.0310   34.7980 C   0  0  0  0  0  0  0  0  0  0  0  0
   38.8850   26.9910   35.7390 C   0  0  0  0  0  0  0  0  0  0  0  0
   37.8190   27.8840   35.6080 C   0  0  0  0  0  0  0  0  0  0  0  0
   37.0170   27.7990   34.4450 C   0  0  0  0  0  0  0  0  0  0  0  0
   37.3520   26.8420   33.5330 C   0  0  0  0  0  0  0  0  0  0  0  0
   38.3900   25.9700   33.6610 C   0  0  0  0  0  0  0  0  0  0  0  0
   39.4940   27.0780   36.6530 H   0  0  0  0  0  0  0  0  0  0  0  0
   37.6700   28.6050   36.4310 H   0  0  0  0  0  0  0  0  0  0  0  0
   36.2480   28.5380   34.4830 H   0  0  0  0  0  0  0  0  0  0  0  0
   36.6420   26.9650   32.7480 H   0  0  0  0  0  0  0  0  0  0  0  0
   41.5800   25.6560   34.5890 C   0  0  0  0  0  0  0  0  0  0  0  0
   40.3460   25.2070   35.0790 C   0  0  0  0  0  0  0  0  0  0  0  0
   40.3190   24.0050   35.7970 C   0  0  0  0  0  0  0  0  0  0  0  0
   41.4790   23.3250   35.9890 N   0  0  0  0  0  0  0  0  0  0  0  0
   42.6700   23.7830   35.5030 C   0  0  0  0  0  0  0  0  0  0  0  0
   42.7120   24.9500   34.8020 N   0  0  0  0  0  0  0  0  0  0  0  0
   41.6300   26.5810   34.0310 H   0  0  0  0  0  0  0  0  0  0  0  0
   43.5900   23.2330   35.6610 H   0  0  0  0  0  0  0  0  0  0  0  0
   39.0800   23.4030   36.3740 C   0  0  0  0  0  0  0  0  0  0  0  0
   38.7330   24.0880   37.5540 F   0  0  0  0  0  0  0  0  0  0  0  0
   38.0050   23.3710   35.5630 F   0  0  0  0  0  0  0  0  0  0  0  0
   39.3480   22.1140   36.8200 F   0  0  0  0  0  0  0  0  0  0  0  0
   38.7730   24.7350   32.4910 S   0  0  0  0  0  0  0  0  0  0  0  0
   38.8230   21.6830   33.0930 Cl  0  0  0  0  0  0  0  0  0  0  0  0
   37.4610   22.4080   32.2720 C   0  0  0  0  0  0  0  0  0  0  0  0
   37.3910   23.7550   31.9720 C   0  0  0  0  0  0  0  0  0  0  0  0
   36.3040   24.2800   31.3270 C   0  0  0  0  0  0  0  0  0  0  0  0
   35.2660   23.4150   30.9850 C   0  0  0  0  0  0  0  0  0  0  0  0
   35.3340   22.0560   31.2870 C   0  0  0  0  0  0  0  0  0  0  0  0
   36.4440   21.5360   31.9390 C   0  0  0  0  0  0  0  0  0  0  0  0
   36.1660   25.2830   31.0220 H   0  0  0  0  0  0  0  0  0  0  0  0
   34.3780   23.7990   30.4710 H   0  0  0  0  0  0  0  0  0  0  0  0
   34.4710   21.4630   30.9780 H   0  0  0  0  0  0  0  0  0  0  0  0
   36.3430   20.0770   32.1500 C   0  0  0  0  0  3  0  0  0  0  0  0
   35.6100   19.5060   33.3350 C   0  0  0  0  0  2  0  0  0  0  0  0
   34.9610   19.5010   32.0060 C   0  0  0  0  0  2  0  0  0  0  0  0
  1 12  1  0  0  0  0
  1  2  1  0  0  0  0
  2  7  1  0  0  0  0
  3  2  2  0  0  0  0
  3  8  1  0  0  0  0
  4  9  1  0  0  0  0
  4  3  1  0  0  0  0
  5  6  1  0  0  0  0
  5  4  2  0  0  0  0
  6  1  2  0  0  0  0
 10  5  1  0  0  0  0
 11 16  2  0  0  0  0
 11 12  1  0  0  0  0
 12 13  2  0  0  0  0
 13 14  1  0  0  0  0
 13 19  1  0  0  0  0
 15 18  1  0  0  0  0
 15 14  2  0  0  0  0
 16 15  1  0  0  0  0
 17 11  1  0  0  0  0
 19 22  1  0  0  0  0
 19 20  1  0  0  0  0
 21 19  1  0  0  0  0
 23  6  1  0  0  0  0
 25 24  1  0  0  0  0
 26 25  1  0  0  0  0
 26 23  1  0  0  0  0
 27 26  2  0  0  0  0
 28 29  2  0  0  0  0
 28 27  1  0  0  0  0
 29 30  1  0  0  0  0
 30 34  1  0  0  0  0
 30 25  2  0  0  0  0
 31 27  1  0  0  0  0
 32 28  1  0  0  0  0
 33 29  1  0  0  0  0
 34 35  1  0  0  0  0
 36 34  1  0  0  0  0
 36 35  1  0  0  0  0
M  END
>  <minimizedAffinity>
-6.09081507

$$$$

 OpenBabel03272506283D

 36 39  0  0  0  0  0  0  0  0999 V2000
   39.7620   24.2620   35.1490 C   0  0  0  0  0  0  0  0  0  0  0  0
   41.0400   23.7690   35.3230 C   0  0  0  0  0  0  0  0  0  0  0  0
   42.1930   24.5510   35.2200 C   0  0  0  0  0  0  0  0  0  0  0  0
   42.0410   25.9260   34.9200 C   0  0  0  0  0  0  0  0  0  0  0  0
   40.7670   26.3840   34.7540 C   0  0  0  0  0  0  0  0  0  0  0  0
   39.6430   25.6230   34.8560 C   0  0  0  0  0  0  0  0  0  0  0  0
   41.1850   22.7020   35.5560 H   0  0  0  0  0  0  0  0  0  0  0  0
   43.1570   24.0390   35.3810 H   0  0  0  0  0  0  0  0  0  0  0  0
   43.0000   26.3920   34.8720 H   0  0  0  0  0  0  0  0  0  0  0  0
   40.8870   27.4180   34.5250 H   0  0  0  0  0  0  0  0  0  0  0  0
   38.3160   22.6310   34.1010 C   0  0  0  0  0  0  0  0  0  0  0  0
   38.6860   23.3130   35.2680 C   0  0  0  0  0  0  0  0  0  0  0  0
   37.9910   23.0260   36.4490 C   0  0  0  0  0  0  0  0  0  0  0  0
   36.9920   22.1050   36.4190 N   0  0  0  0  0  0  0  0  0  0  0  0
   36.6500   21.4530   35.2700 C   0  0  0  0  0  0  0  0  0  0  0  0
   37.3170   21.7230   34.1130 N   0  0  0  0  0  0  0  0  0  0  0  0
   38.8350   22.8340   33.1740 H   0  0  0  0  0  0  0  0  0  0  0  0
   35.8510   20.7200   35.2550 H   0  0  0  0  0  0  0  0  0  0  0  0
   38.2720   23.6750   37.7640 C   0  0  0  0  0  0  0  0  0  0  0  0
   39.5690   23.3290   38.1880 F   0  0  0  0  0  0  0  0  0  0  0  0
   38.1490   25.0160   37.7990 F   0  0  0  0  0  0  0  0  0  0  0  0
   37.4560   23.1200   38.7440 F   0  0  0  0  0  0  0  0  0  0  0  0
   38.0250   26.2460   34.6690 S   0  0  0  0  0  0  0  0  0  0  0  0
   36.0320   28.6330   34.5450 Cl  0  0  0  0  0  0  0  0  0  0  0  0
   36.8100   28.0420   33.0950 C   0  0  0  0  0  0  0  0  0  0  0  0
   37.6950   26.9820   33.0910 C   0  0  0  0  0  0  0  0  0  0  0  0
   38.2810   26.5530   31.9310 C   0  0  0  0  0  0  0  0  0  0  0  0
   37.9610   27.2220   30.7510 C   0  0  0  0  0  0  0  0  0  0  0  0
   37.0680   28.2930   30.7510 C   0  0  0  0  0  0  0  0  0  0  0  0
   36.4790   28.7160   31.9350 C   0  0  0  0  0  0  0  0  0  0  0  0
   38.9410   25.7350   31.8130 H   0  0  0  0  0  0  0  0  0  0  0  0
   38.4110   26.9090   29.8030 H   0  0  0  0  0  0  0  0  0  0  0  0
   36.8820   28.7500   29.7770 H   0  0  0  0  0  0  0  0  0  0  0  0
   35.5470   29.8440   31.7320 C   0  0  0  0  0  3  0  0  0  0  0  0
   35.8990   31.2390   32.1750 C   0  0  0  0  0  2  0  0  0  0  0  0
   36.0040   30.8840   30.7440 C   0  0  0  0  0  2  0  0  0  0  0  0
  1 12  1  0  0  0  0
  1  2  1  0  0  0  0
  2  7  1  0  0  0  0
  3  2  2  0  0  0  0
  3  8  1  0  0  0  0
  4  3  1  0  0  0  0
  5  6  1  0  0  0  0
  5  4  2  0  0  0  0
  6  1  2  0  0  0  0
  9  4  1  0  0  0  0
 10  5  1  0  0  0  0
 11 16  2  0  0  0  0
 11 12  1  0  0  0  0
 12 13  2  0  0  0  0
 13 19  1  0  0  0  0
 14 13  1  0  0  0  0
 15 14  2  0  0  0  0
 16 15  1  0  0  0  0
 17 11  1  0  0  0  0
 18 15  1  0  0  0  0
 19 21  1  0  0  0  0
 19 20  1  0  0  0  0
 19 22  1  0  0  0  0
 23  6  1  0  0  0  0
 25 24  1  0  0  0  0
 26 25  1  0  0  0  0
 26 23  1  0  0  0  0
 27 26  2  0  0  0  0
 28 29  2  0  0  0  0
 28 27  1  0  0  0  0
 29 30  1  0  0  0  0
 30 25  2  0  0  0  0
 31 27  1  0  0  0  0
 32 28  1  0  0  0  0
 33 29  1  0  0  0  0
 34 30  1  0  0  0  0
 34 35  1  0  0  0  0
 36 34  1  0  0  0  0
 36 35  1  0  0  0  0
M  END
>  <minimizedAffinity>
-6.06637621

$$$$

 OpenBabel03272506283D

 36 39  0  0  0  0  0  0  0  0999 V2000
   38.1750   22.6420   34.0370 C   0  0  0  0  0  0  0  0  0  0  0  0
   37.5160   21.4530   33.7960 C   0  0  0  0  0  0  0  0  0  0  0  0
   36.5030   21.3080   32.8450 C   0  0  0  0  0  0  0  0  0  0  0  0
   36.1330   22.4440   32.0870 C   0  0  0  0  0  0  0  0  0  0  0  0
   36.8010   23.6050   32.3470 C   0  0  0  0  0  0  0  0  0  0  0  0
   37.7900   23.7460   33.2730 C   0  0  0  0  0  0  0  0  0  0  0  0
   37.7860   20.5540   34.3730 H   0  0  0  0  0  0  0  0  0  0  0  0
   36.0540   20.3050   32.7460 H   0  0  0  0  0  0  0  0  0  0  0  0
   35.3530   22.1850   31.4070 H   0  0  0  0  0  0  0  0  0  0  0  0
   36.3600   24.3170   31.6890 H   0  0  0  0  0  0  0  0  0  0  0  0
   40.4730   22.2480   34.6830 C   0  0  0  0  0  0  0  0  0  0  0  0
   39.1790   22.6220   35.0690 C   0  0  0  0  0  0  0  0  0  0  0  0
   38.9600   22.9470   36.4140 C   0  0  0  0  0  0  0  0  0  0  0  0
   40.0000   22.8860   37.2850 N   0  0  0  0  0  0  0  0  0  0  0  0
   41.2530   22.5200   36.8850 C   0  0  0  0  0  0  0  0  0  0  0  0
   41.4810   22.2010   35.5800 N   0  0  0  0  0  0  0  0  0  0  0  0
   40.6700   21.9920   33.6510 H   0  0  0  0  0  0  0  0  0  0  0  0
   42.0770   22.4740   37.5870 H   0  0  0  0  0  0  0  0  0  0  0  0
   37.6360   23.3590   36.9700 C   0  0  0  0  0  0  0  0  0  0  0  0
   37.7200   23.4300   38.3730 F   0  0  0  0  0  0  0  0  0  0  0  0
   37.1380   24.5220   36.5080 F   0  0  0  0  0  0  0  0  0  0  0  0
   36.7030   22.3510   36.7550 F   0  0  0  0  0  0  0  0  0  0  0  0
   38.6480   25.2370   33.5600 S   0  0  0  0  0  0  0  0  0  0  0  0
   38.1430   26.5260   30.7730 Cl  0  0  0  0  0  0  0  0  0  0  0  0
   37.4440   27.2200   32.2180 C   0  0  0  0  0  0  0  0  0  0  0  0
   37.6430   26.6940   33.4800 C   0  0  0  0  0  0  0  0  0  0  0  0
   37.0750   27.2710   34.5840 C   0  0  0  0  0  0  0  0  0  0  0  0
   36.2870   28.4050   34.3960 C   0  0  0  0  0  0  0  0  0  0  0  0
   36.0840   28.9370   33.1240 C   0  0  0  0  0  0  0  0  0  0  0  0
   36.6670   28.3440   32.0120 C   0  0  0  0  0  0  0  0  0  0  0  0
   37.1910   26.9710   35.5910 H   0  0  0  0  0  0  0  0  0  0  0  0
   35.8140   28.8930   35.2550 H   0  0  0  0  0  0  0  0  0  0  0  0
   35.4510   29.8260   33.0820 H   0  0  0  0  0  0  0  0  0  0  0  0
   36.3590   29.0620   30.7600 C   0  0  0  0  0  3  0  0  0  0  0  0
   36.4240   30.5650   30.6830 C   0  0  0  0  0  2  0  0  0  0  0  0
   37.5260   29.7600   30.1150 C   0  0  0  0  0  2  0  0  0  0  0  0
  1 12  1  0  0  0  0
  2  1  1  0  0  0  0
  2  7  1  0  0  0  0
  3  2  2  0  0  0  0
  4  5  2  0  0  0  0
  4  3  1  0  0  0  0
  5  6  1  0  0  0  0
  6 23  1  0  0  0  0
  6  1  2  0  0  0  0
  8  3  1  0  0  0  0
  9  4  1  0  0  0  0
 10  5  1  0  0  0  0
 11 12  2  0  0  0  0
 11 16  1  0  0  0  0
 12 13  1  0  0  0  0
 13 19  1  0  0  0  0
 13 14  2  0  0  0  0
 15 14  1  0  0  0  0
 15 18  1  0  0  0  0
 16 15  2  0  0  0  0
 17 11  1  0  0  0  0
 19 20  1  0  0  0  0
 21 19  1  0  0  0  0
 22 19  1  0  0  0  0
 24 25  1  0  0  0  0
 25 26  1  0  0  0  0
 26 23  1  0  0  0  0
 26 27  2  0  0  0  0
 27 31  1  0  0  0  0
 28 27  1  0  0  0  0
 28 32  1  0  0  0  0
 29 28  2  0  0  0  0
 30 25  2  0  0  0  0
 30 29  1  0  0  0  0
 33 29  1  0  0  0  0
 34 30  1  0  0  0  0
 35 34  1  0  0  0  0
 36 35  1  0  0  0  0
 36 34  1  0  0  0  0
M  END
>  <minimizedAffinity>
-5.96960926

$$$$

 OpenBabel03272506283D

 36 39  0  0  0  0  0  0  0  0999 V2000
   39.1200   25.7820   34.8700 C   0  0  0  0  0  0  0  0  0  0  0  0
   38.7970   26.7520   35.7980 C   0  0  0  0  0  0  0  0  0  0  0  0
   37.8240   27.7320   35.5870 C   0  0  0  0  0  0  0  0  0  0  0  0
   37.1330   27.7320   34.3530 C   0  0  0  0  0  0  0  0  0  0  0  0
   37.4740   26.7630   33.4550 C   0  0  0  0  0  0  0  0  0  0  0  0
   38.4200   25.8050   33.6610 C   0  0  0  0  0  0  0  0  0  0  0  0
   39.3210   26.7740   36.7670 H   0  0  0  0  0  0  0  0  0  0  0  0
   37.6580   28.4520   36.4080 H   0  0  0  0  0  0  0  0  0  0  0  0
   36.4280   28.5320   34.3340 H   0  0  0  0  0  0  0  0  0  0  0  0
   36.8550   26.9560   32.6100 H   0  0  0  0  0  0  0  0  0  0  0  0
   39.7760   23.7360   35.9800 C   0  0  0  0  0  0  0  0  0  0  0  0
   40.1630   24.8610   35.2390 C   0  0  0  0  0  0  0  0  0  0  0  0
   41.5170   25.0030   34.9140 C   0  0  0  0  0  0  0  0  0  0  0  0
   42.3980   24.0550   35.3280 N   0  0  0  0  0  0  0  0  0  0  0  0
   41.9970   22.9670   36.0490 C   0  0  0  0  0  0  0  0  0  0  0  0
   40.6830   22.8150   36.3720 N   0  0  0  0  0  0  0  0  0  0  0  0
   38.7360   23.6000   36.2440 H   0  0  0  0  0  0  0  0  0  0  0  0
   42.7070   22.2160   36.3740 H   0  0  0  0  0  0  0  0  0  0  0  0
   42.0750   26.1490   34.1350 C   0  0  0  0  0  0  0  0  0  0  0  0
   41.4130   27.3340   34.5070 F   0  0  0  0  0  0  0  0  0  0  0  0
   43.4030   26.3450   34.2410 F   0  0  0  0  0  0  0  0  0  0  0  0
   41.7450   26.0060   32.7920 F   0  0  0  0  0  0  0  0  0  0  0  0
   38.8100   24.5590   32.5050 S   0  0  0  0  0  0  0  0  0  0  0  0
   38.7870   21.5170   33.1590 Cl  0  0  0  0  0  0  0  0  0  0  0  0
   37.4620   22.2530   32.2870 C   0  0  0  0  0  0  0  0  0  0  0  0
   37.4250   23.5950   31.9620 C   0  0  0  0  0  0  0  0  0  0  0  0
   36.3670   24.1290   31.2780 C   0  0  0  0  0  0  0  0  0  0  0  0
   35.3240   23.2770   30.9200 C   0  0  0  0  0  0  0  0  0  0  0  0
   35.3580   21.9220   31.2460 C   0  0  0  0  0  0  0  0  0  0  0  0
   36.4390   21.3930   31.9390 C   0  0  0  0  0  0  0  0  0  0  0  0
   36.2570   25.1290   30.9520 H   0  0  0  0  0  0  0  0  0  0  0  0
   34.4590   23.6680   30.3740 H   0  0  0  0  0  0  0  0  0  0  0  0
   34.4940   21.3390   30.9220 H   0  0  0  0  0  0  0  0  0  0  0  0
   36.3060   19.9400   32.1710 C   0  0  0  0  0  3  0  0  0  0  0  0
   35.5520   19.4030   33.3580 C   0  0  0  0  0  2  0  0  0  0  0  0
   34.9120   19.3920   32.0260 C   0  0  0  0  0  2  0  0  0  0  0  0
  1 12  1  0  0  0  0
  1  2  1  0  0  0  0
  2  7  1  0  0  0  0
  3  2  2  0  0  0  0
  3  8  1  0  0  0  0
  4  3  1  0  0  0  0
  5  6  1  0  0  0  0
  5  4  2  0  0  0  0
  6  1  2  0  0  0  0
  9  4  1  0  0  0  0
 10  5  1  0  0  0  0
 11 17  1  0  0  0  0
 11 16  1  0  0  0  0
 12 11  2  0  0  0  0
 13 12  1  0  0  0  0
 13 14  2  0  0  0  0
 14 15  1  0  0  0  0
 15 16  2  0  0  0  0
 15 18  1  0  0  0  0
 19 21  1  0  0  0  0
 19 20  1  0  0  0  0
 19 13  1  0  0  0  0
 22 19  1  0  0  0  0
 23  6  1  0  0  0  0
 25 24  1  0  0  0  0
 26 25  1  0  0  0  0
 26 23  1  0  0  0  0
 27 26  2  0  0  0  0
 28 29  2  0  0  0  0
 28 27  1  0  0  0  0
 29 30  1  0  0  0  0
 30 34  1  0  0  0  0
 30 25  2  0  0  0  0
 31 27  1  0  0  0  0
 32 28  1  0  0  0  0
 33 29  1  0  0  0  0
 34 35  1  0  0  0  0
 36 34  1  0  0  0  0
 36 35  1  0  0  0  0
M  END
>  <minimizedAffinity>
-5.73862648

$$$$

 OpenBabel03272506283D

 36 39  0  0  0  0  0  0  0  0999 V2000
   38.9630   25.8330   33.8860 C   0  0  0  0  0  0  0  0  0  0  0  0
   38.7590   27.1400   34.2830 C   0  0  0  0  0  0  0  0  0  0  0  0
   38.4360   27.5100   35.5900 C   0  0  0  0  0  0  0  0  0  0  0  0
   38.3100   26.4900   36.5620 C   0  0  0  0  0  0  0  0  0  0  0  0
   38.5170   25.2080   36.1410 C   0  0  0  0  0  0  0  0  0  0  0  0
   38.8340   24.8460   34.8670 C   0  0  0  0  0  0  0  0  0  0  0  0
   38.8500   27.9530   33.5450 H   0  0  0  0  0  0  0  0  0  0  0  0
   38.2980   28.5890   35.7810 H   0  0  0  0  0  0  0  0  0  0  0  0
   38.0620   26.9190   37.5060 H   0  0  0  0  0  0  0  0  0  0  0  0
   38.3600   24.6160   37.0120 H   0  0  0  0  0  0  0  0  0  0  0  0
   40.6220   25.6050   32.1410 C   0  0  0  0  0  0  0  0  0  0  0  0
   39.2660   25.6230   32.4950 C   0  0  0  0  0  0  0  0  0  0  0  0
   38.3170   25.4370   31.4810 C   0  0  0  0  0  0  0  0  0  0  0  0
   38.7440   25.2490   30.2050 N   0  0  0  0  0  0  0  0  0  0  0  0
   40.0710   25.2340   29.8850 C   0  0  0  0  0  0  0  0  0  0  0  0
   41.0050   25.4140   30.8610 N   0  0  0  0  0  0  0  0  0  0  0  0
   41.3760   25.7460   32.9040 H   0  0  0  0  0  0  0  0  0  0  0  0
   40.4020   25.0830   28.8650 H   0  0  0  0  0  0  0  0  0  0  0  0
   36.8410   25.4350   31.7070 C   0  0  0  0  0  0  0  0  0  0  0  0
   36.1860   25.0690   30.5160 F   0  0  0  0  0  0  0  0  0  0  0  0
   36.3970   24.6450   32.7040 F   0  0  0  0  0  0  0  0  0  0  0  0
   36.3990   26.7350   31.9300 F   0  0  0  0  0  0  0  0  0  0  0  0
   39.1240   23.2010   34.3680 S   0  0  0  0  0  0  0  0  0  0  0  0
   37.9920   21.9390   31.7580 Cl  0  0  0  0  0  0  0  0  0  0  0  0
   37.2610   21.5920   33.3080 C   0  0  0  0  0  0  0  0  0  0  0  0
   37.7170   22.1310   34.4960 C   0  0  0  0  0  0  0  0  0  0  0  0
   37.1130   21.8320   35.6870 C   0  0  0  0  0  0  0  0  0  0  0  0
   36.0250   20.9610   35.6670 C   0  0  0  0  0  0  0  0  0  0  0  0
   35.5620   20.4150   34.4710 C   0  0  0  0  0  0  0  0  0  0  0  0
   36.1830   20.7290   33.2690 C   0  0  0  0  0  0  0  0  0  0  0  0
   37.3600   22.2150   36.6410 H   0  0  0  0  0  0  0  0  0  0  0  0
   35.5170   20.6960   36.6010 H   0  0  0  0  0  0  0  0  0  0  0  0
   34.7050   19.7450   34.5610 H   0  0  0  0  0  0  0  0  0  0  0  0
   35.5380   20.0750   32.1120 C   0  0  0  0  0  3  0  0  0  0  0  0
   36.1830   18.9070   31.4140 C   0  0  0  0  0  2  0  0  0  0  0  0
   35.0660   18.6660   32.3520 C   0  0  0  0  0  2  0  0  0  0  0  0
  1  2  2  0  0  0  0
  1  6  1  0  0  0  0
  2  3  1  0  0  0  0
  3  8  1  0  0  0  0
  3  4  2  0  0  0  0
  4  9  1  0  0  0  0
  5  4  1  0  0  0  0
  5 10  1  0  0  0  0
  6  5  2  0  0  0  0
  7  2  1  0  0  0  0
 11 12  1  0  0  0  0
 11 17  1  0  0  0  0
 12  1  1  0  0  0  0
 13 19  1  0  0  0  0
 13 12  2  0  0  0  0
 14 13  1  0  0  0  0
 15 14  2  0  0  0  0
 15 16  1  0  0  0  0
 16 11  2  0  0  0  0
 18 15  1  0  0  0  0
 19 22  1  0  0  0  0
 19 21  1  0  0  0  0
 20 19  1  0  0  0  0
 23 26  1  0  0  0  0
 23  6  1  0  0  0  0
 24 25  1  0  0  0  0
 25 26  1  0  0  0  0
 26 27  2  0  0  0  0
 27 31  1  0  0  0  0
 28 27  1  0  0  0  0
 28 32  1  0  0  0  0
 29 33  1  0  0  0  0
 29 28  2  0  0  0  0
 30 25  2  0  0  0  0
 30 29  1  0  0  0  0
 34 36  1  0  0  0  0
 34 30  1  0  0  0  0
 35 34  1  0  0  0  0
 35 36  1  0  0  0  0
M  END
>  <minimizedAffinity>
-5.72490215

$$$$

 OpenBabel03272506283D

 36 39  0  0  0  0  0  0  0  0999 V2000
   36.6640   28.3120   31.1900 C   0  0  0  0  0  0  0  0  0  0  0  0
   37.0670   28.7000   29.9280 C   0  0  0  0  0  0  0  0  0  0  0  0
   37.1090   30.0300   29.5040 C   0  0  0  0  0  0  0  0  0  0  0  0
   36.7150   31.0350   30.4180 C   0  0  0  0  0  0  0  0  0  0  0  0
   36.3210   30.6220   31.6570 C   0  0  0  0  0  0  0  0  0  0  0  0
   36.2820   29.3260   32.0730 C   0  0  0  0  0  0  0  0  0  0  0  0
   37.3780   27.9360   29.1970 H   0  0  0  0  0  0  0  0  0  0  0  0
   37.4510   30.2110   28.4690 H   0  0  0  0  0  0  0  0  0  0  0  0
   36.7970   31.9940   29.9580 H   0  0  0  0  0  0  0  0  0  0  0  0
   36.0590   31.5210   32.1650 H   0  0  0  0  0  0  0  0  0  0  0  0
   35.5020   26.1920   31.0970 C   0  0  0  0  0  0  0  0  0  0  0  0
   36.6590   26.8970   31.4570 C   0  0  0  0  0  0  0  0  0  0  0  0
   37.7120   26.1830   32.0420 C   0  0  0  0  0  0  0  0  0  0  0  0
   37.5730   24.8460   32.2370 N   0  0  0  0  0  0  0  0  0  0  0  0
   36.4370   24.1800   31.8770 C   0  0  0  0  0  0  0  0  0  0  0  0
   35.4040   24.8620   31.3070 N   0  0  0  0  0  0  0  0  0  0  0  0
   34.6740   26.7190   30.6430 H   0  0  0  0  0  0  0  0  0  0  0  0
   36.3350   23.1130   32.0370 H   0  0  0  0  0  0  0  0  0  0  0  0
   39.0000   26.7990   32.4790 C   0  0  0  0  0  0  0  0  0  0  0  0
   39.9000   25.7840   32.8550 F   0  0  0  0  0  0  0  0  0  0  0  0
   39.6040   27.6020   31.5820 F   0  0  0  0  0  0  0  0  0  0  0  0
   38.8040   27.5070   33.6590 F   0  0  0  0  0  0  0  0  0  0  0  0
   35.8040   28.8320   33.6750 S   0  0  0  0  0  0  0  0  0  0  0  0
   32.7690   29.5150   33.6200 Cl  0  0  0  0  0  0  0  0  0  0  0  0
   33.8650   30.4020   34.6530 C   0  0  0  0  0  0  0  0  0  0  0  0
   35.2220   30.1470   34.7100 C   0  0  0  0  0  0  0  0  0  0  0  0
   36.0430   30.8680   35.5340 C   0  0  0  0  0  0  0  0  0  0  0  0
   35.4690   31.8660   36.3190 C   0  0  0  0  0  0  0  0  0  0  0  0
   34.1000   32.1260   36.2640 C   0  0  0  0  0  0  0  0  0  0  0  0
   33.2780   31.3890   35.4210 C   0  0  0  0  0  0  0  0  0  0  0  0
   37.0920   30.7770   35.6280 H   0  0  0  0  0  0  0  0  0  0  0  0
   36.0930   32.4630   36.9920 H   0  0  0  0  0  0  0  0  0  0  0  0
   33.7480   32.9280   36.9160 H   0  0  0  0  0  0  0  0  0  0  0  0
   31.8680   31.8250   35.4830 C   0  0  0  0  0  3  0  0  0  0  0  0
   30.8840   31.1620   36.4100 C   0  0  0  0  0  2  0  0  0  0  0  0
   31.4540   32.4770   36.7750 C   0  0  0  0  0  2  0  0  0  0  0  0
  1 12  1  0  0  0  0
  1  6  1  0  0  0  0
  2  1  2  0  0  0  0
  3  2  1  0  0  0  0
  3  4  2  0  0  0  0
  4  5  1  0  0  0  0
  5  6  2  0  0  0  0
  5 10  1  0  0  0  0
  6 23  1  0  0  0  0
  7  2  1  0  0  0  0
  8  3  1  0  0  0  0
  9  4  1  0  0  0  0
 11 16  2  0  0  0  0
 11 12  1  0  0  0  0
 12 13  2  0  0  0  0
 13 14  1  0  0  0  0
 13 19  1  0  0  0  0
 15 18  1  0  0  0  0
 15 14  2  0  0  0  0
 16 15  1  0  0  0  0
 17 11  1  0  0  0  0
 19 20  1  0  0  0  0
 19 22  1  0  0  0  0
 21 19  1  0  0  0  0
 23 26  1  0  0  0  0
 24 25  1  0  0  0  0
 25 26  2  0  0  0  0
 25 30  1  0  0  0  0
 26 27  1  0  0  0  0
 27 31  1  0  0  0  0
 27 28  2  0  0  0  0
 28 32  1  0  0  0  0
 29 28  1  0  0  0  0
 29 33  1  0  0  0  0
 30 34  1  0  0  0  0
 30 29  2  0  0  0  0
 34 35  1  0  0  0  0
 34 36  1  0  0  0  0
 35 36  1  0  0  0  0
M  END
>  <minimizedAffinity>
-5.72382832

$$$$

 OpenBabel03272506283D

 36 39  0  0  0  0  0  0  0  0999 V2000
   37.2770   27.1350   31.9780 C   0  0  0  0  0  0  0  0  0  0  0  0
   36.0930   27.6760   31.5160 C   0  0  0  0  0  0  0  0  0  0  0  0
   35.2540   28.4780   32.2930 C   0  0  0  0  0  0  0  0  0  0  0  0
   35.6380   28.7520   33.6260 C   0  0  0  0  0  0  0  0  0  0  0  0
   36.8130   28.2050   34.0550 C   0  0  0  0  0  0  0  0  0  0  0  0
   37.6320   27.4240   33.2980 C   0  0  0  0  0  0  0  0  0  0  0  0
   35.7710   27.4770   30.4820 H   0  0  0  0  0  0  0  0  0  0  0  0
   34.3340   28.8500   31.8080 H   0  0  0  0  0  0  0  0  0  0  0  0
   34.9060   29.3710   34.0930 H   0  0  0  0  0  0  0  0  0  0  0  0
   36.8960   28.5210   35.0690 H   0  0  0  0  0  0  0  0  0  0  0  0
   38.9610   26.9580   30.2520 C   0  0  0  0  0  0  0  0  0  0  0  0
   38.0110   26.3110   31.0540 C   0  0  0  0  0  0  0  0  0  0  0  0
   37.8490   24.9290   30.9010 C   0  0  0  0  0  0  0  0  0  0  0  0
   38.6110   24.2730   29.9870 N   0  0  0  0  0  0  0  0  0  0  0  0
   39.5310   24.9240   29.2170 C   0  0  0  0  0  0  0  0  0  0  0  0
   39.6990   26.2690   29.3550 N   0  0  0  0  0  0  0  0  0  0  0  0
   39.1080   28.0250   30.3490 H   0  0  0  0  0  0  0  0  0  0  0  0
   40.1340   24.3920   28.4910 H   0  0  0  0  0  0  0  0  0  0  0  0
   36.8750   24.1090   31.6820 C   0  0  0  0  0  0  0  0  0  0  0  0
   36.9250   22.7750   31.2380 F   0  0  0  0  0  0  0  0  0  0  0  0
   37.0300   24.1250   33.0200 F   0  0  0  0  0  0  0  0  0  0  0  0
   35.5780   24.5020   31.3730 F   0  0  0  0  0  0  0  0  0  0  0  0
   39.1440   26.7660   33.8660 S   0  0  0  0  0  0  0  0  0  0  0  0
   41.1330   24.3730   33.8260 Cl  0  0  0  0  0  0  0  0  0  0  0  0
   39.8980   24.4860   35.0570 C   0  0  0  0  0  0  0  0  0  0  0  0
   38.9840   25.5210   35.1160 C   0  0  0  0  0  0  0  0  0  0  0  0
   38.0320   25.5680   36.0990 C   0  0  0  0  0  0  0  0  0  0  0  0
   38.0150   24.5420   37.0420 C   0  0  0  0  0  0  0  0  0  0  0  0
   38.9360   23.4970   36.9850 C   0  0  0  0  0  0  0  0  0  0  0  0
   39.8950   23.4600   35.9820 C   0  0  0  0  0  0  0  0  0  0  0  0
   37.2700   26.2920   36.2150 H   0  0  0  0  0  0  0  0  0  0  0  0
   37.2700   24.5470   37.8450 H   0  0  0  0  0  0  0  0  0  0  0  0
   38.8400   22.7430   37.7690 H   0  0  0  0  0  0  0  0  0  0  0  0
   40.7620   22.2680   36.0720 C   0  0  0  0  0  3  0  0  0  0  0  0
   42.1570   22.3560   36.6340 C   0  0  0  0  0  2  0  0  0  0  0  0
   41.0700   21.8030   37.4700 C   0  0  0  0  0  2  0  0  0  0  0  0
  1  6  1  0  0  0  0
  2  1  2  0  0  0  0
  2  3  1  0  0  0  0
  3  4  2  0  0  0  0
  4  5  1  0  0  0  0
  4  9  1  0  0  0  0
  5 10  1  0  0  0  0
  6 23  1  0  0  0  0
  6  5  2  0  0  0  0
  7  2  1  0  0  0  0
  8  3  1  0  0  0  0
 11 17  1  0  0  0  0
 11 12  1  0  0  0  0
 12  1  1  0  0  0  0
 13 12  2  0  0  0  0
 13 19  1  0  0  0  0
 14 13  1  0  0  0  0
 15 16  1  0  0  0  0
 15 14  2  0  0  0  0
 16 11  2  0  0  0  0
 18 15  1  0  0  0  0
 19 21  1  0  0  0  0
 20 19  1  0  0  0  0
 22 19  1  0  0  0  0
 23 26  1  0  0  0  0
 24 25  1  0  0  0  0
 25 26  2  0  0  0  0
 25 30  1  0  0  0  0
 26 27  1  0  0  0  0
 27 31  1  0  0  0  0
 27 28  2  0  0  0  0
 28 32  1  0  0  0  0
 29 28  1  0  0  0  0
 29 33  1  0  0  0  0
 30 34  1  0  0  0  0
 30 29  2  0  0  0  0
 34 35  1  0  0  0  0
 34 36  1  0  0  0  0
 35 36  1  0  0  0  0
M  END
>  <minimizedAffinity>
-5.71663189

$$$$

 OpenBabel03272506283D

 36 39  0  0  0  0  0  0  0  0999 V2000
   37.5980   26.6270   31.4860 C   0  0  0  0  0  0  0  0  0  0  0  0
   36.4640   27.2160   30.9630 C   0  0  0  0  0  0  0  0  0  0  0  0
   35.7030   28.1690   31.6440 C   0  0  0  0  0  0  0  0  0  0  0  0
   36.1170   28.5510   32.9410 C   0  0  0  0  0  0  0  0  0  0  0  0
   37.2400   27.9520   33.4320 C   0  0  0  0  0  0  0  0  0  0  0  0
   37.9840   27.0250   32.7690 C   0  0  0  0  0  0  0  0  0  0  0  0
   36.1210   26.9350   29.9540 H   0  0  0  0  0  0  0  0  0  0  0  0
   34.8170   28.5660   31.1170 H   0  0  0  0  0  0  0  0  0  0  0  0
   35.4440   29.2790   33.3350 H   0  0  0  0  0  0  0  0  0  0  0  0
   37.3560   28.3670   34.4060 H   0  0  0  0  0  0  0  0  0  0  0  0
   39.3740   26.0780   29.9380 C   0  0  0  0  0  0  0  0  0  0  0  0
   38.2530   25.6460   30.6600 C   0  0  0  0  0  0  0  0  0  0  0  0
   37.8570   24.3090   30.5270 C   0  0  0  0  0  0  0  0  0  0  0  0
   38.5670   23.4890   29.7100 N   0  0  0  0  0  0  0  0  0  0  0  0
   39.6570   23.9320   29.0180 C   0  0  0  0  0  0  0  0  0  0  0  0
   40.0530   25.2300   29.1360 N   0  0  0  0  0  0  0  0  0  0  0  0
   39.7020   27.1050   30.0220 H   0  0  0  0  0  0  0  0  0  0  0  0
   40.2180   23.2700   28.3680 H   0  0  0  0  0  0  0  0  0  0  0  0
   36.6830   23.7110   31.2310 C   0  0  0  0  0  0  0  0  0  0  0  0
   36.6980   22.3140   31.0610 F   0  0  0  0  0  0  0  0  0  0  0  0
   36.5800   23.9850   32.5450 F   0  0  0  0  0  0  0  0  0  0  0  0
   35.5080   24.0980   30.5950 F   0  0  0  0  0  0  0  0  0  0  0  0
   39.4350   26.3010   33.4110 S   0  0  0  0  0  0  0  0  0  0  0  0
   38.1270   26.3030   36.2350 Cl  0  0  0  0  0  0  0  0  0  0  0  0
   38.5950   24.8030   35.4680 C   0  0  0  0  0  0  0  0  0  0  0  0
   39.1870   24.7450   34.2210 C   0  0  0  0  0  0  0  0  0  0  0  0
   39.5370   23.5470   33.6590 C   0  0  0  0  0  0  0  0  0  0  0  0
   39.2750   22.3840   34.3820 C   0  0  0  0  0  0  0  0  0  0  0  0
   38.6770   22.4390   35.6410 C   0  0  0  0  0  0  0  0  0  0  0  0
   38.3290   23.6620   36.2000 C   0  0  0  0  0  0  0  0  0  0  0  0
   40.0220   23.3940   32.7320 H   0  0  0  0  0  0  0  0  0  0  0  0
   39.5380   21.4070   33.9640 H   0  0  0  0  0  0  0  0  0  0  0  0
   38.5140   21.4750   36.1260 H   0  0  0  0  0  0  0  0  0  0  0  0
   37.7330   23.5190   37.5440 C   0  0  0  0  0  3  0  0  0  0  0  0
   38.5840   23.2300   38.7520 C   0  0  0  0  0  2  0  0  0  0  0  0
   38.0890   24.6040   38.5230 C   0  0  0  0  0  2  0  0  0  0  0  0
  1  6  1  0  0  0  0
  2  1  2  0  0  0  0
  2  3  1  0  0  0  0
  3  4  2  0  0  0  0
  4  9  1  0  0  0  0
  4  5  1  0  0  0  0
  5 10  1  0  0  0  0
  6 23  1  0  0  0  0
  6  5  2  0  0  0  0
  7  2  1  0  0  0  0
  8  3  1  0  0  0  0
 11 17  1  0  0  0  0
 11 12  1  0  0  0  0
 12  1  1  0  0  0  0
 13 12  2  0  0  0  0
 13 19  1  0  0  0  0
 14 13  1  0  0  0  0
 15 16  1  0  0  0  0
 15 14  2  0  0  0  0
 16 11  2  0  0  0  0
 18 15  1  0  0  0  0
 19 21  1  0  0  0  0
 20 19  1  0  0  0  0
 22 19  1  0  0  0  0
 23 26  1  0  0  0  0
 25 30  1  0  0  0  0
 25 24  1  0  0  0  0
 26 25  2  0  0  0  0
 27 26  1  0  0  0  0
 27 28  2  0  0  0  0
 28 29  1  0  0  0  0
 29 33  1  0  0  0  0
 29 30  2  0  0  0  0
 30 34  1  0  0  0  0
 31 27  1  0  0  0  0
 32 28  1  0  0  0  0
 34 36  1  0  0  0  0
 34 35  1  0  0  0  0
 36 35  1  0  0  0  0
M  END
>  <minimizedAffinity>
-5.68373156

$$$$
