REMARK  Name = 
REMARK  4 active torsions:
REMARK  status: ('A' for Active; 'I' for Inactive)
REMARK    1  A    between atoms: C_1  and  C_2
REMARK    2  A    between atoms: C_1  and  C_9
REMARK    3  A    between atoms: C_8  and  C_14
REMARK    4  A    between atoms: C_12  and  C_27
REMARK                            x       y       z     vdW  Elec       q    Type
REMARK                         _______ _______ _______ _____ _____    ______ ____
ROOT
ATOM      1  C   UNL     1      33.287  27.278  48.006  0.00  0.00    +0.000 C 
ATOM      2  H   UNL     1      32.631  27.991  47.441  0.00  0.00    +0.000 HD
ATOM      3  H   UNL     1      32.748  26.881  48.881  0.00  0.00    +0.000 HD
ENDROOT
BRANCH   1   4
ATOM      4  C   UNL     1      33.709  26.203  47.050  0.00  0.00    +0.000 A 
ATOM      5  C   UNL     1      33.937  24.891  47.370  0.00  0.00    +0.000 A 
ATOM      6  C   UNL     1      34.322  23.993  46.402  0.00  0.00    +0.000 A 
ATOM      7  C   UNL     1      34.493  24.378  45.080  0.00  0.00    +0.000 A 
ATOM      8  C   UNL     1      34.268  25.686  44.752  0.00  0.00    +0.000 A 
ATOM      9  C   UNL     1      33.882  26.593  45.711  0.00  0.00    +0.000 A 
ATOM     10  H   UNL     1      33.779  24.685  48.420  0.00  0.00    +0.000 HD
ATOM     11  H   UNL     1      34.474  22.978  46.774  0.00  0.00    +0.000 HD
ATOM     12  H   UNL     1      34.796  23.575  44.430  0.00  0.00    +0.000 HD
ATOM     13  H   UNL     1      34.410  25.959  43.708  0.00  0.00    +0.000 HD
ATOM     14  H   UNL     1      33.730  27.614  45.336  0.00  0.00    +0.000 HD
ENDBRANCH   1   4
BRANCH   1  16
ATOM     15  C   UNL     1      34.680  28.405  49.730  0.00  0.00    +0.000 C 
ATOM     16  C   UNL     1      34.421  28.067  48.498  0.00  0.00    +0.000 C 
BRANCH  15  21
ATOM     17  C   UNL     1      37.365  30.232  51.437  0.00  0.00    +0.000 A 
ATOM     18  C   UNL     1      38.115  30.688  50.317  0.00  0.00    +0.000 A 
ATOM     19  C   UNL     1      37.683  30.360  49.016  0.00  0.00    +0.000 A 
ATOM     20  N   UNL     1      36.552  29.612  48.929  0.00  0.00    +0.000 NA
ATOM     21  C   UNL     1      35.873  29.201  49.996  0.00  0.00    +0.000 A 
ATOM     22  N   UNL     1      36.277  29.508  51.234  0.00  0.00    +0.000 NA
ATOM     23  H   UNL     1      37.748  30.517  52.407  0.00  0.00    +0.000 HD
ATOM     24  H   UNL     1      38.988  31.268  50.472  0.00  0.00    +0.000 HD
BRANCH  19  25
ATOM     25  C   UNL     1      38.435  30.816  47.828  0.00  0.00    +0.000 C 
ATOM     26  C   UNL     1      37.772  30.696  46.463  0.00  0.00    +0.000 C 
ATOM     27  C   UNL     1      38.050  32.019  47.092  0.00  0.00    +0.000 C 
ENDBRANCH  19  25
ENDBRANCH  15  21
ENDBRANCH   1  16
TORSDOF 4
