
 OpenBabel03262520083D

 12 13  0  0  0  0  0  0  0  0999 V2000
   38.8180   27.3190   35.5270 C   0  0  0  0  0  0  0  0  0  0  0  0
   39.7520   26.8970   34.5630 C   0  0  0  0  0  0  0  0  0  0  0  0
   40.0700   25.5230   34.4950 C   0  0  0  0  0  0  0  0  0  0  0  0
   39.4530   24.6860   35.3680 N   0  0  0  0  0  0  0  0  0  0  0  0
   38.5530   25.1220   36.2900 C   0  0  0  0  0  0  0  0  0  0  0  0
   38.2390   26.4310   36.3680 N   0  0  0  0  0  0  0  0  0  0  0  0
   38.5360   28.3630   35.6250 H   0  0  0  0  0  0  0  0  0  0  0  0
   40.2090   27.6280   33.8910 H   0  0  0  0  0  0  0  0  0  0  0  0
   40.7820   25.1780   33.7640 H   0  0  0  0  0  0  0  0  0  0  0  0
   37.9200   24.1290   37.2150 C   0  0  0  0  0  3  0  0  0  0  0  0
   37.9080   24.3160   38.6640 C   0  0  0  0  0  2  0  0  0  0  0  0
   38.8290   23.2940   38.0550 C   0  0  0  0  0  2  0  0  0  0  0  0
  1  7  1  0  0  0  0
  1  6  1  0  0  0  0
  2  1  2  0  0  0  0
  3  2  1  0  0  0  0
  3  4  2  0  0  0  0
  4  5  1  0  0  0  0
  5  6  2  0  0  0  0
  5 10  1  0  0  0  0
  8  2  1  0  0  0  0
  9  3  1  0  0  0  0
 10 12  1  0  0  0  0
 10 11  1  0  0  0  0
 12 11  1  0  0  0  0
M  END
>  <minimizedAffinity>
-3.3843112

$$$$

 OpenBabel03262520083D

 12 13  0  0  0  0  0  0  0  0999 V2000
   39.7050   22.9680   36.9650 C   0  0  0  0  0  0  0  0  0  0  0  0
   39.0040   23.0350   38.1830 C   0  0  0  0  0  0  0  0  0  0  0  0
   38.1200   24.1180   38.3880 C   0  0  0  0  0  0  0  0  0  0  0  0
   38.0000   25.0330   37.3930 N   0  0  0  0  0  0  0  0  0  0  0  0
   38.6900   24.9430   36.2250 C   0  0  0  0  0  0  0  0  0  0  0  0
   39.5380   23.9150   36.0140 N   0  0  0  0  0  0  0  0  0  0  0  0
   40.3970   22.1580   36.7530 H   0  0  0  0  0  0  0  0  0  0  0  0
   39.1510   22.2600   38.9400 H   0  0  0  0  0  0  0  0  0  0  0  0
   37.5730   24.1890   39.3130 H   0  0  0  0  0  0  0  0  0  0  0  0
   38.4960   25.9990   35.1810 C   0  0  0  0  0  3  0  0  0  0  0  0
   39.5120   27.0110   34.9020 C   0  0  0  0  0  2  0  0  0  0  0  0
   38.2650   27.3970   35.6510 C   0  0  0  0  0  2  0  0  0  0  0  0
  1  2  1  0  0  0  0
  2  3  2  0  0  0  0
  2  8  1  0  0  0  0
  3  9  1  0  0  0  0
  4  3  1  0  0  0  0
  5  4  2  0  0  0  0
  6  5  1  0  0  0  0
  6  1  2  0  0  0  0
  7  1  1  0  0  0  0
 10 12  1  0  0  0  0
 10  5  1  0  0  0  0
 11 10  1  0  0  0  0
 11 12  1  0  0  0  0
M  END
>  <minimizedAffinity>
-3.34399319

$$$$

 OpenBabel03262520083D

 12 13  0  0  0  0  0  0  0  0999 V2000
   37.4340   22.9940   37.0420 C   0  0  0  0  0  0  0  0  0  0  0  0
   37.7140   22.3310   35.8340 C   0  0  0  0  0  0  0  0  0  0  0  0
   38.2210   23.0890   34.7550 C   0  0  0  0  0  0  0  0  0  0  0  0
   38.4080   24.4190   34.9500 N   0  0  0  0  0  0  0  0  0  0  0  0
   38.1290   25.0350   36.1290 C   0  0  0  0  0  0  0  0  0  0  0  0
   37.6440   24.3250   37.1680 N   0  0  0  0  0  0  0  0  0  0  0  0
   37.0430   22.4620   37.9040 H   0  0  0  0  0  0  0  0  0  0  0  0
   37.5390   21.2550   35.7490 H   0  0  0  0  0  0  0  0  0  0  0  0
   38.4430   22.6010   33.8210 H   0  0  0  0  0  0  0  0  0  0  0  0
   38.3650   26.5080   36.2560 C   0  0  0  0  0  3  0  0  0  0  0  0
   37.7970   27.4700   35.3150 C   0  0  0  0  0  2  0  0  0  0  0  0
   39.2660   27.1500   35.2530 C   0  0  0  0  0  2  0  0  0  0  0  0
  1  6  1  0  0  0  0
  1  7  1  0  0  0  0
  2  1  2  0  0  0  0
  3  4  2  0  0  0  0
  3  2  1  0  0  0  0
  4  5  1  0  0  0  0
  5 10  1  0  0  0  0
  5  6  2  0  0  0  0
  8  2  1  0  0  0  0
  9  3  1  0  0  0  0
 11 10  1  0  0  0  0
 12 11  1  0  0  0  0
 12 10  1  0  0  0  0
M  END
>  <minimizedAffinity>
-3.28997731

$$$$

 OpenBabel03262520083D

 12 13  0  0  0  0  0  0  0  0999 V2000
   38.4360   25.5500   33.8400 C   0  0  0  0  0  0  0  0  0  0  0  0
   38.7370   26.8890   34.1490 C   0  0  0  0  0  0  0  0  0  0  0  0
   38.6720   27.2950   35.5010 C   0  0  0  0  0  0  0  0  0  0  0  0
   38.3210   26.3640   36.4250 N   0  0  0  0  0  0  0  0  0  0  0  0
   38.0360   25.0760   36.0970 C   0  0  0  0  0  0  0  0  0  0  0  0
   38.0930   24.6730   34.8120 N   0  0  0  0  0  0  0  0  0  0  0  0
   38.4690   25.1820   32.8190 H   0  0  0  0  0  0  0  0  0  0  0  0
   39.0120   27.5840   33.3520 H   0  0  0  0  0  0  0  0  0  0  0  0
   38.8990   28.3150   35.7600 H   0  0  0  0  0  0  0  0  0  0  0  0
   37.6580   24.1160   37.1820 C   0  0  0  0  0  3  0  0  0  0  0  0
   37.9600   24.3720   38.5880 C   0  0  0  0  0  2  0  0  0  0  0  0
   38.7570   23.3440   37.8330 C   0  0  0  0  0  2  0  0  0  0  0  0
  1  2  2  0  0  0  0
  1  6  1  0  0  0  0
  2  3  1  0  0  0  0
  3  9  1  0  0  0  0
  3  4  2  0  0  0  0
  5  4  1  0  0  0  0
  5 10  1  0  0  0  0
  6  5  2  0  0  0  0
  7  1  1  0  0  0  0
  8  2  1  0  0  0  0
 10 12  1  0  0  0  0
 10 11  1  0  0  0  0
 12 11  1  0  0  0  0
M  END
>  <minimizedAffinity>
-3.28267574

$$$$

 OpenBabel03262520083D

 12 13  0  0  0  0  0  0  0  0999 V2000
   35.8530   27.8200   32.0230 C   0  0  0  0  0  0  0  0  0  0  0  0
   35.9080   26.5300   31.4650 C   0  0  0  0  0  0  0  0  0  0  0  0
   36.5970   25.5220   32.1760 C   0  0  0  0  0  0  0  0  0  0  0  0
   37.1670   25.8600   33.3600 N   0  0  0  0  0  0  0  0  0  0  0  0
   37.0980   27.1160   33.8760 C   0  0  0  0  0  0  0  0  0  0  0  0
   36.4440   28.0900   33.2100 N   0  0  0  0  0  0  0  0  0  0  0  0
   35.3380   28.6340   31.5210 H   0  0  0  0  0  0  0  0  0  0  0  0
   35.4250   26.3300   30.5050 H   0  0  0  0  0  0  0  0  0  0  0  0
   36.6510   24.5270   31.7670 H   0  0  0  0  0  0  0  0  0  0  0  0
   37.7570   27.4010   35.1900 C   0  0  0  0  0  3  0  0  0  0  0  0
   39.1760   27.1450   35.4190 C   0  0  0  0  0  2  0  0  0  0  0  0
   38.1490   26.2320   36.0320 C   0  0  0  0  0  2  0  0  0  0  0  0
  1  6  1  0  0  0  0
  2  1  2  0  0  0  0
  2  3  1  0  0  0  0
  3  4  2  0  0  0  0
  4  5  1  0  0  0  0
  5 10  1  0  0  0  0
  6  5  2  0  0  0  0
  7  1  1  0  0  0  0
  8  2  1  0  0  0  0
  9  3  1  0  0  0  0
 10 11  1  0  0  0  0
 10 12  1  0  0  0  0
 11 12  1  0  0  0  0
M  END
>  <minimizedAffinity>
-3.07721925

$$$$

 OpenBabel03262520083D

 12 13  0  0  0  0  0  0  0  0999 V2000
   38.5260   24.2190   35.8670 C   0  0  0  0  0  0  0  0  0  0  0  0
   37.7050   24.3820   36.9970 C   0  0  0  0  0  0  0  0  0  0  0  0
   38.0980   23.7630   38.2050 C   0  0  0  0  0  0  0  0  0  0  0  0
   39.2500   23.0450   38.2020 N   0  0  0  0  0  0  0  0  0  0  0  0
   40.0250   22.9050   37.0940 C   0  0  0  0  0  0  0  0  0  0  0  0
   39.6630   23.4890   35.9330 N   0  0  0  0  0  0  0  0  0  0  0  0
   38.2740   24.6720   34.9120 H   0  0  0  0  0  0  0  0  0  0  0  0
   36.7900   24.9750   36.9260 H   0  0  0  0  0  0  0  0  0  0  0  0
   37.4850   23.8740   39.0830 H   0  0  0  0  0  0  0  0  0  0  0  0
   41.2810   22.0940   37.1800 C   0  0  0  0  0  3  0  0  0  0  0  0
   42.5590   22.5840   36.6700 C   0  0  0  0  0  2  0  0  0  0  0  0
   41.8160   21.5170   35.9110 C   0  0  0  0  0  2  0  0  0  0  0  0
  1  6  2  0  0  0  0
  1  2  1  0  0  0  0
  2  3  2  0  0  0  0
  3  9  1  0  0  0  0
  4  3  1  0  0  0  0
  5 10  1  0  0  0  0
  5  4  2  0  0  0  0
  6  5  1  0  0  0  0
  7  1  1  0  0  0  0
  8  2  1  0  0  0  0
 11 10  1  0  0  0  0
 12 11  1  0  0  0  0
 12 10  1  0  0  0  0
M  END
>  <minimizedAffinity>
-3.06593585

$$$$

 OpenBabel03262520083D

 12 13  0  0  0  0  0  0  0  0999 V2000
   35.7030   21.0200   36.0570 C   0  0  0  0  0  0  0  0  0  0  0  0
   35.8170   20.7480   34.6810 C   0  0  0  0  0  0  0  0  0  0  0  0
   36.8690   21.3590   33.9630 C   0  0  0  0  0  0  0  0  0  0  0  0
   37.7110   22.1760   34.6460 N   0  0  0  0  0  0  0  0  0  0  0  0
   37.5770   22.4210   35.9770 C   0  0  0  0  0  0  0  0  0  0  0  0
   36.5770   21.8460   36.6770 N   0  0  0  0  0  0  0  0  0  0  0  0
   34.9140   20.5790   36.6590 H   0  0  0  0  0  0  0  0  0  0  0  0
   35.1020   20.0790   34.1970 H   0  0  0  0  0  0  0  0  0  0  0  0
   36.9760   21.1640   32.9090 H   0  0  0  0  0  0  0  0  0  0  0  0
   38.5500   23.3370   36.6510 C   0  0  0  0  0  3  0  0  0  0  0  0
   39.6890   22.8350   37.4150 C   0  0  0  0  0  2  0  0  0  0  0  0
   38.5060   23.4130   38.1410 C   0  0  0  0  0  2  0  0  0  0  0  0
  1  7  1  0  0  0  0
  1  6  1  0  0  0  0
  2  1  2  0  0  0  0
  3  4  2  0  0  0  0
  3  2  1  0  0  0  0
  4  5  1  0  0  0  0
  5 10  1  0  0  0  0
  5  6  2  0  0  0  0
  8  2  1  0  0  0  0
  9  3  1  0  0  0  0
 10 11  1  0  0  0  0
 10 12  1  0  0  0  0
 11 12  1  0  0  0  0
M  END
>  <minimizedAffinity>
-3.05311012

$$$$

 OpenBabel03262520083D

 12 13  0  0  0  0  0  0  0  0999 V2000
   35.1130   25.4410   30.8720 C   0  0  0  0  0  0  0  0  0  0  0  0
   35.6630   24.1670   31.1040 C   0  0  0  0  0  0  0  0  0  0  0  0
   36.7130   24.0520   32.0420 C   0  0  0  0  0  0  0  0  0  0  0  0
   37.1320   25.1830   32.6650 N   0  0  0  0  0  0  0  0  0  0  0  0
   36.5820   26.4020   32.4220 C   0  0  0  0  0  0  0  0  0  0  0  0
   35.5790   26.5290   31.5290 N   0  0  0  0  0  0  0  0  0  0  0  0
   34.3040   25.5900   30.1630 H   0  0  0  0  0  0  0  0  0  0  0  0
   35.2740   23.3000   30.5650 H   0  0  0  0  0  0  0  0  0  0  0  0
   37.1480   23.0860   32.2360 H   0  0  0  0  0  0  0  0  0  0  0  0
   37.1060   27.5970   33.1540 C   0  0  0  0  0  3  0  0  0  0  0  0
   36.9370   27.7620   34.5960 C   0  0  0  0  0  2  0  0  0  0  0  0
   36.1100   28.5920   33.6520 C   0  0  0  0  0  2  0  0  0  0  0  0
  1  2  2  0  0  0  0
  1  6  1  0  0  0  0
  2  3  1  0  0  0  0
  3  9  1  0  0  0  0
  3  4  2  0  0  0  0
  5  4  1  0  0  0  0
  5 10  1  0  0  0  0
  6  5  2  0  0  0  0
  7  1  1  0  0  0  0
  8  2  1  0  0  0  0
 10 12  1  0  0  0  0
 10 11  1  0  0  0  0
 12 11  1  0  0  0  0
M  END
>  <minimizedAffinity>
-3.03908849

$$$$

 OpenBabel03262520083D

 12 13  0  0  0  0  0  0  0  0999 V2000
   36.5050   25.6820   32.0540 C   0  0  0  0  0  0  0  0  0  0  0  0
   35.8730   26.7020   31.3200 C   0  0  0  0  0  0  0  0  0  0  0  0
   35.8620   28.0070   31.8610 C   0  0  0  0  0  0  0  0  0  0  0  0
   36.4650   28.2000   33.0620 N   0  0  0  0  0  0  0  0  0  0  0  0
   37.0690   27.1950   33.7490 C   0  0  0  0  0  0  0  0  0  0  0  0
   37.0880   25.9430   33.2470 N   0  0  0  0  0  0  0  0  0  0  0  0
   36.5450   24.6600   31.6880 H   0  0  0  0  0  0  0  0  0  0  0  0
   35.4080   26.4730   30.3580 H   0  0  0  0  0  0  0  0  0  0  0  0
   35.3840   28.8030   31.3150 H   0  0  0  0  0  0  0  0  0  0  0  0
   37.7090   27.4970   35.0680 C   0  0  0  0  0  3  0  0  0  0  0  0
   39.1110   27.1900   35.3410 C   0  0  0  0  0  2  0  0  0  0  0  0
   38.0330   26.3410   35.9570 C   0  0  0  0  0  2  0  0  0  0  0  0
  1  6  1  0  0  0  0
  2  3  1  0  0  0  0
  2  1  2  0  0  0  0
  3  4  2  0  0  0  0
  4  5  1  0  0  0  0
  5 10  1  0  0  0  0
  6  5  2  0  0  0  0
  7  1  1  0  0  0  0
  8  2  1  0  0  0  0
  9  3  1  0  0  0  0
 10 11  1  0  0  0  0
 10 12  1  0  0  0  0
 11 12  1  0  0  0  0
M  END
>  <minimizedAffinity>
-3.02526402

$$$$
