
 OpenBabel03272505193D

 27 29  0  0  0  0  0  0  0  0999 V2000
   37.9980   26.6400   33.7470 C   0  0  0  0  0  0  0  0  0  0  0  0
   37.6280   25.3600   33.4540 C   0  0  0  0  0  0  0  0  0  0  0  0
   36.8690   25.1620   32.3240 C   0  0  0  0  0  0  0  0  0  0  0  0
   36.4950   26.1760   31.5240 C   0  0  0  0  0  0  0  0  0  0  0  0
   36.8470   27.4890   31.7830 C   0  0  0  0  0  0  0  0  0  0  0  0
   37.6060   27.6930   32.9120 C   0  0  0  0  0  0  0  0  0  0  0  0
   36.5840   24.1400   32.1060 H   0  0  0  0  0  0  0  0  0  0  0  0
   35.8940   25.9210   30.6520 H   0  0  0  0  0  0  0  0  0  0  0  0
   36.5220   28.2730   31.1120 H   0  0  0  0  0  0  0  0  0  0  0  0
   37.8440   28.7400   33.0550 H   0  0  0  0  0  0  0  0  0  0  0  0
   39.2120   22.1790   34.5760 C   0  0  0  0  0  0  0  0  0  0  0  0
   38.7680   23.2600   33.7870 C   0  0  0  0  0  0  0  0  0  0  0  0
   38.0410   24.2960   34.3370 C   0  0  0  0  0  0  0  0  0  0  0  0
   37.8170   24.1550   35.6630 N   0  0  0  0  0  0  0  0  0  0  0  0
   38.2260   23.1440   36.4300 C   0  0  0  0  0  0  0  0  0  0  0  0
   38.9340   22.1440   35.8740 N   0  0  0  0  0  0  0  0  0  0  0  0
   39.7770   21.3750   34.1460 H   0  0  0  0  0  0  0  0  0  0  0  0
   39.0260   23.2310   32.7360 H   0  0  0  0  0  0  0  0  0  0  0  0
   37.8730   23.1760   37.8900 C   0  0  0  0  0  3  0  0  0  0  0  0
   39.0120   23.4750   38.8180 C   0  0  0  0  0  2  0  0  0  0  0  0
   37.9190   24.4650   38.6180 C   0  0  0  0  0  2  0  0  0  0  0  0
   40.1070   27.0850   34.7910 N   0  0  0  0  0  0  0  0  0  0  0  0
   38.7930   27.1000   34.8430 C   0  0  0  0  0  0  0  0  0  0  0  0
   38.7230   27.6340   36.1360 N   0  0  0  0  0  0  0  0  0  0  0  0
   40.6720   27.4190   35.6030 H   0  0  0  0  0  0  0  0  0  0  0  0
   38.8160   28.6340   36.4290 H   0  0  0  0  0  0  0  0  0  0  0  0
   38.5550   26.8790   36.8650 H   0  0  0  0  0  0  0  0  0  0  0  0
  1 23  1  0  0  0  0
  2  1  1  0  0  0  0
  2 13  1  0  0  0  0
  3  2  2  0  0  0  0
  4  5  2  0  0  0  0
  4  3  1  0  0  0  0
  5  6  1  0  0  0  0
  6 10  1  0  0  0  0
  6  1  2  0  0  0  0
  7  3  1  0  0  0  0
  8  4  1  0  0  0  0
  9  5  1  0  0  0  0
 11 16  1  0  0  0  0
 12 13  1  0  0  0  0
 12 11  2  0  0  0  0
 13 14  2  0  0  0  0
 14 15  1  0  0  0  0
 15 19  1  0  0  0  0
 16 15  2  0  0  0  0
 17 11  1  0  0  0  0
 18 12  1  0  0  0  0
 19 21  1  0  0  0  0
 19 20  1  0  0  0  0
 21 20  1  0  0  0  0
 22 23  2  0  0  0  0
 22 25  1  0  0  0  0
 23 24  1  0  0  0  0
 24 26  1  0  0  0  0
 24 27  1  0  0  0  0
M  END
>  <minimizedAffinity>
-5.17645645

$$$$

 OpenBabel03272505193D

 27 29  0  0  0  0  0  0  0  0999 V2000
   40.1090   22.5940   36.8390 C   0  0  0  0  0  0  0  0  0  0  0  0
   40.3010   22.6880   35.4910 C   0  0  0  0  0  0  0  0  0  0  0  0
   41.3810   22.0260   34.9570 C   0  0  0  0  0  0  0  0  0  0  0  0
   42.2300   21.3080   35.7140 C   0  0  0  0  0  0  0  0  0  0  0  0
   42.0740   21.1870   37.0830 C   0  0  0  0  0  0  0  0  0  0  0  0
   40.9950   21.8470   37.6240 C   0  0  0  0  0  0  0  0  0  0  0  0
   41.5180   22.1100   33.8850 H   0  0  0  0  0  0  0  0  0  0  0  0
   43.0560   20.8190   35.2000 H   0  0  0  0  0  0  0  0  0  0  0  0
   42.7820   20.5990   37.6520 H   0  0  0  0  0  0  0  0  0  0  0  0
   40.9340   21.7100   38.6970 H   0  0  0  0  0  0  0  0  0  0  0  0
   37.6370   23.4840   33.0090 C   0  0  0  0  0  0  0  0  0  0  0  0
   38.5690   22.7970   33.8140 C   0  0  0  0  0  0  0  0  0  0  0  0
   39.3750   23.4720   34.7090 C   0  0  0  0  0  0  0  0  0  0  0  0
   39.1700   24.8090   34.7200 N   0  0  0  0  0  0  0  0  0  0  0  0
   38.2960   25.4790   33.9690 C   0  0  0  0  0  0  0  0  0  0  0  0
   37.5200   24.8030   33.1030 N   0  0  0  0  0  0  0  0  0  0  0  0
   37.0130   22.9570   32.3140 H   0  0  0  0  0  0  0  0  0  0  0  0
   38.6180   21.7230   33.6910 H   0  0  0  0  0  0  0  0  0  0  0  0
   38.2220   26.9710   34.1340 C   0  0  0  0  0  3  0  0  0  0  0  0
   36.9970   27.4770   34.8340 C   0  0  0  0  0  2  0  0  0  0  0  0
   38.3300   27.5560   35.4900 C   0  0  0  0  0  2  0  0  0  0  0  0
   38.8020   22.7420   38.8410 N   0  0  0  0  0  0  0  0  0  0  0  0
   39.0620   23.1710   37.6240 C   0  0  0  0  0  0  0  0  0  0  0  0
   38.0560   24.1440   37.6150 N   0  0  0  0  0  0  0  0  0  0  0  0
   38.0290   23.1700   39.3980 H   0  0  0  0  0  0  0  0  0  0  0  0
   38.0800   25.1040   38.0320 H   0  0  0  0  0  0  0  0  0  0  0  0
   37.1850   23.8060   37.1070 H   0  0  0  0  0  0  0  0  0  0  0  0
  1  6  1  0  0  0  0
  1 23  1  0  0  0  0
  2  1  2  0  0  0  0
  3  2  1  0  0  0  0
  3  4  2  0  0  0  0
  4  5  1  0  0  0  0
  5  6  2  0  0  0  0
  5  9  1  0  0  0  0
  6 10  1  0  0  0  0
  7  3  1  0  0  0  0
  8  4  1  0  0  0  0
 11 16  2  0  0  0  0
 11 12  1  0  0  0  0
 12 13  2  0  0  0  0
 13 14  1  0  0  0  0
 13  2  1  0  0  0  0
 15 19  1  0  0  0  0
 15 14  2  0  0  0  0
 16 15  1  0  0  0  0
 17 11  1  0  0  0  0
 18 12  1  0  0  0  0
 19 20  1  0  0  0  0
 19 21  1  0  0  0  0
 20 21  1  0  0  0  0
 22 25  1  0  0  0  0
 23 22  2  0  0  0  0
 24 23  1  0  0  0  0
 24 26  1  0  0  0  0
 27 24  1  0  0  0  0
M  END
>  <minimizedAffinity>
-5.15874863

$$$$

 OpenBabel03272505193D

 27 29  0  0  0  0  0  0  0  0999 V2000
   39.4950   22.9860   36.2460 C   0  0  0  0  0  0  0  0  0  0  0  0
   39.8770   23.9450   35.3540 C   0  0  0  0  0  0  0  0  0  0  0  0
   41.2230   24.1940   35.2270 C   0  0  0  0  0  0  0  0  0  0  0  0
   42.1470   23.5300   35.9450 C   0  0  0  0  0  0  0  0  0  0  0  0
   41.8040   22.5510   36.8610 C   0  0  0  0  0  0  0  0  0  0  0  0
   40.4590   22.2970   36.9920 C   0  0  0  0  0  0  0  0  0  0  0  0
   41.5090   24.9590   34.5150 H   0  0  0  0  0  0  0  0  0  0  0  0
   43.1890   23.7980   35.7760 H   0  0  0  0  0  0  0  0  0  0  0  0
   42.5820   22.0430   37.4170 H   0  0  0  0  0  0  0  0  0  0  0  0
   40.2630   21.5230   37.7230 H   0  0  0  0  0  0  0  0  0  0  0  0
   37.3970   26.5800   34.4610 C   0  0  0  0  0  0  0  0  0  0  0  0
   38.3900   25.8320   35.1260 C   0  0  0  0  0  0  0  0  0  0  0  0
   38.8600   24.6440   34.6040 C   0  0  0  0  0  0  0  0  0  0  0  0
   38.2800   24.3010   33.4320 N   0  0  0  0  0  0  0  0  0  0  0  0
   37.3410   24.9910   32.7850 C   0  0  0  0  0  0  0  0  0  0  0  0
   36.8960   26.1460   33.3100 N   0  0  0  0  0  0  0  0  0  0  0  0
   37.0340   27.5030   34.8690 H   0  0  0  0  0  0  0  0  0  0  0  0
   38.7580   26.2380   36.0590 H   0  0  0  0  0  0  0  0  0  0  0  0
   36.8240   24.4350   31.4870 C   0  0  0  0  0  3  0  0  0  0  0  0
   35.7090   23.4420   31.6160 C   0  0  0  0  0  2  0  0  0  0  0  0
   35.4580   24.7910   31.0400 C   0  0  0  0  0  2  0  0  0  0  0  0
   37.5520   22.9090   37.6430 N   0  0  0  0  0  0  0  0  0  0  0  0
   38.1710   22.5350   36.5440 C   0  0  0  0  0  0  0  0  0  0  0  0
   37.1210   21.7390   36.0710 N   0  0  0  0  0  0  0  0  0  0  0  0
   36.5870   22.5650   37.8490 H   0  0  0  0  0  0  0  0  0  0  0  0
   36.2570   22.0420   35.5640 H   0  0  0  0  0  0  0  0  0  0  0  0
   37.2790   20.7100   36.2850 H   0  0  0  0  0  0  0  0  0  0  0  0
  1 23  1  0  0  0  0
  1  6  1  0  0  0  0
  2  1  2  0  0  0  0
  3  2  1  0  0  0  0
  3  4  2  0  0  0  0
  4  5  1  0  0  0  0
  5  6  2  0  0  0  0
  5  9  1  0  0  0  0
  6 10  1  0  0  0  0
  7  3  1  0  0  0  0
  8  4  1  0  0  0  0
 11 17  1  0  0  0  0
 11 12  1  0  0  0  0
 12 18  1  0  0  0  0
 13 12  2  0  0  0  0
 13  2  1  0  0  0  0
 14 13  1  0  0  0  0
 15 16  1  0  0  0  0
 15 14  2  0  0  0  0
 16 11  2  0  0  0  0
 19 20  1  0  0  0  0
 19 15  1  0  0  0  0
 21 19  1  0  0  0  0
 21 20  1  0  0  0  0
 22 25  1  0  0  0  0
 23 22  2  0  0  0  0
 24 27  1  0  0  0  0
 24 23  1  0  0  0  0
 26 24  1  0  0  0  0
M  END
>  <minimizedAffinity>
-5.11046982

$$$$

 OpenBabel03272505193D

 27 29  0  0  0  0  0  0  0  0999 V2000
   38.2360   24.4210   35.8370 C   0  0  0  0  0  0  0  0  0  0  0  0
   38.0940   24.3750   34.4810 C   0  0  0  0  0  0  0  0  0  0  0  0
   38.0660   25.5720   33.8050 C   0  0  0  0  0  0  0  0  0  0  0  0
   38.1740   26.7550   34.4360 C   0  0  0  0  0  0  0  0  0  0  0  0
   38.3190   26.8480   35.8090 C   0  0  0  0  0  0  0  0  0  0  0  0
   38.3480   25.6530   36.4900 C   0  0  0  0  0  0  0  0  0  0  0  0
   37.9530   25.5170   32.7290 H   0  0  0  0  0  0  0  0  0  0  0  0
   38.1420   27.6490   33.8150 H   0  0  0  0  0  0  0  0  0  0  0  0
   38.4020   27.8220   36.2730 H   0  0  0  0  0  0  0  0  0  0  0  0
   38.4630   25.8000   37.5570 H   0  0  0  0  0  0  0  0  0  0  0  0
   39.0200   21.4040   32.4290 C   0  0  0  0  0  0  0  0  0  0  0  0
   39.0500   22.6480   33.0930 C   0  0  0  0  0  0  0  0  0  0  0  0
   37.9740   23.0890   33.8360 C   0  0  0  0  0  0  0  0  0  0  0  0
   36.9350   22.2230   33.8500 N   0  0  0  0  0  0  0  0  0  0  0  0
   36.8840   21.0430   33.2310 C   0  0  0  0  0  0  0  0  0  0  0  0
   37.9430   20.6320   32.5110 N   0  0  0  0  0  0  0  0  0  0  0  0
   39.8580   21.0650   31.8530 H   0  0  0  0  0  0  0  0  0  0  0  0
   39.9560   23.2320   32.9870 H   0  0  0  0  0  0  0  0  0  0  0  0
   35.6300   20.2260   33.3730 C   0  0  0  0  0  3  0  0  0  0  0  0
   34.7390   20.2070   32.1670 C   0  0  0  0  0  2  0  0  0  0  0  0
   35.4820   18.9850   32.5790 C   0  0  0  0  0  2  0  0  0  0  0  0
   37.2320   22.6680   37.1240 N   0  0  0  0  0  0  0  0  0  0  0  0
   38.3100   23.3260   36.7540 C   0  0  0  0  0  0  0  0  0  0  0  0
   39.1940   22.5660   37.5300 N   0  0  0  0  0  0  0  0  0  0  0  0
   37.3020   21.8750   37.8000 H   0  0  0  0  0  0  0  0  0  0  0  0
   39.6060   21.6300   37.3120 H   0  0  0  0  0  0  0  0  0  0  0  0
   39.4380   23.0560   38.4420 H   0  0  0  0  0  0  0  0  0  0  0  0
  1  6  1  0  0  0  0
  1 23  1  0  0  0  0
  2  1  2  0  0  0  0
  3  4  2  0  0  0  0
  3  2  1  0  0  0  0
  4  5  1  0  0  0  0
  5  9  1  0  0  0  0
  5  6  2  0  0  0  0
  6 10  1  0  0  0  0
  7  3  1  0  0  0  0
  8  4  1  0  0  0  0
 11 16  2  0  0  0  0
 11 12  1  0  0  0  0
 12 13  2  0  0  0  0
 13 14  1  0  0  0  0
 13  2  1  0  0  0  0
 15 19  1  0  0  0  0
 15 14  2  0  0  0  0
 16 15  1  0  0  0  0
 17 11  1  0  0  0  0
 18 12  1  0  0  0  0
 20 21  1  0  0  0  0
 20 19  1  0  0  0  0
 21 19  1  0  0  0  0
 22 25  1  0  0  0  0
 23 22  2  0  0  0  0
 23 24  1  0  0  0  0
 24 27  1  0  0  0  0
 26 24  1  0  0  0  0
M  END
>  <minimizedAffinity>
-5.04073763

$$$$

 OpenBabel03272505193D

 27 29  0  0  0  0  0  0  0  0999 V2000
   36.2920   21.0880   33.7630 C   0  0  0  0  0  0  0  0  0  0  0  0
   37.0040   21.7810   32.8280 C   0  0  0  0  0  0  0  0  0  0  0  0
   36.7430   21.5130   31.5050 C   0  0  0  0  0  0  0  0  0  0  0  0
   35.8250   20.6070   31.1240 C   0  0  0  0  0  0  0  0  0  0  0  0
   35.0810   19.8820   32.0380 C   0  0  0  0  0  0  0  0  0  0  0  0
   35.3380   20.1460   33.3630 C   0  0  0  0  0  0  0  0  0  0  0  0
   37.3170   22.0720   30.7750 H   0  0  0  0  0  0  0  0  0  0  0  0
   35.6880   20.4640   30.0530 H   0  0  0  0  0  0  0  0  0  0  0  0
   34.3530   19.1620   31.6850 H   0  0  0  0  0  0  0  0  0  0  0  0
   34.7230   19.5450   34.0220 H   0  0  0  0  0  0  0  0  0  0  0  0
   40.3380   23.2330   33.6440 C   0  0  0  0  0  0  0  0  0  0  0  0
   39.3130   22.3580   33.2310 C   0  0  0  0  0  0  0  0  0  0  0  0
   37.9870   22.7410   33.2710 C   0  0  0  0  0  0  0  0  0  0  0  0
   37.8010   23.9980   33.7330 N   0  0  0  0  0  0  0  0  0  0  0  0
   38.7540   24.8420   34.1300 C   0  0  0  0  0  0  0  0  0  0  0  0
   40.0390   24.4500   34.0830 N   0  0  0  0  0  0  0  0  0  0  0  0
   41.3670   22.9320   33.6120 H   0  0  0  0  0  0  0  0  0  0  0  0
   39.6200   21.3800   32.8840 H   0  0  0  0  0  0  0  0  0  0  0  0
   38.3360   26.2030   34.6120 C   0  0  0  0  0  3  0  0  0  0  0  0
   38.2710   26.3620   36.1010 C   0  0  0  0  0  2  0  0  0  0  0  0
   39.3230   27.0580   35.3120 C   0  0  0  0  0  2  0  0  0  0  0  0
   35.4540   20.6520   35.9640 N   0  0  0  0  0  0  0  0  0  0  0  0
   36.3660   21.1970   35.1870 C   0  0  0  0  0  0  0  0  0  0  0  0
   37.1260   21.7270   36.2370 N   0  0  0  0  0  0  0  0  0  0  0  0
   35.5200   20.7460   37.0020 H   0  0  0  0  0  0  0  0  0  0  0  0
   37.8300   21.2390   36.8380 H   0  0  0  0  0  0  0  0  0  0  0  0
   36.9160   22.7580   36.3930 H   0  0  0  0  0  0  0  0  0  0  0  0
  1 23  1  0  0  0  0
  2 13  1  0  0  0  0
  2  1  2  0  0  0  0
  3  2  1  0  0  0  0
  4  3  2  0  0  0  0
  4  5  1  0  0  0  0
  5  6  2  0  0  0  0
  6  1  1  0  0  0  0
  6 10  1  0  0  0  0
  7  3  1  0  0  0  0
  8  4  1  0  0  0  0
  9  5  1  0  0  0  0
 11 16  1  0  0  0  0
 12 13  1  0  0  0  0
 12 11  2  0  0  0  0
 13 14  2  0  0  0  0
 14 15  1  0  0  0  0
 15 19  1  0  0  0  0
 16 15  2  0  0  0  0
 17 11  1  0  0  0  0
 18 12  1  0  0  0  0
 19 21  1  0  0  0  0
 19 20  1  0  0  0  0
 21 20  1  0  0  0  0
 22 25  1  0  0  0  0
 23 22  2  0  0  0  0
 23 24  1  0  0  0  0
 24 27  1  0  0  0  0
 24 26  1  0  0  0  0
M  END
>  <minimizedAffinity>
-4.99968481

$$$$

 OpenBabel03272505193D

 27 29  0  0  0  0  0  0  0  0999 V2000
   39.6740   23.8850   35.8680 C   0  0  0  0  0  0  0  0  0  0  0  0
   38.4940   24.5200   36.1250 C   0  0  0  0  0  0  0  0  0  0  0  0
   37.9100   24.3020   37.3510 C   0  0  0  0  0  0  0  0  0  0  0  0
   38.4640   23.4980   38.2770 C   0  0  0  0  0  0  0  0  0  0  0  0
   39.6580   22.8350   38.0580 C   0  0  0  0  0  0  0  0  0  0  0  0
   40.2470   23.0490   36.8330 C   0  0  0  0  0  0  0  0  0  0  0  0
   36.9740   24.8130   37.5390 H   0  0  0  0  0  0  0  0  0  0  0  0
   37.9280   23.3870   39.2180 H   0  0  0  0  0  0  0  0  0  0  0  0
   40.0660   22.1970   38.8320 H   0  0  0  0  0  0  0  0  0  0  0  0
   41.1750   22.5010   36.7290 H   0  0  0  0  0  0  0  0  0  0  0  0
   37.1360   27.5900   34.5070 C   0  0  0  0  0  0  0  0  0  0  0  0
   37.6900   26.6890   35.4390 C   0  0  0  0  0  0  0  0  0  0  0  0
   37.9230   25.3700   35.1070 C   0  0  0  0  0  0  0  0  0  0  0  0
   37.5720   25.0610   33.8380 N   0  0  0  0  0  0  0  0  0  0  0  0
   37.0470   25.8940   32.9400 C   0  0  0  0  0  0  0  0  0  0  0  0
   36.8270   27.1760   33.2830 N   0  0  0  0  0  0  0  0  0  0  0  0
   36.9560   28.6150   34.7680 H   0  0  0  0  0  0  0  0  0  0  0  0
   37.9200   27.0860   36.4190 H   0  0  0  0  0  0  0  0  0  0  0  0
   36.7260   25.3510   31.5760 C   0  0  0  0  0  3  0  0  0  0  0  0
   35.5780   24.3880   31.5250 C   0  0  0  0  0  2  0  0  0  0  0  0
   35.4560   25.7420   30.9220 C   0  0  0  0  0  2  0  0  0  0  0  0
   41.6990   24.4480   34.7210 N   0  0  0  0  0  0  0  0  0  0  0  0
   40.4780   23.9610   34.6870 C   0  0  0  0  0  0  0  0  0  0  0  0
   40.4870   23.6890   33.3140 N   0  0  0  0  0  0  0  0  0  0  0  0
   42.2710   24.5020   33.8480 H   0  0  0  0  0  0  0  0  0  0  0  0
   40.9030   22.8650   32.8200 H   0  0  0  0  0  0  0  0  0  0  0  0
   39.9960   24.4500   32.7590 H   0  0  0  0  0  0  0  0  0  0  0  0
  1  2  2  0  0  0  0
  1  6  1  0  0  0  0
  2  3  1  0  0  0  0
  3  7  1  0  0  0  0
  3  4  2  0  0  0  0
  4  8  1  0  0  0  0
  5  4  1  0  0  0  0
  5  9  1  0  0  0  0
  6  5  2  0  0  0  0
 10  6  1  0  0  0  0
 11 17  1  0  0  0  0
 11 12  1  0  0  0  0
 12 18  1  0  0  0  0
 13 12  2  0  0  0  0
 13  2  1  0  0  0  0
 14 13  1  0  0  0  0
 15 16  1  0  0  0  0
 15 14  2  0  0  0  0
 16 11  2  0  0  0  0
 19 15  1  0  0  0  0
 20 19  1  0  0  0  0
 21 20  1  0  0  0  0
 21 19  1  0  0  0  0
 23 22  2  0  0  0  0
 23  1  1  0  0  0  0
 24 23  1  0  0  0  0
 25 22  1  0  0  0  0
 26 24  1  0  0  0  0
 27 24  1  0  0  0  0
M  END
>  <minimizedAffinity>
-4.96798515

$$$$

 OpenBabel03272505193D

 27 29  0  0  0  0  0  0  0  0999 V2000
   33.5310   30.6430   35.5920 C   0  0  0  0  0  0  0  0  0  0  0  0
   34.8550   30.8400   35.3270 C   0  0  0  0  0  0  0  0  0  0  0  0
   35.5070   31.8180   36.0410 C   0  0  0  0  0  0  0  0  0  0  0  0
   34.8830   32.5640   36.9720 C   0  0  0  0  0  0  0  0  0  0  0  0
   33.5430   32.3980   37.2720 C   0  0  0  0  0  0  0  0  0  0  0  0
   32.8860   31.4210   36.5600 C   0  0  0  0  0  0  0  0  0  0  0  0
   36.5570   31.9610   35.8180 H   0  0  0  0  0  0  0  0  0  0  0  0
   35.4830   33.3130   37.4850 H   0  0  0  0  0  0  0  0  0  0  0  0
   33.0830   33.0220   38.0270 H   0  0  0  0  0  0  0  0  0  0  0  0
   31.8430   31.3460   36.8450 H   0  0  0  0  0  0  0  0  0  0  0  0
   36.1440   29.8060   31.9870 C   0  0  0  0  0  0  0  0  0  0  0  0
   35.5410   30.5320   33.0340 C   0  0  0  0  0  0  0  0  0  0  0  0
   35.4920   30.0280   34.3180 C   0  0  0  0  0  0  0  0  0  0  0  0
   36.0660   28.8090   34.4440 N   0  0  0  0  0  0  0  0  0  0  0  0
   36.6410   28.1050   33.4690 C   0  0  0  0  0  0  0  0  0  0  0  0
   36.6790   28.6130   32.2240 N   0  0  0  0  0  0  0  0  0  0  0  0
   36.1810   30.2000   30.9900 H   0  0  0  0  0  0  0  0  0  0  0  0
   35.1240   31.4970   32.7770 H   0  0  0  0  0  0  0  0  0  0  0  0
   37.2240   26.7640   33.8170 C   0  0  0  0  0  3  0  0  0  0  0  0
   38.6540   26.7860   34.2670 C   0  0  0  0  0  2  0  0  0  0  0  0
   37.5640   26.4670   35.2280 C   0  0  0  0  0  2  0  0  0  0  0  0
   32.0840   28.7390   35.7220 N   0  0  0  0  0  0  0  0  0  0  0  0
   32.6460   29.6870   35.0030 C   0  0  0  0  0  0  0  0  0  0  0  0
   32.0540   29.2970   33.7960 N   0  0  0  0  0  0  0  0  0  0  0  0
   31.4450   28.0450   35.2750 H   0  0  0  0  0  0  0  0  0  0  0  0
   31.0900   29.5100   33.4490 H   0  0  0  0  0  0  0  0  0  0  0  0
   32.7170   28.7160   33.2020 H   0  0  0  0  0  0  0  0  0  0  0  0
  1  6  1  0  0  0  0
  2  1  2  0  0  0  0
  2  3  1  0  0  0  0
  3  4  2  0  0  0  0
  4  5  1  0  0  0  0
  4  8  1  0  0  0  0
  5  9  1  0  0  0  0
  6 10  1  0  0  0  0
  6  5  2  0  0  0  0
  7  3  1  0  0  0  0
 11 16  2  0  0  0  0
 11 12  1  0  0  0  0
 12 13  2  0  0  0  0
 13 14  1  0  0  0  0
 13  2  1  0  0  0  0
 15 19  1  0  0  0  0
 15 14  2  0  0  0  0
 16 15  1  0  0  0  0
 17 11  1  0  0  0  0
 18 12  1  0  0  0  0
 19 20  1  0  0  0  0
 19 21  1  0  0  0  0
 20 21  1  0  0  0  0
 23  1  1  0  0  0  0
 23 22  2  0  0  0  0
 24 23  1  0  0  0  0
 25 22  1  0  0  0  0
 26 24  1  0  0  0  0
 27 24  1  0  0  0  0
M  END
>  <minimizedAffinity>
-4.93478012

$$$$

 OpenBabel03272505193D

 27 29  0  0  0  0  0  0  0  0999 V2000
   37.7780   25.2940   33.9810 C   0  0  0  0  0  0  0  0  0  0  0  0
   38.1420   25.5980   35.2600 C   0  0  0  0  0  0  0  0  0  0  0  0
   37.8980   26.8770   35.7020 C   0  0  0  0  0  0  0  0  0  0  0  0
   37.3240   27.8090   34.9210 C   0  0  0  0  0  0  0  0  0  0  0  0
   36.9400   27.5450   33.6180 C   0  0  0  0  0  0  0  0  0  0  0  0
   37.1820   26.2670   33.1700 C   0  0  0  0  0  0  0  0  0  0  0  0
   38.1920   27.1010   36.7210 H   0  0  0  0  0  0  0  0  0  0  0  0
   37.1710   28.7940   35.3600 H   0  0  0  0  0  0  0  0  0  0  0  0
   36.4830   28.3270   33.0260 H   0  0  0  0  0  0  0  0  0  0  0  0
   36.8590   26.1300   32.1460 H   0  0  0  0  0  0  0  0  0  0  0  0
   38.7500   23.3450   38.1660 C   0  0  0  0  0  0  0  0  0  0  0  0
   38.2090   24.3260   37.3100 C   0  0  0  0  0  0  0  0  0  0  0  0
   38.7620   24.5760   36.0700 C   0  0  0  0  0  0  0  0  0  0  0  0
   39.8350   23.8020   35.7900 N   0  0  0  0  0  0  0  0  0  0  0  0
   40.3640   22.8700   36.5830 C   0  0  0  0  0  0  0  0  0  0  0  0
   39.8110   22.6410   37.7870 N   0  0  0  0  0  0  0  0  0  0  0  0
   38.3180   23.1530   39.1290 H   0  0  0  0  0  0  0  0  0  0  0  0
   37.3450   24.8660   37.6760 H   0  0  0  0  0  0  0  0  0  0  0  0
   41.5630   22.1150   36.0820 C   0  0  0  0  0  3  0  0  0  0  0  0
   42.8860   22.6130   36.5800 C   0  0  0  0  0  2  0  0  0  0  0  0
   42.3530   21.2990   37.0320 C   0  0  0  0  0  2  0  0  0  0  0  0
   38.9990   23.7400   32.6280 N   0  0  0  0  0  0  0  0  0  0  0  0
   37.9090   24.0430   33.2990 C   0  0  0  0  0  0  0  0  0  0  0  0
   37.2470   22.8420   33.0180 N   0  0  0  0  0  0  0  0  0  0  0  0
   39.0750   22.8240   32.1310 H   0  0  0  0  0  0  0  0  0  0  0  0
   37.3620   21.9140   33.4880 H   0  0  0  0  0  0  0  0  0  0  0  0
   36.5570   22.9520   32.2170 H   0  0  0  0  0  0  0  0  0  0  0  0
  1  2  1  0  0  0  0
  2  3  2  0  0  0  0
  2 13  1  0  0  0  0
  3  7  1  0  0  0  0
  4  8  1  0  0  0  0
  4  3  1  0  0  0  0
  5  4  2  0  0  0  0
  6  5  1  0  0  0  0
  6  1  2  0  0  0  0
  9  5  1  0  0  0  0
 10  6  1  0  0  0  0
 11 17  1  0  0  0  0
 12 18  1  0  0  0  0
 12 11  2  0  0  0  0
 13 12  1  0  0  0  0
 14 13  2  0  0  0  0
 14 15  1  0  0  0  0
 15 16  2  0  0  0  0
 16 11  1  0  0  0  0
 19 20  1  0  0  0  0
 19 15  1  0  0  0  0
 19 21  1  0  0  0  0
 20 21  1  0  0  0  0
 22 23  2  0  0  0  0
 23  1  1  0  0  0  0
 24 23  1  0  0  0  0
 24 26  1  0  0  0  0
 25 22  1  0  0  0  0
 27 24  1  0  0  0  0
M  END
>  <minimizedAffinity>
-4.92360735

$$$$

 OpenBabel03272505193D

 27 29  0  0  0  0  0  0  0  0999 V2000
   38.1560   25.3610   36.3140 C   0  0  0  0  0  0  0  0  0  0  0  0
   38.4930   24.1860   35.7060 C   0  0  0  0  0  0  0  0  0  0  0  0
   38.6060   23.0700   36.5010 C   0  0  0  0  0  0  0  0  0  0  0  0
   38.3970   23.1100   37.8300 C   0  0  0  0  0  0  0  0  0  0  0  0
   38.0550   24.2790   38.4870 C   0  0  0  0  0  0  0  0  0  0  0  0
   37.9410   25.3990   37.6960 C   0  0  0  0  0  0  0  0  0  0  0  0
   38.8730   22.1460   36.0030 H   0  0  0  0  0  0  0  0  0  0  0  0
   38.5100   22.1750   38.3750 H   0  0  0  0  0  0  0  0  0  0  0  0
   37.8980   24.2640   39.5570 H   0  0  0  0  0  0  0  0  0  0  0  0
   37.6720   26.2750   38.2740 H   0  0  0  0  0  0  0  0  0  0  0  0
   40.3330   24.0830   32.4670 C   0  0  0  0  0  0  0  0  0  0  0  0
   40.0230   24.0970   33.8420 C   0  0  0  0  0  0  0  0  0  0  0  0
   38.7160   24.1790   34.2800 C   0  0  0  0  0  0  0  0  0  0  0  0
   37.8120   24.2420   33.2760 N   0  0  0  0  0  0  0  0  0  0  0  0
   38.0820   24.2310   31.9710 C   0  0  0  0  0  0  0  0  0  0  0  0
   39.3610   24.1510   31.5640 N   0  0  0  0  0  0  0  0  0  0  0  0
   41.3490   24.0190   32.1300 H   0  0  0  0  0  0  0  0  0  0  0  0
   40.8580   24.0390   34.5280 H   0  0  0  0  0  0  0  0  0  0  0  0
   36.9280   24.3090   31.0110 C   0  0  0  0  0  3  0  0  0  0  0  0
   35.9370   23.1890   31.1100 C   0  0  0  0  0  2  0  0  0  0  0  0
   35.5660   24.5660   31.5350 C   0  0  0  0  0  2  0  0  0  0  0  0
   38.6060   27.7070   36.1410 N   0  0  0  0  0  0  0  0  0  0  0  0
   37.9620   26.6430   35.7110 C   0  0  0  0  0  0  0  0  0  0  0  0
   37.2600   27.3170   34.7050 N   0  0  0  0  0  0  0  0  0  0  0  0
   38.4470   28.6370   35.6930 H   0  0  0  0  0  0  0  0  0  0  0  0
   37.5950   27.5860   33.7500 H   0  0  0  0  0  0  0  0  0  0  0  0
   36.2710   27.5590   35.0090 H   0  0  0  0  0  0  0  0  0  0  0  0
  1  6  1  0  0  0  0
  2  1  2  0  0  0  0
  2  3  1  0  0  0  0
  3  4  2  0  0  0  0
  4  8  1  0  0  0  0
  4  5  1  0  0  0  0
  5  9  1  0  0  0  0
  6 10  1  0  0  0  0
  6  5  2  0  0  0  0
  7  3  1  0  0  0  0
 11 12  1  0  0  0  0
 12 13  2  0  0  0  0
 12 18  1  0  0  0  0
 13  2  1  0  0  0  0
 14 13  1  0  0  0  0
 15 14  2  0  0  0  0
 16 15  1  0  0  0  0
 16 11  2  0  0  0  0
 17 11  1  0  0  0  0
 19 20  1  0  0  0  0
 19 21  1  0  0  0  0
 19 15  1  0  0  0  0
 20 21  1  0  0  0  0
 23 22  2  0  0  0  0
 23  1  1  0  0  0  0
 24 27  1  0  0  0  0
 24 23  1  0  0  0  0
 25 22  1  0  0  0  0
 26 24  1  0  0  0  0
M  END
>  <minimizedAffinity>
-4.9086237

$$$$
