
 OpenBabel03272505123D

 33 36  0  0  0  0  0  0  0  0999 V2000
   36.4220   30.9010   45.7200 Cl  0  0  0  0  0  0  0  0  0  0  0  0
   36.7060   30.7920   47.4360 C   0  0  0  0  0  0  0  0  0  0  0  0
   37.9620   31.1270   47.8960 C   0  0  0  0  0  0  0  0  0  0  0  0
   38.1960   31.0430   49.2570 C   0  0  0  0  0  0  0  0  0  0  0  0
   37.2070   30.6400   50.0980 C   0  0  0  0  0  0  0  0  0  0  0  0
   35.9520   30.3130   49.5700 C   0  0  0  0  0  0  0  0  0  0  0  0
   35.6450   30.3710   48.2400 C   0  0  0  0  0  0  0  0  0  0  0  0
   39.1800   31.3050   49.6250 H   0  0  0  0  0  0  0  0  0  0  0  0
   37.4150   30.5840   51.1500 H   0  0  0  0  0  0  0  0  0  0  0  0
   35.1730   29.9930   50.2580 H   0  0  0  0  0  0  0  0  0  0  0  0
   40.2230   33.3320   46.0780 C   0  0  0  0  0  0  0  0  0  0  0  0
   40.9330   32.4720   45.2180 C   0  0  0  0  0  0  0  0  0  0  0  0
   40.6130   31.1110   45.2790 C   0  0  0  0  0  0  0  0  0  0  0  0
   39.6490   30.6980   46.1530 N   0  0  0  0  0  0  0  0  0  0  0  0
   39.0080   31.5610   46.9450 C   0  0  0  0  0  0  0  0  0  0  0  0
   39.2920   32.8620   46.9090 N   0  0  0  0  0  0  0  0  0  0  0  0
   40.5080   34.3710   45.9920 H   0  0  0  0  0  0  0  0  0  0  0  0
   41.6920   32.7160   44.5140 H   0  0  0  0  0  0  0  0  0  0  0  0
   41.0730   30.3420   44.6820 H   0  0  0  0  0  0  0  0  0  0  0  0
   34.0780   29.9670   47.5560 S   0  0  0  0  0  0  0  0  0  0  0  0
   33.8750   29.2320   44.5080 Cl  0  0  0  0  0  0  0  0  0  0  0  0
   33.8710   27.9800   45.7440 C   0  0  0  0  0  0  0  0  0  0  0  0
   33.9580   28.2320   47.1130 C   0  0  0  0  0  0  0  0  0  0  0  0
   33.9470   27.1840   47.9990 C   0  0  0  0  0  0  0  0  0  0  0  0
   33.8520   25.9000   47.5540 C   0  0  0  0  0  0  0  0  0  0  0  0
   33.7640   25.6000   46.2100 C   0  0  0  0  0  0  0  0  0  0  0  0
   33.7760   26.6510   45.3390 C   0  0  0  0  0  0  0  0  0  0  0  0
   34.0190   27.4860   49.0360 H   0  0  0  0  0  0  0  0  0  0  0  0
   33.8480   25.1180   48.3020 H   0  0  0  0  0  0  0  0  0  0  0  0
   33.6900   24.5750   45.9150 H   0  0  0  0  0  0  0  0  0  0  0  0
   33.6820   26.3680   43.8840 C   0  0  0  0  0  3  0  0  0  0  0  0
   34.9390   26.0430   43.1680 C   0  0  0  0  0  2  0  0  0  0  0  0
   33.8660   24.9510   43.3880 C   0  0  0  0  0  2  0  0  0  0  0  0
  1  2  1  0  0  0  0
  2  3  2  0  0  0  0
  2  7  1  0  0  0  0
  3  4  1  0  0  0  0
  4  8  1  0  0  0  0
  4  5  2  0  0  0  0
  5  9  1  0  0  0  0
  6  5  1  0  0  0  0
  6 10  1  0  0  0  0
  7  6  2  0  0  0  0
 11 16  1  0  0  0  0
 12 13  1  0  0  0  0
 12 11  2  0  0  0  0
 13 14  2  0  0  0  0
 14 15  1  0  0  0  0
 15  3  1  0  0  0  0
 16 15  2  0  0  0  0
 17 11  1  0  0  0  0
 18 12  1  0  0  0  0
 19 13  1  0  0  0  0
 20  7  1  0  0  0  0
 21 22  1  0  0  0  0
 22 23  1  0  0  0  0
 23 20  1  0  0  0  0
 23 24  2  0  0  0  0
 24 28  1  0  0  0  0
 25 24  1  0  0  0  0
 25 29  1  0  0  0  0
 26 25  2  0  0  0  0
 27 22  2  0  0  0  0
 27 26  1  0  0  0  0
 30 26  1  0  0  0  0
 31 27  1  0  0  0  0
 32 33  1  0  0  0  0
 32 31  1  0  0  0  0
 33 31  1  0  0  0  0
M  END
>  <minimizedAffinity>
-5.68263102

>  <minimizedRMSD>
0.409461468

$$$$
