
 OpenBabel03272509053D

 27 29  0  0  0  0  0  0  0  0999 V2000
   33.2530   27.4070   48.0900 C   0  0  0  0  0  0  0  0  0  0  0  0
   32.5240   28.0970   47.5890 H   0  0  0  0  0  0  0  0  0  0  0  0
   32.7900   26.9460   48.9760 H   0  0  0  0  0  0  0  0  0  0  0  0
   33.6860   26.3960   47.0710 C   0  0  0  0  0  0  0  0  0  0  0  0
   33.9410   25.0720   47.3140 C   0  0  0  0  0  0  0  0  0  0  0  0
   34.3330   24.2380   46.2930 C   0  0  0  0  0  0  0  0  0  0  0  0
   34.4850   24.7000   44.9940 C   0  0  0  0  0  0  0  0  0  0  0  0
   34.2330   26.0200   44.7420 C   0  0  0  0  0  0  0  0  0  0  0  0
   33.8390   26.8640   45.7540 C   0  0  0  0  0  0  0  0  0  0  0  0
   33.7970   24.8050   48.3520 H   0  0  0  0  0  0  0  0  0  0  0  0
   34.5080   23.2070   46.6060 H   0  0  0  0  0  0  0  0  0  0  0  0
   34.7970   23.9410   44.2970 H   0  0  0  0  0  0  0  0  0  0  0  0
   34.3600   26.3540   43.7140 H   0  0  0  0  0  0  0  0  0  0  0  0
   33.6650   27.9020   45.4390 H   0  0  0  0  0  0  0  0  0  0  0  0
   34.7890   28.4030   49.7730 C   0  0  0  0  0  3  0  0  0  0  0  0
   34.3630   28.2480   48.5500 C   0  0  0  0  0  3  0  0  0  0  0  0
   37.5230   30.2490   51.3790 C   0  0  0  0  0  0  0  0  0  0  0  0
   38.0060   31.0020   50.2720 C   0  0  0  0  0  0  0  0  0  0  0  0
   37.3860   30.8590   49.0150 C   0  0  0  0  0  0  0  0  0  0  0  0
   36.3450   29.9880   48.9540 N   0  0  0  0  0  0  0  0  0  0  0  0
   35.9170   29.2980   50.0070 C   0  0  0  0  0  0  0  0  0  0  0  0
   36.5010   29.4280   51.2040 N   0  0  0  0  0  0  0  0  0  0  0  0
   38.0400   30.4040   52.3150 H   0  0  0  0  0  0  0  0  0  0  0  0
   38.8250   31.6620   50.4050 H   0  0  0  0  0  0  0  0  0  0  0  0
   37.8590   31.6250   47.8420 C   0  0  0  0  0  3  0  0  0  0  0  0
   38.8490   30.9600   46.8960 C   0  0  0  0  0  2  0  0  0  0  0  0
   37.4510   31.2740   46.4830 C   0  0  0  0  0  2  0  0  0  0  0  0
  1 16  1  0  0  0  0
  1  3  1  0  0  0  0
  2  1  1  0  0  0  0
  4  5  1  0  0  0  0
  4  1  1  0  0  0  0
  5 10  1  0  0  0  0
  6 11  1  0  0  0  0
  6  5  2  0  0  0  0
  7  6  1  0  0  0  0
  8  7  2  0  0  0  0
  8  9  1  0  0  0  0
  9  4  2  0  0  0  0
 12  7  1  0  0  0  0
 13  8  1  0  0  0  0
 14  9  1  0  0  0  0
 15 21  1  0  0  0  0
 16 15  2  0  0  0  0
 17 23  1  0  0  0  0
 18 24  1  0  0  0  0
 18 17  2  0  0  0  0
 19 18  1  0  0  0  0
 20 19  2  0  0  0  0
 20 21  1  0  0  0  0
 21 22  2  0  0  0  0
 22 17  1  0  0  0  0
 25 19  1  0  0  0  0
 26 25  1  0  0  0  0
 27 26  1  0  0  0  0
 27 25  1  0  0  0  0
M  END
>  <minimizedAffinity>
-5.25246096

>  <minimizedRMSD>
0.723501861

$$$$
