
 OpenBabel03272506563D

 14 15  0  0  0  0  0  0  0  0999 V2000
   38.8470   32.9240   48.4630 C   0  0  0  0  0  0  0  0  0  0  0  0
   38.6010   32.4330   47.1730 C   0  0  0  0  0  0  0  0  0  0  0  0
   37.6810   31.3600   47.0670 C   0  0  0  0  0  0  0  0  0  0  0  0
   37.0990   30.8750   48.1960 N   0  0  0  0  0  0  0  0  0  0  0  0
   37.3790   31.3920   49.4010 C   0  0  0  0  0  0  0  0  0  0  0  0
   38.2440   32.4120   49.5740 N   0  0  0  0  0  0  0  0  0  0  0  0
   39.5570   33.7420   48.4940 H   0  0  0  0  0  0  0  0  0  0  0  0
   37.4600   30.9490   46.1050 H   0  0  0  0  0  0  0  0  0  0  0  0
   39.2430   32.9840   46.0370 N   0  0  0  0  0  0  0  0  0  0  0  0
   38.8080   33.2090   45.1250 H   0  0  0  0  0  0  0  0  0  0  0  0
   40.2710   33.1830   46.1440 H   0  0  0  0  0  0  0  0  0  0  0  0
   36.7370   30.8540   50.6290 C   0  0  0  0  0  3  0  0  0  0  0  0
   37.4750   29.6550   51.2550 C   0  0  0  0  0  2  0  0  0  0  0  0
   36.0890   29.5210   50.6110 C   0  0  0  0  0  2  0  0  0  0  0  0
  1  7  1  0  0  0  0
  1  6  1  0  0  0  0
  2  1  2  0  0  0  0
  3  2  1  0  0  0  0
  3  4  2  0  0  0  0
  4  5  1  0  0  0  0
  5  6  2  0  0  0  0
  5 12  1  0  0  0  0
  8  3  1  0  0  0  0
  9 11  1  0  0  0  0
  9  2  1  0  0  0  0
 10  9  1  0  0  0  0
 12 13  1  0  0  0  0
 14 12  1  0  0  0  0
 14 13  1  0  0  0  0
M  END
>  <minimizedAffinity>
-4.25740099

>  <minimizedRMSD>
4.07277441

$$$$
