
 OpenBabel03272504063D

 22 24  0  0  0  0  0  0  0  0999 V2000
   36.7510   31.8310   50.1400 Cl  0  0  0  0  0  0  0  0  0  0  0  0
   37.4450   31.7810   48.5410 C   0  0  0  0  0  0  0  0  0  0  0  0
   36.7890   30.9360   47.6830 C   0  0  0  0  0  0  0  0  0  0  0  0
   37.2620   30.8160   46.3630 C   0  0  0  0  0  0  0  0  0  0  0  0
   38.3450   31.5150   45.9320 C   0  0  0  0  0  0  0  0  0  0  0  0
   38.9910   32.3570   46.8090 C   0  0  0  0  0  0  0  0  0  0  0  0
   40.3840   33.2700   46.2890 Cl  0  0  0  0  0  0  0  0  0  0  0  0
   38.5360   32.4760   48.0850 C   0  0  0  0  0  0  0  0  0  0  0  0
   36.8090   30.1760   45.6170 H   0  0  0  0  0  0  0  0  0  0  0  0
   38.7350   31.4470   44.9260 H   0  0  0  0  0  0  0  0  0  0  0  0
   38.9960   33.1200   48.8260 H   0  0  0  0  0  0  0  0  0  0  0  0
   35.6980   29.0830   48.9140 C   0  0  0  0  0  0  0  0  0  0  0  0
   35.6070   30.0880   47.9270 C   0  0  0  0  0  0  0  0  0  0  0  0
   34.3970   30.2190   47.2350 C   0  0  0  0  0  0  0  0  0  0  0  0
   33.3760   29.3780   47.5480 N   0  0  0  0  0  0  0  0  0  0  0  0
   33.5040   28.4270   48.5020 C   0  0  0  0  0  0  0  0  0  0  0  0
   34.6680   28.2840   49.1830 N   0  0  0  0  0  0  0  0  0  0  0  0
   36.6250   28.9690   49.4570 H   0  0  0  0  0  0  0  0  0  0  0  0
   34.3440   30.9910   46.4840 H   0  0  0  0  0  0  0  0  0  0  0  0
   32.3330   27.5430   48.7860 C   0  0  0  0  0  0  0  0  0  0  0  0
   32.2010   26.3570   47.7850 C   0  0  0  0  0  0  0  0  0  0  0  0
   31.1950   27.4710   47.8660 C   0  0  0  0  0  0  0  0  0  0  0  0
  2  1  1  0  0  0  0
  3 13  1  0  0  0  0
  3  2  2  0  0  0  0
  4  3  1  0  0  0  0
  5  4  2  0  0  0  0
  5  6  1  0  0  0  0
  6  8  2  0  0  0  0
  7  6  1  0  0  0  0
  8  2  1  0  0  0  0
  8 11  1  0  0  0  0
  9  4  1  0  0  0  0
 10  5  1  0  0  0  0
 12 17  1  0  0  0  0
 12 18  1  0  0  0  0
 13 12  2  0  0  0  0
 14 15  2  0  0  0  0
 14 13  1  0  0  0  0
 15 16  1  0  0  0  0
 16 20  1  0  0  0  0
 16 17  2  0  0  0  0
 19 14  1  0  0  0  0
 21 22  1  0  0  0  0
 21 20  1  0  0  0  0
 22 20  1  0  0  0  0
M  END
>  <minimizedAffinity>
-5.44712925

>  <minimizedRMSD>
2.69213295

$$$$
