
 OpenBabel03272505523D

 38 41  0  0  1  0  0  0  0  0999 V2000
   37.2940   29.2310   50.6440 C   0  0  0  0  0  0  0  0  0  0  0  0
   37.4410   30.5810   50.9940 C   0  0  0  0  0  0  0  0  0  0  0  0
   36.7110   31.5210   50.2420 C   0  0  0  0  0  0  0  0  0  0  0  0
   35.9250   31.0470   49.2430 N   0  0  0  0  0  0  0  0  0  0  0  0
   35.8140   29.7560   48.9450 C   0  0  0  0  0  0  0  0  0  0  0  0
   36.4940   28.8520   49.6410 N   0  0  0  0  0  0  0  0  0  0  0  0
   34.9700   29.3500   47.8900 N   0  0  0  0  0  0  0  0  0  0  0  0
   34.3240   28.0280   47.8660 C   0  0  0  0  0  0  0  0  0  0  0  0
   32.8430   28.2220   47.7210 C   0  0  0  0  0  0  0  0  0  0  0  0
   32.3970   29.4270   47.2440 N   0  0  0  0  0  0  0  0  0  0  0  0
   33.2570   30.3140   46.5330 C   0  0  0  0  0  0  0  0  0  0  0  0
   34.6850   30.2120   46.7600 C   0  0  2  0  0  0  0  0  0  0  0  0
   37.8650   28.5330   51.2360 H   0  0  0  0  0  0  0  0  0  0  0  0
   38.0680   30.9580   51.7900 H   0  0  0  0  0  0  0  0  0  0  0  0
   36.7600   32.6000   50.4390 H   0  0  0  0  0  0  0  0  0  0  0  0
   34.7970   27.4750   47.0480 H   0  0  0  0  0  0  0  0  0  0  0  0
   34.6030   27.5030   48.8010 H   0  0  0  0  0  0  0  0  0  0  0  0
   32.4450   27.3650   47.1380 H   0  0  0  0  0  0  0  0  0  0  0  0
   32.4200   28.0510   48.7570 H   0  0  0  0  0  0  0  0  0  0  0  0
   31.4460   29.3950   46.8700 H   0  0  0  0  0  0  0  0  0  0  0  0
   32.9230   31.3070   46.9440 H   0  0  0  0  0  0  0  0  0  0  0  0
   32.8320   30.3800   45.5250 H   0  0  0  0  0  0  0  0  0  0  0  0
   35.1550   31.2060   46.9830 H   0  0  0  0  0  0  0  0  0  0  0  0
   35.4480   29.6840   45.6310 N   0  0  2  0  0  0  0  0  0  0  0  0
   36.6390   30.4940   45.3750 C   0  0  0  0  0  0  0  0  0  0  0  0
   36.8020   30.6130   43.8760 C   0  0  0  0  0  0  0  0  0  0  0  0
   35.8270   29.5790   43.3770 C   0  0  0  0  0  0  0  0  0  0  0  0
   34.7000   29.6710   44.4280 C   0  0  1  0  0  0  0  0  0  0  0  0
   36.6110   31.4790   45.8660 H   0  0  0  0  0  0  0  0  0  0  0  0
   37.5130   29.9180   45.7670 H   0  0  0  0  0  0  0  0  0  0  0  0
   36.5350   31.6380   43.5910 H   0  0  0  0  0  0  0  0  0  0  0  0
   37.8250   30.3710   43.5440 H   0  0  0  0  0  0  0  0  0  0  0  0
   36.3600   28.6210   43.4020 H   0  0  0  0  0  0  0  0  0  0  0  0
   35.5210   29.8330   42.3740 H   0  0  0  0  0  0  0  0  0  0  0  0
   34.2920   30.6470   44.1070 H   0  0  0  0  0  0  0  0  0  0  0  0
   33.8250   28.5050   44.1440 C   0  0  0  0  0  0  0  0  0  0  0  0
   34.1280   27.6520   42.9050 C   0  0  0  0  0  0  0  0  0  0  0  0
   34.3440   27.0920   44.2340 C   0  0  0  0  0  0  0  0  0  0  0  0
  1  2  1  0  0  0  0
  1 13  1  0  0  0  0
  2 14  1  0  0  0  0
  3 15  1  0  0  0  0
  3  2  2  0  0  0  0
  4  3  1  0  0  0  0
  5  4  2  0  0  0  0
  5  6  1  0  0  0  0
  6  1  2  0  0  0  0
  7  5  1  0  0  0  0
  8  7  1  0  0  0  0
  8 17  1  0  0  0  0
  9  8  1  0  0  0  0
  9 19  1  0  0  0  0
 10  9  1  0  0  0  0
 11 12  1  0  0  0  0
 11 21  1  0  0  0  0
 11 10  1  0  0  0  0
 12 23  1  1  0  0  0
 12  7  1  0  0  0  0
 16  8  1  0  0  0  0
 18  9  1  0  0  0  0
 20 10  1  0  0  0  0
 22 11  1  0  0  0  0
 24 25  1  6  0  0  0
 24 12  1  0  0  0  0
 25 30  1  0  0  0  0
 25 29  1  0  0  0  0
 26 25  1  0  0  0  0
 27 33  1  0  0  0  0
 27 26  1  0  0  0  0
 27 28  1  0  0  0  0
 28 35  1  6  0  0  0
 28 24  1  0  0  0  0
 31 26  1  0  0  0  0
 32 26  1  0  0  0  0
 34 27  1  0  0  0  0
 36 38  1  0  0  0  0
 36 28  1  0  0  0  0
 37 36  1  0  0  0  0
 37 38  1  0  0  0  0
M  END
>  <minimizedAffinity>
-4.55035686

>  <minimizedRMSD>
0.232794315

$$$$
