
 OpenBabel03262523453D

 22 24  0  0  0  0  0  0  0  0999 V2000
   38.8860   27.3400   35.9880 Cl  0  0  0  0  0  0  0  0  0  0  0  0
   38.1660   26.6090   34.5840 C   0  0  0  0  0  0  0  0  0  0  0  0
   37.9920   25.2320   34.5130 C   0  0  0  0  0  0  0  0  0  0  0  0
   37.4190   24.7250   33.3780 C   0  0  0  0  0  0  0  0  0  0  0  0
   37.0190   25.5120   32.3300 C   0  0  0  0  0  0  0  0  0  0  0  0
   37.2070   26.8860   32.4320 C   0  0  0  0  0  0  0  0  0  0  0  0
   36.6910   27.8780   31.0890 Cl  0  0  0  0  0  0  0  0  0  0  0  0
   37.7790   27.4480   33.5530 C   0  0  0  0  0  0  0  0  0  0  0  0
   37.2970   23.6520   33.3520 H   0  0  0  0  0  0  0  0  0  0  0  0
   37.9200   28.5380   33.6150 H   0  0  0  0  0  0  0  0  0  0  0  0
   40.0930   23.0270   36.7640 C   0  0  0  0  0  0  0  0  0  0  0  0
   39.6620   23.7820   35.6660 C   0  0  0  0  0  0  0  0  0  0  0  0
   38.4380   24.4450   35.6600 C   0  0  0  0  0  0  0  0  0  0  0  0
   37.6840   24.3150   36.7870 N   0  0  0  0  0  0  0  0  0  0  0  0
   38.1160   23.5850   37.8320 C   0  0  0  0  0  0  0  0  0  0  0  0
   39.2880   22.9530   37.8300 N   0  0  0  0  0  0  0  0  0  0  0  0
   41.0720   22.5710   36.6110 H   0  0  0  0  0  0  0  0  0  0  0  0
   40.2610   23.8880   34.7640 H   0  0  0  0  0  0  0  0  0  0  0  0
   37.5080   23.4830   38.7320 H   0  0  0  0  0  0  0  0  0  0  0  0
   36.3990   24.9480   31.1030 C   0  0  0  0  0  3  0  0  0  0  0  0
   34.9410   24.8100   30.9560 C   0  0  0  0  0  2  0  0  0  0  0  0
   35.7930   23.5780   31.1610 C   0  0  0  0  0  2  0  0  0  0  0  0
  2  1  1  0  0  0  0
  3  2  1  0  0  0  0
  3 13  1  0  0  0  0
  4  3  2  0  0  0  0
  5  6  2  0  0  0  0
  5  4  1  0  0  0  0
  6  8  1  0  0  0  0
  7  6  1  0  0  0  0
  8 10  1  0  0  0  0
  8  2  2  0  0  0  0
  9  4  1  0  0  0  0
 11 16  1  0  0  0  0
 12 11  2  0  0  0  0
 13 12  1  0  0  0  0
 13 14  2  0  0  0  0
 14 15  1  0  0  0  0
 15 19  1  0  0  0  0
 16 15  2  0  0  0  0
 17 11  1  0  0  0  0
 18 12  1  0  0  0  0
 20 22  1  0  0  0  0
 20  5  1  0  0  0  0
 21 20  1  0  0  0  0
 21 22  1  0  0  0  0
M  END
>  <minimizedAffinity>
-5.01576757

$$$$

 OpenBabel03262523453D

 22 24  0  0  0  0  0  0  0  0999 V2000
   34.7490   30.9670   32.3030 Cl  0  0  0  0  0  0  0  0  0  0  0  0
   35.7180   29.6890   32.9740 C   0  0  0  0  0  0  0  0  0  0  0  0
   35.8110   29.5180   34.3510 C   0  0  0  0  0  0  0  0  0  0  0  0
   36.5920   28.4920   34.8100 C   0  0  0  0  0  0  0  0  0  0  0  0
   37.2720   27.6440   33.9770 C   0  0  0  0  0  0  0  0  0  0  0  0
   37.1590   27.8400   32.6050 C   0  0  0  0  0  0  0  0  0  0  0  0
   38.0310   26.7500   31.5530 Cl  0  0  0  0  0  0  0  0  0  0  0  0
   36.3850   28.8580   32.0900 C   0  0  0  0  0  0  0  0  0  0  0  0
   36.6440   28.3860   35.8830 H   0  0  0  0  0  0  0  0  0  0  0  0
   36.3090   28.9980   31.0000 H   0  0  0  0  0  0  0  0  0  0  0  0
   34.9840   32.3650   36.7080 C   0  0  0  0  0  0  0  0  0  0  0  0
   35.6970   31.4660   35.9040 C   0  0  0  0  0  0  0  0  0  0  0  0
   35.0640   30.4540   35.1880 C   0  0  0  0  0  0  0  0  0  0  0  0
   33.7100   30.3890   35.3170 N   0  0  0  0  0  0  0  0  0  0  0  0
   33.0420   31.2620   36.0950 C   0  0  0  0  0  0  0  0  0  0  0  0
   33.6550   32.2290   36.7760 N   0  0  0  0  0  0  0  0  0  0  0  0
   35.6240   33.0970   37.2020 H   0  0  0  0  0  0  0  0  0  0  0  0
   36.7790   31.5150   35.8000 H   0  0  0  0  0  0  0  0  0  0  0  0
   31.9580   31.2060   36.1940 H   0  0  0  0  0  0  0  0  0  0  0  0
   38.1170   26.5340   34.4890 C   0  0  0  0  0  3  0  0  0  0  0  0
   38.3600   26.3340   35.9260 C   0  0  0  0  0  2  0  0  0  0  0  0
   39.4740   26.8510   35.0440 C   0  0  0  0  0  2  0  0  0  0  0  0
  1  2  1  0  0  0  0
  2  3  1  0  0  0  0
  3  4  2  0  0  0  0
  3 13  1  0  0  0  0
  4  9  1  0  0  0  0
  5 20  1  0  0  0  0
  5  4  1  0  0  0  0
  6  5  2  0  0  0  0
  7  6  1  0  0  0  0
  8  6  1  0  0  0  0
  8  2  2  0  0  0  0
 10  8  1  0  0  0  0
 11 16  1  0  0  0  0
 11 17  1  0  0  0  0
 12 11  2  0  0  0  0
 13 14  2  0  0  0  0
 13 12  1  0  0  0  0
 14 15  1  0  0  0  0
 15 19  1  0  0  0  0
 15 16  2  0  0  0  0
 18 12  1  0  0  0  0
 20 22  1  0  0  0  0
 20 21  1  0  0  0  0
 22 21  1  0  0  0  0
M  END
>  <minimizedAffinity>
-4.73185539

$$$$

 OpenBabel03262523453D

 22 24  0  0  0  0  0  0  0  0999 V2000
   38.7840   26.9100   36.0230 Cl  0  0  0  0  0  0  0  0  0  0  0  0
   38.1560   26.0270   34.6630 C   0  0  0  0  0  0  0  0  0  0  0  0
   38.3420   24.6520   34.5650 C   0  0  0  0  0  0  0  0  0  0  0  0
   37.8210   24.0220   33.4670 C   0  0  0  0  0  0  0  0  0  0  0  0
   37.1380   24.6830   32.4820 C   0  0  0  0  0  0  0  0  0  0  0  0
   36.9690   26.0580   32.6090 C   0  0  0  0  0  0  0  0  0  0  0  0
   36.0940   26.8900   31.3450 Cl  0  0  0  0  0  0  0  0  0  0  0  0
   37.4730   26.7420   33.6950 C   0  0  0  0  0  0  0  0  0  0  0  0
   37.9820   22.9540   33.4190 H   0  0  0  0  0  0  0  0  0  0  0  0
   37.3300   27.8310   33.7770 H   0  0  0  0  0  0  0  0  0  0  0  0
   39.1760   23.0540   37.8960 C   0  0  0  0  0  0  0  0  0  0  0  0
   38.4730   23.6780   36.8570 C   0  0  0  0  0  0  0  0  0  0  0  0
   39.0780   24.0010   35.6450 C   0  0  0  0  0  0  0  0  0  0  0  0
   40.3950   23.6740   35.5310 N   0  0  0  0  0  0  0  0  0  0  0  0
   41.0530   23.0750   36.5410 C   0  0  0  0  0  0  0  0  0  0  0  0
   40.4670   22.7680   37.6970 N   0  0  0  0  0  0  0  0  0  0  0  0
   38.5600   22.8690   38.7770 H   0  0  0  0  0  0  0  0  0  0  0  0
   37.4210   23.9410   36.9450 H   0  0  0  0  0  0  0  0  0  0  0  0
   42.1080   22.8150   36.4440 H   0  0  0  0  0  0  0  0  0  0  0  0
   36.5780   23.9850   31.2950 C   0  0  0  0  0  3  0  0  0  0  0  0
   35.5660   22.9250   31.4160 C   0  0  0  0  0  2  0  0  0  0  0  0
   36.9830   22.5660   31.0300 C   0  0  0  0  0  2  0  0  0  0  0  0
  2  1  1  0  0  0  0
  3  2  1  0  0  0  0
  3 13  1  0  0  0  0
  4  3  2  0  0  0  0
  5  6  2  0  0  0  0
  5  4  1  0  0  0  0
  6  8  1  0  0  0  0
  7  6  1  0  0  0  0
  8 10  1  0  0  0  0
  8  2  2  0  0  0  0
  9  4  1  0  0  0  0
 11 17  1  0  0  0  0
 12 18  1  0  0  0  0
 12 11  2  0  0  0  0
 13 12  1  0  0  0  0
 14 13  2  0  0  0  0
 14 15  1  0  0  0  0
 15 16  2  0  0  0  0
 16 11  1  0  0  0  0
 19 15  1  0  0  0  0
 20 21  1  0  0  0  0
 20  5  1  0  0  0  0
 22 20  1  0  0  0  0
 22 21  1  0  0  0  0
M  END
>  <minimizedAffinity>
-4.71514654

$$$$

 OpenBabel03262523453D

 22 24  0  0  0  0  0  0  0  0999 V2000
   35.8790   20.7630   36.1920 Cl  0  0  0  0  0  0  0  0  0  0  0  0
   36.5250   21.3290   34.6810 C   0  0  0  0  0  0  0  0  0  0  0  0
   37.6130   22.1950   34.6550 C   0  0  0  0  0  0  0  0  0  0  0  0
   38.0680   22.6010   33.4300 C   0  0  0  0  0  0  0  0  0  0  0  0
   37.5020   22.1920   32.2510 C   0  0  0  0  0  0  0  0  0  0  0  0
   36.4150   21.3260   32.3100 C   0  0  0  0  0  0  0  0  0  0  0  0
   35.7030   20.8110   30.8000 Cl  0  0  0  0  0  0  0  0  0  0  0  0
   35.9170   20.8870   33.5180 C   0  0  0  0  0  0  0  0  0  0  0  0
   38.9140   23.2730   33.4430 H   0  0  0  0  0  0  0  0  0  0  0  0
   35.0550   20.2020   33.5450 H   0  0  0  0  0  0  0  0  0  0  0  0
   39.9890   22.5860   37.5770 C   0  0  0  0  0  0  0  0  0  0  0  0
   39.4480   22.2030   36.3440 C   0  0  0  0  0  0  0  0  0  0  0  0
   38.1740   22.5960   35.9420 C   0  0  0  0  0  0  0  0  0  0  0  0
   37.4850   23.3740   36.8230 N   0  0  0  0  0  0  0  0  0  0  0  0
   38.0230   23.7320   38.0040 C   0  0  0  0  0  0  0  0  0  0  0  0
   39.2430   23.3530   38.3800 N   0  0  0  0  0  0  0  0  0  0  0  0
   40.9950   22.1970   37.7420 H   0  0  0  0  0  0  0  0  0  0  0  0
   39.9950   21.5810   35.6380 H   0  0  0  0  0  0  0  0  0  0  0  0
   37.4670   24.3550   38.7050 H   0  0  0  0  0  0  0  0  0  0  0  0
   38.0070   22.6410   30.9280 C   0  0  0  0  0  3  0  0  0  0  0  0
   39.2430   23.4260   30.7880 C   0  0  0  0  0  2  0  0  0  0  0  0
   37.9050   24.0930   30.5670 C   0  0  0  0  0  2  0  0  0  0  0  0
  2  1  1  0  0  0  0
  3  2  1  0  0  0  0
  3 13  1  0  0  0  0
  4  9  1  0  0  0  0
  4  3  2  0  0  0  0
  5  6  2  0  0  0  0
  5  4  1  0  0  0  0
  6  8  1  0  0  0  0
  7  6  1  0  0  0  0
  8 10  1  0  0  0  0
  8  2  2  0  0  0  0
 11 17  1  0  0  0  0
 11 16  1  0  0  0  0
 12 11  2  0  0  0  0
 13 12  1  0  0  0  0
 13 14  2  0  0  0  0
 14 15  1  0  0  0  0
 15 16  2  0  0  0  0
 15 19  1  0  0  0  0
 18 12  1  0  0  0  0
 20  5  1  0  0  0  0
 21 20  1  0  0  0  0
 22 21  1  0  0  0  0
 22 20  1  0  0  0  0
M  END
>  <minimizedAffinity>
-4.59838963

$$$$

 OpenBabel03262523453D

 22 24  0  0  0  0  0  0  0  0999 V2000
   37.1550   25.9260   31.7050 Cl  0  0  0  0  0  0  0  0  0  0  0  0
   36.5830   27.2890   32.6200 C   0  0  0  0  0  0  0  0  0  0  0  0
   37.0890   27.5550   33.8880 C   0  0  0  0  0  0  0  0  0  0  0  0
   36.5910   28.6440   34.5510 C   0  0  0  0  0  0  0  0  0  0  0  0
   35.6330   29.4660   34.0200 C   0  0  0  0  0  0  0  0  0  0  0  0
   35.1470   29.1740   32.7500 C   0  0  0  0  0  0  0  0  0  0  0  0
   33.9260   30.2320   32.0840 Cl  0  0  0  0  0  0  0  0  0  0  0  0
   35.6140   28.0890   32.0390 C   0  0  0  0  0  0  0  0  0  0  0  0
   37.0040   28.8240   35.5330 H   0  0  0  0  0  0  0  0  0  0  0  0
   35.2160   27.8740   31.0350 H   0  0  0  0  0  0  0  0  0  0  0  0
   40.4490   26.0180   34.7190 C   0  0  0  0  0  0  0  0  0  0  0  0
   39.4680   26.8900   34.2290 C   0  0  0  0  0  0  0  0  0  0  0  0
   38.1080   26.6440   34.4010 C   0  0  0  0  0  0  0  0  0  0  0  0
   37.7900   25.5040   35.0750 N   0  0  0  0  0  0  0  0  0  0  0  0
   38.7470   24.6790   35.5390 C   0  0  0  0  0  0  0  0  0  0  0  0
   40.0450   24.9220   35.3710 N   0  0  0  0  0  0  0  0  0  0  0  0
   41.4640   26.3520   34.5030 H   0  0  0  0  0  0  0  0  0  0  0  0
   39.7190   27.8010   33.6900 H   0  0  0  0  0  0  0  0  0  0  0  0
   38.4850   23.7670   36.0780 H   0  0  0  0  0  0  0  0  0  0  0  0
   35.1030   30.6460   34.7520 C   0  0  0  0  0  3  0  0  0  0  0  0
   35.6530   31.9970   34.5610 C   0  0  0  0  0  2  0  0  0  0  0  0
   35.9280   31.2520   35.8470 C   0  0  0  0  0  2  0  0  0  0  0  0
  1  2  1  0  0  0  0
  2  3  1  0  0  0  0
  3 13  1  0  0  0  0
  3  4  2  0  0  0  0
  4  9  1  0  0  0  0
  5  4  1  0  0  0  0
  5 20  1  0  0  0  0
  6  5  2  0  0  0  0
  7  6  1  0  0  0  0
  8  2  2  0  0  0  0
  8  6  1  0  0  0  0
 10  8  1  0  0  0  0
 11 16  1  0  0  0  0
 12 13  1  0  0  0  0
 12 11  2  0  0  0  0
 13 14  2  0  0  0  0
 14 15  1  0  0  0  0
 15 19  1  0  0  0  0
 16 15  2  0  0  0  0
 17 11  1  0  0  0  0
 18 12  1  0  0  0  0
 20 22  1  0  0  0  0
 21 20  1  0  0  0  0
 21 22  1  0  0  0  0
M  END
>  <minimizedAffinity>
-4.53954172

$$$$

 OpenBabel03262523453D

 22 24  0  0  0  0  0  0  0  0999 V2000
   37.0910   28.5270   29.4730 Cl  0  0  0  0  0  0  0  0  0  0  0  0
   36.5720   29.3690   30.9030 C   0  0  0  0  0  0  0  0  0  0  0  0
   36.1790   28.6660   32.0360 C   0  0  0  0  0  0  0  0  0  0  0  0
   35.7810   29.3940   33.1250 C   0  0  0  0  0  0  0  0  0  0  0  0
   35.7570   30.7640   33.1370 C   0  0  0  0  0  0  0  0  0  0  0  0
   36.1560   31.4380   31.9880 C   0  0  0  0  0  0  0  0  0  0  0  0
   36.1220   33.1850   32.0180 Cl  0  0  0  0  0  0  0  0  0  0  0  0
   36.5660   30.7530   30.8640 C   0  0  0  0  0  0  0  0  0  0  0  0
   35.4820   28.8200   33.9890 H   0  0  0  0  0  0  0  0  0  0  0  0
   36.8770   31.3050   29.9630 H   0  0  0  0  0  0  0  0  0  0  0  0
   37.2630   25.0730   32.5390 C   0  0  0  0  0  0  0  0  0  0  0  0
   37.2150   26.4710   32.6070 C   0  0  0  0  0  0  0  0  0  0  0  0
   36.2250   27.2080   31.9630 C   0  0  0  0  0  0  0  0  0  0  0  0
   35.3060   26.4870   31.2630 N   0  0  0  0  0  0  0  0  0  0  0  0
   35.3680   25.1440   31.2100 C   0  0  0  0  0  0  0  0  0  0  0  0
   36.3180   24.4460   31.8290 N   0  0  0  0  0  0  0  0  0  0  0  0
   38.0980   24.6460   33.0960 H   0  0  0  0  0  0  0  0  0  0  0  0
   37.9480   27.0500   33.1650 H   0  0  0  0  0  0  0  0  0  0  0  0
   34.6290   24.5720   30.6480 H   0  0  0  0  0  0  0  0  0  0  0  0
   35.3230   31.5410   34.3270 C   0  0  0  0  0  3  0  0  0  0  0  0
   35.8590   31.2780   35.6720 C   0  0  0  0  0  2  0  0  0  0  0  0
   34.4380   30.8810   35.3420 C   0  0  0  0  0  2  0  0  0  0  0  0
  1  2  1  0  0  0  0
  2  3  1  0  0  0  0
  3  4  2  0  0  0  0
  4  5  1  0  0  0  0
  4  9  1  0  0  0  0
  5 20  1  0  0  0  0
  6  7  1  0  0  0  0
  6  5  2  0  0  0  0
  8  2  2  0  0  0  0
  8  6  1  0  0  0  0
 10  8  1  0  0  0  0
 11 12  1  0  0  0  0
 11 17  1  0  0  0  0
 12 18  1  0  0  0  0
 13  3  1  0  0  0  0
 13 12  2  0  0  0  0
 14 13  1  0  0  0  0
 15 14  2  0  0  0  0
 15 16  1  0  0  0  0
 16 11  2  0  0  0  0
 19 15  1  0  0  0  0
 20 22  1  0  0  0  0
 20 21  1  0  0  0  0
 22 21  1  0  0  0  0
M  END
>  <minimizedAffinity>
-4.49702406

$$$$

 OpenBabel03262523453D

 22 24  0  0  0  0  0  0  0  0999 V2000
   40.3670   24.8050   32.2330 Cl  0  0  0  0  0  0  0  0  0  0  0  0
   39.8870   24.4300   33.8620 C   0  0  0  0  0  0  0  0  0  0  0  0
   38.6450   24.8280   34.3450 C   0  0  0  0  0  0  0  0  0  0  0  0
   38.3350   24.4990   35.6360 C   0  0  0  0  0  0  0  0  0  0  0  0
   39.1860   23.8040   36.4530 C   0  0  0  0  0  0  0  0  0  0  0  0
   40.4200   23.4200   35.9410 C   0  0  0  0  0  0  0  0  0  0  0  0
   41.4970   22.5330   36.9940 Cl  0  0  0  0  0  0  0  0  0  0  0  0
   40.7830   23.7260   34.6470 C   0  0  0  0  0  0  0  0  0  0  0  0
   37.3640   24.8220   35.9820 H   0  0  0  0  0  0  0  0  0  0  0  0
   41.7660   23.4130   34.2600 H   0  0  0  0  0  0  0  0  0  0  0  0
   36.9140   27.6690   32.5340 C   0  0  0  0  0  0  0  0  0  0  0  0
   37.7420   26.9580   33.4120 C   0  0  0  0  0  0  0  0  0  0  0  0
   37.7810   25.5660   33.4270 C   0  0  0  0  0  0  0  0  0  0  0  0
   36.9660   24.9380   32.5350 N   0  0  0  0  0  0  0  0  0  0  0  0
   36.1770   25.6390   31.6990 C   0  0  0  0  0  0  0  0  0  0  0  0
   36.1460   26.9700   31.6910 N   0  0  0  0  0  0  0  0  0  0  0  0
   36.9990   28.7500   32.6480 H   0  0  0  0  0  0  0  0  0  0  0  0
   38.3940   27.4570   34.1260 H   0  0  0  0  0  0  0  0  0  0  0  0
   35.5260   25.1300   30.9870 H   0  0  0  0  0  0  0  0  0  0  0  0
   38.8350   23.4540   37.8550 C   0  0  0  0  0  3  0  0  0  0  0  0
   37.4630   23.1010   38.2520 C   0  0  0  0  0  2  0  0  0  0  0  0
   38.0450   24.4320   38.6710 C   0  0  0  0  0  2  0  0  0  0  0  0
  1  2  1  0  0  0  0
  2  3  2  0  0  0  0
  2  8  1  0  0  0  0
  3  4  1  0  0  0  0
  4  9  1  0  0  0  0
  4  5  2  0  0  0  0
  5 20  1  0  0  0  0
  6  5  1  0  0  0  0
  6  7  1  0  0  0  0
  8  6  2  0  0  0  0
 10  8  1  0  0  0  0
 11 17  1  0  0  0  0
 11 12  1  0  0  0  0
 12 13  2  0  0  0  0
 12 18  1  0  0  0  0
 13  3  1  0  0  0  0
 14 13  1  0  0  0  0
 15 14  2  0  0  0  0
 16 15  1  0  0  0  0
 16 11  2  0  0  0  0
 19 15  1  0  0  0  0
 20 21  1  0  0  0  0
 20 22  1  0  0  0  0
 21 22  1  0  0  0  0
M  END
>  <minimizedAffinity>
-4.47146797

$$$$

 OpenBabel03262523453D

 22 24  0  0  0  0  0  0  0  0999 V2000
   38.4220   26.9610   36.2090 Cl  0  0  0  0  0  0  0  0  0  0  0  0
   37.8540   27.3990   34.6250 C   0  0  0  0  0  0  0  0  0  0  0  0
   38.6190   27.1230   33.4970 C   0  0  0  0  0  0  0  0  0  0  0  0
   38.1100   27.4960   32.2820 C   0  0  0  0  0  0  0  0  0  0  0  0
   36.8990   28.1180   32.1410 C   0  0  0  0  0  0  0  0  0  0  0  0
   36.1580   28.3810   33.2880 C   0  0  0  0  0  0  0  0  0  0  0  0
   34.6130   29.1750   33.0940 Cl  0  0  0  0  0  0  0  0  0  0  0  0
   36.6230   28.0260   34.5360 C   0  0  0  0  0  0  0  0  0  0  0  0
   38.7270   27.2680   31.4250 H   0  0  0  0  0  0  0  0  0  0  0  0
   36.0220   28.2430   35.4330 H   0  0  0  0  0  0  0  0  0  0  0  0
   42.3210   26.5390   34.0440 C   0  0  0  0  0  0  0  0  0  0  0  0
   41.0890   27.1730   33.8400 C   0  0  0  0  0  0  0  0  0  0  0  0
   39.9010   26.4570   33.7100 C   0  0  0  0  0  0  0  0  0  0  0  0
   40.0110   25.1020   33.7940 N   0  0  0  0  0  0  0  0  0  0  0  0
   41.2040   24.5110   33.9910 C   0  0  0  0  0  0  0  0  0  0  0  0
   42.3350   25.2030   34.1140 N   0  0  0  0  0  0  0  0  0  0  0  0
   43.1530   27.2390   34.1250 H   0  0  0  0  0  0  0  0  0  0  0  0
   40.9980   28.2560   33.7720 H   0  0  0  0  0  0  0  0  0  0  0  0
   41.2850   23.4250   34.0570 H   0  0  0  0  0  0  0  0  0  0  0  0
   36.3590   28.5180   30.8150 C   0  0  0  0  0  3  0  0  0  0  0  0
   37.2060   28.5890   29.6150 C   0  0  0  0  0  2  0  0  0  0  0  0
   36.7170   29.8640   30.2620 C   0  0  0  0  0  2  0  0  0  0  0  0
  2  1  1  0  0  0  0
  3 13  1  0  0  0  0
  3  2  2  0  0  0  0
  4  3  1  0  0  0  0
  5  4  2  0  0  0  0
  5  6  1  0  0  0  0
  6  8  2  0  0  0  0
  7  6  1  0  0  0  0
  8  2  1  0  0  0  0
  8 10  1  0  0  0  0
  9  4  1  0  0  0  0
 11 16  1  0  0  0  0
 11 17  1  0  0  0  0
 12 11  2  0  0  0  0
 13 14  2  0  0  0  0
 13 12  1  0  0  0  0
 14 15  1  0  0  0  0
 15 19  1  0  0  0  0
 15 16  2  0  0  0  0
 18 12  1  0  0  0  0
 20  5  1  0  0  0  0
 21 22  1  0  0  0  0
 21 20  1  0  0  0  0
 22 20  1  0  0  0  0
M  END
>  <minimizedAffinity>
-4.40456343

$$$$

 OpenBabel03262523453D

 22 24  0  0  0  0  0  0  0  0999 V2000
   36.2590   24.4080   31.0060 Cl  0  0  0  0  0  0  0  0  0  0  0  0
   37.1310   24.2390   32.5010 C   0  0  0  0  0  0  0  0  0  0  0  0
   37.3560   22.9820   33.0520 C   0  0  0  0  0  0  0  0  0  0  0  0
   38.0490   22.9230   34.2310 C   0  0  0  0  0  0  0  0  0  0  0  0
   38.5190   24.0370   34.8740 C   0  0  0  0  0  0  0  0  0  0  0  0
   38.2780   25.2790   34.2990 C   0  0  0  0  0  0  0  0  0  0  0  0
   38.8850   26.6920   35.1300 Cl  0  0  0  0  0  0  0  0  0  0  0  0
   37.5860   25.3940   33.1120 C   0  0  0  0  0  0  0  0  0  0  0  0
   38.2070   21.9330   34.6330 H   0  0  0  0  0  0  0  0  0  0  0  0
   37.4040   26.3880   32.6720 H   0  0  0  0  0  0  0  0  0  0  0  0
   35.0780   20.1780   31.9130 C   0  0  0  0  0  0  0  0  0  0  0  0
   35.5860   21.2810   32.6120 C   0  0  0  0  0  0  0  0  0  0  0  0
   36.8300   21.8320   32.3200 C   0  0  0  0  0  0  0  0  0  0  0  0
   37.5250   21.2340   31.3130 N   0  0  0  0  0  0  0  0  0  0  0  0
   37.0200   20.1750   30.6520 C   0  0  0  0  0  0  0  0  0  0  0  0
   35.8290   19.6540   30.9380 N   0  0  0  0  0  0  0  0  0  0  0  0
   34.0930   19.8680   32.2620 H   0  0  0  0  0  0  0  0  0  0  0  0
   35.0340   21.7610   33.4180 H   0  0  0  0  0  0  0  0  0  0  0  0
   37.5820   19.7000   29.8460 H   0  0  0  0  0  0  0  0  0  0  0  0
   39.2700   23.9580   36.1550 C   0  0  0  0  0  3  0  0  0  0  0  0
   39.6060   22.6730   36.7870 C   0  0  0  0  0  2  0  0  0  0  0  0
   38.5400   23.5520   37.4000 C   0  0  0  0  0  2  0  0  0  0  0  0
  1  2  1  0  0  0  0
  2  3  2  0  0  0  0
  2  8  1  0  0  0  0
  3  4  1  0  0  0  0
  4  9  1  0  0  0  0
  4  5  2  0  0  0  0
  5 20  1  0  0  0  0
  6  5  1  0  0  0  0
  6  7  1  0  0  0  0
  8  6  2  0  0  0  0
 10  8  1  0  0  0  0
 11 17  1  0  0  0  0
 11 12  1  0  0  0  0
 12 18  1  0  0  0  0
 13 12  2  0  0  0  0
 13  3  1  0  0  0  0
 14 13  1  0  0  0  0
 15 16  1  0  0  0  0
 15 14  2  0  0  0  0
 16 11  2  0  0  0  0
 19 15  1  0  0  0  0
 20 21  1  0  0  0  0
 20 22  1  0  0  0  0
 21 22  1  0  0  0  0
M  END
>  <minimizedAffinity>
-4.39992332

$$$$
