
 OpenBabel03272505483D

 28 31  0  0  0  0  0  0  0  0999 V2000
   38.5130   26.0030   35.0300 C   0  0  0  0  0  0  0  0  0  0  0  0
   38.3580   27.3680   35.5790 C   0  0  0  0  0  0  0  0  0  0  0  0
   39.5980   27.0120   34.8060 C   0  0  0  0  0  0  0  0  0  0  0  0
   38.5470   27.5520   36.6430 H   0  0  0  0  0  0  0  0  0  0  0  0
   37.6400   28.0870   35.1440 H   0  0  0  0  0  0  0  0  0  0  0  0
   40.5520   26.8540   35.3490 H   0  0  0  0  0  0  0  0  0  0  0  0
   39.7240   27.3670   33.7580 H   0  0  0  0  0  0  0  0  0  0  0  0
   37.0950   23.8260   32.3980 C   0  0  0  0  0  0  0  0  0  0  0  0
   36.3270   24.7290   31.6370 C   0  0  0  0  0  0  0  0  0  0  0  0
   36.3070   26.0880   32.0340 C   0  0  0  0  0  0  0  0  0  0  0  0
   37.0250   26.4640   33.1270 N   0  0  0  0  0  0  0  0  0  0  0  0
   37.7590   25.5540   33.8410 C   0  0  0  0  0  0  0  0  0  0  0  0
   37.7940   24.2560   33.4820 N   0  0  0  0  0  0  0  0  0  0  0  0
   37.1960   22.7840   32.2110 H   0  0  0  0  0  0  0  0  0  0  0  0
   35.7980   24.3240   30.7930 H   0  0  0  0  0  0  0  0  0  0  0  0
   35.7190   26.7470   31.4400 H   0  0  0  0  0  0  0  0  0  0  0  0
   38.7960   24.8760   35.9820 C   0  0  0  0  0  0  0  0  0  0  0  0
   38.0590   24.7040   37.1080 C   0  0  0  0  0  0  0  0  0  0  0  0
   38.3120   23.6560   37.9760 C   0  0  0  0  0  0  0  0  0  0  0  0
   39.3520   22.7830   37.6600 C   0  0  0  0  0  0  0  0  0  0  0  0
   40.1110   22.9640   36.5020 C   0  0  0  0  0  0  0  0  0  0  0  0
   39.8030   24.0110   35.7000 N   0  0  0  0  0  0  0  0  0  0  0  0
   37.2530   25.2880   37.5040 H   0  0  0  0  0  0  0  0  0  0  0  0
   37.8170   23.4070   38.8810 H   0  0  0  0  0  0  0  0  0  0  0  0
   39.6200   21.9310   38.2920 H   0  0  0  0  0  0  0  0  0  0  0  0
   41.2120   22.0130   36.2010 C   0  0  0  0  0  3  0  0  0  0  0  0
   41.9170   21.3230   37.3270 C   0  0  0  0  0  2  0  0  0  0  0  0
   42.6420   22.4440   36.6540 C   0  0  0  0  0  2  0  0  0  0  0  0
  1  2  1  0  0  0  0
  1 17  1  0  0  0  0
  2  4  1  0  0  0  0
  3  1  1  0  0  0  0
  3  6  1  0  0  0  0
  3  2  1  0  0  0  0
  5  2  1  0  0  0  0
  7  3  1  0  0  0  0
  8 13  1  0  0  0  0
  9 10  1  0  0  0  0
  9  8  2  0  0  0  0
 10 11  2  0  0  0  0
 11 12  1  0  0  0  0
 12  1  1  0  0  0  0
 13 12  2  0  0  0  0
 14  8  1  0  0  0  0
 15  9  1  0  0  0  0
 16 10  1  0  0  0  0
 17 18  1  0  0  0  0
 18 23  1  0  0  0  0
 18 19  2  0  0  0  0
 19 24  1  0  0  0  0
 20 19  1  0  0  0  0
 20 25  1  0  0  0  0
 21 20  2  0  0  0  0
 22 17  2  0  0  0  0
 22 21  1  0  0  0  0
 26 21  1  0  0  0  0
 26 28  1  0  0  0  0
 26 27  1  0  0  0  0
 28 27  1  0  0  0  0
M  END
>  <minimizedAffinity>
-5.27008104

$$$$

 OpenBabel03272505483D

 28 31  0  0  0  0  0  0  0  0999 V2000
   38.5400   24.0090   36.8190 C   0  0  0  0  0  0  0  0  0  0  0  0
   37.8980   24.1040   38.1480 C   0  0  0  0  0  0  0  0  0  0  0  0
   37.3870   23.1080   37.1440 C   0  0  0  0  0  0  0  0  0  0  0  0
   37.1910   24.9160   38.3550 H   0  0  0  0  0  0  0  0  0  0  0  0
   38.4040   23.7390   39.0600 H   0  0  0  0  0  0  0  0  0  0  0  0
   36.4310   23.3060   36.6190 H   0  0  0  0  0  0  0  0  0  0  0  0
   37.6310   22.0270   37.2560 H   0  0  0  0  0  0  0  0  0  0  0  0
   41.9460   23.2990   35.5640 C   0  0  0  0  0  0  0  0  0  0  0  0
   42.3260   22.1800   36.3310 C   0  0  0  0  0  0  0  0  0  0  0  0
   41.4010   21.6730   37.2750 C   0  0  0  0  0  0  0  0  0  0  0  0
   40.1910   22.2830   37.4030 N   0  0  0  0  0  0  0  0  0  0  0  0
   39.8600   23.3700   36.6370 C   0  0  0  0  0  0  0  0  0  0  0  0
   40.7240   23.8690   35.7320 N   0  0  0  0  0  0  0  0  0  0  0  0
   42.5420   23.7780   34.8240 H   0  0  0  0  0  0  0  0  0  0  0  0
   43.3060   21.7790   36.1480 H   0  0  0  0  0  0  0  0  0  0  0  0
   41.7150   20.8270   37.8390 H   0  0  0  0  0  0  0  0  0  0  0  0
   38.3030   25.1130   35.8280 C   0  0  0  0  0  0  0  0  0  0  0  0
   38.3370   26.4160   36.2050 C   0  0  0  0  0  0  0  0  0  0  0  0
   38.1330   27.4320   35.2880 C   0  0  0  0  0  0  0  0  0  0  0  0
   37.8880   27.0760   33.9630 C   0  0  0  0  0  0  0  0  0  0  0  0
   37.8510   25.7340   33.5780 C   0  0  0  0  0  0  0  0  0  0  0  0
   38.0620   24.7960   34.5310 N   0  0  0  0  0  0  0  0  0  0  0  0
   38.4870   26.8530   37.1710 H   0  0  0  0  0  0  0  0  0  0  0  0
   38.1330   28.4820   35.4460 H   0  0  0  0  0  0  0  0  0  0  0  0
   37.7140   27.8150   33.1750 H   0  0  0  0  0  0  0  0  0  0  0  0
   37.5860   25.3960   32.1550 C   0  0  0  0  0  3  0  0  0  0  0  0
   36.7100   26.2920   31.3370 C   0  0  0  0  0  2  0  0  0  0  0  0
   36.1170   25.0000   31.8010 C   0  0  0  0  0  2  0  0  0  0  0  0
  1  3  1  0  0  0  0
  1  2  1  0  0  0  0
  2  4  1  0  0  0  0
  2  5  1  0  0  0  0
  3  7  1  0  0  0  0
  3  2  1  0  0  0  0
  6  3  1  0  0  0  0
  8 13  2  0  0  0  0
  8  9  1  0  0  0  0
  9 10  2  0  0  0  0
 10 11  1  0  0  0  0
 10 16  1  0  0  0  0
 12  1  1  0  0  0  0
 12 11  2  0  0  0  0
 13 12  1  0  0  0  0
 14  8  1  0  0  0  0
 15  9  1  0  0  0  0
 17 18  1  0  0  0  0
 17  1  1  0  0  0  0
 18 23  1  0  0  0  0
 19 24  1  0  0  0  0
 19 18  2  0  0  0  0
 20 19  1  0  0  0  0
 21 20  2  0  0  0  0
 21 22  1  0  0  0  0
 22 17  2  0  0  0  0
 25 20  1  0  0  0  0
 26 21  1  0  0  0  0
 27 28  1  0  0  0  0
 27 26  1  0  0  0  0
 28 26  1  0  0  0  0
M  END
>  <minimizedAffinity>
-5.06137609

$$$$

 OpenBabel03272505483D

 28 31  0  0  0  0  0  0  0  0999 V2000
   38.7450   23.2600   36.6350 C   0  0  0  0  0  0  0  0  0  0  0  0
   39.9130   22.6640   37.3200 C   0  0  0  0  0  0  0  0  0  0  0  0
   38.7470   23.1600   38.1300 C   0  0  0  0  0  0  0  0  0  0  0  0
   40.8240   23.2570   37.4600 H   0  0  0  0  0  0  0  0  0  0  0  0
   40.1150   21.5780   37.2760 H   0  0  0  0  0  0  0  0  0  0  0  0
   38.8420   24.1070   38.6980 H   0  0  0  0  0  0  0  0  0  0  0  0
   38.0240   22.4360   38.5700 H   0  0  0  0  0  0  0  0  0  0  0  0
   37.0180   21.4590   33.9050 C   0  0  0  0  0  0  0  0  0  0  0  0
   35.9360   20.8560   34.5750 C   0  0  0  0  0  0  0  0  0  0  0  0
   35.8060   21.0780   35.9670 C   0  0  0  0  0  0  0  0  0  0  0  0
   36.7240   21.8600   36.5970 N   0  0  0  0  0  0  0  0  0  0  0  0
   37.7630   22.4290   35.9080 C   0  0  0  0  0  0  0  0  0  0  0  0
   37.9070   22.2320   34.5840 N   0  0  0  0  0  0  0  0  0  0  0  0
   37.2330   21.3740   32.8670 H   0  0  0  0  0  0  0  0  0  0  0  0
   35.2710   20.2570   33.9800 H   0  0  0  0  0  0  0  0  0  0  0  0
   34.9790   20.6100   36.4460 H   0  0  0  0  0  0  0  0  0  0  0  0
   38.8910   24.6270   36.0290 C   0  0  0  0  0  0  0  0  0  0  0  0
   37.8860   25.5360   36.0940 C   0  0  0  0  0  0  0  0  0  0  0  0
   38.0280   26.8000   35.5480 C   0  0  0  0  0  0  0  0  0  0  0  0
   39.2350   27.1110   34.9250 C   0  0  0  0  0  0  0  0  0  0  0  0
   40.2670   26.1720   34.8560 C   0  0  0  0  0  0  0  0  0  0  0  0
   40.0550   24.9570   35.4150 N   0  0  0  0  0  0  0  0  0  0  0  0
   36.9020   25.4520   36.5100 H   0  0  0  0  0  0  0  0  0  0  0  0
   37.3290   27.5990   35.5300 H   0  0  0  0  0  0  0  0  0  0  0  0
   39.4290   28.0850   34.4660 H   0  0  0  0  0  0  0  0  0  0  0  0
   41.5380   26.5410   34.1830 C   0  0  0  0  0  3  0  0  0  0  0  0
   41.5140   27.5200   33.0500 C   0  0  0  0  0  2  0  0  0  0  0  0
   41.6960   26.0770   32.7000 C   0  0  0  0  0  2  0  0  0  0  0  0
  1  2  1  0  0  0  0
  1  3  1  0  0  0  0
  2  4  1  0  0  0  0
  2  3  1  0  0  0  0
  3  7  1  0  0  0  0
  3  6  1  0  0  0  0
  5  2  1  0  0  0  0
  8  9  2  0  0  0  0
  8 13  1  0  0  0  0
  9 10  1  0  0  0  0
 10 16  1  0  0  0  0
 10 11  2  0  0  0  0
 12 11  1  0  0  0  0
 12  1  1  0  0  0  0
 13 12  2  0  0  0  0
 14  8  1  0  0  0  0
 15  9  1  0  0  0  0
 17 18  1  0  0  0  0
 17  1  1  0  0  0  0
 18 23  1  0  0  0  0
 19 18  2  0  0  0  0
 20 19  1  0  0  0  0
 21 20  2  0  0  0  0
 21 22  1  0  0  0  0
 22 17  2  0  0  0  0
 24 19  1  0  0  0  0
 25 20  1  0  0  0  0
 26 21  1  0  0  0  0
 27 26  1  0  0  0  0
 28 27  1  0  0  0  0
 28 26  1  0  0  0  0
M  END
>  <minimizedAffinity>
-5.05508947

$$$$

 OpenBabel03272505483D

 28 31  0  0  0  0  0  0  0  0999 V2000
   38.5670   26.1940   34.8430 C   0  0  0  0  0  0  0  0  0  0  0  0
   39.7490   27.0780   34.9530 C   0  0  0  0  0  0  0  0  0  0  0  0
   38.6110   27.2310   35.9240 C   0  0  0  0  0  0  0  0  0  0  0  0
   39.8560   27.9300   34.2710 H   0  0  0  0  0  0  0  0  0  0  0  0
   40.7210   26.6990   35.3170 H   0  0  0  0  0  0  0  0  0  0  0  0
   37.9200   28.0930   35.8230 H   0  0  0  0  0  0  0  0  0  0  0  0
   38.7090   26.8460   36.9650 H   0  0  0  0  0  0  0  0  0  0  0  0
   37.7740   23.0370   36.5970 C   0  0  0  0  0  0  0  0  0  0  0  0
   38.6950   22.1340   36.0310 C   0  0  0  0  0  0  0  0  0  0  0  0
   39.5900   22.6210   35.0480 C   0  0  0  0  0  0  0  0  0  0  0  0
   39.5240   23.9340   34.6930 N   0  0  0  0  0  0  0  0  0  0  0  0
   38.6130   24.7800   35.2680 C   0  0  0  0  0  0  0  0  0  0  0  0
   37.7520   24.3380   36.2050 N   0  0  0  0  0  0  0  0  0  0  0  0
   37.0500   22.8020   37.3400 H   0  0  0  0  0  0  0  0  0  0  0  0
   38.6590   21.1190   36.3840 H   0  0  0  0  0  0  0  0  0  0  0  0
   40.2740   21.9180   34.6390 H   0  0  0  0  0  0  0  0  0  0  0  0
   37.6110   26.4140   33.7050 C   0  0  0  0  0  0  0  0  0  0  0  0
   37.1720   27.6570   33.3850 C   0  0  0  0  0  0  0  0  0  0  0  0
   36.3020   27.8600   32.3280 C   0  0  0  0  0  0  0  0  0  0  0  0
   35.8870   26.7450   31.6020 C   0  0  0  0  0  0  0  0  0  0  0  0
   36.3370   25.4650   31.9360 C   0  0  0  0  0  0  0  0  0  0  0  0
   37.1890   25.3470   32.9820 N   0  0  0  0  0  0  0  0  0  0  0  0
   37.3730   28.6030   33.8480 H   0  0  0  0  0  0  0  0  0  0  0  0
   35.8870   28.7690   31.9730 H   0  0  0  0  0  0  0  0  0  0  0  0
   35.2000   26.8150   30.7530 H   0  0  0  0  0  0  0  0  0  0  0  0
   35.8700   24.3020   31.1380 C   0  0  0  0  0  3  0  0  0  0  0  0
   35.8370   22.9440   31.7670 C   0  0  0  0  0  2  0  0  0  0  0  0
   36.9440   23.2200   30.8000 C   0  0  0  0  0  2  0  0  0  0  0  0
  1  2  1  0  0  0  0
  1 12  1  0  0  0  0
  1  3  1  0  0  0  0
  2  5  1  0  0  0  0
  2  3  1  0  0  0  0
  3  7  1  0  0  0  0
  4  2  1  0  0  0  0
  6  3  1  0  0  0  0
  8 14  1  0  0  0  0
  9 15  1  0  0  0  0
  9  8  2  0  0  0  0
 10  9  1  0  0  0  0
 11 10  2  0  0  0  0
 11 12  1  0  0  0  0
 12 13  2  0  0  0  0
 13  8  1  0  0  0  0
 16 10  1  0  0  0  0
 17  1  1  0  0  0  0
 18 17  1  0  0  0  0
 18 23  1  0  0  0  0
 19 18  2  0  0  0  0
 20 21  2  0  0  0  0
 20 19  1  0  0  0  0
 21 22  1  0  0  0  0
 22 17  2  0  0  0  0
 24 19  1  0  0  0  0
 25 20  1  0  0  0  0
 26 27  1  0  0  0  0
 26 21  1  0  0  0  0
 28 26  1  0  0  0  0
 28 27  1  0  0  0  0
M  END
>  <minimizedAffinity>
-5.01832676

$$$$

 OpenBabel03272505483D

 28 31  0  0  0  0  0  0  0  0999 V2000
   38.8420   25.2500   32.5120 C   0  0  0  0  0  0  0  0  0  0  0  0
   39.5730   26.1440   31.5870 C   0  0  0  0  0  0  0  0  0  0  0  0
   40.2280   24.8830   32.0770 C   0  0  0  0  0  0  0  0  0  0  0  0
   40.0440   27.0570   31.9700 H   0  0  0  0  0  0  0  0  0  0  0  0
   39.2900   26.2260   30.5220 H   0  0  0  0  0  0  0  0  0  0  0  0
   41.0290   24.9460   32.8420 H   0  0  0  0  0  0  0  0  0  0  0  0
   40.3100   23.9980   31.4060 H   0  0  0  0  0  0  0  0  0  0  0  0
   36.9590   22.2550   31.4360 C   0  0  0  0  0  0  0  0  0  0  0  0
   35.6700   22.7730   31.2040 C   0  0  0  0  0  0  0  0  0  0  0  0
   35.4580   24.1560   31.4160 C   0  0  0  0  0  0  0  0  0  0  0  0
   36.5010   24.9240   31.8320 N   0  0  0  0  0  0  0  0  0  0  0  0
   37.7410   24.3820   32.0470 C   0  0  0  0  0  0  0  0  0  0  0  0
   37.9660   23.0680   31.8510 N   0  0  0  0  0  0  0  0  0  0  0  0
   37.2520   21.2400   31.3170 H   0  0  0  0  0  0  0  0  0  0  0  0
   34.9190   22.0760   30.8770 H   0  0  0  0  0  0  0  0  0  0  0  0
   34.4750   24.5190   31.2320 H   0  0  0  0  0  0  0  0  0  0  0  0
   38.6540   25.6910   33.9360 C   0  0  0  0  0  0  0  0  0  0  0  0
   38.8470   26.9830   34.3040 C   0  0  0  0  0  0  0  0  0  0  0  0
   38.6590   27.3900   35.6130 C   0  0  0  0  0  0  0  0  0  0  0  0
   38.2670   26.4320   36.5450 C   0  0  0  0  0  0  0  0  0  0  0  0
   38.0710   25.1020   36.1650 C   0  0  0  0  0  0  0  0  0  0  0  0
   38.2730   24.7790   34.8650 N   0  0  0  0  0  0  0  0  0  0  0  0
   39.1660   27.8270   33.7260 H   0  0  0  0  0  0  0  0  0  0  0  0
   38.7730   28.3590   36.0310 H   0  0  0  0  0  0  0  0  0  0  0  0
   38.0980   26.6680   37.6000 H   0  0  0  0  0  0  0  0  0  0  0  0
   37.6540   24.1090   37.1890 C   0  0  0  0  0  3  0  0  0  0  0  0
   37.9990   24.3460   38.6260 C   0  0  0  0  0  2  0  0  0  0  0  0
   38.8010   23.3190   37.8930 C   0  0  0  0  0  2  0  0  0  0  0  0
  1 17  1  0  0  0  0
  2  4  1  0  0  0  0
  2  3  1  0  0  0  0
  2  1  1  0  0  0  0
  3  1  1  0  0  0  0
  3  6  1  0  0  0  0
  5  2  1  0  0  0  0
  7  3  1  0  0  0  0
  8 13  1  0  0  0  0
  9 10  1  0  0  0  0
  9  8  2  0  0  0  0
 10 11  2  0  0  0  0
 11 12  1  0  0  0  0
 12  1  1  0  0  0  0
 13 12  2  0  0  0  0
 14  8  1  0  0  0  0
 15  9  1  0  0  0  0
 16 10  1  0  0  0  0
 17 18  2  0  0  0  0
 17 22  1  0  0  0  0
 18 19  1  0  0  0  0
 19 24  1  0  0  0  0
 19 20  2  0  0  0  0
 20 25  1  0  0  0  0
 21 20  1  0  0  0  0
 21 26  1  0  0  0  0
 22 21  2  0  0  0  0
 23 18  1  0  0  0  0
 26 28  1  0  0  0  0
 26 27  1  0  0  0  0
 28 27  1  0  0  0  0
M  END
>  <minimizedAffinity>
-5.00618267

$$$$

 OpenBabel03272505483D

 28 31  0  0  0  0  0  0  0  0999 V2000
   39.0010   25.6900   34.7410 C   0  0  0  0  0  0  0  0  0  0  0  0
   40.2600   26.3630   34.3540 C   0  0  0  0  0  0  0  0  0  0  0  0
   39.1860   27.1420   35.0610 C   0  0  0  0  0  0  0  0  0  0  0  0
   40.4130   26.6770   33.3150 H   0  0  0  0  0  0  0  0  0  0  0  0
   41.2100   26.1560   34.8800 H   0  0  0  0  0  0  0  0  0  0  0  0
   38.5710   27.8660   34.4890 H   0  0  0  0  0  0  0  0  0  0  0  0
   39.2960   27.3930   36.1410 H   0  0  0  0  0  0  0  0  0  0  0  0
   39.8490   22.9480   37.0740 C   0  0  0  0  0  0  0  0  0  0  0  0
   38.8220   23.0370   38.0340 C   0  0  0  0  0  0  0  0  0  0  0  0
   37.8380   24.0410   37.8680 C   0  0  0  0  0  0  0  0  0  0  0  0
   37.9230   24.8740   36.7960 N   0  0  0  0  0  0  0  0  0  0  0  0
   38.9390   24.7550   35.8830 C   0  0  0  0  0  0  0  0  0  0  0  0
   39.8850   23.8070   36.0210 N   0  0  0  0  0  0  0  0  0  0  0  0
   40.6460   22.2450   37.0790 H   0  0  0  0  0  0  0  0  0  0  0  0
   38.8520   22.3280   38.8420 H   0  0  0  0  0  0  0  0  0  0  0  0
   37.0740   24.0830   38.6080 H   0  0  0  0  0  0  0  0  0  0  0  0
   38.0170   25.3350   33.6630 C   0  0  0  0  0  0  0  0  0  0  0  0
   37.2800   26.2890   33.0420 C   0  0  0  0  0  0  0  0  0  0  0  0
   36.3840   25.9620   32.0380 C   0  0  0  0  0  0  0  0  0  0  0  0
   36.2600   24.6190   31.6860 C   0  0  0  0  0  0  0  0  0  0  0  0
   37.0180   23.6380   32.3300 C   0  0  0  0  0  0  0  0  0  0  0  0
   37.8750   24.0350   33.3010 N   0  0  0  0  0  0  0  0  0  0  0  0
   37.2380   27.3470   33.2050 H   0  0  0  0  0  0  0  0  0  0  0  0
   35.7530   26.6020   31.4750 H   0  0  0  0  0  0  0  0  0  0  0  0
   35.5760   24.2730   30.9060 H   0  0  0  0  0  0  0  0  0  0  0  0
   36.8560   22.2170   31.9270 C   0  0  0  0  0  3  0  0  0  0  0  0
   35.6080   21.7900   31.2190 C   0  0  0  0  0  2  0  0  0  0  0  0
   35.7370   21.4130   32.6610 C   0  0  0  0  0  2  0  0  0  0  0  0
  1  3  1  0  0  0  0
  1 12  1  0  0  0  0
  2  1  1  0  0  0  0
  2  5  1  0  0  0  0
  2  3  1  0  0  0  0
  3  7  1  0  0  0  0
  4  2  1  0  0  0  0
  6  3  1  0  0  0  0
  8 14  1  0  0  0  0
  8  9  1  0  0  0  0
  9 15  1  0  0  0  0
 10  9  2  0  0  0  0
 10 16  1  0  0  0  0
 11 10  1  0  0  0  0
 12 13  1  0  0  0  0
 12 11  2  0  0  0  0
 13  8  2  0  0  0  0
 17  1  1  0  0  0  0
 18 23  1  0  0  0  0
 18 17  2  0  0  0  0
 19 18  1  0  0  0  0
 20 19  2  0  0  0  0
 20 21  1  0  0  0  0
 21 22  2  0  0  0  0
 22 17  1  0  0  0  0
 24 19  1  0  0  0  0
 25 20  1  0  0  0  0
 26 21  1  0  0  0  0
 26 28  1  0  0  0  0
 27 26  1  0  0  0  0
 27 28  1  0  0  0  0
M  END
>  <minimizedAffinity>
-4.9847455

$$$$

 OpenBabel03272505483D

 28 31  0  0  0  0  0  0  0  0999 V2000
   39.0380   22.9860   36.1610 C   0  0  0  0  0  0  0  0  0  0  0  0
   39.5640   22.5620   37.4780 C   0  0  0  0  0  0  0  0  0  0  0  0
   40.3640   22.2910   36.2330 C   0  0  0  0  0  0  0  0  0  0  0  0
   39.1760   21.6530   37.9520 H   0  0  0  0  0  0  0  0  0  0  0  0
   39.9420   23.2960   38.2110 H   0  0  0  0  0  0  0  0  0  0  0  0
   40.4130   21.2580   35.8310 H   0  0  0  0  0  0  0  0  0  0  0  0
   41.2550   22.9150   35.9940 H   0  0  0  0  0  0  0  0  0  0  0  0
   38.0470   26.5260   35.7590 C   0  0  0  0  0  0  0  0  0  0  0  0
   39.0910   27.0470   34.9700 C   0  0  0  0  0  0  0  0  0  0  0  0
   40.1310   26.1710   34.5770 C   0  0  0  0  0  0  0  0  0  0  0  0
   40.0800   24.8700   34.9740 N   0  0  0  0  0  0  0  0  0  0  0  0
   39.0460   24.4020   35.7410 C   0  0  0  0  0  0  0  0  0  0  0  0
   38.0460   25.2180   36.1270 N   0  0  0  0  0  0  0  0  0  0  0  0
   37.2090   27.0720   36.1220 H   0  0  0  0  0  0  0  0  0  0  0  0
   39.0320   28.0900   34.7150 H   0  0  0  0  0  0  0  0  0  0  0  0
   40.9060   26.5920   33.9820 H   0  0  0  0  0  0  0  0  0  0  0  0
   37.8840   22.2260   35.5720 C   0  0  0  0  0  0  0  0  0  0  0  0
   36.9270   21.6770   36.3610 C   0  0  0  0  0  0  0  0  0  0  0  0
   35.8570   20.9890   35.8150 C   0  0  0  0  0  0  0  0  0  0  0  0
   35.7930   20.8740   34.4280 C   0  0  0  0  0  0  0  0  0  0  0  0
   36.7820   21.4370   33.6180 C   0  0  0  0  0  0  0  0  0  0  0  0
   37.7970   22.0980   34.2240 N   0  0  0  0  0  0  0  0  0  0  0  0
   36.8390   21.6540   37.4290 H   0  0  0  0  0  0  0  0  0  0  0  0
   35.0460   20.5170   36.3120 H   0  0  0  0  0  0  0  0  0  0  0  0
   34.9840   20.3460   33.9150 H   0  0  0  0  0  0  0  0  0  0  0  0
   36.6790   21.2930   32.1430 C   0  0  0  0  0  3  0  0  0  0  0  0
   37.2430   22.3600   31.2580 C   0  0  0  0  0  2  0  0  0  0  0  0
   35.7560   22.3170   31.4100 C   0  0  0  0  0  2  0  0  0  0  0  0
  1  3  1  0  0  0  0
  1  2  1  0  0  0  0
  2  4  1  0  0  0  0
  2  5  1  0  0  0  0
  3  2  1  0  0  0  0
  6  3  1  0  0  0  0
  7  3  1  0  0  0  0
  8 14  1  0  0  0  0
  8 13  1  0  0  0  0
  9  8  2  0  0  0  0
 10  9  1  0  0  0  0
 10 11  2  0  0  0  0
 11 12  1  0  0  0  0
 12 13  2  0  0  0  0
 12  1  1  0  0  0  0
 15  9  1  0  0  0  0
 16 10  1  0  0  0  0
 17  1  1  0  0  0  0
 17 18  1  0  0  0  0
 18 23  1  0  0  0  0
 19 24  1  0  0  0  0
 19 18  2  0  0  0  0
 20 19  1  0  0  0  0
 21 22  1  0  0  0  0
 21 20  2  0  0  0  0
 22 17  2  0  0  0  0
 25 20  1  0  0  0  0
 26 21  1  0  0  0  0
 27 28  1  0  0  0  0
 27 26  1  0  0  0  0
 28 26  1  0  0  0  0
M  END
>  <minimizedAffinity>
-4.82671642

$$$$

 OpenBabel03272505483D

 28 31  0  0  0  0  0  0  0  0999 V2000
   38.4960   23.1670   34.4350 C   0  0  0  0  0  0  0  0  0  0  0  0
   39.6350   23.4100   33.5230 C   0  0  0  0  0  0  0  0  0  0  0  0
   38.5390   24.4330   33.6360 C   0  0  0  0  0  0  0  0  0  0  0  0
   39.6670   22.9130   32.5470 H   0  0  0  0  0  0  0  0  0  0  0  0
   40.6410   23.6540   33.9100 H   0  0  0  0  0  0  0  0  0  0  0  0
   37.8010   24.5350   32.8140 H   0  0  0  0  0  0  0  0  0  0  0  0
   38.7050   25.3700   34.2160 H   0  0  0  0  0  0  0  0  0  0  0  0
   37.8460   24.1430   37.9420 C   0  0  0  0  0  0  0  0  0  0  0  0
   38.8880   23.4990   38.6370 C   0  0  0  0  0  0  0  0  0  0  0  0
   39.8150   22.7330   37.8880 C   0  0  0  0  0  0  0  0  0  0  0  0
   39.6610   22.6510   36.5390 N   0  0  0  0  0  0  0  0  0  0  0  0
   38.6330   23.2940   35.9010 C   0  0  0  0  0  0  0  0  0  0  0  0
   37.7400   24.0280   36.5920 N   0  0  0  0  0  0  0  0  0  0  0  0
   37.0860   24.7450   38.3800 H   0  0  0  0  0  0  0  0  0  0  0  0
   38.9140   23.6300   39.7030 H   0  0  0  0  0  0  0  0  0  0  0  0
   40.5920   22.2580   38.4390 H   0  0  0  0  0  0  0  0  0  0  0  0
   37.4760   22.1330   34.0480 C   0  0  0  0  0  0  0  0  0  0  0  0
   36.7180   21.5090   34.9830 C   0  0  0  0  0  0  0  0  0  0  0  0
   35.7680   20.5680   34.6240 C   0  0  0  0  0  0  0  0  0  0  0  0
   35.6170   20.2780   33.2690 C   0  0  0  0  0  0  0  0  0  0  0  0
   36.4020   20.9200   32.3080 C   0  0  0  0  0  0  0  0  0  0  0  0
   37.3080   21.8310   32.7370 N   0  0  0  0  0  0  0  0  0  0  0  0
   36.7230   21.5970   36.0520 H   0  0  0  0  0  0  0  0  0  0  0  0
   35.1140   20.0110   35.2470 H   0  0  0  0  0  0  0  0  0  0  0  0
   34.8920   19.5460   32.8990 H   0  0  0  0  0  0  0  0  0  0  0  0
   36.2110   20.5830   30.8740 C   0  0  0  0  0  3  0  0  0  0  0  0
   36.2900   19.1530   30.4380 C   0  0  0  0  0  2  0  0  0  0  0  0
   37.4610   20.0270   30.1220 C   0  0  0  0  0  2  0  0  0  0  0  0
  1 12  1  0  0  0  0
  2  3  1  0  0  0  0
  2  5  1  0  0  0  0
  2  1  1  0  0  0  0
  3  7  1  0  0  0  0
  3  1  1  0  0  0  0
  4  2  1  0  0  0  0
  6  3  1  0  0  0  0
  8 14  1  0  0  0  0
  8  9  1  0  0  0  0
  9 15  1  0  0  0  0
 10 16  1  0  0  0  0
 10  9  2  0  0  0  0
 11 10  1  0  0  0  0
 12 11  2  0  0  0  0
 12 13  1  0  0  0  0
 13  8  2  0  0  0  0
 17  1  1  0  0  0  0
 17 18  1  0  0  0  0
 18 23  1  0  0  0  0
 19 18  2  0  0  0  0
 19 24  1  0  0  0  0
 20 19  1  0  0  0  0
 21 22  1  0  0  0  0
 21 20  2  0  0  0  0
 22 17  2  0  0  0  0
 25 20  1  0  0  0  0
 26 21  1  0  0  0  0
 27 26  1  0  0  0  0
 28 27  1  0  0  0  0
 28 26  1  0  0  0  0
M  END
>  <minimizedAffinity>
-4.80126524

$$$$

 OpenBabel03272505483D

 28 31  0  0  0  0  0  0  0  0999 V2000
   38.2090   26.7190   34.2240 C   0  0  0  0  0  0  0  0  0  0  0  0
   36.9550   27.4700   33.9910 C   0  0  0  0  0  0  0  0  0  0  0  0
   37.7690   27.7430   35.2260 C   0  0  0  0  0  0  0  0  0  0  0  0
   35.9900   26.9970   34.2020 H   0  0  0  0  0  0  0  0  0  0  0  0
   36.8860   28.2470   33.2090 H   0  0  0  0  0  0  0  0  0  0  0  0
   37.4140   27.3670   36.2070 H   0  0  0  0  0  0  0  0  0  0  0  0
   38.3960   28.6620   35.2900 H   0  0  0  0  0  0  0  0  0  0  0  0
   41.7670   27.3270   33.4210 C   0  0  0  0  0  0  0  0  0  0  0  0
   41.7350   27.5290   32.0270 C   0  0  0  0  0  0  0  0  0  0  0  0
   40.4820   27.4590   31.3720 C   0  0  0  0  0  0  0  0  0  0  0  0
   39.3680   27.2010   32.1090 N   0  0  0  0  0  0  0  0  0  0  0  0
   39.4420   27.0100   33.4650 C   0  0  0  0  0  0  0  0  0  0  0  0
   40.6230   27.0730   34.1090 N   0  0  0  0  0  0  0  0  0  0  0  0
   42.6360   27.3510   34.0330 H   0  0  0  0  0  0  0  0  0  0  0  0
   42.6750   27.7250   31.5440 H   0  0  0  0  0  0  0  0  0  0  0  0
   40.4880   27.6170   30.3200 H   0  0  0  0  0  0  0  0  0  0  0  0
   38.1140   25.2730   34.6200 C   0  0  0  0  0  0  0  0  0  0  0  0
   38.1840   24.2840   33.6940 C   0  0  0  0  0  0  0  0  0  0  0  0
   38.1120   22.9510   34.0620 C   0  0  0  0  0  0  0  0  0  0  0  0
   37.9620   22.6560   35.4160 C   0  0  0  0  0  0  0  0  0  0  0  0
   37.8870   23.6760   36.3670 C   0  0  0  0  0  0  0  0  0  0  0  0
   37.9670   24.9550   35.9310 N   0  0  0  0  0  0  0  0  0  0  0  0
   38.2740   24.3390   32.6280 H   0  0  0  0  0  0  0  0  0  0  0  0
   38.1530   22.0880   33.4470 H   0  0  0  0  0  0  0  0  0  0  0  0
   37.8940   21.6300   35.7920 H   0  0  0  0  0  0  0  0  0  0  0  0
   37.7260   23.3190   37.8000 C   0  0  0  0  0  3  0  0  0  0  0  0
   37.9570   24.3630   38.8480 C   0  0  0  0  0  2  0  0  0  0  0  0
   39.0250   23.3320   38.6660 C   0  0  0  0  0  2  0  0  0  0  0  0
  1 17  1  0  0  0  0
  1  3  1  0  0  0  0
  2  4  1  0  0  0  0
  2  1  1  0  0  0  0
  2  3  1  0  0  0  0
  3  7  1  0  0  0  0
  3  6  1  0  0  0  0
  5  2  1  0  0  0  0
  8 14  1  0  0  0  0
  8 13  1  0  0  0  0
  9  8  2  0  0  0  0
 10  9  1  0  0  0  0
 10 11  2  0  0  0  0
 11 12  1  0  0  0  0
 12 13  2  0  0  0  0
 12  1  1  0  0  0  0
 15  9  1  0  0  0  0
 16 10  1  0  0  0  0
 17 22  1  0  0  0  0
 18 19  1  0  0  0  0
 18 17  2  0  0  0  0
 19 20  2  0  0  0  0
 20 25  1  0  0  0  0
 20 21  1  0  0  0  0
 21 26  1  0  0  0  0
 22 21  2  0  0  0  0
 23 18  1  0  0  0  0
 24 19  1  0  0  0  0
 26 28  1  0  0  0  0
 26 27  1  0  0  0  0
 28 27  1  0  0  0  0
M  END
>  <minimizedAffinity>
-4.7836504

$$$$
