
 OpenBabel03272510343D

 22 24  0  0  0  0  0  0  0  0999 V2000
   36.1550   30.4830   48.5640 C   0  0  0  0  0  0  0  0  0  0  0  0
   35.3110   30.1000   47.5400 C   0  0  0  0  0  0  0  0  0  0  0  0
   34.2210   29.2990   47.7850 C   0  0  0  0  0  0  0  0  0  0  0  0
   33.9840   28.8840   49.0690 C   0  0  0  0  0  0  0  0  0  0  0  0
   34.8120   29.2500   50.1200 C   0  0  0  0  0  0  0  0  0  0  0  0
   35.9210   30.0640   49.8780 C   0  0  0  0  0  0  0  0  0  0  0  0
   35.5220   30.4440   46.5230 H   0  0  0  0  0  0  0  0  0  0  0  0
   33.6030   29.0400   46.9320 H   0  0  0  0  0  0  0  0  0  0  0  0
   33.1220   28.2560   49.2410 H   0  0  0  0  0  0  0  0  0  0  0  0
   34.6340   28.9280   51.1430 H   0  0  0  0  0  0  0  0  0  0  0  0
   38.4890   33.2780   48.6900 C   0  0  0  0  0  0  0  0  0  0  0  0
   39.4000   33.0190   47.6690 C   0  0  0  0  0  0  0  0  0  0  0  0
   39.1980   31.8350   46.9110 C   0  0  0  0  0  0  0  0  0  0  0  0
   38.1430   31.0430   47.2270 N   0  0  0  0  0  0  0  0  0  0  0  0
   37.2970   31.3390   48.2200 C   0  0  0  0  0  0  0  0  0  0  0  0
   37.4780   32.4540   48.9440 N   0  0  0  0  0  0  0  0  0  0  0  0
   38.7120   34.1870   49.2130 H   0  0  0  0  0  0  0  0  0  0  0  0
   40.2560   33.5740   47.3420 H   0  0  0  0  0  0  0  0  0  0  0  0
   39.7940   31.4700   46.0860 H   0  0  0  0  0  0  0  0  0  0  0  0
   36.8670   30.5110   50.9320 C   0  0  0  0  0  3  0  0  0  0  0  0
   37.1130   29.5930   52.1120 C   0  0  0  0  0  2  0  0  0  0  0  0
   38.1800   29.8510   51.0920 C   0  0  0  0  0  2  0  0  0  0  0  0
  1  6  1  0  0  0  0
  2  3  1  0  0  0  0
  2  1  2  0  0  0  0
  3  4  2  0  0  0  0
  4  9  1  0  0  0  0
  4  5  1  0  0  0  0
  5 10  1  0  0  0  0
  6  5  2  0  0  0  0
  6 20  1  0  0  0  0
  7  2  1  0  0  0  0
  8  3  1  0  0  0  0
 11 16  1  0  0  0  0
 11 17  1  0  0  0  0
 12 11  2  0  0  0  0
 13 14  2  0  0  0  0
 13 12  1  0  0  0  0
 14 15  1  0  0  0  0
 15  1  1  0  0  0  0
 15 16  2  0  0  0  0
 18 12  1  0  0  0  0
 19 13  1  0  0  0  0
 20 22  1  0  0  0  0
 20 21  1  0  0  0  0
 22 21  1  0  0  0  0
M  END
>  <minimizedAffinity>
-5.28644657

>  <minimizedRMSD>
0.787710726

$$$$
