
 OpenBabel03272509473D

 19 20  0  0  0  0  0  0  0  0999 V2000
   34.8490   28.2980   49.6740 O   0  0  0  0  0  0  0  0  0  0  0  0
   37.3540   30.2470   51.4130 C   0  0  0  0  0  0  0  0  0  0  0  0
   38.0830   30.7190   50.3260 C   0  0  0  0  0  0  0  0  0  0  0  0
   37.6850   30.3510   49.0430 C   0  0  0  0  0  0  0  0  0  0  0  0
   36.5840   29.5340   48.9580 N   0  0  0  0  0  0  0  0  0  0  0  0
   35.9050   29.0960   50.0190 C   0  0  0  0  0  0  0  0  0  0  0  0
   36.2930   29.4560   51.2630 N   0  0  0  0  0  0  0  0  0  0  0  0
   37.6090   30.4960   52.4450 H   0  0  0  0  0  0  0  0  0  0  0  0
   38.9400   31.3620   50.5040 H   0  0  0  0  0  0  0  0  0  0  0  0
   38.2280   30.6990   48.1800 H   0  0  0  0  0  0  0  0  0  0  0  0
   34.3430   28.3910   48.3460 C   0  0  0  0  0  0  0  0  0  0  0  0
   33.8260   29.3540   48.1880 H   0  0  0  0  0  0  0  0  0  0  0  0
   35.1720   28.3640   47.6080 H   0  0  0  0  0  0  0  0  0  0  0  0
   33.4210   27.2320   48.0740 C   0  0  0  0  0  0  0  0  0  0  0  0
   33.5820   26.4320   48.7960 H   0  0  0  0  0  0  0  0  0  0  0  0
   32.3810   27.5890   48.0180 H   0  0  0  0  0  0  0  0  0  0  0  0
   33.8150   26.6900   46.6990 C   0  0  0  0  0  3  0  0  0  0  0  0
   34.1060   25.2460   46.5570 C   0  0  0  0  0  2  0  0  0  0  0  0
   32.8130   25.7690   46.0190 C   0  0  0  0  0  2  0  0  0  0  0  0
  1  6  1  0  0  0  0
  2  8  1  0  0  0  0
  3  9  1  0  0  0  0
  3  2  2  0  0  0  0
  4  3  1  0  0  0  0
  5  4  2  0  0  0  0
  5  6  1  0  0  0  0
  6  7  2  0  0  0  0
  7  2  1  0  0  0  0
 10  4  1  0  0  0  0
 11  1  1  0  0  0  0
 12 11  1  0  0  0  0
 13 11  1  0  0  0  0
 14 11  1  0  0  0  0
 14 15  1  0  0  0  0
 16 14  1  0  0  0  0
 17 14  1  0  0  0  0
 18 17  1  0  0  0  0
 19 18  1  0  0  0  0
 19 17  1  0  0  0  0
M  END
>  <minimizedAffinity>
-3.61633754

>  <minimizedRMSD>
0.855503917

$$$$
