REMARK  Name = 
REMARK  4 active torsions:
REMARK  status: ('A' for Active; 'I' for Inactive)
REMARK    1  A    between atoms: C_2  and  C_12
REMARK    2  A    between atoms: C_6  and  O_16
REMARK    3  A    between atoms: O_16  and  C_18
REMARK    4  A    between atoms: C_22  and  C_37
REMARK                            x       y       z     vdW  Elec       q    Type
REMARK                         _______ _______ _______ _____ _____    ______ ____
ROOT
ATOM      1  C   UNL     1      36.236  30.182  46.857  0.00  0.00    +0.000 A 
ATOM      2  C   UNL     1      37.081  30.752  47.807  0.00  0.00    +0.000 A 
ATOM      3  C   UNL     1      38.065  31.666  47.438  0.00  0.00    +0.000 A 
ATOM      4  C   UNL     1      38.155  31.975  46.084  0.00  0.00    +0.000 A 
ATOM      5  N   UNL     1      39.024  32.834  45.477  0.00  0.00    +0.000 N 
ATOM      6  C   UNL     1      38.733  32.808  44.167  0.00  0.00    +0.000 A 
ATOM      7  N   UNL     1      37.733  31.976  43.950  0.00  0.00    +0.000 NA
ATOM      8  C   UNL     1      37.339  31.434  45.114  0.00  0.00    +0.000 A 
ATOM      9  C   UNL     1      36.359  30.517  45.519  0.00  0.00    +0.000 A 
ATOM     10  H   UNL     1      35.467  29.475  47.097  0.00  0.00    +0.000 HD
ATOM     11  H   UNL     1      38.709  32.098  48.176  0.00  0.00    +0.000 HD
ATOM     12  H   UNL     1      39.755  33.388  45.945  0.00  0.00    +0.000 HD
ATOM     13  H   UNL     1      35.716  30.088  44.762  0.00  0.00    +0.000 HD
ENDROOT
BRANCH   2  16
ATOM     14  C   UNL     1      37.513  30.148  51.490  0.00  0.00    +0.000 A 
ATOM     15  C   UNL     1      37.810  30.579  50.207  0.00  0.00    +0.000 A 
ATOM     16  C   UNL     1      36.893  30.354  49.186  0.00  0.00    +0.000 A 
ATOM     17  N   UNL     1      35.736  29.710  49.519  0.00  0.00    +0.000 NA
ATOM     18  C   UNL     1      35.456  29.295  50.768  0.00  0.00    +0.000 A 
ATOM     19  N   UNL     1      36.325  29.510  51.730  0.00  0.00    +0.000 NA
ATOM     20  H   UNL     1      38.218  30.318  52.294  0.00  0.00    +0.000 HD
ATOM     21  H   UNL     1      38.733  31.091  49.952  0.00  0.00    +0.000 HD
ATOM     22  H   UNL     1      34.512  28.782  50.980  0.00  0.00    +0.000 HD
ENDBRANCH   2  16
BRANCH   6  23
ATOM     23  O   UNL     1      39.431  33.577  43.235  0.00  0.00    +0.000 OA
BRANCH  23  25
ATOM     24  N   UNL     1      39.578  31.864  41.712  0.00  0.00    +0.000 NA
ATOM     25  C   UNL     1      39.201  33.243  41.875  0.00  0.00    +0.000 C 
ATOM     26  C   UNL     1      37.804  33.444  41.514  0.00  0.00    +0.000 C 
ATOM     27  O   UNL     1      37.644  33.129  40.154  0.00  0.00    +0.000 OA
ATOM     28  C   UNL     1      38.065  31.884  39.788  0.00  0.00    +0.000 C 
ATOM     29  C   UNL     1      39.445  31.556  40.318  0.00  0.00    +0.000 C 
ATOM     30  H   UNL     1      39.304  31.177  42.369  0.00  0.00    +0.000 HD
ATOM     31  H   UNL     1      39.859  33.856  41.240  0.00  0.00    +0.000 HD
ATOM     32  H   UNL     1      36.980  32.968  41.975  0.00  0.00    +0.000 HD
ATOM     33  H   UNL     1      37.597  34.556  41.549  0.00  0.00    +0.000 HD
ATOM     34  H   UNL     1      38.160  31.876  38.687  0.00  0.00    +0.000 HD
ATOM     35  H   UNL     1      37.330  31.128  40.164  0.00  0.00    +0.000 HD
ATOM     36  H   UNL     1      39.604  30.473  40.189  0.00  0.00    +0.000 HD
BRANCH  29  37
ATOM     37  C   UNL     1      40.473  32.279  39.481  0.00  0.00    +0.000 C 
ATOM     38  C   UNL     1      40.038  32.945  38.216  0.00  0.00    +0.000 C 
ATOM     39  C   UNL     1      40.361  33.790  39.395  0.00  0.00    +0.000 C 
ENDBRANCH  29  37
ENDBRANCH  23  25
ENDBRANCH   6  23
TORSDOF 4
