
 OpenBabel03272509543D

 37 40  0  0  0  0  0  0  0  0999 V2000
   37.0860   30.0180   51.2920 C   0  0  0  0  0  0  0  0  0  0  0  0
   37.9050   30.7770   50.4210 C   0  0  0  0  0  0  0  0  0  0  0  0
   37.6760   30.6920   49.0680 C   0  0  0  0  0  0  0  0  0  0  0  0
   36.6570   29.8650   48.6840 N   0  0  0  0  0  0  0  0  0  0  0  0
   35.8870   29.1530   49.5050 C   0  0  0  0  0  0  0  0  0  0  0  0
   36.1180   29.2420   50.8210 N   0  0  0  0  0  0  0  0  0  0  0  0
   37.3140   30.1260   52.3300 H   0  0  0  0  0  0  0  0  0  0  0  0
   38.7050   31.4260   50.7140 H   0  0  0  0  0  0  0  0  0  0  0  0
   38.7820   33.3600   49.1690 F   0  0  0  0  0  0  0  0  0  0  0  0
   38.9320   32.6380   48.0710 C   0  0  0  0  0  0  0  0  0  0  0  0
   38.4080   31.3910   48.0400 C   0  0  0  0  0  0  0  0  0  0  0  0
   38.6260   30.7220   46.8350 C   0  0  0  0  0  0  0  0  0  0  0  0
   39.3100   31.2870   45.7840 C   0  0  0  0  0  0  0  0  0  0  0  0
   39.8210   32.5570   45.8680 C   0  0  0  0  0  0  0  0  0  0  0  0
   39.6240   33.2410   47.0380 C   0  0  0  0  0  0  0  0  0  0  0  0
   38.2690   29.7140   46.6520 H   0  0  0  0  0  0  0  0  0  0  0  0
   39.4760   30.7610   44.8480 H   0  0  0  0  0  0  0  0  0  0  0  0
   40.3600   33.0150   45.0540 H   0  0  0  0  0  0  0  0  0  0  0  0
   40.0180   34.2320   47.1180 H   0  0  0  0  0  0  0  0  0  0  0  0
   34.9450   28.4120   48.8570 O   0  0  0  0  0  0  0  0  0  0  0  0
   34.0230   29.0720   47.9980 C   0  0  0  0  0  0  0  0  0  0  0  0
   33.3360   29.6800   48.6420 H   0  0  0  0  0  0  0  0  0  0  0  0
   34.5340   29.7860   47.3240 H   0  0  0  0  0  0  0  0  0  0  0  0
   33.1610   28.0670   47.2980 C   0  0  0  0  0  0  0  0  0  0  0  0
   33.2020   28.3270   46.2030 H   0  0  0  0  0  0  0  0  0  0  0  0
   33.5480   27.0290   47.3520 H   0  0  0  0  0  0  0  0  0  0  0  0
   31.7560   28.0980   47.7530 C   0  0  0  0  0  0  0  0  0  0  0  0
   31.4680   27.6350   49.0220 C   0  0  0  0  0  0  0  0  0  0  0  0
   30.2040   27.6200   49.5420 C   0  0  0  0  0  0  0  0  0  0  0  0
   29.2050   28.0700   48.7920 N   0  0  0  0  0  0  0  0  0  0  0  0
   29.4760   28.5310   47.5330 C   0  0  0  0  0  0  0  0  0  0  0  0
   30.7200   28.5520   47.0080 N   0  0  0  0  0  0  0  0  0  0  0  0
   32.2790   27.2660   49.6420 H   0  0  0  0  0  0  0  0  0  0  0  0
   29.9980   27.2490   50.5500 H   0  0  0  0  0  0  0  0  0  0  0  0
   28.3310   29.0360   46.7010 C   0  0  0  0  0  0  0  0  0  0  0  0
   26.9800   28.4670   46.9050 C   0  0  0  0  0  0  0  0  0  0  0  0
   27.2770   29.8920   47.3340 C   0  0  0  0  0  0  0  0  0  0  0  0
  1  7  1  0  0  0  0
  2  8  1  0  0  0  0
  2  1  2  0  0  0  0
  3  2  1  0  0  0  0
  4  3  2  0  0  0  0
  4  5  1  0  0  0  0
  5  6  2  0  0  0  0
  6  1  1  0  0  0  0
 10  9  1  0  0  0  0
 11 10  1  0  0  0  0
 11  3  1  0  0  0  0
 12 11  2  0  0  0  0
 13 14  2  0  0  0  0
 13 12  1  0  0  0  0
 14 15  1  0  0  0  0
 15 19  1  0  0  0  0
 15 10  2  0  0  0  0
 16 12  1  0  0  0  0
 17 13  1  0  0  0  0
 18 14  1  0  0  0  0
 20  5  1  0  0  0  0
 21 22  1  0  0  0  0
 21 20  1  0  0  0  0
 23 21  1  0  0  0  0
 24 26  1  0  0  0  0
 24 27  1  0  0  0  0
 24 21  1  0  0  0  0
 25 24  1  0  0  0  0
 27 28  1  0  0  0  0
 28 29  2  0  0  0  0
 28 33  1  0  0  0  0
 29 34  1  0  0  0  0
 30 29  1  0  0  0  0
 31 30  2  0  0  0  0
 32 31  1  0  0  0  0
 32 27  2  0  0  0  0
 35 36  1  0  0  0  0
 35 37  1  0  0  0  0
 35 31  1  0  0  0  0
 36 37  1  0  0  0  0
M  END
>  <minimizedAffinity>
-6.47282457

>  <minimizedRMSD>
0.884259939

$$$$
