
 OpenBabel03272509473D

 19 20  0  0  0  0  0  0  0  0999 V2000
   34.7780   28.2560   49.8580 O   0  0  0  0  0  0  0  0  0  0  0  0
   37.3720   30.2660   51.3850 C   0  0  0  0  0  0  0  0  0  0  0  0
   38.0450   30.6910   50.2430 C   0  0  0  0  0  0  0  0  0  0  0  0
   37.5810   30.2710   48.9990 C   0  0  0  0  0  0  0  0  0  0  0  0
   36.4750   29.4550   49.0040 N   0  0  0  0  0  0  0  0  0  0  0  0
   35.8510   29.0640   50.1160 C   0  0  0  0  0  0  0  0  0  0  0  0
   36.3030   29.4730   51.3220 N   0  0  0  0  0  0  0  0  0  0  0  0
   37.6790   30.5560   52.3920 H   0  0  0  0  0  0  0  0  0  0  0  0
   38.9100   31.3370   50.3510 H   0  0  0  0  0  0  0  0  0  0  0  0
   38.0790   30.5820   48.0960 H   0  0  0  0  0  0  0  0  0  0  0  0
   34.0110   28.5130   48.6860 C   0  0  0  0  0  0  0  0  0  0  0  0
   33.0470   28.9850   48.9420 H   0  0  0  0  0  0  0  0  0  0  0  0
   34.5370   29.2290   48.0230 H   0  0  0  0  0  0  0  0  0  0  0  0
   33.7980   27.2270   47.9300 C   0  0  0  0  0  0  0  0  0  0  0  0
   34.7470   26.7230   47.7500 H   0  0  0  0  0  0  0  0  0  0  0  0
   33.0490   26.6100   48.4490 H   0  0  0  0  0  0  0  0  0  0  0  0
   33.2280   27.6250   46.5680 C   0  0  0  0  0  3  0  0  0  0  0  0
   34.0580   28.4420   45.6550 C   0  0  0  0  0  2  0  0  0  0  0  0
   33.8750   26.9910   45.3460 C   0  0  0  0  0  2  0  0  0  0  0  0
  1  6  1  0  0  0  0
  2  8  1  0  0  0  0
  3  9  1  0  0  0  0
  3  2  2  0  0  0  0
  4  5  2  0  0  0  0
  4  3  1  0  0  0  0
  5  6  1  0  0  0  0
  6  7  2  0  0  0  0
  7  2  1  0  0  0  0
 10  4  1  0  0  0  0
 11 12  1  0  0  0  0
 11  1  1  0  0  0  0
 13 11  1  0  0  0  0
 14 16  1  0  0  0  0
 14 11  1  0  0  0  0
 15 14  1  0  0  0  0
 17 14  1  0  0  0  0
 18 17  1  0  0  0  0
 19 18  1  0  0  0  0
 19 17  1  0  0  0  0
M  END
>  <minimizedAffinity>
-3.60742712

>  <minimizedRMSD>
0.28628096

$$$$
