
 OpenBabel03272506563D

 14 15  0  0  0  0  0  0  0  0999 V2000
   36.5030   29.6440   51.1000 C   0  0  0  0  0  0  0  0  0  0  0  0
   37.4090   30.1540   50.1590 C   0  0  0  0  0  0  0  0  0  0  0  0
   37.0320   30.0570   48.7960 C   0  0  0  0  0  0  0  0  0  0  0  0
   35.8370   29.4870   48.4800 N   0  0  0  0  0  0  0  0  0  0  0  0
   35.0170   29.0190   49.4310 C   0  0  0  0  0  0  0  0  0  0  0  0
   35.3130   29.0780   50.7460 N   0  0  0  0  0  0  0  0  0  0  0  0
   36.8350   29.7400   52.1260 H   0  0  0  0  0  0  0  0  0  0  0  0
   37.6880   30.4310   48.0390 H   0  0  0  0  0  0  0  0  0  0  0  0
   38.6380   30.7360   50.5550 N   0  0  0  0  0  0  0  0  0  0  0  0
   39.0620   31.6060   50.1880 H   0  0  0  0  0  0  0  0  0  0  0  0
   39.1680   30.2200   51.3050 H   0  0  0  0  0  0  0  0  0  0  0  0
   33.7140   28.3970   49.0750 C   0  0  0  0  0  3  0  0  0  0  0  0
   33.8330   27.1550   48.1700 C   0  0  0  0  0  2  0  0  0  0  0  0
   33.2090   28.4690   47.6830 C   0  0  0  0  0  2  0  0  0  0  0  0
  1  7  1  0  0  0  0
  2  9  1  0  0  0  0
  2  1  2  0  0  0  0
  3  2  1  0  0  0  0
  4  3  2  0  0  0  0
  4  5  1  0  0  0  0
  5  6  2  0  0  0  0
  6  1  1  0  0  0  0
  8  3  1  0  0  0  0
  9 11  1  0  0  0  0
 10  9  1  0  0  0  0
 12  5  1  0  0  0  0
 13 12  1  0  0  0  0
 14 13  1  0  0  0  0
 14 12  1  0  0  0  0
M  END
>  <minimizedAffinity>
-3.92481136

>  <minimizedRMSD>
0.859861255

$$$$
