
 OpenBabel03272501493D

 14 15  0  0  0  0  0  0  0  0999 V2000
   37.1460   29.5680   51.3840 C   0  0  0  0  0  0  0  0  0  0  0  0
   37.7490   30.7270   50.8590 C   0  0  0  0  0  0  0  0  0  0  0  0
   36.9960   31.4920   49.9490 C   0  0  0  0  0  0  0  0  0  0  0  0
   35.7350   31.0670   49.6330 N   0  0  0  0  0  0  0  0  0  0  0  0
   35.2050   29.9550   50.1620 C   0  0  0  0  0  0  0  0  0  0  0  0
   35.9020   29.1940   51.0420 N   0  0  0  0  0  0  0  0  0  0  0  0
   33.8790   29.6250   49.7470 N   0  0  0  0  0  0  0  0  0  0  0  0
   37.7440   28.9940   52.0850 H   0  0  0  0  0  0  0  0  0  0  0  0
   38.7480   31.0410   51.1250 H   0  0  0  0  0  0  0  0  0  0  0  0
   33.0030   29.4800   50.2970 H   0  0  0  0  0  0  0  0  0  0  0  0
   33.8290   29.5190   48.6930 H   0  0  0  0  0  0  0  0  0  0  0  0
   37.5410   32.7350   49.3350 C   0  0  0  0  0  0  0  0  0  0  0  0
   38.5290   32.5480   48.1690 C   0  0  0  0  0  0  0  0  0  0  0  0
   38.9510   33.0950   49.4840 C   0  0  0  0  0  0  0  0  0  0  0  0
  1  8  1  0  0  0  0
  2  9  1  0  0  0  0
  2  1  2  0  0  0  0
  3  2  1  0  0  0  0
  4  3  2  0  0  0  0
  4  5  1  0  0  0  0
  5  6  2  0  0  0  0
  6  1  1  0  0  0  0
  7  5  1  0  0  0  0
  7 10  1  0  0  0  0
 11  7  1  0  0  0  0
 12 14  1  0  0  0  0
 12  3  1  0  0  0  0
 13 12  1  0  0  0  0
 13 14  1  0  0  0  0
M  END
>  <minimizedAffinity>
-4.4705615

>  <minimizedRMSD>
1.9618938

$$$$
