
 OpenBabel03262521013D

 31 33  0  0  1  0  0  0  0  0999 V2000
   38.2860   32.9600   44.5330 N   0  0  0  0  0  0  0  0  0  0  0  0
   37.9230   31.5720   44.7150 C   0  0  1  0  0  0  0  0  0  0  0  0
   38.1680   30.7840   43.4550 C   0  0  0  0  0  0  0  0  0  0  0  0
   39.5940   30.9330   43.1360 N   0  0  0  0  0  0  0  0  0  0  0  0
   39.7380   32.3350   42.7200 C   0  0  0  0  0  0  0  0  0  0  0  0
   39.5870   33.1440   43.9900 C   0  0  2  0  0  0  0  0  0  0  0  0
   37.5670   33.4450   43.9830 H   0  0  0  0  0  0  0  0  0  0  0  0
   36.8550   31.5530   44.9600 H   0  0  0  0  0  0  0  0  0  0  0  0
   38.0230   29.7150   43.6850 H   0  0  0  0  0  0  0  0  0  0  0  0
   37.5850   31.1370   42.5960 H   0  0  0  0  0  0  0  0  0  0  0  0
   40.1780   30.7650   43.9670 H   0  0  0  0  0  0  0  0  0  0  0  0
   38.9110   32.5900   42.0340 H   0  0  0  0  0  0  0  0  0  0  0  0
   40.7310   32.5530   42.3180 H   0  0  0  0  0  0  0  0  0  0  0  0
   39.6770   34.2260   43.7030 H   0  0  0  0  0  0  0  0  0  0  0  0
   40.6380   32.7930   44.9190 N   0  0  0  0  0  0  0  0  0  0  0  0
   41.4690   32.3900   44.4080 H   0  0  0  0  0  0  0  0  0  0  0  0
   40.9300   33.5760   45.5370 H   0  0  0  0  0  0  0  0  0  0  0  0
   38.9340   30.7860   46.0060 S   0  0  0  0  0  0  0  0  0  0  0  0
   38.1140   32.8800   49.3660 C   0  0  0  0  0  0  0  0  0  0  0  0
   38.5640   32.5830   48.0970 C   0  0  0  0  0  0  0  0  0  0  0  0
   38.4050   31.3120   47.6130 C   0  0  0  0  0  0  0  0  0  0  0  0
   37.7940   30.3740   48.4250 N   0  0  0  0  0  0  0  0  0  0  0  0
   37.3790   30.7240   49.6450 C   0  0  0  0  0  0  0  0  0  0  0  0
   37.5210   31.9500   50.1370 N   0  0  0  0  0  0  0  0  0  0  0  0
   38.2570   33.9090   49.7220 H   0  0  0  0  0  0  0  0  0  0  0  0
   39.0430   33.3280   47.4680 H   0  0  0  0  0  0  0  0  0  0  0  0
   36.7300   29.7140   50.4750 C   0  0  0  0  0  0  0  0  0  0  0  0
   37.0500   29.4560   51.6530 O   0  0  0  0  0  0  0  0  0  0  0  0
   35.6040   28.8990   49.9450 C   0  0  0  0  0  3  0  0  0  0  0  0
   34.2220   29.5070   50.3180 C   0  0  0  0  0  2  0  0  0  0  0  0
   34.7050   29.3820   48.8980 C   0  0  0  0  0  2  0  0  0  0  0  0
  1  2  1  0  0  0  0
  2  8  1  1  0  0  0
  2 18  1  0  0  0  0
  3  9  1  0  0  0  0
  3  2  1  0  0  0  0
  4  3  1  0  0  0  0
  4 11  1  0  0  0  0
  5  4  1  0  0  0  0
  5  6  1  0  0  0  0
  6 14  1  6  0  0  0
  6  1  1  0  0  0  0
  6 15  1  0  0  0  0
  7  1  1  0  0  0  0
 10  3  1  0  0  0  0
 12  5  1  0  0  0  0
 13  5  1  0  0  0  0
 15 17  1  0  0  0  0
 16 15  1  0  0  0  0
 18 21  1  0  0  0  0
 19 25  1  0  0  0  0
 19 24  1  0  0  0  0
 20 19  2  0  0  0  0
 21 20  1  0  0  0  0
 21 22  2  0  0  0  0
 22 23  1  0  0  0  0
 23 24  2  0  0  0  0
 23 27  1  0  0  0  0
 26 20  1  0  0  0  0
 27 28  2  0  0  0  0
 29 30  1  0  0  0  0
 29 27  1  0  0  0  0
 31 29  1  0  0  0  0
 31 30  1  0  0  0  0
M  END
>  <minimizedAffinity>
-5.83973312

>  <minimizedRMSD>
2.09521818

$$$$
