REMARK  Name = 
REMARK  3 active torsions:
REMARK  status: ('A' for Active; 'I' for Inactive)
REMARK    1  A    between atoms: C_1  and  C_13
REMARK    2  A    between atoms: C_12  and  C_17
REMARK    3  A    between atoms: C_17  and  C_29
REMARK                            x       y       z     vdW  Elec       q    Type
REMARK                         _______ _______ _______ _____ _____    ______ ____
ROOT
ATOM      1  C   UNL     1      37.574  30.815  49.508  0.00  0.00    +0.000 A 
ATOM      2  C   UNL     1      37.478  32.136  49.921  0.00  0.00    +0.000 A 
ATOM      3  C   UNL     1      37.913  33.132  49.010  0.00  0.00    +0.000 A 
ATOM      4  N   UNL     1      38.393  32.724  47.795  0.00  0.00    +0.000 NA
ATOM      5  C   UNL     1      38.459  31.445  47.460  0.00  0.00    +0.000 A 
ATOM      6  N   UNL     1      38.053  30.481  48.306  0.00  0.00    +0.000 NA
ATOM      7  N   UNL     1      38.978  31.115  46.167  0.00  0.00    +0.000 N 
ATOM      8  C   UNL     1      40.386  30.860  45.999  0.00  0.00    +0.000 C 
ATOM      9  C   UNL     1      40.925  31.536  44.761  0.00  0.00    +0.000 C 
ATOM     10  N   UNL     1      40.098  31.305  43.618  0.00  0.00    +0.000 NA
ATOM     11  C   UNL     1      38.934  30.484  43.847  0.00  0.00    +0.000 C 
ATOM     12  C   UNL     1      38.121  31.027  45.014  0.00  0.00    +0.000 C 
ATOM     13  H   UNL     1      37.094  32.432  50.888  0.00  0.00    +0.000 HD
ATOM     14  H   UNL     1      37.861  34.178  49.279  0.00  0.00    +0.000 HD
ATOM     15  H   UNL     1      41.004  31.241  46.852  0.00  0.00    +0.000 HD
ATOM     16  H   UNL     1      40.526  29.750  45.891  0.00  0.00    +0.000 HD
ATOM     17  H   UNL     1      41.930  31.102  44.585  0.00  0.00    +0.000 HD
ATOM     18  H   UNL     1      40.954  32.628  44.967  0.00  0.00    +0.000 HD
ATOM     19  H   UNL     1      39.795  32.187  43.140  0.00  0.00    +0.000 HD
ATOM     20  H   UNL     1      38.311  30.550  42.940  0.00  0.00    +0.000 HD
ATOM     21  H   UNL     1      39.222  29.445  44.104  0.00  0.00    +0.000 HD
ATOM     22  H   UNL     1      37.331  30.269  45.239  0.00  0.00    +0.000 HD
ENDROOT
BRANCH   1  23
ATOM     23  C   UNL     1      37.119  29.746  50.457  0.00  0.00    +0.000 C 
ATOM     24  F   UNL     1      35.806  29.356  50.132  0.00  0.00    +0.000 F 
ATOM     25  F   UNL     1      38.018  28.739  50.434  0.00  0.00    +0.000 F 
ATOM     26  F   UNL     1      37.013  30.353  51.724  0.00  0.00    +0.000 F 
ENDBRANCH   1  23
BRANCH  12  27
ATOM     27  C   UNL     1      37.443  32.278  44.659  0.00  0.00    +0.000 C 
ATOM     28  O   UNL     1      37.478  32.708  43.487  0.00  0.00    +0.000 OA
BRANCH  27  29
ATOM     29  C   UNL     1      36.725  33.541  44.419  0.00  0.00    +0.000 C 
ATOM     30  C   UNL     1      35.422  33.659  43.775  0.00  0.00    +0.000 C 
ATOM     31  C   UNL     1      36.624  33.911  42.918  0.00  0.00    +0.000 C 
ENDBRANCH  27  29
ENDBRANCH  12  27
TORSDOF 3
