
     RDKit          3D

 36 38  0  0  0  0  0  0  0  0999 V2000
   37.5743   30.8151   49.5078 C   0  0  0  0  0  0  0  0  0  0  0  0
   37.4785   32.1364   49.9210 C   0  0  0  0  0  0  0  0  0  0  0  0
   37.9129   33.1321   49.0098 C   0  0  0  0  0  0  0  0  0  0  0  0
   38.3932   32.7243   47.7948 N   0  0  0  0  0  0  0  0  0  0  0  0
   38.4592   31.4455   47.4598 C   0  0  0  0  0  0  0  0  0  0  0  0
   38.0534   30.4807   48.3060 N   0  0  0  0  0  0  0  0  0  0  0  0
   38.9783   31.1147   46.1667 N   0  0  0  0  0  0  0  0  0  0  0  0
   40.3863   30.8600   45.9992 C   0  0  0  0  0  0  0  0  0  0  0  0
   40.9246   31.5356   44.7615 C   0  0  0  0  0  0  0  0  0  0  0  0
   40.0983   31.3048   43.6177 N   0  0  0  0  0  0  0  0  0  0  0  0
   38.9336   30.4836   43.8472 C   0  0  0  0  0  0  0  0  0  0  0  0
   38.1214   31.0269   45.0137 C   0  0  2  0  0  0  0  0  0  0  0  0
   37.1190   29.7459   50.4566 C   0  0  0  0  0  0  0  0  0  0  0  0
   35.8057   29.3557   50.1317 F   0  0  0  0  0  0  0  0  0  0  0  0
   38.0181   28.7389   50.4345 F   0  0  0  0  0  0  0  0  0  0  0  0
   37.0130   30.3531   51.7241 F   0  0  0  0  0  0  0  0  0  0  0  0
   37.4425   32.2775   44.6593 C   0  0  0  0  0  0  0  0  0  0  0  0
   37.4780   32.7082   43.4867 O   0  0  0  0  0  0  0  0  0  0  0  0
   37.0945   32.4318   50.8882 H   0  0  0  0  0  0  0  0  0  0  0  0
   37.8610   34.1777   49.2787 H   0  0  0  0  0  0  0  0  0  0  0  0
   41.0036   31.2410   46.8523 H   0  0  0  0  0  0  0  0  0  0  0  0
   40.5262   29.7495   45.8913 H   0  0  0  0  0  0  0  0  0  0  0  0
   41.9298   31.1019   44.5854 H   0  0  0  0  0  0  0  0  0  0  0  0
   40.9544   32.6280   44.9673 H   0  0  0  0  0  0  0  0  0  0  0  0
   39.7953   32.1865   43.1400 H   0  0  0  0  0  0  0  0  0  0  0  0
   38.3113   30.5503   42.9397 H   0  0  0  0  0  0  0  0  0  0  0  0
   39.2222   29.4451   44.1044 H   0  0  0  0  0  0  0  0  0  0  0  0
   37.3310   30.2694   45.2391 H   0  0  0  0  0  0  0  0  0  0  0  0
   36.7249   33.5413   44.4186 C   0  0  0  0  0  0  0  0  0  0  0  0
   35.8082   33.7898   43.3123 C   0  0  0  0  0  0  0  0  0  0  0  0
   37.2115   34.2893   43.1525 C   0  0  0  0  0  0  0  0  0  0  0  0
   36.7034   34.2042   45.3068 H   0  0  0  0  0  0  0  0  0  0  0  0
   35.4496   33.0318   42.6149 H   0  0  0  0  0  0  0  0  0  0  0  0
   35.0320   34.5690   43.5105 H   0  0  0  0  0  0  0  0  0  0  0  0
   37.4420   35.3509   43.2274 H   0  0  0  0  0  0  0  0  0  0  0  0
   37.8341   33.7178   42.4317 H   0  0  0  0  0  0  0  0  0  0  0  0
  1  2  2  0
  1 13  1  0
  3  2  1  0
  4  3  2  0
  5  4  1  0
  5  6  2  0
  6  1  1  0
  7  5  1  0
  8  7  1  0
  9  8  1  0
 10 11  1  0
 10  9  1  0
 11 12  1  0
 12  7  1  0
 13 16  1  0
 14 13  1  0
 15 13  1  0
 17 12  1  0
 18 17  2  0
  2 19  1  0
  3 20  1  0
  8 21  1  0
  8 22  1  0
  9 23  1  0
  9 24  1  0
 10 25  1  0
 11 26  1  0
 11 27  1  0
 12 28  1  1
 29 30  1  0
 30 31  1  0
 31 29  1  0
 29 32  1  0
 30 33  1  0
 30 34  1  0
 31 35  1  0
 31 36  1  0
 17 29  1  0
M  ISO  8  19  14  20  14  21  13  22  13  23  13  24  13  25   5  26  13
M  ISO  2  27  13  28  13
M  END
>  <DihAtoms>  (1) 
11,16,28,29

>  <DihDeg>  (1) 
17.517391883450134

$$$$
