REMARK  Name = 
REMARK  5 active torsions:
REMARK  status: ('A' for Active; 'I' for Inactive)
REMARK    1  A    between atoms: C_2  and  S_8
REMARK    2  A    between atoms: C_6  and  N_7
REMARK    3  A    between atoms: S_8  and  C_11
REMARK    4  A    between atoms: C_13  and  C_15
REMARK    5  A    between atoms: C_15  and  C_29
REMARK                            x       y       z     vdW  Elec       q    Type
REMARK                         _______ _______ _______ _____ _____    ______ ____
ROOT
ATOM      1  N   UNL     1      39.594  32.863  46.302  0.00  0.00    +0.000 NA
ATOM      2  C   UNL     1      38.263  32.350  46.067  0.00  0.00    +0.000 C 
ATOM      3  C   UNL     1      37.926  32.385  44.599  0.00  0.00    +0.000 C 
ATOM      4  N   UNL     1      38.945  31.578  43.914  0.00  0.00    +0.000 NA
ATOM      5  C   UNL     1      40.179  32.369  44.021  0.00  0.00    +0.000 C 
ATOM      6  C   UNL     1      40.589  32.272  45.475  0.00  0.00    +0.000 C 
ATOM      7  H   UNL     1      39.596  33.888  46.233  0.00  0.00    +0.000 HD
ATOM      8  H   UNL     1      37.571  32.997  46.619  0.00  0.00    +0.000 HD
ATOM      9  H   UNL     1      36.973  31.849  44.453  0.00  0.00    +0.000 HD
ATOM     10  H   UNL     1      37.940  33.393  44.169  0.00  0.00    +0.000 HD
ATOM     11  H   UNL     1      39.080  30.674  44.388  0.00  0.00    +0.000 HD
ATOM     12  H   UNL     1      39.949  33.422  43.785  0.00  0.00    +0.000 HD
ATOM     13  H   UNL     1      40.998  31.950  43.430  0.00  0.00    +0.000 HD
ATOM     14  H   UNL     1      41.524  32.881  45.594  0.00  0.00    +0.000 HD
ENDROOT
BRANCH   6  15
ATOM     15  N   UNL     1      40.854  30.892  45.815  0.00  0.00    +0.000 NA
ATOM     16  H   UNL     1      41.097  30.334  44.952  0.00  0.00    +0.000 HD
ATOM     17  H   UNL     1      41.581  30.773  46.548  0.00  0.00    +0.000 HD
ENDBRANCH   6  15
BRANCH   2  18
ATOM     18  S   UNL     1      38.123  30.610  46.575  0.00  0.00    +0.000 S 
BRANCH  18  21
ATOM     19  C   UNL     1      37.900  30.925  50.600  0.00  0.00    +0.000 A 
ATOM     20  C   UNL     1      38.355  31.078  49.307  0.00  0.00    +0.000 A 
ATOM     21  C   UNL     1      37.658  30.499  48.281  0.00  0.00    +0.000 A 
ATOM     22  N   UNL     1      36.518  29.779  48.589  0.00  0.00    +0.000 NA
ATOM     23  C   UNL     1      36.128  29.667  49.861  0.00  0.00    +0.000 A 
ATOM     24  N   UNL     1      36.787  30.220  50.874  0.00  0.00    +0.000 NA
ATOM     25  H   UNL     1      38.483  31.403  51.398  0.00  0.00    +0.000 HD
ATOM     26  H   UNL     1      39.252  31.646  49.078  0.00  0.00    +0.000 HD
BRANCH  23  27
ATOM     27  C   UNL     1      34.916  28.908  50.153  0.00  0.00    +0.000 C 
ATOM     28  O   UNL     1      34.475  27.981  49.444  0.00  0.00    +0.000 OA
BRANCH  27  29
ATOM     29  C   UNL     1      34.102  29.206  51.362  0.00  0.00    +0.000 C 
ATOM     30  C   UNL     1      34.981  29.327  52.638  0.00  0.00    +0.000 C 
ATOM     31  C   UNL     1      34.189  30.478  52.078  0.00  0.00    +0.000 C 
ENDBRANCH  27  29
ENDBRANCH  23  27
ENDBRANCH  18  21
ENDBRANCH   2  18
TORSDOF 5
