
 OpenBabel03272505353D

 31 34  0  0  1  0  0  0  0  0999 V2000
   37.6430   30.8500   49.4980 C   0  0  0  0  0  0  0  0  0  0  0  0
   37.3390   32.1880   49.7010 C   0  0  0  0  0  0  0  0  0  0  0  0
   37.6510   33.0890   48.6520 C   0  0  0  0  0  0  0  0  0  0  0  0
   38.2260   32.5790   47.5190 N   0  0  0  0  0  0  0  0  0  0  0  0
   38.4920   31.2890   47.3860 C   0  0  0  0  0  0  0  0  0  0  0  0
   38.2060   30.4140   48.3670 N   0  0  0  0  0  0  0  0  0  0  0  0
   39.0970   30.8500   46.1650 N   0  0  0  0  0  0  0  0  0  0  0  0
   40.5320   30.7890   46.0520 C   0  0  0  0  0  0  0  0  0  0  0  0
   41.0050   31.3440   44.7300 C   0  0  0  0  0  0  0  0  0  0  0  0
   40.2600   30.8200   43.6290 N   0  0  0  0  0  0  0  0  0  0  0  0
   39.2240   29.8760   43.9700 C   0  0  0  0  0  0  0  0  0  0  0  0
   38.3010   30.4600   45.0310 C   0  0  2  0  0  0  0  0  0  0  0  0
   36.8830   32.5650   50.6070 H   0  0  0  0  0  0  0  0  0  0  0  0
   37.4360   34.1440   48.7550 H   0  0  0  0  0  0  0  0  0  0  0  0
   41.0580   31.3840   46.8420 H   0  0  0  0  0  0  0  0  0  0  0  0
   40.8380   29.7100   46.1190 H   0  0  0  0  0  0  0  0  0  0  0  0
   42.0690   31.0460   44.6330 H   0  0  0  0  0  0  0  0  0  0  0  0
   40.8650   32.4460   44.7650 H   0  0  0  0  0  0  0  0  0  0  0  0
   39.8460   31.5630   43.0170 H   0  0  0  0  0  0  0  0  0  0  0  0
   38.6280   29.7090   43.0580 H   0  0  0  0  0  0  0  0  0  0  0  0
   39.6540   28.9440   44.3870 H   0  0  0  0  0  0  0  0  0  0  0  0
   37.6250   29.6340   45.3630 H   0  0  0  0  0  0  0  0  0  0  0  0
   37.3200   29.8800   50.5960 C   0  0  0  0  0  0  0  0  0  0  0  0
   35.9310   29.8670   50.8200 F   0  0  0  0  0  0  0  0  0  0  0  0
   37.8410   28.6770   50.2750 F   0  0  0  0  0  0  0  0  0  0  0  0
   37.8720   30.4140   51.7780 F   0  0  0  0  0  0  0  0  0  0  0  0
   37.4570   31.5260   44.4800 C   0  0  1  0  0  3  0  0  0  0  0  0
   37.9430   32.6440   44.2120 O   0  0  0  0  0  0  0  0  0  0  0  0
   36.5170   32.5160   43.9300 C   0  0  0  0  0  0  0  0  0  0  0  0
   35.5290   32.2520   42.8900 C   0  0  0  0  0  2  0  0  0  0  0  0
   36.8130   32.8890   42.4560 C   0  0  0  0  0  2  0  0  0  0  0  0
  1  2  1  0  0  0  0
  1 23  1  0  0  0  0
  2 13  1  0  0  0  0
  3 14  1  0  0  0  0
  3  2  2  0  0  0  0
  4  3  1  0  0  0  0
  5  4  2  0  0  0  0
  5  6  1  0  0  0  0
  6  1  2  0  0  0  0
  7  5  1  0  0  0  0
  8 16  1  0  0  0  0
  8  7  1  0  0  0  0
  8 15  1  0  0  0  0
  9 18  1  0  0  0  0
  9  8  1  0  0  0  0
 10 11  1  0  0  0  0
 10  9  1  0  0  0  0
 11 21  1  0  0  0  0
 11 12  1  0  0  0  0
 12 22  1  1  0  0  0
 12  7  1  0  0  0  0
 17  9  1  0  0  0  0
 19 10  1  0  0  0  0
 20 11  1  0  0  0  0
 23 24  1  0  0  0  0
 23 26  1  0  0  0  0
 25 23  1  0  0  0  0
 27 28  1  6  0  0  0
 27 12  1  0  0  0  0
 29 28  1  0  0  0  0
 29 27  1  0  0  0  0
 30 29  1  0  0  0  0
 31 30  1  0  0  0  0
 31 29  1  0  0  0  0
M  END
>  <minimizedAffinity>
-4.98516846

>  <minimizedRMSD>
0.751576066

$$$$
