
 OpenBabel03262521013D

 31 33  0  0  1  0  0  0  0  0999 V2000
   39.8230   32.9650   46.1550 N   0  0  0  0  0  0  0  0  0  0  0  0
   38.4690   32.4580   46.1180 C   0  0  1  0  0  0  0  0  0  0  0  0
   37.9830   32.3290   44.6980 C   0  0  0  0  0  0  0  0  0  0  0  0
   38.9180   31.4250   44.0140 N   0  0  0  0  0  0  0  0  0  0  0  0
   40.1640   32.1960   43.9010 C   0  0  0  0  0  0  0  0  0  0  0  0
   40.7210   32.2600   45.3070 C   0  0  2  0  0  0  0  0  0  0  0  0
   39.8280   33.9750   45.9650 H   0  0  0  0  0  0  0  0  0  0  0  0
   37.8440   33.1810   46.6570 H   0  0  0  0  0  0  0  0  0  0  0  0
   37.0150   31.8010   44.7130 H   0  0  0  0  0  0  0  0  0  0  0  0
   37.9630   33.2800   44.1520 H   0  0  0  0  0  0  0  0  0  0  0  0
   39.0910   30.5800   44.5750 H   0  0  0  0  0  0  0  0  0  0  0  0
   39.9220   33.2190   43.5660 H   0  0  0  0  0  0  0  0  0  0  0  0
   40.9130   31.6920   43.2840 H   0  0  0  0  0  0  0  0  0  0  0  0
   41.6690   32.8570   45.2580 H   0  0  0  0  0  0  0  0  0  0  0  0
   41.0050   30.9230   45.7800 N   0  0  0  0  0  0  0  0  0  0  0  0
   41.1520   30.2630   44.9680 H   0  0  0  0  0  0  0  0  0  0  0  0
   41.8030   30.8740   46.4440 H   0  0  0  0  0  0  0  0  0  0  0  0
   38.3640   30.7930   46.8400 S   0  0  0  0  0  0  0  0  0  0  0  0
   35.6330   30.9550   49.8170 C   0  0  0  0  0  0  0  0  0  0  0  0
   36.8130   31.1270   49.1240 C   0  0  0  0  0  0  0  0  0  0  0  0
   36.9140   30.6450   47.8470 C   0  0  0  0  0  0  0  0  0  0  0  0
   35.8190   30.0000   47.3030 N   0  0  0  0  0  0  0  0  0  0  0  0
   34.7030   29.8640   48.0240 C   0  0  0  0  0  0  0  0  0  0  0  0
   34.5810   30.3230   49.2650 N   0  0  0  0  0  0  0  0  0  0  0  0
   35.5870   31.3540   50.8380 H   0  0  0  0  0  0  0  0  0  0  0  0
   37.6660   31.6360   49.5630 H   0  0  0  0  0  0  0  0  0  0  0  0
   33.5620   29.1850   47.4190 C   0  0  0  0  0  0  0  0  0  0  0  0
   32.9500   28.2310   47.9390 O   0  0  0  0  0  0  0  0  0  0  0  0
   33.0390   29.6090   46.0920 C   0  0  0  0  0  3  0  0  0  0  0  0
   31.4860   29.6780   46.0760 C   0  0  0  0  0  2  0  0  0  0  0  0
   32.3610   30.8870   45.8810 C   0  0  0  0  0  2  0  0  0  0  0  0
  2  1  1  0  0  0  0
  2  8  1  1  0  0  0
  2 18  1  0  0  0  0
  3  9  1  0  0  0  0
  3  2  1  0  0  0  0
  4 11  1  0  0  0  0
  4  3  1  0  0  0  0
  5  4  1  0  0  0  0
  5  6  1  0  0  0  0
  6 14  1  6  0  0  0
  6 15  1  0  0  0  0
  6  1  1  0  0  0  0
  7  1  1  0  0  0  0
 10  3  1  0  0  0  0
 12  5  1  0  0  0  0
 13  5  1  0  0  0  0
 15 17  1  0  0  0  0
 16 15  1  0  0  0  0
 18 21  1  0  0  0  0
 19 25  1  0  0  0  0
 20 26  1  0  0  0  0
 20 19  2  0  0  0  0
 21 20  1  0  0  0  0
 22 21  2  0  0  0  0
 22 23  1  0  0  0  0
 23 24  2  0  0  0  0
 24 19  1  0  0  0  0
 27 28  2  0  0  0  0
 27 23  1  0  0  0  0
 29 27  1  0  0  0  0
 30 29  1  0  0  0  0
 31 30  1  0  0  0  0
 31 29  1  0  0  0  0
M  END
>  <minimizedAffinity>
-5.09972286

>  <minimizedRMSD>
2.99880481

$$$$
