
     RDKit          3D

 36 38  0  0  0  0  0  0  0  0999 V2000
   39.5937   32.8630   46.3020 N   0  0  0  0  0  0  0  0  0  0  0  0
   38.2629   32.3502   46.0670 C   0  0  1  0  0  0  0  0  0  0  0  0
   37.9262   32.3854   44.5992 C   0  0  0  0  0  0  0  0  0  0  0  0
   38.9446   31.5780   43.9143 N   0  0  0  0  0  0  0  0  0  0  0  0
   40.1792   32.3692   44.0209 C   0  0  0  0  0  0  0  0  0  0  0  0
   40.5888   32.2715   45.4753 C   0  0  2  0  0  0  0  0  0  0  0  0
   40.8540   30.8915   45.8154 N   0  0  0  0  0  0  0  0  0  0  0  0
   38.1227   30.6102   46.5749 S   0  0  0  0  0  0  0  0  0  0  0  0
   37.9002   30.9252   50.6002 C   0  0  0  0  0  0  0  0  0  0  0  0
   38.3546   31.0779   49.3068 C   0  0  0  0  0  0  0  0  0  0  0  0
   37.6578   30.4987   48.2814 C   0  0  0  0  0  0  0  0  0  0  0  0
   36.5179   29.7791   48.5889 N   0  0  0  0  0  0  0  0  0  0  0  0
   36.1280   29.6670   49.8610 C   0  0  0  0  0  0  0  0  0  0  0  0
   36.7870   30.2195   50.8742 N   0  0  0  0  0  0  0  0  0  0  0  0
   34.9158   28.9077   50.1534 C   0  0  0  0  0  0  0  0  0  0  0  0
   34.4755   27.9812   49.4442 O   0  0  0  0  0  0  0  0  0  0  0  0
   39.5964   33.8878   46.2327 H   0  0  0  0  0  0  0  0  0  0  0  0
   37.5709   32.9973   46.6186 H   0  0  0  0  0  0  0  0  0  0  0  0
   36.9731   31.8491   44.4534 H   0  0  0  0  0  0  0  0  0  0  0  0
   37.9399   33.3928   44.1693 H   0  0  0  0  0  0  0  0  0  0  0  0
   39.0800   30.6743   44.3883 H   0  0  0  0  0  0  0  0  0  0  0  0
   39.9487   33.4219   43.7845 H   0  0  0  0  0  0  0  0  0  0  0  0
   40.9977   31.9502   43.4304 H   0  0  0  0  0  0  0  0  0  0  0  0
   41.5238   32.8807   45.5945 H   0  0  0  0  0  0  0  0  0  0  0  0
   41.0975   30.3339   44.9522 H   0  0  0  0  0  0  0  0  0  0  0  0
   41.5805   30.7729   46.5481 H   0  0  0  0  0  0  0  0  0  0  0  0
   38.4834   31.4029   51.3985 H   0  0  0  0  0  0  0  0  0  0  0  0
   39.2521   31.6462   49.0785 H   0  0  0  0  0  0  0  0  0  0  0  0
   34.1017   29.2057   51.3622 C   0  0  0  0  0  0  0  0  0  0  0  0
   33.3218   30.5423   51.2208 C   0  0  0  0  0  0  0  0  0  0  0  0
   32.6395   29.2070   51.3479 C   0  0  0  0  0  0  0  0  0  0  0  0
   34.6434   29.0896   52.3374 H   0  0  0  0  0  0  0  0  0  0  0  0
   33.2513   31.0005   50.2302 H   0  0  0  0  0  0  0  0  0  0  0  0
   33.3700   31.2310   52.1095 H   0  0  0  0  0  0  0  0  0  0  0  0
   32.1577   29.0196   52.3416 H   0  0  0  0  0  0  0  0  0  0  0  0
   32.0415   28.8207   50.5201 H   0  0  0  0  0  0  0  0  0  0  0  0
  2  1  1  0
  2  8  1  0
  3  2  1  0
  4  5  1  0
  4  3  1  0
  5  6  1  0
  6  7  1  0
  6  1  1  0
  8 11  1  0
  9 14  2  0
 10  9  1  0
 11 12  1  0
 11 10  2  0
 12 13  2  0
 13 15  1  0
 13 14  1  0
 16 15  2  0
  1 17  1  0
  2 18  1  1
  3 19  1  0
  3 20  1  0
  4 21  1  0
  5 22  1  0
  5 23  1  0
  6 24  1  6
  7 25  1  0
  7 26  1  0
  9 27  1  0
 10 28  1  0
 29 30  1  0
 30 31  1  0
 31 29  1  0
 29 32  1  0
 30 33  1  0
 30 34  1  0
 31 35  1  0
 31 36  1  0
 15 29  1  0
M  ISO  8  17   5  18  13  19  13  20  13  21   5  22  13  23  13  24  13
M  ISO  4  25   5  26   5  27  14  28  14
M  END
>  <DihAtoms>  (1) 
12,14,28,29

>  <DihDeg>  (1) 
132.44570823709282

$$$$
