
 OpenBabel03272505133D

 32 34  0  0  0  0  0  0  0  0999 V2000
   38.3010   22.2930   33.3110 Cl  0  0  0  0  0  0  0  0  0  0  0  0
   37.2800   23.5000   32.5750 C   0  0  0  0  0  0  0  0  0  0  0  0
   36.2350   23.0530   31.7900 C   0  0  0  0  0  0  0  0  0  0  0  0
   35.4300   24.0090   31.2110 C   0  0  0  0  0  0  0  0  0  0  0  0
   35.6730   25.3460   31.4150 C   0  0  0  0  0  0  0  0  0  0  0  0
   36.7510   25.7180   32.2230 C   0  0  0  0  0  0  0  0  0  0  0  0
   37.5890   24.8230   32.8290 C   0  0  0  0  0  0  0  0  0  0  0  0
   34.6120   23.6990   30.5970 H   0  0  0  0  0  0  0  0  0  0  0  0
   35.0170   26.0660   30.9400 H   0  0  0  0  0  0  0  0  0  0  0  0
   36.9060   26.7810   32.3580 H   0  0  0  0  0  0  0  0  0  0  0  0
   34.8610   19.7240   32.2860 C   0  0  0  0  0  0  0  0  0  0  0  0
   35.5040   18.9330   31.3250 C   0  0  0  0  0  0  0  0  0  0  0  0
   36.4320   19.5740   30.4910 C   0  0  0  0  0  0  0  0  0  0  0  0
   36.6510   20.9090   30.6610 N   0  0  0  0  0  0  0  0  0  0  0  0
   36.0070   21.6100   31.5950 C   0  0  0  0  0  0  0  0  0  0  0  0
   35.1220   21.0180   32.3970 N   0  0  0  0  0  0  0  0  0  0  0  0
   34.1310   19.2350   32.9480 H   0  0  0  0  0  0  0  0  0  0  0  0
   35.2910   17.8740   31.2350 H   0  0  0  0  0  0  0  0  0  0  0  0
   36.9600   19.0050   29.7260 H   0  0  0  0  0  0  0  0  0  0  0  0
   38.9530   25.2940   33.8510 S   0  0  0  0  0  0  0  0  0  0  0  0
   41.2230   23.2710   34.7180 Cl  0  0  0  0  0  0  0  0  0  0  0  0
   39.9030   23.6660   35.7800 C   0  0  0  0  0  0  0  0  0  0  0  0
   38.8530   24.5490   35.4830 C   0  0  0  0  0  0  0  0  0  0  0  0
   37.8640   24.7780   36.4130 C   0  0  0  0  0  0  0  0  0  0  0  0
   37.8930   24.1520   37.6290 C   0  0  0  0  0  0  0  0  0  0  0  0
   38.9060   23.2660   37.9800 C   0  0  0  0  0  0  0  0  0  0  0  0
   39.8880   23.0530   37.0280 C   0  0  0  0  0  0  0  0  0  0  0  0
   37.0940   25.4720   36.1050 H   0  0  0  0  0  0  0  0  0  0  0  0
   37.0840   24.3780   38.3100 H   0  0  0  0  0  0  0  0  0  0  0  0
   38.8980   22.7950   38.9370 H   0  0  0  0  0  0  0  0  0  0  0  0
   41.1920   21.9100   37.4880 S   0  0  0  0  0  0  0  0  0  0  0  0
   41.9820   21.5690   36.3890 H   0  0  0  0  0  0  0  0  0  0  0  0
  2  7  1  0  0  0  0
  2  1  1  0  0  0  0
  3  2  2  0  0  0  0
  4  5  2  0  0  0  0
  4  3  1  0  0  0  0
  5  6  1  0  0  0  0
  6 10  1  0  0  0  0
  6  7  2  0  0  0  0
  7 20  1  0  0  0  0
  8  4  1  0  0  0  0
  9  5  1  0  0  0  0
 11 16  1  0  0  0  0
 11 17  1  0  0  0  0
 12 11  2  0  0  0  0
 13 14  2  0  0  0  0
 13 12  1  0  0  0  0
 14 15  1  0  0  0  0
 15  3  1  0  0  0  0
 15 16  2  0  0  0  0
 18 12  1  0  0  0  0
 19 13  1  0  0  0  0
 20 23  1  0  0  0  0
 21 22  1  0  0  0  0
 22 27  1  0  0  0  0
 23 22  2  0  0  0  0
 23 24  1  0  0  0  0
 24 25  2  0  0  0  0
 25 26  1  0  0  0  0
 25 29  1  0  0  0  0
 26 30  1  0  0  0  0
 27 31  1  0  0  0  0
 27 26  2  0  0  0  0
 28 24  1  0  0  0  0
 32 31  1  0  0  0  0
M  END
>  <minimizedAffinity>
-5.67833233

$$$$

 OpenBabel03272505133D

 32 34  0  0  0  0  0  0  0  0999 V2000
   38.4340   27.1690   32.7720 Cl  0  0  0  0  0  0  0  0  0  0  0  0
   37.2710   26.0390   32.1300 C   0  0  0  0  0  0  0  0  0  0  0  0
   36.1080   26.5610   31.5960 C   0  0  0  0  0  0  0  0  0  0  0  0
   35.1920   25.6650   31.0890 C   0  0  0  0  0  0  0  0  0  0  0  0
   35.4410   24.3150   31.1240 C   0  0  0  0  0  0  0  0  0  0  0  0
   36.6410   23.8650   31.6810 C   0  0  0  0  0  0  0  0  0  0  0  0
   37.5940   24.6970   32.2010 C   0  0  0  0  0  0  0  0  0  0  0  0
   34.2820   26.0340   30.6680 H   0  0  0  0  0  0  0  0  0  0  0  0
   34.6940   23.6440   30.7160 H   0  0  0  0  0  0  0  0  0  0  0  0
   36.7970   22.7940   31.6870 H   0  0  0  0  0  0  0  0  0  0  0  0
   36.2310   30.0140   30.4670 C   0  0  0  0  0  0  0  0  0  0  0  0
   35.5160   30.7260   31.4390 C   0  0  0  0  0  0  0  0  0  0  0  0
   34.9820   29.9870   32.5050 C   0  0  0  0  0  0  0  0  0  0  0  0
   35.1870   28.6390   32.5340 N   0  0  0  0  0  0  0  0  0  0  0  0
   35.8780   28.0170   31.5770 C   0  0  0  0  0  0  0  0  0  0  0  0
   36.3930   28.7020   30.5560 N   0  0  0  0  0  0  0  0  0  0  0  0
   36.6560   30.5810   29.6250 H   0  0  0  0  0  0  0  0  0  0  0  0
   35.3830   31.8000   31.3660 H   0  0  0  0  0  0  0  0  0  0  0  0
   34.4170   30.4910   33.2880 H   0  0  0  0  0  0  0  0  0  0  0  0
   39.1120   24.1300   32.9060 S   0  0  0  0  0  0  0  0  0  0  0  0
   41.1830   22.2200   34.3420 Cl  0  0  0  0  0  0  0  0  0  0  0  0
   39.9470   23.0560   35.2350 C   0  0  0  0  0  0  0  0  0  0  0  0
   38.9870   23.9210   34.6870 C   0  0  0  0  0  0  0  0  0  0  0  0
   38.0580   24.5240   35.5040 C   0  0  0  0  0  0  0  0  0  0  0  0
   38.0590   24.2900   36.8520 C   0  0  0  0  0  0  0  0  0  0  0  0
   38.9840   23.4430   37.4540 C   0  0  0  0  0  0  0  0  0  0  0  0
   39.9070   22.8490   36.6100 C   0  0  0  0  0  0  0  0  0  0  0  0
   37.3550   25.1750   35.0010 H   0  0  0  0  0  0  0  0  0  0  0  0
   37.3010   24.7970   37.4330 H   0  0  0  0  0  0  0  0  0  0  0  0
   38.9570   23.2820   38.5070 H   0  0  0  0  0  0  0  0  0  0  0  0
   41.0980   21.7590   37.3930 S   0  0  0  0  0  0  0  0  0  0  0  0
   41.8120   21.0210   36.4480 H   0  0  0  0  0  0  0  0  0  0  0  0
  2  7  1  0  0  0  0
  2  1  1  0  0  0  0
  3  2  2  0  0  0  0
  4  5  2  0  0  0  0
  4  3  1  0  0  0  0
  5  6  1  0  0  0  0
  6 10  1  0  0  0  0
  6  7  2  0  0  0  0
  7 20  1  0  0  0  0
  8  4  1  0  0  0  0
  9  5  1  0  0  0  0
 11 16  2  0  0  0  0
 11 12  1  0  0  0  0
 12 13  2  0  0  0  0
 13 14  1  0  0  0  0
 13 19  1  0  0  0  0
 15  3  1  0  0  0  0
 15 14  2  0  0  0  0
 16 15  1  0  0  0  0
 17 11  1  0  0  0  0
 18 12  1  0  0  0  0
 20 23  1  0  0  0  0
 21 22  1  0  0  0  0
 22 27  1  0  0  0  0
 23 22  2  0  0  0  0
 23 24  1  0  0  0  0
 24 25  2  0  0  0  0
 25 29  1  0  0  0  0
 25 26  1  0  0  0  0
 26 30  1  0  0  0  0
 27 31  1  0  0  0  0
 27 26  2  0  0  0  0
 28 24  1  0  0  0  0
 32 31  1  0  0  0  0
M  END
>  <minimizedAffinity>
-5.33645773

$$$$

 OpenBabel03272505133D

 32 34  0  0  0  0  0  0  0  0999 V2000
   35.9780   27.2550   31.4180 Cl  0  0  0  0  0  0  0  0  0  0  0  0
   36.7180   27.1610   32.9940 C   0  0  0  0  0  0  0  0  0  0  0  0
   37.4660   26.0340   33.2770 C   0  0  0  0  0  0  0  0  0  0  0  0
   38.0500   25.9640   34.5230 C   0  0  0  0  0  0  0  0  0  0  0  0
   37.8840   26.9800   35.4320 C   0  0  0  0  0  0  0  0  0  0  0  0
   37.1120   28.0880   35.0700 C   0  0  0  0  0  0  0  0  0  0  0  0
   36.5050   28.2230   33.8520 C   0  0  0  0  0  0  0  0  0  0  0  0
   38.6350   25.1060   34.7760 H   0  0  0  0  0  0  0  0  0  0  0  0
   38.3590   26.8850   36.4010 H   0  0  0  0  0  0  0  0  0  0  0  0
   37.0080   28.8650   35.8160 H   0  0  0  0  0  0  0  0  0  0  0  0
   38.8780   24.1230   30.5260 C   0  0  0  0  0  0  0  0  0  0  0  0
   38.0080   23.0360   30.3720 C   0  0  0  0  0  0  0  0  0  0  0  0
   36.9120   22.9690   31.2440 C   0  0  0  0  0  0  0  0  0  0  0  0
   36.7580   23.9520   32.1770 N   0  0  0  0  0  0  0  0  0  0  0  0
   37.6210   24.9650   32.2750 C   0  0  0  0  0  0  0  0  0  0  0  0
   38.6690   25.0450   31.4550 N   0  0  0  0  0  0  0  0  0  0  0  0
   39.7430   24.1890   29.8490 H   0  0  0  0  0  0  0  0  0  0  0  0
   38.1800   22.2820   29.6120 H   0  0  0  0  0  0  0  0  0  0  0  0
   36.2040   22.1440   31.1680 H   0  0  0  0  0  0  0  0  0  0  0  0
   35.5290   29.6240   33.3930 S   0  0  0  0  0  0  0  0  0  0  0  0
   32.4890   29.3520   34.2160 Cl  0  0  0  0  0  0  0  0  0  0  0  0
   33.5890   30.3540   35.1180 C   0  0  0  0  0  0  0  0  0  0  0  0
   34.9510   30.5360   34.8290 C   0  0  0  0  0  0  0  0  0  0  0  0
   35.7170   31.3580   35.6240 C   0  0  0  0  0  0  0  0  0  0  0  0
   35.1660   32.0030   36.6960 C   0  0  0  0  0  0  0  0  0  0  0  0
   33.8230   31.8630   37.0320 C   0  0  0  0  0  0  0  0  0  0  0  0
   33.0740   31.0310   36.2190 C   0  0  0  0  0  0  0  0  0  0  0  0
   36.7560   31.4420   35.3310 H   0  0  0  0  0  0  0  0  0  0  0  0
   35.8270   32.6330   37.2760 H   0  0  0  0  0  0  0  0  0  0  0  0
   33.4250   32.3800   37.8750 H   0  0  0  0  0  0  0  0  0  0  0  0
   31.3430   30.8540   36.6580 S   0  0  0  0  0  0  0  0  0  0  0  0
   30.6240   30.2120   35.6490 H   0  0  0  0  0  0  0  0  0  0  0  0
  1  2  1  0  0  0  0
  2  3  2  0  0  0  0
  2  7  1  0  0  0  0
  3  4  1  0  0  0  0
  4  8  1  0  0  0  0
  4  5  2  0  0  0  0
  5  9  1  0  0  0  0
  6  5  1  0  0  0  0
  6 10  1  0  0  0  0
  7  6  2  0  0  0  0
 11 16  1  0  0  0  0
 12 11  2  0  0  0  0
 12 13  1  0  0  0  0
 13 14  2  0  0  0  0
 14 15  1  0  0  0  0
 15  3  1  0  0  0  0
 16 15  2  0  0  0  0
 17 11  1  0  0  0  0
 18 12  1  0  0  0  0
 19 13  1  0  0  0  0
 20  7  1  0  0  0  0
 20 23  1  0  0  0  0
 21 22  1  0  0  0  0
 22 27  1  0  0  0  0
 23 22  2  0  0  0  0
 23 24  1  0  0  0  0
 24 25  2  0  0  0  0
 25 26  1  0  0  0  0
 25 29  1  0  0  0  0
 26 30  1  0  0  0  0
 27 31  1  0  0  0  0
 27 26  2  0  0  0  0
 28 24  1  0  0  0  0
 32 31  1  0  0  0  0
M  END
>  <minimizedAffinity>
-5.33292246

$$$$

 OpenBabel03272505133D

 32 34  0  0  0  0  0  0  0  0999 V2000
   36.6290   28.1950   34.7370 Cl  0  0  0  0  0  0  0  0  0  0  0  0
   36.3500   28.9580   33.1940 C   0  0  0  0  0  0  0  0  0  0  0  0
   35.5530   30.0870   33.1800 C   0  0  0  0  0  0  0  0  0  0  0  0
   35.3360   30.6870   31.9590 C   0  0  0  0  0  0  0  0  0  0  0  0
   35.8940   30.1710   30.8160 C   0  0  0  0  0  0  0  0  0  0  0  0
   36.6890   29.0250   30.9130 C   0  0  0  0  0  0  0  0  0  0  0  0
   36.9470   28.3790   32.0900 C   0  0  0  0  0  0  0  0  0  0  0  0
   34.7240   31.5620   31.9110 H   0  0  0  0  0  0  0  0  0  0  0  0
   35.6980   30.6730   29.8760 H   0  0  0  0  0  0  0  0  0  0  0  0
   37.1100   28.6520   29.9880 H   0  0  0  0  0  0  0  0  0  0  0  0
   35.3030   31.8920   36.3260 C   0  0  0  0  0  0  0  0  0  0  0  0
   33.9990   31.6380   36.7720 C   0  0  0  0  0  0  0  0  0  0  0  0
   33.1960   30.8240   35.9600 C   0  0  0  0  0  0  0  0  0  0  0  0
   33.7210   30.3340   34.8010 N   0  0  0  0  0  0  0  0  0  0  0  0
   34.9720   30.6100   34.4290 C   0  0  0  0  0  0  0  0  0  0  0  0
   35.7510   31.3820   35.1880 N   0  0  0  0  0  0  0  0  0  0  0  0
   35.9450   32.5280   36.9520 H   0  0  0  0  0  0  0  0  0  0  0  0
   33.6330   32.0550   37.7040 H   0  0  0  0  0  0  0  0  0  0  0  0
   32.1730   30.5960   36.2600 H   0  0  0  0  0  0  0  0  0  0  0  0
   37.9520   26.9300   32.2140 S   0  0  0  0  0  0  0  0  0  0  0  0
   39.0960   24.2050   33.3390 Cl  0  0  0  0  0  0  0  0  0  0  0  0
   37.5850   24.2710   32.4800 C   0  0  0  0  0  0  0  0  0  0  0  0
   36.9990   25.4300   31.9460 C   0  0  0  0  0  0  0  0  0  0  0  0
   35.7950   25.3490   31.2850 C   0  0  0  0  0  0  0  0  0  0  0  0
   35.1580   24.1470   31.1420 C   0  0  0  0  0  0  0  0  0  0  0  0
   35.6880   22.9650   31.6480 C   0  0  0  0  0  0  0  0  0  0  0  0
   36.9000   23.0720   32.3090 C   0  0  0  0  0  0  0  0  0  0  0  0
   35.4140   26.2880   30.9050 H   0  0  0  0  0  0  0  0  0  0  0  0
   34.2150   24.1570   30.6110 H   0  0  0  0  0  0  0  0  0  0  0  0
   35.1650   22.0440   31.5190 H   0  0  0  0  0  0  0  0  0  0  0  0
   37.5780   21.5450   32.9600 S   0  0  0  0  0  0  0  0  0  0  0  0
   38.8990   21.7100   33.3760 H   0  0  0  0  0  0  0  0  0  0  0  0
  2  1  1  0  0  0  0
  3  2  1  0  0  0  0
  3 15  1  0  0  0  0
  4  3  2  0  0  0  0
  5  6  2  0  0  0  0
  5  4  1  0  0  0  0
  6  7  1  0  0  0  0
  7 20  1  0  0  0  0
  7  2  2  0  0  0  0
  8  4  1  0  0  0  0
  9  5  1  0  0  0  0
 10  6  1  0  0  0  0
 11 12  1  0  0  0  0
 11 17  1  0  0  0  0
 12 18  1  0  0  0  0
 13 19  1  0  0  0  0
 13 12  2  0  0  0  0
 14 13  1  0  0  0  0
 15 14  2  0  0  0  0
 15 16  1  0  0  0  0
 16 11  2  0  0  0  0
 22 21  1  0  0  0  0
 23 20  1  0  0  0  0
 23 22  2  0  0  0  0
 24 23  1  0  0  0  0
 25 24  2  0  0  0  0
 25 26  1  0  0  0  0
 26 27  2  0  0  0  0
 27 22  1  0  0  0  0
 27 31  1  0  0  0  0
 28 24  1  0  0  0  0
 29 25  1  0  0  0  0
 30 26  1  0  0  0  0
 31 32  1  0  0  0  0
M  END
>  <minimizedAffinity>
-5.30843258

$$$$

 OpenBabel03272505133D

 32 34  0  0  0  0  0  0  0  0999 V2000
   38.0350   23.6220   33.6760 Cl  0  0  0  0  0  0  0  0  0  0  0  0
   37.9130   25.2390   34.3190 C   0  0  0  0  0  0  0  0  0  0  0  0
   38.4950   25.4770   35.5490 C   0  0  0  0  0  0  0  0  0  0  0  0
   38.3970   26.7560   36.0530 C   0  0  0  0  0  0  0  0  0  0  0  0
   37.7450   27.7380   35.3490 C   0  0  0  0  0  0  0  0  0  0  0  0
   37.1830   27.4180   34.1100 C   0  0  0  0  0  0  0  0  0  0  0  0
   37.2410   26.1710   33.5500 C   0  0  0  0  0  0  0  0  0  0  0  0
   38.8360   26.9760   37.0030 H   0  0  0  0  0  0  0  0  0  0  0  0
   37.6890   28.7300   35.7810 H   0  0  0  0  0  0  0  0  0  0  0  0
   36.6780   28.2210   33.5890 H   0  0  0  0  0  0  0  0  0  0  0  0
   39.1490   22.9460   38.0750 C   0  0  0  0  0  0  0  0  0  0  0  0
   40.3790   22.3890   37.7010 C   0  0  0  0  0  0  0  0  0  0  0  0
   40.9890   22.9060   36.5490 C   0  0  0  0  0  0  0  0  0  0  0  0
   40.3590   23.9060   35.8690 N   0  0  0  0  0  0  0  0  0  0  0  0
   39.1870   24.3970   36.2740 C   0  0  0  0  0  0  0  0  0  0  0  0
   38.5920   23.9180   37.3670 N   0  0  0  0  0  0  0  0  0  0  0  0
   38.6600   22.5510   38.9770 H   0  0  0  0  0  0  0  0  0  0  0  0
   40.8360   21.5940   38.2810 H   0  0  0  0  0  0  0  0  0  0  0  0
   41.9460   22.5080   36.2140 H   0  0  0  0  0  0  0  0  0  0  0  0
   36.5310   25.7650   31.9840 S   0  0  0  0  0  0  0  0  0  0  0  0
   38.3280   28.0760   30.7900 Cl  0  0  0  0  0  0  0  0  0  0  0  0
   38.5330   26.4190   30.3000 C   0  0  0  0  0  0  0  0  0  0  0  0
   37.7850   25.3290   30.7730 C   0  0  0  0  0  0  0  0  0  0  0  0
   38.0470   24.0620   30.3050 C   0  0  0  0  0  0  0  0  0  0  0  0
   39.0310   23.8500   29.3800 C   0  0  0  0  0  0  0  0  0  0  0  0
   39.8050   24.8890   28.8730 C   0  0  0  0  0  0  0  0  0  0  0  0
   39.5230   26.1540   29.3590 C   0  0  0  0  0  0  0  0  0  0  0  0
   37.4250   23.2800   30.7220 H   0  0  0  0  0  0  0  0  0  0  0  0
   39.1820   22.8290   29.0560 H   0  0  0  0  0  0  0  0  0  0  0  0
   40.5650   24.6890   28.1520 H   0  0  0  0  0  0  0  0  0  0  0  0
   40.5250   27.4890   28.7030 S   0  0  0  0  0  0  0  0  0  0  0  0
   40.0060   28.7360   29.0530 H   0  0  0  0  0  0  0  0  0  0  0  0
  1  2  1  0  0  0  0
  2  3  1  0  0  0  0
  3  4  2  0  0  0  0
  3 15  1  0  0  0  0
  4  8  1  0  0  0  0
  5  9  1  0  0  0  0
  5  4  1  0  0  0  0
  6  5  2  0  0  0  0
  7  6  1  0  0  0  0
  7  2  2  0  0  0  0
 10  6  1  0  0  0  0
 11 17  1  0  0  0  0
 12 11  1  0  0  0  0
 12 18  1  0  0  0  0
 13 12  2  0  0  0  0
 14 15  2  0  0  0  0
 14 13  1  0  0  0  0
 15 16  1  0  0  0  0
 16 11  2  0  0  0  0
 19 13  1  0  0  0  0
 20  7  1  0  0  0  0
 22 23  1  0  0  0  0
 22 21  1  0  0  0  0
 23 20  1  0  0  0  0
 24 28  1  0  0  0  0
 24 23  2  0  0  0  0
 25 24  1  0  0  0  0
 26 27  1  0  0  0  0
 26 25  2  0  0  0  0
 27 22  2  0  0  0  0
 29 25  1  0  0  0  0
 30 26  1  0  0  0  0
 31 32  1  0  0  0  0
 31 27  1  0  0  0  0
M  END
>  <minimizedAffinity>
-5.27238989

$$$$

 OpenBabel03272505133D

 32 34  0  0  0  0  0  0  0  0999 V2000
   37.4920   24.5230   32.7120 Cl  0  0  0  0  0  0  0  0  0  0  0  0
   37.8300   25.4580   34.1450 C   0  0  0  0  0  0  0  0  0  0  0  0
   37.7800   26.8340   34.0310 C   0  0  0  0  0  0  0  0  0  0  0  0
   38.0480   27.5690   35.1660 C   0  0  0  0  0  0  0  0  0  0  0  0
   38.3500   26.9420   36.3500 C   0  0  0  0  0  0  0  0  0  0  0  0
   38.3810   25.5460   36.3840 C   0  0  0  0  0  0  0  0  0  0  0  0
   38.1260   24.7550   35.2980 C   0  0  0  0  0  0  0  0  0  0  0  0
   38.0180   28.6360   35.1130 H   0  0  0  0  0  0  0  0  0  0  0  0
   38.5560   27.5570   37.2180 H   0  0  0  0  0  0  0  0  0  0  0  0
   38.6230   25.0940   37.3370 H   0  0  0  0  0  0  0  0  0  0  0  0
   38.2300   28.1760   30.6830 C   0  0  0  0  0  0  0  0  0  0  0  0
   36.9570   28.6340   30.3160 C   0  0  0  0  0  0  0  0  0  0  0  0
   35.9270   28.4710   31.2530 C   0  0  0  0  0  0  0  0  0  0  0  0
   36.2180   27.8850   32.4500 N   0  0  0  0  0  0  0  0  0  0  0  0
   37.4510   27.4680   32.7420 C   0  0  0  0  0  0  0  0  0  0  0  0
   38.4430   27.6150   31.8640 N   0  0  0  0  0  0  0  0  0  0  0  0
   39.0480   28.2970   29.9580 H   0  0  0  0  0  0  0  0  0  0  0  0
   36.7830   29.0940   29.3490 H   0  0  0  0  0  0  0  0  0  0  0  0
   34.9180   28.8100   31.0180 H   0  0  0  0  0  0  0  0  0  0  0  0
   38.1650   22.9880   35.3400 S   0  0  0  0  0  0  0  0  0  0  0  0
   40.2650   22.2980   33.0790 Cl  0  0  0  0  0  0  0  0  0  0  0  0
   40.6410   22.0880   34.7650 C   0  0  0  0  0  0  0  0  0  0  0  0
   39.7760   22.3660   35.8360 C   0  0  0  0  0  0  0  0  0  0  0  0
   40.1950   22.1560   37.1290 C   0  0  0  0  0  0  0  0  0  0  0  0
   41.4510   21.6780   37.3860 C   0  0  0  0  0  0  0  0  0  0  0  0
   42.3520   21.3830   36.3690 C   0  0  0  0  0  0  0  0  0  0  0  0
   41.9070   21.6020   35.0770 C   0  0  0  0  0  0  0  0  0  0  0  0
   39.4680   22.3960   37.8940 H   0  0  0  0  0  0  0  0  0  0  0  0
   41.7130   21.5370   38.4270 H   0  0  0  0  0  0  0  0  0  0  0  0
   43.3230   21.0110   36.6040 H   0  0  0  0  0  0  0  0  0  0  0  0
   43.0750   21.2220   33.7690 S   0  0  0  0  0  0  0  0  0  0  0  0
   42.4580   21.2310   32.5170 H   0  0  0  0  0  0  0  0  0  0  0  0
  1  2  1  0  0  0  0
  2  7  1  0  0  0  0
  3  2  2  0  0  0  0
  3  4  1  0  0  0  0
  4  5  2  0  0  0  0
  5  6  1  0  0  0  0
  5  9  1  0  0  0  0
  6 10  1  0  0  0  0
  7 20  1  0  0  0  0
  7  6  2  0  0  0  0
  8  4  1  0  0  0  0
 11 16  1  0  0  0  0
 12 11  2  0  0  0  0
 12 13  1  0  0  0  0
 13 14  2  0  0  0  0
 14 15  1  0  0  0  0
 15  3  1  0  0  0  0
 16 15  2  0  0  0  0
 17 11  1  0  0  0  0
 18 12  1  0  0  0  0
 19 13  1  0  0  0  0
 20 23  1  0  0  0  0
 21 22  1  0  0  0  0
 22 27  2  0  0  0  0
 22 23  1  0  0  0  0
 23 24  2  0  0  0  0
 24 25  1  0  0  0  0
 24 28  1  0  0  0  0
 25 29  1  0  0  0  0
 26 30  1  0  0  0  0
 26 25  2  0  0  0  0
 27 26  1  0  0  0  0
 31 27  1  0  0  0  0
 32 31  1  0  0  0  0
M  END
>  <minimizedAffinity>
-5.21607733

$$$$

 OpenBabel03272505133D

 32 34  0  0  0  0  0  0  0  0999 V2000
   37.8650   23.8620   31.9510 Cl  0  0  0  0  0  0  0  0  0  0  0  0
   38.0400   23.4680   33.6410 C   0  0  0  0  0  0  0  0  0  0  0  0
   37.5390   22.2500   34.0620 C   0  0  0  0  0  0  0  0  0  0  0  0
   37.6790   21.9420   35.3980 C   0  0  0  0  0  0  0  0  0  0  0  0
   38.2920   22.8200   36.2580 C   0  0  0  0  0  0  0  0  0  0  0  0
   38.7720   24.0320   35.7540 C   0  0  0  0  0  0  0  0  0  0  0  0
   38.6670   24.4030   34.4420 C   0  0  0  0  0  0  0  0  0  0  0  0
   37.3040   21.0090   35.7590 H   0  0  0  0  0  0  0  0  0  0  0  0
   38.3810   22.5400   37.3010 H   0  0  0  0  0  0  0  0  0  0  0  0
   39.2480   24.6940   36.4660 H   0  0  0  0  0  0  0  0  0  0  0  0
   37.1640   19.6200   31.5820 C   0  0  0  0  0  0  0  0  0  0  0  0
   35.7900   19.5890   31.3090 C   0  0  0  0  0  0  0  0  0  0  0  0
   34.9820   20.5010   32.0040 C   0  0  0  0  0  0  0  0  0  0  0  0
   35.5720   21.3530   32.8910 N   0  0  0  0  0  0  0  0  0  0  0  0
   36.8880   21.3350   33.1080 C   0  0  0  0  0  0  0  0  0  0  0  0
   37.6720   20.4750   32.4570 N   0  0  0  0  0  0  0  0  0  0  0  0
   37.8100   18.9100   31.0440 H   0  0  0  0  0  0  0  0  0  0  0  0
   35.3740   18.8890   30.5930 H   0  0  0  0  0  0  0  0  0  0  0  0
   33.9070   20.5190   31.8300 H   0  0  0  0  0  0  0  0  0  0  0  0
   39.2740   25.9350   33.8040 S   0  0  0  0  0  0  0  0  0  0  0  0
   38.8260   27.1830   30.9330 Cl  0  0  0  0  0  0  0  0  0  0  0  0
   37.8340   27.6390   32.2880 C   0  0  0  0  0  0  0  0  0  0  0  0
   37.9580   27.1410   33.5950 C   0  0  0  0  0  0  0  0  0  0  0  0
   37.1070   27.5830   34.5820 C   0  0  0  0  0  0  0  0  0  0  0  0
   36.1380   28.5080   34.3040 C   0  0  0  0  0  0  0  0  0  0  0  0
   35.9670   29.0390   33.0290 C   0  0  0  0  0  0  0  0  0  0  0  0
   36.8340   28.5770   32.0540 C   0  0  0  0  0  0  0  0  0  0  0  0
   37.2710   27.1490   35.5590 H   0  0  0  0  0  0  0  0  0  0  0  0
   35.5060   28.8110   35.1280 H   0  0  0  0  0  0  0  0  0  0  0  0
   35.2010   29.7570   32.8470 H   0  0  0  0  0  0  0  0  0  0  0  0
   36.6070   29.2650   30.4130 S   0  0  0  0  0  0  0  0  0  0  0  0
   37.6720   28.9380   29.5720 H   0  0  0  0  0  0  0  0  0  0  0  0
  1  2  1  0  0  0  0
  2  3  2  0  0  0  0
  2  7  1  0  0  0  0
  3  4  1  0  0  0  0
  4  8  1  0  0  0  0
  4  5  2  0  0  0  0
  5  9  1  0  0  0  0
  6  5  1  0  0  0  0
  6 10  1  0  0  0  0
  7  6  2  0  0  0  0
 11 16  1  0  0  0  0
 12 11  2  0  0  0  0
 12 13  1  0  0  0  0
 13 14  2  0  0  0  0
 14 15  1  0  0  0  0
 15  3  1  0  0  0  0
 16 15  2  0  0  0  0
 17 11  1  0  0  0  0
 18 12  1  0  0  0  0
 19 13  1  0  0  0  0
 20  7  1  0  0  0  0
 21 22  1  0  0  0  0
 22 23  1  0  0  0  0
 23 20  1  0  0  0  0
 23 24  2  0  0  0  0
 24 28  1  0  0  0  0
 25 24  1  0  0  0  0
 25 29  1  0  0  0  0
 26 25  2  0  0  0  0
 27 22  2  0  0  0  0
 27 26  1  0  0  0  0
 30 26  1  0  0  0  0
 31 27  1  0  0  0  0
 32 31  1  0  0  0  0
M  END
>  <minimizedAffinity>
-5.1568737

$$$$

 OpenBabel03272505133D

 32 34  0  0  0  0  0  0  0  0999 V2000
   36.6080   27.2680   34.5510 Cl  0  0  0  0  0  0  0  0  0  0  0  0
   36.9930   27.8480   32.9510 C   0  0  0  0  0  0  0  0  0  0  0  0
   38.2120   27.4730   32.4180 C   0  0  0  0  0  0  0  0  0  0  0  0
   38.5120   27.9330   31.1540 C   0  0  0  0  0  0  0  0  0  0  0  0
   37.6260   28.7280   30.4700 C   0  0  0  0  0  0  0  0  0  0  0  0
   36.4130   29.0630   31.0780 C   0  0  0  0  0  0  0  0  0  0  0  0
   36.0510   28.6430   32.3280 C   0  0  0  0  0  0  0  0  0  0  0  0
   39.4460   27.6620   30.7110 H   0  0  0  0  0  0  0  0  0  0  0  0
   37.9010   29.0690   29.4780 H   0  0  0  0  0  0  0  0  0  0  0  0
   35.7450   29.6910   30.5030 H   0  0  0  0  0  0  0  0  0  0  0  0
   39.8110   24.4630   33.6810 C   0  0  0  0  0  0  0  0  0  0  0  0
   40.7970   24.9320   34.5590 C   0  0  0  0  0  0  0  0  0  0  0  0
   40.9040   26.3220   34.7110 C   0  0  0  0  0  0  0  0  0  0  0  0
   40.0560   27.1250   34.0070 N   0  0  0  0  0  0  0  0  0  0  0  0
   39.1350   26.6180   33.1850 C   0  0  0  0  0  0  0  0  0  0  0  0
   39.0180   25.2990   33.0270 N   0  0  0  0  0  0  0  0  0  0  0  0
   39.7140   23.3750   33.5520 H   0  0  0  0  0  0  0  0  0  0  0  0
   41.4450   24.2470   35.0940 H   0  0  0  0  0  0  0  0  0  0  0  0
   41.6550   26.7400   35.3810 H   0  0  0  0  0  0  0  0  0  0  0  0
   34.5160   29.0660   33.0980 S   0  0  0  0  0  0  0  0  0  0  0  0
   31.9480   30.1510   34.5880 Cl  0  0  0  0  0  0  0  0  0  0  0  0
   33.5480   30.6660   35.0400 C   0  0  0  0  0  0  0  0  0  0  0  0
   34.7430   30.2400   34.4390 C   0  0  0  0  0  0  0  0  0  0  0  0
   35.9490   30.7240   34.8900 C   0  0  0  0  0  0  0  0  0  0  0  0
   35.9980   31.6190   35.9240 C   0  0  0  0  0  0  0  0  0  0  0  0
   34.8490   32.0780   36.5590 C   0  0  0  0  0  0  0  0  0  0  0  0
   33.6490   31.5770   36.0870 C   0  0  0  0  0  0  0  0  0  0  0  0
   36.8200   30.3450   34.3720 H   0  0  0  0  0  0  0  0  0  0  0  0
   36.9810   31.9570   36.2260 H   0  0  0  0  0  0  0  0  0  0  0  0
   34.9230   32.7760   37.3610 H   0  0  0  0  0  0  0  0  0  0  0  0
   32.1700   32.1730   36.9110 S   0  0  0  0  0  0  0  0  0  0  0  0
   31.0180   31.8160   36.2100 H   0  0  0  0  0  0  0  0  0  0  0  0
  2  1  1  0  0  0  0
  3  2  1  0  0  0  0
  3 15  1  0  0  0  0
  4  3  2  0  0  0  0
  5  6  2  0  0  0  0
  5  4  1  0  0  0  0
  6  7  1  0  0  0  0
  7  2  2  0  0  0  0
  7 20  1  0  0  0  0
  8  4  1  0  0  0  0
  9  5  1  0  0  0  0
 10  6  1  0  0  0  0
 11 12  1  0  0  0  0
 12 13  2  0  0  0  0
 12 18  1  0  0  0  0
 13 19  1  0  0  0  0
 14 13  1  0  0  0  0
 15 14  2  0  0  0  0
 16 15  1  0  0  0  0
 16 11  2  0  0  0  0
 17 11  1  0  0  0  0
 20 23  1  0  0  0  0
 21 22  1  0  0  0  0
 22 27  1  0  0  0  0
 23 24  1  0  0  0  0
 23 22  2  0  0  0  0
 24 25  2  0  0  0  0
 25 29  1  0  0  0  0
 25 26  1  0  0  0  0
 26 30  1  0  0  0  0
 27 26  2  0  0  0  0
 27 31  1  0  0  0  0
 28 24  1  0  0  0  0
 32 31  1  0  0  0  0
M  END
>  <minimizedAffinity>
-5.12839937

$$$$

 OpenBabel03272505133D

 32 34  0  0  0  0  0  0  0  0999 V2000
   36.3460   28.0970   34.7050 Cl  0  0  0  0  0  0  0  0  0  0  0  0
   36.1920   28.9480   33.1910 C   0  0  0  0  0  0  0  0  0  0  0  0
   35.5570   30.1750   33.2160 C   0  0  0  0  0  0  0  0  0  0  0  0
   35.4370   30.8450   32.0170 C   0  0  0  0  0  0  0  0  0  0  0  0
   35.9330   30.3000   30.8580 C   0  0  0  0  0  0  0  0  0  0  0  0
   36.5630   29.0530   30.9160 C   0  0  0  0  0  0  0  0  0  0  0  0
   36.7160   28.3340   32.0690 C   0  0  0  0  0  0  0  0  0  0  0  0
   34.9510   31.7970   31.9990 H   0  0  0  0  0  0  0  0  0  0  0  0
   35.8170   30.8580   29.9370 H   0  0  0  0  0  0  0  0  0  0  0  0
   36.9390   28.6610   29.9800 H   0  0  0  0  0  0  0  0  0  0  0  0
   33.2230   30.9290   35.8990 C   0  0  0  0  0  0  0  0  0  0  0  0
   33.9660   31.7000   36.8020 C   0  0  0  0  0  0  0  0  0  0  0  0
   35.3030   31.9600   36.4680 C   0  0  0  0  0  0  0  0  0  0  0  0
   35.7960   31.4550   35.3010 N   0  0  0  0  0  0  0  0  0  0  0  0
   35.0380   30.7270   34.4800 C   0  0  0  0  0  0  0  0  0  0  0  0
   33.7650   30.4690   34.7810 N   0  0  0  0  0  0  0  0  0  0  0  0
   32.1730   30.7170   36.1480 H   0  0  0  0  0  0  0  0  0  0  0  0
   33.5230   32.0770   37.7180 H   0  0  0  0  0  0  0  0  0  0  0  0
   35.9260   32.5550   37.1360 H   0  0  0  0  0  0  0  0  0  0  0  0
   37.5130   26.7580   32.1440 S   0  0  0  0  0  0  0  0  0  0  0  0
   39.9070   27.7140   30.3130 Cl  0  0  0  0  0  0  0  0  0  0  0  0
   40.1490   27.3030   31.9860 C   0  0  0  0  0  0  0  0  0  0  0  0
   39.1510   26.8700   32.8740 C   0  0  0  0  0  0  0  0  0  0  0  0
   39.4730   26.5760   34.1790 C   0  0  0  0  0  0  0  0  0  0  0  0
   40.7600   26.7000   34.6240 C   0  0  0  0  0  0  0  0  0  0  0  0
   41.7920   27.1230   33.7930 C   0  0  0  0  0  0  0  0  0  0  0  0
   41.4430   27.4130   32.4860 C   0  0  0  0  0  0  0  0  0  0  0  0
   38.6440   26.2500   34.7950 H   0  0  0  0  0  0  0  0  0  0  0  0
   40.9400   26.4500   35.6620 H   0  0  0  0  0  0  0  0  0  0  0  0
   42.7840   27.2080   34.1730 H   0  0  0  0  0  0  0  0  0  0  0  0
   42.7780   27.9590   31.4190 S   0  0  0  0  0  0  0  0  0  0  0  0
   42.3850   27.9810   30.0800 H   0  0  0  0  0  0  0  0  0  0  0  0
  2  3  1  0  0  0  0
  2  1  1  0  0  0  0
  3 15  1  0  0  0  0
  4  3  2  0  0  0  0
  5  6  2  0  0  0  0
  5  4  1  0  0  0  0
  6  7  1  0  0  0  0
  7 20  1  0  0  0  0
  7  2  2  0  0  0  0
  8  4  1  0  0  0  0
  9  5  1  0  0  0  0
 10  6  1  0  0  0  0
 11 17  1  0  0  0  0
 11 12  1  0  0  0  0
 12 18  1  0  0  0  0
 13 12  2  0  0  0  0
 13 19  1  0  0  0  0
 14 13  1  0  0  0  0
 15 16  1  0  0  0  0
 15 14  2  0  0  0  0
 16 11  2  0  0  0  0
 20 23  1  0  0  0  0
 21 22  1  0  0  0  0
 22 27  2  0  0  0  0
 22 23  1  0  0  0  0
 23 24  2  0  0  0  0
 24 25  1  0  0  0  0
 24 28  1  0  0  0  0
 25 29  1  0  0  0  0
 26 30  1  0  0  0  0
 26 25  2  0  0  0  0
 27 26  1  0  0  0  0
 31 27  1  0  0  0  0
 32 31  1  0  0  0  0
M  END
>  <minimizedAffinity>
-5.10782003

$$$$
