
 OpenBabel03272501533D

 25 26  0  0  1  0  0  0  0  0999 V2000
   38.3080   24.5600   35.7150 N   0  0  0  0  0  0  0  0  0  0  0  0
   39.7050   24.1810   35.7100 C   0  0  0  0  0  0  0  0  0  0  0  0
   39.9450   22.7090   35.7230 C   0  0  0  0  0  0  0  0  0  0  0  0
   38.9720   21.8960   36.3720 N   0  0  0  0  0  0  0  0  0  0  0  0
   37.6020   22.3550   36.1560 C   0  0  0  0  0  0  0  0  0  0  0  0
   37.5760   23.7760   36.6650 C   0  0  1  0  0  0  0  0  0  0  0  0
   40.1250   24.5730   34.7610 H   0  0  0  0  0  0  0  0  0  0  0  0
   40.2320   24.7100   36.5260 H   0  0  0  0  0  0  0  0  0  0  0  0
   40.0680   22.3200   34.6710 H   0  0  0  0  0  0  0  0  0  0  0  0
   40.9290   22.5330   36.2110 H   0  0  0  0  0  0  0  0  0  0  0  0
   39.1160   20.9130   36.0300 H   0  0  0  0  0  0  0  0  0  0  0  0
   36.9410   21.7310   36.7840 H   0  0  0  0  0  0  0  0  0  0  0  0
   37.3250   22.3540   35.0840 H   0  0  0  0  0  0  0  0  0  0  0  0
   36.5720   24.1780   36.8020 H   0  0  0  0  0  0  0  0  0  0  0  0
   37.7790   25.5760   34.8740 C   0  0  0  0  0  0  0  0  0  0  0  0
   37.4820   26.8720   35.3430 C   0  0  0  0  0  0  0  0  0  0  0  0
   36.9670   27.8000   34.4440 C   0  0  0  0  0  0  0  0  0  0  0  0
   36.7740   27.4110   33.1510 N   0  0  0  0  0  0  0  0  0  0  0  0
   37.0730   26.1520   32.7420 C   0  0  0  0  0  0  0  0  0  0  0  0
   37.5690   25.2340   33.5740 N   0  0  0  0  0  0  0  0  0  0  0  0
   37.6760   27.0630   36.3820 H   0  0  0  0  0  0  0  0  0  0  0  0
   36.7480   28.7780   34.8180 H   0  0  0  0  0  0  0  0  0  0  0  0
   36.9040   25.8980   31.7210 H   0  0  0  0  0  0  0  0  0  0  0  0
   38.3710   23.7150   38.3030 S   0  0  0  0  0  0  0  0  0  0  0  0
   38.4340   24.9710   38.9120 H   0  0  0  0  0  0  0  0  0  0  0  0
  1  6  1  0  0  0  0
  2  1  1  0  0  0  0
  2  3  1  0  0  0  0
  2  8  1  0  0  0  0
  3 10  1  0  0  0  0
  3  4  1  0  0  0  0
  5  4  1  0  0  0  0
  5  6  1  0  0  0  0
  5 12  1  0  0  0  0
  6 14  1  1  0  0  0
  6 24  1  0  0  0  0
  7  2  1  0  0  0  0
  9  3  1  0  0  0  0
 11  4  1  0  0  0  0
 13  5  1  0  0  0  0
 15 16  1  0  0  0  0
 15  1  1  0  0  0  0
 16 21  1  0  0  0  0
 17 22  1  0  0  0  0
 17 16  2  0  0  0  0
 18 17  1  0  0  0  0
 19 18  2  0  0  0  0
 19 20  1  0  0  0  0
 20 15  2  0  0  0  0
 23 19  1  0  0  0  0
 24 25  1  0  0  0  0
M  END
>  <minimizedAffinity>
-3.90317035

$$$$

 OpenBabel03272501533D

 25 26  0  0  1  0  0  0  0  0999 V2000
   38.1410   24.4540   34.7750 N   0  0  0  0  0  0  0  0  0  0  0  0
   38.0860   23.2070   34.0410 C   0  0  0  0  0  0  0  0  0  0  0  0
   37.7260   22.0190   34.8670 C   0  0  0  0  0  0  0  0  0  0  0  0
   38.1090   22.0410   36.2400 N   0  0  0  0  0  0  0  0  0  0  0  0
   37.9730   23.3580   36.8550 C   0  0  0  0  0  0  0  0  0  0  0  0
   38.8300   24.2770   36.0180 C   0  0  1  0  0  0  0  0  0  0  0  0
   37.2850   23.3340   33.2830 H   0  0  0  0  0  0  0  0  0  0  0  0
   39.0280   23.0710   33.4780 H   0  0  0  0  0  0  0  0  0  0  0  0
   36.6140   21.8320   34.8270 H   0  0  0  0  0  0  0  0  0  0  0  0
   38.1850   21.1260   34.3900 H   0  0  0  0  0  0  0  0  0  0  0  0
   37.5300   21.3150   36.7320 H   0  0  0  0  0  0  0  0  0  0  0  0
   38.3950   23.2930   37.8740 H   0  0  0  0  0  0  0  0  0  0  0  0
   36.9280   23.7250   36.8320 H   0  0  0  0  0  0  0  0  0  0  0  0
   39.0320   25.2410   36.4860 H   0  0  0  0  0  0  0  0  0  0  0  0
   37.5740   25.6630   34.2900 C   0  0  0  0  0  0  0  0  0  0  0  0
   37.3710   26.7900   35.1120 C   0  0  0  0  0  0  0  0  0  0  0  0
   36.8090   27.9300   34.5480 C   0  0  0  0  0  0  0  0  0  0  0  0
   36.4810   27.9020   33.2240 N   0  0  0  0  0  0  0  0  0  0  0  0
   36.6930   26.7950   32.4680 C   0  0  0  0  0  0  0  0  0  0  0  0
   37.2290   25.6830   32.9730 N   0  0  0  0  0  0  0  0  0  0  0  0
   37.6690   26.6950   36.1400 H   0  0  0  0  0  0  0  0  0  0  0  0
   36.6630   28.7750   35.1870 H   0  0  0  0  0  0  0  0  0  0  0  0
   36.4190   26.8250   31.4390 H   0  0  0  0  0  0  0  0  0  0  0  0
   40.4230   23.4110   35.8340 S   0  0  0  0  0  0  0  0  0  0  0  0
   41.3380   24.1370   35.0670 H   0  0  0  0  0  0  0  0  0  0  0  0
  1  6  1  0  0  0  0
  2  1  1  0  0  0  0
  2  3  1  0  0  0  0
  3  4  1  0  0  0  0
  4 11  1  0  0  0  0
  4  5  1  0  0  0  0
  5 12  1  0  0  0  0
  6 14  1  1  0  0  0
  6  5  1  0  0  0  0
  7  2  1  0  0  0  0
  8  2  1  0  0  0  0
  9  3  1  0  0  0  0
 10  3  1  0  0  0  0
 13  5  1  0  0  0  0
 15  1  1  0  0  0  0
 15 16  1  0  0  0  0
 16 21  1  0  0  0  0
 17 16  2  0  0  0  0
 17 22  1  0  0  0  0
 18 17  1  0  0  0  0
 19 20  1  0  0  0  0
 19 18  2  0  0  0  0
 20 15  2  0  0  0  0
 23 19  1  0  0  0  0
 24  6  1  0  0  0  0
 25 24  1  0  0  0  0
M  END
>  <minimizedAffinity>
-3.81594372

$$$$

 OpenBabel03272501533D

 25 26  0  0  1  0  0  0  0  0999 V2000
   39.0620   24.4070   35.9250 N   0  0  0  0  0  0  0  0  0  0  0  0
   38.0750   24.7460   36.9270 C   0  0  0  0  0  0  0  0  0  0  0  0
   38.2580   24.0510   38.2340 C   0  0  0  0  0  0  0  0  0  0  0  0
   38.8530   22.7560   38.2050 N   0  0  0  0  0  0  0  0  0  0  0  0
   39.9250   22.6370   37.2200 C   0  0  0  0  0  0  0  0  0  0  0  0
   39.2890   22.9930   35.8980 C   0  0  1  0  0  0  0  0  0  0  0  0
   38.1910   25.8340   37.1160 H   0  0  0  0  0  0  0  0  0  0  0  0
   37.0620   24.6100   36.5050 H   0  0  0  0  0  0  0  0  0  0  0  0
   38.8650   24.6890   38.9390 H   0  0  0  0  0  0  0  0  0  0  0  0
   37.2580   23.9660   38.7130 H   0  0  0  0  0  0  0  0  0  0  0  0
   39.1890   22.5510   39.1790 H   0  0  0  0  0  0  0  0  0  0  0  0
   40.2400   21.5790   37.2000 H   0  0  0  0  0  0  0  0  0  0  0  0
   40.7550   23.3420   37.4190 H   0  0  0  0  0  0  0  0  0  0  0  0
   39.8900   22.7160   35.0310 H   0  0  0  0  0  0  0  0  0  0  0  0
   39.6950   25.3780   35.1020 C   0  0  0  0  0  0  0  0  0  0  0  0
   41.0970   25.4960   35.0080 C   0  0  0  0  0  0  0  0  0  0  0  0
   41.6250   26.4770   34.1750 C   0  0  0  0  0  0  0  0  0  0  0  0
   40.7600   27.2790   33.4910 N   0  0  0  0  0  0  0  0  0  0  0  0
   39.4160   27.1330   33.6120 C   0  0  0  0  0  0  0  0  0  0  0  0
   38.8720   26.2030   34.4000 N   0  0  0  0  0  0  0  0  0  0  0  0
   41.6770   24.8070   35.5930 H   0  0  0  0  0  0  0  0  0  0  0  0
   42.6900   26.5510   34.1160 H   0  0  0  0  0  0  0  0  0  0  0  0
   38.7840   27.7850   33.0560 H   0  0  0  0  0  0  0  0  0  0  0  0
   37.7470   22.0240   35.8300 S   0  0  0  0  0  0  0  0  0  0  0  0
   37.0280   22.2510   34.6540 H   0  0  0  0  0  0  0  0  0  0  0  0
  1  2  1  0  0  0  0
  2  7  1  0  0  0  0
  2  3  1  0  0  0  0
  3 10  1  0  0  0  0
  3  9  1  0  0  0  0
  4  3  1  0  0  0  0
  4 11  1  0  0  0  0
  5 13  1  0  0  0  0
  5  4  1  0  0  0  0
  6 14  1  6  0  0  0
  6  1  1  0  0  0  0
  6  5  1  0  0  0  0
  8  2  1  0  0  0  0
 12  5  1  0  0  0  0
 15  1  1  0  0  0  0
 16 15  1  0  0  0  0
 16 21  1  0  0  0  0
 17 16  2  0  0  0  0
 18 19  2  0  0  0  0
 18 17  1  0  0  0  0
 19 20  1  0  0  0  0
 20 15  2  0  0  0  0
 22 17  1  0  0  0  0
 23 19  1  0  0  0  0
 24  6  1  0  0  0  0
 25 24  1  0  0  0  0
M  END
>  <minimizedAffinity>
-3.78757405

$$$$

 OpenBabel03272501533D

 25 26  0  0  1  0  0  0  0  0999 V2000
   38.4990   25.7510   35.1170 N   0  0  0  0  0  0  0  0  0  0  0  0
   38.0440   27.0820   35.4610 C   0  0  0  0  0  0  0  0  0  0  0  0
   36.9120   27.5810   34.6290 C   0  0  0  0  0  0  0  0  0  0  0  0
   36.8310   27.1080   33.2870 N   0  0  0  0  0  0  0  0  0  0  0  0
   37.2010   25.7010   33.1500 C   0  0  0  0  0  0  0  0  0  0  0  0
   38.6060   25.6060   33.6950 C   0  0  1  0  0  0  0  0  0  0  0  0
   37.6780   27.0190   36.5070 H   0  0  0  0  0  0  0  0  0  0  0  0
   38.9070   27.7730   35.4730 H   0  0  0  0  0  0  0  0  0  0  0  0
   35.9250   27.3580   35.1290 H   0  0  0  0  0  0  0  0  0  0  0  0
   36.9760   28.6910   34.6040 H   0  0  0  0  0  0  0  0  0  0  0  0
   35.8510   27.2910   32.9550 H   0  0  0  0  0  0  0  0  0  0  0  0
   37.2130   25.4660   32.0710 H   0  0  0  0  0  0  0  0  0  0  0  0
   36.5420   25.0360   33.7410 H   0  0  0  0  0  0  0  0  0  0  0  0
   39.1160   24.6770   33.4410 H   0  0  0  0  0  0  0  0  0  0  0  0
   38.7870   24.7560   36.0890 C   0  0  0  0  0  0  0  0  0  0  0  0
   38.0310   24.6050   37.2690 C   0  0  0  0  0  0  0  0  0  0  0  0
   38.3890   23.6010   38.1630 C   0  0  0  0  0  0  0  0  0  0  0  0
   39.4560   22.8110   37.8530 N   0  0  0  0  0  0  0  0  0  0  0  0
   40.1580   22.9900   36.7060 C   0  0  0  0  0  0  0  0  0  0  0  0
   39.8450   23.9420   35.8240 N   0  0  0  0  0  0  0  0  0  0  0  0
   37.2120   25.2860   37.4050 H   0  0  0  0  0  0  0  0  0  0  0  0
   37.8030   23.5020   39.0520 H   0  0  0  0  0  0  0  0  0  0  0  0
   40.9840   22.3460   36.5110 H   0  0  0  0  0  0  0  0  0  0  0  0
   39.5210   26.9710   32.9060 S   0  0  0  0  0  0  0  0  0  0  0  0
   40.8540   27.0260   33.3190 H   0  0  0  0  0  0  0  0  0  0  0  0
  1  2  1  0  0  0  0
  1 15  1  0  0  0  0
  2  8  1  0  0  0  0
  2  7  1  0  0  0  0
  3  9  1  0  0  0  0
  3  2  1  0  0  0  0
  4  3  1  0  0  0  0
  5  4  1  0  0  0  0
  5  6  1  0  0  0  0
  5 13  1  0  0  0  0
  6 14  1  6  0  0  0
  6  1  1  0  0  0  0
 10  3  1  0  0  0  0
 11  4  1  0  0  0  0
 12  5  1  0  0  0  0
 15 16  1  0  0  0  0
 16 21  1  0  0  0  0
 16 17  2  0  0  0  0
 17 22  1  0  0  0  0
 18 17  1  0  0  0  0
 19 18  2  0  0  0  0
 20 15  2  0  0  0  0
 20 19  1  0  0  0  0
 23 19  1  0  0  0  0
 24 25  1  0  0  0  0
 24  6  1  0  0  0  0
M  END
>  <minimizedAffinity>
-3.75090837

$$$$

 OpenBabel03272501533D

 25 26  0  0  1  0  0  0  0  0999 V2000
   37.1770   25.1700   32.6400 N   0  0  0  0  0  0  0  0  0  0  0  0
   36.2400   25.7770   31.7190 C   0  0  0  0  0  0  0  0  0  0  0  0
   35.2290   24.8360   31.1570 C   0  0  0  0  0  0  0  0  0  0  0  0
   35.6190   23.4740   31.0070 N   0  0  0  0  0  0  0  0  0  0  0  0
   36.4570   22.9910   32.1020 C   0  0  0  0  0  0  0  0  0  0  0  0
   37.6480   23.9170   32.1280 C   0  0  1  0  0  0  0  0  0  0  0  0
   35.6870   26.5410   32.3040 H   0  0  0  0  0  0  0  0  0  0  0  0
   36.7980   26.3270   30.9380 H   0  0  0  0  0  0  0  0  0  0  0  0
   34.2860   24.8540   31.7760 H   0  0  0  0  0  0  0  0  0  0  0  0
   34.9250   25.2240   30.1600 H   0  0  0  0  0  0  0  0  0  0  0  0
   34.7380   22.9110   30.9080 H   0  0  0  0  0  0  0  0  0  0  0  0
   36.7920   21.9720   31.8380 H   0  0  0  0  0  0  0  0  0  0  0  0
   35.9390   23.0470   33.0800 H   0  0  0  0  0  0  0  0  0  0  0  0
   38.4820   23.5480   32.7250 H   0  0  0  0  0  0  0  0  0  0  0  0
   37.5480   25.7700   33.8740 C   0  0  0  0  0  0  0  0  0  0  0  0
   37.4010   27.1500   34.1230 C   0  0  0  0  0  0  0  0  0  0  0  0
   37.7930   27.6450   35.3620 C   0  0  0  0  0  0  0  0  0  0  0  0
   38.3010   26.7700   36.2770 N   0  0  0  0  0  0  0  0  0  0  0  0
   38.4260   25.4490   35.9960 C   0  0  0  0  0  0  0  0  0  0  0  0
   38.0620   24.9360   34.8190 N   0  0  0  0  0  0  0  0  0  0  0  0
   36.9880   27.7400   33.3260 H   0  0  0  0  0  0  0  0  0  0  0  0
   37.6730   28.6940   35.5330 H   0  0  0  0  0  0  0  0  0  0  0  0
   38.8290   24.8080   36.7460 H   0  0  0  0  0  0  0  0  0  0  0  0
   38.2140   24.0210   30.3990 S   0  0  0  0  0  0  0  0  0  0  0  0
   39.3210   24.8590   30.2500 H   0  0  0  0  0  0  0  0  0  0  0  0
  1 15  1  0  0  0  0
  2  7  1  0  0  0  0
  2  1  1  0  0  0  0
  3  2  1  0  0  0  0
  3  9  1  0  0  0  0
  4  3  1  0  0  0  0
  4  5  1  0  0  0  0
  5  6  1  0  0  0  0
  5 13  1  0  0  0  0
  6  1  1  0  0  0  0
  6 14  1  1  0  0  0
  8  2  1  0  0  0  0
 10  3  1  0  0  0  0
 11  4  1  0  0  0  0
 12  5  1  0  0  0  0
 15 16  2  0  0  0  0
 15 20  1  0  0  0  0
 16 17  1  0  0  0  0
 17 22  1  0  0  0  0
 17 18  2  0  0  0  0
 19 18  1  0  0  0  0
 19 23  1  0  0  0  0
 20 19  2  0  0  0  0
 21 16  1  0  0  0  0
 24  6  1  0  0  0  0
 25 24  1  0  0  0  0
M  END
>  <minimizedAffinity>
-3.6628015

$$$$

 OpenBabel03272501533D

 25 26  0  0  1  0  0  0  0  0999 V2000
   37.8940   25.7850   33.9180 N   0  0  0  0  0  0  0  0  0  0  0  0
   38.1780   24.8890   35.0190 C   0  0  0  0  0  0  0  0  0  0  0  0
   38.1100   25.5250   36.3660 C   0  0  0  0  0  0  0  0  0  0  0  0
   38.4370   26.9100   36.4500 N   0  0  0  0  0  0  0  0  0  0  0  0
   37.9540   27.6860   35.3100 C   0  0  0  0  0  0  0  0  0  0  0  0
   38.5720   27.0350   34.0970 C   0  0  1  0  0  0  0  0  0  0  0  0
   37.3920   24.1060   34.9860 H   0  0  0  0  0  0  0  0  0  0  0  0
   39.1390   24.3740   34.8340 H   0  0  0  0  0  0  0  0  0  0  0  0
   37.0840   25.3900   36.8150 H   0  0  0  0  0  0  0  0  0  0  0  0
   38.7940   24.9630   37.0390 H   0  0  0  0  0  0  0  0  0  0  0  0
   38.0490   27.2630   37.3600 H   0  0  0  0  0  0  0  0  0  0  0  0
   38.3510   28.7110   35.4160 H   0  0  0  0  0  0  0  0  0  0  0  0
   36.8520   27.6460   35.2160 H   0  0  0  0  0  0  0  0  0  0  0  0
   38.5090   27.6390   33.1910 H   0  0  0  0  0  0  0  0  0  0  0  0
   37.0510   25.4320   32.8300 C   0  0  0  0  0  0  0  0  0  0  0  0
   36.9180   24.1050   32.3710 C   0  0  0  0  0  0  0  0  0  0  0  0
   36.0680   23.8570   31.2990 C   0  0  0  0  0  0  0  0  0  0  0  0
   35.4030   24.9100   30.7430 N   0  0  0  0  0  0  0  0  0  0  0  0
   35.5600   26.1720   31.2150 C   0  0  0  0  0  0  0  0  0  0  0  0
   36.3670   26.4510   32.2420 N   0  0  0  0  0  0  0  0  0  0  0  0
   37.4910   23.3590   32.8880 H   0  0  0  0  0  0  0  0  0  0  0  0
   35.9800   22.8450   30.9650 H   0  0  0  0  0  0  0  0  0  0  0  0
   35.0180   26.9600   30.7450 H   0  0  0  0  0  0  0  0  0  0  0  0
   40.3370   26.8370   34.5040 S   0  0  0  0  0  0  0  0  0  0  0  0
   41.0570   26.2330   33.4700 H   0  0  0  0  0  0  0  0  0  0  0  0
  1  6  1  0  0  0  0
  1  2  1  0  0  0  0
  2  3  1  0  0  0  0
  3  4  1  0  0  0  0
  3  9  1  0  0  0  0
  3 10  1  0  0  0  0
  4 11  1  0  0  0  0
  5 12  1  0  0  0  0
  5  4  1  0  0  0  0
  6 14  1  6  0  0  0
  6 24  1  0  0  0  0
  6  5  1  0  0  0  0
  7  2  1  0  0  0  0
  8  2  1  0  0  0  0
 13  5  1  0  0  0  0
 15  1  1  0  0  0  0
 16 15  1  0  0  0  0
 16 21  1  0  0  0  0
 17 16  2  0  0  0  0
 18 19  2  0  0  0  0
 18 17  1  0  0  0  0
 19 20  1  0  0  0  0
 20 15  2  0  0  0  0
 22 17  1  0  0  0  0
 23 19  1  0  0  0  0
 25 24  1  0  0  0  0
M  END
>  <minimizedAffinity>
-3.63900399

$$$$

 OpenBabel03272501533D

 25 26  0  0  1  0  0  0  0  0999 V2000
   38.4360   25.3380   35.0560 N   0  0  0  0  0  0  0  0  0  0  0  0
   37.9110   24.8610   33.7940 C   0  0  0  0  0  0  0  0  0  0  0  0
   38.5010   25.5170   32.5920 C   0  0  0  0  0  0  0  0  0  0  0  0
   38.9390   26.8650   32.7360 N   0  0  0  0  0  0  0  0  0  0  0  0
   39.5660   27.1330   34.0280 C   0  0  0  0  0  0  0  0  0  0  0  0
   38.5240   26.7690   35.0570 C   0  0  1  0  0  0  0  0  0  0  0  0
   38.1740   23.7840   33.7420 H   0  0  0  0  0  0  0  0  0  0  0  0
   36.8060   24.9110   33.8140 H   0  0  0  0  0  0  0  0  0  0  0  0
   39.3720   24.9160   32.2010 H   0  0  0  0  0  0  0  0  0  0  0  0
   37.7400   25.4810   31.7820 H   0  0  0  0  0  0  0  0  0  0  0  0
   39.5890   27.0640   31.9340 H   0  0  0  0  0  0  0  0  0  0  0  0
   39.7670   28.2180   34.0800 H   0  0  0  0  0  0  0  0  0  0  0  0
   40.4650   26.5080   34.1930 H   0  0  0  0  0  0  0  0  0  0  0  0
   38.7440   27.1400   36.0580 H   0  0  0  0  0  0  0  0  0  0  0  0
   38.8020   24.4710   36.1210 C   0  0  0  0  0  0  0  0  0  0  0  0
   38.0730   24.3970   37.3250 C   0  0  0  0  0  0  0  0  0  0  0  0
   38.5080   23.5170   38.3100 C   0  0  0  0  0  0  0  0  0  0  0  0
   39.6210   22.7670   38.0620 N   0  0  0  0  0  0  0  0  0  0  0  0
   40.2930   22.8700   36.8880 C   0  0  0  0  0  0  0  0  0  0  0  0
   39.9070   23.7020   35.9190 N   0  0  0  0  0  0  0  0  0  0  0  0
   37.2130   25.0350   37.4060 H   0  0  0  0  0  0  0  0  0  0  0  0
   37.9430   23.4740   39.2170 H   0  0  0  0  0  0  0  0  0  0  0  0
   41.1560   22.2620   36.7440 H   0  0  0  0  0  0  0  0  0  0  0  0
   36.9910   27.5780   34.4950 S   0  0  0  0  0  0  0  0  0  0  0  0
   35.9130   27.3280   35.3490 H   0  0  0  0  0  0  0  0  0  0  0  0
  1  6  1  0  0  0  0
  1 15  1  0  0  0  0
  2  8  1  0  0  0  0
  2  1  1  0  0  0  0
  3  4  1  0  0  0  0
  3  2  1  0  0  0  0
  4  5  1  0  0  0  0
  5 12  1  0  0  0  0
  5 13  1  0  0  0  0
  5  6  1  0  0  0  0
  6 14  1  1  0  0  0
  7  2  1  0  0  0  0
  9  3  1  0  0  0  0
 10  3  1  0  0  0  0
 11  4  1  0  0  0  0
 15 16  1  0  0  0  0
 16 21  1  0  0  0  0
 16 17  2  0  0  0  0
 17 22  1  0  0  0  0
 18 17  1  0  0  0  0
 19 18  2  0  0  0  0
 20 15  2  0  0  0  0
 20 19  1  0  0  0  0
 23 19  1  0  0  0  0
 24  6  1  0  0  0  0
 24 25  1  0  0  0  0
M  END
>  <minimizedAffinity>
-3.62663341

$$$$

 OpenBabel03272501533D

 25 26  0  0  1  0  0  0  0  0999 V2000
   38.9690   24.9520   34.7550 N   0  0  0  0  0  0  0  0  0  0  0  0
   40.0850   25.7230   34.2490 C   0  0  0  0  0  0  0  0  0  0  0  0
   39.7020   27.0070   33.5950 C   0  0  0  0  0  0  0  0  0  0  0  0
   38.4310   27.0570   32.9530 N   0  0  0  0  0  0  0  0  0  0  0  0
   37.3910   26.3310   33.6770 C   0  0  0  0  0  0  0  0  0  0  0  0
   37.9040   24.9170   33.7970 C   0  0  1  0  0  0  0  0  0  0  0  0
   40.7060   25.9780   35.1330 H   0  0  0  0  0  0  0  0  0  0  0  0
   40.7120   25.0810   33.6030 H   0  0  0  0  0  0  0  0  0  0  0  0
   39.7420   27.8560   34.3370 H   0  0  0  0  0  0  0  0  0  0  0  0
   40.4840   27.2470   32.8420 H   0  0  0  0  0  0  0  0  0  0  0  0
   38.1890   28.0720   32.8290 H   0  0  0  0  0  0  0  0  0  0  0  0
   36.4830   26.3370   33.0480 H   0  0  0  0  0  0  0  0  0  0  0  0
   37.2270   26.7390   34.6940 H   0  0  0  0  0  0  0  0  0  0  0  0
   37.1440   24.1940   34.0940 H   0  0  0  0  0  0  0  0  0  0  0  0
   38.9720   24.3330   36.0350 C   0  0  0  0  0  0  0  0  0  0  0  0
   39.9030   23.3370   36.3950 C   0  0  0  0  0  0  0  0  0  0  0  0
   39.8280   22.7900   37.6710 C   0  0  0  0  0  0  0  0  0  0  0  0
   38.8550   23.2440   38.5130 N   0  0  0  0  0  0  0  0  0  0  0  0
   37.9790   24.2040   38.1260 C   0  0  0  0  0  0  0  0  0  0  0  0
   38.0190   24.7540   36.9100 N   0  0  0  0  0  0  0  0  0  0  0  0
   40.6230   23.0610   35.6480 H   0  0  0  0  0  0  0  0  0  0  0  0
   40.5420   22.0360   37.9260 H   0  0  0  0  0  0  0  0  0  0  0  0
   37.2380   24.5240   38.8220 H   0  0  0  0  0  0  0  0  0  0  0  0
   38.4660   24.4660   32.1230 S   0  0  0  0  0  0  0  0  0  0  0  0
   38.9840   23.1710   32.0660 H   0  0  0  0  0  0  0  0  0  0  0  0
  1 15  1  0  0  0  0
  2  1  1  0  0  0  0
  2  7  1  0  0  0  0
  3  2  1  0  0  0  0
  3  9  1  0  0  0  0
  4  3  1  0  0  0  0
  4  5  1  0  0  0  0
  5  6  1  0  0  0  0
  5 13  1  0  0  0  0
  6 14  1  1  0  0  0
  6  1  1  0  0  0  0
  8  2  1  0  0  0  0
 10  3  1  0  0  0  0
 11  4  1  0  0  0  0
 12  5  1  0  0  0  0
 15 16  2  0  0  0  0
 15 20  1  0  0  0  0
 16 17  1  0  0  0  0
 17 22  1  0  0  0  0
 17 18  2  0  0  0  0
 19 18  1  0  0  0  0
 19 23  1  0  0  0  0
 20 19  2  0  0  0  0
 21 16  1  0  0  0  0
 24  6  1  0  0  0  0
 25 24  1  0  0  0  0
M  END
>  <minimizedAffinity>
-3.59435105

$$$$

 OpenBabel03272501533D

 25 26  0  0  1  0  0  0  0  0999 V2000
   38.8900   24.4610   35.5530 N   0  0  0  0  0  0  0  0  0  0  0  0
   40.1580   23.8510   35.8900 C   0  0  0  0  0  0  0  0  0  0  0  0
   40.1100   22.3680   36.0410 C   0  0  0  0  0  0  0  0  0  0  0  0
   38.8850   21.7990   36.4940 N   0  0  0  0  0  0  0  0  0  0  0  0
   37.7040   22.4610   35.9440 C   0  0  0  0  0  0  0  0  0  0  0  0
   37.8360   23.9090   36.3520 C   0  0  1  0  0  0  0  0  0  0  0  0
   40.8390   24.0710   35.0420 H   0  0  0  0  0  0  0  0  0  0  0  0
   40.5870   24.3600   36.7740 H   0  0  0  0  0  0  0  0  0  0  0  0
   40.3810   21.8630   35.0690 H   0  0  0  0  0  0  0  0  0  0  0  0
   40.9150   22.0750   36.7510 H   0  0  0  0  0  0  0  0  0  0  0  0
   38.9120   20.7770   36.2510 H   0  0  0  0  0  0  0  0  0  0  0  0
   36.8190   22.0230   36.4380 H   0  0  0  0  0  0  0  0  0  0  0  0
   37.6690   22.4030   34.8390 H   0  0  0  0  0  0  0  0  0  0  0  0
   36.9200   24.4870   36.2320 H   0  0  0  0  0  0  0  0  0  0  0  0
   38.7540   25.4650   34.5570 C   0  0  0  0  0  0  0  0  0  0  0  0
   39.8620   26.1260   33.9880 C   0  0  0  0  0  0  0  0  0  0  0  0
   39.6300   27.0950   33.0180 C   0  0  0  0  0  0  0  0  0  0  0  0
   38.3400   27.3600   32.6640 N   0  0  0  0  0  0  0  0  0  0  0  0
   37.3020   26.7010   33.2380 C   0  0  0  0  0  0  0  0  0  0  0  0
   37.4840   25.7640   34.1710 N   0  0  0  0  0  0  0  0  0  0  0  0
   40.8320   25.8330   34.3460 H   0  0  0  0  0  0  0  0  0  0  0  0
   40.4830   27.5850   32.5980 H   0  0  0  0  0  0  0  0  0  0  0  0
   36.3130   26.9450   32.9250 H   0  0  0  0  0  0  0  0  0  0  0  0
   38.2340   23.8730   38.1300 S   0  0  0  0  0  0  0  0  0  0  0  0
   38.3980   25.1530   38.6650 H   0  0  0  0  0  0  0  0  0  0  0  0
  1  2  1  0  0  0  0
  1  6  1  0  0  0  0
  2  3  1  0  0  0  0
  2  8  1  0  0  0  0
  3  4  1  0  0  0  0
  3 10  1  0  0  0  0
  5  6  1  0  0  0  0
  5 12  1  0  0  0  0
  5  4  1  0  0  0  0
  6 14  1  6  0  0  0
  6 24  1  0  0  0  0
  7  2  1  0  0  0  0
  9  3  1  0  0  0  0
 11  4  1  0  0  0  0
 13  5  1  0  0  0  0
 15  1  1  0  0  0  0
 16 21  1  0  0  0  0
 16 15  2  0  0  0  0
 17 16  1  0  0  0  0
 18 17  2  0  0  0  0
 18 19  1  0  0  0  0
 19 20  2  0  0  0  0
 20 15  1  0  0  0  0
 22 17  1  0  0  0  0
 23 19  1  0  0  0  0
 24 25  1  0  0  0  0
M  END
>  <minimizedAffinity>
-3.5455215

$$$$
