REMARK  Name = 
REMARK  2 active torsions:
REMARK  status: ('A' for Active; 'I' for Inactive)
REMARK    1  A    between atoms: C_2  and  C_12
REMARK    2  A    between atoms: C_20  and  S_36
REMARK                            x       y       z     vdW  Elec       q    Type
REMARK                         _______ _______ _______ _____ _____    ______ ____
ROOT
ATOM      1  C   UNL     1      35.848  28.913  49.373  0.00  0.00    +0.000 A 
ATOM      2  C   UNL     1      35.855  30.086  48.590  0.00  0.00    +0.000 A 
ATOM      3  C   UNL     1      34.764  30.323  47.690  0.00  0.00    +0.000 A 
ATOM      4  N   UNL     1      33.760  29.408  47.618  0.00  0.00    +0.000 NA
ATOM      5  C   UNL     1      33.815  28.290  48.403  0.00  0.00    +0.000 A 
ATOM      6  N   UNL     1      34.831  28.037  49.267  0.00  0.00    +0.000 NA
ATOM      7  N   UNL     1      32.730  27.343  48.270  0.00  0.00    +0.000 N 
ATOM      8  C   UNL     1      31.355  27.643  48.526  0.00  0.00    +0.000 C 
ATOM      9  C   UNL     1      30.616  26.433  48.055  0.00  0.00    +0.000 C 
ATOM     10  C   UNL     1      31.589  25.617  47.232  0.00  0.00    +0.000 C 
ATOM     11  C   UNL     1      32.904  25.941  47.848  0.00  0.00    +0.000 C 
ATOM     12  H   UNL     1      36.691  28.815  50.015  0.00  0.00    +0.000 HD
ATOM     13  H   UNL     1      34.707  31.190  47.072  0.00  0.00    +0.000 HD
ATOM     14  H   UNL     1      31.076  28.499  47.873  0.00  0.00    +0.000 HD
ATOM     15  H   UNL     1      31.139  27.933  49.560  0.00  0.00    +0.000 HD
ATOM     16  H   UNL     1      30.279  25.820  48.915  0.00  0.00    +0.000 HD
ATOM     17  H   UNL     1      29.738  26.645  47.441  0.00  0.00    +0.000 HD
ATOM     18  H   UNL     1      31.538  25.929  46.163  0.00  0.00    +0.000 HD
ATOM     19  H   UNL     1      31.355  24.549  47.346  0.00  0.00    +0.000 HD
ATOM     20  H   UNL     1      33.169  25.303  48.692  0.00  0.00    +0.000 HD
ATOM     21  H   UNL     1      33.668  25.972  47.029  0.00  0.00    +0.000 HD
ENDROOT
BRANCH   2  22
ATOM     22  C   UNL     1      36.846  31.121  48.561  0.00  0.00    +0.000 A 
ATOM     23  N   UNL     1      36.795  32.009  49.574  0.00  0.00    +0.000 NA
ATOM     24  C   UNL     1      37.676  33.022  49.602  0.00  0.00    +0.000 A 
ATOM     25  N   UNL     1      38.646  33.238  48.669  0.00  0.00    +0.000 NA
ATOM     26  C   UNL     1      38.724  32.362  47.637  0.00  0.00    +0.000 A 
ATOM     27  C   UNL     1      39.670  32.481  46.631  0.00  0.00    +0.000 A 
ATOM     28  C   UNL     1      39.720  31.561  45.592  0.00  0.00    +0.000 A 
ATOM     29  C   UNL     1      38.800  30.503  45.569  0.00  0.00    +0.000 A 
ATOM     30  C   UNL     1      37.879  30.428  46.593  0.00  0.00    +0.000 A 
ATOM     31  C   UNL     1      37.816  31.327  47.619  0.00  0.00    +0.000 A 
ATOM     32  H   UNL     1      37.640  33.748  50.423  0.00  0.00    +0.000 HD
ATOM     33  H   UNL     1      40.344  33.306  46.703  0.00  0.00    +0.000 HD
ATOM     34  H   UNL     1      40.477  31.703  44.834  0.00  0.00    +0.000 HD
ATOM     35  H   UNL     1      38.924  29.847  44.723  0.00  0.00    +0.000 HD
BRANCH  30  36
ATOM     36  S   UNL     1      36.853  28.982  46.402  0.00  0.00    +0.000 S 
ATOM     37  H   UNL     1      35.999  28.800  47.523  0.00  0.00    +0.000 HD
ENDBRANCH  30  36
ENDBRANCH   2  22
TORSDOF 2
