
     RDKit          3D

 27 28  0  0  0  0  0  0  0  0999 V2000
   34.7530   29.4310   48.8096 C   0  0  0  0  0  0  0  0  0  0  0  0
   34.2180   30.0544   47.6590 C   0  0  0  0  0  0  0  0  0  0  0  0
   33.5042   29.2558   46.7760 C   0  0  0  0  0  0  0  0  0  0  0  0
   33.3472   27.9107   47.0509 N   0  0  0  0  0  0  0  0  0  0  0  0
   33.8852   27.3543   48.1808 C   0  0  0  0  0  0  0  0  0  0  0  0
   34.5711   28.1081   49.0339 N   0  0  0  0  0  0  0  0  0  0  0  0
   35.5136   30.3208   49.7438 C   0  0  2  0  0  0  0  0  0  0  0  0
   36.4769   31.1798   48.9548 C   0  0  0  0  0  0  0  0  0  0  0  0
   37.9126   30.7906   49.1528 C   0  0  0  0  0  0  0  0  0  0  0  0
   38.3188   30.7783   50.5990 C   0  0  0  0  0  0  0  0  0  0  0  0
   37.3026   30.1012   51.4914 C   0  0  0  0  0  0  0  0  0  0  0  0
   36.1816   29.4440   50.7390 C   0  0  1  0  0  0  0  0  0  0  0  0
   34.2959   31.0819   47.3851 H   0  0  0  0  0  0  0  0  0  0  0  0
   33.0693   29.6484   45.8853 H   0  0  0  0  0  0  0  0  0  0  0  0
   33.7492   26.2994   48.3752 H   0  0  0  0  0  0  0  0  0  0  0  0
   34.7617   30.9783   50.2259 H   0  0  0  0  0  0  0  0  0  0  0  0
   36.2484   31.1551   47.8787 H   0  0  0  0  0  0  0  0  0  0  0  0
   36.3680   32.2600   49.2622 H   0  0  0  0  0  0  0  0  0  0  0  0
   38.0528   29.8071   48.6489 H   0  0  0  0  0  0  0  0  0  0  0  0
   38.5456   31.5035   48.6272 H   0  0  0  0  0  0  0  0  0  0  0  0
   39.3332   30.3522   50.6819 H   0  0  0  0  0  0  0  0  0  0  0  0
   38.3673   31.8426   50.9229 H   0  0  0  0  0  0  0  0  0  0  0  0
   36.8888   30.7713   52.2701 H   0  0  0  0  0  0  0  0  0  0  0  0
   37.8557   29.2786   52.0164 H   0  0  0  0  0  0  0  0  0  0  0  0
   36.4873   28.4442   50.3300 H   0  0  0  0  0  0  0  0  0  0  0  0
   34.9206   29.0461   52.0151 S   0  0  0  0  0  0  0  0  0  0  0  0
   33.9092   30.0431   51.8930 H   0  0  0  0  0  0  0  0  0  0  0  0
  1  6  1  0
  1  7  1  0
  2  1  2  0
  3  4  2  0
  3  2  1  0
  4  5  1  0
  5  6  2  0
  7 12  1  0
  8  9  1  0
  8  7  1  0
  9 10  1  0
 10 11  1  0
 12 11  1  0
  2 13  1  0
  3 14  1  0
  5 15  1  0
  7 16  1  1
  8 17  1  0
  8 18  1  0
  9 19  1  0
  9 20  1  0
 10 21  1  0
 10 22  1  0
 11 23  1  0
 11 24  1  0
 12 25  1  6
 26 27  1  0
 12 26  1  0
M  ISO  8  13  14  14  14  15  14  16  13  17  13  18  13  19  13  20  13
M  ISO  6  21  13  22  13  23  13  24  13  25  13  27  11
M  END
>  <DihAtoms>  (1) 
6,11,25,26

>  <DihDeg>  (1) 
-79.59998140745823

$$$$
