
     RDKit          3D

 23 24  0  0  0  0  0  0  0  0999 V2000
   34.9263   28.7839   48.6961 C   0  0  0  0  0  0  0  0  0  0  0  0
   34.5837   27.8584   49.5047 O   0  0  0  0  0  0  0  0  0  0  0  0
   33.0054   30.5692   46.1922 C   0  0  0  0  0  0  0  0  0  0  0  0
   32.8280   29.6298   45.1662 C   0  0  0  0  0  0  0  0  0  0  0  0
   33.3730   28.3753   45.3381 C   0  0  0  0  0  0  0  0  0  0  0  0
   34.0594   28.0860   46.4840 N   0  0  0  0  0  0  0  0  0  0  0  0
   34.2103   29.0097   47.4462 C   0  0  0  0  0  0  0  0  0  0  0  0
   33.6837   30.2407   47.2936 N   0  0  0  0  0  0  0  0  0  0  0  0
   36.0735   29.5662   49.1413 C   0  0  0  0  0  0  0  0  0  0  0  0
   36.2882   29.6917   50.5137 C   0  0  0  0  0  0  0  0  0  0  0  0
   37.3612   30.4218   51.0329 C   0  0  0  0  0  0  0  0  0  0  0  0
   38.2510   31.0482   50.1630 C   0  0  0  0  0  0  0  0  0  0  0  0
   38.0221   30.9128   48.7988 C   0  0  0  0  0  0  0  0  0  0  0  0
   36.9622   30.1914   48.3043 C   0  0  0  0  0  0  0  0  0  0  0  0
   32.5528   31.5299   45.9907 H   0  0  0  0  0  0  0  0  0  0  0  0
   32.3131   29.7413   44.2308 H   0  0  0  0  0  0  0  0  0  0  0  0
   33.3387   27.5263   44.6596 H   0  0  0  0  0  0  0  0  0  0  0  0
   35.6249   29.2233   51.2517 H   0  0  0  0  0  0  0  0  0  0  0  0
   37.5170   30.5118   52.0914 H   0  0  0  0  0  0  0  0  0  0  0  0
   39.0948   31.6231   50.5255 H   0  0  0  0  0  0  0  0  0  0  0  0
   38.7064   31.3950   48.1037 H   0  0  0  0  0  0  0  0  0  0  0  0
   36.7229   30.0550   46.5582 S   0  0  0  0  0  0  0  0  0  0  0  0
   36.6866   28.6693   46.2453 H   0  0  0  0  0  0  0  0  0  0  0  0
  1  9  1  0
  1  2  2  0
  3  8  2  0
  4  5  2  0
  4  3  1  0
  5  6  1  0
  6  7  2  0
  7  1  1  0
  8  7  1  0
  9 10  2  0
 10 11  1  0
 12 11  2  0
 13 12  1  0
 14 13  2  0
 14  9  1  0
  3 15  1  0
  4 16  1  0
  5 17  1  0
 10 18  1  0
 11 19  1  0
 12 20  1  0
 13 21  1  0
 22 23  1  0
 14 22  1  0
M  ISO  8  15  14  16  14  17  14  18  14  19  14  20  14  21  14  23  11
M  END
>  <DihAtoms>  (1) 
12,13,21,22

>  <DihDeg>  (1) 
-70.98022426107784

$$$$
