
     RDKit          3D

 24 25  0  0  0  0  0  0  0  0999 V2000
   37.7652   30.5017   50.7203 C   0  0  0  0  0  0  0  0  0  0  0  0
   37.2340   30.6634   49.4109 C   0  0  0  0  0  0  0  0  0  0  0  0
   35.9770   30.1232   49.1565 C   0  0  0  0  0  0  0  0  0  0  0  0
   35.3195   29.4735   50.1548 N   0  0  0  0  0  0  0  0  0  0  0  0
   35.8586   29.3345   51.4064 C   0  0  0  0  0  0  0  0  0  0  0  0
   37.0866   29.8546   51.6785 N   0  0  0  0  0  0  0  0  0  0  0  0
   38.0456   31.3719   48.4664 C   0  0  0  0  0  0  0  0  0  0  0  0
   38.5351   30.6641   47.3955 C   0  0  0  0  0  0  0  0  0  0  0  0
   39.3333   31.1878   46.3900 C   0  0  0  0  0  0  0  0  0  0  0  0
   39.6738   32.5516   46.4645 C   0  0  0  0  0  0  0  0  0  0  0  0
   39.1844   33.2745   47.5418 C   0  0  0  0  0  0  0  0  0  0  0  0
   38.3925   32.7284   48.5276 C   0  0  0  0  0  0  0  0  0  0  0  0
   35.2987   30.2161   47.8345 C   0  0  0  0  0  0  0  0  0  0  0  0
   34.0193   30.7749   48.0043 F   0  0  0  0  0  0  0  0  0  0  0  0
   35.9483   30.9085   46.8753 F   0  0  0  0  0  0  0  0  0  0  0  0
   35.0270   28.9314   47.3587 F   0  0  0  0  0  0  0  0  0  0  0  0
   38.7420   30.9139   50.9412 H   0  0  0  0  0  0  0  0  0  0  0  0
   35.2599   28.7986   52.1440 H   0  0  0  0  0  0  0  0  0  0  0  0
   38.3054   29.5953   47.2795 H   0  0  0  0  0  0  0  0  0  0  0  0
   39.6852   30.5580   45.5669 H   0  0  0  0  0  0  0  0  0  0  0  0
   40.2818   33.0008   45.7209 H   0  0  0  0  0  0  0  0  0  0  0  0
   39.4259   34.3252   47.6315 H   0  0  0  0  0  0  0  0  0  0  0  0
   37.7554   33.6380   49.9162 S   0  0  0  0  0  0  0  0  0  0  0  0
   37.1471   32.7907   50.8278 H   0  0  0  0  0  0  0  0  0  0  0  0
  1  6  2  0
  2  1  1  0
  3  2  2  0
  3  4  1  0
  4  5  2  0
  5  6  1  0
  7 12  1  0
  7  2  1  0
  8  7  2  0
  9 10  2  0
  9  8  1  0
 10 11  1  0
 11 12  2  0
 13 14  1  0
 13  3  1  0
 15 13  1  0
 16 13  1  0
  1 17  1  0
  5 18  1  0
  8 19  1  0
  9 20  1  0
 10 21  1  0
 11 22  1  0
 23 24  1  0
 12 23  1  0
M  ISO  7  17  14  18  14  19  14  20  14  21  14  22  14  24  11
M  END
>  <DihAtoms>  (1) 
6,11,22,23

>  <DihDeg>  (1) 
-156.957819991287

$$$$
