
 OpenBabel03272500333D

 37 39  0  0  1  0  0  0  0  0999 V2000
   37.9510   23.8950   33.5770 Cl  0  0  0  0  0  0  0  0  0  0  0  0
   36.9050   24.7880   32.5060 C   0  0  0  0  0  0  0  0  0  0  0  0
   36.1440   24.0010   31.6850 C   0  0  0  0  0  0  0  0  0  0  0  0
   35.2470   24.6420   30.8370 C   0  0  0  0  0  0  0  0  0  0  0  0
   35.1750   26.0240   30.8720 C   0  0  0  0  0  0  0  0  0  0  0  0
   35.9870   26.7330   31.7400 C   0  0  0  0  0  0  0  0  0  0  0  0
   36.8770   26.1510   32.5830 C   0  0  0  0  0  0  0  0  0  0  0  0
   34.6190   24.0700   30.1640 H   0  0  0  0  0  0  0  0  0  0  0  0
   34.4780   26.5220   30.2120 H   0  0  0  0  0  0  0  0  0  0  0  0
   35.8860   27.8220   31.7230 H   0  0  0  0  0  0  0  0  0  0  0  0
   37.8030   26.9040   33.4700 C   0  0  1  0  0  0  0  0  0  0  0  0
   37.8590   26.3140   34.7900 C   0  0  0  0  0  0  0  0  0  0  0  0
   38.8790   27.2160   35.5030 C   0  0  0  0  0  0  0  0  0  0  0  0
   40.2180   26.7140   34.9410 C   0  0  0  0  0  0  0  0  0  0  0  0
   40.3190   26.8240   33.4840 C   0  0  0  0  0  0  0  0  0  0  0  0
   39.1040   27.2040   32.7520 C   0  0  1  0  0  0  0  0  0  0  0  0
   37.3480   27.9310   33.4880 H   0  0  0  0  0  0  0  0  0  0  0  0
   38.4310   25.4680   35.1080 H   0  0  0  0  0  0  0  0  0  0  0  0
   36.8700   26.4180   35.2980 H   0  0  0  0  0  0  0  0  0  0  0  0
   38.8710   27.0800   36.5920 H   0  0  0  0  0  0  0  0  0  0  0  0
   38.7230   28.2660   35.2260 H   0  0  0  0  0  0  0  0  0  0  0  0
   40.9780   27.2140   35.5360 H   0  0  0  0  0  0  0  0  0  0  0  0
   40.2460   25.6370   35.2880 H   0  0  0  0  0  0  0  0  0  0  0  0
   40.7220   25.8400   33.0990 H   0  0  0  0  0  0  0  0  0  0  0  0
   41.1660   27.5270   33.2560 H   0  0  0  0  0  0  0  0  0  0  0  0
   39.1970   28.2610   32.4510 H   0  0  0  0  0  0  0  0  0  0  0  0
   39.0760   26.2850   31.1740 S   0  0  0  0  0  0  0  0  0  0  0  0
   40.0650   25.2900   31.1340 H   0  0  0  0  0  0  0  0  0  0  0  0
   35.4040   20.5260   32.5300 C   0  0  0  0  0  0  0  0  0  0  0  0
   36.3590   19.7790   31.8610 C   0  0  0  0  0  0  0  0  0  0  0  0
   37.2800   20.5050   31.0910 C   0  0  0  0  0  0  0  0  0  0  0  0
   37.1870   21.8710   31.0440 N   0  0  0  0  0  0  0  0  0  0  0  0
   36.2340   22.5300   31.7190 C   0  0  0  0  0  0  0  0  0  0  0  0
   35.3320   21.8590   32.4700 N   0  0  0  0  0  0  0  0  0  0  0  0
   34.7080   19.9370   33.1150 H   0  0  0  0  0  0  0  0  0  0  0  0
   36.4810   18.7220   31.8580 H   0  0  0  0  0  0  0  0  0  0  0  0
   38.0980   20.0940   30.4970 H   0  0  0  0  0  0  0  0  0  0  0  0
  2  7  1  0  0  0  0
  2  1  1  0  0  0  0
  3 33  1  0  0  0  0
  3  2  2  0  0  0  0
  4  5  2  0  0  0  0
  4  3  1  0  0  0  0
  5  6  1  0  0  0  0
  6  7  2  0  0  0  0
  7 11  1  0  0  0  0
  8  4  1  0  0  0  0
  9  5  1  0  0  0  0
 10  6  1  0  0  0  0
 11 17  1  1  0  0  0
 11 12  1  0  0  0  0
 12 18  1  0  0  0  0
 12 19  1  0  0  0  0
 12 13  1  0  0  0  0
 13 20  1  0  0  0  0
 14 23  1  0  0  0  0
 14 13  1  0  0  0  0
 14 22  1  0  0  0  0
 15 14  1  0  0  0  0
 16 26  1  6  0  0  0
 16 11  1  0  0  0  0
 16 15  1  0  0  0  0
 21 13  1  0  0  0  0
 24 15  1  0  0  0  0
 25 15  1  0  0  0  0
 27 16  1  0  0  0  0
 28 27  1  0  0  0  0
 29 35  1  0  0  0  0
 30 29  2  0  0  0  0
 31 30  1  0  0  0  0
 32 31  2  0  0  0  0
 32 33  1  0  0  0  0
 33 34  2  0  0  0  0
 34 29  1  0  0  0  0
 36 30  1  0  0  0  0
 37 31  1  0  0  0  0
M  END
>  <minimizedAffinity>
-5.46813869

$$$$

 OpenBabel03272500333D

 37 39  0  0  1  0  0  0  0  0999 V2000
   38.1950   22.6370   34.2930 Cl  0  0  0  0  0  0  0  0  0  0  0  0
   37.1460   23.1940   33.0160 C   0  0  0  0  0  0  0  0  0  0  0  0
   37.1520   24.5510   32.8420 C   0  0  0  0  0  0  0  0  0  0  0  0
   36.3780   25.0660   31.8070 C   0  0  0  0  0  0  0  0  0  0  0  0
   35.6550   24.1860   31.0210 C   0  0  0  0  0  0  0  0  0  0  0  0
   35.7150   22.8270   31.2760 C   0  0  0  0  0  0  0  0  0  0  0  0
   36.4550   22.2800   32.2740 C   0  0  0  0  0  0  0  0  0  0  0  0
   36.3430   26.1330   31.6220 H   0  0  0  0  0  0  0  0  0  0  0  0
   35.0530   24.5860   30.2160 H   0  0  0  0  0  0  0  0  0  0  0  0
   35.1230   22.1810   30.6220 H   0  0  0  0  0  0  0  0  0  0  0  0
   36.4740   20.8290   32.6020 C   0  0  1  0  0  0  0  0  0  0  0  0
   35.1490   20.2550   32.5160 C   0  0  0  0  0  0  0  0  0  0  0  0
   35.4140   18.7800   32.8540 C   0  0  0  0  0  0  0  0  0  0  0  0
   36.0120   18.2410   31.5450 C   0  0  0  0  0  0  0  0  0  0  0  0
   37.2350   18.9330   31.1320 C   0  0  0  0  0  0  0  0  0  0  0  0
   37.6150   20.1350   31.8850 C   0  0  1  0  0  0  0  0  0  0  0  0
   36.8680   20.8200   33.6540 H   0  0  0  0  0  0  0  0  0  0  0  0
   34.6300   19.9300   31.6390 H   0  0  0  0  0  0  0  0  0  0  0  0
   34.4910   20.6920   33.3050 H   0  0  0  0  0  0  0  0  0  0  0  0
   34.4930   18.2290   33.0830 H   0  0  0  0  0  0  0  0  0  0  0  0
   36.1470   18.6980   33.6660 H   0  0  0  0  0  0  0  0  0  0  0  0
   36.0670   17.1640   31.6840 H   0  0  0  0  0  0  0  0  0  0  0  0
   35.1690   18.3910   30.8050 H   0  0  0  0  0  0  0  0  0  0  0  0
   37.1320   19.1720   30.0310 H   0  0  0  0  0  0  0  0  0  0  0  0
   38.0660   18.1770   31.1290 H   0  0  0  0  0  0  0  0  0  0  0  0
   38.4510   19.8740   32.5550 H   0  0  0  0  0  0  0  0  0  0  0  0
   38.3330   21.3390   30.7150 S   0  0  0  0  0  0  0  0  0  0  0  0
   38.1460   20.9440   29.3810 H   0  0  0  0  0  0  0  0  0  0  0  0
   38.1180   26.7950   35.5560 C   0  0  0  0  0  0  0  0  0  0  0  0
   39.4350   27.1340   35.2950 C   0  0  0  0  0  0  0  0  0  0  0  0
   40.0020   26.5610   34.1470 C   0  0  0  0  0  0  0  0  0  0  0  0
   39.2460   25.7230   33.3710 N   0  0  0  0  0  0  0  0  0  0  0  0
   37.9740   25.4380   33.6850 C   0  0  0  0  0  0  0  0  0  0  0  0
   37.3990   25.9750   34.7850 N   0  0  0  0  0  0  0  0  0  0  0  0
   37.7100   27.2530   36.4490 H   0  0  0  0  0  0  0  0  0  0  0  0
   40.0710   27.7760   35.8570 H   0  0  0  0  0  0  0  0  0  0  0  0
   41.0190   26.7090   33.7800 H   0  0  0  0  0  0  0  0  0  0  0  0
  2  1  1  0  0  0  0
  3  2  1  0  0  0  0
  3 33  1  0  0  0  0
  4  3  2  0  0  0  0
  5  6  2  0  0  0  0
  5  4  1  0  0  0  0
  6  7  1  0  0  0  0
  7 11  1  0  0  0  0
  7  2  2  0  0  0  0
  8  4  1  0  0  0  0
  9  5  1  0  0  0  0
 10  6  1  0  0  0  0
 11 17  1  1  0  0  0
 12 11  1  0  0  0  0
 12 13  1  0  0  0  0
 12 19  1  0  0  0  0
 13 20  1  0  0  0  0
 13 21  1  0  0  0  0
 14 22  1  0  0  0  0
 14 13  1  0  0  0  0
 15 14  1  0  0  0  0
 15 16  1  0  0  0  0
 16 26  1  1  0  0  0
 16 11  1  0  0  0  0
 18 12  1  0  0  0  0
 23 14  1  0  0  0  0
 24 15  1  0  0  0  0
 25 15  1  0  0  0  0
 27 16  1  0  0  0  0
 28 27  1  0  0  0  0
 29 35  1  0  0  0  0
 30 29  1  0  0  0  0
 30 36  1  0  0  0  0
 31 30  2  0  0  0  0
 32 33  2  0  0  0  0
 32 31  1  0  0  0  0
 33 34  1  0  0  0  0
 34 29  2  0  0  0  0
 37 31  1  0  0  0  0
M  END
>  <minimizedAffinity>
-5.10163927

$$$$

 OpenBabel03272500333D

 37 39  0  0  1  0  0  0  0  0999 V2000
   38.3420   27.1990   35.1660 Cl  0  0  0  0  0  0  0  0  0  0  0  0
   37.8770   25.8380   34.1800 C   0  0  0  0  0  0  0  0  0  0  0  0
   37.1370   26.1740   33.0790 C   0  0  0  0  0  0  0  0  0  0  0  0
   36.7720   25.1450   32.2160 C   0  0  0  0  0  0  0  0  0  0  0  0
   37.1760   23.8560   32.5160 C   0  0  0  0  0  0  0  0  0  0  0  0
   37.9260   23.6170   33.6540 C   0  0  0  0  0  0  0  0  0  0  0  0
   38.3030   24.5870   34.5250 C   0  0  0  0  0  0  0  0  0  0  0  0
   36.1850   25.3510   31.3290 H   0  0  0  0  0  0  0  0  0  0  0  0
   36.8920   23.0560   31.8450 H   0  0  0  0  0  0  0  0  0  0  0  0
   38.2150   22.5790   33.8390 H   0  0  0  0  0  0  0  0  0  0  0  0
   39.0490   24.3350   35.7870 C   0  0  1  0  0  0  0  0  0  0  0  0
   38.4380   23.2700   36.5520 C   0  0  0  0  0  0  0  0  0  0  0  0
   39.3760   23.1660   37.7650 C   0  0  0  0  0  0  0  0  0  0  0  0
   40.5820   22.4080   37.1890 C   0  0  0  0  0  0  0  0  0  0  0  0
   41.2210   23.0940   36.0640 C   0  0  0  0  0  0  0  0  0  0  0  0
   40.5400   24.2770   35.5230 C   0  0  1  0  0  0  0  0  0  0  0  0
   38.9810   25.3240   36.3150 H   0  0  0  0  0  0  0  0  0  0  0  0
   38.5480   22.2150   36.4140 H   0  0  0  0  0  0  0  0  0  0  0  0
   37.4270   23.5850   36.9050 H   0  0  0  0  0  0  0  0  0  0  0  0
   38.9400   22.5810   38.5840 H   0  0  0  0  0  0  0  0  0  0  0  0
   39.6830   24.1650   38.1000 H   0  0  0  0  0  0  0  0  0  0  0  0
   41.2010   22.1700   38.0500 H   0  0  0  0  0  0  0  0  0  0  0  0
   40.1300   21.4170   36.8800 H   0  0  0  0  0  0  0  0  0  0  0  0
   41.3860   22.3250   35.2500 H   0  0  0  0  0  0  0  0  0  0  0  0
   42.2740   23.3370   36.3710 H   0  0  0  0  0  0  0  0  0  0  0  0
   41.0760   25.1750   35.8730 H   0  0  0  0  0  0  0  0  0  0  0  0
   40.7710   24.2910   33.7110 S   0  0  0  0  0  0  0  0  0  0  0  0
   41.3240   23.0870   33.2480 H   0  0  0  0  0  0  0  0  0  0  0  0
   35.6110   29.4740   33.4230 C   0  0  0  0  0  0  0  0  0  0  0  0
   36.0080   30.1760   32.2990 C   0  0  0  0  0  0  0  0  0  0  0  0
   36.8340   29.4840   31.4000 C   0  0  0  0  0  0  0  0  0  0  0  0
   37.1910   28.1910   31.6770 N   0  0  0  0  0  0  0  0  0  0  0  0
   36.7690   27.5720   32.7890 C   0  0  0  0  0  0  0  0  0  0  0  0
   35.9720   28.2120   33.6740 N   0  0  0  0  0  0  0  0  0  0  0  0
   34.9750   30.0360   34.0970 H   0  0  0  0  0  0  0  0  0  0  0  0
   35.7650   31.1770   32.0300 H   0  0  0  0  0  0  0  0  0  0  0  0
   37.2450   29.8680   30.4650 H   0  0  0  0  0  0  0  0  0  0  0  0
  2  7  1  0  0  0  0
  2  1  1  0  0  0  0
  3  2  2  0  0  0  0
  4  5  2  0  0  0  0
  4  3  1  0  0  0  0
  5  6  1  0  0  0  0
  6 10  1  0  0  0  0
  6  7  2  0  0  0  0
  7 11  1  0  0  0  0
  8  4  1  0  0  0  0
  9  5  1  0  0  0  0
 11 17  1  1  0  0  0
 11 12  1  0  0  0  0
 12 19  1  0  0  0  0
 12 13  1  0  0  0  0
 13 21  1  0  0  0  0
 13 20  1  0  0  0  0
 14 13  1  0  0  0  0
 14 22  1  0  0  0  0
 15 25  1  0  0  0  0
 15 14  1  0  0  0  0
 16 11  1  0  0  0  0
 16 26  1  1  0  0  0
 16 15  1  0  0  0  0
 18 12  1  0  0  0  0
 23 14  1  0  0  0  0
 24 15  1  0  0  0  0
 27 16  1  0  0  0  0
 28 27  1  0  0  0  0
 29 34  1  0  0  0  0
 29 35  1  0  0  0  0
 30 29  2  0  0  0  0
 31 32  2  0  0  0  0
 31 30  1  0  0  0  0
 32 33  1  0  0  0  0
 33  3  1  0  0  0  0
 33 34  2  0  0  0  0
 36 30  1  0  0  0  0
 37 31  1  0  0  0  0
M  END
>  <minimizedAffinity>
-5.0123477

$$$$

 OpenBabel03272500333D

 37 39  0  0  1  0  0  0  0  0999 V2000
   38.1570   21.7120   34.5810 Cl  0  0  0  0  0  0  0  0  0  0  0  0
   37.9800   23.3370   33.9730 C   0  0  0  0  0  0  0  0  0  0  0  0
   37.3310   23.4150   32.7720 C   0  0  0  0  0  0  0  0  0  0  0  0
   37.1070   24.6840   32.2470 C   0  0  0  0  0  0  0  0  0  0  0  0
   37.5480   25.7830   32.9640 C   0  0  0  0  0  0  0  0  0  0  0  0
   38.1950   25.6000   34.1740 C   0  0  0  0  0  0  0  0  0  0  0  0
   38.4370   24.3830   34.7230 C   0  0  0  0  0  0  0  0  0  0  0  0
   36.5980   24.8070   31.2990 H   0  0  0  0  0  0  0  0  0  0  0  0
   37.3740   26.7690   32.5560 H   0  0  0  0  0  0  0  0  0  0  0  0
   38.5210   26.5060   34.6940 H   0  0  0  0  0  0  0  0  0  0  0  0
   39.1920   24.1700   35.9860 C   0  0  1  0  0  0  0  0  0  0  0  0
   38.5350   23.1960   36.8310 C   0  0  0  0  0  0  0  0  0  0  0  0
   39.4890   23.1170   38.0330 C   0  0  0  0  0  0  0  0  0  0  0  0
   40.6380   22.2530   37.4900 C   0  0  0  0  0  0  0  0  0  0  0  0
   41.2930   22.8240   36.3110 C   0  0  0  0  0  0  0  0  0  0  0  0
   40.6720   24.0070   35.7030 C   0  0  1  0  0  0  0  0  0  0  0  0
   39.1920   25.1950   36.4490 H   0  0  0  0  0  0  0  0  0  0  0  0
   38.5820   22.1300   36.7620 H   0  0  0  0  0  0  0  0  0  0  0  0
   37.5510   23.5930   37.1780 H   0  0  0  0  0  0  0  0  0  0  0  0
   39.0360   22.6130   38.8960 H   0  0  0  0  0  0  0  0  0  0  0  0
   39.8600   24.1160   38.2960 H   0  0  0  0  0  0  0  0  0  0  0  0
   41.2590   22.0360   38.3540 H   0  0  0  0  0  0  0  0  0  0  0  0
   40.1230   21.2720   37.2540 H   0  0  0  0  0  0  0  0  0  0  0  0
   41.3980   21.9960   35.5480 H   0  0  0  0  0  0  0  0  0  0  0  0
   42.3650   23.0240   36.5850 H   0  0  0  0  0  0  0  0  0  0  0  0
   41.2650   24.8940   35.9840 H   0  0  0  0  0  0  0  0  0  0  0  0
   40.8670   23.8890   33.8910 S   0  0  0  0  0  0  0  0  0  0  0  0
   41.3400   22.6260   33.5010 H   0  0  0  0  0  0  0  0  0  0  0  0
   35.1460   20.6750   31.7460 C   0  0  0  0  0  0  0  0  0  0  0  0
   35.8840   19.9450   30.8290 C   0  0  0  0  0  0  0  0  0  0  0  0
   37.1740   20.4250   30.5570 C   0  0  0  0  0  0  0  0  0  0  0  0
   37.6180   21.5540   31.1930 N   0  0  0  0  0  0  0  0  0  0  0  0
   36.8470   22.2110   32.0710 C   0  0  0  0  0  0  0  0  0  0  0  0
   35.5990   21.7740   32.3550 N   0  0  0  0  0  0  0  0  0  0  0  0
   34.1550   20.2790   31.9340 H   0  0  0  0  0  0  0  0  0  0  0  0
   35.5950   19.0660   30.3050 H   0  0  0  0  0  0  0  0  0  0  0  0
   37.8990   19.9890   29.8680 H   0  0  0  0  0  0  0  0  0  0  0  0
  2  1  1  0  0  0  0
  2  7  1  0  0  0  0
  3  2  2  0  0  0  0
  4  3  1  0  0  0  0
  4  5  2  0  0  0  0
  5  6  1  0  0  0  0
  6 10  1  0  0  0  0
  6  7  2  0  0  0  0
  7 11  1  0  0  0  0
  8  4  1  0  0  0  0
  9  5  1  0  0  0  0
 11 17  1  1  0  0  0
 11 12  1  0  0  0  0
 12 19  1  0  0  0  0
 12 13  1  0  0  0  0
 13 21  1  0  0  0  0
 13 20  1  0  0  0  0
 14 13  1  0  0  0  0
 14 22  1  0  0  0  0
 15 25  1  0  0  0  0
 15 14  1  0  0  0  0
 16 26  1  1  0  0  0
 16 11  1  0  0  0  0
 16 15  1  0  0  0  0
 18 12  1  0  0  0  0
 23 14  1  0  0  0  0
 24 15  1  0  0  0  0
 27 16  1  0  0  0  0
 28 27  1  0  0  0  0
 29 35  1  0  0  0  0
 29 34  1  0  0  0  0
 30 29  2  0  0  0  0
 31 30  1  0  0  0  0
 31 32  2  0  0  0  0
 32 33  1  0  0  0  0
 33 34  2  0  0  0  0
 33  3  1  0  0  0  0
 36 30  1  0  0  0  0
 37 31  1  0  0  0  0
M  END
>  <minimizedAffinity>
-4.969172

$$$$

 OpenBabel03272500333D

 37 39  0  0  1  0  0  0  0  0999 V2000
   36.2940   27.8120   34.4280 Cl  0  0  0  0  0  0  0  0  0  0  0  0
   36.1030   29.0110   33.1760 C   0  0  0  0  0  0  0  0  0  0  0  0
   36.5130   28.5960   31.9380 C   0  0  0  0  0  0  0  0  0  0  0  0
   36.3440   29.4810   30.8790 C   0  0  0  0  0  0  0  0  0  0  0  0
   35.7750   30.7170   31.1330 C   0  0  0  0  0  0  0  0  0  0  0  0
   35.3910   31.0450   32.4220 C   0  0  0  0  0  0  0  0  0  0  0  0
   35.5380   30.2150   33.4850 C   0  0  0  0  0  0  0  0  0  0  0  0
   36.6510   29.2060   29.8760 H   0  0  0  0  0  0  0  0  0  0  0  0
   35.6450   31.4050   30.3090 H   0  0  0  0  0  0  0  0  0  0  0  0
   34.9490   32.0350   32.5610 H   0  0  0  0  0  0  0  0  0  0  0  0
   35.1930   30.5810   34.8850 C   0  0  1  0  0  0  0  0  0  0  0  0
   35.6700   31.9070   35.2120 C   0  0  0  0  0  0  0  0  0  0  0  0
   35.1810   32.0780   36.6590 C   0  0  0  0  0  0  0  0  0  0  0  0
   33.6860   32.3830   36.4720 C   0  0  0  0  0  0  0  0  0  0  0  0
   32.9570   31.3240   35.7710 C   0  0  0  0  0  0  0  0  0  0  0  0
   33.7490   30.2340   35.1880 C   0  0  1  0  0  0  0  0  0  0  0  0
   35.7160   29.7870   35.4830 H   0  0  0  0  0  0  0  0  0  0  0  0
   35.2130   32.8460   34.9790 H   0  0  0  0  0  0  0  0  0  0  0  0
   36.7870   31.9240   35.2060 H   0  0  0  0  0  0  0  0  0  0  0  0
   35.6600   32.9230   37.1680 H   0  0  0  0  0  0  0  0  0  0  0  0
   35.3080   31.1440   37.2210 H   0  0  0  0  0  0  0  0  0  0  0  0
   33.3320   32.6690   37.4580 H   0  0  0  0  0  0  0  0  0  0  0  0
   33.7010   33.3490   35.8810 H   0  0  0  0  0  0  0  0  0  0  0  0
   32.3210   31.8190   34.9780 H   0  0  0  0  0  0  0  0  0  0  0  0
   32.1790   30.9260   36.4780 H   0  0  0  0  0  0  0  0  0  0  0  0
   33.6450   29.3450   35.8340 H   0  0  0  0  0  0  0  0  0  0  0  0
   32.9690   29.7400   33.6120 S   0  0  0  0  0  0  0  0  0  0  0  0
   31.9660   30.6420   33.2230 H   0  0  0  0  0  0  0  0  0  0  0  0
   36.7080   25.0280   31.1830 C   0  0  0  0  0  0  0  0  0  0  0  0
   38.0450   24.6990   31.3240 C   0  0  0  0  0  0  0  0  0  0  0  0
   38.9020   25.7500   31.6870 C   0  0  0  0  0  0  0  0  0  0  0  0
   38.3840   27.0040   31.8740 N   0  0  0  0  0  0  0  0  0  0  0  0
   37.0750   27.2510   31.7190 C   0  0  0  0  0  0  0  0  0  0  0  0
   36.2240   26.2590   31.3700 N   0  0  0  0  0  0  0  0  0  0  0  0
   36.0730   24.1960   30.9020 H   0  0  0  0  0  0  0  0  0  0  0  0
   38.5050   23.7490   31.1930 H   0  0  0  0  0  0  0  0  0  0  0  0
   39.9800   25.6860   31.8440 H   0  0  0  0  0  0  0  0  0  0  0  0
  2  7  1  0  0  0  0
  2  1  1  0  0  0  0
  3  2  2  0  0  0  0
  4  5  2  0  0  0  0
  4  3  1  0  0  0  0
  5  6  1  0  0  0  0
  6 10  1  0  0  0  0
  6  7  2  0  0  0  0
  7 11  1  0  0  0  0
  8  4  1  0  0  0  0
  9  5  1  0  0  0  0
 11 16  1  0  0  0  0
 11 12  1  0  0  0  0
 11 17  1  1  0  0  0
 12 13  1  0  0  0  0
 13 20  1  0  0  0  0
 13 21  1  0  0  0  0
 14 13  1  0  0  0  0
 14 22  1  0  0  0  0
 15 14  1  0  0  0  0
 15 25  1  0  0  0  0
 16 15  1  0  0  0  0
 16 26  1  1  0  0  0
 18 12  1  0  0  0  0
 19 12  1  0  0  0  0
 23 14  1  0  0  0  0
 24 15  1  0  0  0  0
 27 16  1  0  0  0  0
 28 27  1  0  0  0  0
 29 30  2  0  0  0  0
 29 34  1  0  0  0  0
 30 31  1  0  0  0  0
 31 37  1  0  0  0  0
 31 32  2  0  0  0  0
 33 32  1  0  0  0  0
 33  3  1  0  0  0  0
 34 33  2  0  0  0  0
 35 29  1  0  0  0  0
 36 30  1  0  0  0  0
M  END
>  <minimizedAffinity>
-4.95042038

$$$$

 OpenBabel03272500333D

 37 39  0  0  1  0  0  0  0  0999 V2000
   38.3260   26.9270   34.4790 Cl  0  0  0  0  0  0  0  0  0  0  0  0
   37.8440   25.4240   33.7370 C   0  0  0  0  0  0  0  0  0  0  0  0
   37.2210   25.5730   32.5280 C   0  0  0  0  0  0  0  0  0  0  0  0
   36.8530   24.4140   31.8520 C   0  0  0  0  0  0  0  0  0  0  0  0
   37.1360   23.1900   32.4340 C   0  0  0  0  0  0  0  0  0  0  0  0
   37.7720   23.1440   33.6620 C   0  0  0  0  0  0  0  0  0  0  0  0
   38.1480   24.2460   34.3580 C   0  0  0  0  0  0  0  0  0  0  0  0
   36.3560   24.4700   30.8910 H   0  0  0  0  0  0  0  0  0  0  0  0
   36.8490   22.2900   31.9080 H   0  0  0  0  0  0  0  0  0  0  0  0
   37.9690   22.1490   34.0720 H   0  0  0  0  0  0  0  0  0  0  0  0
   38.7690   24.2110   35.7090 C   0  0  1  0  0  0  0  0  0  0  0  0
   38.0850   23.2770   36.5760 C   0  0  0  0  0  0  0  0  0  0  0  0
   38.9020   23.3820   37.8730 C   0  0  0  0  0  0  0  0  0  0  0  0
   40.1560   22.5560   37.5450 C   0  0  0  0  0  0  0  0  0  0  0  0
   40.9010   23.0580   36.3890 C   0  0  0  0  0  0  0  0  0  0  0  0
   40.2790   24.1300   35.6010 C   0  0  1  0  0  0  0  0  0  0  0  0
   38.6540   25.2720   36.0610 H   0  0  0  0  0  0  0  0  0  0  0  0
   38.2050   22.2150   36.6220 H   0  0  0  0  0  0  0  0  0  0  0  0
   37.0450   23.6320   36.7760 H   0  0  0  0  0  0  0  0  0  0  0  0
   38.3880   22.9320   38.7310 H   0  0  0  0  0  0  0  0  0  0  0  0
   39.1790   24.4260   38.0690 H   0  0  0  0  0  0  0  0  0  0  0  0
   40.6890   22.4690   38.4870 H   0  0  0  0  0  0  0  0  0  0  0  0
   39.7320   21.5230   37.3590 H   0  0  0  0  0  0  0  0  0  0  0  0
   41.1410   22.1710   35.7300 H   0  0  0  0  0  0  0  0  0  0  0  0
   41.9210   23.3610   36.7510 H   0  0  0  0  0  0  0  0  0  0  0  0
   40.7810   25.0800   35.8500 H   0  0  0  0  0  0  0  0  0  0  0  0
   40.6820   23.8530   33.8410 S   0  0  0  0  0  0  0  0  0  0  0  0
   41.2730   22.5970   33.6340 H   0  0  0  0  0  0  0  0  0  0  0  0
   37.7060   28.5870   30.5240 C   0  0  0  0  0  0  0  0  0  0  0  0
   36.6210   29.3960   30.8170 C   0  0  0  0  0  0  0  0  0  0  0  0
   35.6940   28.8740   31.7320 C   0  0  0  0  0  0  0  0  0  0  0  0
   35.9060   27.6320   32.2680 N   0  0  0  0  0  0  0  0  0  0  0  0
   36.9810   26.9020   31.9380 C   0  0  0  0  0  0  0  0  0  0  0  0
   37.8930   27.3770   31.0590 N   0  0  0  0  0  0  0  0  0  0  0  0
   38.4030   29.0170   29.8150 H   0  0  0  0  0  0  0  0  0  0  0  0
   36.4030   30.3640   30.4350 H   0  0  0  0  0  0  0  0  0  0  0  0
   34.7820   29.3600   32.0830 H   0  0  0  0  0  0  0  0  0  0  0  0
  2  7  1  0  0  0  0
  2  1  1  0  0  0  0
  3  2  2  0  0  0  0
  4  5  2  0  0  0  0
  4  3  1  0  0  0  0
  5  6  1  0  0  0  0
  6 10  1  0  0  0  0
  6  7  2  0  0  0  0
  7 11  1  0  0  0  0
  8  4  1  0  0  0  0
  9  5  1  0  0  0  0
 11 17  1  1  0  0  0
 11 12  1  0  0  0  0
 12 18  1  0  0  0  0
 12 19  1  0  0  0  0
 12 13  1  0  0  0  0
 13 21  1  0  0  0  0
 13 20  1  0  0  0  0
 14 13  1  0  0  0  0
 14 22  1  0  0  0  0
 15 25  1  0  0  0  0
 15 14  1  0  0  0  0
 16 11  1  0  0  0  0
 16 26  1  1  0  0  0
 16 15  1  0  0  0  0
 23 14  1  0  0  0  0
 24 15  1  0  0  0  0
 27 16  1  0  0  0  0
 28 27  1  0  0  0  0
 29 30  2  0  0  0  0
 29 34  1  0  0  0  0
 30 31  1  0  0  0  0
 31 37  1  0  0  0  0
 31 32  2  0  0  0  0
 33 32  1  0  0  0  0
 33  3  1  0  0  0  0
 34 33  2  0  0  0  0
 35 29  1  0  0  0  0
 36 30  1  0  0  0  0
M  END
>  <minimizedAffinity>
-4.94746256

$$$$

 OpenBabel03272500333D

 37 39  0  0  1  0  0  0  0  0999 V2000
   39.4960   26.2890   34.9250 Cl  0  0  0  0  0  0  0  0  0  0  0  0
   38.8420   25.0880   33.8430 C   0  0  0  0  0  0  0  0  0  0  0  0
   38.4490   23.9340   34.4620 C   0  0  0  0  0  0  0  0  0  0  0  0
   37.8700   22.9480   33.6700 C   0  0  0  0  0  0  0  0  0  0  0  0
   37.7250   23.1890   32.3150 C   0  0  0  0  0  0  0  0  0  0  0  0
   38.1530   24.3920   31.7810 C   0  0  0  0  0  0  0  0  0  0  0  0
   38.7240   25.3810   32.5140 C   0  0  0  0  0  0  0  0  0  0  0  0
   37.5400   22.0120   34.1060 H   0  0  0  0  0  0  0  0  0  0  0  0
   37.2750   22.4220   31.6990 H   0  0  0  0  0  0  0  0  0  0  0  0
   38.0120   24.5250   30.7040 H   0  0  0  0  0  0  0  0  0  0  0  0
   39.2510   26.6480   31.9420 C   0  0  1  0  0  0  0  0  0  0  0  0
   40.0190   26.4010   30.7410 C   0  0  0  0  0  0  0  0  0  0  0  0
   40.4240   27.8230   30.3190 C   0  0  0  0  0  0  0  0  0  0  0  0
   39.1300   28.3630   29.6890 C   0  0  0  0  0  0  0  0  0  0  0  0
   37.9910   28.3720   30.6080 C   0  0  0  0  0  0  0  0  0  0  0  0
   38.1690   27.7090   31.9070 C   0  0  1  0  0  0  0  0  0  0  0  0
   39.8900   27.0480   32.7750 H   0  0  0  0  0  0  0  0  0  0  0  0
   39.6540   26.2430   29.7480 H   0  0  0  0  0  0  0  0  0  0  0  0
   40.9420   25.8240   30.9900 H   0  0  0  0  0  0  0  0  0  0  0  0
   41.2210   27.8260   29.5650 H   0  0  0  0  0  0  0  0  0  0  0  0
   40.6950   28.4220   31.1970 H   0  0  0  0  0  0  0  0  0  0  0  0
   39.4140   29.3080   29.2320 H   0  0  0  0  0  0  0  0  0  0  0  0
   38.9650   27.6610   28.8160 H   0  0  0  0  0  0  0  0  0  0  0  0
   37.1080   27.9300   30.0560 H   0  0  0  0  0  0  0  0  0  0  0  0
   37.6710   29.4410   30.7400 H   0  0  0  0  0  0  0  0  0  0  0  0
   38.3010   28.4870   32.6770 H   0  0  0  0  0  0  0  0  0  0  0  0
   36.5960   26.8940   32.3530 S   0  0  0  0  0  0  0  0  0  0  0  0
   35.6890   26.8920   31.2820 H   0  0  0  0  0  0  0  0  0  0  0  0
   39.8220   22.8840   37.6790 C   0  0  0  0  0  0  0  0  0  0  0  0
   38.9130   23.3280   38.6250 C   0  0  0  0  0  0  0  0  0  0  0  0
   37.7950   24.0160   38.1280 C   0  0  0  0  0  0  0  0  0  0  0  0
   37.6700   24.2050   36.7770 N   0  0  0  0  0  0  0  0  0  0  0  0
   38.5920   23.7470   35.9180 C   0  0  0  0  0  0  0  0  0  0  0  0
   39.6800   23.0800   36.3660 N   0  0  0  0  0  0  0  0  0  0  0  0
   40.6730   22.3570   38.0950 H   0  0  0  0  0  0  0  0  0  0  0  0
   38.9550   23.2120   39.6810 H   0  0  0  0  0  0  0  0  0  0  0  0
   36.9770   24.4380   38.7140 H   0  0  0  0  0  0  0  0  0  0  0  0
  2  3  1  0  0  0  0
  2  1  1  0  0  0  0
  3 33  1  0  0  0  0
  4  8  1  0  0  0  0
  4  3  2  0  0  0  0
  5  4  1  0  0  0  0
  6  5  2  0  0  0  0
  6  7  1  0  0  0  0
  7  2  2  0  0  0  0
  9  5  1  0  0  0  0
 10  6  1  0  0  0  0
 11  7  1  0  0  0  0
 11 17  1  1  0  0  0
 12 19  1  0  0  0  0
 12 11  1  0  0  0  0
 13 12  1  0  0  0  0
 13 21  1  0  0  0  0
 14 13  1  0  0  0  0
 14 15  1  0  0  0  0
 15 25  1  0  0  0  0
 15 16  1  0  0  0  0
 16 11  1  0  0  0  0
 16 27  1  0  0  0  0
 16 26  1  1  0  0  0
 18 12  1  0  0  0  0
 20 13  1  0  0  0  0
 22 14  1  0  0  0  0
 23 14  1  0  0  0  0
 24 15  1  0  0  0  0
 28 27  1  0  0  0  0
 29 35  1  0  0  0  0
 29 30  1  0  0  0  0
 30 36  1  0  0  0  0
 31 30  2  0  0  0  0
 31 37  1  0  0  0  0
 32 31  1  0  0  0  0
 33 34  1  0  0  0  0
 33 32  2  0  0  0  0
 34 29  2  0  0  0  0
M  END
>  <minimizedAffinity>
-4.8562789

$$$$

 OpenBabel03272500333D

 37 39  0  0  1  0  0  0  0  0999 V2000
   36.6120   27.9770   34.4850 Cl  0  0  0  0  0  0  0  0  0  0  0  0
   36.9380   28.1700   32.7830 C   0  0  0  0  0  0  0  0  0  0  0  0
   36.0660   29.0040   32.1390 C   0  0  0  0  0  0  0  0  0  0  0  0
   36.2930   29.2470   30.7880 C   0  0  0  0  0  0  0  0  0  0  0  0
   37.3780   28.6410   30.1800 C   0  0  0  0  0  0  0  0  0  0  0  0
   38.2060   27.8130   30.9190 C   0  0  0  0  0  0  0  0  0  0  0  0
   38.0230   27.5460   32.2360 C   0  0  0  0  0  0  0  0  0  0  0  0
   35.6330   29.8980   30.2260 H   0  0  0  0  0  0  0  0  0  0  0  0
   37.5540   28.8300   29.1300 H   0  0  0  0  0  0  0  0  0  0  0  0
   39.0470   27.3620   30.3840 H   0  0  0  0  0  0  0  0  0  0  0  0
   38.8640   26.6050   33.0230 C   0  0  1  0  0  0  0  0  0  0  0  0
   39.1760   27.1470   34.3280 C   0  0  0  0  0  0  0  0  0  0  0  0
   40.0030   26.0160   34.9580 C   0  0  0  0  0  0  0  0  0  0  0  0
   38.9240   24.9960   35.3550 C   0  0  0  0  0  0  0  0  0  0  0  0
   38.1240   24.5210   34.2250 C   0  0  0  0  0  0  0  0  0  0  0  0
   38.3150   25.1950   32.9340 C   0  0  1  0  0  0  0  0  0  0  0  0
   39.7810   26.4990   32.3830 H   0  0  0  0  0  0  0  0  0  0  0  0
   38.5610   27.1460   35.2040 H   0  0  0  0  0  0  0  0  0  0  0  0
   39.8240   28.0500   34.2220 H   0  0  0  0  0  0  0  0  0  0  0  0
   40.5410   26.3400   35.8570 H   0  0  0  0  0  0  0  0  0  0  0  0
   40.6820   25.5770   34.2160 H   0  0  0  0  0  0  0  0  0  0  0  0
   39.4470   24.2510   35.9490 H   0  0  0  0  0  0  0  0  0  0  0  0
   38.3000   25.5720   36.1040 H   0  0  0  0  0  0  0  0  0  0  0  0
   37.0370   24.5660   34.5380 H   0  0  0  0  0  0  0  0  0  0  0  0
   38.2930   23.4140   34.1330 H   0  0  0  0  0  0  0  0  0  0  0  0
   38.9170   24.5370   32.2860 H   0  0  0  0  0  0  0  0  0  0  0  0
   36.6950   25.2960   32.0970 S   0  0  0  0  0  0  0  0  0  0  0  0
   35.6440   24.9310   32.9510 H   0  0  0  0  0  0  0  0  0  0  0  0
   32.7070   29.6350   33.4260 C   0  0  0  0  0  0  0  0  0  0  0  0
   32.8020   30.8290   34.1200 C   0  0  0  0  0  0  0  0  0  0  0  0
   34.0710   31.4260   34.1450 C   0  0  0  0  0  0  0  0  0  0  0  0
   35.1140   30.8140   33.5020 N   0  0  0  0  0  0  0  0  0  0  0  0
   34.9490   29.6550   32.8480 C   0  0  0  0  0  0  0  0  0  0  0  0
   33.7380   29.0540   32.8050 N   0  0  0  0  0  0  0  0  0  0  0  0
   31.7150   29.1990   33.4260 H   0  0  0  0  0  0  0  0  0  0  0  0
   32.0320   31.3510   34.6370 H   0  0  0  0  0  0  0  0  0  0  0  0
   34.3410   32.3620   34.6370 H   0  0  0  0  0  0  0  0  0  0  0  0
  2  1  1  0  0  0  0
  3  2  2  0  0  0  0
  3 33  1  0  0  0  0
  4  3  1  0  0  0  0
  5  4  2  0  0  0  0
  5  6  1  0  0  0  0
  6  7  2  0  0  0  0
  7  2  1  0  0  0  0
  7 11  1  0  0  0  0
  8  4  1  0  0  0  0
  9  5  1  0  0  0  0
 10  6  1  0  0  0  0
 11 17  1  6  0  0  0
 11 12  1  0  0  0  0
 12 13  1  0  0  0  0
 12 18  1  0  0  0  0
 13 14  1  0  0  0  0
 13 20  1  0  0  0  0
 14 22  1  0  0  0  0
 14 23  1  0  0  0  0
 15 24  1  0  0  0  0
 15 14  1  0  0  0  0
 16 26  1  6  0  0  0
 16 11  1  0  0  0  0
 16 15  1  0  0  0  0
 19 12  1  0  0  0  0
 21 13  1  0  0  0  0
 25 15  1  0  0  0  0
 27 16  1  0  0  0  0
 27 28  1  0  0  0  0
 29 35  1  0  0  0  0
 29 30  1  0  0  0  0
 30 31  2  0  0  0  0
 30 36  1  0  0  0  0
 31 37  1  0  0  0  0
 32 31  1  0  0  0  0
 33 32  2  0  0  0  0
 34 33  1  0  0  0  0
 34 29  2  0  0  0  0
M  END
>  <minimizedAffinity>
-4.84635925

$$$$

 OpenBabel03272500333D

 37 39  0  0  1  0  0  0  0  0999 V2000
   35.2960   24.8430   30.7830 Cl  0  0  0  0  0  0  0  0  0  0  0  0
   36.4950   25.0990   32.0230 C   0  0  0  0  0  0  0  0  0  0  0  0
   37.0630   23.9470   32.4970 C   0  0  0  0  0  0  0  0  0  0  0  0
   38.0650   24.0750   33.4530 C   0  0  0  0  0  0  0  0  0  0  0  0
   38.4290   25.3450   33.8650 C   0  0  0  0  0  0  0  0  0  0  0  0
   37.7960   26.4510   33.3240 C   0  0  0  0  0  0  0  0  0  0  0  0
   36.8130   26.3750   32.3920 C   0  0  0  0  0  0  0  0  0  0  0  0
   38.5500   23.1970   33.8650 H   0  0  0  0  0  0  0  0  0  0  0  0
   39.2080   25.4440   34.6080 H   0  0  0  0  0  0  0  0  0  0  0  0
   38.1250   27.4280   33.6890 H   0  0  0  0  0  0  0  0  0  0  0  0
   36.0780   27.5510   31.8540 C   0  0  1  0  0  0  0  0  0  0  0  0
   35.7610   28.4950   32.9040 C   0  0  0  0  0  0  0  0  0  0  0  0
   35.0510   29.6140   32.1270 C   0  0  0  0  0  0  0  0  0  0  0  0
   36.2230   30.3540   31.4620 C   0  0  0  0  0  0  0  0  0  0  0  0
   37.0260   29.5040   30.5810 C   0  0  0  0  0  0  0  0  0  0  0  0
   36.7400   28.0630   30.5920 C   0  0  1  0  0  0  0  0  0  0  0  0
   35.1540   27.0840   31.4160 H   0  0  0  0  0  0  0  0  0  0  0  0
   36.3990   29.2380   33.3330 H   0  0  0  0  0  0  0  0  0  0  0  0
   35.0360   28.0400   33.6220 H   0  0  0  0  0  0  0  0  0  0  0  0
   34.5140   30.3080   32.7860 H   0  0  0  0  0  0  0  0  0  0  0  0
   34.3890   29.1900   31.3610 H   0  0  0  0  0  0  0  0  0  0  0  0
   35.7820   31.2490   31.0320 H   0  0  0  0  0  0  0  0  0  0  0  0
   36.8180   30.7260   32.3510 H   0  0  0  0  0  0  0  0  0  0  0  0
   38.1130   29.6930   30.8280 H   0  0  0  0  0  0  0  0  0  0  0  0
   36.9470   29.9250   29.5420 H   0  0  0  0  0  0  0  0  0  0  0  0
   36.1760   27.8150   29.6770 H   0  0  0  0  0  0  0  0  0  0  0  0
   38.3200   27.1660   30.4060 S   0  0  0  0  0  0  0  0  0  0  0  0
   39.4230   28.0240   30.5280 H   0  0  0  0  0  0  0  0  0  0  0  0
   35.1640   20.8580   32.0640 C   0  0  0  0  0  0  0  0  0  0  0  0
   35.8680   20.1280   31.1220 C   0  0  0  0  0  0  0  0  0  0  0  0
   37.0320   20.7300   30.6210 C   0  0  0  0  0  0  0  0  0  0  0  0
   37.3950   21.9700   31.0760 N   0  0  0  0  0  0  0  0  0  0  0  0
   36.6630   22.6210   31.9910 C   0  0  0  0  0  0  0  0  0  0  0  0
   35.5360   22.0670   32.4940 N   0  0  0  0  0  0  0  0  0  0  0  0
   34.2700   20.3660   32.4310 H   0  0  0  0  0  0  0  0  0  0  0  0
   35.6370   19.1650   30.7310 H   0  0  0  0  0  0  0  0  0  0  0  0
   37.7130   20.3120   29.8780 H   0  0  0  0  0  0  0  0  0  0  0  0
  1  2  1  0  0  0  0
  2  7  2  0  0  0  0
  2  3  1  0  0  0  0
  3  4  2  0  0  0  0
  4  8  1  0  0  0  0
  4  5  1  0  0  0  0
  5  9  1  0  0  0  0
  6 10  1  0  0  0  0
  6  5  2  0  0  0  0
  7  6  1  0  0  0  0
 11 17  1  6  0  0  0
 11  7  1  0  0  0  0
 11 12  1  0  0  0  0
 12 18  1  0  0  0  0
 12 19  1  0  0  0  0
 13 20  1  0  0  0  0
 13 12  1  0  0  0  0
 14 13  1  0  0  0  0
 14 23  1  0  0  0  0
 15 16  1  0  0  0  0
 15 24  1  0  0  0  0
 15 14  1  0  0  0  0
 16 26  1  6  0  0  0
 16 11  1  0  0  0  0
 21 13  1  0  0  0  0
 22 14  1  0  0  0  0
 25 15  1  0  0  0  0
 27 28  1  0  0  0  0
 27 16  1  0  0  0  0
 29 35  1  0  0  0  0
 29 34  1  0  0  0  0
 30 29  2  0  0  0  0
 31 32  2  0  0  0  0
 31 30  1  0  0  0  0
 32 33  1  0  0  0  0
 33 34  2  0  0  0  0
 33  3  1  0  0  0  0
 36 30  1  0  0  0  0
 37 31  1  0  0  0  0
M  END
>  <minimizedAffinity>
-4.81431484

$$$$
