REMARK  Name = 
REMARK  3 active torsions:
REMARK  status: ('A' for Active; 'I' for Inactive)
REMARK    1  A    between atoms: C_3  and  C_10
REMARK    2  A    between atoms: C_7  and  C_14
REMARK    3  A    between atoms: C_17  and  S_27
REMARK                            x       y       z     vdW  Elec       q    Type
REMARK                         _______ _______ _______ _____ _____    ______ ____
ROOT
ATOM      1 BR   UNL     1      38.422  31.300  48.267  0.00  0.00    +0.000 Br
ATOM      2  C   UNL     1      37.224  30.793  46.862  0.00  0.00    +0.000 A 
ATOM      3  C   UNL     1      36.037  30.152  47.161  0.00  0.00    +0.000 A 
ATOM      4  C   UNL     1      35.197  29.812  46.100  0.00  0.00    +0.000 A 
ATOM      5  C   UNL     1      35.563  30.116  44.806  0.00  0.00    +0.000 A 
ATOM      6  C   UNL     1      36.758  30.760  44.505  0.00  0.00    +0.000 A 
ATOM      7  C   UNL     1      37.591  31.098  45.557  0.00  0.00    +0.000 A 
ATOM      8  H   UNL     1      34.271  29.310  46.350  0.00  0.00    +0.000 HD
ATOM      9  H   UNL     1      34.898  29.842  44.001  0.00  0.00    +0.000 HD
ATOM     10  H   UNL     1      37.068  31.008  43.509  0.00  0.00    +0.000 HD
ENDROOT
BRANCH   3  13
ATOM     11  C   UNL     1      36.373  29.096  50.766  0.00  0.00    +0.000 A 
ATOM     12  C   UNL     1      36.674  29.330  49.418  0.00  0.00    +0.000 A 
ATOM     13  C   UNL     1      35.750  29.886  48.568  0.00  0.00    +0.000 A 
ATOM     14  N   UNL     1      34.521  30.201  49.095  0.00  0.00    +0.000 NA
ATOM     15  C   UNL     1      34.237  29.971  50.397  0.00  0.00    +0.000 A 
ATOM     16  N   UNL     1      35.142  29.428  51.226  0.00  0.00    +0.000 NA
ATOM     17  H   UNL     1      37.074  28.660  51.466  0.00  0.00    +0.000 HD
ATOM     18  H   UNL     1      37.655  29.029  49.126  0.00  0.00    +0.000 HD
ATOM     19  H   UNL     1      33.239  30.257  50.707  0.00  0.00    +0.000 HD
ENDBRANCH   3  13
BRANCH   7  20
ATOM     20  C   UNL     1      38.853  31.771  45.302  0.00  0.00    +0.000 A 
ATOM     21  C   UNL     1      39.024  33.064  44.893  0.00  0.00    +0.000 A 
ATOM     22  N   UNL     1      40.323  33.352  44.756  0.00  0.00    +0.000 N 
ATOM     23  C   UNL     1      41.003  32.237  45.079  0.00  0.00    +0.000 A 
ATOM     24  N   UNL     1      40.122  31.256  45.417  0.00  0.00    +0.000 NA
ATOM     25  H   UNL     1      38.208  33.776  44.700  0.00  0.00    +0.000 HD
ATOM     26  H   UNL     1      40.790  34.232  44.466  0.00  0.00    +0.000 HD
BRANCH  23  27
ATOM     27  S   UNL     1      42.774  32.033  45.079  0.00  0.00    +0.000 S 
ATOM     28  H   UNL     1      43.191  31.590  46.349  0.00  0.00    +0.000 HD
ENDBRANCH  23  27
ENDBRANCH   7  20
TORSDOF 3
