REMARK  Name = 
REMARK  4 active torsions:
REMARK  status: ('A' for Active; 'I' for Inactive)
REMARK    1  A    between atoms: C_3  and  C_12
REMARK    2  A    between atoms: C_7  and  S_14
REMARK    3  A    between atoms: S_14  and  C_17
REMARK    4  A    between atoms: C_21  and  S_31
REMARK                            x       y       z     vdW  Elec       q    Type
REMARK                         _______ _______ _______ _____ _____    ______ ____
ROOT
ATOM      1 CL   UNL     1      36.386  30.901  45.699  0.00  0.00    +0.000 Cl
ATOM      2  C   UNL     1      36.681  30.758  47.412  0.00  0.00    +0.000 A 
ATOM      3  C   UNL     1      37.946  31.080  47.866  0.00  0.00    +0.000 A 
ATOM      4  C   UNL     1      38.175  30.966  49.220  0.00  0.00    +0.000 A 
ATOM      5  C   UNL     1      37.177  30.548  50.066  0.00  0.00    +0.000 A 
ATOM      6  C   UNL     1      35.924  30.241  49.529  0.00  0.00    +0.000 A 
ATOM      7  C   UNL     1      35.627  30.331  48.197  0.00  0.00    +0.000 A 
ATOM      8  H   UNL     1      39.142  31.207  49.606  0.00  0.00    +0.000 HD
ATOM      9  H   UNL     1      37.399  30.471  51.124  0.00  0.00    +0.000 HD
ATOM     10  H   UNL     1      35.167  29.916  50.231  0.00  0.00    +0.000 HD
ENDROOT
BRANCH   3  15
ATOM     11  C   UNL     1      40.202  33.307  46.087  0.00  0.00    +0.000 A 
ATOM     12  C   UNL     1      40.911  32.466  45.219  0.00  0.00    +0.000 A 
ATOM     13  C   UNL     1      40.596  31.100  45.257  0.00  0.00    +0.000 A 
ATOM     14  N   UNL     1      39.632  30.675  46.123  0.00  0.00    +0.000 NA
ATOM     15  C   UNL     1      38.990  31.525  46.926  0.00  0.00    +0.000 A 
ATOM     16  N   UNL     1      39.276  32.827  46.904  0.00  0.00    +0.000 NA
ATOM     17  H   UNL     1      40.438  34.381  46.068  0.00  0.00    +0.000 HD
ATOM     18  H   UNL     1      41.669  32.859  44.550  0.00  0.00    +0.000 HD
ATOM     19  H   UNL     1      41.118  30.402  44.603  0.00  0.00    +0.000 HD
ENDBRANCH   3  15
BRANCH   7  20
ATOM     20  S   UNL     1      34.042  29.943  47.517  0.00  0.00    +0.000 S 
BRANCH  20  23
ATOM     21 CL   UNL     1      33.743  29.169  44.466  0.00  0.00    +0.000 Cl
ATOM     22  C   UNL     1      33.777  27.956  45.713  0.00  0.00    +0.000 A 
ATOM     23  C   UNL     1      33.906  28.203  47.089  0.00  0.00    +0.000 A 
ATOM     24  C   UNL     1      33.920  27.152  47.977  0.00  0.00    +0.000 A 
ATOM     25  C   UNL     1      33.809  25.863  47.533  0.00  0.00    +0.000 A 
ATOM     26  C   UNL     1      33.678  25.555  46.183  0.00  0.00    +0.000 A 
ATOM     27  C   UNL     1      33.667  26.629  45.310  0.00  0.00    +0.000 A 
ATOM     28  H   UNL     1      34.023  27.430  49.018  0.00  0.00    +0.000 HD
ATOM     29  H   UNL     1      33.827  25.087  48.287  0.00  0.00    +0.000 HD
ATOM     30  H   UNL     1      33.594  24.539  45.871  0.00  0.00    +0.000 HD
BRANCH  27  31
ATOM     31  S   UNL     1      33.499  26.225  43.570  0.00  0.00    +0.000 S 
ATOM     32  H   UNL     1      32.271  25.616  43.305  0.00  0.00    +0.000 HD
ENDBRANCH  27  31
ENDBRANCH  20  23
ENDBRANCH   7  20
TORSDOF 4
