REMARK  Name = 
REMARK  3 active torsions:
REMARK  status: ('A' for Active; 'I' for Inactive)
REMARK    1  A    between atoms: C_1  and  C_7
REMARK    2  A    between atoms: C_1  and  C_9
REMARK    3  A    between atoms: C_14  and  S_22
REMARK                            x       y       z     vdW  Elec       q    Type
REMARK                         _______ _______ _______ _____ _____    ______ ____
ROOT
ATOM      1  C   UNL     1      36.074  29.566  49.141  0.00  0.00    +0.000 A 
ATOM      2  C   UNL     1      36.288  29.692  50.514  0.00  0.00    +0.000 A 
ATOM      3  C   UNL     1      37.361  30.422  51.033  0.00  0.00    +0.000 A 
ATOM      4  C   UNL     1      38.251  31.048  50.163  0.00  0.00    +0.000 A 
ATOM      5  C   UNL     1      38.022  30.913  48.799  0.00  0.00    +0.000 A 
ATOM      6  C   UNL     1      36.962  30.191  48.304  0.00  0.00    +0.000 A 
ATOM      7  H   UNL     1      35.625  29.223  51.252  0.00  0.00    +0.000 HD
ATOM      8  H   UNL     1      37.517  30.512  52.091  0.00  0.00    +0.000 HD
ATOM      9  H   UNL     1      39.095  31.623  50.526  0.00  0.00    +0.000 HD
ATOM     10  H   UNL     1      38.706  31.395  48.104  0.00  0.00    +0.000 HD
ENDROOT
BRANCH   1  11
ATOM     11  C   UNL     1      34.926  28.784  48.696  0.00  0.00    +0.000 C 
ATOM     12  O   UNL     1      34.584  27.858  49.505  0.00  0.00    +0.000 OA
BRANCH  11  17
ATOM     13  C   UNL     1      33.005  30.569  46.192  0.00  0.00    +0.000 A 
ATOM     14  C   UNL     1      32.828  29.630  45.166  0.00  0.00    +0.000 A 
ATOM     15  C   UNL     1      33.373  28.375  45.338  0.00  0.00    +0.000 A 
ATOM     16  N   UNL     1      34.059  28.086  46.484  0.00  0.00    +0.000 NA
ATOM     17  C   UNL     1      34.210  29.010  47.446  0.00  0.00    +0.000 A 
ATOM     18  N   UNL     1      33.684  30.241  47.294  0.00  0.00    +0.000 NA
ATOM     19  H   UNL     1      32.553  31.530  45.991  0.00  0.00    +0.000 HD
ATOM     20  H   UNL     1      32.313  29.741  44.231  0.00  0.00    +0.000 HD
ATOM     21  H   UNL     1      33.339  27.526  44.660  0.00  0.00    +0.000 HD
ENDBRANCH  11  17
ENDBRANCH   1  11
BRANCH   6  22
ATOM     22  S   UNL     1      36.723  30.055  46.558  0.00  0.00    +0.000 S 
ATOM     23  H   UNL     1      35.700  30.975  46.200  0.00  0.00    +0.000 HD
ENDBRANCH   6  22
TORSDOF 3
