
 OpenBabel03272510203D

 29 31  0  0  0  0  0  0  0  0999 V2000
   37.4220   29.1890   50.8580 Br  0  0  0  0  0  0  0  0  0  0  0  0
   36.0110   29.2610   49.5710 C   0  0  0  0  0  0  0  0  0  0  0  0
   36.0060   30.2580   48.5840 C   0  0  0  0  0  0  0  0  0  0  0  0
   34.9560   30.2330   47.7040 C   0  0  0  0  0  0  0  0  0  0  0  0
   33.9300   29.3070   47.7300 C   0  0  0  0  0  0  0  0  0  0  0  0
   33.9750   28.3580   48.7030 C   0  0  0  0  0  0  0  0  0  0  0  0
   35.0120   28.3420   49.6130 C   0  0  0  0  0  0  0  0  0  0  0  0
   34.9180   30.9920   46.9240 H   0  0  0  0  0  0  0  0  0  0  0  0
   33.1980   27.6080   48.7730 H   0  0  0  0  0  0  0  0  0  0  0  0
   35.0400   27.5750   50.3930 H   0  0  0  0  0  0  0  0  0  0  0  0
   38.0010   33.1750   49.4480 C   0  0  0  0  0  0  0  0  0  0  0  0
   39.0250   33.1770   48.4570 C   0  0  0  0  0  0  0  0  0  0  0  0
   39.0070   32.1640   47.5040 C   0  0  0  0  0  0  0  0  0  0  0  0
   38.0150   31.2180   47.5580 N   0  0  0  0  0  0  0  0  0  0  0  0
   37.0580   31.2490   48.5150 C   0  0  0  0  0  0  0  0  0  0  0  0
   37.0540   32.2310   49.4630 N   0  0  0  0  0  0  0  0  0  0  0  0
   37.9420   33.9250   50.2270 H   0  0  0  0  0  0  0  0  0  0  0  0
   39.7330   33.9750   48.5370 H   0  0  0  0  0  0  0  0  0  0  0  0
   39.7760   32.1770   46.7700 H   0  0  0  0  0  0  0  0  0  0  0  0
   32.8290   29.3130   46.7750 C   0  0  0  0  0  0  0  0  0  0  0  0
   32.0660   28.2010   46.4700 C   0  0  0  0  0  0  0  0  0  0  0  0
   31.0250   28.2440   45.5540 C   0  0  0  0  0  0  0  0  0  0  0  0
   30.7430   29.3970   44.9420 N   0  0  0  0  0  0  0  0  0  0  0  0
   31.4740   30.4800   45.2280 C   0  0  0  0  0  0  0  0  0  0  0  0
   32.4700   30.4170   46.1120 N   0  0  0  0  0  0  0  0  0  0  0  0
   32.2950   27.2580   46.9690 H   0  0  0  0  0  0  0  0  0  0  0  0
   30.4450   27.3380   45.3410 H   0  0  0  0  0  0  0  0  0  0  0  0
   31.2190   32.0970   44.4920 S   0  0  0  0  0  0  0  0  0  0  0  0
   30.4970   31.9780   43.2860 H   0  0  0  0  0  0  0  0  0  0  0  0
  2  7  1  0  0  0  0
  2  1  1  0  0  0  0
  3  2  2  0  0  0  0
  4  5  2  0  0  0  0
  4  3  1  0  0  0  0
  5  6  1  0  0  0  0
  6  9  1  0  0  0  0
  6  7  2  0  0  0  0
  7 10  1  0  0  0  0
  8  4  1  0  0  0  0
 11 16  1  0  0  0  0
 11 17  1  0  0  0  0
 12 18  1  0  0  0  0
 12 11  2  0  0  0  0
 13 14  2  0  0  0  0
 13 12  1  0  0  0  0
 14 15  1  0  0  0  0
 15  3  1  0  0  0  0
 15 16  2  0  0  0  0
 19 13  1  0  0  0  0
 20  5  1  0  0  0  0
 21 20  1  0  0  0  0
 21 26  1  0  0  0  0
 22 21  2  0  0  0  0
 23 24  2  0  0  0  0
 23 22  1  0  0  0  0
 24 25  1  0  0  0  0
 25 20  2  0  0  0  0
 27 22  1  0  0  0  0
 28 24  1  0  0  0  0
 29 28  1  0  0  0  0
M  END
>  <minimizedAffinity>
-6.01949167

>  <minimizedRMSD>
0.154982775

$$$$
