REMARK  Name = 
REMARK  2 active torsions:
REMARK  status: ('A' for Active; 'I' for Inactive)
REMARK    1  A    between atoms: C_1  and  C_7
REMARK    2  A    between atoms: C_12  and  S_26
REMARK                            x       y       z     vdW  Elec       q    Type
REMARK                         _______ _______ _______ _____ _____    ______ ____
ROOT
ATOM      1  C   UNL     1      35.514  30.321  49.744  0.00  0.00    +0.000 C 
ATOM      2  C   UNL     1      36.477  31.180  48.955  0.00  0.00    +0.000 C 
ATOM      3  C   UNL     1      37.913  30.791  49.153  0.00  0.00    +0.000 C 
ATOM      4  C   UNL     1      38.319  30.778  50.599  0.00  0.00    +0.000 C 
ATOM      5  C   UNL     1      37.303  30.101  51.491  0.00  0.00    +0.000 C 
ATOM      6  C   UNL     1      36.182  29.444  50.739  0.00  0.00    +0.000 C 
ATOM      7  H   UNL     1      34.762  30.978  50.226  0.00  0.00    +0.000 HD
ATOM      8  H   UNL     1      36.248  31.155  47.879  0.00  0.00    +0.000 HD
ATOM      9  H   UNL     1      36.368  32.260  49.262  0.00  0.00    +0.000 HD
ATOM     10  H   UNL     1      38.053  29.807  48.649  0.00  0.00    +0.000 HD
ATOM     11  H   UNL     1      38.546  31.503  48.627  0.00  0.00    +0.000 HD
ATOM     12  H   UNL     1      39.333  30.352  50.682  0.00  0.00    +0.000 HD
ATOM     13  H   UNL     1      38.367  31.843  50.923  0.00  0.00    +0.000 HD
ATOM     14  H   UNL     1      36.889  30.771  52.270  0.00  0.00    +0.000 HD
ATOM     15  H   UNL     1      37.856  29.279  52.016  0.00  0.00    +0.000 HD
ATOM     16  H   UNL     1      36.487  28.444  50.330  0.00  0.00    +0.000 HD
ENDROOT
BRANCH   1  17
ATOM     17  C   UNL     1      34.753  29.431  48.810  0.00  0.00    +0.000 A 
ATOM     18  C   UNL     1      34.218  30.054  47.659  0.00  0.00    +0.000 A 
ATOM     19  C   UNL     1      33.504  29.256  46.776  0.00  0.00    +0.000 A 
ATOM     20  N   UNL     1      33.347  27.911  47.051  0.00  0.00    +0.000 NA
ATOM     21  C   UNL     1      33.885  27.354  48.181  0.00  0.00    +0.000 A 
ATOM     22  N   UNL     1      34.571  28.108  49.034  0.00  0.00    +0.000 NA
ATOM     23  H   UNL     1      34.296  31.082  47.385  0.00  0.00    +0.000 HD
ATOM     24  H   UNL     1      33.069  29.648  45.885  0.00  0.00    +0.000 HD
ATOM     25  H   UNL     1      33.749  26.299  48.375  0.00  0.00    +0.000 HD
ENDBRANCH   1  17
BRANCH   6  26
ATOM     26  S   UNL     1      34.921  29.046  52.015  0.00  0.00    +0.000 S 
ATOM     27  H   UNL     1      33.816  28.482  51.314  0.00  0.00    +0.000 HD
ENDBRANCH   6  26
TORSDOF 2
