
     RDKit          3D

 34 36  0  0  0  0  0  0  0  0999 V2000
   34.0048   28.8081   48.2935 C   0  0  0  0  0  0  0  0  0  0  0  0
   34.6255   28.3755   49.4151 C   0  0  0  0  0  0  0  0  0  0  0  0
   35.8488   28.8087   49.8520 C   0  0  0  0  0  0  0  0  0  0  0  0
   36.5425   29.7403   49.1539 C   0  0  0  0  0  0  0  0  0  0  0  0
   35.9134   30.2050   47.9809 C   0  0  0  0  0  0  0  0  0  0  0  0
   34.7060   29.7507   47.5865 N   0  0  0  0  0  0  0  0  0  0  0  0
   31.8996   27.5107   48.5565 C   0  0  0  0  0  0  0  0  0  0  0  0
   32.7284   28.3629   47.8282 C   0  0  0  0  0  0  0  0  0  0  0  0
   32.2613   28.7751   46.6051 C   0  0  0  0  0  0  0  0  0  0  0  0
   31.0393   28.3463   46.1642 N   0  0  0  0  0  0  0  0  0  0  0  0
   30.2749   27.5139   46.9212 C   0  0  0  0  0  0  0  0  0  0  0  0
   30.6992   27.0835   48.1345 N   0  0  0  0  0  0  0  0  0  0  0  0
   37.7760   30.2962   49.4302 O   0  0  0  0  0  0  0  0  0  0  0  0
   38.3643   31.2630   48.6358 C   0  0  0  0  0  0  0  0  0  0  0  0
   38.4410   32.5191   49.2377 C   0  0  0  0  0  0  0  0  0  0  0  0
   39.0572   33.3639   48.3009 C   0  0  0  0  0  0  0  0  0  0  0  0
   39.3166   32.6188   47.2193 N   0  0  0  0  0  0  0  0  0  0  0  0
   38.9129   31.3913   47.4123 N   0  0  0  0  0  0  0  0  0  0  0  0
   39.9506   33.1299   46.0320 C   0  0  0  0  0  0  0  0  0  0  0  0
   40.6665   31.9594   45.3791 C   0  0  0  0  0  0  0  0  0  0  0  0
   34.1394   27.6220   50.0433 H   0  0  0  0  0  0  0  0  0  0  0  0
   36.3409   28.4545   50.7566 H   0  0  0  0  0  0  0  0  0  0  0  0
   36.3959   30.9521   47.3585 H   0  0  0  0  0  0  0  0  0  0  0  0
   32.2220   27.1602   49.5217 H   0  0  0  0  0  0  0  0  0  0  0  0
   32.8710   29.4401   45.9995 H   0  0  0  0  0  0  0  0  0  0  0  0
   29.3065   27.1600   46.5973 H   0  0  0  0  0  0  0  0  0  0  0  0
   38.1510   32.9448   50.1926 H   0  0  0  0  0  0  0  0  0  0  0  0
   39.2935   34.4344   48.4075 H   0  0  0  0  0  0  0  0  0  0  0  0
   39.2493   33.5865   45.3347 H   0  0  0  0  0  0  0  0  0  0  0  0
   40.7348   33.8547   46.3507 H   0  0  0  0  0  0  0  0  0  0  0  0
   41.0814   32.3077   44.4084 H   0  0  0  0  0  0  0  0  0  0  0  0
   41.4091   31.5144   46.0424 H   0  0  0  0  0  0  0  0  0  0  0  0
   39.3944   30.7128   44.9917 S   0  0  0  0  0  0  0  0  0  0  0  0
   38.1957   31.0278   45.6635 H   0  0  0  0  0  0  0  0  0  0  0  0
  1  2  2  0
  2  3  1  0
  4 13  1  0
  4  3  2  0
  5  4  1  0
  6  5  2  0
  6  1  1  0
  8  1  1  0
  8  7  2  0
  9  8  1  0
 10  9  2  0
 10 11  1  0
 11 12  2  0
 12  7  1  0
 14 15  1  0
 14 13  1  0
 16 15  2  0
 17 18  1  0
 17 16  1  0
 18 14  2  0
 19 17  1  0
 20 19  1  0
  2 21  1  0
  3 22  1  0
  5 23  1  0
  7 24  1  0
  9 25  1  0
 11 26  1  0
 15 27  1  0
 16 28  1  0
 19 29  1  0
 19 30  1  0
 20 31  1  0
 20 32  1  0
 33 34  1  0
 20 33  1  0
M  ISO  8  21  14  22  14  23  14  24  14  25  14  26  14  27  14  28  14
M  ISO  5  29   8  30   8  31   8  32   8  34  11
M  END
>  <DihAtoms>  (1) 
18,19,32,33

>  <DihDeg>  (1) 
91.53352111452756

$$$$
