
     RDKit          3D

 33 35  0  0  0  0  0  0  0  0999 V2000
   34.9364   30.1294   47.5923 C   0  0  0  0  0  0  0  0  0  0  0  0
   36.2292   30.7190   47.4116 C   0  0  0  0  0  0  0  0  0  0  0  0
   36.7699   30.6685   46.1264 C   0  0  0  0  0  0  0  0  0  0  0  0
   36.0632   30.0764   45.1268 N   0  0  0  0  0  0  0  0  0  0  0  0
   34.8476   29.5336   45.3439 C   0  0  0  0  0  0  0  0  0  0  0  0
   34.2959   29.5619   46.5606 N   0  0  0  0  0  0  0  0  0  0  0  0
   38.0660   31.2320   45.8299 C   0  0  0  0  0  0  0  0  0  0  0  0
   38.1216   32.4518   45.1985 C   0  0  0  0  0  0  0  0  0  0  0  0
   39.3066   33.0799   44.8690 C   0  0  0  0  0  0  0  0  0  0  0  0
   40.4753   32.4136   45.2093 C   0  0  0  0  0  0  0  0  0  0  0  0
   40.5026   31.1653   45.8551 C   0  0  0  0  0  0  0  0  0  0  0  0
   39.2510   30.6135   46.1454 C   0  0  0  0  0  0  0  0  0  0  0  0
   36.8101   31.2883   48.5738 N   0  0  0  0  0  0  0  0  0  0  0  0
   37.5723   32.4866   48.9431 C   0  0  0  0  0  0  0  0  0  0  0  0
   38.7500   31.8695   49.7081 C   0  0  0  0  0  0  0  0  0  0  0  0
   38.1238   30.6879   50.4254 C   0  0  0  0  0  0  0  0  0  0  0  0
   36.7134   30.6105   49.8709 C   0  0  2  0  0  0  0  0  0  0  0  0
   34.4557   30.1281   48.5459 H   0  0  0  0  0  0  0  0  0  0  0  0
   34.3035   29.0669   44.5304 H   0  0  0  0  0  0  0  0  0  0  0  0
   37.2135   32.9977   44.9195 H   0  0  0  0  0  0  0  0  0  0  0  0
   39.3541   34.0364   44.3739 H   0  0  0  0  0  0  0  0  0  0  0  0
   41.4318   32.8649   44.9722 H   0  0  0  0  0  0  0  0  0  0  0  0
   41.4272   30.6856   46.0998 H   0  0  0  0  0  0  0  0  0  0  0  0
   39.1978   29.6482   46.6451 H   0  0  0  0  0  0  0  0  0  0  0  0
   36.9806   33.1244   49.6360 H   0  0  0  0  0  0  0  0  0  0  0  0
   37.9088   33.0095   48.0364 H   0  0  0  0  0  0  0  0  0  0  0  0
   39.1840   32.5947   50.4077 H   0  0  0  0  0  0  0  0  0  0  0  0
   39.4869   31.4822   48.9655 H   0  0  0  0  0  0  0  0  0  0  0  0
   38.6889   29.7595   50.3327 H   0  0  0  0  0  0  0  0  0  0  0  0
   38.0204   31.0041   51.5042 H   0  0  0  0  0  0  0  0  0  0  0  0
   35.9570   31.0395   50.5287 H   0  0  0  0  0  0  0  0  0  0  0  0
   36.3436   28.8413   49.6771 S   0  0  0  0  0  0  0  0  0  0  0  0
   37.4728   28.0801   49.3548 H   0  0  0  0  0  0  0  0  0  0  0  0
  2  1  2  0
  2 13  1  0
  3  2  1  0
  4  5  1  0
  4  3  2  0
  5  6  2  0
  6  1  1  0
  7  3  1  0
  7 12  1  0
  8  7  2  0
  9  8  1  0
  9 10  2  0
 10 11  1  0
 11 12  2  0
 13 14  1  0
 13 17  1  0
 14 15  1  0
 15 16  1  0
 17 16  1  0
  1 18  1  0
  5 19  1  0
  8 20  1  0
  9 21  1  0
 10 22  1  0
 11 23  1  0
 12 24  1  0
 14 25  1  0
 14 26  1  0
 15 27  1  0
 15 28  1  0
 16 29  1  0
 16 30  1  0
 17 31  1  1
 32 33  1  0
 17 32  1  0
M  ISO  8  18  14  19  14  20  14  21  14  22  14  23  14  24  14  25  13
M  ISO  7  26  13  27  13  28  13  29  13  30  13  31  13  33  11
M  END
>  <DihAtoms>  (1) 
12,16,31,32

>  <DihDeg>  (1) 
109.95289709143293

$$$$
