
 OpenBabel03272505123D

 32 34  0  0  0  0  0  0  0  0999 V2000
   36.3760   30.9050   45.6980 Cl  0  0  0  0  0  0  0  0  0  0  0  0
   36.6770   30.7460   47.4090 C   0  0  0  0  0  0  0  0  0  0  0  0
   37.9440   31.0620   47.8610 C   0  0  0  0  0  0  0  0  0  0  0  0
   38.1780   30.9360   49.2130 C   0  0  0  0  0  0  0  0  0  0  0  0
   37.1830   30.5120   50.0590 C   0  0  0  0  0  0  0  0  0  0  0  0
   35.9270   30.2130   49.5240 C   0  0  0  0  0  0  0  0  0  0  0  0
   35.6250   30.3150   48.1940 C   0  0  0  0  0  0  0  0  0  0  0  0
   39.1470   31.1720   49.5970 H   0  0  0  0  0  0  0  0  0  0  0  0
   37.4080   30.4260   51.1150 H   0  0  0  0  0  0  0  0  0  0  0  0
   35.1720   29.8830   50.2260 H   0  0  0  0  0  0  0  0  0  0  0  0
   40.1950   33.3010   46.0900 C   0  0  0  0  0  0  0  0  0  0  0  0
   40.9020   32.4650   45.2150 C   0  0  0  0  0  0  0  0  0  0  0  0
   40.5870   31.0990   45.2450 C   0  0  0  0  0  0  0  0  0  0  0  0
   39.6260   30.6680   46.1110 N   0  0  0  0  0  0  0  0  0  0  0  0
   38.9860   31.5130   46.9210 C   0  0  0  0  0  0  0  0  0  0  0  0
   39.2720   32.8150   46.9060 N   0  0  0  0  0  0  0  0  0  0  0  0
   40.4310   34.3750   46.0770 H   0  0  0  0  0  0  0  0  0  0  0  0
   41.6580   32.8630   44.5460 H   0  0  0  0  0  0  0  0  0  0  0  0
   41.1080   30.4050   44.5850 H   0  0  0  0  0  0  0  0  0  0  0  0
   34.0370   29.9360   47.5160 S   0  0  0  0  0  0  0  0  0  0  0  0
   33.7130   29.1760   44.4640 Cl  0  0  0  0  0  0  0  0  0  0  0  0
   33.7530   27.9570   45.7060 C   0  0  0  0  0  0  0  0  0  0  0  0
   33.8930   28.1980   47.0820 C   0  0  0  0  0  0  0  0  0  0  0  0
   33.9100   27.1430   47.9650 C   0  0  0  0  0  0  0  0  0  0  0  0
   33.7920   25.8560   47.5170 C   0  0  0  0  0  0  0  0  0  0  0  0
   33.6510   25.5550   46.1670 C   0  0  0  0  0  0  0  0  0  0  0  0
   33.6360   26.6320   45.2980 C   0  0  0  0  0  0  0  0  0  0  0  0
   34.0220   27.4160   49.0070 H   0  0  0  0  0  0  0  0  0  0  0  0
   33.8140   25.0770   48.2670 H   0  0  0  0  0  0  0  0  0  0  0  0
   33.5610   24.5400   45.8510 H   0  0  0  0  0  0  0  0  0  0  0  0
   33.4540   26.2360   43.5580 S   0  0  0  0  0  0  0  0  0  0  0  0
   32.2230   25.6320   43.2990 H   0  0  0  0  0  0  0  0  0  0  0  0
  1  2  1  0  0  0  0
  2  3  2  0  0  0  0
  2  7  1  0  0  0  0
  3  4  1  0  0  0  0
  4  8  1  0  0  0  0
  4  5  2  0  0  0  0
  5  9  1  0  0  0  0
  6  5  1  0  0  0  0
  6 10  1  0  0  0  0
  7  6  2  0  0  0  0
 11 16  1  0  0  0  0
 12 13  1  0  0  0  0
 12 11  2  0  0  0  0
 13 14  2  0  0  0  0
 14 15  1  0  0  0  0
 15  3  1  0  0  0  0
 16 15  2  0  0  0  0
 17 11  1  0  0  0  0
 18 12  1  0  0  0  0
 19 13  1  0  0  0  0
 20  7  1  0  0  0  0
 21 22  1  0  0  0  0
 22 23  1  0  0  0  0
 23 20  1  0  0  0  0
 23 24  2  0  0  0  0
 24 28  1  0  0  0  0
 25 24  1  0  0  0  0
 25 29  1  0  0  0  0
 26 25  2  0  0  0  0
 27 22  2  0  0  0  0
 27 26  1  0  0  0  0
 30 26  1  0  0  0  0
 31 27  1  0  0  0  0
 32 31  1  0  0  0  0
M  END
>  <minimizedAffinity>
-5.74094105

>  <minimizedRMSD>
0.0235365182

$$$$
