REMARK  Name = 
REMARK  2 active torsions:
REMARK  status: ('A' for Active; 'I' for Inactive)
REMARK    1  A    between atoms: C_5  and  C_7
REMARK    2  A    between atoms: C_12  and  S_20
REMARK                            x       y       z     vdW  Elec       q    Type
REMARK                         _______ _______ _______ _____ _____    ______ ____
ROOT
ATOM      1  C   UNL     1      36.097  30.133  48.606  0.00  0.00    +0.000 A 
ATOM      2  C   UNL     1      35.282  29.959  47.507  0.00  0.00    +0.000 A 
ATOM      3  C   UNL     1      34.294  28.985  47.505  0.00  0.00    +0.000 A 
ATOM      4  C   UNL     1      34.154  28.197  48.635  0.00  0.00    +0.000 A 
ATOM      5  C   UNL     1      34.958  28.355  49.741  0.00  0.00    +0.000 A 
ATOM      6  C   UNL     1      35.943  29.336  49.726  0.00  0.00    +0.000 A 
ATOM      7  H   UNL     1      35.395  30.583  46.619  0.00  0.00    +0.000 HD
ATOM      8  H   UNL     1      33.628  28.822  46.646  0.00  0.00    +0.000 HD
ATOM      9  H   UNL     1      33.391  27.417  48.680  0.00  0.00    +0.000 HD
ATOM     10  H   UNL     1      34.854  27.740  50.630  0.00  0.00    +0.000 HD
ENDROOT
BRANCH   1  15
ATOM     11  C   UNL     1      38.008  33.105  49.473  0.00  0.00    +0.000 A 
ATOM     12  C   UNL     1      38.967  33.205  48.467  0.00  0.00    +0.000 A 
ATOM     13  C   UNL     1      38.955  32.222  47.462  0.00  0.00    +0.000 A 
ATOM     14  N   UNL     1      38.023  31.243  47.526  0.00  0.00    +0.000 NA
ATOM     15  C   UNL     1      37.104  31.177  48.521  0.00  0.00    +0.000 A 
ATOM     16  N   UNL     1      37.099  32.120  49.505  0.00  0.00    +0.000 NA
ATOM     17  H   UNL     1      37.968  33.832  50.274  0.00  0.00    +0.000 HD
ATOM     18  H   UNL     1      39.676  34.019  48.490  0.00  0.00    +0.000 HD
ATOM     19  H   UNL     1      39.689  32.279  46.672  0.00  0.00    +0.000 HD
ENDBRANCH   1  15
BRANCH   6  20
ATOM     20  S   UNL     1      37.012  29.578  51.141  0.00  0.00    +0.000 S 
ATOM     21  H   UNL     1      37.102  28.347  51.857  0.00  0.00    +0.000 HD
ENDBRANCH   6  20
TORSDOF 2
