
     RDKit          3D

 32 34  0  0  0  0  0  0  0  0999 V2000
   36.3862   30.9010   45.6994 Cl  0  0  0  0  0  0  0  0  0  0  0  0
   36.6808   30.7578   47.4116 C   0  0  0  0  0  0  0  0  0  0  0  0
   37.9461   31.0800   47.8664 C   0  0  0  0  0  0  0  0  0  0  0  0
   38.1754   30.9657   49.2201 C   0  0  0  0  0  0  0  0  0  0  0  0
   37.1773   30.5481   50.0655 C   0  0  0  0  0  0  0  0  0  0  0  0
   35.9241   30.2407   49.5286 C   0  0  0  0  0  0  0  0  0  0  0  0
   35.6270   30.3314   48.1973 C   0  0  0  0  0  0  0  0  0  0  0  0
   40.2017   33.3071   46.0871 C   0  0  0  0  0  0  0  0  0  0  0  0
   40.9113   32.4663   45.2192 C   0  0  0  0  0  0  0  0  0  0  0  0
   40.5964   31.0998   45.2567 C   0  0  0  0  0  0  0  0  0  0  0  0
   39.6319   30.6753   46.1230 N   0  0  0  0  0  0  0  0  0  0  0  0
   38.9902   31.5246   46.9256 C   0  0  0  0  0  0  0  0  0  0  0  0
   39.2761   32.8270   46.9039 N   0  0  0  0  0  0  0  0  0  0  0  0
   34.0425   29.9430   47.5166 S   0  0  0  0  0  0  0  0  0  0  0  0
   33.7434   29.1694   44.4664 Cl  0  0  0  0  0  0  0  0  0  0  0  0
   33.7774   27.9559   45.7126 C   0  0  0  0  0  0  0  0  0  0  0  0
   33.9064   28.2034   47.0885 C   0  0  0  0  0  0  0  0  0  0  0  0
   33.9199   27.1521   47.9768 C   0  0  0  0  0  0  0  0  0  0  0  0
   33.8086   25.8629   47.5335 C   0  0  0  0  0  0  0  0  0  0  0  0
   33.6782   25.5553   46.1828 C   0  0  0  0  0  0  0  0  0  0  0  0
   33.6673   26.6291   45.3105 C   0  0  0  0  0  0  0  0  0  0  0  0
   39.1422   31.2067   49.6061 H   0  0  0  0  0  0  0  0  0  0  0  0
   37.3988   30.4715   51.1245 H   0  0  0  0  0  0  0  0  0  0  0  0
   35.1669   29.9156   50.2311 H   0  0  0  0  0  0  0  0  0  0  0  0
   40.4384   34.3808   46.0682 H   0  0  0  0  0  0  0  0  0  0  0  0
   41.6691   32.8593   44.5504 H   0  0  0  0  0  0  0  0  0  0  0  0
   41.1183   30.4023   44.6026 H   0  0  0  0  0  0  0  0  0  0  0  0
   34.0228   27.4304   49.0178 H   0  0  0  0  0  0  0  0  0  0  0  0
   33.8268   25.0873   48.2872 H   0  0  0  0  0  0  0  0  0  0  0  0
   33.5936   24.5392   45.8708 H   0  0  0  0  0  0  0  0  0  0  0  0
   33.4988   26.2248   43.5703 S   0  0  0  0  0  0  0  0  0  0  0  0
   32.2709   25.6164   43.3052 H   0  0  0  0  0  0  0  0  0  0  0  0
  1  2  1  0
  2  3  2  0
  2  7  1  0
  3  4  1  0
  4  5  2  0
  6  5  1  0
  7  6  2  0
  8 13  2  0
  9 10  2  0
  9  8  1  0
 10 11  1  0
 11 12  2  0
 12  3  1  0
 13 12  1  0
 14  7  1  0
 15 16  1  0
 16 17  2  0
 17 14  1  0
 17 18  1  0
 19 18  2  0
 20 19  1  0
 21 16  1  0
 21 20  2  0
  4 22  1  0
  5 23  1  0
  6 24  1  0
  8 25  1  0
  9 26  1  0
 10 27  1  0
 18 28  1  0
 19 29  1  0
 20 30  1  0
 31 32  1  0
 21 31  1  0
M  ISO  8  22  14  23  14  24  14  25  14  26  14  27  14  28  14  29  14
M  ISO  2  30  14  32  11
M  END
>  <DihAtoms>  (1) 
15,20,30,31

>  <DihDeg>  (1) 
-11.32392110350113

$$$$
