
 OpenBabel03272510213D

 29 31  0  0  0  0  0  0  0  0999 V2000
   37.3080   28.6790   29.5670 Br  0  0  0  0  0  0  0  0  0  0  0  0
   36.5420   29.2880   31.2100 C   0  0  0  0  0  0  0  0  0  0  0  0
   36.1250   28.3630   32.1780 C   0  0  0  0  0  0  0  0  0  0  0  0
   35.5880   28.8880   33.3250 C   0  0  0  0  0  0  0  0  0  0  0  0
   35.4380   30.2400   33.5750 C   0  0  0  0  0  0  0  0  0  0  0  0
   35.8560   31.1000   32.6080 C   0  0  0  0  0  0  0  0  0  0  0  0
   36.4040   30.6190   31.4370 C   0  0  0  0  0  0  0  0  0  0  0  0
   35.2530   28.2010   34.1000 H   0  0  0  0  0  0  0  0  0  0  0  0
   35.7640   32.1690   32.7490 H   0  0  0  0  0  0  0  0  0  0  0  0
   36.7370   31.3190   30.6640 H   0  0  0  0  0  0  0  0  0  0  0  0
   35.3390   24.9990   31.0390 C   0  0  0  0  0  0  0  0  0  0  0  0
   36.4410   24.2280   31.5080 C   0  0  0  0  0  0  0  0  0  0  0  0
   37.4420   24.8890   32.2130 C   0  0  0  0  0  0  0  0  0  0  0  0
   37.3240   26.2390   32.4240 N   0  0  0  0  0  0  0  0  0  0  0  0
   36.2610   26.9390   31.9630 C   0  0  0  0  0  0  0  0  0  0  0  0
   35.2670   26.3140   31.2670 N   0  0  0  0  0  0  0  0  0  0  0  0
   34.5180   24.5640   30.4810 H   0  0  0  0  0  0  0  0  0  0  0  0
   36.4010   23.1850   31.2700 H   0  0  0  0  0  0  0  0  0  0  0  0
   38.2580   24.3010   32.5570 H   0  0  0  0  0  0  0  0  0  0  0  0
   34.8620   30.7610   34.8080 C   0  0  0  0  0  0  0  0  0  0  0  0
   35.5520   31.5520   35.7080 C   0  0  0  0  0  0  0  0  0  0  0  0
   34.9690   32.0300   36.8730 C   0  0  0  0  0  0  0  0  0  0  0  0
   33.6990   31.7200   37.1420 N   0  0  0  0  0  0  0  0  0  0  0  0
   33.0210   30.9550   36.2790 C   0  0  0  0  0  0  0  0  0  0  0  0
   33.5990   30.5060   35.1650 N   0  0  0  0  0  0  0  0  0  0  0  0
   36.5900   31.8060   35.4910 H   0  0  0  0  0  0  0  0  0  0  0  0
   35.5530   32.6540   37.5610 H   0  0  0  0  0  0  0  0  0  0  0  0
   31.3120   30.4530   36.4970 S   0  0  0  0  0  0  0  0  0  0  0  0
   31.2490   29.1780   37.0960 H   0  0  0  0  0  0  0  0  0  0  0  0
  1  2  1  0  0  0  0
  2  7  2  0  0  0  0
  2  3  1  0  0  0  0
  3  4  2  0  0  0  0
  4  5  1  0  0  0  0
  4  8  1  0  0  0  0
  5 20  1  0  0  0  0
  6  9  1  0  0  0  0
  6  5  2  0  0  0  0
  7  6  1  0  0  0  0
 10  7  1  0  0  0  0
 11 16  2  0  0  0  0
 11 12  1  0  0  0  0
 12 13  2  0  0  0  0
 13 14  1  0  0  0  0
 13 19  1  0  0  0  0
 15  3  1  0  0  0  0
 15 14  2  0  0  0  0
 16 15  1  0  0  0  0
 17 11  1  0  0  0  0
 18 12  1  0  0  0  0
 20 25  2  0  0  0  0
 20 21  1  0  0  0  0
 21 22  2  0  0  0  0
 22 23  1  0  0  0  0
 22 27  1  0  0  0  0
 24 28  1  0  0  0  0
 24 23  2  0  0  0  0
 25 24  1  0  0  0  0
 26 21  1  0  0  0  0
 28 29  1  0  0  0  0
M  END
>  <minimizedAffinity>
-5.38189983

$$$$

 OpenBabel03272510213D

 29 31  0  0  0  0  0  0  0  0999 V2000
   35.2710   30.4840   31.6660 Br  0  0  0  0  0  0  0  0  0  0  0  0
   36.1700   29.0600   32.5710 C   0  0  0  0  0  0  0  0  0  0  0  0
   36.0440   28.9170   33.9610 C   0  0  0  0  0  0  0  0  0  0  0  0
   36.7220   27.8690   34.5260 C   0  0  0  0  0  0  0  0  0  0  0  0
   37.5020   26.9680   33.8240 C   0  0  0  0  0  0  0  0  0  0  0  0
   37.5960   27.1440   32.4790 C   0  0  0  0  0  0  0  0  0  0  0  0
   36.9310   28.1850   31.8650 C   0  0  0  0  0  0  0  0  0  0  0  0
   36.6480   27.7250   35.6020 H   0  0  0  0  0  0  0  0  0  0  0  0
   38.1930   26.4700   31.8780 H   0  0  0  0  0  0  0  0  0  0  0  0
   37.0130   28.3200   30.7810 H   0  0  0  0  0  0  0  0  0  0  0  0
   35.2020   31.7020   36.1440 C   0  0  0  0  0  0  0  0  0  0  0  0
   33.7830   31.6230   36.2450 C   0  0  0  0  0  0  0  0  0  0  0  0
   33.1400   30.6030   35.5510 C   0  0  0  0  0  0  0  0  0  0  0  0
   33.8920   29.7270   34.8100 N   0  0  0  0  0  0  0  0  0  0  0  0
   35.2390   29.8340   34.7390 C   0  0  0  0  0  0  0  0  0  0  0  0
   35.8940   30.8260   35.4080 N   0  0  0  0  0  0  0  0  0  0  0  0
   35.7810   32.4660   36.6500 H   0  0  0  0  0  0  0  0  0  0  0  0
   33.3280   32.3730   36.8570 H   0  0  0  0  0  0  0  0  0  0  0  0
   32.0810   30.5550   35.6350 H   0  0  0  0  0  0  0  0  0  0  0  0
   38.2100   25.8640   34.4600 C   0  0  0  0  0  0  0  0  0  0  0  0
   39.2320   25.1540   33.8590 C   0  0  0  0  0  0  0  0  0  0  0  0
   39.8830   24.1070   34.4970 C   0  0  0  0  0  0  0  0  0  0  0  0
   39.5160   23.7690   35.7350 N   0  0  0  0  0  0  0  0  0  0  0  0
   38.5280   24.4490   36.3280 C   0  0  0  0  0  0  0  0  0  0  0  0
   37.9150   25.4510   35.6980 N   0  0  0  0  0  0  0  0  0  0  0  0
   39.5340   25.4280   32.8470 H   0  0  0  0  0  0  0  0  0  0  0  0
   40.6890   23.5690   33.9830 H   0  0  0  0  0  0  0  0  0  0  0  0
   37.9220   24.1160   37.9840 S   0  0  0  0  0  0  0  0  0  0  0  0
   36.7990   23.2650   37.9320 H   0  0  0  0  0  0  0  0  0  0  0  0
  1  2  1  0  0  0  0
  2  3  1  0  0  0  0
  3  4  2  0  0  0  0
  3 15  1  0  0  0  0
  4  8  1  0  0  0  0
  5 20  1  0  0  0  0
  5  4  1  0  0  0  0
  6  5  2  0  0  0  0
  7  6  1  0  0  0  0
  7  2  2  0  0  0  0
  9  6  1  0  0  0  0
 10  7  1  0  0  0  0
 11 12  1  0  0  0  0
 11 17  1  0  0  0  0
 12 18  1  0  0  0  0
 13 19  1  0  0  0  0
 13 12  2  0  0  0  0
 14 13  1  0  0  0  0
 15 14  2  0  0  0  0
 15 16  1  0  0  0  0
 16 11  2  0  0  0  0
 20 25  1  0  0  0  0
 21 20  2  0  0  0  0
 21 22  1  0  0  0  0
 22 23  2  0  0  0  0
 23 24  1  0  0  0  0
 24 28  1  0  0  0  0
 25 24  2  0  0  0  0
 26 21  1  0  0  0  0
 27 22  1  0  0  0  0
 29 28  1  0  0  0  0
M  END
>  <minimizedAffinity>
-5.28553724

$$$$

 OpenBabel03272510213D

 29 31  0  0  0  0  0  0  0  0999 V2000
   35.0090   32.1490   32.3820 Br  0  0  0  0  0  0  0  0  0  0  0  0
   35.6920   30.4120   32.7970 C   0  0  0  0  0  0  0  0  0  0  0  0
   35.5280   29.8800   34.0850 C   0  0  0  0  0  0  0  0  0  0  0  0
   36.0480   28.6300   34.2930 C   0  0  0  0  0  0  0  0  0  0  0  0
   36.7070   27.8830   33.3340 C   0  0  0  0  0  0  0  0  0  0  0  0
   36.8430   28.4380   32.1000 C   0  0  0  0  0  0  0  0  0  0  0  0
   36.3350   29.6940   31.8420 C   0  0  0  0  0  0  0  0  0  0  0  0
   35.9400   28.1830   35.2800 H   0  0  0  0  0  0  0  0  0  0  0  0
   37.3500   27.8990   31.3100 H   0  0  0  0  0  0  0  0  0  0  0  0
   36.4500   30.1340   30.8460 H   0  0  0  0  0  0  0  0  0  0  0  0
   35.0280   32.1550   36.8790 C   0  0  0  0  0  0  0  0  0  0  0  0
   33.6260   32.0740   37.1220 C   0  0  0  0  0  0  0  0  0  0  0  0
   32.8760   31.2290   36.3100 C   0  0  0  0  0  0  0  0  0  0  0  0
   33.5110   30.5190   35.3220 N   0  0  0  0  0  0  0  0  0  0  0  0
   34.8450   30.6230   35.1220 C   0  0  0  0  0  0  0  0  0  0  0  0
   35.6040   31.4450   35.9040 N   0  0  0  0  0  0  0  0  0  0  0  0
   35.6850   32.7890   37.4630 H   0  0  0  0  0  0  0  0  0  0  0  0
   33.2670   32.6830   37.9240 H   0  0  0  0  0  0  0  0  0  0  0  0
   31.8310   31.1780   36.5020 H   0  0  0  0  0  0  0  0  0  0  0  0
   37.2480   26.5540   33.5940 C   0  0  0  0  0  0  0  0  0  0  0  0
   37.6000   25.6580   32.6020 C   0  0  0  0  0  0  0  0  0  0  0  0
   38.1120   24.4000   32.8880 C   0  0  0  0  0  0  0  0  0  0  0  0
   38.2740   24.0350   34.1620 N   0  0  0  0  0  0  0  0  0  0  0  0
   37.9360   24.8940   35.1310 C   0  0  0  0  0  0  0  0  0  0  0  0
   37.4460   26.0980   34.8350 N   0  0  0  0  0  0  0  0  0  0  0  0
   37.4690   25.9530   31.5600 H   0  0  0  0  0  0  0  0  0  0  0  0
   38.3790   23.7180   32.0710 H   0  0  0  0  0  0  0  0  0  0  0  0
   38.0930   24.5540   36.8850 S   0  0  0  0  0  0  0  0  0  0  0  0
   36.8710   24.0740   37.4020 H   0  0  0  0  0  0  0  0  0  0  0  0
  1  2  1  0  0  0  0
  2  3  1  0  0  0  0
  3  4  2  0  0  0  0
  3 15  1  0  0  0  0
  4  8  1  0  0  0  0
  5 20  1  0  0  0  0
  5  4  1  0  0  0  0
  6  5  2  0  0  0  0
  7  6  1  0  0  0  0
  7  2  2  0  0  0  0
  9  6  1  0  0  0  0
 10  7  1  0  0  0  0
 11 12  1  0  0  0  0
 11 17  1  0  0  0  0
 12 18  1  0  0  0  0
 13 19  1  0  0  0  0
 13 12  2  0  0  0  0
 14 13  1  0  0  0  0
 15 14  2  0  0  0  0
 15 16  1  0  0  0  0
 16 11  2  0  0  0  0
 20 25  1  0  0  0  0
 21 22  1  0  0  0  0
 21 20  2  0  0  0  0
 22 23  2  0  0  0  0
 23 24  1  0  0  0  0
 24 28  1  0  0  0  0
 25 24  2  0  0  0  0
 26 21  1  0  0  0  0
 27 22  1  0  0  0  0
 28 29  1  0  0  0  0
M  END
>  <minimizedAffinity>
-5.22591543

$$$$

 OpenBabel03272510213D

 29 31  0  0  0  0  0  0  0  0999 V2000
   35.1930   31.6200   32.1270 Br  0  0  0  0  0  0  0  0  0  0  0  0
   35.8590   29.9460   32.7690 C   0  0  0  0  0  0  0  0  0  0  0  0
   35.7310   29.6100   34.1240 C   0  0  0  0  0  0  0  0  0  0  0  0
   36.2360   28.3910   34.4960 C   0  0  0  0  0  0  0  0  0  0  0  0
   36.8470   27.4980   33.6340 C   0  0  0  0  0  0  0  0  0  0  0  0
   36.9490   27.8660   32.3290 C   0  0  0  0  0  0  0  0  0  0  0  0
   36.4550   29.0820   31.9070 C   0  0  0  0  0  0  0  0  0  0  0  0
   36.1550   28.0950   35.5400 H   0  0  0  0  0  0  0  0  0  0  0  0
   37.4170   27.2070   31.6090 H   0  0  0  0  0  0  0  0  0  0  0  0
   36.5420   29.3710   30.8550 H   0  0  0  0  0  0  0  0  0  0  0  0
   33.1110   31.2070   36.0780 C   0  0  0  0  0  0  0  0  0  0  0  0
   33.8170   32.1870   36.8340 C   0  0  0  0  0  0  0  0  0  0  0  0
   35.1930   32.2780   36.6530 C   0  0  0  0  0  0  0  0  0  0  0  0
   35.8040   31.4300   35.7650 N   0  0  0  0  0  0  0  0  0  0  0  0
   35.1000   30.5110   35.0640 C   0  0  0  0  0  0  0  0  0  0  0  0
   33.7490   30.4010   35.2240 N   0  0  0  0  0  0  0  0  0  0  0  0
   32.0400   31.0690   36.1590 H   0  0  0  0  0  0  0  0  0  0  0  0
   33.2120   32.7790   37.4880 H   0  0  0  0  0  0  0  0  0  0  0  0
   35.7070   33.0140   37.2230 H   0  0  0  0  0  0  0  0  0  0  0  0
   37.3720   26.2090   34.0670 C   0  0  0  0  0  0  0  0  0  0  0  0
   37.7390   25.9240   35.3690 C   0  0  0  0  0  0  0  0  0  0  0  0
   38.2360   24.6840   35.7450 C   0  0  0  0  0  0  0  0  0  0  0  0
   38.3670   23.7280   34.8230 N   0  0  0  0  0  0  0  0  0  0  0  0
   38.0160   23.9910   33.5590 C   0  0  0  0  0  0  0  0  0  0  0  0
   37.5400   25.1890   33.2190 N   0  0  0  0  0  0  0  0  0  0  0  0
   37.6330   26.7040   36.1240 H   0  0  0  0  0  0  0  0  0  0  0  0
   38.5170   24.5000   36.7890 H   0  0  0  0  0  0  0  0  0  0  0  0
   38.1320   22.8150   32.2090 S   0  0  0  0  0  0  0  0  0  0  0  0
   39.3450   22.9890   31.5120 H   0  0  0  0  0  0  0  0  0  0  0  0
  1  2  1  0  0  0  0
  2  3  1  0  0  0  0
  3  4  2  0  0  0  0
  3 15  1  0  0  0  0
  4  8  1  0  0  0  0
  5 20  1  0  0  0  0
  5  4  1  0  0  0  0
  6  5  2  0  0  0  0
  7  6  1  0  0  0  0
  7  2  2  0  0  0  0
  9  6  1  0  0  0  0
 10  7  1  0  0  0  0
 11 17  1  0  0  0  0
 11 12  1  0  0  0  0
 12 18  1  0  0  0  0
 13 12  2  0  0  0  0
 13 19  1  0  0  0  0
 14 13  1  0  0  0  0
 15 16  1  0  0  0  0
 15 14  2  0  0  0  0
 16 11  2  0  0  0  0
 20 21  1  0  0  0  0
 21 22  2  0  0  0  0
 21 26  1  0  0  0  0
 22 27  1  0  0  0  0
 23 22  1  0  0  0  0
 24 23  2  0  0  0  0
 25 24  1  0  0  0  0
 25 20  2  0  0  0  0
 28 24  1  0  0  0  0
 29 28  1  0  0  0  0
M  END
>  <minimizedAffinity>
-5.2172761

$$$$

 OpenBabel03272510213D

 29 31  0  0  0  0  0  0  0  0999 V2000
   35.0510   32.1930   32.3970 Br  0  0  0  0  0  0  0  0  0  0  0  0
   35.6850   30.4310   32.7850 C   0  0  0  0  0  0  0  0  0  0  0  0
   35.4940   29.8790   34.0610 C   0  0  0  0  0  0  0  0  0  0  0  0
   35.9810   28.6120   34.2510 C   0  0  0  0  0  0  0  0  0  0  0  0
   36.6300   27.8670   33.2830 C   0  0  0  0  0  0  0  0  0  0  0  0
   36.7920   28.4410   32.0610 C   0  0  0  0  0  0  0  0  0  0  0  0
   36.3190   29.7140   31.8220 C   0  0  0  0  0  0  0  0  0  0  0  0
   35.8520   28.1500   35.2270 H   0  0  0  0  0  0  0  0  0  0  0  0
   37.2920   27.9050   31.2660 H   0  0  0  0  0  0  0  0  0  0  0  0
   36.4540   30.1700   30.8360 H   0  0  0  0  0  0  0  0  0  0  0  0
   35.0240   32.1210   36.8870 C   0  0  0  0  0  0  0  0  0  0  0  0
   33.6200   32.0650   37.1210 C   0  0  0  0  0  0  0  0  0  0  0  0
   32.8570   31.2480   36.2910 C   0  0  0  0  0  0  0  0  0  0  0  0
   33.4840   30.5410   35.2960 N   0  0  0  0  0  0  0  0  0  0  0  0
   34.8210   30.6200   35.1060 C   0  0  0  0  0  0  0  0  0  0  0  0
   35.5920   31.4140   35.9050 N   0  0  0  0  0  0  0  0  0  0  0  0
   35.6910   32.7310   37.4850 H   0  0  0  0  0  0  0  0  0  0  0  0
   33.2690   32.6690   37.9300 H   0  0  0  0  0  0  0  0  0  0  0  0
   31.8110   31.2160   36.4760 H   0  0  0  0  0  0  0  0  0  0  0  0
   37.1330   26.5200   33.5230 C   0  0  0  0  0  0  0  0  0  0  0  0
   37.7470   26.1240   34.6970 C   0  0  0  0  0  0  0  0  0  0  0  0
   38.2150   24.8320   34.8890 C   0  0  0  0  0  0  0  0  0  0  0  0
   38.0710   23.9340   33.9120 N   0  0  0  0  0  0  0  0  0  0  0  0
   37.4790   24.3050   32.7720 C   0  0  0  0  0  0  0  0  0  0  0  0
   37.0360   25.5510   32.6070 N   0  0  0  0  0  0  0  0  0  0  0  0
   37.8670   26.8560   35.4960 H   0  0  0  0  0  0  0  0  0  0  0  0
   38.6970   24.5600   35.8360 H   0  0  0  0  0  0  0  0  0  0  0  0
   37.2110   23.2170   31.3690 S   0  0  0  0  0  0  0  0  0  0  0  0
   38.2560   23.3590   30.4340 H   0  0  0  0  0  0  0  0  0  0  0  0
  1  2  1  0  0  0  0
  2  3  1  0  0  0  0
  3  4  2  0  0  0  0
  3 15  1  0  0  0  0
  4  8  1  0  0  0  0
  5 20  1  0  0  0  0
  5  4  1  0  0  0  0
  6  5  2  0  0  0  0
  7  6  1  0  0  0  0
  7  2  2  0  0  0  0
  9  6  1  0  0  0  0
 10  7  1  0  0  0  0
 11 12  1  0  0  0  0
 11 17  1  0  0  0  0
 12 18  1  0  0  0  0
 13 19  1  0  0  0  0
 13 12  2  0  0  0  0
 14 13  1  0  0  0  0
 15 14  2  0  0  0  0
 15 16  1  0  0  0  0
 16 11  2  0  0  0  0
 20 21  1  0  0  0  0
 21 22  2  0  0  0  0
 21 26  1  0  0  0  0
 22 27  1  0  0  0  0
 23 22  1  0  0  0  0
 24 23  2  0  0  0  0
 25 24  1  0  0  0  0
 25 20  2  0  0  0  0
 28 24  1  0  0  0  0
 29 28  1  0  0  0  0
M  END
>  <minimizedAffinity>
-5.17193174

$$$$

 OpenBabel03272510213D

 29 31  0  0  0  0  0  0  0  0999 V2000
   38.8510   25.9330   34.5680 Br  0  0  0  0  0  0  0  0  0  0  0  0
   38.1600   24.2650   33.9410 C   0  0  0  0  0  0  0  0  0  0  0  0
   37.9970   23.1920   34.8290 C   0  0  0  0  0  0  0  0  0  0  0  0
   37.4950   22.0340   34.2940 C   0  0  0  0  0  0  0  0  0  0  0  0
   37.1500   21.8680   32.9650 C   0  0  0  0  0  0  0  0  0  0  0  0
   37.3250   22.9340   32.1400 C   0  0  0  0  0  0  0  0  0  0  0  0
   37.8270   24.1210   32.6330 C   0  0  0  0  0  0  0  0  0  0  0  0
   37.3540   21.1790   34.9520 H   0  0  0  0  0  0  0  0  0  0  0  0
   37.0720   22.8620   31.0900 H   0  0  0  0  0  0  0  0  0  0  0  0
   37.9650   24.9740   31.9610 H   0  0  0  0  0  0  0  0  0  0  0  0
   39.8970   22.8520   37.9120 C   0  0  0  0  0  0  0  0  0  0  0  0
   39.0800   23.5090   38.8760 C   0  0  0  0  0  0  0  0  0  0  0  0
   37.8790   24.0610   38.4390 C   0  0  0  0  0  0  0  0  0  0  0  0
   37.5400   23.9500   37.1150 N   0  0  0  0  0  0  0  0  0  0  0  0
   38.3430   23.3170   36.2280 C   0  0  0  0  0  0  0  0  0  0  0  0
   39.5260   22.7680   36.6310 N   0  0  0  0  0  0  0  0  0  0  0  0
   40.8470   22.3960   38.1660 H   0  0  0  0  0  0  0  0  0  0  0  0
   39.4700   23.5210   39.8720 H   0  0  0  0  0  0  0  0  0  0  0  0
   37.2790   24.5490   39.1690 H   0  0  0  0  0  0  0  0  0  0  0  0
   36.6190   20.6190   32.4320 C   0  0  0  0  0  0  0  0  0  0  0  0
   35.7900   19.7690   33.1410 C   0  0  0  0  0  0  0  0  0  0  0  0
   35.3030   18.5870   32.6000 C   0  0  0  0  0  0  0  0  0  0  0  0
   35.6420   18.2530   31.3530 N   0  0  0  0  0  0  0  0  0  0  0  0
   36.4430   19.0670   30.6570 C   0  0  0  0  0  0  0  0  0  0  0  0
   36.9000   20.1980   31.1940 N   0  0  0  0  0  0  0  0  0  0  0  0
   35.5120   20.0400   34.1600 H   0  0  0  0  0  0  0  0  0  0  0  0
   34.6490   17.9410   33.1970 H   0  0  0  0  0  0  0  0  0  0  0  0
   36.9870   18.7590   28.9750 S   0  0  0  0  0  0  0  0  0  0  0  0
   38.2500   18.1320   28.9760 H   0  0  0  0  0  0  0  0  0  0  0  0
  2  1  1  0  0  0  0
  2  3  1  0  0  0  0
  3 15  1  0  0  0  0
  4  3  2  0  0  0  0
  4  8  1  0  0  0  0
  5  4  1  0  0  0  0
  6  7  1  0  0  0  0
  6  5  2  0  0  0  0
  7  2  2  0  0  0  0
  9  6  1  0  0  0  0
 10  7  1  0  0  0  0
 11 17  1  0  0  0  0
 11 12  1  0  0  0  0
 12 18  1  0  0  0  0
 13 12  2  0  0  0  0
 13 19  1  0  0  0  0
 14 13  1  0  0  0  0
 15 16  1  0  0  0  0
 15 14  2  0  0  0  0
 16 11  2  0  0  0  0
 20  5  1  0  0  0  0
 20 21  1  0  0  0  0
 21 26  1  0  0  0  0
 22 21  2  0  0  0  0
 22 27  1  0  0  0  0
 23 22  1  0  0  0  0
 24 25  1  0  0  0  0
 24 23  2  0  0  0  0
 25 20  2  0  0  0  0
 28 29  1  0  0  0  0
 28 24  1  0  0  0  0
M  END
>  <minimizedAffinity>
-5.13161087

$$$$

 OpenBabel03272510213D

 29 31  0  0  0  0  0  0  0  0999 V2000
   37.7150   27.1940   30.9370 Br  0  0  0  0  0  0  0  0  0  0  0  0
   36.8580   28.2280   32.2990 C   0  0  0  0  0  0  0  0  0  0  0  0
   37.0560   27.9140   33.6510 C   0  0  0  0  0  0  0  0  0  0  0  0
   36.4040   28.7070   34.5590 C   0  0  0  0  0  0  0  0  0  0  0  0
   35.5840   29.7710   34.2260 C   0  0  0  0  0  0  0  0  0  0  0  0
   35.4210   30.0390   32.9030 C   0  0  0  0  0  0  0  0  0  0  0  0
   36.0570   29.2690   31.9530 C   0  0  0  0  0  0  0  0  0  0  0  0
   36.5330   28.4950   35.6180 H   0  0  0  0  0  0  0  0  0  0  0  0
   34.7910   30.8590   32.5840 H   0  0  0  0  0  0  0  0  0  0  0  0
   35.9200   29.4910   30.8900 H   0  0  0  0  0  0  0  0  0  0  0  0
   40.0130   26.1310   34.7970 C   0  0  0  0  0  0  0  0  0  0  0  0
   39.5880   24.7720   34.8200 C   0  0  0  0  0  0  0  0  0  0  0  0
   38.2790   24.4950   34.4370 C   0  0  0  0  0  0  0  0  0  0  0  0
   37.4650   25.5320   34.0580 N   0  0  0  0  0  0  0  0  0  0  0  0
   37.9050   26.8120   34.0490 C   0  0  0  0  0  0  0  0  0  0  0  0
   39.1830   27.1100   34.4210 N   0  0  0  0  0  0  0  0  0  0  0  0
   41.0140   26.4350   35.0810 H   0  0  0  0  0  0  0  0  0  0  0  0
   40.3290   24.0690   35.1380 H   0  0  0  0  0  0  0  0  0  0  0  0
   37.9760   23.4760   34.4580 H   0  0  0  0  0  0  0  0  0  0  0  0
   34.9060   30.5920   35.2210 C   0  0  0  0  0  0  0  0  0  0  0  0
   35.5470   31.5210   36.0200 C   0  0  0  0  0  0  0  0  0  0  0  0
   34.8680   32.2870   36.9580 C   0  0  0  0  0  0  0  0  0  0  0  0
   33.5500   32.1270   37.0990 N   0  0  0  0  0  0  0  0  0  0  0  0
   32.9190   31.2310   36.3320 C   0  0  0  0  0  0  0  0  0  0  0  0
   33.5900   30.5060   35.4360 N   0  0  0  0  0  0  0  0  0  0  0  0
   36.6230   31.6540   35.9070 H   0  0  0  0  0  0  0  0  0  0  0  0
   35.4140   33.0120   37.5720 H   0  0  0  0  0  0  0  0  0  0  0  0
   31.1560   30.9000   36.4020 S   0  0  0  0  0  0  0  0  0  0  0  0
   30.8980   29.8010   37.2460 H   0  0  0  0  0  0  0  0  0  0  0  0
  1  2  1  0  0  0  0
  2  3  1  0  0  0  0
  3 15  1  0  0  0  0
  3  4  2  0  0  0  0
  4  8  1  0  0  0  0
  5  4  1  0  0  0  0
  5 20  1  0  0  0  0
  6  5  2  0  0  0  0
  7  2  2  0  0  0  0
  7  6  1  0  0  0  0
  9  6  1  0  0  0  0
 10  7  1  0  0  0  0
 11 12  1  0  0  0  0
 11 17  1  0  0  0  0
 12 18  1  0  0  0  0
 13 19  1  0  0  0  0
 13 12  2  0  0  0  0
 14 13  1  0  0  0  0
 15 14  2  0  0  0  0
 15 16  1  0  0  0  0
 16 11  2  0  0  0  0
 20 25  2  0  0  0  0
 20 21  1  0  0  0  0
 21 22  2  0  0  0  0
 22 23  1  0  0  0  0
 22 27  1  0  0  0  0
 24 28  1  0  0  0  0
 24 23  2  0  0  0  0
 25 24  1  0  0  0  0
 26 21  1  0  0  0  0
 28 29  1  0  0  0  0
M  END
>  <minimizedAffinity>
-5.10246038

$$$$

 OpenBabel03272510213D

 29 31  0  0  0  0  0  0  0  0999 V2000
   35.6310   32.6880   32.1820 Br  0  0  0  0  0  0  0  0  0  0  0  0
   35.8060   30.7840   32.1540 C   0  0  0  0  0  0  0  0  0  0  0  0
   35.4830   30.0310   33.2910 C   0  0  0  0  0  0  0  0  0  0  0  0
   35.6380   28.6730   33.1820 C   0  0  0  0  0  0  0  0  0  0  0  0
   36.0810   28.0220   32.0450 C   0  0  0  0  0  0  0  0  0  0  0  0
   36.3830   28.7930   30.9660 C   0  0  0  0  0  0  0  0  0  0  0  0
   36.2420   30.1630   31.0280 C   0  0  0  0  0  0  0  0  0  0  0  0
   35.3970   28.0540   34.0440 H   0  0  0  0  0  0  0  0  0  0  0  0
   36.7350   28.3380   30.0500 H   0  0  0  0  0  0  0  0  0  0  0  0
   36.4880   30.7760   30.1550 H   0  0  0  0  0  0  0  0  0  0  0  0
   33.1780   31.2420   35.8320 C   0  0  0  0  0  0  0  0  0  0  0  0
   34.0360   31.8540   36.7890 C   0  0  0  0  0  0  0  0  0  0  0  0
   35.4050   31.8370   36.5370 C   0  0  0  0  0  0  0  0  0  0  0  0
   35.8620   31.2380   35.3910 N   0  0  0  0  0  0  0  0  0  0  0  0
   35.0140   30.6660   34.5040 C   0  0  0  0  0  0  0  0  0  0  0  0
   33.6680   30.6690   34.7280 N   0  0  0  0  0  0  0  0  0  0  0  0
   32.1010   31.2100   35.9500 H   0  0  0  0  0  0  0  0  0  0  0  0
   33.5420   32.2820   37.6360 H   0  0  0  0  0  0  0  0  0  0  0  0
   36.0340   32.2970   37.2600 H   0  0  0  0  0  0  0  0  0  0  0  0
   36.2330   26.5750   31.9670 C   0  0  0  0  0  0  0  0  0  0  0  0
   35.4990   25.7670   31.1180 C   0  0  0  0  0  0  0  0  0  0  0  0
   35.6710   24.3910   31.0710 C   0  0  0  0  0  0  0  0  0  0  0  0
   36.5760   23.8190   31.8690 N   0  0  0  0  0  0  0  0  0  0  0  0
   37.2920   24.5900   32.6950 C   0  0  0  0  0  0  0  0  0  0  0  0
   37.1120   25.9110   32.7250 N   0  0  0  0  0  0  0  0  0  0  0  0
   34.7600   26.2320   30.4650 H   0  0  0  0  0  0  0  0  0  0  0  0
   35.0670   23.7860   30.3830 H   0  0  0  0  0  0  0  0  0  0  0  0
   38.5420   23.9740   33.8260 S   0  0  0  0  0  0  0  0  0  0  0  0
   37.9860   23.7700   35.1050 H   0  0  0  0  0  0  0  0  0  0  0  0
  2  1  1  0  0  0  0
  2  3  1  0  0  0  0
  3 15  1  0  0  0  0
  4  3  2  0  0  0  0
  4  8  1  0  0  0  0
  5  4  1  0  0  0  0
  6  7  1  0  0  0  0
  6  5  2  0  0  0  0
  7  2  2  0  0  0  0
  9  6  1  0  0  0  0
 10  7  1  0  0  0  0
 11 17  1  0  0  0  0
 11 12  1  0  0  0  0
 12 18  1  0  0  0  0
 13 12  2  0  0  0  0
 13 19  1  0  0  0  0
 14 13  1  0  0  0  0
 15 16  1  0  0  0  0
 15 14  2  0  0  0  0
 16 11  2  0  0  0  0
 20  5  1  0  0  0  0
 20 25  1  0  0  0  0
 21 20  2  0  0  0  0
 22 21  1  0  0  0  0
 22 23  2  0  0  0  0
 23 24  1  0  0  0  0
 24 25  2  0  0  0  0
 24 28  1  0  0  0  0
 26 21  1  0  0  0  0
 27 22  1  0  0  0  0
 28 29  1  0  0  0  0
M  END
>  <minimizedAffinity>
-5.04209995

$$$$

 OpenBabel03272510213D

 29 31  0  0  0  0  0  0  0  0999 V2000
   36.6010   28.9090   31.4440 Br  0  0  0  0  0  0  0  0  0  0  0  0
   37.1200   27.6820   32.8160 C   0  0  0  0  0  0  0  0  0  0  0  0
   36.7030   27.8870   34.1390 C   0  0  0  0  0  0  0  0  0  0  0  0
   37.1220   26.9590   35.0570 C   0  0  0  0  0  0  0  0  0  0  0  0
   37.9100   25.8620   34.7600 C   0  0  0  0  0  0  0  0  0  0  0  0
   38.2910   25.7030   33.4650 C   0  0  0  0  0  0  0  0  0  0  0  0
   37.8940   26.6110   32.5060 C   0  0  0  0  0  0  0  0  0  0  0  0
   36.8180   27.0840   36.0940 H   0  0  0  0  0  0  0  0  0  0  0  0
   38.9090   24.8620   33.1750 H   0  0  0  0  0  0  0  0  0  0  0  0
   38.2060   26.4750   31.4650 H   0  0  0  0  0  0  0  0  0  0  0  0
   33.7470   29.9840   34.4590 C   0  0  0  0  0  0  0  0  0  0  0  0
   34.2340   31.1340   35.1440 C   0  0  0  0  0  0  0  0  0  0  0  0
   35.5820   31.1630   35.4860 C   0  0  0  0  0  0  0  0  0  0  0  0
   36.3760   30.0960   35.1510 N   0  0  0  0  0  0  0  0  0  0  0  0
   35.8770   29.0200   34.4990 C   0  0  0  0  0  0  0  0  0  0  0  0
   34.5580   28.9660   34.1530 N   0  0  0  0  0  0  0  0  0  0  0  0
   32.7120   29.8790   34.1570 H   0  0  0  0  0  0  0  0  0  0  0  0
   33.5020   31.8900   35.3410 H   0  0  0  0  0  0  0  0  0  0  0  0
   35.9320   32.0270   35.9970 H   0  0  0  0  0  0  0  0  0  0  0  0
   38.3360   24.8950   35.7640 C   0  0  0  0  0  0  0  0  0  0  0  0
   37.6980   24.7110   36.9770 C   0  0  0  0  0  0  0  0  0  0  0  0
   38.1330   23.7800   37.9100 C   0  0  0  0  0  0  0  0  0  0  0  0
   39.2030   23.0310   37.6340 N   0  0  0  0  0  0  0  0  0  0  0  0
   39.8290   23.2000   36.4640 C   0  0  0  0  0  0  0  0  0  0  0  0
   39.3950   24.1000   35.5810 N   0  0  0  0  0  0  0  0  0  0  0  0
   36.8230   25.3220   37.2050 H   0  0  0  0  0  0  0  0  0  0  0  0
   37.5980   23.6670   38.8610 H   0  0  0  0  0  0  0  0  0  0  0  0
   41.2770   22.2740   35.9470 S   0  0  0  0  0  0  0  0  0  0  0  0
   42.4510   22.9920   36.2510 H   0  0  0  0  0  0  0  0  0  0  0  0
  1  2  1  0  0  0  0
  2  3  1  0  0  0  0
  3 15  1  0  0  0  0
  3  4  2  0  0  0  0
  4  8  1  0  0  0  0
  5  4  1  0  0  0  0
  5 20  1  0  0  0  0
  6  5  2  0  0  0  0
  7  2  2  0  0  0  0
  7  6  1  0  0  0  0
  9  6  1  0  0  0  0
 10  7  1  0  0  0  0
 11 12  1  0  0  0  0
 12 18  1  0  0  0  0
 12 13  2  0  0  0  0
 13 19  1  0  0  0  0
 14 13  1  0  0  0  0
 15 14  2  0  0  0  0
 16 11  2  0  0  0  0
 16 15  1  0  0  0  0
 17 11  1  0  0  0  0
 20 21  1  0  0  0  0
 21 26  1  0  0  0  0
 21 22  2  0  0  0  0
 22 27  1  0  0  0  0
 23 22  1  0  0  0  0
 24 23  2  0  0  0  0
 25 20  2  0  0  0  0
 25 24  1  0  0  0  0
 28 29  1  0  0  0  0
 28 24  1  0  0  0  0
M  END
>  <minimizedAffinity>
-5.02795076

$$$$
