
 OpenBabel03272509383D

 23 24  0  0  0  0  0  0  0  0999 V2000
   36.1360   29.7050   48.9640 C   0  0  0  0  0  0  0  0  0  0  0  0
   36.2440   29.7330   50.3550 C   0  0  0  0  0  0  0  0  0  0  0  0
   37.2450   30.4610   51.0060 C   0  0  0  0  0  0  0  0  0  0  0  0
   38.1680   31.1840   50.2540 C   0  0  0  0  0  0  0  0  0  0  0  0
   38.0440   31.1460   48.8700 C   0  0  0  0  0  0  0  0  0  0  0  0
   37.0540   30.4250   48.2450 C   0  0  0  0  0  0  0  0  0  0  0  0
   35.5510   29.1840   51.0040 H   0  0  0  0  0  0  0  0  0  0  0  0
   37.3200   30.4750   52.0760 H   0  0  0  0  0  0  0  0  0  0  0  0
   38.9580   31.7610   50.7210 H   0  0  0  0  0  0  0  0  0  0  0  0
   38.7550   31.7050   48.2660 H   0  0  0  0  0  0  0  0  0  0  0  0
   35.0580   28.9170   48.3780 C   0  0  0  0  0  0  0  0  0  0  0  0
   34.8300   27.8170   48.9830 O   0  0  0  0  0  0  0  0  0  0  0  0
   32.8830   30.9560   46.3140 C   0  0  0  0  0  0  0  0  0  0  0  0
   32.7860   30.2410   45.1120 C   0  0  0  0  0  0  0  0  0  0  0  0
   33.4740   29.0500   45.0120 C   0  0  0  0  0  0  0  0  0  0  0  0
   34.2180   28.6070   46.0690 N   0  0  0  0  0  0  0  0  0  0  0  0
   34.2880   29.3180   47.2060 C   0  0  0  0  0  0  0  0  0  0  0  0
   33.6230   30.4840   47.3200 N   0  0  0  0  0  0  0  0  0  0  0  0
   32.3200   31.8790   46.3230 H   0  0  0  0  0  0  0  0  0  0  0  0
   32.2380   30.4870   44.2230 H   0  0  0  0  0  0  0  0  0  0  0  0
   33.5190   28.3660   44.1680 H   0  0  0  0  0  0  0  0  0  0  0  0
   36.9480   30.4150   46.4810 S   0  0  0  0  0  0  0  0  0  0  0  0
   38.0590   31.1520   45.9880 H   0  0  0  0  0  0  0  0  0  0  0  0
  1  2  1  0  0  0  0
  2  7  1  0  0  0  0
  2  3  2  0  0  0  0
  3  8  1  0  0  0  0
  4  9  1  0  0  0  0
  4  3  1  0  0  0  0
  5  4  2  0  0  0  0
  6  5  1  0  0  0  0
  6  1  2  0  0  0  0
 10  5  1  0  0  0  0
 11  1  1  0  0  0  0
 11 12  2  0  0  0  0
 13 19  1  0  0  0  0
 13 18  1  0  0  0  0
 14 13  2  0  0  0  0
 15 14  1  0  0  0  0
 15 16  2  0  0  0  0
 16 17  1  0  0  0  0
 17 18  2  0  0  0  0
 17 11  1  0  0  0  0
 20 14  1  0  0  0  0
 21 15  1  0  0  0  0
 22  6  1  0  0  0  0
 23 22  1  0  0  0  0
M  END
>  <minimizedAffinity>
-4.30575371

>  <minimizedRMSD>
0.42734614

$$$$
