
 OpenBabel03272501523D

 25 26  0  0  1  0  0  0  0  0999 V2000
   35.6980   29.6540   48.8620 N   0  0  0  0  0  0  0  0  0  0  0  0
   36.5060   28.8680   49.7710 C   0  0  0  0  0  0  0  0  0  0  0  0
   37.0530   29.6310   50.9280 C   0  0  0  0  0  0  0  0  0  0  0  0
   37.3220   31.0160   50.7270 N   0  0  0  0  0  0  0  0  0  0  0  0
   36.3260   31.6800   49.8900 C   0  0  0  0  0  0  0  0  0  0  0  0
   36.3260   30.9130   48.5900 C   0  0  1  0  0  0  0  0  0  0  0  0
   35.8310   28.0880   50.1820 H   0  0  0  0  0  0  0  0  0  0  0  0
   37.2870   28.3330   49.1990 H   0  0  0  0  0  0  0  0  0  0  0  0
   36.3670   29.5440   51.8200 H   0  0  0  0  0  0  0  0  0  0  0  0
   37.9970   29.1340   51.2430 H   0  0  0  0  0  0  0  0  0  0  0  0
   37.3940   31.4570   51.6780 H   0  0  0  0  0  0  0  0  0  0  0  0
   36.6820   32.7090   49.7050 H   0  0  0  0  0  0  0  0  0  0  0  0
   35.3120   31.6350   50.3320 H   0  0  0  0  0  0  0  0  0  0  0  0
   35.8180   31.4270   47.7740 H   0  0  0  0  0  0  0  0  0  0  0  0
   34.4570   29.2000   48.3380 C   0  0  0  0  0  0  0  0  0  0  0  0
   33.9520   29.6350   47.0960 C   0  0  0  0  0  0  0  0  0  0  0  0
   32.7280   29.1340   46.6660 C   0  0  0  0  0  0  0  0  0  0  0  0
   32.0750   28.2450   47.4680 N   0  0  0  0  0  0  0  0  0  0  0  0
   32.5970   27.8530   48.6580 C   0  0  0  0  0  0  0  0  0  0  0  0
   33.7680   28.3110   49.1050 N   0  0  0  0  0  0  0  0  0  0  0  0
   34.5560   30.3370   46.5520 H   0  0  0  0  0  0  0  0  0  0  0  0
   32.3620   29.4750   45.7210 H   0  0  0  0  0  0  0  0  0  0  0  0
   32.0470   27.1560   49.2470 H   0  0  0  0  0  0  0  0  0  0  0  0
   38.0810   30.7490   48.1280 S   0  0  0  0  0  0  0  0  0  0  0  0
   38.2540   30.0450   46.9340 H   0  0  0  0  0  0  0  0  0  0  0  0
  1  2  1  0  0  0  0
  2  7  1  0  0  0  0
  2  3  1  0  0  0  0
  3 10  1  0  0  0  0
  3  9  1  0  0  0  0
  4  3  1  0  0  0  0
  4 11  1  0  0  0  0
  5 13  1  0  0  0  0
  5  4  1  0  0  0  0
  6 14  1  6  0  0  0
  6  1  1  0  0  0  0
  6  5  1  0  0  0  0
  8  2  1  0  0  0  0
 12  5  1  0  0  0  0
 15  1  1  0  0  0  0
 15 20  1  0  0  0  0
 16 15  2  0  0  0  0
 17 16  1  0  0  0  0
 17 18  2  0  0  0  0
 18 19  1  0  0  0  0
 19 20  2  0  0  0  0
 19 23  1  0  0  0  0
 21 16  1  0  0  0  0
 22 17  1  0  0  0  0
 24  6  1  0  0  0  0
 25 24  1  0  0  0  0
M  END
>  <minimizedAffinity>
-3.77788281

>  <minimizedRMSD>
1.20965862

$$$$
