
 OpenBabel03272508353D

 24 25  0  0  0  0  0  0  0  0999 V2000
   38.0060   25.6230   35.2880 C   0  0  0  0  0  0  0  0  0  0  0  0
   37.8380   26.9450   35.6340 C   0  0  0  0  0  0  0  0  0  0  0  0
   37.2750   27.6020   34.5580 C   0  0  0  0  0  0  0  0  0  0  0  0
   37.1150   26.6690   33.5910 N   0  0  0  0  0  0  0  0  0  0  0  0
   37.5520   25.4910   34.0300 N   0  0  0  0  0  0  0  0  0  0  0  0
   38.0780   27.4700   36.5680 H   0  0  0  0  0  0  0  0  0  0  0  0
   37.0170   28.6710   34.5220 H   0  0  0  0  0  0  0  0  0  0  0  0
   38.6590   23.4130   38.2530 C   0  0  0  0  0  0  0  0  0  0  0  0
   38.0340   24.3690   37.4590 C   0  0  0  0  0  0  0  0  0  0  0  0
   38.5780   24.6450   36.1960 C   0  0  0  0  0  0  0  0  0  0  0  0
   39.6900   23.9560   35.8250 N   0  0  0  0  0  0  0  0  0  0  0  0
   40.2660   23.0260   36.6440 C   0  0  0  0  0  0  0  0  0  0  0  0
   39.7450   22.7640   37.8470 N   0  0  0  0  0  0  0  0  0  0  0  0
   38.1940   23.2330   39.2340 H   0  0  0  0  0  0  0  0  0  0  0  0
   37.1490   24.9150   37.7570 H   0  0  0  0  0  0  0  0  0  0  0  0
   41.1550   22.5000   36.3030 H   0  0  0  0  0  0  0  0  0  0  0  0
   36.5430   26.9580   32.2780 C   0  0  0  0  0  0  0  0  0  0  0  0
   35.4880   27.2230   32.3230 H   0  0  0  0  0  0  0  0  0  0  0  0
   37.1180   27.8320   31.8810 H   0  0  0  0  0  0  0  0  0  0  0  0
   36.8190   25.8040   31.3330 C   0  0  0  0  0  0  0  0  0  0  0  0
   37.4690   25.0330   31.7500 H   0  0  0  0  0  0  0  0  0  0  0  0
   37.1420   26.2090   30.3520 H   0  0  0  0  0  0  0  0  0  0  0  0
   35.1880   25.0210   31.0350 S   0  0  0  0  0  0  0  0  0  0  0  0
   34.4800   24.9660   32.2640 H   0  0  0  0  0  0  0  0  0  0  0  0
  1  2  1  0  0  0  0
  1 10  1  0  0  0  0
  2  6  1  0  0  0  0
  3  2  2  0  0  0  0
  4  5  1  0  0  0  0
  4  3  1  0  0  0  0
  5  1  2  0  0  0  0
  7  3  1  0  0  0  0
  8 14  1  0  0  0  0
  9 15  1  0  0  0  0
  9  8  2  0  0  0  0
 10  9  1  0  0  0  0
 11 10  2  0  0  0  0
 11 12  1  0  0  0  0
 12 13  2  0  0  0  0
 13  8  1  0  0  0  0
 16 12  1  0  0  0  0
 17 18  1  0  0  0  0
 17  4  1  0  0  0  0
 19 17  1  0  0  0  0
 20 21  1  0  0  0  0
 20 17  1  0  0  0  0
 22 20  1  0  0  0  0
 23 20  1  0  0  0  0
 23 24  1  0  0  0  0
M  END
>  <minimizedAffinity>
-4.01021099

$$$$

 OpenBabel03272508353D

 24 25  0  0  0  0  0  0  0  0999 V2000
   37.9800   25.5050   35.2080 C   0  0  0  0  0  0  0  0  0  0  0  0
   37.7240   26.8210   35.5200 C   0  0  0  0  0  0  0  0  0  0  0  0
   37.1690   27.4260   34.4100 C   0  0  0  0  0  0  0  0  0  0  0  0
   37.1030   26.4680   33.4560 N   0  0  0  0  0  0  0  0  0  0  0  0
   37.5870   25.3250   33.9350 N   0  0  0  0  0  0  0  0  0  0  0  0
   37.8950   27.3740   36.4530 H   0  0  0  0  0  0  0  0  0  0  0  0
   36.8540   28.4780   34.3430 H   0  0  0  0  0  0  0  0  0  0  0  0
   38.6650   23.4320   38.2630 C   0  0  0  0  0  0  0  0  0  0  0  0
   38.0240   24.3410   37.4280 C   0  0  0  0  0  0  0  0  0  0  0  0
   38.5680   24.5770   36.1580 C   0  0  0  0  0  0  0  0  0  0  0  0
   39.6960   23.8970   35.8190 N   0  0  0  0  0  0  0  0  0  0  0  0
   40.2870   23.0120   36.6770 C   0  0  0  0  0  0  0  0  0  0  0  0
   39.7660   22.7900   37.8880 N   0  0  0  0  0  0  0  0  0  0  0  0
   38.2000   23.2820   39.2490 H   0  0  0  0  0  0  0  0  0  0  0  0
   37.1270   24.8810   37.7010 H   0  0  0  0  0  0  0  0  0  0  0  0
   41.1880   22.4920   36.3610 H   0  0  0  0  0  0  0  0  0  0  0  0
   36.5700   26.7020   32.1160 C   0  0  0  0  0  0  0  0  0  0  0  0
   37.3390   26.6880   31.3450 H   0  0  0  0  0  0  0  0  0  0  0  0
   35.8500   25.8680   31.9240 H   0  0  0  0  0  0  0  0  0  0  0  0
   35.7520   27.9790   32.1050 C   0  0  0  0  0  0  0  0  0  0  0  0
   35.8080   28.5530   33.0320 H   0  0  0  0  0  0  0  0  0  0  0  0
   34.7230   27.7460   31.7600 H   0  0  0  0  0  0  0  0  0  0  0  0
   36.4930   29.0190   30.7900 S   0  0  0  0  0  0  0  0  0  0  0  0
   37.9050   28.9140   30.8700 H   0  0  0  0  0  0  0  0  0  0  0  0
  1  2  1  0  0  0  0
  1 10  1  0  0  0  0
  2  6  1  0  0  0  0
  3  2  2  0  0  0  0
  4  5  1  0  0  0  0
  4  3  1  0  0  0  0
  5  1  2  0  0  0  0
  7  3  1  0  0  0  0
  8 14  1  0  0  0  0
  9 15  1  0  0  0  0
  9  8  2  0  0  0  0
 10  9  1  0  0  0  0
 11 10  2  0  0  0  0
 11 12  1  0  0  0  0
 12 13  2  0  0  0  0
 13  8  1  0  0  0  0
 16 12  1  0  0  0  0
 17  4  1  0  0  0  0
 18 17  1  0  0  0  0
 19 17  1  0  0  0  0
 20 17  1  0  0  0  0
 20 21  1  0  0  0  0
 22 20  1  0  0  0  0
 23 24  1  0  0  0  0
 23 20  1  0  0  0  0
M  END
>  <minimizedAffinity>
-3.89142776

$$$$

 OpenBabel03272508353D

 24 25  0  0  0  0  0  0  0  0999 V2000
   37.9970   25.4120   34.9180 C   0  0  0  0  0  0  0  0  0  0  0  0
   37.3710   26.6170   35.1390 C   0  0  0  0  0  0  0  0  0  0  0  0
   37.0480   27.1640   33.9140 C   0  0  0  0  0  0  0  0  0  0  0  0
   37.4840   26.2840   32.9830 N   0  0  0  0  0  0  0  0  0  0  0  0
   38.0490   25.2400   33.5860 N   0  0  0  0  0  0  0  0  0  0  0  0
   37.1290   27.1280   36.0810 H   0  0  0  0  0  0  0  0  0  0  0  0
   36.5380   28.1260   33.7550 H   0  0  0  0  0  0  0  0  0  0  0  0
   39.9490   22.9460   36.9710 C   0  0  0  0  0  0  0  0  0  0  0  0
   39.5760   23.7140   35.8730 C   0  0  0  0  0  0  0  0  0  0  0  0
   38.4710   24.5670   36.0010 C   0  0  0  0  0  0  0  0  0  0  0  0
   37.8290   24.5910   37.1990 N   0  0  0  0  0  0  0  0  0  0  0  0
   38.2370   23.8160   38.2490 C   0  0  0  0  0  0  0  0  0  0  0  0
   39.2910   23.0030   38.1240 N   0  0  0  0  0  0  0  0  0  0  0  0
   40.8210   22.2930   36.8200 H   0  0  0  0  0  0  0  0  0  0  0  0
   40.0900   23.6920   34.9200 H   0  0  0  0  0  0  0  0  0  0  0  0
   37.6910   23.8700   39.1870 H   0  0  0  0  0  0  0  0  0  0  0  0
   37.3330   26.4900   31.5450 C   0  0  0  0  0  0  0  0  0  0  0  0
   37.9510   27.3030   31.1660 H   0  0  0  0  0  0  0  0  0  0  0  0
   37.6580   25.5340   31.0640 H   0  0  0  0  0  0  0  0  0  0  0  0
   35.8650   26.6600   31.2030 C   0  0  0  0  0  0  0  0  0  0  0  0
   35.6850   27.1560   30.2480 H   0  0  0  0  0  0  0  0  0  0  0  0
   35.3410   27.1100   32.0710 H   0  0  0  0  0  0  0  0  0  0  0  0
   35.2030   24.9580   31.0520 S   0  0  0  0  0  0  0  0  0  0  0  0
   36.1520   24.1610   30.3600 H   0  0  0  0  0  0  0  0  0  0  0  0
  1  2  1  0  0  0  0
  1 10  1  0  0  0  0
  2  6  1  0  0  0  0
  3  2  2  0  0  0  0
  4  5  1  0  0  0  0
  4  3  1  0  0  0  0
  5  1  2  0  0  0  0
  7  3  1  0  0  0  0
  8 13  1  0  0  0  0
  9 10  1  0  0  0  0
  9  8  2  0  0  0  0
 10 11  2  0  0  0  0
 11 12  1  0  0  0  0
 12 16  1  0  0  0  0
 13 12  2  0  0  0  0
 14  8  1  0  0  0  0
 15  9  1  0  0  0  0
 17  4  1  0  0  0  0
 18 17  1  0  0  0  0
 19 17  1  0  0  0  0
 20 17  1  0  0  0  0
 20 22  1  0  0  0  0
 21 20  1  0  0  0  0
 23 20  1  0  0  0  0
 24 23  1  0  0  0  0
M  END
>  <minimizedAffinity>
-3.87568021

$$$$

 OpenBabel03272508353D

 24 25  0  0  0  0  0  0  0  0999 V2000
   38.4740   24.0470   34.4210 C   0  0  0  0  0  0  0  0  0  0  0  0
   39.1850   25.0230   33.7590 C   0  0  0  0  0  0  0  0  0  0  0  0
   38.8260   24.9850   32.4260 C   0  0  0  0  0  0  0  0  0  0  0  0
   37.9120   23.9930   32.3120 N   0  0  0  0  0  0  0  0  0  0  0  0
   37.7060   23.4370   33.5040 N   0  0  0  0  0  0  0  0  0  0  0  0
   39.9210   25.7440   34.1370 H   0  0  0  0  0  0  0  0  0  0  0  0
   39.2200   25.6420   31.6360 H   0  0  0  0  0  0  0  0  0  0  0  0
   37.9450   24.0570   38.1390 C   0  0  0  0  0  0  0  0  0  0  0  0
   37.7240   24.3400   36.7960 C   0  0  0  0  0  0  0  0  0  0  0  0
   38.6130   23.8130   35.8480 C   0  0  0  0  0  0  0  0  0  0  0  0
   39.6430   23.0530   36.3050 N   0  0  0  0  0  0  0  0  0  0  0  0
   39.8170   22.8030   37.6380 C   0  0  0  0  0  0  0  0  0  0  0  0
   38.9670   23.3070   38.5390 N   0  0  0  0  0  0  0  0  0  0  0  0
   37.2210   24.4930   38.8420 H   0  0  0  0  0  0  0  0  0  0  0  0
   36.9020   24.9460   36.4350 H   0  0  0  0  0  0  0  0  0  0  0  0
   40.6550   22.1890   37.9550 H   0  0  0  0  0  0  0  0  0  0  0  0
   37.2760   23.6250   31.0500 C   0  0  0  0  0  0  0  0  0  0  0  0
   37.5400   24.2910   30.2300 H   0  0  0  0  0  0  0  0  0  0  0  0
   37.6420   22.5950   30.8120 H   0  0  0  0  0  0  0  0  0  0  0  0
   35.7760   23.5050   31.2480 C   0  0  0  0  0  0  0  0  0  0  0  0
   35.4820   23.2070   32.2560 H   0  0  0  0  0  0  0  0  0  0  0  0
   35.3520   22.8830   30.4330 H   0  0  0  0  0  0  0  0  0  0  0  0
   35.1150   25.1940   30.9790 S   0  0  0  0  0  0  0  0  0  0  0  0
   35.9850   26.1260   31.6020 H   0  0  0  0  0  0  0  0  0  0  0  0
  1 10  1  0  0  0  0
  2  6  1  0  0  0  0
  2  1  1  0  0  0  0
  3  2  2  0  0  0  0
  4  3  1  0  0  0  0
  4  5  1  0  0  0  0
  5  1  2  0  0  0  0
  7  3  1  0  0  0  0
  8 13  1  0  0  0  0
  8 14  1  0  0  0  0
  9  8  2  0  0  0  0
 10 11  2  0  0  0  0
 10  9  1  0  0  0  0
 11 12  1  0  0  0  0
 12 16  1  0  0  0  0
 12 13  2  0  0  0  0
 15  9  1  0  0  0  0
 17 20  1  0  0  0  0
 17  4  1  0  0  0  0
 18 17  1  0  0  0  0
 19 17  1  0  0  0  0
 20 21  1  0  0  0  0
 22 20  1  0  0  0  0
 23 20  1  0  0  0  0
 23 24  1  0  0  0  0
M  END
>  <minimizedAffinity>
-3.71795702

$$$$

 OpenBabel03272508353D

 24 25  0  0  0  0  0  0  0  0999 V2000
   37.3570   27.1330   34.2060 C   0  0  0  0  0  0  0  0  0  0  0  0
   37.8340   27.6670   35.3820 C   0  0  0  0  0  0  0  0  0  0  0  0
   38.3080   26.6310   36.1620 C   0  0  0  0  0  0  0  0  0  0  0  0
   38.1090   25.5010   35.4460 N   0  0  0  0  0  0  0  0  0  0  0  0
   37.5420   25.8040   34.2800 N   0  0  0  0  0  0  0  0  0  0  0  0
   37.8720   28.7100   35.7230 H   0  0  0  0  0  0  0  0  0  0  0  0
   38.7540   26.7340   37.1630 H   0  0  0  0  0  0  0  0  0  0  0  0
   36.4680   28.5970   30.8640 C   0  0  0  0  0  0  0  0  0  0  0  0
   37.0710   27.7570   31.7940 C   0  0  0  0  0  0  0  0  0  0  0  0
   36.7830   27.9520   33.1530 C   0  0  0  0  0  0  0  0  0  0  0  0
   35.9260   28.9570   33.4770 N   0  0  0  0  0  0  0  0  0  0  0  0
   35.3600   29.7560   32.5230 C   0  0  0  0  0  0  0  0  0  0  0  0
   35.6360   29.5670   31.2290 N   0  0  0  0  0  0  0  0  0  0  0  0
   36.7260   28.4040   29.8120 H   0  0  0  0  0  0  0  0  0  0  0  0
   37.7520   26.9580   31.5320 H   0  0  0  0  0  0  0  0  0  0  0  0
   34.6810   30.5460   32.8320 H   0  0  0  0  0  0  0  0  0  0  0  0
   38.4780   24.1700   35.9210 C   0  0  0  0  0  0  0  0  0  0  0  0
   38.5650   23.4400   35.1180 H   0  0  0  0  0  0  0  0  0  0  0  0
   39.4760   24.2870   36.4130 H   0  0  0  0  0  0  0  0  0  0  0  0
   37.5180   23.7310   37.0110 C   0  0  0  0  0  0  0  0  0  0  0  0
   37.0190   22.7810   36.8100 H   0  0  0  0  0  0  0  0  0  0  0  0
   36.8380   24.5740   37.2560 H   0  0  0  0  0  0  0  0  0  0  0  0
   38.5560   23.4820   38.5010 S   0  0  0  0  0  0  0  0  0  0  0  0
   39.7580   22.8350   38.1140 H   0  0  0  0  0  0  0  0  0  0  0  0
  1  5  2  0  0  0  0
  1  2  1  0  0  0  0
  2  6  1  0  0  0  0
  2  3  2  0  0  0  0
  3  7  1  0  0  0  0
  4 17  1  0  0  0  0
  4  3  1  0  0  0  0
  5  4  1  0  0  0  0
  8 13  2  0  0  0  0
  8  9  1  0  0  0  0
  9 10  2  0  0  0  0
 10 11  1  0  0  0  0
 10  1  1  0  0  0  0
 12 16  1  0  0  0  0
 12 11  2  0  0  0  0
 13 12  1  0  0  0  0
 14  8  1  0  0  0  0
 15  9  1  0  0  0  0
 17 19  1  0  0  0  0
 17 20  1  0  0  0  0
 18 17  1  0  0  0  0
 20 22  1  0  0  0  0
 20 23  1  0  0  0  0
 21 20  1  0  0  0  0
 24 23  1  0  0  0  0
M  END
>  <minimizedAffinity>
-3.7121768

$$$$

 OpenBabel03272508353D

 24 25  0  0  0  0  0  0  0  0999 V2000
   37.7030   25.4480   34.1580 C   0  0  0  0  0  0  0  0  0  0  0  0
   37.6940   26.0050   35.4170 C   0  0  0  0  0  0  0  0  0  0  0  0
   38.0750   25.0330   36.3200 C   0  0  0  0  0  0  0  0  0  0  0  0
   38.3050   23.9150   35.5920 N   0  0  0  0  0  0  0  0  0  0  0  0
   38.0820   24.1670   34.3040 N   0  0  0  0  0  0  0  0  0  0  0  0
   37.4430   27.0250   35.7390 H   0  0  0  0  0  0  0  0  0  0  0  0
   38.1660   25.1670   37.4080 H   0  0  0  0  0  0  0  0  0  0  0  0
   37.5910   28.0280   31.4320 C   0  0  0  0  0  0  0  0  0  0  0  0
   38.0070   27.3810   32.5900 C   0  0  0  0  0  0  0  0  0  0  0  0
   37.3500   26.2020   32.9680 C   0  0  0  0  0  0  0  0  0  0  0  0
   36.3400   25.7610   32.1720 N   0  0  0  0  0  0  0  0  0  0  0  0
   35.9690   26.4350   31.0410 C   0  0  0  0  0  0  0  0  0  0  0  0
   36.5980   27.5580   30.6840 N   0  0  0  0  0  0  0  0  0  0  0  0
   38.1380   28.9480   31.1790 H   0  0  0  0  0  0  0  0  0  0  0  0
   38.8120   27.7350   33.2220 H   0  0  0  0  0  0  0  0  0  0  0  0
   35.1560   26.0430   30.4360 H   0  0  0  0  0  0  0  0  0  0  0  0
   38.7340   22.6470   36.1760 C   0  0  0  0  0  0  0  0  0  0  0  0
   37.9070   21.9630   36.3610 H   0  0  0  0  0  0  0  0  0  0  0  0
   39.4250   22.1840   35.4280 H   0  0  0  0  0  0  0  0  0  0  0  0
   39.5660   22.9100   37.4170 C   0  0  0  0  0  0  0  0  0  0  0  0
   39.0940   22.5870   38.3460 H   0  0  0  0  0  0  0  0  0  0  0  0
   39.9080   23.9660   37.4060 H   0  0  0  0  0  0  0  0  0  0  0  0
   41.0790   21.8960   37.2090 S   0  0  0  0  0  0  0  0  0  0  0  0
   40.7100   20.6310   36.6840 H   0  0  0  0  0  0  0  0  0  0  0  0
  1  5  2  0  0  0  0
  1  2  1  0  0  0  0
  2  6  1  0  0  0  0
  2  3  2  0  0  0  0
  3  7  1  0  0  0  0
  4 17  1  0  0  0  0
  4  3  1  0  0  0  0
  5  4  1  0  0  0  0
  8  9  1  0  0  0  0
  9 10  2  0  0  0  0
  9 15  1  0  0  0  0
 10  1  1  0  0  0  0
 11 10  1  0  0  0  0
 12 11  2  0  0  0  0
 13 12  1  0  0  0  0
 13  8  2  0  0  0  0
 14  8  1  0  0  0  0
 16 12  1  0  0  0  0
 17 18  1  0  0  0  0
 17 20  1  0  0  0  0
 19 17  1  0  0  0  0
 20 21  1  0  0  0  0
 22 20  1  0  0  0  0
 23 20  1  0  0  0  0
 24 23  1  0  0  0  0
M  END
>  <minimizedAffinity>
-3.68263698

$$$$

 OpenBabel03272508353D

 24 25  0  0  0  0  0  0  0  0999 V2000
   37.7770   22.3990   34.6130 C   0  0  0  0  0  0  0  0  0  0  0  0
   38.1350   23.1440   33.5130 C   0  0  0  0  0  0  0  0  0  0  0  0
   37.4550   22.6490   32.4180 C   0  0  0  0  0  0  0  0  0  0  0  0
   36.7040   21.6210   32.8770 N   0  0  0  0  0  0  0  0  0  0  0  0
   36.8990   21.4750   34.1860 N   0  0  0  0  0  0  0  0  0  0  0  0
   38.8260   23.9930   33.4260 H   0  0  0  0  0  0  0  0  0  0  0  0
   37.5280   23.0330   31.3900 H   0  0  0  0  0  0  0  0  0  0  0  0
   40.0490   22.6390   37.5940 C   0  0  0  0  0  0  0  0  0  0  0  0
   39.6340   22.3530   36.2970 C   0  0  0  0  0  0  0  0  0  0  0  0
   38.3130   22.6550   35.9380 C   0  0  0  0  0  0  0  0  0  0  0  0
   37.5140   23.2120   36.8870 N   0  0  0  0  0  0  0  0  0  0  0  0
   37.9710   23.4730   38.1490 C   0  0  0  0  0  0  0  0  0  0  0  0
   39.2310   23.1840   38.4880 N   0  0  0  0  0  0  0  0  0  0  0  0
   41.0930   22.3830   37.8250 H   0  0  0  0  0  0  0  0  0  0  0  0
   40.2730   21.9100   35.5440 H   0  0  0  0  0  0  0  0  0  0  0  0
   37.2940   23.9200   38.8730 H   0  0  0  0  0  0  0  0  0  0  0  0
   35.8270   20.8210   32.0270 C   0  0  0  0  0  0  0  0  0  0  0  0
   34.8220   20.7150   32.4330 H   0  0  0  0  0  0  0  0  0  0  0  0
   35.7670   21.3660   31.0520 H   0  0  0  0  0  0  0  0  0  0  0  0
   36.4810   19.4860   31.7270 C   0  0  0  0  0  0  0  0  0  0  0  0
   37.4780   19.3720   32.1570 H   0  0  0  0  0  0  0  0  0  0  0  0
   36.4150   19.2870   30.6370 H   0  0  0  0  0  0  0  0  0  0  0  0
   35.4110   18.2310   32.5270 S   0  0  0  0  0  0  0  0  0  0  0  0
   35.0130   18.7170   33.7990 H   0  0  0  0  0  0  0  0  0  0  0  0
  1 10  1  0  0  0  0
  2  1  1  0  0  0  0
  3  4  1  0  0  0  0
  3  2  2  0  0  0  0
  4  5  1  0  0  0  0
  5  1  2  0  0  0  0
  6  2  1  0  0  0  0
  7  3  1  0  0  0  0
  8 14  1  0  0  0  0
  8 13  1  0  0  0  0
  9  8  2  0  0  0  0
 10  9  1  0  0  0  0
 10 11  2  0  0  0  0
 11 12  1  0  0  0  0
 12 13  2  0  0  0  0
 12 16  1  0  0  0  0
 15  9  1  0  0  0  0
 17 18  1  0  0  0  0
 17  4  1  0  0  0  0
 19 17  1  0  0  0  0
 20 17  1  0  0  0  0
 20 21  1  0  0  0  0
 20 23  1  0  0  0  0
 22 20  1  0  0  0  0
 23 24  1  0  0  0  0
M  END
>  <minimizedAffinity>
-3.67761993

$$$$

 OpenBabel03272508353D

 24 25  0  0  0  0  0  0  0  0999 V2000
   36.0540   26.0520   31.4810 C   0  0  0  0  0  0  0  0  0  0  0  0
   35.1330   25.2170   30.8910 C   0  0  0  0  0  0  0  0  0  0  0  0
   35.4320   23.9200   31.2590 C   0  0  0  0  0  0  0  0  0  0  0  0
   36.5220   23.9990   32.0580 N   0  0  0  0  0  0  0  0  0  0  0  0
   36.8890   25.2720   32.1870 N   0  0  0  0  0  0  0  0  0  0  0  0
   34.2830   25.4490   30.2350 H   0  0  0  0  0  0  0  0  0  0  0  0
   34.8780   23.0220   30.9490 H   0  0  0  0  0  0  0  0  0  0  0  0
   36.6560   29.5320   30.2030 C   0  0  0  0  0  0  0  0  0  0  0  0
   36.7470   28.1470   30.2890 C   0  0  0  0  0  0  0  0  0  0  0  0
   36.0300   27.4940   31.3010 C   0  0  0  0  0  0  0  0  0  0  0  0
   35.2840   28.2600   32.1410 N   0  0  0  0  0  0  0  0  0  0  0  0
   35.2280   29.6210   32.0130 C   0  0  0  0  0  0  0  0  0  0  0  0
   35.9130   30.2400   31.0470 N   0  0  0  0  0  0  0  0  0  0  0  0
   37.2370   29.9970   29.3930 H   0  0  0  0  0  0  0  0  0  0  0  0
   37.3420   27.5400   29.6190 H   0  0  0  0  0  0  0  0  0  0  0  0
   34.6170   30.1910   32.7080 H   0  0  0  0  0  0  0  0  0  0  0  0
   37.1620   22.8350   32.6640 C   0  0  0  0  0  0  0  0  0  0  0  0
   38.2480   22.8540   32.5790 H   0  0  0  0  0  0  0  0  0  0  0  0
   36.8840   22.8630   33.7470 H   0  0  0  0  0  0  0  0  0  0  0  0
   36.5530   21.5640   32.1020 C   0  0  0  0  0  0  0  0  0  0  0  0
   37.2820   20.8620   31.6950 H   0  0  0  0  0  0  0  0  0  0  0  0
   35.7260   21.8340   31.4120 H   0  0  0  0  0  0  0  0  0  0  0  0
   35.7560   20.7360   33.5300 S   0  0  0  0  0  0  0  0  0  0  0  0
   36.6140   20.8440   34.6540 H   0  0  0  0  0  0  0  0  0  0  0  0
  1  5  2  0  0  0  0
  2  3  2  0  0  0  0
  2  1  1  0  0  0  0
  3  4  1  0  0  0  0
  4  5  1  0  0  0  0
  4 17  1  0  0  0  0
  6  2  1  0  0  0  0
  7  3  1  0  0  0  0
  8  9  2  0  0  0  0
  8 13  1  0  0  0  0
  9 10  1  0  0  0  0
 10  1  1  0  0  0  0
 10 11  2  0  0  0  0
 12 11  1  0  0  0  0
 12 16  1  0  0  0  0
 13 12  2  0  0  0  0
 14  8  1  0  0  0  0
 15  9  1  0  0  0  0
 17 19  1  0  0  0  0
 18 17  1  0  0  0  0
 20 17  1  0  0  0  0
 20 23  1  0  0  0  0
 21 20  1  0  0  0  0
 22 20  1  0  0  0  0
 23 24  1  0  0  0  0
M  END
>  <minimizedAffinity>
-3.53830886

$$$$

 OpenBabel03272508353D

 24 25  0  0  0  0  0  0  0  0999 V2000
   36.2290   23.0680   31.8720 C   0  0  0  0  0  0  0  0  0  0  0  0
   35.3620   23.8940   31.1930 C   0  0  0  0  0  0  0  0  0  0  0  0
   35.8250   25.1890   31.3070 C   0  0  0  0  0  0  0  0  0  0  0  0
   36.9550   25.1190   32.0480 N   0  0  0  0  0  0  0  0  0  0  0  0
   37.1920   23.8530   32.3830 N   0  0  0  0  0  0  0  0  0  0  0  0
   34.4470   23.6550   30.6340 H   0  0  0  0  0  0  0  0  0  0  0  0
   35.3500   26.0810   30.8720 H   0  0  0  0  0  0  0  0  0  0  0  0
   35.4670   19.6000   33.0970 C   0  0  0  0  0  0  0  0  0  0  0  0
   35.6210   20.9820   33.1250 C   0  0  0  0  0  0  0  0  0  0  0  0
   36.0370   21.6300   31.9530 C   0  0  0  0  0  0  0  0  0  0  0  0
   36.2650   20.8620   30.8540 N   0  0  0  0  0  0  0  0  0  0  0  0
   36.0980   19.5050   30.8800 C   0  0  0  0  0  0  0  0  0  0  0  0
   35.7010   18.8900   31.9980 N   0  0  0  0  0  0  0  0  0  0  0  0
   35.1400   19.1400   34.0400 H   0  0  0  0  0  0  0  0  0  0  0  0
   35.4390   21.5910   34.0000 H   0  0  0  0  0  0  0  0  0  0  0  0
   36.2920   18.9330   29.9760 H   0  0  0  0  0  0  0  0  0  0  0  0
   37.7600   26.2860   32.4020 C   0  0  0  0  0  0  0  0  0  0  0  0
   38.7390   26.0220   32.8000 H   0  0  0  0  0  0  0  0  0  0  0  0
   37.8990   26.8600   31.4520 H   0  0  0  0  0  0  0  0  0  0  0  0
   36.9720   27.1890   33.3320 C   0  0  0  0  0  0  0  0  0  0  0  0
   35.8900   27.1270   33.2030 H   0  0  0  0  0  0  0  0  0  0  0  0
   37.3920   28.2150   33.2810 H   0  0  0  0  0  0  0  0  0  0  0  0
   37.3420   26.5860   35.0230 S   0  0  0  0  0  0  0  0  0  0  0  0
   37.3380   25.1670   35.0090 H   0  0  0  0  0  0  0  0  0  0  0  0
  1 10  1  0  0  0  0
  1  5  2  0  0  0  0
  2  3  2  0  0  0  0
  2  1  1  0  0  0  0
  3  4  1  0  0  0  0
  4  5  1  0  0  0  0
  4 17  1  0  0  0  0
  6  2  1  0  0  0  0
  7  3  1  0  0  0  0
  8  9  1  0  0  0  0
  8 14  1  0  0  0  0
  9 15  1  0  0  0  0
 10  9  2  0  0  0  0
 11 12  2  0  0  0  0
 11 10  1  0  0  0  0
 12 13  1  0  0  0  0
 13  8  2  0  0  0  0
 16 12  1  0  0  0  0
 17 18  1  0  0  0  0
 17 20  1  0  0  0  0
 19 17  1  0  0  0  0
 20 23  1  0  0  0  0
 21 20  1  0  0  0  0
 22 20  1  0  0  0  0
 24 23  1  0  0  0  0
M  END
>  <minimizedAffinity>
-3.53780174

$$$$
