
 OpenBabel03272500483D

 32 35  0  0  1  0  0  0  0  0999 V2000
   31.7470   27.6530   48.7750 C   0  0  0  0  0  0  0  0  0  0  0  0
   32.6790   26.9270   48.0720 C   0  0  0  0  0  0  0  0  0  0  0  0
   33.9190   27.5670   48.2050 C   0  0  0  0  0  0  0  0  0  0  0  0
   33.7090   28.6530   48.9750 N   0  0  0  0  0  0  0  0  0  0  0  0
   32.4410   28.6690   49.2840 N   0  0  0  0  0  0  0  0  0  0  0  0
   32.5800   26.0160   47.4910 H   0  0  0  0  0  0  0  0  0  0  0  0
   34.8620   27.2660   47.7810 H   0  0  0  0  0  0  0  0  0  0  0  0
   29.6310   27.3200   50.0930 C   0  0  0  0  0  0  0  0  0  0  0  0
   30.3510   27.3230   48.8830 C   0  0  0  0  0  0  0  0  0  0  0  0
   29.6370   26.9800   47.7430 C   0  0  0  0  0  0  0  0  0  0  0  0
   28.3180   26.6680   47.8350 N   0  0  0  0  0  0  0  0  0  0  0  0
   27.6870   26.6860   49.0350 C   0  0  0  0  0  0  0  0  0  0  0  0
   28.3440   27.0150   50.1800 N   0  0  0  0  0  0  0  0  0  0  0  0
   30.2170   27.5910   50.9620 H   0  0  0  0  0  0  0  0  0  0  0  0
   30.1400   26.9680   46.8000 H   0  0  0  0  0  0  0  0  0  0  0  0
   26.6360   26.4160   48.9630 H   0  0  0  0  0  0  0  0  0  0  0  0
   34.7080   29.6260   49.3840 C   0  0  1  0  0  0  0  0  0  0  0  0
   35.5600   29.2500   50.6430 C   0  0  0  0  0  0  0  0  0  0  0  0
   36.1390   29.2880   49.2760 C   0  0  2  0  0  0  0  0  0  0  0  0
   34.3400   30.6710   49.3400 H   0  0  0  0  0  0  0  0  0  0  0  0
   35.8490   30.1280   51.2800 H   0  0  0  0  0  0  0  0  0  0  0  0
   35.3070   28.3280   51.1660 H   0  0  0  0  0  0  0  0  0  0  0  0
   36.3880   28.3140   48.8360 H   0  0  0  0  0  0  0  0  0  0  0  0
   37.1180   30.3640   48.9240 C   0  0  0  0  0  0  0  0  0  0  0  0
   37.9240   30.3460   47.7750 C   0  0  0  0  0  0  0  0  0  0  0  0
   38.6810   31.4680   47.7840 N   0  0  0  0  0  0  0  0  0  0  0  0
   38.3630   32.1740   48.9050 C   0  0  0  0  0  0  0  0  0  0  0  0
   37.4170   31.5060   49.5940 N   0  0  0  0  0  0  0  0  0  0  0  0
   37.9400   29.5720   47.0120 H   0  0  0  0  0  0  0  0  0  0  0  0
   39.3890   31.7620   47.0710 H   0  0  0  0  0  0  0  0  0  0  0  0
   39.0300   33.7320   49.4550 S   0  0  0  0  0  0  0  0  0  0  0  0
   40.4380   33.6710   49.4890 H   0  0  0  0  0  0  0  0  0  0  0  0
  1  9  1  0  0  0  0
  1  5  2  0  0  0  0
  2  3  2  0  0  0  0
  2  1  1  0  0  0  0
  3  4  1  0  0  0  0
  4  5  1  0  0  0  0
  4 17  1  0  0  0  0
  6  2  1  0  0  0  0
  7  3  1  0  0  0  0
  8 13  1  0  0  0  0
  8 14  1  0  0  0  0
  9  8  2  0  0  0  0
 10 11  2  0  0  0  0
 10  9  1  0  0  0  0
 11 12  1  0  0  0  0
 12 13  2  0  0  0  0
 15 10  1  0  0  0  0
 16 12  1  0  0  0  0
 17 20  1  6  0  0  0
 17 18  1  0  0  0  0
 18 22  1  0  0  0  0
 18 21  1  0  0  0  0
 19 23  1  6  0  0  0
 19 17  1  0  0  0  0
 19 18  1  0  0  0  0
 24 19  1  0  0  0  0
 24 28  1  0  0  0  0
 25 26  1  0  0  0  0
 25 24  2  0  0  0  0
 26 27  1  0  0  0  0
 27 31  1  0  0  0  0
 27 28  2  0  0  0  0
 29 25  1  0  0  0  0
 30 26  1  0  0  0  0
 31 32  1  0  0  0  0
M  END
>  <minimizedAffinity>
-5.54782581

>  <minimizedRMSD>
2.5881691

$$$$
