
 OpenBabel03262521503D

 25 26  0  0  1  0  0  0  0  0999 V2000
   41.5870   25.9450   33.7930 C   0  0  0  0  0  0  0  0  0  0  0  0
   40.8410   27.1290   33.8530 C   0  0  0  0  0  0  0  0  0  0  0  0
   39.6700   27.0950   34.6340 C   0  0  0  0  0  0  0  0  0  0  0  0
   39.3420   25.9340   35.2700 N   0  0  0  0  0  0  0  0  0  0  0  0
   40.0980   24.8320   35.1750 C   0  0  0  0  0  0  0  0  0  0  0  0
   41.2360   24.8130   34.4330 N   0  0  0  0  0  0  0  0  0  0  0  0
   39.7110   23.6540   35.8550 N   0  0  0  0  0  0  0  0  0  0  0  0
   40.6930   22.6740   36.3300 C   0  0  0  0  0  0  0  0  0  0  0  0
   40.4800   22.4290   37.7780 C   0  0  0  0  0  0  0  0  0  0  0  0
   39.2610   22.8290   38.3260 N   0  0  0  0  0  0  0  0  0  0  0  0
   38.1180   22.9890   37.5030 C   0  0  0  0  0  0  0  0  0  0  0  0
   38.3030   23.3810   36.1040 C   0  0  2  0  0  0  0  0  0  0  0  0
   42.5010   25.9390   33.1950 H   0  0  0  0  0  0  0  0  0  0  0  0
   41.1390   28.0260   33.3320 H   0  0  0  0  0  0  0  0  0  0  0  0
   39.0740   27.9900   34.7000 H   0  0  0  0  0  0  0  0  0  0  0  0
   40.6360   21.7510   35.7050 H   0  0  0  0  0  0  0  0  0  0  0  0
   41.7170   23.0950   36.1470 H   0  0  0  0  0  0  0  0  0  0  0  0
   40.5820   21.3140   37.9340 H   0  0  0  0  0  0  0  0  0  0  0  0
   41.3130   22.8740   38.3610 H   0  0  0  0  0  0  0  0  0  0  0  0
   38.9940   22.2840   39.1700 H   0  0  0  0  0  0  0  0  0  0  0  0
   37.5200   22.0300   37.5360 H   0  0  0  0  0  0  0  0  0  0  0  0
   37.4360   23.7320   38.0090 H   0  0  0  0  0  0  0  0  0  0  0  0
   37.7080   24.2940   35.8420 H   0  0  0  0  0  0  0  0  0  0  0  0
   37.7490   22.1220   34.9040 S   0  0  0  0  0  0  0  0  0  0  0  0
   37.7910   22.6620   33.5960 H   0  0  0  0  0  0  0  0  0  0  0  0
  1  2  2  0  0  0  0
  1  6  1  0  0  0  0
  2  3  1  0  0  0  0
  3 15  1  0  0  0  0
  3  4  2  0  0  0  0
  5  4  1  0  0  0  0
  5  7  1  0  0  0  0
  6  5  2  0  0  0  0
  7 12  1  0  0  0  0
  7  8  1  0  0  0  0
  8  9  1  0  0  0  0
  9 18  1  0  0  0  0
  9 10  1  0  0  0  0
  9 19  1  0  0  0  0
 10 20  1  0  0  0  0
 11 21  1  0  0  0  0
 11 22  1  0  0  0  0
 11 10  1  0  0  0  0
 12 23  1  6  0  0  0
 12 11  1  0  0  0  0
 13  1  1  0  0  0  0
 14  2  1  0  0  0  0
 16  8  1  0  0  0  0
 17  8  1  0  0  0  0
 24 12  1  0  0  0  0
 25 24  1  0  0  0  0
M  END
>  <minimizedAffinity>
-4.11853313

$$$$

 OpenBabel03262521503D

 25 26  0  0  1  0  0  0  0  0999 V2000
   36.9840   27.8040   34.5470 C   0  0  0  0  0  0  0  0  0  0  0  0
   36.6670   27.6370   33.1920 C   0  0  0  0  0  0  0  0  0  0  0  0
   36.9200   26.3670   32.6390 C   0  0  0  0  0  0  0  0  0  0  0  0
   37.4480   25.3990   33.4410 N   0  0  0  0  0  0  0  0  0  0  0  0
   37.7290   25.6190   34.7320 C   0  0  0  0  0  0  0  0  0  0  0  0
   37.5050   26.8260   35.3130 N   0  0  0  0  0  0  0  0  0  0  0  0
   38.2760   24.5790   35.5190 N   0  0  0  0  0  0  0  0  0  0  0  0
   38.0360   24.4890   36.9630 C   0  0  0  0  0  0  0  0  0  0  0  0
   37.4940   23.1460   37.2870 C   0  0  0  0  0  0  0  0  0  0  0  0
   37.6460   22.1430   36.3300 N   0  0  0  0  0  0  0  0  0  0  0  0
   38.6640   22.2300   35.3480 C   0  0  0  0  0  0  0  0  0  0  0  0
   39.1060   23.5540   34.9030 C   0  0  2  0  0  0  0  0  0  0  0  0
   36.7990   28.7780   35.0050 H   0  0  0  0  0  0  0  0  0  0  0  0
   36.2500   28.4340   32.5950 H   0  0  0  0  0  0  0  0  0  0  0  0
   36.6870   26.2080   31.6000 H   0  0  0  0  0  0  0  0  0  0  0  0
   38.9720   24.7420   37.5160 H   0  0  0  0  0  0  0  0  0  0  0  0
   37.3010   25.2900   37.2410 H   0  0  0  0  0  0  0  0  0  0  0  0
   38.0170   22.8070   38.2300 H   0  0  0  0  0  0  0  0  0  0  0  0
   36.4250   23.2310   37.5710 H   0  0  0  0  0  0  0  0  0  0  0  0
   37.6520   21.1860   36.7380 H   0  0  0  0  0  0  0  0  0  0  0  0
   39.5630   21.6510   35.7170 H   0  0  0  0  0  0  0  0  0  0  0  0
   38.3260   21.6320   34.4530 H   0  0  0  0  0  0  0  0  0  0  0  0
   39.0460   23.6630   33.7890 H   0  0  0  0  0  0  0  0  0  0  0  0
   40.8490   23.9220   35.2990 S   0  0  0  0  0  0  0  0  0  0  0  0
   41.2340   25.1310   34.6690 H   0  0  0  0  0  0  0  0  0  0  0  0
  1 13  1  0  0  0  0
  1  6  1  0  0  0  0
  2  1  2  0  0  0  0
  3  2  1  0  0  0  0
  3  4  2  0  0  0  0
  4  5  1  0  0  0  0
  5  6  2  0  0  0  0
  5  7  1  0  0  0  0
  7  8  1  0  0  0  0
  8 17  1  0  0  0  0
  8  9  1  0  0  0  0
  8 16  1  0  0  0  0
  9 19  1  0  0  0  0
  9 18  1  0  0  0  0
 10 20  1  0  0  0  0
 10  9  1  0  0  0  0
 11 21  1  0  0  0  0
 11 10  1  0  0  0  0
 12 23  1  6  0  0  0
 12 24  1  0  0  0  0
 12 11  1  0  0  0  0
 12  7  1  0  0  0  0
 14  2  1  0  0  0  0
 15  3  1  0  0  0  0
 22 11  1  0  0  0  0
 25 24  1  0  0  0  0
M  END
>  <minimizedAffinity>
-4.04465866

$$$$

 OpenBabel03262521503D

 25 26  0  0  1  0  0  0  0  0999 V2000
   39.7390   22.8430   37.7110 C   0  0  0  0  0  0  0  0  0  0  0  0
   38.8560   23.3460   38.6760 C   0  0  0  0  0  0  0  0  0  0  0  0
   37.9240   24.3060   38.2360 C   0  0  0  0  0  0  0  0  0  0  0  0
   37.9390   24.6770   36.9240 N   0  0  0  0  0  0  0  0  0  0  0  0
   38.8090   24.1580   36.0470 C   0  0  0  0  0  0  0  0  0  0  0  0
   39.7280   23.2310   36.4220 N   0  0  0  0  0  0  0  0  0  0  0  0
   38.7810   24.5790   34.6980 N   0  0  0  0  0  0  0  0  0  0  0  0
   39.1910   23.6970   33.6000 C   0  0  0  0  0  0  0  0  0  0  0  0
   38.1010   23.6250   32.5960 C   0  0  0  0  0  0  0  0  0  0  0  0
   37.1130   24.6080   32.6460 N   0  0  0  0  0  0  0  0  0  0  0  0
   37.3710   25.8600   33.2580 C   0  0  0  0  0  0  0  0  0  0  0  0
   38.3360   25.9240   34.3590 C   0  0  2  0  0  0  0  0  0  0  0  0
   40.4740   22.0970   38.0220 H   0  0  0  0  0  0  0  0  0  0  0  0
   38.8810   23.0230   39.7060 H   0  0  0  0  0  0  0  0  0  0  0  0
   37.2320   24.7120   38.9550 H   0  0  0  0  0  0  0  0  0  0  0  0
   40.1660   24.0460   33.1820 H   0  0  0  0  0  0  0  0  0  0  0  0
   39.3990   22.6830   34.0320 H   0  0  0  0  0  0  0  0  0  0  0  0
   38.5950   23.6820   31.5800 H   0  0  0  0  0  0  0  0  0  0  0  0
   37.6290   22.6210   32.6250 H   0  0  0  0  0  0  0  0  0  0  0  0
   36.6510   24.7710   31.7290 H   0  0  0  0  0  0  0  0  0  0  0  0
   37.6880   26.5900   32.4540 H   0  0  0  0  0  0  0  0  0  0  0  0
   36.3830   26.2780   33.6080 H   0  0  0  0  0  0  0  0  0  0  0  0
   37.8970   26.3990   35.2750 H   0  0  0  0  0  0  0  0  0  0  0  0
   39.8110   26.9320   33.9900 S   0  0  0  0  0  0  0  0  0  0  0  0
   40.5860   27.0890   35.1660 H   0  0  0  0  0  0  0  0  0  0  0  0
  1 13  1  0  0  0  0
  1  2  1  0  0  0  0
  2 14  1  0  0  0  0
  3  2  2  0  0  0  0
  3 15  1  0  0  0  0
  4  3  1  0  0  0  0
  5  6  1  0  0  0  0
  5  4  2  0  0  0  0
  6  1  2  0  0  0  0
  7  5  1  0  0  0  0
  8 17  1  0  0  0  0
  8  7  1  0  0  0  0
  9 19  1  0  0  0  0
  9 10  1  0  0  0  0
  9  8  1  0  0  0  0
 10 11  1  0  0  0  0
 11 22  1  0  0  0  0
 11 12  1  0  0  0  0
 12  7  1  0  0  0  0
 12 23  1  1  0  0  0
 16  8  1  0  0  0  0
 18  9  1  0  0  0  0
 20 10  1  0  0  0  0
 21 11  1  0  0  0  0
 24 12  1  0  0  0  0
 24 25  1  0  0  0  0
M  END
>  <minimizedAffinity>
-3.92894483

$$$$

 OpenBabel03262521503D

 25 26  0  0  1  0  0  0  0  0999 V2000
   35.7180   20.8770   35.6660 C   0  0  0  0  0  0  0  0  0  0  0  0
   35.6690   20.5930   34.2950 C   0  0  0  0  0  0  0  0  0  0  0  0
   36.6780   21.1690   33.4980 C   0  0  0  0  0  0  0  0  0  0  0  0
   37.6200   21.9500   34.1000 N   0  0  0  0  0  0  0  0  0  0  0  0
   37.6130   22.1840   35.4190 C   0  0  0  0  0  0  0  0  0  0  0  0
   36.6620   21.6530   36.2300 N   0  0  0  0  0  0  0  0  0  0  0  0
   38.6140   23.0020   35.9920 N   0  0  0  0  0  0  0  0  0  0  0  0
   39.0710   22.8200   37.3730 C   0  0  0  0  0  0  0  0  0  0  0  0
   40.5460   22.6630   37.3860 C   0  0  0  0  0  0  0  0  0  0  0  0
   41.2450   23.0630   36.2460 N   0  0  0  0  0  0  0  0  0  0  0  0
   40.6830   24.0040   35.3470 C   0  0  0  0  0  0  0  0  0  0  0  0
   39.2260   24.0670   35.2090 C   0  0  2  0  0  0  0  0  0  0  0  0
   34.9490   20.4450   36.3110 H   0  0  0  0  0  0  0  0  0  0  0  0
   34.9040   19.9690   33.8610 H   0  0  0  0  0  0  0  0  0  0  0  0
   36.6680   20.9700   32.4400 H   0  0  0  0  0  0  0  0  0  0  0  0
   38.7020   23.6620   38.0060 H   0  0  0  0  0  0  0  0  0  0  0  0
   38.5730   21.9010   37.7820 H   0  0  0  0  0  0  0  0  0  0  0  0
   40.9270   23.2740   38.2570 H   0  0  0  0  0  0  0  0  0  0  0  0
   40.8110   21.6150   37.6360 H   0  0  0  0  0  0  0  0  0  0  0  0
   42.2300   23.3320   36.4440 H   0  0  0  0  0  0  0  0  0  0  0  0
   41.0680   25.0310   35.6230 H   0  0  0  0  0  0  0  0  0  0  0  0
   41.1430   23.8230   34.3330 H   0  0  0  0  0  0  0  0  0  0  0  0
   38.9010   23.9610   34.1410 H   0  0  0  0  0  0  0  0  0  0  0  0
   38.5020   25.6530   35.7460 S   0  0  0  0  0  0  0  0  0  0  0  0
   37.1280   25.6890   35.4010 H   0  0  0  0  0  0  0  0  0  0  0  0
  1  6  1  0  0  0  0
  1 13  1  0  0  0  0
  2  1  2  0  0  0  0
  3  4  2  0  0  0  0
  3  2  1  0  0  0  0
  4  5  1  0  0  0  0
  5  7  1  0  0  0  0
  5  6  2  0  0  0  0
  7  8  1  0  0  0  0
  8  9  1  0  0  0  0
  8 17  1  0  0  0  0
  8 16  1  0  0  0  0
  9 19  1  0  0  0  0
  9 18  1  0  0  0  0
 10 20  1  0  0  0  0
 10  9  1  0  0  0  0
 11 21  1  0  0  0  0
 11 10  1  0  0  0  0
 12 23  1  6  0  0  0
 12 11  1  0  0  0  0
 12 24  1  0  0  0  0
 12  7  1  0  0  0  0
 14  2  1  0  0  0  0
 15  3  1  0  0  0  0
 22 11  1  0  0  0  0
 25 24  1  0  0  0  0
M  END
>  <minimizedAffinity>
-3.87497234

$$$$

 OpenBabel03262521503D

 25 26  0  0  1  0  0  0  0  0999 V2000
   38.1100   27.3510   35.7070 C   0  0  0  0  0  0  0  0  0  0  0  0
   39.4320   26.9720   35.4400 C   0  0  0  0  0  0  0  0  0  0  0  0
   39.7980   26.8790   34.0840 C   0  0  0  0  0  0  0  0  0  0  0  0
   38.8610   27.1590   33.1340 N   0  0  0  0  0  0  0  0  0  0  0  0
   37.6100   27.5170   33.4520 C   0  0  0  0  0  0  0  0  0  0  0  0
   37.2070   27.6200   34.7450 N   0  0  0  0  0  0  0  0  0  0  0  0
   36.6770   27.7960   32.4260 N   0  0  0  0  0  0  0  0  0  0  0  0
   35.5770   28.7470   32.6130 C   0  0  0  0  0  0  0  0  0  0  0  0
   35.6170   29.7620   31.5310 C   0  0  0  0  0  0  0  0  0  0  0  0
   36.3740   29.4640   30.3970 N   0  0  0  0  0  0  0  0  0  0  0  0
   36.6720   28.1190   30.0600 C   0  0  0  0  0  0  0  0  0  0  0  0
   36.7880   27.1300   31.1350 C   0  0  2  0  0  0  0  0  0  0  0  0
   37.7950   27.4320   36.7500 H   0  0  0  0  0  0  0  0  0  0  0  0
   40.1410   26.7600   36.2260 H   0  0  0  0  0  0  0  0  0  0  0  0
   40.8080   26.5900   33.8470 H   0  0  0  0  0  0  0  0  0  0  0  0
   34.6100   28.1950   32.6780 H   0  0  0  0  0  0  0  0  0  0  0  0
   35.7090   29.2340   33.6160 H   0  0  0  0  0  0  0  0  0  0  0  0
   34.5470   29.9220   31.2010 H   0  0  0  0  0  0  0  0  0  0  0  0
   35.9360   30.7400   31.9440 H   0  0  0  0  0  0  0  0  0  0  0  0
   36.0450   29.9600   29.5440 H   0  0  0  0  0  0  0  0  0  0  0  0
   35.8990   27.7610   29.3170 H   0  0  0  0  0  0  0  0  0  0  0  0
   37.6240   28.1230   29.4570 H   0  0  0  0  0  0  0  0  0  0  0  0
   37.7640   26.5810   31.0960 H   0  0  0  0  0  0  0  0  0  0  0  0
   35.5270   25.8140   31.0660 S   0  0  0  0  0  0  0  0  0  0  0  0
   35.8330   24.8130   32.0200 H   0  0  0  0  0  0  0  0  0  0  0  0
  1 13  1  0  0  0  0
  2  1  1  0  0  0  0
  2 14  1  0  0  0  0
  3  2  2  0  0  0  0
  4  5  2  0  0  0  0
  4  3  1  0  0  0  0
  5  6  1  0  0  0  0
  6  1  2  0  0  0  0
  7  8  1  0  0  0  0
  7  5  1  0  0  0  0
  8 16  1  0  0  0  0
  8 17  1  0  0  0  0
  9 19  1  0  0  0  0
  9  8  1  0  0  0  0
 10  9  1  0  0  0  0
 11 10  1  0  0  0  0
 11 12  1  0  0  0  0
 12 23  1  6  0  0  0
 12  7  1  0  0  0  0
 15  3  1  0  0  0  0
 18  9  1  0  0  0  0
 20 10  1  0  0  0  0
 21 11  1  0  0  0  0
 22 11  1  0  0  0  0
 24 12  1  0  0  0  0
 24 25  1  0  0  0  0
M  END
>  <minimizedAffinity>
-3.82411504

$$$$

 OpenBabel03262521503D

 25 26  0  0  1  0  0  0  0  0999 V2000
   36.6590   25.6650   32.2140 C   0  0  0  0  0  0  0  0  0  0  0  0
   36.4600   24.6270   31.2930 C   0  0  0  0  0  0  0  0  0  0  0  0
   36.9740   23.3650   31.6480 C   0  0  0  0  0  0  0  0  0  0  0  0
   37.6190   23.2350   32.8420 N   0  0  0  0  0  0  0  0  0  0  0  0
   37.7770   24.2660   33.6820 C   0  0  0  0  0  0  0  0  0  0  0  0
   37.3020   25.5030   33.3860 N   0  0  0  0  0  0  0  0  0  0  0  0
   38.4550   24.0740   34.9080 N   0  0  0  0  0  0  0  0  0  0  0  0
   38.1480   24.8750   36.0990 C   0  0  0  0  0  0  0  0  0  0  0  0
   37.8410   23.9690   37.2330 C   0  0  0  0  0  0  0  0  0  0  0  0
   38.2310   22.6340   37.1140 N   0  0  0  0  0  0  0  0  0  0  0  0
   39.2740   22.2630   36.2290 C   0  0  0  0  0  0  0  0  0  0  0  0
   39.4940   23.0600   35.0200 C   0  0  2  0  0  0  0  0  0  0  0  0
   36.2720   26.6560   31.9670 H   0  0  0  0  0  0  0  0  0  0  0  0
   35.9430   24.7780   30.3580 H   0  0  0  0  0  0  0  0  0  0  0  0
   36.8370   22.5470   30.9600 H   0  0  0  0  0  0  0  0  0  0  0  0
   38.9870   25.5820   36.3020 H   0  0  0  0  0  0  0  0  0  0  0  0
   37.2650   25.5230   35.8600 H   0  0  0  0  0  0  0  0  0  0  0  0
   38.3590   24.4010   38.1390 H   0  0  0  0  0  0  0  0  0  0  0  0
   36.7590   24.0200   37.4720 H   0  0  0  0  0  0  0  0  0  0  0  0
   38.3870   22.1710   38.0320 H   0  0  0  0  0  0  0  0  0  0  0  0
   40.2390   22.2190   36.8170 H   0  0  0  0  0  0  0  0  0  0  0  0
   39.1050   21.1860   35.9370 H   0  0  0  0  0  0  0  0  0  0  0  0
   39.4830   22.4300   34.0940 H   0  0  0  0  0  0  0  0  0  0  0  0
   41.1130   23.9000   34.9740 S   0  0  0  0  0  0  0  0  0  0  0  0
   41.3090   24.4840   33.6990 H   0  0  0  0  0  0  0  0  0  0  0  0
  1  6  1  0  0  0  0
  2  3  1  0  0  0  0
  2  1  2  0  0  0  0
  3  4  2  0  0  0  0
  4  5  1  0  0  0  0
  5  7  1  0  0  0  0
  6  5  2  0  0  0  0
  7 12  1  0  0  0  0
  7  8  1  0  0  0  0
  8 16  1  0  0  0  0
  8  9  1  0  0  0  0
  9 19  1  0  0  0  0
  9 18  1  0  0  0  0
 10  9  1  0  0  0  0
 10 20  1  0  0  0  0
 11 21  1  0  0  0  0
 11 10  1  0  0  0  0
 12 23  1  6  0  0  0
 12 11  1  0  0  0  0
 13  1  1  0  0  0  0
 14  2  1  0  0  0  0
 15  3  1  0  0  0  0
 17  8  1  0  0  0  0
 22 11  1  0  0  0  0
 24 12  1  0  0  0  0
 25 24  1  0  0  0  0
M  END
>  <minimizedAffinity>
-3.72594261

$$$$

 OpenBabel03262521503D

 25 26  0  0  1  0  0  0  0  0999 V2000
   37.8250   24.1330   38.2240 C   0  0  0  0  0  0  0  0  0  0  0  0
   38.8850   23.3330   38.6720 C   0  0  0  0  0  0  0  0  0  0  0  0
   39.8030   22.9030   37.6950 C   0  0  0  0  0  0  0  0  0  0  0  0
   39.6070   23.2840   36.4000 N   0  0  0  0  0  0  0  0  0  0  0  0
   38.5720   24.0520   36.0340 C   0  0  0  0  0  0  0  0  0  0  0  0
   37.6590   24.4920   36.9370 N   0  0  0  0  0  0  0  0  0  0  0  0
   38.4160   24.4190   34.6770 N   0  0  0  0  0  0  0  0  0  0  0  0
   37.7720   25.6750   34.2800 C   0  0  0  0  0  0  0  0  0  0  0  0
   38.6790   26.4290   33.3800 C   0  0  0  0  0  0  0  0  0  0  0  0
   39.7330   25.7260   32.7940 N   0  0  0  0  0  0  0  0  0  0  0  0
   39.6690   24.3180   32.6470 C   0  0  0  0  0  0  0  0  0  0  0  0
   38.8990   23.5400   33.6210 C   0  0  2  0  0  0  0  0  0  0  0  0
   37.0950   24.4830   38.9580 H   0  0  0  0  0  0  0  0  0  0  0  0
   39.0000   23.0560   39.7080 H   0  0  0  0  0  0  0  0  0  0  0  0
   40.6290   22.2860   38.0070 H   0  0  0  0  0  0  0  0  0  0  0  0
   36.7720   25.4600   33.8340 H   0  0  0  0  0  0  0  0  0  0  0  0
   37.5610   26.2630   35.2120 H   0  0  0  0  0  0  0  0  0  0  0  0
   38.0350   26.8450   32.5490 H   0  0  0  0  0  0  0  0  0  0  0  0
   39.0750   27.3210   33.9070 H   0  0  0  0  0  0  0  0  0  0  0  0
   40.0540   26.1440   31.8970 H   0  0  0  0  0  0  0  0  0  0  0  0
   39.2830   24.0870   31.6100 H   0  0  0  0  0  0  0  0  0  0  0  0
   40.7280   23.9310   32.6180 H   0  0  0  0  0  0  0  0  0  0  0  0
   39.5120   22.7240   34.0840 H   0  0  0  0  0  0  0  0  0  0  0  0
   37.4620   22.6730   32.9030 S   0  0  0  0  0  0  0  0  0  0  0  0
   36.8990   21.8060   33.8710 H   0  0  0  0  0  0  0  0  0  0  0  0
  1  2  1  0  0  0  0
  1 13  1  0  0  0  0
  2 14  1  0  0  0  0
  3 15  1  0  0  0  0
  3  2  2  0  0  0  0
  4  3  1  0  0  0  0
  5  4  2  0  0  0  0
  5  6  1  0  0  0  0
  6  1  2  0  0  0  0
  7  5  1  0  0  0  0
  8  7  1  0  0  0  0
  8 17  1  0  0  0  0
  9 19  1  0  0  0  0
  9  8  1  0  0  0  0
 10  9  1  0  0  0  0
 11 10  1  0  0  0  0
 11 12  1  0  0  0  0
 12 23  1  1  0  0  0
 12  7  1  0  0  0  0
 16  8  1  0  0  0  0
 18  9  1  0  0  0  0
 20 10  1  0  0  0  0
 21 11  1  0  0  0  0
 22 11  1  0  0  0  0
 24 12  1  0  0  0  0
 24 25  1  0  0  0  0
M  END
>  <minimizedAffinity>
-3.67227364

$$$$

 OpenBabel03262521503D

 25 26  0  0  1  0  0  0  0  0999 V2000
   35.8040   24.2690   31.4510 C   0  0  0  0  0  0  0  0  0  0  0  0
   36.1830   22.9610   31.7810 C   0  0  0  0  0  0  0  0  0  0  0  0
   37.2050   22.8270   32.7410 C   0  0  0  0  0  0  0  0  0  0  0  0
   37.7500   23.9560   33.2770 N   0  0  0  0  0  0  0  0  0  0  0  0
   37.3430   25.1810   32.9210 C   0  0  0  0  0  0  0  0  0  0  0  0
   36.3630   25.3650   31.9990 N   0  0  0  0  0  0  0  0  0  0  0  0
   37.9440   26.3180   33.5090 N   0  0  0  0  0  0  0  0  0  0  0  0
   37.2130   27.5780   33.6870 C   0  0  0  0  0  0  0  0  0  0  0  0
   37.2910   27.9930   35.1090 C   0  0  0  0  0  0  0  0  0  0  0  0
   38.2720   27.3950   35.9010 N   0  0  0  0  0  0  0  0  0  0  0  0
   39.4260   26.8210   35.3110 C   0  0  0  0  0  0  0  0  0  0  0  0
   39.3270   26.2660   33.9590 C   0  0  2  0  0  0  0  0  0  0  0  0
   35.0130   24.4070   30.7090 H   0  0  0  0  0  0  0  0  0  0  0  0
   35.7230   22.0960   31.3300 H   0  0  0  0  0  0  0  0  0  0  0  0
   37.5190   21.8340   33.0150 H   0  0  0  0  0  0  0  0  0  0  0  0
   37.6020   28.3420   32.9730 H   0  0  0  0  0  0  0  0  0  0  0  0
   36.1470   27.4040   33.3840 H   0  0  0  0  0  0  0  0  0  0  0  0
   37.4790   29.1080   35.1090 H   0  0  0  0  0  0  0  0  0  0  0  0
   36.2990   27.8720   35.5910 H   0  0  0  0  0  0  0  0  0  0  0  0
   38.5630   27.9850   36.7070 H   0  0  0  0  0  0  0  0  0  0  0  0
   40.2530   27.5920   35.3290 H   0  0  0  0  0  0  0  0  0  0  0  0
   39.8050   26.0230   36.0120 H   0  0  0  0  0  0  0  0  0  0  0  0
   39.6800   25.2030   33.9160 H   0  0  0  0  0  0  0  0  0  0  0  0
   40.3580   27.1340   32.7280 S   0  0  0  0  0  0  0  0  0  0  0  0
   40.3430   26.4160   31.5070 H   0  0  0  0  0  0  0  0  0  0  0  0
  1  2  2  0  0  0  0
  1  6  1  0  0  0  0
  2  3  1  0  0  0  0
  3 15  1  0  0  0  0
  3  4  2  0  0  0  0
  5  4  1  0  0  0  0
  5  7  1  0  0  0  0
  6  5  2  0  0  0  0
  7  8  1  0  0  0  0
  7 12  1  0  0  0  0
  8  9  1  0  0  0  0
  9 19  1  0  0  0  0
  9 10  1  0  0  0  0
 10 20  1  0  0  0  0
 11 21  1  0  0  0  0
 11 10  1  0  0  0  0
 11 22  1  0  0  0  0
 12 23  1  1  0  0  0
 12 11  1  0  0  0  0
 13  1  1  0  0  0  0
 14  2  1  0  0  0  0
 16  8  1  0  0  0  0
 17  8  1  0  0  0  0
 18  9  1  0  0  0  0
 24 12  1  0  0  0  0
 25 24  1  0  0  0  0
M  END
>  <minimizedAffinity>
-3.64808559

$$$$

 OpenBabel03262521503D

 25 26  0  0  1  0  0  0  0  0999 V2000
   40.7340   21.8880   37.2260 C   0  0  0  0  0  0  0  0  0  0  0  0
   42.1030   21.8570   36.9320 C   0  0  0  0  0  0  0  0  0  0  0  0
   42.5880   22.8710   36.0850 C   0  0  0  0  0  0  0  0  0  0  0  0
   41.7100   23.8030   35.6130 N   0  0  0  0  0  0  0  0  0  0  0  0
   40.4090   23.7810   35.9310 C   0  0  0  0  0  0  0  0  0  0  0  0
   39.8930   22.8230   36.7430 N   0  0  0  0  0  0  0  0  0  0  0  0
   39.5430   24.7710   35.4130 N   0  0  0  0  0  0  0  0  0  0  0  0
   38.3470   25.2130   36.1380 C   0  0  0  0  0  0  0  0  0  0  0  0
   38.3810   26.6890   36.2860 C   0  0  0  0  0  0  0  0  0  0  0  0
   39.2550   27.3990   35.4610 N   0  0  0  0  0  0  0  0  0  0  0  0
   39.7040   26.8430   34.2370 C   0  0  0  0  0  0  0  0  0  0  0  0
   39.8230   25.3870   34.1240 C   0  0  2  0  0  0  0  0  0  0  0  0
   40.3270   21.1140   37.8820 H   0  0  0  0  0  0  0  0  0  0  0  0
   42.7610   21.0990   37.3290 H   0  0  0  0  0  0  0  0  0  0  0  0
   43.6370   22.8740   35.8400 H   0  0  0  0  0  0  0  0  0  0  0  0
   37.4330   24.8340   35.6220 H   0  0  0  0  0  0  0  0  0  0  0  0
   38.3490   24.7150   37.1430 H   0  0  0  0  0  0  0  0  0  0  0  0
   37.3330   27.0580   36.0790 H   0  0  0  0  0  0  0  0  0  0  0  0
   38.5720   26.9560   37.3460 H   0  0  0  0  0  0  0  0  0  0  0  0
   38.9530   28.3800   35.2940 H   0  0  0  0  0  0  0  0  0  0  0  0
   39.0330   27.2190   33.4090 H   0  0  0  0  0  0  0  0  0  0  0  0
   40.6990   27.3150   33.9940 H   0  0  0  0  0  0  0  0  0  0  0  0
   40.8460   25.0740   33.7900 H   0  0  0  0  0  0  0  0  0  0  0  0
   38.7000   24.6490   32.8880 S   0  0  0  0  0  0  0  0  0  0  0  0
   39.0180   23.2790   32.7160 H   0  0  0  0  0  0  0  0  0  0  0  0
  1 13  1  0  0  0  0
  2  1  1  0  0  0  0
  2 14  1  0  0  0  0
  3  2  2  0  0  0  0
  4  5  2  0  0  0  0
  4  3  1  0  0  0  0
  5  6  1  0  0  0  0
  6  1  2  0  0  0  0
  7  5  1  0  0  0  0
  7  8  1  0  0  0  0
  8  9  1  0  0  0  0
  8 17  1  0  0  0  0
  9 19  1  0  0  0  0
 10  9  1  0  0  0  0
 11 10  1  0  0  0  0
 12 23  1  6  0  0  0
 12 11  1  0  0  0  0
 12  7  1  0  0  0  0
 15  3  1  0  0  0  0
 16  8  1  0  0  0  0
 18  9  1  0  0  0  0
 20 10  1  0  0  0  0
 21 11  1  0  0  0  0
 22 11  1  0  0  0  0
 24 12  1  0  0  0  0
 25 24  1  0  0  0  0
M  END
>  <minimizedAffinity>
-3.62601709

$$$$
