
 OpenBabel03272501013D

 21 22  0  0  0  0  0  0  0  0999 V2000
   40.1820   23.6990   34.8320 F   0  0  0  0  0  0  0  0  0  0  0  0
   39.5370   23.7550   36.0190 C   0  0  0  0  0  0  0  0  0  0  0  0
   38.4220   24.5720   36.2640 C   0  0  0  0  0  0  0  0  0  0  0  0
   37.8450   24.5500   37.5100 C   0  0  0  0  0  0  0  0  0  0  0  0
   38.2970   23.7690   38.5460 C   0  0  0  0  0  0  0  0  0  0  0  0
   39.4080   22.9580   38.2970 C   0  0  0  0  0  0  0  0  0  0  0  0
   40.0130   22.9520   37.0620 C   0  0  0  0  0  0  0  0  0  0  0  0
   36.9760   25.1900   37.6900 H   0  0  0  0  0  0  0  0  0  0  0  0
   37.7960   23.7990   39.5030 H   0  0  0  0  0  0  0  0  0  0  0  0
   39.7730   22.3360   39.1080 H   0  0  0  0  0  0  0  0  0  0  0  0
   37.2270   27.5200   34.4760 C   0  0  0  0  0  0  0  0  0  0  0  0
   37.0040   27.0720   33.1680 C   0  0  0  0  0  0  0  0  0  0  0  0
   37.2760   25.7200   32.9160 C   0  0  0  0  0  0  0  0  0  0  0  0
   37.7330   24.9230   33.9200 N   0  0  0  0  0  0  0  0  0  0  0  0
   37.9320   25.4080   35.1680 C   0  0  0  0  0  0  0  0  0  0  0  0
   37.6800   26.6960   35.4350 N   0  0  0  0  0  0  0  0  0  0  0  0
   37.0380   28.5520   34.7410 H   0  0  0  0  0  0  0  0  0  0  0  0
   36.6380   27.7700   32.4240 H   0  0  0  0  0  0  0  0  0  0  0  0
   37.1110   25.3540   31.9150 H   0  0  0  0  0  0  0  0  0  0  0  0
   41.4250   21.9040   36.7900 S   0  0  0  0  0  0  0  0  0  0  0  0
   42.5630   22.5170   37.3450 H   0  0  0  0  0  0  0  0  0  0  0  0
  1  2  1  0  0  0  0
  2  3  2  0  0  0  0
  2  7  1  0  0  0  0
  3  4  1  0  0  0  0
  4  8  1  0  0  0  0
  4  5  2  0  0  0  0
  5  9  1  0  0  0  0
  6  5  1  0  0  0  0
  6 10  1  0  0  0  0
  7  6  2  0  0  0  0
 11 17  1  0  0  0  0
 11 16  1  0  0  0  0
 12 11  2  0  0  0  0
 13 12  1  0  0  0  0
 13 14  2  0  0  0  0
 14 15  1  0  0  0  0
 15 16  2  0  0  0  0
 15  3  1  0  0  0  0
 18 12  1  0  0  0  0
 19 13  1  0  0  0  0
 20  7  1  0  0  0  0
 20 21  1  0  0  0  0
M  END
>  <minimizedAffinity>
-4.36629295

$$$$

 OpenBabel03272501013D

 21 22  0  0  0  0  0  0  0  0999 V2000
   37.9260   24.0010   33.5760 F   0  0  0  0  0  0  0  0  0  0  0  0
   37.8560   25.2200   34.1560 C   0  0  0  0  0  0  0  0  0  0  0  0
   38.4220   25.5240   35.4050 C   0  0  0  0  0  0  0  0  0  0  0  0
   38.2910   26.7970   35.8990 C   0  0  0  0  0  0  0  0  0  0  0  0
   37.6310   27.8070   35.2410 C   0  0  0  0  0  0  0  0  0  0  0  0
   37.0680   27.4990   33.9990 C   0  0  0  0  0  0  0  0  0  0  0  0
   37.1790   26.2350   33.4700 C   0  0  0  0  0  0  0  0  0  0  0  0
   38.7360   27.0250   36.8730 H   0  0  0  0  0  0  0  0  0  0  0  0
   37.5640   28.7890   35.6880 H   0  0  0  0  0  0  0  0  0  0  0  0
   36.5450   28.2890   33.4700 H   0  0  0  0  0  0  0  0  0  0  0  0
   39.1690   23.0120   37.9440 C   0  0  0  0  0  0  0  0  0  0  0  0
   40.3790   22.4410   37.5290 C   0  0  0  0  0  0  0  0  0  0  0  0
   40.9350   22.9470   36.3450 C   0  0  0  0  0  0  0  0  0  0  0  0
   40.2970   23.9390   35.6680 N   0  0  0  0  0  0  0  0  0  0  0  0
   39.1280   24.4560   36.1140 C   0  0  0  0  0  0  0  0  0  0  0  0
   38.5750   23.9910   37.2420 N   0  0  0  0  0  0  0  0  0  0  0  0
   38.6840   22.6700   38.8480 H   0  0  0  0  0  0  0  0  0  0  0  0
   40.8240   21.6530   38.1250 H   0  0  0  0  0  0  0  0  0  0  0  0
   41.8670   22.5210   36.0080 H   0  0  0  0  0  0  0  0  0  0  0  0
   36.4480   25.8890   31.8850 S   0  0  0  0  0  0  0  0  0  0  0  0
   35.0640   25.6970   32.0520 H   0  0  0  0  0  0  0  0  0  0  0  0
  1  2  1  0  0  0  0
  2  3  1  0  0  0  0
  3  4  2  0  0  0  0
  3 15  1  0  0  0  0
  4  8  1  0  0  0  0
  5  9  1  0  0  0  0
  5  4  1  0  0  0  0
  6  5  2  0  0  0  0
  7  6  1  0  0  0  0
  7  2  2  0  0  0  0
 10  6  1  0  0  0  0
 11 17  1  0  0  0  0
 12 11  1  0  0  0  0
 12 18  1  0  0  0  0
 13 12  2  0  0  0  0
 14 15  2  0  0  0  0
 14 13  1  0  0  0  0
 15 16  1  0  0  0  0
 16 11  2  0  0  0  0
 19 13  1  0  0  0  0
 20 21  1  0  0  0  0
 20  7  1  0  0  0  0
M  END
>  <minimizedAffinity>
-4.35954666

$$$$

 OpenBabel03272501013D

 21 22  0  0  0  0  0  0  0  0999 V2000
   32.9170   29.4210   34.4630 F   0  0  0  0  0  0  0  0  0  0  0  0
   33.6580   30.2880   35.1910 C   0  0  0  0  0  0  0  0  0  0  0  0
   35.0290   30.5060   34.9850 C   0  0  0  0  0  0  0  0  0  0  0  0
   35.6830   31.4100   35.7840 C   0  0  0  0  0  0  0  0  0  0  0  0
   35.0720   32.1250   36.7860 C   0  0  0  0  0  0  0  0  0  0  0  0
   33.7060   31.9030   36.9870 C   0  0  0  0  0  0  0  0  0  0  0  0
   33.0170   31.0050   36.2070 C   0  0  0  0  0  0  0  0  0  0  0  0
   36.7520   31.5740   35.6150 H   0  0  0  0  0  0  0  0  0  0  0  0
   35.6460   32.8220   37.3800 H   0  0  0  0  0  0  0  0  0  0  0  0
   33.2130   32.4620   37.7760 H   0  0  0  0  0  0  0  0  0  0  0  0
   36.8050   27.7990   33.3010 C   0  0  0  0  0  0  0  0  0  0  0  0
   36.9570   28.2450   31.9820 C   0  0  0  0  0  0  0  0  0  0  0  0
   36.4290   29.5090   31.6860 C   0  0  0  0  0  0  0  0  0  0  0  0
   35.8100   30.2300   32.6590 N   0  0  0  0  0  0  0  0  0  0  0  0
   35.6900   29.7510   33.9200 C   0  0  0  0  0  0  0  0  0  0  0  0
   36.1850   28.5460   34.2300 N   0  0  0  0  0  0  0  0  0  0  0  0
   37.1880   26.8320   33.6000 H   0  0  0  0  0  0  0  0  0  0  0  0
   37.4630   27.6100   31.2640 H   0  0  0  0  0  0  0  0  0  0  0  0
   36.5360   29.8720   30.6750 H   0  0  0  0  0  0  0  0  0  0  0  0
   31.2790   30.7550   36.4990 S   0  0  0  0  0  0  0  0  0  0  0  0
   31.1190   29.9100   37.6120 H   0  0  0  0  0  0  0  0  0  0  0  0
  1  2  1  0  0  0  0
  2  7  1  0  0  0  0
  3  2  2  0  0  0  0
  3  4  1  0  0  0  0
  4  5  2  0  0  0  0
  5  6  1  0  0  0  0
  5  9  1  0  0  0  0
  6 10  1  0  0  0  0
  7 20  1  0  0  0  0
  7  6  2  0  0  0  0
  8  4  1  0  0  0  0
 11 17  1  0  0  0  0
 11 16  1  0  0  0  0
 12 11  2  0  0  0  0
 13 12  1  0  0  0  0
 13 14  2  0  0  0  0
 14 15  1  0  0  0  0
 15 16  2  0  0  0  0
 15  3  1  0  0  0  0
 18 12  1  0  0  0  0
 19 13  1  0  0  0  0
 20 21  1  0  0  0  0
M  END
>  <minimizedAffinity>
-4.161654

$$$$

 OpenBabel03272501013D

 21 22  0  0  0  0  0  0  0  0999 V2000
   38.0160   22.0390   30.2710 F   0  0  0  0  0  0  0  0  0  0  0  0
   36.9750   21.4470   30.9020 C   0  0  0  0  0  0  0  0  0  0  0  0
   36.0120   22.1480   31.6450 C   0  0  0  0  0  0  0  0  0  0  0  0
   34.9970   21.4440   32.2430 C   0  0  0  0  0  0  0  0  0  0  0  0
   34.8620   20.0790   32.1600 C   0  0  0  0  0  0  0  0  0  0  0  0
   35.8250   19.3860   31.4200 C   0  0  0  0  0  0  0  0  0  0  0  0
   36.8570   20.0560   30.8050 C   0  0  0  0  0  0  0  0  0  0  0  0
   34.2500   21.9990   32.8200 H   0  0  0  0  0  0  0  0  0  0  0  0
   34.0380   19.5860   32.6560 H   0  0  0  0  0  0  0  0  0  0  0  0
   35.7280   18.3080   31.3470 H   0  0  0  0  0  0  0  0  0  0  0  0
   35.3680   25.6910   31.0560 C   0  0  0  0  0  0  0  0  0  0  0  0
   36.3120   26.3570   31.8470 C   0  0  0  0  0  0  0  0  0  0  0  0
   37.1820   25.5490   32.5930 C   0  0  0  0  0  0  0  0  0  0  0  0
   37.0780   24.1950   32.5210 N   0  0  0  0  0  0  0  0  0  0  0  0
   36.1450   23.6020   31.7400 C   0  0  0  0  0  0  0  0  0  0  0  0
   35.3020   24.3500   31.0170 N   0  0  0  0  0  0  0  0  0  0  0  0
   34.6650   26.2510   30.4550 H   0  0  0  0  0  0  0  0  0  0  0  0
   36.3310   27.4400   31.8500 H   0  0  0  0  0  0  0  0  0  0  0  0
   37.9180   26.0420   33.2100 H   0  0  0  0  0  0  0  0  0  0  0  0
   38.0580   19.1330   29.8730 S   0  0  0  0  0  0  0  0  0  0  0  0
   38.9730   18.5420   30.7630 H   0  0  0  0  0  0  0  0  0  0  0  0
  1  2  1  0  0  0  0
  2  3  1  0  0  0  0
  3 15  1  0  0  0  0
  3  4  2  0  0  0  0
  4  8  1  0  0  0  0
  5  4  1  0  0  0  0
  5  9  1  0  0  0  0
  6  5  2  0  0  0  0
  7  2  2  0  0  0  0
  7  6  1  0  0  0  0
 10  6  1  0  0  0  0
 11 12  1  0  0  0  0
 12 18  1  0  0  0  0
 12 13  2  0  0  0  0
 13 19  1  0  0  0  0
 14 13  1  0  0  0  0
 15 14  2  0  0  0  0
 16 11  2  0  0  0  0
 16 15  1  0  0  0  0
 17 11  1  0  0  0  0
 20 21  1  0  0  0  0
 20  7  1  0  0  0  0
M  END
>  <minimizedAffinity>
-4.0687356

$$$$

 OpenBabel03272501013D

 21 22  0  0  0  0  0  0  0  0999 V2000
   38.5580   23.8630   33.3870 F   0  0  0  0  0  0  0  0  0  0  0  0
   37.6440   22.8700   33.4720 C   0  0  0  0  0  0  0  0  0  0  0  0
   37.4320   22.1020   34.6270 C   0  0  0  0  0  0  0  0  0  0  0  0
   36.4750   21.1180   34.6010 C   0  0  0  0  0  0  0  0  0  0  0  0
   35.7020   20.8330   33.5010 C   0  0  0  0  0  0  0  0  0  0  0  0
   35.9190   21.6010   32.3530 C   0  0  0  0  0  0  0  0  0  0  0  0
   36.8680   22.5960   32.3400 C   0  0  0  0  0  0  0  0  0  0  0  0
   36.3160   20.5240   35.5070 H   0  0  0  0  0  0  0  0  0  0  0  0
   34.9660   20.0430   33.5480 H   0  0  0  0  0  0  0  0  0  0  0  0
   35.3140   21.3850   31.4780 H   0  0  0  0  0  0  0  0  0  0  0  0
   40.3240   22.2060   36.8490 C   0  0  0  0  0  0  0  0  0  0  0  0
   39.8750   22.9010   37.9800 C   0  0  0  0  0  0  0  0  0  0  0  0
   38.5410   23.3350   37.9570 C   0  0  0  0  0  0  0  0  0  0  0  0
   37.7630   23.0720   36.8720 N   0  0  0  0  0  0  0  0  0  0  0  0
   38.2480   22.3960   35.8050 C   0  0  0  0  0  0  0  0  0  0  0  0
   39.5180   21.9710   35.8010 N   0  0  0  0  0  0  0  0  0  0  0  0
   41.3420   21.8430   36.7990 H   0  0  0  0  0  0  0  0  0  0  0  0
   40.5580   23.0690   38.8030 H   0  0  0  0  0  0  0  0  0  0  0  0
   38.1750   23.8710   38.8170 H   0  0  0  0  0  0  0  0  0  0  0  0
   37.1080   23.5480   30.8560 S   0  0  0  0  0  0  0  0  0  0  0  0
   37.8820   22.7980   29.9520 H   0  0  0  0  0  0  0  0  0  0  0  0
  1  2  1  0  0  0  0
  2  3  1  0  0  0  0
  3 15  1  0  0  0  0
  4  3  2  0  0  0  0
  4  8  1  0  0  0  0
  5  9  1  0  0  0  0
  5  4  1  0  0  0  0
  6  5  2  0  0  0  0
  7  6  1  0  0  0  0
  7  2  2  0  0  0  0
 10  6  1  0  0  0  0
 11 12  1  0  0  0  0
 12 18  1  0  0  0  0
 13 12  2  0  0  0  0
 13 19  1  0  0  0  0
 14 13  1  0  0  0  0
 15 14  2  0  0  0  0
 16 15  1  0  0  0  0
 16 11  2  0  0  0  0
 17 11  1  0  0  0  0
 20  7  1  0  0  0  0
 21 20  1  0  0  0  0
M  END
>  <minimizedAffinity>
-4.0450058

$$$$

 OpenBabel03272501013D

 21 22  0  0  0  0  0  0  0  0999 V2000
   36.2010   27.8610   34.9280 F   0  0  0  0  0  0  0  0  0  0  0  0
   36.1670   28.4780   33.7240 C   0  0  0  0  0  0  0  0  0  0  0  0
   35.6370   29.7620   33.5210 C   0  0  0  0  0  0  0  0  0  0  0  0
   35.6540   30.2920   32.2540 C   0  0  0  0  0  0  0  0  0  0  0  0
   36.1630   29.6360   31.1590 C   0  0  0  0  0  0  0  0  0  0  0  0
   36.6880   28.3560   31.3680 C   0  0  0  0  0  0  0  0  0  0  0  0
   36.6890   27.7920   32.6220 C   0  0  0  0  0  0  0  0  0  0  0  0
   35.2400   31.2940   32.1050 H   0  0  0  0  0  0  0  0  0  0  0  0
   36.1450   30.1100   30.1880 H   0  0  0  0  0  0  0  0  0  0  0  0
   37.0920   27.8290   30.5100 H   0  0  0  0  0  0  0  0  0  0  0  0
   33.2280   30.9250   36.0020 C   0  0  0  0  0  0  0  0  0  0  0  0
   33.9680   31.7640   36.8450 C   0  0  0  0  0  0  0  0  0  0  0  0
   35.3270   31.9190   36.5350 C   0  0  0  0  0  0  0  0  0  0  0  0
   35.8550   31.2700   35.4620 N   0  0  0  0  0  0  0  0  0  0  0  0
   35.0940   30.4710   34.6790 C   0  0  0  0  0  0  0  0  0  0  0  0
   33.7930   30.3050   34.9530 N   0  0  0  0  0  0  0  0  0  0  0  0
   32.1740   30.7600   36.1820 H   0  0  0  0  0  0  0  0  0  0  0  0
   33.4730   32.2450   37.6800 H   0  0  0  0  0  0  0  0  0  0  0  0
   35.9160   32.5610   37.1720 H   0  0  0  0  0  0  0  0  0  0  0  0
   37.3680   26.1620   32.8410 S   0  0  0  0  0  0  0  0  0  0  0  0
   36.4220   25.2120   32.4140 H   0  0  0  0  0  0  0  0  0  0  0  0
  2  1  1  0  0  0  0
  3  2  1  0  0  0  0
  3 15  1  0  0  0  0
  4  3  2  0  0  0  0
  5  6  2  0  0  0  0
  5  4  1  0  0  0  0
  6  7  1  0  0  0  0
  7 20  1  0  0  0  0
  7  2  2  0  0  0  0
  8  4  1  0  0  0  0
  9  5  1  0  0  0  0
 10  6  1  0  0  0  0
 11 17  1  0  0  0  0
 11 12  1  0  0  0  0
 12 18  1  0  0  0  0
 13 12  2  0  0  0  0
 13 19  1  0  0  0  0
 14 13  1  0  0  0  0
 15 16  1  0  0  0  0
 15 14  2  0  0  0  0
 16 11  2  0  0  0  0
 21 20  1  0  0  0  0
M  END
>  <minimizedAffinity>
-4.02699327

$$$$

 OpenBabel03272501013D

 21 22  0  0  0  0  0  0  0  0999 V2000
   35.5250   30.3540   32.0020 F   0  0  0  0  0  0  0  0  0  0  0  0
   36.1040   29.2940   32.6110 C   0  0  0  0  0  0  0  0  0  0  0  0
   36.0280   29.0500   33.9910 C   0  0  0  0  0  0  0  0  0  0  0  0
   36.6540   27.9400   34.5020 C   0  0  0  0  0  0  0  0  0  0  0  0
   37.3590   27.0420   33.7390 C   0  0  0  0  0  0  0  0  0  0  0  0
   37.4320   27.2900   32.3640 C   0  0  0  0  0  0  0  0  0  0  0  0
   36.8180   28.3910   31.8150 C   0  0  0  0  0  0  0  0  0  0  0  0
   36.5890   27.7580   35.5800 H   0  0  0  0  0  0  0  0  0  0  0  0
   37.8290   26.1870   34.2050 H   0  0  0  0  0  0  0  0  0  0  0  0
   37.9860   26.5870   31.7510 H   0  0  0  0  0  0  0  0  0  0  0  0
   35.3580   31.7830   36.3130 C   0  0  0  0  0  0  0  0  0  0  0  0
   33.9610   31.8350   36.4020 C   0  0  0  0  0  0  0  0  0  0  0  0
   33.2520   30.8990   35.6370 C   0  0  0  0  0  0  0  0  0  0  0  0
   33.9270   30.0060   34.8640 N   0  0  0  0  0  0  0  0  0  0  0  0
   35.2790   29.9990   34.8140 C   0  0  0  0  0  0  0  0  0  0  0  0
   35.9810   30.8830   35.5350 N   0  0  0  0  0  0  0  0  0  0  0  0
   35.9690   32.4770   36.8760 H   0  0  0  0  0  0  0  0  0  0  0  0
   33.4990   32.5780   37.0420 H   0  0  0  0  0  0  0  0  0  0  0  0
   32.1750   30.9210   35.6910 H   0  0  0  0  0  0  0  0  0  0  0  0
   36.9370   28.6670   30.0610 S   0  0  0  0  0  0  0  0  0  0  0  0
   38.1950   29.2240   29.7700 H   0  0  0  0  0  0  0  0  0  0  0  0
  1  2  1  0  0  0  0
  2  3  1  0  0  0  0
  3  4  2  0  0  0  0
  3 15  1  0  0  0  0
  4  8  1  0  0  0  0
  5  9  1  0  0  0  0
  5  4  1  0  0  0  0
  6  5  2  0  0  0  0
  7  6  1  0  0  0  0
  7  2  2  0  0  0  0
 10  6  1  0  0  0  0
 11 12  1  0  0  0  0
 11 17  1  0  0  0  0
 12 18  1  0  0  0  0
 13 19  1  0  0  0  0
 13 12  2  0  0  0  0
 14 13  1  0  0  0  0
 15 14  2  0  0  0  0
 15 16  1  0  0  0  0
 16 11  2  0  0  0  0
 20  7  1  0  0  0  0
 21 20  1  0  0  0  0
M  END
>  <minimizedAffinity>
-3.97893095

$$$$

 OpenBabel03272501013D

 21 22  0  0  0  0  0  0  0  0999 V2000
   38.0600   23.4600   33.0640 F   0  0  0  0  0  0  0  0  0  0  0  0
   37.1520   24.2160   32.4060 C   0  0  0  0  0  0  0  0  0  0  0  0
   36.0910   23.6850   31.6560 C   0  0  0  0  0  0  0  0  0  0  0  0
   35.2270   24.5480   31.0290 C   0  0  0  0  0  0  0  0  0  0  0  0
   35.3360   25.9160   31.0890 C   0  0  0  0  0  0  0  0  0  0  0  0
   36.3950   26.4400   31.8370 C   0  0  0  0  0  0  0  0  0  0  0  0
   37.2820   25.6080   32.4800 C   0  0  0  0  0  0  0  0  0  0  0  0
   34.4020   24.1240   30.4470 H   0  0  0  0  0  0  0  0  0  0  0  0
   34.6210   26.5380   30.5710 H   0  0  0  0  0  0  0  0  0  0  0  0
   36.4910   27.5190   31.8920 H   0  0  0  0  0  0  0  0  0  0  0  0
   34.8210   20.3240   32.2900 C   0  0  0  0  0  0  0  0  0  0  0  0
   35.6400   19.4870   31.5220 C   0  0  0  0  0  0  0  0  0  0  0  0
   36.6480   20.1140   30.7750 C   0  0  0  0  0  0  0  0  0  0  0  0
   36.7850   21.4670   30.8250 N   0  0  0  0  0  0  0  0  0  0  0  0
   35.9640   22.2290   31.5850 C   0  0  0  0  0  0  0  0  0  0  0  0
   34.9940   21.6560   32.3080 N   0  0  0  0  0  0  0  0  0  0  0  0
   34.0230   19.9070   32.8900 H   0  0  0  0  0  0  0  0  0  0  0  0
   35.4660   18.4180   31.5360 H   0  0  0  0  0  0  0  0  0  0  0  0
   37.2910   19.4880   30.1770 H   0  0  0  0  0  0  0  0  0  0  0  0
   38.6140   26.3190   33.4210 S   0  0  0  0  0  0  0  0  0  0  0  0
   39.6330   26.7220   32.5390 H   0  0  0  0  0  0  0  0  0  0  0  0
  2  7  1  0  0  0  0
  2  1  1  0  0  0  0
  3  2  2  0  0  0  0
  4  5  2  0  0  0  0
  4  3  1  0  0  0  0
  5  6  1  0  0  0  0
  6 10  1  0  0  0  0
  6  7  2  0  0  0  0
  7 20  1  0  0  0  0
  8  4  1  0  0  0  0
  9  5  1  0  0  0  0
 11 16  1  0  0  0  0
 11 17  1  0  0  0  0
 12 18  1  0  0  0  0
 12 11  2  0  0  0  0
 13 14  2  0  0  0  0
 13 12  1  0  0  0  0
 14 15  1  0  0  0  0
 15  3  1  0  0  0  0
 15 16  2  0  0  0  0
 19 13  1  0  0  0  0
 21 20  1  0  0  0  0
M  END
>  <minimizedAffinity>
-3.9716239

$$$$

 OpenBabel03272501013D

 21 22  0  0  0  0  0  0  0  0999 V2000
   37.5560   24.6960   32.9070 F   0  0  0  0  0  0  0  0  0  0  0  0
   37.8150   25.4390   34.0070 C   0  0  0  0  0  0  0  0  0  0  0  0
   37.7860   26.8420   34.0250 C   0  0  0  0  0  0  0  0  0  0  0  0
   38.0660   27.4950   35.2000 C   0  0  0  0  0  0  0  0  0  0  0  0
   38.3780   26.8530   36.3740 C   0  0  0  0  0  0  0  0  0  0  0  0
   38.4070   25.4560   36.3500 C   0  0  0  0  0  0  0  0  0  0  0  0
   38.1320   24.7660   35.1930 C   0  0  0  0  0  0  0  0  0  0  0  0
   38.0400   28.5900   35.2050 H   0  0  0  0  0  0  0  0  0  0  0  0
   38.5890   27.4280   37.2650 H   0  0  0  0  0  0  0  0  0  0  0  0
   38.6520   24.9380   37.2720 H   0  0  0  0  0  0  0  0  0  0  0  0
   35.8520   28.7050   31.5550 C   0  0  0  0  0  0  0  0  0  0  0  0
   36.7260   28.8670   30.4730 C   0  0  0  0  0  0  0  0  0  0  0  0
   38.0070   28.3150   30.6170 C   0  0  0  0  0  0  0  0  0  0  0  0
   38.3380   27.6650   31.7650 N   0  0  0  0  0  0  0  0  0  0  0  0
   37.4540   27.5370   32.7810 C   0  0  0  0  0  0  0  0  0  0  0  0
   36.2240   28.0550   32.6700 N   0  0  0  0  0  0  0  0  0  0  0  0
   34.8480   29.1060   31.5120 H   0  0  0  0  0  0  0  0  0  0  0  0
   36.3850   29.3980   29.5920 H   0  0  0  0  0  0  0  0  0  0  0  0
   38.6960   28.4280   29.7950 H   0  0  0  0  0  0  0  0  0  0  0  0
   38.1800   22.9870   35.2090 S   0  0  0  0  0  0  0  0  0  0  0  0
   39.5200   22.5650   35.1410 H   0  0  0  0  0  0  0  0  0  0  0  0
  1  2  1  0  0  0  0
  2  3  2  0  0  0  0
  2  7  1  0  0  0  0
  3  4  1  0  0  0  0
  4  8  1  0  0  0  0
  4  5  2  0  0  0  0
  5  9  1  0  0  0  0
  6  5  1  0  0  0  0
  6 10  1  0  0  0  0
  7 20  1  0  0  0  0
  7  6  2  0  0  0  0
 11 16  1  0  0  0  0
 12 13  1  0  0  0  0
 12 11  2  0  0  0  0
 13 14  2  0  0  0  0
 14 15  1  0  0  0  0
 15  3  1  0  0  0  0
 16 15  2  0  0  0  0
 17 11  1  0  0  0  0
 18 12  1  0  0  0  0
 19 13  1  0  0  0  0
 21 20  1  0  0  0  0
M  END
>  <minimizedAffinity>
-3.96790957

$$$$
