
 OpenBabel03272509003D

 21 22  0  0  0  0  0  0  0  0999 V2000
   38.5060   30.8340   49.7880 Cl  0  0  0  0  0  0  0  0  0  0  0  0
   37.1430   30.3940   48.8260 C   0  0  0  0  0  0  0  0  0  0  0  0
   37.1390   30.6570   47.4720 C   0  0  0  0  0  0  0  0  0  0  0  0
   36.0820   30.3280   46.6620 C   0  0  0  0  0  0  0  0  0  0  0  0
   34.9650   29.7080   47.2000 C   0  0  0  0  0  0  0  0  0  0  0  0
   34.9210   29.4240   48.5480 C   0  0  0  0  0  0  0  0  0  0  0  0
   33.5730   28.6440   49.3610 Cl  0  0  0  0  0  0  0  0  0  0  0  0
   36.0080   29.7750   49.3120 C   0  0  0  0  0  0  0  0  0  0  0  0
   36.0560   30.5240   45.6020 H   0  0  0  0  0  0  0  0  0  0  0  0
   34.0910   29.4180   46.6230 H   0  0  0  0  0  0  0  0  0  0  0  0
   39.6500   33.1780   46.5630 C   0  0  0  0  0  0  0  0  0  0  0  0
   40.5170   32.4840   45.7190 C   0  0  0  0  0  0  0  0  0  0  0  0
   40.2120   31.1260   45.4750 C   0  0  0  0  0  0  0  0  0  0  0  0
   39.1220   30.5870   46.0580 N   0  0  0  0  0  0  0  0  0  0  0  0
   38.2970   31.3070   46.8790 C   0  0  0  0  0  0  0  0  0  0  0  0
   38.5780   32.6080   47.1220 N   0  0  0  0  0  0  0  0  0  0  0  0
   39.9190   34.2290   46.7290 H   0  0  0  0  0  0  0  0  0  0  0  0
   41.3880   32.8380   45.2280 H   0  0  0  0  0  0  0  0  0  0  0  0
   40.7890   30.4530   44.8440 H   0  0  0  0  0  0  0  0  0  0  0  0
   36.0280   29.4360   51.0890 S   0  0  0  0  0  0  0  0  0  0  0  0
   35.8970   28.0240   51.2400 H   0  0  0  0  0  0  0  0  0  0  0  0
  2  8  1  0  0  0  0
  2  1  1  0  0  0  0
  3  2  2  0  0  0  0
  4  5  2  0  0  0  0
  4  3  1  0  0  0  0
  5  6  1  0  0  0  0
  6  8  2  0  0  0  0
  6  7  1  0  0  0  0
  8 20  1  0  0  0  0
  9  4  1  0  0  0  0
 10  5  1  0  0  0  0
 11 17  1  0  0  0  0
 11 16  1  0  0  0  0
 12 11  2  0  0  0  0
 13 12  1  0  0  0  0
 13 14  2  0  0  0  0
 14 15  1  0  0  0  0
 15 16  2  0  0  0  0
 15  3  1  0  0  0  0
 18 12  1  0  0  0  0
 19 13  1  0  0  0  0
 20 21  1  0  0  0  0
M  END
>  <minimizedAffinity>
-4.99408913

>  <minimizedRMSD>
2.27508307

$$$$
