
 OpenBabel03272501083D

 33 35  0  0  1  0  0  0  0  0999 V2000
   38.9910   32.4550   47.6610 C   0  0  2  0  0  0  0  0  0  0  0  0
   37.9840   32.6490   48.8340 C   0  0  2  0  0  0  0  0  0  0  0  0
   38.8040   33.3740   49.7930 C   0  0  0  0  0  0  0  0  0  0  0  0
   39.6240   34.2400   49.0740 O   0  0  0  0  0  0  0  0  0  0  0  0
   39.6160   33.8690   47.7760 C   0  0  0  0  0  0  0  0  0  0  0  0
   39.7410   31.7020   47.8890 H   0  0  0  0  0  0  0  0  0  0  0  0
   37.1910   33.2910   48.3860 H   0  0  0  0  0  0  0  0  0  0  0  0
   38.1550   34.0360   50.4390 H   0  0  0  0  0  0  0  0  0  0  0  0
   39.3960   32.7750   50.4950 H   0  0  0  0  0  0  0  0  0  0  0  0
   40.6930   33.7100   47.4760 H   0  0  0  0  0  0  0  0  0  0  0  0
   39.1900   34.5550   47.0450 H   0  0  0  0  0  0  0  0  0  0  0  0
   37.3460   29.3850   50.6020 C   0  0  0  0  0  0  0  0  0  0  0  0
   37.9900   30.6050   50.2530 C   0  0  0  0  0  0  0  0  0  0  0  0
   37.3810   31.4010   49.2460 C   0  0  0  0  0  0  0  0  0  0  0  0
   36.2120   30.9660   48.6590 N   0  0  0  0  0  0  0  0  0  0  0  0
   35.6480   29.8110   49.0220 C   0  0  0  0  0  0  0  0  0  0  0  0
   36.1920   29.0180   49.9790 N   0  0  0  0  0  0  0  0  0  0  0  0
   37.8050   28.7770   51.3650 H   0  0  0  0  0  0  0  0  0  0  0  0
   38.9020   30.8870   50.7490 H   0  0  0  0  0  0  0  0  0  0  0  0
   34.7380   29.5590   48.5060 H   0  0  0  0  0  0  0  0  0  0  0  0
   38.3620   32.3440   46.4650 O   0  0  0  0  0  0  0  0  0  0  0  0
   40.9310   31.9050   44.8180 Cl  0  0  0  0  0  0  0  0  0  0  0  0
   39.3780   31.1360   44.5190 C   0  0  0  0  0  0  0  0  0  0  0  0
   38.3830   31.5090   45.4130 C   0  0  0  0  0  0  0  0  0  0  0  0
   37.1620   30.9020   45.1800 C   0  0  0  0  0  0  0  0  0  0  0  0
   36.9590   30.0070   44.1480 C   0  0  0  0  0  0  0  0  0  0  0  0
   37.9980   29.6900   43.3030 C   0  0  0  0  0  0  0  0  0  0  0  0
   39.2420   30.2560   43.4760 C   0  0  0  0  0  0  0  0  0  0  0  0
   36.2720   31.0650   45.7670 H   0  0  0  0  0  0  0  0  0  0  0  0
   36.0110   29.5220   43.9480 H   0  0  0  0  0  0  0  0  0  0  0  0
   37.8900   28.9950   42.4810 H   0  0  0  0  0  0  0  0  0  0  0  0
   40.6730   29.9340   42.4570 S   0  0  0  0  0  0  0  0  0  0  0  0
   41.2740   31.1680   42.0690 H   0  0  0  0  0  0  0  0  0  0  0  0
  1  5  1  0  0  0  0
  1  6  1  1  0  0  0
  1  2  1  0  0  0  0
  2  7  1  6  0  0  0
  2 14  1  0  0  0  0
  2  3  1  0  0  0  0
  3  8  1  0  0  0  0
  3  9  1  0  0  0  0
  4  3  1  0  0  0  0
  5  4  1  0  0  0  0
 10  5  1  0  0  0  0
 11  5  1  0  0  0  0
 12 18  1  0  0  0  0
 13 12  1  0  0  0  0
 13 19  1  0  0  0  0
 14 13  2  0  0  0  0
 15 16  2  0  0  0  0
 15 14  1  0  0  0  0
 16 17  1  0  0  0  0
 17 12  2  0  0  0  0
 20 16  1  0  0  0  0
 21  1  1  0  0  0  0
 23 22  1  0  0  0  0
 23 24  1  0  0  0  0
 24 21  1  0  0  0  0
 25 24  2  0  0  0  0
 25 29  1  0  0  0  0
 26 25  1  0  0  0  0
 27 28  1  0  0  0  0
 27 26  2  0  0  0  0
 28 23  2  0  0  0  0
 30 26  1  0  0  0  0
 31 27  1  0  0  0  0
 32 28  1  0  0  0  0
 33 32  1  0  0  0  0
M  END
>  <minimizedAffinity>
-5.68044186

>  <minimizedRMSD>
0.493942589

$$$$
