REMARK  Name = 
REMARK  6 active torsions:
REMARK  status: ('A' for Active; 'I' for Inactive)
REMARK    1  A    between atoms: C_1  and  O_6
REMARK    2  A    between atoms: C_2  and  S_7
REMARK    3  A    between atoms: C_5  and  O_14
REMARK    4  A    between atoms: S_7  and  C_12
REMARK    5  A    between atoms: O_14  and  C_17
REMARK    6  A    between atoms: C_21  and  S_34
REMARK                            x       y       z     vdW  Elec       q    Type
REMARK                         _______ _______ _______ _____ _____    ______ ____
ROOT
ATOM      1  C   UNL     1      32.166  28.524  47.427  0.00  0.00    +0.000 C 
ATOM      2  C   UNL     1      33.409  28.362  48.251  0.00  0.00    +0.000 C 
ATOM      3  O   UNL     1      33.805  27.061  48.166  0.00  0.00    +0.000 OA
ATOM      4  C   UNL     1      33.114  26.441  47.130  0.00  0.00    +0.000 C 
ATOM      5  C   UNL     1      32.508  27.524  46.277  0.00  0.00    +0.000 C 
ATOM      6  H   UNL     1      31.240  28.195  47.898  0.00  0.00    +0.000 HD
ATOM      7  H   UNL     1      33.268  28.729  49.287  0.00  0.00    +0.000 HD
ATOM      8  H   UNL     1      33.920  25.965  46.486  0.00  0.00    +0.000 HD
ATOM      9  H   UNL     1      32.449  25.674  47.490  0.00  0.00    +0.000 HD
ATOM     10  H   UNL     1      33.228  28.035  45.642  0.00  0.00    +0.000 HD
ENDROOT
BRANCH   1  11
ATOM     11  O   UNL     1      32.095  29.825  46.886  0.00  0.00    +0.000 OA
ATOM     12  H   UNL     1      32.002  30.427  47.643  0.00  0.00    +0.000 HD
ENDBRANCH   1  11
BRANCH   2  13
ATOM     13  S   UNL     1      34.716  29.410  47.501  0.00  0.00    +0.000 S 
BRANCH  13  18
ATOM     14  C   UNL     1      37.129  29.293  50.629  0.00  0.00    +0.000 A 
ATOM     15  C   UNL     1      37.640  30.589  50.762  0.00  0.00    +0.000 A 
ATOM     16  C   UNL     1      37.204  31.541  49.824  0.00  0.00    +0.000 A 
ATOM     17  N   UNL     1      36.329  31.159  48.859  0.00  0.00    +0.000 NA
ATOM     18  C   UNL     1      35.869  29.891  48.780  0.00  0.00    +0.000 A 
ATOM     19  N   UNL     1      36.264  28.940  49.665  0.00  0.00    +0.000 NA
ATOM     20  H   UNL     1      37.440  28.528  51.331  0.00  0.00    +0.000 HD
ATOM     21  H   UNL     1      38.335  30.784  51.572  0.00  0.00    +0.000 HD
ATOM     22  H   UNL     1      37.584  32.528  49.915  0.00  0.00    +0.000 HD
ENDBRANCH  13  18
ENDBRANCH   2  13
BRANCH   5  23
ATOM     23  O   UNL     1      31.365  27.040  45.688  0.00  0.00    +0.000 OA
BRANCH  23  26
ATOM     24 CL   UNL     1      29.885  29.114  44.212  0.00  0.00    +0.000 Cl
ATOM     25  C   UNL     1      29.337  28.123  45.543  0.00  0.00    +0.000 A 
ATOM     26  C   UNL     1      30.125  27.172  46.152  0.00  0.00    +0.000 A 
ATOM     27  C   UNL     1      29.566  26.425  47.194  0.00  0.00    +0.000 A 
ATOM     28  C   UNL     1      28.267  26.642  47.592  0.00  0.00    +0.000 A 
ATOM     29  C   UNL     1      27.465  27.596  46.988  0.00  0.00    +0.000 A 
ATOM     30  C   UNL     1      28.015  28.335  45.957  0.00  0.00    +0.000 A 
ATOM     31  H   UNL     1      30.121  25.663  47.714  0.00  0.00    +0.000 HD
ATOM     32  H   UNL     1      27.846  26.068  48.390  0.00  0.00    +0.000 HD
ATOM     33  H   UNL     1      26.445  27.760  47.306  0.00  0.00    +0.000 HD
BRANCH  30  34
ATOM     34  S   UNL     1      26.990  29.549  45.190  0.00  0.00    +0.000 S 
ATOM     35  H   UNL     1      27.756  30.220  44.196  0.00  0.00    +0.000 HD
ENDBRANCH  30  34
ENDBRANCH  23  26
ENDBRANCH   5  23
TORSDOF 6
