
     RDKit          3D

 35 37  0  0  0  0  0  0  0  0999 V2000
   32.1662   28.5241   47.4267 C   0  0  2  0  0  0  0  0  0  0  0  0
   33.4089   28.3623   48.2514 C   0  0  1  0  0  0  0  0  0  0  0  0
   33.8053   27.0611   48.1656 O   0  0  0  0  0  0  0  0  0  0  0  0
   33.1138   26.4407   47.1298 C   0  0  0  0  0  0  0  0  0  0  0  0
   32.5076   27.5236   46.2767 C   0  0  1  0  0  0  0  0  0  0  0  0
   32.0950   29.8253   46.8860 O   0  0  0  0  0  0  0  0  0  0  0  0
   34.7161   29.4105   47.5006 S   0  0  0  0  0  0  0  0  0  0  0  0
   37.1293   29.2931   50.6285 C   0  0  0  0  0  0  0  0  0  0  0  0
   37.6399   30.5887   50.7619 C   0  0  0  0  0  0  0  0  0  0  0  0
   37.2040   31.5407   49.8244 C   0  0  0  0  0  0  0  0  0  0  0  0
   36.3288   31.1592   48.8595 N   0  0  0  0  0  0  0  0  0  0  0  0
   35.8692   29.8911   48.7801 C   0  0  0  0  0  0  0  0  0  0  0  0
   36.2643   28.9403   49.6650 N   0  0  0  0  0  0  0  0  0  0  0  0
   31.3646   27.0403   45.6881 O   0  0  0  0  0  0  0  0  0  0  0  0
   29.8847   29.1136   44.2115 Cl  0  0  0  0  0  0  0  0  0  0  0  0
   29.3375   28.1228   45.5426 C   0  0  0  0  0  0  0  0  0  0  0  0
   30.1248   27.1715   46.1520 C   0  0  0  0  0  0  0  0  0  0  0  0
   29.5661   26.4255   47.1937 C   0  0  0  0  0  0  0  0  0  0  0  0
   28.2665   26.6423   47.5923 C   0  0  0  0  0  0  0  0  0  0  0  0
   27.4649   27.5959   46.9876 C   0  0  0  0  0  0  0  0  0  0  0  0
   28.0145   28.3354   45.9570 C   0  0  0  0  0  0  0  0  0  0  0  0
   31.2404   28.1945   47.8978 H   0  0  0  0  0  0  0  0  0  0  0  0
   33.2678   28.7293   49.2873 H   0  0  0  0  0  0  0  0  0  0  0  0
   33.9196   25.9646   46.4859 H   0  0  0  0  0  0  0  0  0  0  0  0
   32.4485   25.6739   47.4900 H   0  0  0  0  0  0  0  0  0  0  0  0
   33.2285   28.0353   45.6425 H   0  0  0  0  0  0  0  0  0  0  0  0
   32.0017   30.4270   47.6427 H   0  0  0  0  0  0  0  0  0  0  0  0
   37.4397   28.5282   51.3310 H   0  0  0  0  0  0  0  0  0  0  0  0
   38.3353   30.7835   51.5719 H   0  0  0  0  0  0  0  0  0  0  0  0
   37.5845   32.5282   49.9150 H   0  0  0  0  0  0  0  0  0  0  0  0
   30.1212   25.6627   47.7138 H   0  0  0  0  0  0  0  0  0  0  0  0
   27.8462   26.0678   48.3901 H   0  0  0  0  0  0  0  0  0  0  0  0
   26.4453   27.7604   47.3059 H   0  0  0  0  0  0  0  0  0  0  0  0
   26.9899   29.5486   45.1904 S   0  0  0  0  0  0  0  0  0  0  0  0
   26.0844   28.8838   44.3162 H   0  0  0  0  0  0  0  0  0  0  0  0
  1  2  1  0
  3  2  1  0
  4  3  1  0
  5  4  1  0
  5  1  1  0
  6  1  1  0
  7  2  1  0
  7 12  1  0
  8  9  2  0
 10  9  1  0
 11 10  2  0
 12 11  1  0
 12 13  2  0
 13  8  1  0
 14 17  1  0
 14  5  1  0
 15 16  1  0
 16 21  2  0
 16 17  1  0
 17 18  2  0
 18 19  1  0
 20 19  2  0
 21 20  1  0
  1 22  1  1
  2 23  1  1
  4 24  1  0
  4 25  1  0
  5 26  1  6
  6 27  1  0
  8 28  1  0
  9 29  1  0
 10 30  1  0
 18 31  1  0
 19 32  1  0
 20 33  1  0
 34 35  1  0
 21 34  1  0
M  ISO  8  22  13  23  13  24  13  25  13  26  13  27   3  28  14  29  14
M  ISO  5  30  14  31  14  32  14  33  14  35  11
M  END
>  <DihAtoms>  (1) 
15,20,33,34

>  <DihDeg>  (1) 
-61.94309575644461

$$$$
