REMARK  Name = 
REMARK  5 active torsions:
REMARK  status: ('A' for Active; 'I' for Inactive)
REMARK    1  A    between atoms: C_3  and  C_12
REMARK    2  A    between atoms: C_7  and  C_15
REMARK    3  A    between atoms: C_10  and  N_14
REMARK    4  A    between atoms: C_15  and  C_16
REMARK    5  A    between atoms: C_16  and  S_28
REMARK                            x       y       z     vdW  Elec       q    Type
REMARK                         _______ _______ _______ _____ _____    ______ ____
ROOT
ATOM      1 CL   UNL     1      38.576  31.152  49.149  0.00  0.00    +0.000 Cl
ATOM      2  C   UNL     1      37.215  30.661  48.154  0.00  0.00    +0.000 A 
ATOM      3  C   UNL     1      37.293  30.809  46.796  0.00  0.00    +0.000 A 
ATOM      4  C   UNL     1      36.245  30.431  46.020  0.00  0.00    +0.000 A 
ATOM      5  C   UNL     1      35.124  29.908  46.602  0.00  0.00    +0.000 A 
ATOM      6  C   UNL     1      35.056  29.764  47.971  0.00  0.00    +0.000 A 
ATOM      7  C   UNL     1      36.112  30.141  48.792  0.00  0.00    +0.000 A 
ATOM      8  H   UNL     1      36.269  30.532  44.947  0.00  0.00    +0.000 HD
ATOM      9  H   UNL     1      34.283  29.604  45.988  0.00  0.00    +0.000 HD
ATOM     10  H   UNL     1      34.173  29.348  48.464  0.00  0.00    +0.000 HD
ENDROOT
BRANCH   3  15
ATOM     11  C   UNL     1      40.056  33.074  45.873  0.00  0.00    +0.000 A 
ATOM     12  C   UNL     1      40.762  32.278  44.933  0.00  0.00    +0.000 A 
ATOM     13  C   UNL     1      40.265  31.002  44.654  0.00  0.00    +0.000 A 
ATOM     14  N   UNL     1      39.142  30.588  45.289  0.00  0.00    +0.000 NA
ATOM     15  C   UNL     1      38.492  31.367  46.179  0.00  0.00    +0.000 A 
ATOM     16  N   UNL     1      38.952  32.595  46.459  0.00  0.00    +0.000 NA
ATOM     17  H   UNL     1      40.399  34.069  46.123  0.00  0.00    +0.000 HD
ATOM     18  H   UNL     1      41.652  32.729  44.492  0.00  0.00    +0.000 HD
BRANCH  13  19
ATOM     19  N   UNL     1      40.986  30.237  43.720  0.00  0.00    +0.000 N 
ATOM     20  H   UNL     1      40.820  30.370  42.695  0.00  0.00    +0.000 HD
ATOM     21  H   UNL     1      41.678  29.548  44.123  0.00  0.00    +0.000 HD
ENDBRANCH  13  19
ENDBRANCH   3  15
BRANCH   7  22
ATOM     22  C   UNL     1      36.100  30.013  50.272  0.00  0.00    +0.000 C 
ATOM     23  H   UNL     1      36.020  31.053  50.654  0.00  0.00    +0.000 HD
ATOM     24  H   UNL     1      37.090  29.605  50.596  0.00  0.00    +0.000 HD
BRANCH  22  25
ATOM     25  C   UNL     1      35.026  29.197  50.840  0.00  0.00    +0.000 C 
ATOM     26  H   UNL     1      34.015  29.630  50.626  0.00  0.00    +0.000 HD
ATOM     27  H   UNL     1      35.044  28.140  50.504  0.00  0.00    +0.000 HD
BRANCH  25  28
ATOM     28  S   UNL     1      35.181  29.162  52.648  0.00  0.00    +0.000 S 
ATOM     29  H   UNL     1      34.147  29.919  53.249  0.00  0.00    +0.000 HD
ENDBRANCH  25  28
ENDBRANCH  22  25
ENDBRANCH   7  22
TORSDOF 5
