
 OpenBabel03272510043D

 34 36  0  0  0  0  0  0  0  0999 V2000
   35.0960   29.7900   45.3860 C   0  0  0  0  0  0  0  0  0  0  0  0
   34.9680   29.6610   46.7330 C   0  0  0  0  0  0  0  0  0  0  0  0
   33.8180   29.0890   47.2670 C   0  0  0  0  0  0  0  0  0  0  0  0
   32.7810   28.6400   46.4700 C   0  0  0  0  0  0  0  0  0  0  0  0
   32.8760   28.7580   45.1140 C   0  0  0  0  0  0  0  0  0  0  0  0
   34.0190   29.3240   44.6220 C   0  0  0  0  0  0  0  0  0  0  0  0
   33.7460   28.9950   48.3610 H   0  0  0  0  0  0  0  0  0  0  0  0
   31.9420   28.2130   46.9910 H   0  0  0  0  0  0  0  0  0  0  0  0
   32.0480   28.3970   44.5610 H   0  0  0  0  0  0  0  0  0  0  0  0
   33.9740   29.3650   43.5240 H   0  0  0  0  0  0  0  0  0  0  0  0
   37.7090   31.7090   48.0820 C   0  0  0  0  0  0  0  0  0  0  0  0
   36.7230   31.2140   47.2450 C   0  0  0  0  0  0  0  0  0  0  0  0
   35.9640   30.1430   47.6260 C   0  0  0  0  0  0  0  0  0  0  0  0
   36.2250   29.6060   48.8480 N   0  0  0  0  0  0  0  0  0  0  0  0
   37.1750   30.0840   49.6620 C   0  0  0  0  0  0  0  0  0  0  0  0
   37.9100   31.1280   49.2710 N   0  0  0  0  0  0  0  0  0  0  0  0
   38.3890   32.5270   47.9430 H   0  0  0  0  0  0  0  0  0  0  0  0
   36.7470   31.8630   46.4040 H   0  0  0  0  0  0  0  0  0  0  0  0
   37.3000   29.4410   50.9950 C   0  0  0  0  0  0  0  0  0  0  0  0
   37.7650   30.3200   51.9530 F   0  0  0  0  0  0  0  0  0  0  0  0
   35.9720   29.1290   51.4830 F   0  0  0  0  0  0  0  0  0  0  0  0
   37.9220   28.2850   51.0530 F   0  0  0  0  0  0  0  0  0  0  0  0
   36.4840   30.4400   44.6080 S   0  0  0  0  0  0  0  0  0  0  0  0
   36.1640   31.7150   43.9210 O   0  0  0  0  0  0  0  0  0  0  0  0
   36.4650   29.5720   43.3670 O   0  0  0  0  0  0  0  0  0  0  0  0
   38.0950   29.9780   44.7970 C   0  0  0  0  0  0  0  0  0  0  0  0
   38.2980   28.9250   44.5180 H   0  0  0  0  0  0  0  0  0  0  0  0
   38.2260   29.8690   45.9480 H   0  0  0  0  0  0  0  0  0  0  0  0
   39.1690   30.9390   44.4790 C   0  0  0  0  0  3  0  0  0  0  0  0
   40.2040   30.7540   45.5910 C   0  0  0  0  0  2  0  0  0  0  0  0
   41.2440   31.8070   45.5790 C   0  0  0  0  0  2  0  0  0  0  0  0
   40.6680   33.2030   45.5220 C   0  0  0  0  0  2  0  0  0  0  0  0
   39.7710   33.3750   44.3440 C   0  0  0  0  0  2  0  0  0  0  0  0
   38.6370   32.3500   44.4640 C   0  0  0  0  0  2  0  0  0  0  0  0
  1  2  1  0  0  0  0
  2  3  2  0  0  0  0
  2 13  1  0  0  0  0
  3  7  1  0  0  0  0
  4  8  1  0  0  0  0
  4  3  1  0  0  0  0
  5  4  2  0  0  0  0
  6  5  1  0  0  0  0
  6  1  2  0  0  0  0
  9  5  1  0  0  0  0
 10  6  1  0  0  0  0
 11 16  1  0  0  0  0
 12 13  1  0  0  0  0
 12 11  2  0  0  0  0
 13 14  2  0  0  0  0
 14 15  1  0  0  0  0
 15 19  1  0  0  0  0
 16 15  2  0  0  0  0
 17 11  1  0  0  0  0
 18 12  1  0  0  0  0
 19 22  1  0  0  0  0
 19 21  1  0  0  0  0
 19 20  1  0  0  0  0
 23 26  1  0  0  0  0
 23  1  1  0  0  0  0
 24 23  2  0  0  0  0
 25 23  2  0  0  0  0
 26 28  1  0  0  0  0
 27 26  1  0  0  0  0
 29 26  1  0  0  0  0
 29 30  1  0  0  0  0
 31 30  1  0  0  0  0
 32 31  1  0  0  0  0
 33 34  1  0  0  0  0
 33 32  1  0  0  0  0
 34 29  1  0  0  0  0
M  END
>  <minimizedAffinity>
-5.87130928

>  <minimizedRMSD>
3.09991908

$$$$
