
 OpenBabel03262520423D

 18 19  0  0  0  0  0  0  0  0999 V2000
   36.2730   28.2730   33.5880 C   0  0  0  0  0  0  0  0  0  0  0  0
   37.0050   27.7820   34.6950 C   0  0  0  0  0  0  0  0  0  0  0  0
   37.5730   26.5040   34.5620 C   0  0  0  0  0  0  0  0  0  0  0  0
   37.4020   25.8120   33.4110 N   0  0  0  0  0  0  0  0  0  0  0  0
   36.6940   26.3250   32.3820 C   0  0  0  0  0  0  0  0  0  0  0  0
   36.1350   27.5510   32.4800 N   0  0  0  0  0  0  0  0  0  0  0  0
   35.8180   29.2590   33.6510 H   0  0  0  0  0  0  0  0  0  0  0  0
   37.0890   28.3950   35.5630 H   0  0  0  0  0  0  0  0  0  0  0  0
   36.6120   25.6920   31.4980 H   0  0  0  0  0  0  0  0  0  0  0  0
   38.3380   25.9970   35.7280 C   0  0  0  0  0  0  0  0  0  0  0  0
   39.3880   25.9160   35.3710 H   0  0  0  0  0  0  0  0  0  0  0  0
   38.3560   26.7150   36.5540 H   0  0  0  0  0  0  0  0  0  0  0  0
   37.8490   24.6890   36.2650 C   0  0  0  0  0  3  0  0  0  0  0  0
   37.9630   24.7830   37.7820 C   0  0  0  0  0  2  0  0  0  0  0  0
   38.1710   23.4250   38.4000 C   0  0  0  0  0  2  0  0  0  0  0  0
   39.5540   22.9460   38.0100 C   0  0  0  0  0  2  0  0  0  0  0  0
   39.8560   23.2160   36.5600 C   0  0  0  0  0  2  0  0  0  0  0  0
   38.6040   23.4920   35.7560 C   0  0  0  0  0  2  0  0  0  0  0  0
  1  7  1  0  0  0  0
  1  2  1  0  0  0  0
  2  8  1  0  0  0  0
  3  2  2  0  0  0  0
  3 10  1  0  0  0  0
  4  3  1  0  0  0  0
  5  6  1  0  0  0  0
  5  4  2  0  0  0  0
  6  1  2  0  0  0  0
  9  5  1  0  0  0  0
 10 13  1  0  0  0  0
 10 12  1  0  0  0  0
 11 10  1  0  0  0  0
 13 14  1  0  0  0  0
 14 15  1  0  0  0  0
 16 15  1  0  0  0  0
 17 16  1  0  0  0  0
 18 13  1  0  0  0  0
 18 17  1  0  0  0  0
M  END
>  <minimizedAffinity>
-4.17647076

$$$$

 OpenBabel03262520423D

 18 19  0  0  0  0  0  0  0  0999 V2000
   35.8770   26.4800   31.0760 C   0  0  0  0  0  0  0  0  0  0  0  0
   35.3030   25.1870   31.1260 C   0  0  0  0  0  0  0  0  0  0  0  0
   36.1900   24.0980   31.1080 C   0  0  0  0  0  0  0  0  0  0  0  0
   37.5240   24.3230   31.0450 N   0  0  0  0  0  0  0  0  0  0  0  0
   38.0230   25.5770   30.9990 C   0  0  0  0  0  0  0  0  0  0  0  0
   37.1950   26.6450   31.0140 N   0  0  0  0  0  0  0  0  0  0  0  0
   35.2240   27.3490   31.0890 H   0  0  0  0  0  0  0  0  0  0  0  0
   34.2410   25.1030   31.1740 H   0  0  0  0  0  0  0  0  0  0  0  0
   39.1100   25.6560   30.9490 H   0  0  0  0  0  0  0  0  0  0  0  0
   35.5800   22.7470   31.1600 C   0  0  0  0  0  0  0  0  0  0  0  0
   34.7390   22.8390   31.8810 H   0  0  0  0  0  0  0  0  0  0  0  0
   35.1270   22.4620   30.2040 H   0  0  0  0  0  0  0  0  0  0  0  0
   36.5220   21.6590   31.5650 C   0  0  0  0  0  3  0  0  0  0  0  0
   36.0600   20.4020   30.8390 C   0  0  0  0  0  2  0  0  0  0  0  0
   36.4220   19.1600   31.6100 C   0  0  0  0  0  2  0  0  0  0  0  0
   35.5720   19.1290   32.8640 C   0  0  0  0  0  2  0  0  0  0  0  0
   35.4910   20.4810   33.5230 C   0  0  0  0  0  2  0  0  0  0  0  0
   36.5820   21.4150   33.0480 C   0  0  0  0  0  2  0  0  0  0  0  0
  1  7  1  0  0  0  0
  1  2  1  0  0  0  0
  2  8  1  0  0  0  0
  3  2  2  0  0  0  0
  3 10  1  0  0  0  0
  4  3  1  0  0  0  0
  5  6  1  0  0  0  0
  5  4  2  0  0  0  0
  6  1  2  0  0  0  0
  9  5  1  0  0  0  0
 10 13  1  0  0  0  0
 10 11  1  0  0  0  0
 12 10  1  0  0  0  0
 13 18  1  0  0  0  0
 14 13  1  0  0  0  0
 14 15  1  0  0  0  0
 15 16  1  0  0  0  0
 16 17  1  0  0  0  0
 18 17  1  0  0  0  0
M  END
>  <minimizedAffinity>
-4.02886438

$$$$

 OpenBabel03262520423D

 18 19  0  0  0  0  0  0  0  0999 V2000
   36.3090   29.7970   30.6510 C   0  0  0  0  0  0  0  0  0  0  0  0
   35.9560   30.1240   31.9820 C   0  0  0  0  0  0  0  0  0  0  0  0
   35.8520   29.0570   32.8910 C   0  0  0  0  0  0  0  0  0  0  0  0
   36.0880   27.7930   32.4680 N   0  0  0  0  0  0  0  0  0  0  0  0
   36.4220   27.5320   31.1850 C   0  0  0  0  0  0  0  0  0  0  0  0
   36.5290   28.5370   30.2880 N   0  0  0  0  0  0  0  0  0  0  0  0
   36.3990   30.5950   29.9170 H   0  0  0  0  0  0  0  0  0  0  0  0
   35.7880   31.1480   32.2270 H   0  0  0  0  0  0  0  0  0  0  0  0
   36.5930   26.4830   30.9410 H   0  0  0  0  0  0  0  0  0  0  0  0
   35.4810   29.4090   34.2830 C   0  0  0  0  0  0  0  0  0  0  0  0
   34.5810   28.7960   34.5050 H   0  0  0  0  0  0  0  0  0  0  0  0
   36.2440   29.0980   35.0050 H   0  0  0  0  0  0  0  0  0  0  0  0
   35.2100   30.8640   34.5000 C   0  0  0  0  0  3  0  0  0  0  0  0
   36.0030   31.2660   35.7380 C   0  0  0  0  0  2  0  0  0  0  0  0
   35.3470   32.4140   36.4580 C   0  0  0  0  0  2  0  0  0  0  0  0
   34.0550   31.9050   37.0640 C   0  0  0  0  0  2  0  0  0  0  0  0
   33.2930   31.0260   36.1080 C   0  0  0  0  0  2  0  0  0  0  0  0
   33.7550   31.2010   34.6770 C   0  0  0  0  0  2  0  0  0  0  0  0
  1  2  1  0  0  0  0
  2  8  1  0  0  0  0
  2  3  2  0  0  0  0
  3 10  1  0  0  0  0
  4  3  1  0  0  0  0
  5  4  2  0  0  0  0
  6  1  2  0  0  0  0
  6  5  1  0  0  0  0
  7  1  1  0  0  0  0
  9  5  1  0  0  0  0
 10 13  1  0  0  0  0
 10 11  1  0  0  0  0
 10 12  1  0  0  0  0
 13 18  1  0  0  0  0
 13 14  1  0  0  0  0
 14 15  1  0  0  0  0
 15 16  1  0  0  0  0
 17 16  1  0  0  0  0
 18 17  1  0  0  0  0
M  END
>  <minimizedAffinity>
-3.97668576

$$$$

 OpenBabel03262520423D

 18 19  0  0  0  0  0  0  0  0999 V2000
   38.0690   23.9790   38.3820 C   0  0  0  0  0  0  0  0  0  0  0  0
   37.7450   24.4190   37.0760 C   0  0  0  0  0  0  0  0  0  0  0  0
   38.5930   23.9970   36.0370 C   0  0  0  0  0  0  0  0  0  0  0  0
   39.6560   23.2090   36.3200 N   0  0  0  0  0  0  0  0  0  0  0  0
   39.9240   22.8160   37.5840 C   0  0  0  0  0  0  0  0  0  0  0  0
   39.1270   23.2060   38.6050 N   0  0  0  0  0  0  0  0  0  0  0  0
   37.4380   24.2840   39.2130 H   0  0  0  0  0  0  0  0  0  0  0  0
   36.8880   25.0380   36.9450 H   0  0  0  0  0  0  0  0  0  0  0  0
   40.8020   22.1830   37.7110 H   0  0  0  0  0  0  0  0  0  0  0  0
   38.2460   24.4620   34.6720 C   0  0  0  0  0  0  0  0  0  0  0  0
   39.0760   24.1040   34.0260 H   0  0  0  0  0  0  0  0  0  0  0  0
   37.3390   23.9820   34.2900 H   0  0  0  0  0  0  0  0  0  0  0  0
   38.0690   25.9430   34.5520 C   0  0  0  0  0  3  0  0  0  0  0  0
   37.1890   26.1680   33.3270 C   0  0  0  0  0  2  0  0  0  0  0  0
   37.4700   27.5050   32.6920 C   0  0  0  0  0  2  0  0  0  0  0  0
   38.8530   27.4460   32.0790 C   0  0  0  0  0  2  0  0  0  0  0  0
   39.8460   26.7740   32.9910 C   0  0  0  0  0  2  0  0  0  0  0  0
   39.3550   26.7100   34.4220 C   0  0  0  0  0  2  0  0  0  0  0  0
  1  6  1  0  0  0  0
  1  7  1  0  0  0  0
  2  1  2  0  0  0  0
  3  4  2  0  0  0  0
  3  2  1  0  0  0  0
  4  5  1  0  0  0  0
  5  9  1  0  0  0  0
  5  6  2  0  0  0  0
  8  2  1  0  0  0  0
 10  3  1  0  0  0  0
 11 10  1  0  0  0  0
 12 10  1  0  0  0  0
 13 10  1  0  0  0  0
 14 13  1  0  0  0  0
 15 14  1  0  0  0  0
 16 15  1  0  0  0  0
 16 17  1  0  0  0  0
 17 18  1  0  0  0  0
 18 13  1  0  0  0  0
M  END
>  <minimizedAffinity>
-3.96137214

$$$$

 OpenBabel03262520423D

 18 19  0  0  0  0  0  0  0  0999 V2000
   37.3060   25.8800   32.8420 C   0  0  0  0  0  0  0  0  0  0  0  0
   36.9820   24.5490   32.4830 C   0  0  0  0  0  0  0  0  0  0  0  0
   35.9650   24.3800   31.5280 C   0  0  0  0  0  0  0  0  0  0  0  0
   35.3520   25.4670   31.0030 N   0  0  0  0  0  0  0  0  0  0  0  0
   35.6970   26.7180   31.3790 C   0  0  0  0  0  0  0  0  0  0  0  0
   36.6720   26.9130   32.2960 N   0  0  0  0  0  0  0  0  0  0  0  0
   38.0880   26.0530   33.5770 H   0  0  0  0  0  0  0  0  0  0  0  0
   37.5160   23.7520   32.9470 H   0  0  0  0  0  0  0  0  0  0  0  0
   35.1470   27.5280   30.9010 H   0  0  0  0  0  0  0  0  0  0  0  0
   35.6320   22.9830   31.1580 C   0  0  0  0  0  0  0  0  0  0  0  0
   34.5230   22.9280   31.2070 H   0  0  0  0  0  0  0  0  0  0  0  0
   35.8990   22.7550   30.1210 H   0  0  0  0  0  0  0  0  0  0  0  0
   36.2620   21.9470   32.0340 C   0  0  0  0  0  3  0  0  0  0  0  0
   37.0550   21.0310   31.1080 C   0  0  0  0  0  2  0  0  0  0  0  0
   37.1620   19.6400   31.6740 C   0  0  0  0  0  2  0  0  0  0  0  0
   35.7830   19.0140   31.6300 C   0  0  0  0  0  2  0  0  0  0  0  0
   34.7130   19.9750   32.0760 C   0  0  0  0  0  2  0  0  0  0  0  0
   35.2820   21.1470   32.8470 C   0  0  0  0  0  2  0  0  0  0  0  0
  1  7  1  0  0  0  0
  2  1  1  0  0  0  0
  2  8  1  0  0  0  0
  3  2  2  0  0  0  0
  4  5  2  0  0  0  0
  4  3  1  0  0  0  0
  5  6  1  0  0  0  0
  6  1  2  0  0  0  0
  9  5  1  0  0  0  0
 10 11  1  0  0  0  0
 10  3  1  0  0  0  0
 10 13  1  0  0  0  0
 12 10  1  0  0  0  0
 13 18  1  0  0  0  0
 14 15  1  0  0  0  0
 14 13  1  0  0  0  0
 16 15  1  0  0  0  0
 16 17  1  0  0  0  0
 17 18  1  0  0  0  0
M  END
>  <minimizedAffinity>
-3.89714646

$$$$

 OpenBabel03262520423D

 18 19  0  0  0  0  0  0  0  0999 V2000
   40.0450   22.6610   37.5360 C   0  0  0  0  0  0  0  0  0  0  0  0
   39.8540   22.1970   36.2120 C   0  0  0  0  0  0  0  0  0  0  0  0
   38.5640   22.3380   35.6710 C   0  0  0  0  0  0  0  0  0  0  0  0
   37.5840   22.8980   36.4180 N   0  0  0  0  0  0  0  0  0  0  0  0
   37.8170   23.3250   37.6780 C   0  0  0  0  0  0  0  0  0  0  0  0
   39.0460   23.2030   38.2260 N   0  0  0  0  0  0  0  0  0  0  0  0
   41.0290   22.5700   37.9900 H   0  0  0  0  0  0  0  0  0  0  0  0
   40.6830   21.7690   35.6980 H   0  0  0  0  0  0  0  0  0  0  0  0
   36.9640   23.7610   38.1980 H   0  0  0  0  0  0  0  0  0  0  0  0
   38.3730   21.8480   34.2850 C   0  0  0  0  0  0  0  0  0  0  0  0
   39.2340   22.2570   33.7130 H   0  0  0  0  0  0  0  0  0  0  0  0
   38.4560   20.7580   34.2160 H   0  0  0  0  0  0  0  0  0  0  0  0
   37.0730   22.2500   33.6630 C   0  0  0  0  0  3  0  0  0  0  0  0
   36.2100   20.9940   33.6290 C   0  0  0  0  0  2  0  0  0  0  0  0
   35.2260   21.0370   32.4910 C   0  0  0  0  0  2  0  0  0  0  0  0
   36.0060   20.9160   31.1980 C   0  0  0  0  0  2  0  0  0  0  0  0
   37.2490   21.7670   31.2080 C   0  0  0  0  0  2  0  0  0  0  0  0
   37.2040   22.8330   32.2820 C   0  0  0  0  0  2  0  0  0  0  0  0
  1  7  1  0  0  0  0
  1  6  1  0  0  0  0
  2  1  2  0  0  0  0
  3  2  1  0  0  0  0
  3  4  2  0  0  0  0
  4  5  1  0  0  0  0
  5  9  1  0  0  0  0
  5  6  2  0  0  0  0
  8  2  1  0  0  0  0
 10  3  1  0  0  0  0
 11 10  1  0  0  0  0
 12 10  1  0  0  0  0
 13 10  1  0  0  0  0
 14 13  1  0  0  0  0
 15 14  1  0  0  0  0
 16 17  1  0  0  0  0
 16 15  1  0  0  0  0
 17 18  1  0  0  0  0
 18 13  1  0  0  0  0
M  END
>  <minimizedAffinity>
-3.87396121

$$$$

 OpenBabel03262520423D

 18 19  0  0  0  0  0  0  0  0999 V2000
   36.6900   28.0340   31.1150 C   0  0  0  0  0  0  0  0  0  0  0  0
   36.7710   28.3800   32.4860 C   0  0  0  0  0  0  0  0  0  0  0  0
   36.8490   27.3180   33.4030 C   0  0  0  0  0  0  0  0  0  0  0  0
   36.8440   26.0420   32.9510 N   0  0  0  0  0  0  0  0  0  0  0  0
   36.7640   25.7640   31.6320 C   0  0  0  0  0  0  0  0  0  0  0  0
   36.6880   26.7630   30.7250 N   0  0  0  0  0  0  0  0  0  0  0  0
   36.6280   28.8270   30.3740 H   0  0  0  0  0  0  0  0  0  0  0  0
   36.7690   29.4110   32.7520 H   0  0  0  0  0  0  0  0  0  0  0  0
   36.7670   24.7060   31.3670 H   0  0  0  0  0  0  0  0  0  0  0  0
   36.9340   27.6890   34.8370 C   0  0  0  0  0  0  0  0  0  0  0  0
   36.6150   28.7530   34.8780 H   0  0  0  0  0  0  0  0  0  0  0  0
   36.2130   27.1360   35.4500 H   0  0  0  0  0  0  0  0  0  0  0  0
   38.2890   27.5060   35.4420 C   0  0  0  0  0  3  0  0  0  0  0  0
   39.2290   27.1700   34.2900 C   0  0  0  0  0  2  0  0  0  0  0  0
   40.3860   26.3270   34.7570 C   0  0  0  0  0  2  0  0  0  0  0  0
   39.8450   24.9620   35.1300 C   0  0  0  0  0  2  0  0  0  0  0  0
   38.5630   25.0590   35.9150 C   0  0  0  0  0  2  0  0  0  0  0  0
   38.3540   26.4400   36.5000 C   0  0  0  0  0  2  0  0  0  0  0  0
  1  2  1  0  0  0  0
  2  8  1  0  0  0  0
  2  3  2  0  0  0  0
  3 10  1  0  0  0  0
  4  3  1  0  0  0  0
  5  4  2  0  0  0  0
  6  1  2  0  0  0  0
  6  5  1  0  0  0  0
  7  1  1  0  0  0  0
  9  5  1  0  0  0  0
 10 11  1  0  0  0  0
 10 13  1  0  0  0  0
 10 12  1  0  0  0  0
 13 18  1  0  0  0  0
 14 15  1  0  0  0  0
 14 13  1  0  0  0  0
 15 16  1  0  0  0  0
 16 17  1  0  0  0  0
 17 18  1  0  0  0  0
M  END
>  <minimizedAffinity>
-3.8572588

$$$$

 OpenBabel03262520423D

 18 19  0  0  0  0  0  0  0  0999 V2000
   40.0910   22.9910   36.7170 C   0  0  0  0  0  0  0  0  0  0  0  0
   39.5510   23.9760   35.8550 C   0  0  0  0  0  0  0  0  0  0  0  0
   38.4680   24.7250   36.3490 C   0  0  0  0  0  0  0  0  0  0  0  0
   38.0000   24.4810   37.5950 N   0  0  0  0  0  0  0  0  0  0  0  0
   38.5510   23.5290   38.3800 C   0  0  0  0  0  0  0  0  0  0  0  0
   39.5920   22.7920   37.9330 N   0  0  0  0  0  0  0  0  0  0  0  0
   40.9300   22.3910   36.3720 H   0  0  0  0  0  0  0  0  0  0  0  0
   39.9820   24.1000   34.8890 H   0  0  0  0  0  0  0  0  0  0  0  0
   38.1040   23.4070   39.3670 H   0  0  0  0  0  0  0  0  0  0  0  0
   37.9070   25.7530   35.4400 C   0  0  0  0  0  0  0  0  0  0  0  0
   36.8050   25.6240   35.5040 H   0  0  0  0  0  0  0  0  0  0  0  0
   38.1120   26.7710   35.7910 H   0  0  0  0  0  0  0  0  0  0  0  0
   38.3820   25.6500   34.0250 C   0  0  0  0  0  3  0  0  0  0  0  0
   39.1810   26.9190   33.7510 C   0  0  0  0  0  2  0  0  0  0  0  0
   39.1360   27.2880   32.2910 C   0  0  0  0  0  2  0  0  0  0  0  0
   37.7240   27.7310   31.9690 C   0  0  0  0  0  2  0  0  0  0  0  0
   36.6930   26.8280   32.5930 C   0  0  0  0  0  2  0  0  0  0  0  0
   37.2790   25.4970   33.0140 C   0  0  0  0  0  2  0  0  0  0  0  0
  1  6  1  0  0  0  0
  2  3  1  0  0  0  0
  2  1  2  0  0  0  0
  3  4  2  0  0  0  0
  4  5  1  0  0  0  0
  5  9  1  0  0  0  0
  6  5  2  0  0  0  0
  7  1  1  0  0  0  0
  8  2  1  0  0  0  0
 10 11  1  0  0  0  0
 10 12  1  0  0  0  0
 10  3  1  0  0  0  0
 13 10  1  0  0  0  0
 14 13  1  0  0  0  0
 15 14  1  0  0  0  0
 16 15  1  0  0  0  0
 16 17  1  0  0  0  0
 17 18  1  0  0  0  0
 18 13  1  0  0  0  0
M  END
>  <minimizedAffinity>
-3.83243513

$$$$

 OpenBabel03262520423D

 18 19  0  0  0  0  0  0  0  0999 V2000
   38.8020   27.3940   35.7230 C   0  0  0  0  0  0  0  0  0  0  0  0
   39.1980   26.0480   35.5300 C   0  0  0  0  0  0  0  0  0  0  0  0
   38.3710   25.2550   34.7160 C   0  0  0  0  0  0  0  0  0  0  0  0
   37.2590   25.7950   34.1640 N   0  0  0  0  0  0  0  0  0  0  0  0
   36.9240   27.0860   34.3790 C   0  0  0  0  0  0  0  0  0  0  0  0
   37.6990   27.8740   35.1580 N   0  0  0  0  0  0  0  0  0  0  0  0
   39.4150   28.0400   36.3470 H   0  0  0  0  0  0  0  0  0  0  0  0
   40.0890   25.7070   36.0030 H   0  0  0  0  0  0  0  0  0  0  0  0
   36.0110   27.4290   33.8920 H   0  0  0  0  0  0  0  0  0  0  0  0
   38.7930   23.8470   34.5190 C   0  0  0  0  0  0  0  0  0  0  0  0
   38.3750   23.5560   33.5310 H   0  0  0  0  0  0  0  0  0  0  0  0
   39.8800   23.7500   34.4260 H   0  0  0  0  0  0  0  0  0  0  0  0
   38.3380   22.9110   35.5940 C   0  0  0  0  0  3  0  0  0  0  0  0
   37.6210   23.7690   36.6300 C   0  0  0  0  0  2  0  0  0  0  0  0
   37.7140   23.1590   38.0040 C   0  0  0  0  0  2  0  0  0  0  0  0
   39.1550   23.2570   38.4590 C   0  0  0  0  0  2  0  0  0  0  0  0
   40.1190   22.8950   37.3590 C   0  0  0  0  0  2  0  0  0  0  0  0
   39.4480   22.1280   36.2400 C   0  0  0  0  0  2  0  0  0  0  0  0
  1  7  1  0  0  0  0
  2  1  1  0  0  0  0
  2  8  1  0  0  0  0
  3  2  2  0  0  0  0
  4  5  2  0  0  0  0
  4  3  1  0  0  0  0
  5  6  1  0  0  0  0
  6  1  2  0  0  0  0
  9  5  1  0  0  0  0
 10  3  1  0  0  0  0
 10 13  1  0  0  0  0
 11 10  1  0  0  0  0
 12 10  1  0  0  0  0
 13 18  1  0  0  0  0
 13 14  1  0  0  0  0
 14 15  1  0  0  0  0
 15 16  1  0  0  0  0
 17 16  1  0  0  0  0
 18 17  1  0  0  0  0
M  END
>  <minimizedAffinity>
-3.82666731

$$$$
