REMARK  Name = 
REMARK  4 active torsions:
REMARK  status: ('A' for Active; 'I' for Inactive)
REMARK    1  A    between atoms: C_1  and  C_3
REMARK    2  A    between atoms: C_1  and  C_9
REMARK    3  A    between atoms: C_12  and  C_14
REMARK    4  A    between atoms: C_14  and  C_21
REMARK                            x       y       z     vdW  Elec       q    Type
REMARK                         _______ _______ _______ _____ _____    ______ ____
ROOT
ATOM      1  C   UNL     1      35.914  29.583  49.908  0.00  0.00    +0.000 A 
ATOM      2  C   UNL     1      34.683  29.897  50.397  0.00  0.00    +0.000 A 
ATOM      3  C   UNL     1      33.763  29.030  49.787  0.00  0.00    +0.000 A 
ATOM      4  C   UNL     1      34.528  28.220  48.938  0.00  0.00    +0.000 A 
ATOM      5  O   UNL     1      35.758  28.596  49.061  0.00  0.00    +0.000 OA
ATOM      6  H   UNL     1      34.336  30.637  51.112  0.00  0.00    +0.000 HD
ATOM      7  H   UNL     1      32.690  28.977  49.925  0.00  0.00    +0.000 HD
ENDROOT
BRANCH   1   8
ATOM      8  C   UNL     1      37.115  30.275  50.315  0.00  0.00    +0.000 C 
ATOM      9  O   UNL     1      37.508  30.132  51.494  0.00  0.00    +0.000 OA
BRANCH   8  10
ATOM     10  C   UNL     1      37.793  31.092  49.335  0.00  0.00    +0.000 A 
ATOM     11  C   UNL     1      38.113  32.392  49.701  0.00  0.00    +0.000 A 
ATOM     12  C   UNL     1      38.764  33.194  48.776  0.00  0.00    +0.000 A 
ATOM     13  N   UNL     1      39.057  32.672  47.557  0.00  0.00    +0.000 NA
ATOM     14  C   UNL     1      38.737  31.409  47.224  0.00  0.00    +0.000 A 
ATOM     15  N   UNL     1      38.109  30.627  48.109  0.00  0.00    +0.000 NA
ATOM     16  H   UNL     1      37.903  32.857  50.658  0.00  0.00    +0.000 HD
ATOM     17  H   UNL     1      39.029  34.219  49.033  0.00  0.00    +0.000 HD
ATOM     18  H   UNL     1      38.959  30.968  46.259  0.00  0.00    +0.000 HD
ENDBRANCH   8  10
ENDBRANCH   1   8
BRANCH   4  19
ATOM     19  C   UNL     1      33.980  27.156  48.090  0.00  0.00    +0.000 C 
ATOM     20  O   UNL     1      32.733  26.918  48.105  0.00  0.00    +0.000 OA
BRANCH  19  21
ATOM     21  C   UNL     1      34.922  26.386  47.234  0.00  0.00    +0.000 C 
ATOM     22  C   UNL     1      34.790  26.815  45.802  0.00  0.00    +0.000 C 
ATOM     23  C   UNL     1      35.344  25.817  44.822  0.00  0.00    +0.000 C 
ATOM     24  C   UNL     1      34.907  24.407  45.110  0.00  0.00    +0.000 C 
ATOM     25  C   UNL     1      35.468  24.086  46.493  0.00  0.00    +0.000 C 
ATOM     26  C   UNL     1      34.670  24.940  47.467  0.00  0.00    +0.000 C 
ENDBRANCH  19  21
ENDBRANCH   4  19
TORSDOF 4
