
     RDKit          3D

 47 49  0  0  0  0  0  0  0  0999 V2000
   36.0352   29.9419   46.9708 O   0  0  0  0  0  0  0  0  0  0  0  0
   36.0267   30.2298   48.4424 P   0  0  2  0  0  0  0  0  0  0  0  0
   36.8018   28.9141   49.2390 O   0  0  0  0  0  0  0  0  0  0  0  0
   34.4390   30.3703   49.0203 O   0  0  0  0  0  0  0  0  0  0  0  0
   34.1782   29.2354   49.7700 C   0  0  0  0  0  0  0  0  0  0  0  0
   33.3167   28.2577   49.0688 C   0  0  0  0  0  0  0  0  0  0  0  0
   33.9430   27.3801   48.2155 C   0  0  0  0  0  0  0  0  0  0  0  0
   33.1859   26.4315   47.5224 C   0  0  0  0  0  0  0  0  0  0  0  0
   31.8406   26.4390   47.7438 N   0  0  0  0  0  0  0  0  0  0  0  0
   31.2492   27.3088   48.5848 C   0  0  0  0  0  0  0  0  0  0  0  0
   31.9858   28.2225   49.2512 N   0  0  0  0  0  0  0  0  0  0  0  0
   36.8835   31.6483   48.7409 O   0  0  0  0  0  0  0  0  0  0  0  0
   38.8502   32.4711   47.8113 C   0  0  2  0  0  0  0  0  0  0  0  0
   38.2470   31.4592   48.7651 C   0  0  1  0  0  0  0  0  0  0  0  0
   38.8227   32.0180   50.0742 C   0  0  0  0  0  0  0  0  0  0  0  0
   38.4760   33.3528   49.9614 O   0  0  0  0  0  0  0  0  0  0  0  0
   38.6846   33.7310   48.6518 C   0  0  0  0  0  0  0  0  0  0  0  0
   38.0787   32.4975   46.6613 O   0  0  0  0  0  0  0  0  0  0  0  0
   37.4895   29.2713   49.8719 H   0  0  0  0  0  0  0  0  0  0  0  0
   33.6697   29.4971   50.7427 H   0  0  0  0  0  0  0  0  0  0  0  0
   35.0889   28.6824   50.0877 H   0  0  0  0  0  0  0  0  0  0  0  0
   34.9907   27.2994   47.9787 H   0  0  0  0  0  0  0  0  0  0  0  0
   33.6005   25.7037   46.8315 H   0  0  0  0  0  0  0  0  0  0  0  0
   30.1676   27.2540   48.7105 H   0  0  0  0  0  0  0  0  0  0  0  0
   39.9265   32.2990   47.6413 H   0  0  0  0  0  0  0  0  0  0  0  0
   38.5766   30.4308   48.5899 H   0  0  0  0  0  0  0  0  0  0  0  0
   39.9037   31.8514   50.0556 H   0  0  0  0  0  0  0  0  0  0  0  0
   38.2868   31.5092   50.9015 H   0  0  0  0  0  0  0  0  0  0  0  0
   39.5393   34.4135   48.5118 H   0  0  0  0  0  0  0  0  0  0  0  0
   37.7829   34.3213   48.3454 H   0  0  0  0  0  0  0  0  0  0  0  0
   38.9208   32.2902   45.5755 C   0  0  0  0  0  0  0  0  0  0  0  0
   39.5337   33.5407   45.0457 C   0  0  0  0  0  0  0  0  0  0  0  0
   40.0216   33.2820   43.6339 C   0  0  0  0  0  0  0  0  0  0  0  0
   40.5523   31.8923   43.5248 C   0  0  0  0  0  0  0  0  0  0  0  0
   41.0815   31.3542   44.8371 C   0  0  0  0  0  0  0  0  0  0  0  0
   40.0639   31.3378   45.9356 C   0  0  0  0  0  0  0  0  0  0  0  0
   38.3911   31.7760   44.7305 H   0  0  0  0  0  0  0  0  0  0  0  0
   38.8629   34.4139   44.9835 H   0  0  0  0  0  0  0  0  0  0  0  0
   40.4149   33.8713   45.6595 H   0  0  0  0  0  0  0  0  0  0  0  0
   40.7431   34.0713   43.3419 H   0  0  0  0  0  0  0  0  0  0  0  0
   39.1071   33.3373   42.9925 H   0  0  0  0  0  0  0  0  0  0  0  0
   39.8127   31.1687   43.1065 H   0  0  0  0  0  0  0  0  0  0  0  0
   41.4089   31.9004   42.8210 H   0  0  0  0  0  0  0  0  0  0  0  0
   41.9899   31.9461   45.0887 H   0  0  0  0  0  0  0  0  0  0  0  0
   41.3844   30.3013   44.6207 H   0  0  0  0  0  0  0  0  0  0  0  0
   39.6240   30.3220   46.0300 H   0  0  0  0  0  0  0  0  0  0  0  0
   40.5146   31.5872   46.9173 H   0  0  0  0  0  0  0  0  0  0  0  0
  2  1  2  0
  2 12  1  6
  2  4  1  0
  2  3  1  0
  4  5  1  0
  6 11  1  0
  6  5  1  0
  7  6  2  0
  8  9  2  0
  8  7  1  0
  9 10  1  0
 10 11  2  0
 13 18  1  0
 13 17  1  0
 13 14  1  0
 14 12  1  0
 14 15  1  0
 16 15  1  0
 17 16  1  0
  3 19  1  0
  5 20  1  0
  5 21  1  0
  7 22  1  0
  8 23  1  0
 10 24  1  0
 13 25  1  6
 14 26  1  6
 15 27  1  0
 15 28  1  0
 17 29  1  0
 17 30  1  0
 31 32  1  0
 32 33  1  0
 33 34  1  0
 34 35  1  0
 35 36  1  0
 36 31  1  0
 31 37  1  0
 32 38  1  0
 32 39  1  0
 33 40  1  0
 33 41  1  0
 34 42  1  0
 34 43  1  0
 35 44  1  0
 35 45  1  0
 36 46  1  0
 36 47  1  0
 18 31  1  0
M  ISO  8  19   3  20   8  21   8  22  14  23  14  24  14  25  13  26  13
M  ISO  4  27  13  28  13  29  13  30  13
M  END
>  <DihAtoms>  (1) 
12,17,30,31

>  <DihDeg>  (1) 
122.7538824366712

$$$$
