
 OpenBabel03272509313D

 35 37  0  0  1  0  0  0  0  0999 V2000
   36.5270   30.8220   48.8570 C   0  0  2  0  0  0  0  0  0  0  0  0
   37.4990   31.5370   49.7440 C   0  0  0  0  0  0  0  0  0  0  0  0
   38.1770   30.6190   50.7360 C   0  0  0  0  0  0  0  0  0  0  0  0
   37.1480   29.8790   51.5810 C   0  0  0  0  0  0  0  0  0  0  0  0
   35.9100   29.4770   50.8260 C   0  0  0  0  0  0  0  0  0  0  0  0
   36.2380   29.4370   49.3260 C   0  0  1  0  0  0  0  0  0  0  0  0
   35.5300   31.3650   48.7630 H   0  0  0  0  0  0  0  0  0  0  0  0
   36.8440   32.1980   50.4070 H   0  0  0  0  0  0  0  0  0  0  0  0
   38.1890   32.2170   49.2830 H   0  0  0  0  0  0  0  0  0  0  0  0
   38.7220   31.2730   51.4540 H   0  0  0  0  0  0  0  0  0  0  0  0
   38.8820   29.9180   50.2970 H   0  0  0  0  0  0  0  0  0  0  0  0
   36.8230   30.4960   52.4550 H   0  0  0  0  0  0  0  0  0  0  0  0
   37.6530   28.9900   52.0160 H   0  0  0  0  0  0  0  0  0  0  0  0
   35.0610   30.1570   50.9260 H   0  0  0  0  0  0  0  0  0  0  0  0
   35.6320   28.4440   51.1060 H   0  0  0  0  0  0  0  0  0  0  0  0
   37.1200   28.8420   49.3240 H   0  0  0  0  0  0  0  0  0  0  0  0
   37.0310   30.7580   47.4560 C   0  0  0  0  0  0  0  0  0  0  0  0
   38.4090   30.9320   47.2970 C   0  0  0  0  0  0  0  0  0  0  0  0
   38.9010   30.8690   45.9870 C   0  0  0  0  0  0  0  0  0  0  0  0
   38.0200   30.6420   44.9550 N   0  0  0  0  0  0  0  0  0  0  0  0
   36.6760   30.4760   45.1690 C   0  0  0  0  0  0  0  0  0  0  0  0
   36.2010   30.5380   46.4240 N   0  0  0  0  0  0  0  0  0  0  0  0
   39.1940   31.1040   48.0070 H   0  0  0  0  0  0  0  0  0  0  0  0
   39.9320   30.9860   45.7250 H   0  0  0  0  0  0  0  0  0  0  0  0
   36.0580   30.3030   44.3100 H   0  0  0  0  0  0  0  0  0  0  0  0
   33.9450   28.4960   48.8080 C   0  0  0  0  0  0  0  0  0  0  0  0
   33.1910   28.9260   49.7290 O   0  0  0  0  0  0  0  0  0  0  0  0
   35.3230   28.7000   48.5360 N   0  0  0  0  0  0  0  0  0  0  0  0
   35.5350   28.1920   47.6220 H   0  0  0  0  0  0  0  0  0  0  0  0
   32.9740   27.6740   48.0360 C   0  0  0  0  0  3  0  0  0  0  0  0
   33.6670   26.3490   47.7870 C   0  0  0  0  0  2  0  0  0  0  0  0
   32.6990   25.4600   47.0390 C   0  0  0  0  0  2  0  0  0  0  0  0
   31.5100   26.2460   46.5420 C   0  0  0  0  0  2  0  0  0  0  0  0
   30.7330   26.8720   47.6850 C   0  0  0  0  0  2  0  0  0  0  0  0
   31.6900   27.4120   48.7530 C   0  0  0  0  0  2  0  0  0  0  0  0
  1  7  1  6  0  0  0
  1  6  1  0  0  0  0
  1  2  1  0  0  0  0
  2  8  1  0  0  0  0
  2  3  1  0  0  0  0
  3 10  1  0  0  0  0
  3  4  1  0  0  0  0
  4 13  1  0  0  0  0
  4 12  1  0  0  0  0
  5 14  1  0  0  0  0
  5 15  1  0  0  0  0
  5  4  1  0  0  0  0
  6 16  1  6  0  0  0
  6  5  1  0  0  0  0
  9  2  1  0  0  0  0
 11  3  1  0  0  0  0
 17  1  1  0  0  0  0
 18 17  1  0  0  0  0
 18 23  1  0  0  0  0
 19 18  2  0  0  0  0
 20 21  2  0  0  0  0
 20 19  1  0  0  0  0
 21 22  1  0  0  0  0
 22 17  2  0  0  0  0
 24 19  1  0  0  0  0
 25 21  1  0  0  0  0
 26 27  2  0  0  0  0
 28 26  1  0  0  0  0
 28  6  1  0  0  0  0
 29 28  1  0  0  0  0
 30 35  1  0  0  0  0
 30 26  1  0  0  0  0
 31 30  1  0  0  0  0
 32 31  1  0  0  0  0
 33 32  1  0  0  0  0
 33 34  1  0  0  0  0
 34 35  1  0  0  0  0
M  END
>  <minimizedAffinity>
-6.09687328

>  <minimizedRMSD>
0.857094049

$$$$
