
 OpenBabel03272500233D

 34 36  0  0  0  0  0  0  0  0999 V2000
   38.2460   25.2880   35.7650 C   0  0  0  0  0  0  0  0  0  0  0  0
   38.1910   23.9010   35.4520 C   0  0  0  0  0  0  0  0  0  0  0  0
   38.0320   23.5300   34.1280 C   0  0  0  0  0  0  0  0  0  0  0  0
   37.9350   24.5270   33.1910 N   0  0  0  0  0  0  0  0  0  0  0  0
   37.9840   25.8000   33.4830 C   0  0  0  0  0  0  0  0  0  0  0  0
   38.1400   26.2060   34.7680 N   0  0  0  0  0  0  0  0  0  0  0  0
   38.3700   25.5930   36.7920 H   0  0  0  0  0  0  0  0  0  0  0  0
   36.2060   28.1630   34.1010 Cl  0  0  0  0  0  0  0  0  0  0  0  0
   37.0770   27.9340   32.5920 C   0  0  0  0  0  0  0  0  0  0  0  0
   37.8720   26.8060   32.4080 C   0  0  0  0  0  0  0  0  0  0  0  0
   38.5810   26.5750   31.2370 C   0  0  0  0  0  0  0  0  0  0  0  0
   38.4490   27.5500   30.2420 C   0  0  0  0  0  0  0  0  0  0  0  0
   37.6780   28.6670   30.3900 C   0  0  0  0  0  0  0  0  0  0  0  0
   37.5950   29.8110   29.0760 Cl  0  0  0  0  0  0  0  0  0  0  0  0
   36.9870   28.8570   31.5780 C   0  0  0  0  0  0  0  0  0  0  0  0
   39.1930   25.7020   31.1010 H   0  0  0  0  0  0  0  0  0  0  0  0
   39.0080   27.3720   29.3140 H   0  0  0  0  0  0  0  0  0  0  0  0
   36.1490   30.0530   31.7630 C   0  0  0  0  0  0  0  0  0  0  0  0
   35.0650   30.0250   30.8700 F   0  0  0  0  0  0  0  0  0  0  0  0
   36.8410   31.2150   31.6570 F   0  0  0  0  0  0  0  0  0  0  0  0
   35.5710   30.0350   33.0210 F   0  0  0  0  0  0  0  0  0  0  0  0
   38.3100   22.9210   36.5710 C   0  0  0  0  0  0  0  0  0  0  0  0
   38.6540   23.5770   37.7570 F   0  0  0  0  0  0  0  0  0  0  0  0
   37.0900   22.3330   36.7540 F   0  0  0  0  0  0  0  0  0  0  0  0
   39.2360   21.9370   36.3250 F   0  0  0  0  0  0  0  0  0  0  0  0
   37.9740   22.0970   33.7840 C   0  0  0  0  0  0  0  0  0  0  0  0
   38.0500   21.4120   34.6350 H   0  0  0  0  0  0  0  0  0  0  0  0
   38.7270   21.9030   32.9970 H   0  0  0  0  0  0  0  0  0  0  0  0
   36.6040   21.8350   33.1620 C   0  0  0  0  0  3  0  0  0  0  0  0
   35.8200   20.8550   34.0090 C   0  0  0  0  0  2  0  0  0  0  0  0
   35.5870   19.5460   33.2920 C   0  0  0  0  0  2  0  0  0  0  0  0
   34.8990   19.7350   31.9660 C   0  0  0  0  0  2  0  0  0  0  0  0
   35.2940   21.0290   31.2960 C   0  0  0  0  0  2  0  0  0  0  0  0
   36.7110   21.4010   31.7150 C   0  0  0  0  0  2  0  0  0  0  0  0
  1  7  1  0  0  0  0
  2  1  1  0  0  0  0
  2 22  1  0  0  0  0
  3  2  2  0  0  0  0
  4  5  2  0  0  0  0
  4  3  1  0  0  0  0
  5  6  1  0  0  0  0
  6  1  2  0  0  0  0
  9  8  1  0  0  0  0
 10  9  1  0  0  0  0
 10  5  1  0  0  0  0
 11 10  2  0  0  0  0
 12 13  2  0  0  0  0
 12 11  1  0  0  0  0
 13 15  1  0  0  0  0
 14 13  1  0  0  0  0
 15 18  1  0  0  0  0
 15  9  2  0  0  0  0
 16 11  1  0  0  0  0
 17 12  1  0  0  0  0
 18 21  1  0  0  0  0
 19 18  1  0  0  0  0
 20 18  1  0  0  0  0
 22 24  1  0  0  0  0
 22 23  1  0  0  0  0
 25 22  1  0  0  0  0
 26  3  1  0  0  0  0
 26 27  1  0  0  0  0
 28 26  1  0  0  0  0
 29 26  1  0  0  0  0
 29 30  1  0  0  0  0
 31 30  1  0  0  0  0
 32 31  1  0  0  0  0
 33 34  1  0  0  0  0
 33 32  1  0  0  0  0
 34 29  1  0  0  0  0
M  END
>  <minimizedAffinity>
-6.53154516

$$$$

 OpenBabel03272500233D

 34 36  0  0  0  0  0  0  0  0999 V2000
   37.3870   26.8790   32.9620 C   0  0  0  0  0  0  0  0  0  0  0  0
   36.7030   25.9630   32.1130 C   0  0  0  0  0  0  0  0  0  0  0  0
   37.1620   24.6600   32.0440 C   0  0  0  0  0  0  0  0  0  0  0  0
   38.2540   24.3240   32.8020 N   0  0  0  0  0  0  0  0  0  0  0  0
   38.8800   25.1680   33.5810 C   0  0  0  0  0  0  0  0  0  0  0  0
   38.4620   26.4550   33.6770 N   0  0  0  0  0  0  0  0  0  0  0  0
   37.0410   27.8970   33.0270 H   0  0  0  0  0  0  0  0  0  0  0  0
   38.2900   23.1510   35.7510 Cl  0  0  0  0  0  0  0  0  0  0  0  0
   39.8860   23.7900   35.3870 C   0  0  0  0  0  0  0  0  0  0  0  0
   40.0500   24.7190   34.3630 C   0  0  0  0  0  0  0  0  0  0  0  0
   41.2860   25.2560   34.0330 C   0  0  0  0  0  0  0  0  0  0  0  0
   42.3690   24.8070   34.7950 C   0  0  0  0  0  0  0  0  0  0  0  0
   42.2440   23.8980   35.8060 C   0  0  0  0  0  0  0  0  0  0  0  0
   43.6710   23.4150   36.6850 Cl  0  0  0  0  0  0  0  0  0  0  0  0
   40.9880   23.3860   36.1010 C   0  0  0  0  0  0  0  0  0  0  0  0
   41.4060   25.9730   33.2400 H   0  0  0  0  0  0  0  0  0  0  0  0
   43.3500   25.2290   34.5380 H   0  0  0  0  0  0  0  0  0  0  0  0
   40.8250   22.4050   37.1860 C   0  0  0  0  0  0  0  0  0  0  0  0
   40.2100   23.0090   38.2950 F   0  0  0  0  0  0  0  0  0  0  0  0
   41.9860   21.7990   37.5390 F   0  0  0  0  0  0  0  0  0  0  0  0
   39.9470   21.4090   36.7950 F   0  0  0  0  0  0  0  0  0  0  0  0
   35.5260   26.4620   31.3420 C   0  0  0  0  0  0  0  0  0  0  0  0
   35.0270   27.6320   31.9220 F   0  0  0  0  0  0  0  0  0  0  0  0
   35.9430   26.7650   30.0760 F   0  0  0  0  0  0  0  0  0  0  0  0
   34.5120   25.5410   31.2590 F   0  0  0  0  0  0  0  0  0  0  0  0
   36.4660   23.6970   31.1690 C   0  0  0  0  0  0  0  0  0  0  0  0
   36.9240   23.5490   30.1850 H   0  0  0  0  0  0  0  0  0  0  0  0
   35.4000   23.9900   31.1180 H   0  0  0  0  0  0  0  0  0  0  0  0
   36.5200   22.3360   31.8610 C   0  0  0  0  0  3  0  0  0  0  0  0
   37.2310   21.3280   30.9830 C   0  0  0  0  0  2  0  0  0  0  0  0
   36.3030   20.2350   30.5080 C   0  0  0  0  0  2  0  0  0  0  0  0
   35.6240   19.5250   31.6480 C   0  0  0  0  0  2  0  0  0  0  0  0
   35.3500   20.4470   32.8130 C   0  0  0  0  0  2  0  0  0  0  0  0
   35.1480   21.8660   32.2960 C   0  0  0  0  0  2  0  0  0  0  0  0
  1  7  1  0  0  0  0
  1  6  1  0  0  0  0
  2  1  2  0  0  0  0
  3  2  1  0  0  0  0
  3  4  2  0  0  0  0
  4  5  1  0  0  0  0
  5  6  2  0  0  0  0
  5 10  1  0  0  0  0
  9  8  1  0  0  0  0
  9 15  1  0  0  0  0
 10  9  2  0  0  0  0
 11 10  1  0  0  0  0
 11 12  2  0  0  0  0
 12 13  1  0  0  0  0
 13 15  2  0  0  0  0
 13 14  1  0  0  0  0
 15 18  1  0  0  0  0
 16 11  1  0  0  0  0
 17 12  1  0  0  0  0
 18 20  1  0  0  0  0
 18 19  1  0  0  0  0
 21 18  1  0  0  0  0
 22 23  1  0  0  0  0
 22  2  1  0  0  0  0
 24 22  1  0  0  0  0
 25 22  1  0  0  0  0
 26 29  1  0  0  0  0
 26  3  1  0  0  0  0
 27 26  1  0  0  0  0
 28 26  1  0  0  0  0
 29 34  1  0  0  0  0
 30 29  1  0  0  0  0
 31 30  1  0  0  0  0
 31 32  1  0  0  0  0
 32 33  1  0  0  0  0
 34 33  1  0  0  0  0
M  END
>  <minimizedAffinity>
-6.42059278

$$$$

 OpenBabel03272500233D

 34 36  0  0  0  0  0  0  0  0999 V2000
   37.7230   28.6870   30.8400 C   0  0  0  0  0  0  0  0  0  0  0  0
   36.6600   29.5210   31.2860 C   0  0  0  0  0  0  0  0  0  0  0  0
   35.9080   29.1080   32.3720 C   0  0  0  0  0  0  0  0  0  0  0  0
   36.2340   27.9110   32.9570 N   0  0  0  0  0  0  0  0  0  0  0  0
   37.2100   27.1460   32.5440 C   0  0  0  0  0  0  0  0  0  0  0  0
   37.9720   27.5150   31.4830 N   0  0  0  0  0  0  0  0  0  0  0  0
   38.3180   28.9960   29.9960 H   0  0  0  0  0  0  0  0  0  0  0  0
   37.6800   27.3630   35.5210 Cl  0  0  0  0  0  0  0  0  0  0  0  0
   37.7200   25.8620   34.6080 C   0  0  0  0  0  0  0  0  0  0  0  0
   37.4900   25.8710   33.2360 C   0  0  0  0  0  0  0  0  0  0  0  0
   37.5100   24.7160   32.4660 C   0  0  0  0  0  0  0  0  0  0  0  0
   37.7780   23.5290   33.1570 C   0  0  0  0  0  0  0  0  0  0  0  0
   38.0080   23.4840   34.5010 C   0  0  0  0  0  0  0  0  0  0  0  0
   38.3310   21.9410   35.2480 Cl  0  0  0  0  0  0  0  0  0  0  0  0
   37.9780   24.6640   35.2310 C   0  0  0  0  0  0  0  0  0  0  0  0
   37.3310   24.7310   31.4060 H   0  0  0  0  0  0  0  0  0  0  0  0
   37.7950   22.6120   32.5530 H   0  0  0  0  0  0  0  0  0  0  0  0
   38.2230   24.6430   36.6820 C   0  0  0  0  0  0  0  0  0  0  0  0
   37.2310   23.8870   37.3280 F   0  0  0  0  0  0  0  0  0  0  0  0
   38.3290   25.8810   37.2260 F   0  0  0  0  0  0  0  0  0  0  0  0
   39.4060   23.9760   36.9520 F   0  0  0  0  0  0  0  0  0  0  0  0
   36.4160   30.8010   30.5570 C   0  0  0  0  0  0  0  0  0  0  0  0
   37.0220   31.8660   31.2290 F   0  0  0  0  0  0  0  0  0  0  0  0
   36.9880   30.7020   29.3200 F   0  0  0  0  0  0  0  0  0  0  0  0
   35.0810   31.0790   30.3980 F   0  0  0  0  0  0  0  0  0  0  0  0
   34.8030   29.9600   32.8490 C   0  0  0  0  0  0  0  0  0  0  0  0
   33.8030   29.5250   32.7460 H   0  0  0  0  0  0  0  0  0  0  0  0
   34.9020   30.9510   32.3660 H   0  0  0  0  0  0  0  0  0  0  0  0
   35.0110   30.1740   34.3470 C   0  0  0  0  0  3  0  0  0  0  0  0
   33.6950   30.0430   35.0840 C   0  0  0  0  0  2  0  0  0  0  0  0
   33.2560   31.3510   35.6980 C   0  0  0  0  0  2  0  0  0  0  0  0
   34.2980   31.9300   36.6180 C   0  0  0  0  0  2  0  0  0  0  0  0
   35.7020   31.6180   36.1580 C   0  0  0  0  0  2  0  0  0  0  0  0
   35.7170   31.4810   34.6410 C   0  0  0  0  0  2  0  0  0  0  0  0
  1  2  2  0  0  0  0
  1  6  1  0  0  0  0
  2  3  1  0  0  0  0
  3 26  1  0  0  0  0
  3  4  2  0  0  0  0
  5  4  1  0  0  0  0
  5 10  1  0  0  0  0
  6  5  2  0  0  0  0
  7  1  1  0  0  0  0
  9 15  1  0  0  0  0
  9  8  1  0  0  0  0
 10  9  2  0  0  0  0
 11 12  2  0  0  0  0
 11 10  1  0  0  0  0
 12 13  1  0  0  0  0
 13 15  2  0  0  0  0
 13 14  1  0  0  0  0
 15 18  1  0  0  0  0
 16 11  1  0  0  0  0
 17 12  1  0  0  0  0
 18 21  1  0  0  0  0
 18 20  1  0  0  0  0
 18 19  1  0  0  0  0
 22 23  1  0  0  0  0
 22  2  1  0  0  0  0
 24 22  1  0  0  0  0
 25 22  1  0  0  0  0
 26 29  1  0  0  0  0
 27 26  1  0  0  0  0
 28 26  1  0  0  0  0
 29 34  1  0  0  0  0
 29 30  1  0  0  0  0
 30 31  1  0  0  0  0
 31 32  1  0  0  0  0
 33 32  1  0  0  0  0
 34 33  1  0  0  0  0
M  END
>  <minimizedAffinity>
-6.37030888

$$$$

 OpenBabel03272500233D

 34 36  0  0  0  0  0  0  0  0999 V2000
   37.4200   28.2670   31.5700 C   0  0  0  0  0  0  0  0  0  0  0  0
   36.4530   29.2340   31.9670 C   0  0  0  0  0  0  0  0  0  0  0  0
   35.9440   29.1680   33.2520 C   0  0  0  0  0  0  0  0  0  0  0  0
   36.4030   28.1700   34.0720 N   0  0  0  0  0  0  0  0  0  0  0  0
   37.2910   27.2830   33.7040 C   0  0  0  0  0  0  0  0  0  0  0  0
   37.8150   27.3130   32.4520 N   0  0  0  0  0  0  0  0  0  0  0  0
   37.8260   28.3060   30.5720 H   0  0  0  0  0  0  0  0  0  0  0  0
   37.4720   24.4880   32.5700 Cl  0  0  0  0  0  0  0  0  0  0  0  0
   37.8450   24.9200   34.2330 C   0  0  0  0  0  0  0  0  0  0  0  0
   37.7290   26.2410   34.6550 C   0  0  0  0  0  0  0  0  0  0  0  0
   38.0110   26.6380   35.9550 C   0  0  0  0  0  0  0  0  0  0  0  0
   38.4220   25.6230   36.8260 C   0  0  0  0  0  0  0  0  0  0  0  0
   38.5470   24.3190   36.4450 C   0  0  0  0  0  0  0  0  0  0  0  0
   39.0700   23.1440   37.6240 Cl  0  0  0  0  0  0  0  0  0  0  0  0
   38.2550   23.9670   35.1350 C   0  0  0  0  0  0  0  0  0  0  0  0
   37.9190   27.6600   36.2740 H   0  0  0  0  0  0  0  0  0  0  0  0
   38.6460   25.9320   37.8560 H   0  0  0  0  0  0  0  0  0  0  0  0
   38.3810   22.5670   34.6980 C   0  0  0  0  0  0  0  0  0  0  0  0
   37.1080   22.0030   34.5110 F   0  0  0  0  0  0  0  0  0  0  0  0
   39.1340   21.8110   35.5350 F   0  0  0  0  0  0  0  0  0  0  0  0
   38.9780   22.5130   33.4500 F   0  0  0  0  0  0  0  0  0  0  0  0
   36.0420   30.2680   30.9720 C   0  0  0  0  0  0  0  0  0  0  0  0
   36.6730   31.4850   31.2480 F   0  0  0  0  0  0  0  0  0  0  0  0
   36.4490   29.8550   29.7350 F   0  0  0  0  0  0  0  0  0  0  0  0
   34.6850   30.4700   30.9400 F   0  0  0  0  0  0  0  0  0  0  0  0
   34.9420   30.1620   33.6810 C   0  0  0  0  0  0  0  0  0  0  0  0
   34.2690   29.8290   34.4780 H   0  0  0  0  0  0  0  0  0  0  0  0
   34.4110   30.5230   32.7800 H   0  0  0  0  0  0  0  0  0  0  0  0
   35.7050   31.3560   34.2540 C   0  0  0  0  0  3  0  0  0  0  0  0
   35.8880   31.1940   35.7480 C   0  0  0  0  0  2  0  0  0  0  0  0
   35.1240   32.2360   36.5290 C   0  0  0  0  0  2  0  0  0  0  0  0
   35.4900   33.6390   36.1210 C   0  0  0  0  0  2  0  0  0  0  0  0
   35.8310   33.7360   34.6540 C   0  0  0  0  0  2  0  0  0  0  0  0
   35.0570   32.6730   33.8840 C   0  0  0  0  0  2  0  0  0  0  0  0
  1  2  2  0  0  0  0
  1  6  1  0  0  0  0
  2  3  1  0  0  0  0
  3 26  1  0  0  0  0
  3  4  2  0  0  0  0
  5  4  1  0  0  0  0
  5 10  1  0  0  0  0
  6  5  2  0  0  0  0
  7  1  1  0  0  0  0
  8  9  1  0  0  0  0
  9 10  2  0  0  0  0
  9 15  1  0  0  0  0
 10 11  1  0  0  0  0
 11 16  1  0  0  0  0
 11 12  2  0  0  0  0
 12 17  1  0  0  0  0
 13 12  1  0  0  0  0
 13 14  1  0  0  0  0
 15 13  2  0  0  0  0
 18 15  1  0  0  0  0
 18 20  1  0  0  0  0
 19 18  1  0  0  0  0
 21 18  1  0  0  0  0
 22 23  1  0  0  0  0
 22  2  1  0  0  0  0
 24 22  1  0  0  0  0
 25 22  1  0  0  0  0
 26 29  1  0  0  0  0
 26 27  1  0  0  0  0
 28 26  1  0  0  0  0
 29 30  1  0  0  0  0
 30 31  1  0  0  0  0
 32 31  1  0  0  0  0
 33 32  1  0  0  0  0
 34 29  1  0  0  0  0
 34 33  1  0  0  0  0
M  END
>  <minimizedAffinity>
-6.32914162

$$$$

 OpenBabel03272500233D

 34 36  0  0  0  0  0  0  0  0999 V2000
   35.6590   22.5820   31.4800 C   0  0  0  0  0  0  0  0  0  0  0  0
   36.2680   21.9360   32.5930 C   0  0  0  0  0  0  0  0  0  0  0  0
   37.4240   22.4820   33.1210 C   0  0  0  0  0  0  0  0  0  0  0  0
   37.9180   23.6210   32.5390 N   0  0  0  0  0  0  0  0  0  0  0  0
   37.3570   24.2120   31.5170 C   0  0  0  0  0  0  0  0  0  0  0  0
   36.2220   23.7090   30.9690 N   0  0  0  0  0  0  0  0  0  0  0  0
   34.7580   22.1690   31.0580 H   0  0  0  0  0  0  0  0  0  0  0  0
   35.7790   26.7510   31.9540 Cl  0  0  0  0  0  0  0  0  0  0  0  0
   37.3120   26.6610   31.1000 C   0  0  0  0  0  0  0  0  0  0  0  0
   37.9590   25.4370   30.9530 C   0  0  0  0  0  0  0  0  0  0  0  0
   39.1710   25.3080   30.2880 C   0  0  0  0  0  0  0  0  0  0  0  0
   39.7100   26.4900   29.7680 C   0  0  0  0  0  0  0  0  0  0  0  0
   39.1010   27.7050   29.8940 C   0  0  0  0  0  0  0  0  0  0  0  0
   39.8740   29.1080   29.2020 Cl  0  0  0  0  0  0  0  0  0  0  0  0
   37.8910   27.7880   30.5670 C   0  0  0  0  0  0  0  0  0  0  0  0
   39.6650   24.3600   30.1780 H   0  0  0  0  0  0  0  0  0  0  0  0
   40.6680   26.3930   29.2410 H   0  0  0  0  0  0  0  0  0  0  0  0
   37.2140   29.0860   30.7170 C   0  0  0  0  0  0  0  0  0  0  0  0
   37.0720   29.4020   32.0780 F   0  0  0  0  0  0  0  0  0  0  0  0
   36.0230   29.1470   30.0720 F   0  0  0  0  0  0  0  0  0  0  0  0
   38.0090   30.0960   30.2020 F   0  0  0  0  0  0  0  0  0  0  0  0
   35.6230   20.7010   33.1290 C   0  0  0  0  0  0  0  0  0  0  0  0
   35.3590   20.8450   34.4940 F   0  0  0  0  0  0  0  0  0  0  0  0
   34.4300   20.5300   32.4860 F   0  0  0  0  0  0  0  0  0  0  0  0
   36.3850   19.5750   32.9420 F   0  0  0  0  0  0  0  0  0  0  0  0
   38.0690   21.8260   34.2750 C   0  0  0  0  0  0  0  0  0  0  0  0
   39.0700   21.4280   34.0820 H   0  0  0  0  0  0  0  0  0  0  0  0
   37.3660   21.0720   34.6760 H   0  0  0  0  0  0  0  0  0  0  0  0
   38.2460   22.8880   35.3590 C   0  0  0  0  0  3  0  0  0  0  0  0
   39.7030   22.9980   35.7530 C   0  0  0  0  0  2  0  0  0  0  0  0
   39.9420   22.5510   37.1750 C   0  0  0  0  0  2  0  0  0  0  0  0
   39.0900   23.3030   38.1620 C   0  0  0  0  0  2  0  0  0  0  0  0
   37.7450   23.6780   37.5880 C   0  0  0  0  0  2  0  0  0  0  0  0
   37.3370   22.6440   36.5450 C   0  0  0  0  0  2  0  0  0  0  0  0
  1  2  1  0  0  0  0
  2  3  2  0  0  0  0
  2 22  1  0  0  0  0
  3 26  1  0  0  0  0
  4  3  1  0  0  0  0
  5  4  2  0  0  0  0
  6  1  2  0  0  0  0
  6  5  1  0  0  0  0
  7  1  1  0  0  0  0
  9  8  1  0  0  0  0
 10  9  1  0  0  0  0
 10  5  1  0  0  0  0
 11 10  2  0  0  0  0
 12 13  2  0  0  0  0
 12 11  1  0  0  0  0
 13 15  1  0  0  0  0
 14 13  1  0  0  0  0
 15 18  1  0  0  0  0
 15  9  2  0  0  0  0
 16 11  1  0  0  0  0
 17 12  1  0  0  0  0
 18 19  1  0  0  0  0
 20 18  1  0  0  0  0
 21 18  1  0  0  0  0
 22 23  1  0  0  0  0
 24 22  1  0  0  0  0
 25 22  1  0  0  0  0
 26 28  1  0  0  0  0
 26 29  1  0  0  0  0
 27 26  1  0  0  0  0
 29 30  1  0  0  0  0
 29 34  1  0  0  0  0
 30 31  1  0  0  0  0
 31 32  1  0  0  0  0
 33 32  1  0  0  0  0
 34 33  1  0  0  0  0
M  END
>  <minimizedAffinity>
-6.23731279

$$$$

 OpenBabel03272500233D

 34 36  0  0  0  0  0  0  0  0999 V2000
   37.2920   29.0770   30.5650 C   0  0  0  0  0  0  0  0  0  0  0  0
   36.2500   29.8140   31.1950 C   0  0  0  0  0  0  0  0  0  0  0  0
   35.5340   29.2060   32.2110 C   0  0  0  0  0  0  0  0  0  0  0  0
   35.8720   27.9210   32.5520 N   0  0  0  0  0  0  0  0  0  0  0  0
   36.8290   27.2470   31.9700 C   0  0  0  0  0  0  0  0  0  0  0  0
   37.5550   27.8070   30.9700 N   0  0  0  0  0  0  0  0  0  0  0  0
   37.8590   29.5380   29.7720 H   0  0  0  0  0  0  0  0  0  0  0  0
   35.1650   25.0940   30.6570 Cl  0  0  0  0  0  0  0  0  0  0  0  0
   36.4140   24.8000   31.8590 C   0  0  0  0  0  0  0  0  0  0  0  0
   37.1240   25.8660   32.4030 C   0  0  0  0  0  0  0  0  0  0  0  0
   38.1210   25.6920   33.3540 C   0  0  0  0  0  0  0  0  0  0  0  0
   38.3720   24.3700   33.7380 C   0  0  0  0  0  0  0  0  0  0  0  0
   37.6940   23.3030   33.2250 C   0  0  0  0  0  0  0  0  0  0  0  0
   38.0990   21.7010   33.7850 Cl  0  0  0  0  0  0  0  0  0  0  0  0
   36.7060   23.5240   32.2760 C   0  0  0  0  0  0  0  0  0  0  0  0
   38.6660   26.5200   33.7700 H   0  0  0  0  0  0  0  0  0  0  0  0
   39.1590   24.2270   34.4910 H   0  0  0  0  0  0  0  0  0  0  0  0
   35.9600   22.3900   31.7060 C   0  0  0  0  0  0  0  0  0  0  0  0
   35.0680   21.8720   32.6590 F   0  0  0  0  0  0  0  0  0  0  0  0
   36.7630   21.4170   31.2060 F   0  0  0  0  0  0  0  0  0  0  0  0
   35.1540   22.8270   30.6700 F   0  0  0  0  0  0  0  0  0  0  0  0
   35.9880   31.2070   30.7250 C   0  0  0  0  0  0  0  0  0  0  0  0
   36.6240   32.1290   31.5620 F   0  0  0  0  0  0  0  0  0  0  0  0
   36.5180   31.3400   29.4730 F   0  0  0  0  0  0  0  0  0  0  0  0
   34.6510   31.5090   30.6670 F   0  0  0  0  0  0  0  0  0  0  0  0
   34.4510   29.9550   32.8770 C   0  0  0  0  0  0  0  0  0  0  0  0
   33.4800   29.4490   32.8950 H   0  0  0  0  0  0  0  0  0  0  0  0
   34.4110   30.9670   32.4310 H   0  0  0  0  0  0  0  0  0  0  0  0
   34.8550   30.1300   34.3400 C   0  0  0  0  0  3  0  0  0  0  0  0
   33.6360   30.0510   35.2340 C   0  0  0  0  0  2  0  0  0  0  0  0
   33.3460   31.3670   35.9150 C   0  0  0  0  0  2  0  0  0  0  0  0
   34.5230   31.8750   36.7040 C   0  0  0  0  0  2  0  0  0  0  0  0
   35.8410   31.5020   36.0680 C   0  0  0  0  0  2  0  0  0  0  0  0
   35.6590   31.3940   34.5590 C   0  0  0  0  0  2  0  0  0  0  0  0
  1  6  2  0  0  0  0
  1  2  1  0  0  0  0
  2  3  2  0  0  0  0
  3  4  1  0  0  0  0
  3 26  1  0  0  0  0
  5 10  1  0  0  0  0
  5  4  2  0  0  0  0
  6  5  1  0  0  0  0
  7  1  1  0  0  0  0
  8  9  1  0  0  0  0
  9 15  2  0  0  0  0
  9 10  1  0  0  0  0
 10 11  2  0  0  0  0
 11 12  1  0  0  0  0
 11 16  1  0  0  0  0
 12 17  1  0  0  0  0
 13 12  2  0  0  0  0
 13 14  1  0  0  0  0
 15 13  1  0  0  0  0
 18 15  1  0  0  0  0
 18 19  1  0  0  0  0
 20 18  1  0  0  0  0
 21 18  1  0  0  0  0
 22  2  1  0  0  0  0
 22 23  1  0  0  0  0
 24 22  1  0  0  0  0
 25 22  1  0  0  0  0
 26 27  1  0  0  0  0
 26 29  1  0  0  0  0
 28 26  1  0  0  0  0
 29 34  1  0  0  0  0
 29 30  1  0  0  0  0
 30 31  1  0  0  0  0
 31 32  1  0  0  0  0
 33 32  1  0  0  0  0
 34 33  1  0  0  0  0
M  END
>  <minimizedAffinity>
-6.19487667

$$$$

 OpenBabel03272500233D

 34 36  0  0  0  0  0  0  0  0999 V2000
   35.3920   24.9960   31.1700 C   0  0  0  0  0  0  0  0  0  0  0  0
   36.5580   24.3260   31.6370 C   0  0  0  0  0  0  0  0  0  0  0  0
   37.6870   25.0790   31.9070 C   0  0  0  0  0  0  0  0  0  0  0  0
   37.6170   26.4330   31.7070 N   0  0  0  0  0  0  0  0  0  0  0  0
   36.5450   27.0460   31.2770 C   0  0  0  0  0  0  0  0  0  0  0  0
   35.4160   26.3450   31.0010 N   0  0  0  0  0  0  0  0  0  0  0  0
   34.5050   24.4240   30.9560 H   0  0  0  0  0  0  0  0  0  0  0  0
   35.6550   28.6650   33.6680 Cl  0  0  0  0  0  0  0  0  0  0  0  0
   36.1670   29.3480   32.1310 C   0  0  0  0  0  0  0  0  0  0  0  0
   36.5590   28.5110   31.0900 C   0  0  0  0  0  0  0  0  0  0  0  0
   36.9730   28.9960   29.8570 C   0  0  0  0  0  0  0  0  0  0  0  0
   36.9730   30.3880   29.7180 C   0  0  0  0  0  0  0  0  0  0  0  0
   36.5950   31.2360   30.7180 C   0  0  0  0  0  0  0  0  0  0  0  0
   36.6390   32.9550   30.4230 Cl  0  0  0  0  0  0  0  0  0  0  0  0
   36.1890   30.7080   31.9350 C   0  0  0  0  0  0  0  0  0  0  0  0
   37.2740   28.3430   29.0570 H   0  0  0  0  0  0  0  0  0  0  0  0
   37.2990   30.7760   28.7450 H   0  0  0  0  0  0  0  0  0  0  0  0
   35.7770   31.6010   33.0300 C   0  0  0  0  0  0  0  0  0  0  0  0
   35.9010   30.9420   34.2640 F   0  0  0  0  0  0  0  0  0  0  0  0
   34.5290   32.1070   32.8670 F   0  0  0  0  0  0  0  0  0  0  0  0
   36.6450   32.6760   33.1150 F   0  0  0  0  0  0  0  0  0  0  0  0
   36.4960   22.8450   31.8110 C   0  0  0  0  0  0  0  0  0  0  0  0
   37.4880   22.2250   31.0460 F   0  0  0  0  0  0  0  0  0  0  0  0
   36.7380   22.5600   33.1260 F   0  0  0  0  0  0  0  0  0  0  0  0
   35.2770   22.3160   31.4680 F   0  0  0  0  0  0  0  0  0  0  0  0
   38.9040   24.4010   32.3930 C   0  0  0  0  0  0  0  0  0  0  0  0
   39.7810   24.5000   31.7450 H   0  0  0  0  0  0  0  0  0  0  0  0
   38.6430   23.3500   32.6200 H   0  0  0  0  0  0  0  0  0  0  0  0
   39.2910   25.0580   33.7170 C   0  0  0  0  0  3  0  0  0  0  0  0
   38.2490   24.7610   34.7750 C   0  0  0  0  0  2  0  0  0  0  0  0
   37.5120   26.0050   35.2100 C   0  0  0  0  0  2  0  0  0  0  0  0
   38.4450   27.0800   35.7020 C   0  0  0  0  0  2  0  0  0  0  0  0
   39.7660   27.0690   34.9720 C   0  0  0  0  0  2  0  0  0  0  0  0
   39.5560   26.5400   33.5580 C   0  0  0  0  0  2  0  0  0  0  0  0
  1  2  1  0  0  0  0
  2 22  1  0  0  0  0
  2  3  2  0  0  0  0
  3 26  1  0  0  0  0
  4  3  1  0  0  0  0
  5  4  2  0  0  0  0
  6  1  2  0  0  0  0
  6  5  1  0  0  0  0
  7  1  1  0  0  0  0
  9  8  1  0  0  0  0
 10  5  1  0  0  0  0
 10  9  2  0  0  0  0
 11 10  1  0  0  0  0
 12 11  2  0  0  0  0
 12 13  1  0  0  0  0
 13 15  2  0  0  0  0
 14 13  1  0  0  0  0
 15  9  1  0  0  0  0
 15 18  1  0  0  0  0
 16 11  1  0  0  0  0
 17 12  1  0  0  0  0
 18 21  1  0  0  0  0
 18 19  1  0  0  0  0
 20 18  1  0  0  0  0
 22 24  1  0  0  0  0
 23 22  1  0  0  0  0
 25 22  1  0  0  0  0
 26 28  1  0  0  0  0
 26 29  1  0  0  0  0
 27 26  1  0  0  0  0
 29 30  1  0  0  0  0
 30 31  1  0  0  0  0
 31 32  1  0  0  0  0
 33 32  1  0  0  0  0
 34 29  1  0  0  0  0
 34 33  1  0  0  0  0
M  END
>  <minimizedAffinity>
-6.15070105

$$$$

 OpenBabel03272500233D

 34 36  0  0  0  0  0  0  0  0999 V2000
   36.7810   29.7820   31.0810 C   0  0  0  0  0  0  0  0  0  0  0  0
   37.5080   28.5930   31.3730 C   0  0  0  0  0  0  0  0  0  0  0  0
   37.1120   27.8260   32.4540 C   0  0  0  0  0  0  0  0  0  0  0  0
   36.0360   28.2590   33.1860 N   0  0  0  0  0  0  0  0  0  0  0  0
   35.3700   29.3510   32.9150 C   0  0  0  0  0  0  0  0  0  0  0  0
   35.7260   30.1310   31.8640 N   0  0  0  0  0  0  0  0  0  0  0  0
   37.0770   30.3890   30.2420 H   0  0  0  0  0  0  0  0  0  0  0  0
   36.0590   30.9570   35.3800 Cl  0  0  0  0  0  0  0  0  0  0  0  0
   34.4310   30.4830   34.9170 C   0  0  0  0  0  0  0  0  0  0  0  0
   34.2220   29.7410   33.7580 C   0  0  0  0  0  0  0  0  0  0  0  0
   32.9580   29.3400   33.3450 C   0  0  0  0  0  0  0  0  0  0  0  0
   31.8960   29.7280   34.1690 C   0  0  0  0  0  0  0  0  0  0  0  0
   32.0660   30.4550   35.3120 C   0  0  0  0  0  0  0  0  0  0  0  0
   30.6610   30.8790   36.2560 Cl  0  0  0  0  0  0  0  0  0  0  0  0
   33.3470   30.8350   35.6860 C   0  0  0  0  0  0  0  0  0  0  0  0
   32.8040   28.7670   32.4490 H   0  0  0  0  0  0  0  0  0  0  0  0
   30.8950   29.4130   33.8470 H   0  0  0  0  0  0  0  0  0  0  0  0
   33.5580   31.6200   36.9140 C   0  0  0  0  0  0  0  0  0  0  0  0
   32.9660   32.8870   36.7840 F   0  0  0  0  0  0  0  0  0  0  0  0
   34.8630   31.7220   37.2680 F   0  0  0  0  0  0  0  0  0  0  0  0
   32.8920   31.0270   37.9730 F   0  0  0  0  0  0  0  0  0  0  0  0
   38.6610   28.2390   30.4920 C   0  0  0  0  0  0  0  0  0  0  0  0
   38.3460   27.1280   29.7040 F   0  0  0  0  0  0  0  0  0  0  0  0
   38.8980   29.2940   29.6570 F   0  0  0  0  0  0  0  0  0  0  0  0
   39.8090   27.9730   31.1960 F   0  0  0  0  0  0  0  0  0  0  0  0
   37.8540   26.5910   32.7710 C   0  0  0  0  0  0  0  0  0  0  0  0
   38.2560   26.5400   33.7890 H   0  0  0  0  0  0  0  0  0  0  0  0
   38.6210   26.4420   31.9880 H   0  0  0  0  0  0  0  0  0  0  0  0
   36.8690   25.4290   32.6550 C   0  0  0  0  0  3  0  0  0  0  0  0
   37.5670   24.1180   32.9460 C   0  0  0  0  0  2  0  0  0  0  0  0
   37.6350   23.2290   31.7270 C   0  0  0  0  0  2  0  0  0  0  0  0
   36.2750   22.9610   31.1380 C   0  0  0  0  0  2  0  0  0  0  0  0
   35.3400   24.1360   31.3010 C   0  0  0  0  0  2  0  0  0  0  0  0
   36.1510   25.4250   31.3220 C   0  0  0  0  0  2  0  0  0  0  0  0
  1  2  2  0  0  0  0
  1  6  1  0  0  0  0
  2  3  1  0  0  0  0
  3 26  1  0  0  0  0
  3  4  2  0  0  0  0
  5  4  1  0  0  0  0
  5 10  1  0  0  0  0
  6  5  2  0  0  0  0
  7  1  1  0  0  0  0
  9  8  1  0  0  0  0
  9 15  1  0  0  0  0
 10  9  2  0  0  0  0
 11 10  1  0  0  0  0
 11 12  2  0  0  0  0
 12 13  1  0  0  0  0
 13 15  2  0  0  0  0
 13 14  1  0  0  0  0
 15 18  1  0  0  0  0
 16 11  1  0  0  0  0
 17 12  1  0  0  0  0
 18 20  1  0  0  0  0
 18 21  1  0  0  0  0
 19 18  1  0  0  0  0
 22 25  1  0  0  0  0
 22  2  1  0  0  0  0
 23 22  1  0  0  0  0
 24 22  1  0  0  0  0
 26 27  1  0  0  0  0
 28 26  1  0  0  0  0
 29 26  1  0  0  0  0
 29 30  1  0  0  0  0
 31 30  1  0  0  0  0
 32 33  1  0  0  0  0
 32 31  1  0  0  0  0
 33 34  1  0  0  0  0
 34 29  1  0  0  0  0
M  END
>  <minimizedAffinity>
-6.14436245

$$$$

 OpenBabel03272500233D

 34 36  0  0  0  0  0  0  0  0999 V2000
   38.7400   25.2720   35.7670 C   0  0  0  0  0  0  0  0  0  0  0  0
   38.4830   23.8890   35.5480 C   0  0  0  0  0  0  0  0  0  0  0  0
   38.4460   23.4240   34.2450 C   0  0  0  0  0  0  0  0  0  0  0  0
   38.6600   24.3270   33.2370 N   0  0  0  0  0  0  0  0  0  0  0  0
   38.8950   25.5970   33.4410 C   0  0  0  0  0  0  0  0  0  0  0  0
   38.9400   26.0940   34.7040 N   0  0  0  0  0  0  0  0  0  0  0  0
   38.7710   25.6490   36.7770 H   0  0  0  0  0  0  0  0  0  0  0  0
   36.4470   27.0750   32.4680 Cl  0  0  0  0  0  0  0  0  0  0  0  0
   38.0520   27.2280   31.7680 C   0  0  0  0  0  0  0  0  0  0  0  0
   39.1150   26.5000   32.2930 C   0  0  0  0  0  0  0  0  0  0  0  0
   40.4030   26.5820   31.7800 C   0  0  0  0  0  0  0  0  0  0  0  0
   40.5720   27.4460   30.6940 C   0  0  0  0  0  0  0  0  0  0  0  0
   39.5510   28.1740   30.1540 C   0  0  0  0  0  0  0  0  0  0  0  0
   39.8880   29.2200   28.7990 Cl  0  0  0  0  0  0  0  0  0  0  0  0
   38.2800   28.0620   30.7000 C   0  0  0  0  0  0  0  0  0  0  0  0
   41.2200   26.0160   32.1910 H   0  0  0  0  0  0  0  0  0  0  0  0
   41.5880   27.5150   30.2840 H   0  0  0  0  0  0  0  0  0  0  0  0
   37.1620   28.8360   30.1370 C   0  0  0  0  0  0  0  0  0  0  0  0
   37.3910   30.2110   30.3100 F   0  0  0  0  0  0  0  0  0  0  0  0
   35.9540   28.4730   30.6360 F   0  0  0  0  0  0  0  0  0  0  0  0
   37.1070   28.6580   28.7650 F   0  0  0  0  0  0  0  0  0  0  0  0
   38.2670   23.0150   36.7390 C   0  0  0  0  0  0  0  0  0  0  0  0
   39.2230   21.9960   36.7720 F   0  0  0  0  0  0  0  0  0  0  0  0
   38.4270   23.7780   37.8610 F   0  0  0  0  0  0  0  0  0  0  0  0
   37.0160   22.4510   36.7690 F   0  0  0  0  0  0  0  0  0  0  0  0
   38.1820   21.9930   33.9990 C   0  0  0  0  0  0  0  0  0  0  0  0
   38.0960   21.3750   34.8990 H   0  0  0  0  0  0  0  0  0  0  0  0
   38.9400   21.6240   33.2830 H   0  0  0  0  0  0  0  0  0  0  0  0
   36.8270   21.8970   33.3000 C   0  0  0  0  0  3  0  0  0  0  0  0
   35.9130   20.9530   34.0520 C   0  0  0  0  0  2  0  0  0  0  0  0
   35.5960   19.7120   33.2520 C   0  0  0  0  0  2  0  0  0  0  0  0
   34.9980   20.0350   31.9090 C   0  0  0  0  0  2  0  0  0  0  0  0
   35.5460   21.3190   31.3330 C   0  0  0  0  0  2  0  0  0  0  0  0
   36.9680   21.5310   31.8380 C   0  0  0  0  0  2  0  0  0  0  0  0
  1  7  1  0  0  0  0
  2  1  1  0  0  0  0
  2 22  1  0  0  0  0
  3  2  2  0  0  0  0
  4  5  2  0  0  0  0
  4  3  1  0  0  0  0
  5  6  1  0  0  0  0
  6  1  2  0  0  0  0
  9 10  1  0  0  0  0
  9  8  1  0  0  0  0
 10  5  1  0  0  0  0
 11 16  1  0  0  0  0
 11 10  2  0  0  0  0
 12 11  1  0  0  0  0
 13 12  2  0  0  0  0
 13 15  1  0  0  0  0
 14 13  1  0  0  0  0
 15  9  2  0  0  0  0
 17 12  1  0  0  0  0
 18 19  1  0  0  0  0
 18 20  1  0  0  0  0
 18 15  1  0  0  0  0
 21 18  1  0  0  0  0
 22 25  1  0  0  0  0
 22 23  1  0  0  0  0
 22 24  1  0  0  0  0
 26  3  1  0  0  0  0
 26 27  1  0  0  0  0
 28 26  1  0  0  0  0
 29 26  1  0  0  0  0
 29 30  1  0  0  0  0
 31 30  1  0  0  0  0
 32 31  1  0  0  0  0
 33 34  1  0  0  0  0
 33 32  1  0  0  0  0
 34 29  1  0  0  0  0
M  END
>  <minimizedAffinity>
-6.11740112

$$$$
