
 OpenBabel03272508573D

 37 40  0  0  1  0  0  0  0  0999 V2000
   38.3820   31.8600   44.5420 C   0  0  0  0  0  0  0  0  0  0  0  0
   37.2990   32.4410   44.4340 O   0  0  0  0  0  0  0  0  0  0  0  0
   38.9240   31.5650   45.8550 N   0  0  0  0  0  0  0  0  0  0  0  0
   39.8880   31.2730   46.0320 H   0  0  0  0  0  0  0  0  0  0  0  0
   39.1670   31.4460   43.3650 C   0  0  0  0  0  0  0  0  0  0  0  0
   40.2290   30.5920   43.5530 C   0  0  0  0  0  0  0  0  0  0  0  0
   40.9540   30.2180   42.4280 C   0  0  0  0  0  0  0  0  0  0  0  0
   40.5760   30.7140   41.2160 C   0  0  0  0  0  0  0  0  0  0  0  0
   39.5140   31.5690   41.0180 C   0  0  0  0  0  0  0  0  0  0  0  0
   38.8280   31.9140   42.1400 N   0  0  0  0  0  0  0  0  0  0  0  0
   40.5120   30.2070   44.5310 H   0  0  0  0  0  0  0  0  0  0  0  0
   41.7790   29.5510   42.6030 H   0  0  0  0  0  0  0  0  0  0  0  0
   41.2080   30.3510   40.4280 H   0  0  0  0  0  0  0  0  0  0  0  0
   39.1000   32.0790   39.7000 C   0  0  2  0  0  3  0  0  0  0  0  0
   39.0070   33.3590   39.5920 O   0  0  0  0  0  1  0  0  0  0  0  0
   38.7540   31.3820   38.4340 C   0  0  0  0  0  3  0  0  0  0  0  0
   39.9780   31.0540   37.6830 C   0  0  0  0  0  2  0  0  0  0  0  0
   39.7290   29.7800   36.8640 C   0  0  0  0  0  2  0  0  0  0  0  0
   39.6630   28.6780   37.9190 C   0  0  0  0  0  2  0  0  0  0  0  0
   38.4830   28.8790   38.8310 C   0  0  0  0  0  2  0  0  0  0  0  0
   37.8310   30.2130   38.6900 C   0  0  0  0  0  2  0  0  0  0  0  0
   38.4130   31.0940   48.2440 C   0  0  2  0  0  0  0  0  0  0  0  0
   38.6420   32.5580   48.1300 C   0  0  0  0  0  0  0  0  0  0  0  0
   38.0550   31.6880   46.9980 C   0  0  1  0  0  0  0  0  0  0  0  0
   39.3460   30.5070   48.3630 H   0  0  0  0  0  0  0  0  0  0  0  0
   39.6550   32.9330   48.0080 H   0  0  0  0  0  0  0  0  0  0  0  0
   37.9670   33.2010   48.7110 H   0  0  0  0  0  0  0  0  0  0  0  0
   36.9840   31.9410   46.8070 H   0  0  0  0  0  0  0  0  0  0  0  0
   35.0420   30.2080   49.5420 C   0  0  0  0  0  0  0  0  0  0  0  0
   35.3670   29.5720   50.7900 C   0  0  0  0  0  0  0  0  0  0  0  0
   36.7620   29.4760   51.1560 C   0  0  0  0  0  0  0  0  0  0  0  0
   37.7250   29.9840   50.3180 N   0  0  0  0  0  0  0  0  0  0  0  0
   37.3220   30.5710   49.1500 C   0  0  0  0  0  0  0  0  0  0  0  0
   36.0030   30.7000   48.7320 N   0  0  0  0  0  0  0  0  0  0  0  0
   34.0070   30.2650   49.2950 H   0  0  0  0  0  0  0  0  0  0  0  0
   34.6220   29.1790   51.4390 H   0  0  0  0  0  0  0  0  0  0  0  0
   37.0050   29.0060   52.0810 H   0  0  0  0  0  0  0  0  0  0  0  0
  1  3  1  0  0  0  0
  2  1  2  0  0  0  0
  3  4  1  0  0  0  0
  3 24  1  0  0  0  0
  5  6  1  0  0  0  0
  5  1  1  0  0  0  0
  6 11  1  0  0  0  0
  7 12  1  0  0  0  0
  7  6  2  0  0  0  0
  8  7  1  0  0  0  0
  9  8  2  0  0  0  0
  9 10  1  0  0  0  0
 10  5  2  0  0  0  0
 13  8  1  0  0  0  0
 14 15  1  1  0  0  0
 14  9  1  0  0  0  0
 16 21  1  0  0  0  0
 16 14  1  0  0  0  0
 17 16  1  0  0  0  0
 18 17  1  0  0  0  0
 18 19  1  0  0  0  0
 19 20  1  0  0  0  0
 21 20  1  0  0  0  0
 22 25  1  6  0  0  0
 22 33  1  0  0  0  0
 23 22  1  0  0  0  0
 23 27  1  0  0  0  0
 24 28  1  6  0  0  0
 24 23  1  0  0  0  0
 24 22  1  0  0  0  0
 26 23  1  0  0  0  0
 29 30  1  0  0  0  0
 30 31  2  0  0  0  0
 30 36  1  0  0  0  0
 31 37  1  0  0  0  0
 32 31  1  0  0  0  0
 33 32  2  0  0  0  0
 34 33  1  0  0  0  0
 34 29  2  0  0  0  0
 35 29  1  0  0  0  0
M  END
>  <minimizedAffinity>
-4.91714096

>  <minimizedRMSD>
0.654939234

$$$$
