
     RDKit          3D

 41 43  0  0  0  0  0  0  0  0999 V2000
   37.9995   31.3925   47.6305 C   0  0  0  0  0  0  0  0  0  0  0  0
   37.0802   31.3272   48.6726 C   0  0  0  0  0  0  0  0  0  0  0  0
   37.1925   32.3539   49.6325 C   0  0  0  0  0  0  0  0  0  0  0  0
   38.1804   33.3454   49.4964 C   0  0  0  0  0  0  0  0  0  0  0  0
   39.0501   33.3186   48.4156 C   0  0  0  0  0  0  0  0  0  0  0  0
   38.9627   32.3312   47.4667 C   0  0  0  0  0  0  0  0  0  0  0  0
   34.9366   30.3480   47.9804 C   0  0  0  0  0  0  0  0  0  0  0  0
   36.0803   30.3090   48.7935 C   0  0  0  0  0  0  0  0  0  0  0  0
   36.1946   29.2602   49.7019 C   0  0  0  0  0  0  0  0  0  0  0  0
   35.2014   28.3323   49.7574 N   0  0  0  0  0  0  0  0  0  0  0  0
   34.1051   28.4056   48.9497 C   0  0  0  0  0  0  0  0  0  0  0  0
   33.9778   29.4113   48.0664 N   0  0  0  0  0  0  0  0  0  0  0  0
   37.3702   29.1631   50.5804 C   0  0  0  0  0  0  0  0  0  0  0  0
   37.9472   30.4051   46.6403 O   0  0  0  0  0  0  0  0  0  0  0  0
   39.8373   32.3407   46.4127 O   0  0  0  0  0  0  0  0  0  0  0  0
   36.4753   32.2956   50.4374 H   0  0  0  0  0  0  0  0  0  0  0  0
   38.1260   34.0372   50.3009 H   0  0  0  0  0  0  0  0  0  0  0  0
   39.7080   34.1584   48.5170 H   0  0  0  0  0  0  0  0  0  0  0  0
   34.8487   31.1630   47.2751 H   0  0  0  0  0  0  0  0  0  0  0  0
   33.3269   27.6528   49.0136 H   0  0  0  0  0  0  0  0  0  0  0  0
   37.5369   30.1434   51.0848 H   0  0  0  0  0  0  0  0  0  0  0  0
   37.1636   28.3951   51.3578 H   0  0  0  0  0  0  0  0  0  0  0  0
   38.2836   28.8102   50.0566 H   0  0  0  0  0  0  0  0  0  0  0  0
   37.5313   30.5550   45.7348 H   0  0  0  0  0  0  0  0  0  0  0  0
   40.8359   33.2751   46.1958 C   0  0  0  0  0  0  0  0  0  0  0  0
   41.8461   32.8445   45.1608 C   0  0  0  0  0  0  0  0  0  0  0  0
   43.1567   32.4163   45.7361 C   0  0  0  0  0  0  0  0  0  0  0  0
   43.7540   33.3868   46.7073 C   0  0  0  0  0  0  0  0  0  0  0  0
   42.7897   34.3102   47.3586 C   0  0  0  0  0  0  0  0  0  0  0  0
   41.4893   33.5924   47.5255 C   0  0  0  0  0  0  0  0  0  0  0  0
   40.4273   34.2304   45.8352 H   0  0  0  0  0  0  0  0  0  0  0  0
   41.4118   31.9752   44.6236 H   0  0  0  0  0  0  0  0  0  0  0  0
   42.0324   33.6249   44.3959 H   0  0  0  0  0  0  0  0  0  0  0  0
   43.8700   32.3356   44.8881 H   0  0  0  0  0  0  0  0  0  0  0  0
   43.0894   31.3991   46.1748 H   0  0  0  0  0  0  0  0  0  0  0  0
   44.5460   34.0199   46.2288 H   0  0  0  0  0  0  0  0  0  0  0  0
   44.2908   32.8125   47.4890 H   0  0  0  0  0  0  0  0  0  0  0  0
   43.1618   34.5499   48.3775 H   0  0  0  0  0  0  0  0  0  0  0  0
   42.6918   35.2888   46.8496 H   0  0  0  0  0  0  0  0  0  0  0  0
   41.7199   32.6219   48.0341 H   0  0  0  0  0  0  0  0  0  0  0  0
   40.8113   34.1997   48.1216 H   0  0  0  0  0  0  0  0  0  0  0  0
  1  2  2  0
  2  8  1  0
  2  3  1  0
  4  3  2  0
  5  4  1  0
  6  1  1  0
  6  5  2  0
  7 12  2  0
  7  8  1  0
  8  9  2  0
  9 10  1  0
  9 13  1  0
 11 10  2  0
 12 11  1  0
 14  1  1  0
 15  6  1  0
  3 16  1  0
  4 17  1  0
  5 18  1  0
  7 19  1  0
 11 20  1  0
 13 21  1  0
 13 22  1  0
 13 23  1  0
 14 24  1  0
 25 26  1  0
 26 27  1  0
 27 28  1  0
 28 29  1  0
 29 30  1  0
 30 25  1  0
 25 31  1  0
 26 32  1  0
 26 33  1  0
 27 34  1  0
 27 35  1  0
 28 36  1  0
 28 37  1  0
 29 38  1  0
 29 39  1  0
 30 40  1  0
 30 41  1  0
 15 25  1  0
M  ISO  8  16  14  17  14  18  14  19  14  20  14  21   8  22   8  23   8
M  ISO  1  24   3
M  END
>  <DihAtoms>  (1) 
5,14,24,25

>  <DihDeg>  (1) 
-119.3736934615648

$$$$
