
 OpenBabel03272503213D

 34 37  0  0  0  0  0  0  0  0999 V2000
   36.6880   27.5730   33.0900 C   0  0  0  0  0  0  0  0  0  0  0  0
   36.0400   28.4240   32.2940 C   0  0  0  0  0  0  0  0  0  0  0  0
   35.4580   29.5090   32.8240 C   0  0  0  0  0  0  0  0  0  0  0  0
   35.5610   29.6930   34.1820 C   0  0  0  0  0  0  0  0  0  0  0  0
   36.5390   28.2300   34.6920 S   0  0  0  0  0  0  0  0  0  0  0  0
   36.0090   28.1990   31.2310 H   0  0  0  0  0  0  0  0  0  0  0  0
   34.9020   30.2810   32.3060 H   0  0  0  0  0  0  0  0  0  0  0  0
   32.6650   29.3720   35.0830 Cl  0  0  0  0  0  0  0  0  0  0  0  0
   33.7960   30.6220   35.5420 C   0  0  0  0  0  0  0  0  0  0  0  0
   35.0860   30.7040   35.0970 C   0  0  0  0  0  0  0  0  0  0  0  0
   35.9830   31.6430   35.4230 C   0  0  0  0  0  0  0  0  0  0  0  0
   35.5850   32.6560   36.3110 C   0  0  0  0  0  0  0  0  0  0  0  0
   34.3170   32.6430   36.7970 C   0  0  0  0  0  0  0  0  0  0  0  0
   33.7690   33.8810   37.9050 Cl  0  0  0  0  0  0  0  0  0  0  0  0
   33.4220   31.6430   36.4260 C   0  0  0  0  0  0  0  0  0  0  0  0
   37.0050   31.7150   35.0760 H   0  0  0  0  0  0  0  0  0  0  0  0
   36.2290   33.4430   36.6270 H   0  0  0  0  0  0  0  0  0  0  0  0
   32.4200   31.6730   36.8390 H   0  0  0  0  0  0  0  0  0  0  0  0
   38.7110   24.9000   31.3600 C   0  0  0  0  0  0  0  0  0  0  0  0
   38.0400   26.1170   31.5630 C   0  0  0  0  0  0  0  0  0  0  0  0
   37.4130   26.3170   32.8080 C   0  0  0  0  0  0  0  0  0  0  0  0
   37.4880   25.3590   33.7180 N   0  0  0  0  0  0  0  0  0  0  0  0
   38.1320   24.2050   33.5070 C   0  0  0  0  0  0  0  0  0  0  0  0
   38.7360   23.9850   32.3400 N   0  0  0  0  0  0  0  0  0  0  0  0
   39.1740   24.7960   30.3910 H   0  0  0  0  0  0  0  0  0  0  0  0
   37.9690   26.9150   30.8240 H   0  0  0  0  0  0  0  0  0  0  0  0
   38.1530   23.2210   34.5740 C   0  0  0  0  0  0  0  0  0  0  0  0
   37.7760   22.0490   34.3500 O   0  0  0  0  0  0  0  0  0  0  0  0
   38.6230   23.6200   35.9270 C   0  0  0  0  0  3  0  0  0  0  0  0
   37.4510   23.6930   36.9010 C   0  0  0  0  0  2  0  0  0  0  0  0
   38.0420   24.3110   38.1740 C   0  0  0  0  0  2  0  0  0  0  0  0
   38.9640   23.2730   38.7440 C   0  0  0  0  0  2  0  0  0  0  0  0
   40.0520   22.8260   37.8240 C   0  0  0  0  0  2  0  0  0  0  0  0
   39.6340   22.6090   36.4040 C   0  0  0  0  0  2  0  0  0  0  0  0
  1  5  1  0  0  0  0
  2  3  1  0  0  0  0
  2  1  2  0  0  0  0
  3  4  2  0  0  0  0
  4  5  1  0  0  0  0
  4 10  1  0  0  0  0
  6  2  1  0  0  0  0
  7  3  1  0  0  0  0
  8  9  1  0  0  0  0
  9 15  1  0  0  0  0
 10 11  1  0  0  0  0
 10  9  2  0  0  0  0
 11 12  2  0  0  0  0
 12 17  1  0  0  0  0
 12 13  1  0  0  0  0
 13 14  1  0  0  0  0
 15 13  2  0  0  0  0
 15 18  1  0  0  0  0
 16 11  1  0  0  0  0
 19 20  2  0  0  0  0
 19 24  1  0  0  0  0
 20 21  1  0  0  0  0
 21  1  1  0  0  0  0
 21 22  2  0  0  0  0
 23 22  1  0  0  0  0
 23 27  1  0  0  0  0
 24 23  2  0  0  0  0
 25 19  1  0  0  0  0
 26 20  1  0  0  0  0
 27 29  1  0  0  0  0
 28 27  2  0  0  0  0
 29 34  1  0  0  0  0
 29 30  1  0  0  0  0
 30 31  1  0  0  0  0
 31 32  1  0  0  0  0
 33 32  1  0  0  0  0
 34 33  1  0  0  0  0
M  END
>  <minimizedAffinity>
-6.80272388

$$$$

 OpenBabel03272503213D

 34 37  0  0  0  0  0  0  0  0999 V2000
   37.1260   27.2810   33.0630 C   0  0  0  0  0  0  0  0  0  0  0  0
   36.6000   28.1510   32.2020 C   0  0  0  0  0  0  0  0  0  0  0  0
   35.9260   29.2130   32.6660 C   0  0  0  0  0  0  0  0  0  0  0  0
   35.8110   29.3530   34.0290 C   0  0  0  0  0  0  0  0  0  0  0  0
   36.7170   27.8830   34.6410 S   0  0  0  0  0  0  0  0  0  0  0  0
   36.7410   27.9610   31.1410 H   0  0  0  0  0  0  0  0  0  0  0  0
   35.4480   29.9970   32.0910 H   0  0  0  0  0  0  0  0  0  0  0  0
   32.7620   29.2690   34.0760 Cl  0  0  0  0  0  0  0  0  0  0  0  0
   33.8170   30.3480   34.9580 C   0  0  0  0  0  0  0  0  0  0  0  0
   35.1820   30.3280   34.8880 C   0  0  0  0  0  0  0  0  0  0  0  0
   36.0250   31.1350   35.5450 C   0  0  0  0  0  0  0  0  0  0  0  0
   35.4780   32.1070   36.3980 C   0  0  0  0  0  0  0  0  0  0  0  0
   34.1280   32.1890   36.5210 C   0  0  0  0  0  0  0  0  0  0  0  0
   33.3940   33.3810   37.5710 Cl  0  0  0  0  0  0  0  0  0  0  0  0
   33.2940   31.3250   35.8150 C   0  0  0  0  0  0  0  0  0  0  0  0
   37.1050   31.1260   35.4950 H   0  0  0  0  0  0  0  0  0  0  0  0
   36.0690   32.7910   36.9610 H   0  0  0  0  0  0  0  0  0  0  0  0
   32.2220   31.4270   35.9450 H   0  0  0  0  0  0  0  0  0  0  0  0
   39.7610   24.8370   31.9140 C   0  0  0  0  0  0  0  0  0  0  0  0
   39.0680   26.0490   32.0660 C   0  0  0  0  0  0  0  0  0  0  0  0
   37.9050   26.0420   32.8610 C   0  0  0  0  0  0  0  0  0  0  0  0
   37.5260   24.9040   33.4200 N   0  0  0  0  0  0  0  0  0  0  0  0
   38.1990   23.7580   33.2640 C   0  0  0  0  0  0  0  0  0  0  0  0
   39.3030   23.7310   32.5190 N   0  0  0  0  0  0  0  0  0  0  0  0
   40.6440   24.8960   31.2970 H   0  0  0  0  0  0  0  0  0  0  0  0
   39.3680   26.9940   31.6120 H   0  0  0  0  0  0  0  0  0  0  0  0
   37.6950   22.5660   33.9240 C   0  0  0  0  0  0  0  0  0  0  0  0
   37.8640   22.4150   35.1540 O   0  0  0  0  0  0  0  0  0  0  0  0
   36.9800   21.5360   33.1250 C   0  0  0  0  0  3  0  0  0  0  0  0
   35.9790   20.7830   33.9960 C   0  0  0  0  0  2  0  0  0  0  0  0
   35.4810   19.6340   33.1120 C   0  0  0  0  0  2  0  0  0  0  0  0
   34.6610   20.2730   32.0300 C   0  0  0  0  0  2  0  0  0  0  0  0
   35.3840   21.2900   31.2110 C   0  0  0  0  0  2  0  0  0  0  0  0
   36.2680   22.2170   31.9840 C   0  0  0  0  0  2  0  0  0  0  0  0
  1  5  1  0  0  0  0
  2  3  1  0  0  0  0
  2  1  2  0  0  0  0
  3  4  2  0  0  0  0
  4  5  1  0  0  0  0
  4 10  1  0  0  0  0
  6  2  1  0  0  0  0
  7  3  1  0  0  0  0
  8  9  1  0  0  0  0
  9 15  1  0  0  0  0
 10  9  2  0  0  0  0
 10 11  1  0  0  0  0
 11 12  2  0  0  0  0
 12 13  1  0  0  0  0
 12 17  1  0  0  0  0
 13 14  1  0  0  0  0
 15 18  1  0  0  0  0
 15 13  2  0  0  0  0
 16 11  1  0  0  0  0
 19 20  2  0  0  0  0
 19 24  1  0  0  0  0
 20 21  1  0  0  0  0
 21  1  1  0  0  0  0
 21 22  2  0  0  0  0
 23 22  1  0  0  0  0
 23 27  1  0  0  0  0
 24 23  2  0  0  0  0
 25 19  1  0  0  0  0
 26 20  1  0  0  0  0
 27 28  2  0  0  0  0
 29 27  1  0  0  0  0
 29 30  1  0  0  0  0
 31 30  1  0  0  0  0
 32 31  1  0  0  0  0
 33 34  1  0  0  0  0
 33 32  1  0  0  0  0
 34 29  1  0  0  0  0
M  END
>  <minimizedAffinity>
-6.6320715

$$$$

 OpenBabel03272503213D

 34 37  0  0  0  0  0  0  0  0999 V2000
   37.5840   27.2000   34.3150 C   0  0  0  0  0  0  0  0  0  0  0  0
   38.0810   27.5030   35.5140 C   0  0  0  0  0  0  0  0  0  0  0  0
   38.8480   26.6100   36.1550 C   0  0  0  0  0  0  0  0  0  0  0  0
   39.0870   25.4080   35.5330 C   0  0  0  0  0  0  0  0  0  0  0  0
   38.1580   25.5980   33.9650 S   0  0  0  0  0  0  0  0  0  0  0  0
   37.8400   28.4780   35.9300 H   0  0  0  0  0  0  0  0  0  0  0  0
   39.3170   26.7170   37.1260 H   0  0  0  0  0  0  0  0  0  0  0  0
   37.7130   23.5440   37.5180 Cl  0  0  0  0  0  0  0  0  0  0  0  0
   39.2810   23.3460   36.7740 C   0  0  0  0  0  0  0  0  0  0  0  0
   39.8370   24.2260   35.8880 C   0  0  0  0  0  0  0  0  0  0  0  0
   41.0330   24.1130   35.2960 C   0  0  0  0  0  0  0  0  0  0  0  0
   41.8130   22.9850   35.5980 C   0  0  0  0  0  0  0  0  0  0  0  0
   41.3290   22.0640   36.4700 C   0  0  0  0  0  0  0  0  0  0  0  0
   42.2610   20.6410   36.8800 Cl  0  0  0  0  0  0  0  0  0  0  0  0
   40.0780   22.2290   37.0590 C   0  0  0  0  0  0  0  0  0  0  0  0
   41.4800   24.8040   34.5950 H   0  0  0  0  0  0  0  0  0  0  0  0
   42.7760   22.8100   35.1750 H   0  0  0  0  0  0  0  0  0  0  0  0
   39.7320   21.4680   37.7500 H   0  0  0  0  0  0  0  0  0  0  0  0
   36.0880   28.6370   31.1640 C   0  0  0  0  0  0  0  0  0  0  0  0
   36.9400   27.8900   31.9930 C   0  0  0  0  0  0  0  0  0  0  0  0
   36.7250   27.9600   33.3830 C   0  0  0  0  0  0  0  0  0  0  0  0
   35.7390   28.7190   33.8360 N   0  0  0  0  0  0  0  0  0  0  0  0
   34.9370   29.4240   33.0300 C   0  0  0  0  0  0  0  0  0  0  0  0
   35.1130   29.3790   31.7100 N   0  0  0  0  0  0  0  0  0  0  0  0
   36.2940   28.5490   30.1080 H   0  0  0  0  0  0  0  0  0  0  0  0
   37.7550   27.2600   31.6350 H   0  0  0  0  0  0  0  0  0  0  0  0
   33.8860   30.2250   33.6320 C   0  0  0  0  0  0  0  0  0  0  0  0
   32.9320   30.6320   32.9310 O   0  0  0  0  0  0  0  0  0  0  0  0
   33.9560   30.5520   35.0800 C   0  0  0  0  0  3  0  0  0  0  0  0
   34.5970   31.9210   35.2890 C   0  0  0  0  0  2  0  0  0  0  0  0
   34.7950   32.0310   36.8050 C   0  0  0  0  0  2  0  0  0  0  0  0
   33.4190   32.1470   37.3920 C   0  0  0  0  0  2  0  0  0  0  0  0
   32.4990   31.0180   37.0630 C   0  0  0  0  0  2  0  0  0  0  0  0
   32.5580   30.5410   35.6460 C   0  0  0  0  0  2  0  0  0  0  0  0
  1  2  2  0  0  0  0
  2  6  1  0  0  0  0
  2  3  1  0  0  0  0
  3  7  1  0  0  0  0
  4 10  1  0  0  0  0
  4  3  2  0  0  0  0
  5  1  1  0  0  0  0
  5  4  1  0  0  0  0
  9 15  1  0  0  0  0
  9  8  1  0  0  0  0
 10  9  2  0  0  0  0
 11 12  2  0  0  0  0
 11 10  1  0  0  0  0
 12 13  1  0  0  0  0
 13 14  1  0  0  0  0
 13 15  2  0  0  0  0
 15 18  1  0  0  0  0
 16 11  1  0  0  0  0
 17 12  1  0  0  0  0
 19 24  2  0  0  0  0
 19 20  1  0  0  0  0
 20 21  2  0  0  0  0
 21 22  1  0  0  0  0
 21  1  1  0  0  0  0
 23 27  1  0  0  0  0
 23 22  2  0  0  0  0
 24 23  1  0  0  0  0
 25 19  1  0  0  0  0
 26 20  1  0  0  0  0
 27 29  1  0  0  0  0
 28 27  2  0  0  0  0
 29 30  1  0  0  0  0
 29 34  1  0  0  0  0
 30 31  1  0  0  0  0
 31 32  1  0  0  0  0
 33 32  1  0  0  0  0
 34 33  1  0  0  0  0
M  END
>  <minimizedAffinity>
-6.61451006

$$$$

 OpenBabel03272503213D

 34 37  0  0  0  0  0  0  0  0999 V2000
   37.6600   27.0500   34.1390 C   0  0  0  0  0  0  0  0  0  0  0  0
   37.8530   27.2350   35.4450 C   0  0  0  0  0  0  0  0  0  0  0  0
   38.5650   26.3360   36.1390 C   0  0  0  0  0  0  0  0  0  0  0  0
   39.0680   25.2530   35.4590 C   0  0  0  0  0  0  0  0  0  0  0  0
   38.4760   25.5660   33.7530 S   0  0  0  0  0  0  0  0  0  0  0  0
   37.4180   28.1210   35.9000 H   0  0  0  0  0  0  0  0  0  0  0  0
   38.8010   26.3540   37.1960 H   0  0  0  0  0  0  0  0  0  0  0  0
   37.6450   23.2350   37.2510 Cl  0  0  0  0  0  0  0  0  0  0  0  0
   39.2830   23.1610   36.6440 C   0  0  0  0  0  0  0  0  0  0  0  0
   39.8570   24.1060   35.8420 C   0  0  0  0  0  0  0  0  0  0  0  0
   41.1050   24.0880   35.3560 C   0  0  0  0  0  0  0  0  0  0  0  0
   41.9270   22.9990   35.6900 C   0  0  0  0  0  0  0  0  0  0  0  0
   41.4270   22.0180   36.4850 C   0  0  0  0  0  0  0  0  0  0  0  0
   42.4070   20.6390   36.9310 Cl  0  0  0  0  0  0  0  0  0  0  0  0
   40.1210   22.0840   36.9640 C   0  0  0  0  0  0  0  0  0  0  0  0
   41.5680   24.8310   34.7210 H   0  0  0  0  0  0  0  0  0  0  0  0
   42.9320   22.8980   35.3510 H   0  0  0  0  0  0  0  0  0  0  0  0
   39.7640   21.2780   37.5950 H   0  0  0  0  0  0  0  0  0  0  0  0
   36.4670   28.4520   30.8450 C   0  0  0  0  0  0  0  0  0  0  0  0
   37.1890   27.6610   31.7540 C   0  0  0  0  0  0  0  0  0  0  0  0
   36.9360   27.8470   33.1270 C   0  0  0  0  0  0  0  0  0  0  0  0
   36.0380   28.7490   33.4900 N   0  0  0  0  0  0  0  0  0  0  0  0
   35.3590   29.4940   32.6100 C   0  0  0  0  0  0  0  0  0  0  0  0
   35.5750   29.3420   31.3040 N   0  0  0  0  0  0  0  0  0  0  0  0
   36.6980   28.2710   29.8070 H   0  0  0  0  0  0  0  0  0  0  0  0
   37.9320   26.9150   31.4700 H   0  0  0  0  0  0  0  0  0  0  0  0
   34.3950   30.4540   33.1160 C   0  0  0  0  0  0  0  0  0  0  0  0
   33.1720   30.2750   32.9190 O   0  0  0  0  0  0  0  0  0  0  0  0
   34.8750   31.6440   33.8680 C   0  0  0  0  0  3  0  0  0  0  0  0
   35.3980   31.2340   35.2410 C   0  0  0  0  0  2  0  0  0  0  0  0
   35.6550   32.5580   35.9710 C   0  0  0  0  0  2  0  0  0  0  0  0
   36.8250   33.1900   35.2750 C   0  0  0  0  0  2  0  0  0  0  0  0
   36.6350   33.4250   33.8130 C   0  0  0  0  0  2  0  0  0  0  0  0
   35.9690   32.3090   33.0710 C   0  0  0  0  0  2  0  0  0  0  0  0
  1  2  2  0  0  0  0
  2  6  1  0  0  0  0
  2  3  1  0  0  0  0
  3  7  1  0  0  0  0
  4 10  1  0  0  0  0
  4  3  2  0  0  0  0
  5  1  1  0  0  0  0
  5  4  1  0  0  0  0
  9 15  1  0  0  0  0
  9  8  1  0  0  0  0
 10  9  2  0  0  0  0
 11 12  2  0  0  0  0
 11 10  1  0  0  0  0
 12 13  1  0  0  0  0
 13 14  1  0  0  0  0
 13 15  2  0  0  0  0
 15 18  1  0  0  0  0
 16 11  1  0  0  0  0
 17 12  1  0  0  0  0
 19 24  2  0  0  0  0
 19 20  1  0  0  0  0
 20 21  2  0  0  0  0
 21 22  1  0  0  0  0
 21  1  1  0  0  0  0
 23 27  1  0  0  0  0
 23 22  2  0  0  0  0
 24 23  1  0  0  0  0
 25 19  1  0  0  0  0
 26 20  1  0  0  0  0
 27 29  1  0  0  0  0
 28 27  2  0  0  0  0
 29 30  1  0  0  0  0
 30 31  1  0  0  0  0
 32 31  1  0  0  0  0
 33 32  1  0  0  0  0
 34 33  1  0  0  0  0
 34 29  1  0  0  0  0
M  END
>  <minimizedAffinity>
-6.42105055

$$$$

 OpenBabel03272503213D

 34 37  0  0  0  0  0  0  0  0999 V2000
   36.7200   27.8150   32.9550 C   0  0  0  0  0  0  0  0  0  0  0  0
   36.2540   28.7880   32.1720 C   0  0  0  0  0  0  0  0  0  0  0  0
   35.7050   29.8760   32.7290 C   0  0  0  0  0  0  0  0  0  0  0  0
   35.6500   29.9350   34.1010 C   0  0  0  0  0  0  0  0  0  0  0  0
   36.4250   28.3460   34.5820 S   0  0  0  0  0  0  0  0  0  0  0  0
   36.3390   28.6570   31.0960 H   0  0  0  0  0  0  0  0  0  0  0  0
   35.2880   30.7390   32.2240 H   0  0  0  0  0  0  0  0  0  0  0  0
   32.7990   29.4550   35.0760 Cl  0  0  0  0  0  0  0  0  0  0  0  0
   33.8790   30.7530   35.5240 C   0  0  0  0  0  0  0  0  0  0  0  0
   35.1500   30.9070   35.0450 C   0  0  0  0  0  0  0  0  0  0  0  0
   36.0080   31.8850   35.3620 C   0  0  0  0  0  0  0  0  0  0  0  0
   35.5850   32.8630   36.2760 C   0  0  0  0  0  0  0  0  0  0  0  0
   34.3340   32.7800   36.7960 C   0  0  0  0  0  0  0  0  0  0  0  0
   33.7560   33.9720   37.9390 Cl  0  0  0  0  0  0  0  0  0  0  0  0
   33.4790   31.7410   36.4340 C   0  0  0  0  0  0  0  0  0  0  0  0
   37.0150   32.0140   34.9880 H   0  0  0  0  0  0  0  0  0  0  0  0
   36.1970   33.6780   36.5870 H   0  0  0  0  0  0  0  0  0  0  0  0
   32.4890   31.7140   36.8750 H   0  0  0  0  0  0  0  0  0  0  0  0
   39.3110   25.1230   32.4290 C   0  0  0  0  0  0  0  0  0  0  0  0
   38.7620   26.3780   32.7410 C   0  0  0  0  0  0  0  0  0  0  0  0
   37.3650   26.5220   32.6430 C   0  0  0  0  0  0  0  0  0  0  0  0
   36.6430   25.4790   32.2660 N   0  0  0  0  0  0  0  0  0  0  0  0
   37.1840   24.2900   31.9730 C   0  0  0  0  0  0  0  0  0  0  0  0
   38.5020   24.1200   32.0560 N   0  0  0  0  0  0  0  0  0  0  0  0
   40.3840   25.0640   32.5200 H   0  0  0  0  0  0  0  0  0  0  0  0
   39.3430   27.2460   33.0520 H   0  0  0  0  0  0  0  0  0  0  0  0
   36.3000   23.2110   31.5700 C   0  0  0  0  0  0  0  0  0  0  0  0
   35.3810   23.4300   30.7500 O   0  0  0  0  0  0  0  0  0  0  0  0
   36.4980   21.8520   32.1390 C   0  0  0  0  0  3  0  0  0  0  0  0
   35.1780   21.2930   32.6610 C   0  0  0  0  0  2  0  0  0  0  0  0
   35.5650   20.0050   33.3980 C   0  0  0  0  0  2  0  0  0  0  0  0
   36.0100   19.0420   32.3360 C   0  0  0  0  0  2  0  0  0  0  0  0
   37.1400   19.5210   31.4870 C   0  0  0  0  0  2  0  0  0  0  0  0
   37.0550   20.9540   31.0650 C   0  0  0  0  0  2  0  0  0  0  0  0
  1  5  1  0  0  0  0
  2  3  1  0  0  0  0
  2  1  2  0  0  0  0
  3  4  2  0  0  0  0
  4  5  1  0  0  0  0
  4 10  1  0  0  0  0
  6  2  1  0  0  0  0
  7  3  1  0  0  0  0
  8  9  1  0  0  0  0
  9 15  1  0  0  0  0
 10 11  1  0  0  0  0
 10  9  2  0  0  0  0
 11 12  2  0  0  0  0
 12 17  1  0  0  0  0
 12 13  1  0  0  0  0
 13 14  1  0  0  0  0
 15 13  2  0  0  0  0
 15 18  1  0  0  0  0
 16 11  1  0  0  0  0
 19 25  1  0  0  0  0
 19 20  1  0  0  0  0
 20 26  1  0  0  0  0
 21 20  2  0  0  0  0
 21  1  1  0  0  0  0
 22 21  1  0  0  0  0
 23 24  1  0  0  0  0
 23 22  2  0  0  0  0
 24 19  2  0  0  0  0
 27 23  1  0  0  0  0
 27 29  1  0  0  0  0
 28 27  2  0  0  0  0
 29 30  1  0  0  0  0
 30 31  1  0  0  0  0
 32 31  1  0  0  0  0
 33 32  1  0  0  0  0
 34 33  1  0  0  0  0
 34 29  1  0  0  0  0
M  END
>  <minimizedAffinity>
-6.37981606

$$$$

 OpenBabel03272503213D

 34 37  0  0  0  0  0  0  0  0999 V2000
   37.2630   26.6450   33.4890 C   0  0  0  0  0  0  0  0  0  0  0  0
   37.1400   25.4640   32.8850 C   0  0  0  0  0  0  0  0  0  0  0  0
   37.8070   24.4050   33.3650 C   0  0  0  0  0  0  0  0  0  0  0  0
   38.5970   24.5940   34.4740 C   0  0  0  0  0  0  0  0  0  0  0  0
   38.3510   26.3770   34.8170 S   0  0  0  0  0  0  0  0  0  0  0  0
   36.4930   25.4060   32.0130 H   0  0  0  0  0  0  0  0  0  0  0  0
   37.8030   23.3920   32.9820 H   0  0  0  0  0  0  0  0  0  0  0  0
   37.5840   23.9980   37.2880 Cl  0  0  0  0  0  0  0  0  0  0  0  0
   39.0500   23.4200   36.5340 C   0  0  0  0  0  0  0  0  0  0  0  0
   39.4440   23.7300   35.2620 C   0  0  0  0  0  0  0  0  0  0  0  0
   40.5570   23.3100   34.6480 C   0  0  0  0  0  0  0  0  0  0  0  0
   41.4240   22.4650   35.3590 C   0  0  0  0  0  0  0  0  0  0  0  0
   41.1020   22.1120   36.6300 C   0  0  0  0  0  0  0  0  0  0  0  0
   42.1470   21.0620   37.5620 Cl  0  0  0  0  0  0  0  0  0  0  0  0
   39.9310   22.5770   37.2240 C   0  0  0  0  0  0  0  0  0  0  0  0
   40.8750   23.5500   33.6420 H   0  0  0  0  0  0  0  0  0  0  0  0
   42.3310   22.0820   34.9530 H   0  0  0  0  0  0  0  0  0  0  0  0
   39.7150   22.2690   38.2410 H   0  0  0  0  0  0  0  0  0  0  0  0
   35.9480   29.6770   31.6700 C   0  0  0  0  0  0  0  0  0  0  0  0
   36.5200   28.4110   31.8740 C   0  0  0  0  0  0  0  0  0  0  0  0
   36.6680   27.9670   33.2020 C   0  0  0  0  0  0  0  0  0  0  0  0
   36.2650   28.7570   34.1840 N   0  0  0  0  0  0  0  0  0  0  0  0
   35.7220   29.9610   33.9720 C   0  0  0  0  0  0  0  0  0  0  0  0
   35.5670   30.4110   32.7270 N   0  0  0  0  0  0  0  0  0  0  0  0
   35.8560   29.9710   30.6360 H   0  0  0  0  0  0  0  0  0  0  0  0
   36.8570   27.7500   31.0750 H   0  0  0  0  0  0  0  0  0  0  0  0
   35.3130   30.7470   35.1230 C   0  0  0  0  0  0  0  0  0  0  0  0
   36.1720   31.1550   35.9360 O   0  0  0  0  0  0  0  0  0  0  0  0
   33.8730   31.0570   35.3210 C   0  0  0  0  0  3  0  0  0  0  0  0
   33.0300   29.7930   35.1850 C   0  0  0  0  0  2  0  0  0  0  0  0
   31.5790   30.2890   35.2000 C   0  0  0  0  0  2  0  0  0  0  0  0
   31.3280   30.7840   36.5950 C   0  0  0  0  0  2  0  0  0  0  0  0
   32.2560   31.8580   37.0570 C   0  0  0  0  0  2  0  0  0  0  0  0
   33.6930   31.6580   36.6920 C   0  0  0  0  0  2  0  0  0  0  0  0
  1  5  1  0  0  0  0
  2  3  1  0  0  0  0
  2  1  2  0  0  0  0
  3  4  2  0  0  0  0
  4  5  1  0  0  0  0
  4 10  1  0  0  0  0
  6  2  1  0  0  0  0
  7  3  1  0  0  0  0
  9 15  1  0  0  0  0
  9  8  1  0  0  0  0
 10  9  2  0  0  0  0
 11 10  1  0  0  0  0
 11 12  2  0  0  0  0
 12 13  1  0  0  0  0
 13 15  2  0  0  0  0
 13 14  1  0  0  0  0
 15 18  1  0  0  0  0
 16 11  1  0  0  0  0
 17 12  1  0  0  0  0
 19 20  2  0  0  0  0
 19 24  1  0  0  0  0
 20 21  1  0  0  0  0
 21  1  1  0  0  0  0
 21 22  2  0  0  0  0
 23 22  1  0  0  0  0
 23 27  1  0  0  0  0
 24 23  2  0  0  0  0
 25 19  1  0  0  0  0
 26 20  1  0  0  0  0
 27 29  1  0  0  0  0
 27 28  2  0  0  0  0
 29 34  1  0  0  0  0
 30 31  1  0  0  0  0
 30 29  1  0  0  0  0
 31 32  1  0  0  0  0
 32 33  1  0  0  0  0
 34 33  1  0  0  0  0
M  END
>  <minimizedAffinity>
-6.2829051

$$$$

 OpenBabel03272503213D

 34 37  0  0  0  0  0  0  0  0999 V2000
   36.2020   26.9030   32.0500 C   0  0  0  0  0  0  0  0  0  0  0  0
   37.0660   26.3570   32.9070 C   0  0  0  0  0  0  0  0  0  0  0  0
   37.2990   25.0390   32.8570 C   0  0  0  0  0  0  0  0  0  0  0  0
   36.6270   24.3030   31.9110 C   0  0  0  0  0  0  0  0  0  0  0  0
   35.6240   25.5880   31.0730 S   0  0  0  0  0  0  0  0  0  0  0  0
   37.5530   27.0150   33.6220 H   0  0  0  0  0  0  0  0  0  0  0  0
   37.9690   24.4610   33.4840 H   0  0  0  0  0  0  0  0  0  0  0  0
   39.0690   23.3230   30.3690 Cl  0  0  0  0  0  0  0  0  0  0  0  0
   37.6710   22.3970   30.8610 C   0  0  0  0  0  0  0  0  0  0  0  0
   36.6070   22.9050   31.5530 C   0  0  0  0  0  0  0  0  0  0  0  0
   35.5190   22.2310   31.9480 C   0  0  0  0  0  0  0  0  0  0  0  0
   35.4390   20.8650   31.6330 C   0  0  0  0  0  0  0  0  0  0  0  0
   36.4570   20.2880   30.9450 C   0  0  0  0  0  0  0  0  0  0  0  0
   36.4070   18.5900   30.5270 Cl  0  0  0  0  0  0  0  0  0  0  0  0
   37.5680   21.0330   30.5570 C   0  0  0  0  0  0  0  0  0  0  0  0
   34.6740   22.6250   32.4960 H   0  0  0  0  0  0  0  0  0  0  0  0
   34.6130   20.2500   31.9050 H   0  0  0  0  0  0  0  0  0  0  0  0
   38.3570   20.5300   30.0100 H   0  0  0  0  0  0  0  0  0  0  0  0
   35.7770   30.3950   30.6870 C   0  0  0  0  0  0  0  0  0  0  0  0
   36.2520   29.0790   30.8080 C   0  0  0  0  0  0  0  0  0  0  0  0
   35.7460   28.2960   31.8630 C   0  0  0  0  0  0  0  0  0  0  0  0
   34.8550   28.8320   32.6820 N   0  0  0  0  0  0  0  0  0  0  0  0
   34.4130   30.0890   32.5520 C   0  0  0  0  0  0  0  0  0  0  0  0
   34.8720   30.8560   31.5640 N   0  0  0  0  0  0  0  0  0  0  0  0
   36.1950   30.9520   29.8640 H   0  0  0  0  0  0  0  0  0  0  0  0
   36.9850   28.6230   30.1420 H   0  0  0  0  0  0  0  0  0  0  0  0
   33.4340   30.5780   33.5060 C   0  0  0  0  0  0  0  0  0  0  0  0
   32.2640   30.8160   33.1330 O   0  0  0  0  0  0  0  0  0  0  0  0
   33.8370   30.7920   34.9210 C   0  0  0  0  0  3  0  0  0  0  0  0
   34.7560   32.0050   35.0380 C   0  0  0  0  0  2  0  0  0  0  0  0
   35.2520   31.9780   36.4880 C   0  0  0  0  0  2  0  0  0  0  0  0
   34.0590   32.3030   37.3380 C   0  0  0  0  0  2  0  0  0  0  0  0
   32.8950   31.3850   37.1650 C   0  0  0  0  0  2  0  0  0  0  0  0
   32.5950   30.9980   35.7510 C   0  0  0  0  0  2  0  0  0  0  0  0
  1  2  2  0  0  0  0
  2  6  1  0  0  0  0
  3  2  1  0  0  0  0
  3  7  1  0  0  0  0
  4  3  2  0  0  0  0
  5  4  1  0  0  0  0
  5  1  1  0  0  0  0
  8  9  1  0  0  0  0
  9 10  1  0  0  0  0
 10  4  1  0  0  0  0
 10 11  2  0  0  0  0
 11 16  1  0  0  0  0
 12 17  1  0  0  0  0
 12 11  1  0  0  0  0
 13 12  2  0  0  0  0
 14 13  1  0  0  0  0
 15  9  2  0  0  0  0
 15 13  1  0  0  0  0
 18 15  1  0  0  0  0
 19 20  2  0  0  0  0
 19 24  1  0  0  0  0
 20 21  1  0  0  0  0
 21  1  1  0  0  0  0
 21 22  2  0  0  0  0
 23 22  1  0  0  0  0
 23 27  1  0  0  0  0
 24 23  2  0  0  0  0
 25 19  1  0  0  0  0
 26 20  1  0  0  0  0
 27 29  1  0  0  0  0
 28 27  2  0  0  0  0
 29 30  1  0  0  0  0
 29 34  1  0  0  0  0
 30 31  1  0  0  0  0
 31 32  1  0  0  0  0
 33 32  1  0  0  0  0
 34 33  1  0  0  0  0
M  END
>  <minimizedAffinity>
-6.23039865

$$$$

 OpenBabel03272503213D

 34 37  0  0  0  0  0  0  0  0999 V2000
   36.8400   27.3260   33.0120 C   0  0  0  0  0  0  0  0  0  0  0  0
   36.3130   28.2260   32.1820 C   0  0  0  0  0  0  0  0  0  0  0  0
   35.7210   29.3190   32.6840 C   0  0  0  0  0  0  0  0  0  0  0  0
   35.6850   29.4580   34.0510 C   0  0  0  0  0  0  0  0  0  0  0  0
   36.5470   27.9410   34.6110 S   0  0  0  0  0  0  0  0  0  0  0  0
   36.3870   28.0350   31.1150 H   0  0  0  0  0  0  0  0  0  0  0  0
   35.2530   30.1290   32.1370 H   0  0  0  0  0  0  0  0  0  0  0  0
   32.6720   29.3270   34.5070 Cl  0  0  0  0  0  0  0  0  0  0  0  0
   33.8100   30.4610   35.1950 C   0  0  0  0  0  0  0  0  0  0  0  0
   35.1550   30.4600   34.9450 C   0  0  0  0  0  0  0  0  0  0  0  0
   36.0590   31.3090   35.4500 C   0  0  0  0  0  0  0  0  0  0  0  0
   35.6080   32.3080   36.3270 C   0  0  0  0  0  0  0  0  0  0  0  0
   34.2850   32.3740   36.6250 C   0  0  0  0  0  0  0  0  0  0  0  0
   33.6700   33.5990   37.7120 Cl  0  0  0  0  0  0  0  0  0  0  0  0
   33.3840   31.4660   36.0720 C   0  0  0  0  0  0  0  0  0  0  0  0
   37.1230   31.3160   35.2570 H   0  0  0  0  0  0  0  0  0  0  0  0
   36.2530   33.0260   36.7770 H   0  0  0  0  0  0  0  0  0  0  0  0
   32.3370   31.5560   36.3390 H   0  0  0  0  0  0  0  0  0  0  0  0
   38.5860   24.4560   31.2960 C   0  0  0  0  0  0  0  0  0  0  0  0
   37.9220   25.6830   31.4600 C   0  0  0  0  0  0  0  0  0  0  0  0
   37.5430   26.0500   32.7660 C   0  0  0  0  0  0  0  0  0  0  0  0
   37.8270   25.2300   33.7640 N   0  0  0  0  0  0  0  0  0  0  0  0
   38.4610   24.0640   33.5890 C   0  0  0  0  0  0  0  0  0  0  0  0
   38.8340   23.6880   32.3660 N   0  0  0  0  0  0  0  0  0  0  0  0
   38.8550   24.2210   30.2770 H   0  0  0  0  0  0  0  0  0  0  0  0
   37.6800   26.3690   30.6480 H   0  0  0  0  0  0  0  0  0  0  0  0
   38.7250   23.2400   34.7540 C   0  0  0  0  0  0  0  0  0  0  0  0
   37.7740   22.8210   35.4510 O   0  0  0  0  0  0  0  0  0  0  0  0
   40.1280   22.9010   35.1080 C   0  0  0  0  0  3  0  0  0  0  0  0
   40.9680   24.1690   35.2370 C   0  0  0  0  0  2  0  0  0  0  0  0
   42.4090   23.6680   35.3890 C   0  0  0  0  0  2  0  0  0  0  0  0
   42.4750   23.0110   36.7370 C   0  0  0  0  0  2  0  0  0  0  0  0
   41.5070   21.8940   36.9400 C   0  0  0  0  0  2  0  0  0  0  0  0
   40.1300   22.1420   36.4100 C   0  0  0  0  0  2  0  0  0  0  0  0
  1  5  1  0  0  0  0
  2  3  1  0  0  0  0
  2  1  2  0  0  0  0
  3  4  2  0  0  0  0
  4  5  1  0  0  0  0
  4 10  1  0  0  0  0
  6  2  1  0  0  0  0
  7  3  1  0  0  0  0
  8  9  1  0  0  0  0
  9 15  1  0  0  0  0
 10  9  2  0  0  0  0
 10 11  1  0  0  0  0
 11 12  2  0  0  0  0
 12 13  1  0  0  0  0
 12 17  1  0  0  0  0
 13 14  1  0  0  0  0
 15 18  1  0  0  0  0
 15 13  2  0  0  0  0
 16 11  1  0  0  0  0
 19 20  2  0  0  0  0
 19 24  1  0  0  0  0
 20 21  1  0  0  0  0
 21  1  1  0  0  0  0
 21 22  2  0  0  0  0
 23 22  1  0  0  0  0
 23 27  1  0  0  0  0
 24 23  2  0  0  0  0
 25 19  1  0  0  0  0
 26 20  1  0  0  0  0
 27 29  1  0  0  0  0
 27 28  2  0  0  0  0
 29 30  1  0  0  0  0
 29 34  1  0  0  0  0
 30 31  1  0  0  0  0
 31 32  1  0  0  0  0
 32 33  1  0  0  0  0
 34 33  1  0  0  0  0
M  END
>  <minimizedAffinity>
-6.09588814

$$$$

 OpenBabel03272503213D

 34 37  0  0  0  0  0  0  0  0999 V2000
   36.9500   26.8980   31.2160 C   0  0  0  0  0  0  0  0  0  0  0  0
   38.1220   26.2740   31.3350 C   0  0  0  0  0  0  0  0  0  0  0  0
   38.1450   24.9640   31.6180 C   0  0  0  0  0  0  0  0  0  0  0  0
   36.9410   24.3210   31.7740 C   0  0  0  0  0  0  0  0  0  0  0  0
   35.7440   25.6800   31.4970 S   0  0  0  0  0  0  0  0  0  0  0  0
   39.0250   26.8630   31.1950 H   0  0  0  0  0  0  0  0  0  0  0  0
   39.0150   24.3300   31.7430 H   0  0  0  0  0  0  0  0  0  0  0  0
   38.1750   23.1570   34.3090 Cl  0  0  0  0  0  0  0  0  0  0  0  0
   37.0780   22.3750   33.1970 C   0  0  0  0  0  0  0  0  0  0  0  0
   36.5620   22.9600   32.0740 C   0  0  0  0  0  0  0  0  0  0  0  0
   35.7200   22.3980   31.1970 C   0  0  0  0  0  0  0  0  0  0  0  0
   35.3110   21.0750   31.4320 C   0  0  0  0  0  0  0  0  0  0  0  0
   35.7810   20.4250   32.5270 C   0  0  0  0  0  0  0  0  0  0  0  0
   35.3030   18.7770   32.8660 Cl  0  0  0  0  0  0  0  0  0  0  0  0
   36.6550   21.0560   33.4090 C   0  0  0  0  0  0  0  0  0  0  0  0
   35.3080   22.8530   30.3070 H   0  0  0  0  0  0  0  0  0  0  0  0
   34.6450   20.5460   30.7900 H   0  0  0  0  0  0  0  0  0  0  0  0
   37.0050   20.4990   34.2710 H   0  0  0  0  0  0  0  0  0  0  0  0
   36.9230   30.3440   29.6790 C   0  0  0  0  0  0  0  0  0  0  0  0
   37.2970   29.0100   29.9120 C   0  0  0  0  0  0  0  0  0  0  0  0
   36.6080   28.3040   30.9170 C   0  0  0  0  0  0  0  0  0  0  0  0
   35.6500   28.9250   31.5860 N   0  0  0  0  0  0  0  0  0  0  0  0
   35.3060   30.1970   31.3500 C   0  0  0  0  0  0  0  0  0  0  0  0
   35.9380   30.8930   30.4060 N   0  0  0  0  0  0  0  0  0  0  0  0
   37.4800   30.8400   28.9000 H   0  0  0  0  0  0  0  0  0  0  0  0
   38.0840   28.4850   29.3700 H   0  0  0  0  0  0  0  0  0  0  0  0
   34.2390   30.7820   32.1430 C   0  0  0  0  0  0  0  0  0  0  0  0
   33.0580   30.7310   31.7340 O   0  0  0  0  0  0  0  0  0  0  0  0
   34.5660   31.4370   33.4360 C   0  0  0  0  0  3  0  0  0  0  0  0
   34.7320   30.3940   34.5380 C   0  0  0  0  0  2  0  0  0  0  0  0
   34.8510   31.2090   35.8310 C   0  0  0  0  0  2  0  0  0  0  0  0
   36.1730   31.9150   35.7520 C   0  0  0  0  0  2  0  0  0  0  0  0
   36.3460   32.7950   34.5590 C   0  0  0  0  0  2  0  0  0  0  0  0
   35.8390   32.2270   33.2710 C   0  0  0  0  0  2  0  0  0  0  0  0
  1  2  2  0  0  0  0
  1  5  1  0  0  0  0
  2  3  1  0  0  0  0
  3  7  1  0  0  0  0
  3  4  2  0  0  0  0
  4 10  1  0  0  0  0
  5  4  1  0  0  0  0
  6  2  1  0  0  0  0
  9 15  1  0  0  0  0
  9  8  1  0  0  0  0
 10  9  2  0  0  0  0
 11 12  2  0  0  0  0
 11 10  1  0  0  0  0
 12 13  1  0  0  0  0
 13 14  1  0  0  0  0
 13 15  2  0  0  0  0
 15 18  1  0  0  0  0
 16 11  1  0  0  0  0
 17 12  1  0  0  0  0
 19 20  2  0  0  0  0
 19 24  1  0  0  0  0
 20 21  1  0  0  0  0
 21  1  1  0  0  0  0
 21 22  2  0  0  0  0
 23 22  1  0  0  0  0
 23 27  1  0  0  0  0
 24 23  2  0  0  0  0
 25 19  1  0  0  0  0
 26 20  1  0  0  0  0
 27 29  1  0  0  0  0
 28 27  2  0  0  0  0
 29 30  1  0  0  0  0
 30 31  1  0  0  0  0
 32 31  1  0  0  0  0
 33 32  1  0  0  0  0
 34 29  1  0  0  0  0
 34 33  1  0  0  0  0
M  END
>  <minimizedAffinity>
-6.06775713

$$$$
