
 OpenBabel03262521483D

 27 28  0  0  0  0  0  0  0  0999 V2000
   37.2990   21.7500   35.4630 C   0  0  0  0  0  0  0  0  0  0  0  0
   38.2170   21.1340   35.5390 H   0  0  0  0  0  0  0  0  0  0  0  0
   37.5680   22.5690   34.7470 H   0  0  0  0  0  0  0  0  0  0  0  0
   36.0740   20.9960   35.0660 C   0  0  0  0  0  0  0  0  0  0  0  0
   35.1970   21.6220   35.3820 H   0  0  0  0  0  0  0  0  0  0  0  0
   35.9510   20.0370   35.6130 H   0  0  0  0  0  0  0  0  0  0  0  0
   35.9310   20.7450   33.6410 C   0  0  0  0  0  0  0  0  0  0  0  0
   35.4450   19.5510   33.1220 C   0  0  0  0  0  0  0  0  0  0  0  0
   35.3550   19.4310   31.7290 C   0  0  0  0  0  0  0  0  0  0  0  0
   35.7510   20.5000   30.9540 N   0  0  0  0  0  0  0  0  0  0  0  0
   36.2190   21.6460   31.5070 C   0  0  0  0  0  0  0  0  0  0  0  0
   36.3020   21.7520   32.8550 N   0  0  0  0  0  0  0  0  0  0  0  0
   35.1550   18.7590   33.7800 H   0  0  0  0  0  0  0  0  0  0  0  0
   34.9870   18.5290   31.2810 H   0  0  0  0  0  0  0  0  0  0  0  0
   36.5130   22.4460   30.8500 H   0  0  0  0  0  0  0  0  0  0  0  0
   37.0530   22.3960   36.6700 O   0  0  0  0  0  0  0  0  0  0  0  0
   39.5490   22.9930   36.2310 O   0  0  0  0  0  0  0  0  0  0  0  0
   38.3740   23.3290   37.1600 P   0  0  2  0  0  0  0  0  0  0  0  0
   38.8940   22.9210   38.6930 O   0  0  0  0  0  0  0  0  0  0  0  0
   38.7360   23.6630   39.3020 H   0  0  0  0  0  0  0  0  0  0  0  0
   38.0460   24.9750   37.0820 O   0  0  0  0  0  0  0  0  0  0  0  0
   38.5210   25.5220   35.9080 C   0  0  0  0  0  3  0  0  0  0  0  0
   37.6090   25.2640   34.7320 C   0  0  0  0  0  2  0  0  0  0  0  0
   38.1810   26.0520   33.5470 C   0  0  0  0  0  2  0  0  0  0  0  0
   37.6910   27.4740   33.7460 C   0  0  0  0  0  2  0  0  0  0  0  0
   37.6210   27.7710   35.2390 C   0  0  0  0  0  2  0  0  0  0  0  0
   38.7050   27.0270   35.9920 C   0  0  0  0  0  2  0  0  0  0  0  0
  1  2  1  0  0  0  0
  1 16  1  0  0  0  0
  3  1  1  0  0  0  0
  4  5  1  0  0  0  0
  4  1  1  0  0  0  0
  4  6  1  0  0  0  0
  7  4  1  0  0  0  0
  8  7  1  0  0  0  0
  8 13  1  0  0  0  0
  9  8  2  0  0  0  0
 10 11  2  0  0  0  0
 10  9  1  0  0  0  0
 11 12  1  0  0  0  0
 12  7  2  0  0  0  0
 14  9  1  0  0  0  0
 15 11  1  0  0  0  0
 16 18  1  0  0  0  0
 18 17  2  6  0  0  0
 18 19  1  0  0  0  0
 19 20  1  0  0  0  0
 21 18  1  0  0  0  0
 22 27  1  0  0  0  0
 22 21  1  0  0  0  0
 23 22  1  0  0  0  0
 24 25  1  0  0  0  0
 24 23  1  0  0  0  0
 25 26  1  0  0  0  0
 26 27  1  0  0  0  0
M  END
>  <minimizedAffinity>
-4.87476778

$$$$

 OpenBabel03262521483D

 27 28  0  0  0  0  0  0  0  0999 V2000
   36.4100   26.6810   31.4400 C   0  0  0  0  0  0  0  0  0  0  0  0
   35.8290   27.0340   30.5640 H   0  0  0  0  0  0  0  0  0  0  0  0
   37.4300   26.4650   31.0330 H   0  0  0  0  0  0  0  0  0  0  0  0
   36.4210   27.6210   32.5990 C   0  0  0  0  0  0  0  0  0  0  0  0
   35.4540   27.4620   33.1480 H   0  0  0  0  0  0  0  0  0  0  0  0
   36.4070   28.6900   32.3000 H   0  0  0  0  0  0  0  0  0  0  0  0
   37.4960   27.4160   33.5570 C   0  0  0  0  0  0  0  0  0  0  0  0
   37.3120   27.4670   34.9330 C   0  0  0  0  0  0  0  0  0  0  0  0
   38.4290   27.2520   35.7520 C   0  0  0  0  0  0  0  0  0  0  0  0
   39.6430   27.0040   35.1490 N   0  0  0  0  0  0  0  0  0  0  0  0
   39.7740   26.9640   33.8000 C   0  0  0  0  0  0  0  0  0  0  0  0
   38.6870   27.1720   33.0170 N   0  0  0  0  0  0  0  0  0  0  0  0
   36.3420   27.6650   35.3370 H   0  0  0  0  0  0  0  0  0  0  0  0
   38.3370   27.2820   36.8190 H   0  0  0  0  0  0  0  0  0  0  0  0
   40.7470   26.7650   33.3880 H   0  0  0  0  0  0  0  0  0  0  0  0
   35.9280   25.4490   31.8700 O   0  0  0  0  0  0  0  0  0  0  0  0
   37.9200   23.8710   32.4330 O   0  0  0  0  0  0  0  0  0  0  0  0
   36.8990   24.1760   31.3300 P   0  0  2  0  0  0  0  0  0  0  0  0
   37.8050   24.6040   29.9950 O   0  0  0  0  0  0  0  0  0  0  0  0
   37.5110   24.0930   29.2210 H   0  0  0  0  0  0  0  0  0  0  0  0
   36.0000   22.7960   30.9970 O   0  0  0  0  0  0  0  0  0  0  0  0
   36.2920   21.7840   31.8870 C   0  0  0  0  0  3  0  0  0  0  0  0
   35.0780   21.3040   32.6480 C   0  0  0  0  0  2  0  0  0  0  0  0
   35.5240   20.0930   33.4750 C   0  0  0  0  0  2  0  0  0  0  0  0
   35.5050   18.9250   32.5050 C   0  0  0  0  0  2  0  0  0  0  0  0
   35.8970   19.4230   31.1200 C   0  0  0  0  0  2  0  0  0  0  0  0
   36.8920   20.5620   31.2130 C   0  0  0  0  0  2  0  0  0  0  0  0
  1 16  1  0  0  0  0
  1  4  1  0  0  0  0
  2  1  1  0  0  0  0
  3  1  1  0  0  0  0
  4  5  1  0  0  0  0
  4  7  1  0  0  0  0
  6  4  1  0  0  0  0
  7  8  1  0  0  0  0
  8 13  1  0  0  0  0
  8  9  2  0  0  0  0
  9 14  1  0  0  0  0
 10  9  1  0  0  0  0
 11 10  2  0  0  0  0
 12  7  2  0  0  0  0
 12 11  1  0  0  0  0
 15 11  1  0  0  0  0
 18 16  1  0  0  0  0
 18 17  2  1  0  0  0
 19 18  1  0  0  0  0
 20 19  1  0  0  0  0
 21 18  1  0  0  0  0
 21 22  1  0  0  0  0
 22 23  1  0  0  0  0
 23 24  1  0  0  0  0
 25 24  1  0  0  0  0
 26 27  1  0  0  0  0
 26 25  1  0  0  0  0
 27 22  1  0  0  0  0
M  END
>  <minimizedAffinity>
-4.72074175

$$$$

 OpenBabel03262521483D

 27 28  0  0  0  0  0  0  0  0999 V2000
   38.4100   24.2120   33.7710 C   0  0  0  0  0  0  0  0  0  0  0  0
   38.7200   25.1300   34.3080 H   0  0  0  0  0  0  0  0  0  0  0  0
   39.2220   24.0380   33.0190 H   0  0  0  0  0  0  0  0  0  0  0  0
   38.1530   23.0330   34.6490 C   0  0  0  0  0  0  0  0  0  0  0  0
   38.8420   22.2180   34.3000 H   0  0  0  0  0  0  0  0  0  0  0  0
   37.1320   22.6110   34.5330 H   0  0  0  0  0  0  0  0  0  0  0  0
   38.4170   23.2410   36.0640 C   0  0  0  0  0  0  0  0  0  0  0  0
   37.6000   24.0050   36.8880 C   0  0  0  0  0  0  0  0  0  0  0  0
   37.9620   24.1300   38.2360 C   0  0  0  0  0  0  0  0  0  0  0  0
   39.1040   23.4910   38.6670 N   0  0  0  0  0  0  0  0  0  0  0  0
   39.8710   22.7550   37.8250 C   0  0  0  0  0  0  0  0  0  0  0  0
   39.5120   22.6400   36.5230 N   0  0  0  0  0  0  0  0  0  0  0  0
   36.7260   24.4760   36.4890 H   0  0  0  0  0  0  0  0  0  0  0  0
   37.3640   24.7100   38.9100 H   0  0  0  0  0  0  0  0  0  0  0  0
   40.7500   22.2790   38.2200 H   0  0  0  0  0  0  0  0  0  0  0  0
   37.2690   24.4600   33.0150 O   0  0  0  0  0  0  0  0  0  0  0  0
   38.9250   23.5320   31.2340 O   0  0  0  0  0  0  0  0  0  0  0  0
   37.4690   23.9820   31.4060 P   0  0  2  0  0  0  0  0  0  0  0  0
   37.2720   25.2560   30.3460 O   0  0  0  0  0  0  0  0  0  0  0  0
   36.4780   25.1120   29.8030 H   0  0  0  0  0  0  0  0  0  0  0  0
   36.4360   22.7230   30.9920 O   0  0  0  0  0  0  0  0  0  0  0  0
   36.5490   21.6740   31.8800 C   0  0  0  0  0  3  0  0  0  0  0  0
   35.2420   21.3430   32.5640 C   0  0  0  0  0  2  0  0  0  0  0  0
   35.4850   20.0780   33.3940 C   0  0  0  0  0  2  0  0  0  0  0  0
   35.3760   18.9310   32.4060 C   0  0  0  0  0  2  0  0  0  0  0  0
   35.9060   19.3890   31.0530 C   0  0  0  0  0  2  0  0  0  0  0  0
   37.0280   20.3920   31.2200 C   0  0  0  0  0  2  0  0  0  0  0  0
  1  2  1  0  0  0  0
  1  4  1  0  0  0  0
  3  1  1  0  0  0  0
  4  7  1  0  0  0  0
  5  4  1  0  0  0  0
  6  4  1  0  0  0  0
  7 12  2  0  0  0  0
  7  8  1  0  0  0  0
  8  9  2  0  0  0  0
  9 10  1  0  0  0  0
  9 14  1  0  0  0  0
 11 15  1  0  0  0  0
 11 10  2  0  0  0  0
 12 11  1  0  0  0  0
 13  8  1  0  0  0  0
 16  1  1  0  0  0  0
 18 17  2  6  0  0  0
 18 16  1  0  0  0  0
 19 18  1  0  0  0  0
 20 19  1  0  0  0  0
 21 18  1  0  0  0  0
 21 22  1  0  0  0  0
 22 23  1  0  0  0  0
 23 24  1  0  0  0  0
 25 24  1  0  0  0  0
 26 27  1  0  0  0  0
 26 25  1  0  0  0  0
 27 22  1  0  0  0  0
M  END
>  <minimizedAffinity>
-4.67987585

$$$$

 OpenBabel03262521483D

 27 28  0  0  0  0  0  0  0  0999 V2000
   34.4860   29.7140   32.6110 C   0  0  0  0  0  0  0  0  0  0  0  0
   34.0500   30.1990   31.7160 H   0  0  0  0  0  0  0  0  0  0  0  0
   35.4490   30.2600   32.7870 H   0  0  0  0  0  0  0  0  0  0  0  0
   33.5920   29.6920   33.8060 C   0  0  0  0  0  0  0  0  0  0  0  0
   33.5610   28.6280   34.1620 H   0  0  0  0  0  0  0  0  0  0  0  0
   32.5360   29.9440   33.5690 H   0  0  0  0  0  0  0  0  0  0  0  0
   34.0290   30.5080   34.9270 C   0  0  0  0  0  0  0  0  0  0  0  0
   33.1720   30.9540   35.9250 C   0  0  0  0  0  0  0  0  0  0  0  0
   33.7150   31.7350   36.9550 C   0  0  0  0  0  0  0  0  0  0  0  0
   35.0640   32.0150   36.9190 N   0  0  0  0  0  0  0  0  0  0  0  0
   35.8620   31.5560   35.9230 C   0  0  0  0  0  0  0  0  0  0  0  0
   35.3270   30.8020   34.9330 N   0  0  0  0  0  0  0  0  0  0  0  0
   32.1330   30.7010   35.8930 H   0  0  0  0  0  0  0  0  0  0  0  0
   33.0940   32.1030   37.7470 H   0  0  0  0  0  0  0  0  0  0  0  0
   36.9070   31.8080   35.9500 H   0  0  0  0  0  0  0  0  0  0  0  0
   34.8640   28.4090   32.3130 O   0  0  0  0  0  0  0  0  0  0  0  0
   36.4750   29.7390   30.7600 O   0  0  0  0  0  0  0  0  0  0  0  0
   36.2930   28.3620   31.4130 P   0  0  2  0  0  0  0  0  0  0  0  0
   36.1980   27.2820   30.1450 O   0  0  0  0  0  0  0  0  0  0  0  0
   36.8160   26.5450   30.2940 H   0  0  0  0  0  0  0  0  0  0  0  0
   37.6290   28.0110   32.3700 O   0  0  0  0  0  0  0  0  0  0  0  0
   37.3160   27.0780   33.3380 C   0  0  0  0  0  3  0  0  0  0  0  0
   38.3770   26.0120   33.4870 C   0  0  0  0  0  2  0  0  0  0  0  0
   37.9700   25.1480   34.6860 C   0  0  0  0  0  2  0  0  0  0  0  0
   38.4320   25.9240   35.9060 C   0  0  0  0  0  2  0  0  0  0  0  0
   38.3030   27.4150   35.6250 C   0  0  0  0  0  2  0  0  0  0  0  0
   37.1270   27.6970   34.7120 C   0  0  0  0  0  2  0  0  0  0  0  0
  1  3  1  0  0  0  0
  1  4  1  0  0  0  0
  2  1  1  0  0  0  0
  4  5  1  0  0  0  0
  4  7  1  0  0  0  0
  6  4  1  0  0  0  0
  7 12  2  0  0  0  0
  7  8  1  0  0  0  0
  8  9  2  0  0  0  0
  9 14  1  0  0  0  0
 10  9  1  0  0  0  0
 11 15  1  0  0  0  0
 11 10  2  0  0  0  0
 12 11  1  0  0  0  0
 13  8  1  0  0  0  0
 16  1  1  0  0  0  0
 18 17  2  6  0  0  0
 18 16  1  0  0  0  0
 18 21  1  0  0  0  0
 19 20  1  0  0  0  0
 19 18  1  0  0  0  0
 21 22  1  0  0  0  0
 22 23  1  0  0  0  0
 22 27  1  0  0  0  0
 23 24  1  0  0  0  0
 24 25  1  0  0  0  0
 26 25  1  0  0  0  0
 27 26  1  0  0  0  0
M  END
>  <minimizedAffinity>
-4.67285538

$$$$

 OpenBabel03262521483D

 27 28  0  0  0  0  0  0  0  0999 V2000
   37.8470   25.0390   35.7480 C   0  0  0  0  0  0  0  0  0  0  0  0
   37.8300   25.0940   36.8550 H   0  0  0  0  0  0  0  0  0  0  0  0
   36.8670   24.5720   35.4740 H   0  0  0  0  0  0  0  0  0  0  0  0
   38.0950   26.3420   35.0640 C   0  0  0  0  0  0  0  0  0  0  0  0
   39.1740   26.3390   34.7520 H   0  0  0  0  0  0  0  0  0  0  0  0
   37.9970   27.2190   35.7390 H   0  0  0  0  0  0  0  0  0  0  0  0
   37.3030   26.5780   33.8680 C   0  0  0  0  0  0  0  0  0  0  0  0
   37.0640   25.6030   32.9070 C   0  0  0  0  0  0  0  0  0  0  0  0
   36.2840   25.9550   31.7970 C   0  0  0  0  0  0  0  0  0  0  0  0
   35.7990   27.2420   31.7210 N   0  0  0  0  0  0  0  0  0  0  0  0
   36.0590   28.1600   32.6860 C   0  0  0  0  0  0  0  0  0  0  0  0
   36.8140   27.8100   33.7550 N   0  0  0  0  0  0  0  0  0  0  0  0
   37.4710   24.6210   33.0270 H   0  0  0  0  0  0  0  0  0  0  0  0
   36.0720   25.2380   31.0290 H   0  0  0  0  0  0  0  0  0  0  0  0
   35.6520   29.1490   32.5710 H   0  0  0  0  0  0  0  0  0  0  0  0
   38.8090   24.1250   35.3290 O   0  0  0  0  0  0  0  0  0  0  0  0
   37.1660   22.6230   36.6780 O   0  0  0  0  0  0  0  0  0  0  0  0
   38.4160   22.5480   35.7910 P   0  0  2  0  0  0  0  0  0  0  0  0
   39.5980   21.8650   36.7500 O   0  0  0  0  0  0  0  0  0  0  0  0
   40.0180   21.1250   36.2780 H   0  0  0  0  0  0  0  0  0  0  0  0
   38.1090   21.5630   34.4650 O   0  0  0  0  0  0  0  0  0  0  0  0
   36.8570   21.8090   33.9410 C   0  0  0  0  0  3  0  0  0  0  0  0
   36.8670   21.9330   32.4350 C   0  0  0  0  0  2  0  0  0  0  0  0
   35.4050   22.0510   31.9900 C   0  0  0  0  0  2  0  0  0  0  0  0
   34.8820   20.6260   31.9720 C   0  0  0  0  0  2  0  0  0  0  0  0
   35.5560   19.8350   33.0860 C   0  0  0  0  0  2  0  0  0  0  0  0
   35.8520   20.7210   34.2790 C   0  0  0  0  0  2  0  0  0  0  0  0
  1  2  1  0  0  0  0
  3  1  1  0  0  0  0
  4  6  1  0  0  0  0
  4  1  1  0  0  0  0
  5  4  1  0  0  0  0
  7  4  1  0  0  0  0
  8 13  1  0  0  0  0
  8  7  2  0  0  0  0
  9  8  1  0  0  0  0
 10  9  2  0  0  0  0
 10 11  1  0  0  0  0
 11 12  2  0  0  0  0
 12  7  1  0  0  0  0
 14  9  1  0  0  0  0
 15 11  1  0  0  0  0
 16  1  1  0  0  0  0
 16 18  1  0  0  0  0
 18 17  2  1  0  0  0
 18 19  1  0  0  0  0
 20 19  1  0  0  0  0
 21 18  1  0  0  0  0
 22 27  1  0  0  0  0
 22 21  1  0  0  0  0
 23 22  1  0  0  0  0
 24 23  1  0  0  0  0
 25 24  1  0  0  0  0
 25 26  1  0  0  0  0
 26 27  1  0  0  0  0
M  END
>  <minimizedAffinity>
-4.63428307

$$$$

 OpenBabel03262521483D

 27 28  0  0  0  0  0  0  0  0999 V2000
   35.5620   24.9980   30.8190 C   0  0  0  0  0  0  0  0  0  0  0  0
   35.4660   25.5560   29.8660 H   0  0  0  0  0  0  0  0  0  0  0  0
   34.5790   24.4760   30.9400 H   0  0  0  0  0  0  0  0  0  0  0  0
   36.7350   24.0770   30.8850 C   0  0  0  0  0  0  0  0  0  0  0  0
   37.6360   24.7200   31.0700 H   0  0  0  0  0  0  0  0  0  0  0  0
   36.9440   23.5620   29.9240 H   0  0  0  0  0  0  0  0  0  0  0  0
   36.6890   23.0860   31.9480 C   0  0  0  0  0  0  0  0  0  0  0  0
   37.6290   23.0200   32.9690 C   0  0  0  0  0  0  0  0  0  0  0  0
   37.4760   22.0180   33.9370 C   0  0  0  0  0  0  0  0  0  0  0  0
   36.4060   21.1570   33.8220 N   0  0  0  0  0  0  0  0  0  0  0  0
   35.5130   21.2620   32.8060 C   0  0  0  0  0  0  0  0  0  0  0  0
   35.6700   22.2340   31.8760 N   0  0  0  0  0  0  0  0  0  0  0  0
   38.4370   23.7200   33.0000 H   0  0  0  0  0  0  0  0  0  0  0  0
   38.1750   21.9260   34.7440 H   0  0  0  0  0  0  0  0  0  0  0  0
   34.6980   20.5610   32.7700 H   0  0  0  0  0  0  0  0  0  0  0  0
   35.6310   25.8850   31.8890 O   0  0  0  0  0  0  0  0  0  0  0  0
   35.2150   28.4540   31.8500 O   0  0  0  0  0  0  0  0  0  0  0  0
   36.2310   27.3920   31.4130 P   0  0  2  0  0  0  0  0  0  0  0  0
   36.3280   27.5300   29.7530 O   0  0  0  0  0  0  0  0  0  0  0  0
   37.2600   27.5930   29.4820 H   0  0  0  0  0  0  0  0  0  0  0  0
   37.7260   27.7210   32.1060 O   0  0  0  0  0  0  0  0  0  0  0  0
   37.9840   26.8690   33.1600 C   0  0  0  0  0  3  0  0  0  0  0  0
   39.4090   26.9650   33.6540 C   0  0  0  0  0  2  0  0  0  0  0  0
   39.5040   26.0860   34.9070 C   0  0  0  0  0  2  0  0  0  0  0  0
   38.9480   26.9410   36.0310 C   0  0  0  0  0  2  0  0  0  0  0  0
   37.8380   27.8270   35.4790 C   0  0  0  0  0  2  0  0  0  0  0  0
   37.0920   27.1300   34.3610 C   0  0  0  0  0  2  0  0  0  0  0  0
  1  4  1  0  0  0  0
  1  3  1  0  0  0  0
  1 16  1  0  0  0  0
  2  1  1  0  0  0  0
  4  5  1  0  0  0  0
  4  7  1  0  0  0  0
  6  4  1  0  0  0  0
  7  8  1  0  0  0  0
  8 13  1  0  0  0  0
  8  9  2  0  0  0  0
  9 14  1  0  0  0  0
 10  9  1  0  0  0  0
 11 10  2  0  0  0  0
 12  7  2  0  0  0  0
 12 11  1  0  0  0  0
 15 11  1  0  0  0  0
 18 17  2  1  0  0  0
 18 16  1  0  0  0  0
 18 21  1  0  0  0  0
 19 18  1  0  0  0  0
 20 19  1  0  0  0  0
 21 22  1  0  0  0  0
 22 23  1  0  0  0  0
 22 27  1  0  0  0  0
 23 24  1  0  0  0  0
 24 25  1  0  0  0  0
 26 25  1  0  0  0  0
 27 26  1  0  0  0  0
M  END
>  <minimizedAffinity>
-4.59542751

$$$$

 OpenBabel03262521483D

 27 28  0  0  0  0  0  0  0  0999 V2000
   38.2640   23.3690   33.6260 C   0  0  0  0  0  0  0  0  0  0  0  0
   37.7900   24.3700   33.6830 H   0  0  0  0  0  0  0  0  0  0  0  0
   39.3640   23.5780   33.6420 H   0  0  0  0  0  0  0  0  0  0  0  0
   37.8270   22.4110   34.6840 C   0  0  0  0  0  0  0  0  0  0  0  0
   38.1860   21.3970   34.3640 H   0  0  0  0  0  0  0  0  0  0  0  0
   36.7230   22.3120   34.7590 H   0  0  0  0  0  0  0  0  0  0  0  0
   38.3670   22.6600   36.0100 C   0  0  0  0  0  0  0  0  0  0  0  0
   39.6850   22.3880   36.3600 C   0  0  0  0  0  0  0  0  0  0  0  0
   40.0860   22.6710   37.6720 C   0  0  0  0  0  0  0  0  0  0  0  0
   39.1560   23.2020   38.5400 N   0  0  0  0  0  0  0  0  0  0  0  0
   37.8800   23.4500   38.1520 C   0  0  0  0  0  0  0  0  0  0  0  0
   37.5020   23.1730   36.8810 N   0  0  0  0  0  0  0  0  0  0  0  0
   40.3570   21.9750   35.6380 H   0  0  0  0  0  0  0  0  0  0  0  0
   41.0920   22.4790   37.9890 H   0  0  0  0  0  0  0  0  0  0  0  0
   37.2000   23.8650   38.8740 H   0  0  0  0  0  0  0  0  0  0  0  0
   38.0260   22.7970   32.3800 O   0  0  0  0  0  0  0  0  0  0  0  0
   35.8210   22.8410   30.9980 O   0  0  0  0  0  0  0  0  0  0  0  0
   36.9780   23.7410   31.4490 P   0  0  2  0  0  0  0  0  0  0  0  0
   37.7000   24.2700   30.0400 O   0  0  0  0  0  0  0  0  0  0  0  0
   37.8010   25.2370   30.0660 H   0  0  0  0  0  0  0  0  0  0  0  0
   36.3730   25.0490   32.3130 O   0  0  0  0  0  0  0  0  0  0  0  0
   36.8890   26.2380   31.8410 C   0  0  0  0  0  3  0  0  0  0  0  0
   35.8770   27.0480   31.0660 C   0  0  0  0  0  2  0  0  0  0  0  0
   36.5400   28.3920   30.7420 C   0  0  0  0  0  2  0  0  0  0  0  0
   36.3890   29.2210   32.0050 C   0  0  0  0  0  2  0  0  0  0  0  0
   36.4720   28.3000   33.2160 C   0  0  0  0  0  2  0  0  0  0  0  0
   37.4050   27.1370   32.9520 C   0  0  0  0  0  2  0  0  0  0  0  0
  1  3  1  0  0  0  0
  1  2  1  0  0  0  0
  1  4  1  0  0  0  0
  4  6  1  0  0  0  0
  4  7  1  0  0  0  0
  5  4  1  0  0  0  0
  7  8  2  0  0  0  0
  7 12  1  0  0  0  0
  8  9  1  0  0  0  0
  9 14  1  0  0  0  0
  9 10  2  0  0  0  0
 11 10  1  0  0  0  0
 11 15  1  0  0  0  0
 12 11  2  0  0  0  0
 13  8  1  0  0  0  0
 16  1  1  0  0  0  0
 18 17  2  6  0  0  0
 18 21  1  0  0  0  0
 18 16  1  0  0  0  0
 19 20  1  0  0  0  0
 19 18  1  0  0  0  0
 22 21  1  0  0  0  0
 22 27  1  0  0  0  0
 23 22  1  0  0  0  0
 24 23  1  0  0  0  0
 24 25  1  0  0  0  0
 25 26  1  0  0  0  0
 27 26  1  0  0  0  0
M  END
>  <minimizedAffinity>
-4.54632568

$$$$

 OpenBabel03262521483D

 27 28  0  0  0  0  0  0  0  0999 V2000
   38.3000   27.1890   32.4740 C   0  0  0  0  0  0  0  0  0  0  0  0
   38.5060   28.1420   31.9480 H   0  0  0  0  0  0  0  0  0  0  0  0
   37.2230   27.2590   32.7720 H   0  0  0  0  0  0  0  0  0  0  0  0
   38.6180   25.9610   31.6870 C   0  0  0  0  0  0  0  0  0  0  0  0
   39.5520   25.5280   32.1340 H   0  0  0  0  0  0  0  0  0  0  0  0
   38.8810   26.1730   30.6290 H   0  0  0  0  0  0  0  0  0  0  0  0
   37.6040   24.9200   31.7190 C   0  0  0  0  0  0  0  0  0  0  0  0
   37.8220   23.6600   32.2610 C   0  0  0  0  0  0  0  0  0  0  0  0
   36.7630   22.7420   32.2330 C   0  0  0  0  0  0  0  0  0  0  0  0
   35.5690   23.1400   31.6700 N   0  0  0  0  0  0  0  0  0  0  0  0
   35.4040   24.3820   31.1530 C   0  0  0  0  0  0  0  0  0  0  0  0
   36.4330   25.2620   31.1860 N   0  0  0  0  0  0  0  0  0  0  0  0
   38.7740   23.4150   32.6830 H   0  0  0  0  0  0  0  0  0  0  0  0
   36.8830   21.7570   32.6380 H   0  0  0  0  0  0  0  0  0  0  0  0
   34.4480   24.6340   30.7280 H   0  0  0  0  0  0  0  0  0  0  0  0
   39.0020   27.1430   33.6740 O   0  0  0  0  0  0  0  0  0  0  0  0
   36.6640   27.7460   34.6470 O   0  0  0  0  0  0  0  0  0  0  0  0
   37.9630   27.0110   35.0000 P   0  0  2  0  0  0  0  0  0  0  0  0
   38.5620   27.7980   36.3450 O   0  0  0  0  0  0  0  0  0  0  0  0
   38.7760   27.1490   37.0380 H   0  0  0  0  0  0  0  0  0  0  0  0
   37.6210   25.4090   35.3750 O   0  0  0  0  0  0  0  0  0  0  0  0
   38.5470   24.8970   36.2610 C   0  0  0  0  0  3  0  0  0  0  0  0
   37.9700   23.8220   37.1530 C   0  0  0  0  0  2  0  0  0  0  0  0
   39.1370   23.2480   37.9650 C   0  0  0  0  0  2  0  0  0  0  0  0
   39.8160   22.2580   37.0370 C   0  0  0  0  0  2  0  0  0  0  0  0
   39.7150   22.7710   35.6050 C   0  0  0  0  0  2  0  0  0  0  0  0
   39.7500   24.2850   35.5660 C   0  0  0  0  0  2  0  0  0  0  0  0
  1  3  1  0  0  0  0
  1 16  1  0  0  0  0
  2  1  1  0  0  0  0
  4  7  1  0  0  0  0
  4  5  1  0  0  0  0
  4  1  1  0  0  0  0
  6  4  1  0  0  0  0
  7  8  1  0  0  0  0
  8 13  1  0  0  0  0
  9  8  2  0  0  0  0
  9 14  1  0  0  0  0
 10  9  1  0  0  0  0
 11 12  1  0  0  0  0
 11 10  2  0  0  0  0
 12  7  2  0  0  0  0
 15 11  1  0  0  0  0
 16 18  1  0  0  0  0
 18 17  2  6  0  0  0
 18 21  1  0  0  0  0
 18 19  1  0  0  0  0
 19 20  1  0  0  0  0
 21 22  1  0  0  0  0
 22 23  1  0  0  0  0
 23 24  1  0  0  0  0
 25 24  1  0  0  0  0
 26 25  1  0  0  0  0
 27 26  1  0  0  0  0
 27 22  1  0  0  0  0
M  END
>  <minimizedAffinity>
-4.53005981

$$$$

 OpenBabel03262521483D

 27 28  0  0  0  0  0  0  0  0999 V2000
   40.2650   22.1840   37.4430 C   0  0  0  0  0  0  0  0  0  0  0  0
   39.5010   22.0200   36.6570 H   0  0  0  0  0  0  0  0  0  0  0  0
   40.2120   21.2670   38.0830 H   0  0  0  0  0  0  0  0  0  0  0  0
   41.6370   22.4670   36.9280 C   0  0  0  0  0  0  0  0  0  0  0  0
   42.2280   22.8670   37.7950 H   0  0  0  0  0  0  0  0  0  0  0  0
   41.6630   23.2770   36.1680 H   0  0  0  0  0  0  0  0  0  0  0  0
   42.3590   21.3160   36.4110 C   0  0  0  0  0  0  0  0  0  0  0  0
   42.7190   21.1770   35.0760 C   0  0  0  0  0  0  0  0  0  0  0  0
   43.4140   20.0190   34.7020 C   0  0  0  0  0  0  0  0  0  0  0  0
   43.7000   19.0860   35.6750 N   0  0  0  0  0  0  0  0  0  0  0  0
   43.3270   19.2650   36.9660 C   0  0  0  0  0  0  0  0  0  0  0  0
   42.6560   20.3890   37.3180 N   0  0  0  0  0  0  0  0  0  0  0  0
   42.4670   21.9400   34.3710 H   0  0  0  0  0  0  0  0  0  0  0  0
   43.7130   19.8670   33.6840 H   0  0  0  0  0  0  0  0  0  0  0  0
   43.5790   18.5010   37.6800 H   0  0  0  0  0  0  0  0  0  0  0  0
   39.8790   23.2270   38.2780 O   0  0  0  0  0  0  0  0  0  0  0  0
   37.9570   24.8520   38.9450 O   0  0  0  0  0  0  0  0  0  0  0  0
   38.2590   23.6480   38.0420 P   0  0  2  0  0  0  0  0  0  0  0  0
   37.2200   22.4450   38.5510 O   0  0  0  0  0  0  0  0  0  0  0  0
   36.7510   22.0710   37.7850 H   0  0  0  0  0  0  0  0  0  0  0  0
   37.9390   24.0480   36.4420 O   0  0  0  0  0  0  0  0  0  0  0  0
   38.4460   25.2920   36.1290 C   0  0  0  0  0  3  0  0  0  0  0  0
   39.6770   25.2190   35.2560 C   0  0  0  0  0  2  0  0  0  0  0  0
   40.0310   26.6600   34.8700 C   0  0  0  0  0  2  0  0  0  0  0  0
   39.1070   26.9970   33.7140 C   0  0  0  0  0  2  0  0  0  0  0  0
   37.7750   26.2870   33.9210 C   0  0  0  0  0  2  0  0  0  0  0  0
   37.4450   26.1670   35.3950 C   0  0  0  0  0  2  0  0  0  0  0  0
  1  3  1  0  0  0  0
  1 16  1  0  0  0  0
  2  1  1  0  0  0  0
  4  1  1  0  0  0  0
  4  5  1  0  0  0  0
  6  4  1  0  0  0  0
  7  4  1  0  0  0  0
  7 12  1  0  0  0  0
  8  7  2  0  0  0  0
  9  8  1  0  0  0  0
  9 10  2  0  0  0  0
 10 11  1  0  0  0  0
 11 12  2  0  0  0  0
 11 15  1  0  0  0  0
 13  8  1  0  0  0  0
 14  9  1  0  0  0  0
 18 16  1  0  0  0  0
 18 19  1  0  0  0  0
 18 17  2  1  0  0  0
 20 19  1  0  0  0  0
 21 18  1  0  0  0  0
 22 21  1  0  0  0  0
 23 22  1  0  0  0  0
 24 23  1  0  0  0  0
 25 26  1  0  0  0  0
 25 24  1  0  0  0  0
 26 27  1  0  0  0  0
 27 22  1  0  0  0  0
M  END
>  <minimizedAffinity>
-4.50925112

$$$$
