REMARK  Name = 
REMARK  6 active torsions:
REMARK  status: ('A' for Active; 'I' for Inactive)
REMARK    1  A    between atoms: C_1  and  O_10
REMARK    2  A    between atoms: O_10  and  C_11
REMARK    3  A    between atoms: C_11  and  C_12
REMARK    4  A    between atoms: C_12  and  C_13
REMARK    5  A    between atoms: C_13  and  S_14
REMARK    6  A    between atoms: S_14  and  C_25
REMARK                            x       y       z     vdW  Elec       q    Type
REMARK                         _______ _______ _______ _____ _____    ______ ____
ROOT
ATOM      1  C   UNL     1      37.294  31.299  48.043  0.00  0.00    +0.000 C 
ATOM      2  H   UNL     1      36.771  30.892  47.129  0.00  0.00    +0.000 HD
ATOM      3  H   UNL     1      36.531  31.978  48.486  0.00  0.00    +0.000 HD
ENDROOT
BRANCH   1   4
ATOM      4  C   UNL     1      37.802  30.375  48.885  0.00  0.00    +0.000 C 
ATOM      5  H   UNL     1      37.138  29.465  48.981  0.00  0.00    +0.000 HD
ATOM      6  H   UNL     1      38.762  29.853  48.560  0.00  0.00    +0.000 HD
BRANCH   4   7
ATOM      7  C   UNL     1      38.091  30.829  50.271  0.00  0.00    +0.000 C 
ATOM      8  H   UNL     1      39.194  30.886  50.507  0.00  0.00    +0.000 HD
ATOM      9  H   UNL     1      37.767  31.909  50.355  0.00  0.00    +0.000 HD
BRANCH   7  10
ATOM     10  S   UNL     1      37.299  29.928  51.559  0.00  0.00    +0.000 S 
BRANCH  10  11
ATOM     11  C   UNL     1      35.532  30.081  51.694  0.00  0.00    +0.000 C 
ATOM     12  C   UNL     1      34.795  30.142  50.377  0.00  0.00    +0.000 C 
ATOM     13  C   UNL     1      33.481  29.412  50.554  0.00  0.00    +0.000 C 
ATOM     14  C   UNL     1      32.812  30.009  51.781  0.00  0.00    +0.000 C 
ATOM     15  C   UNL     1      33.511  29.379  52.975  0.00  0.00    +0.000 C 
ATOM     16  C   UNL     1      34.959  29.045  52.616  0.00  0.00    +0.000 C 
ENDBRANCH  10  11
ENDBRANCH   7  10
ENDBRANCH   4   7
ENDBRANCH   1   4
BRANCH   1  17
ATOM     17  O   UNL     1      38.406  32.026  47.757  0.00  0.00    +0.000 OA
BRANCH  17  18
ATOM     18  C   UNL     1      38.657  32.352  46.442  0.00  0.00    +0.000 A 
ATOM     19  C   UNL     1      39.925  32.824  46.238  0.00  0.00    +0.000 A 
ATOM     20  C   UNL     1      40.327  33.199  44.935  0.00  0.00    +0.000 A 
ATOM     21  N   UNL     1      39.388  33.058  43.937  0.00  0.00    +0.000 NA
ATOM     22  C   UNL     1      38.134  32.584  44.179  0.00  0.00    +0.000 A 
ATOM     23  N   UNL     1      37.803  32.245  45.420  0.00  0.00    +0.000 NA
ATOM     24  C   UNL     1      37.778  32.939  41.837  0.00  0.00    +0.000 C 
ATOM     25  O   UNL     1      38.937  33.413  41.655  0.00  0.00    +0.000 OA
ATOM     26  N   UNL     1      37.231  32.475  43.077  0.00  0.00    +0.000 N 
ATOM     27  H   UNL     1      40.706  32.956  46.985  0.00  0.00    +0.000 HD
ATOM     28  H   UNL     1      41.310  33.571  44.745  0.00  0.00    +0.000 HD
ATOM     29  H   UNL     1      37.106  32.866  40.971  0.00  0.00    +0.000 HD
ATOM     30  H   UNL     1      36.281  32.082  43.249  0.00  0.00    +0.000 HD
ENDBRANCH  17  18
ENDBRANCH   1  17
TORSDOF 6
