
     RDKit          3D

 36 38  0  0  0  0  0  0  0  0999 V2000
   37.9198   30.8738   46.7310 C   0  0  0  0  0  0  0  0  0  0  0  0
   38.0525   31.0304   48.1378 C   0  0  0  0  0  0  0  0  0  0  0  0
   36.9338   30.8110   48.9278 C   0  0  0  0  0  0  0  0  0  0  0  0
   35.7740   30.4591   48.3152 N   0  0  0  0  0  0  0  0  0  0  0  0
   35.6663   30.3154   46.9833 C   0  0  0  0  0  0  0  0  0  0  0  0
   36.7558   30.5281   46.2035 N   0  0  0  0  0  0  0  0  0  0  0  0
   39.0932   31.1043   45.9079 C   0  0  0  0  0  0  0  0  0  0  0  0
   39.9060   32.2160   45.9020 C   0  0  0  0  0  0  0  0  0  0  0  0
   40.9339   32.0386   44.9560 C   0  0  0  0  0  0  0  0  0  0  0  0
   40.6868   30.7984   44.4228 N   0  0  0  0  0  0  0  0  0  0  0  0
   39.6147   30.2647   44.9835 N   0  0  0  0  0  0  0  0  0  0  0  0
   37.0562   30.9712   50.4055 C   0  0  0  0  0  0  0  0  0  0  0  0
   36.5504   32.2355   50.6784 F   0  0  0  0  0  0  0  0  0  0  0  0
   36.3054   30.0576   51.1053 F   0  0  0  0  0  0  0  0  0  0  0  0
   38.3751   30.9500   50.8289 F   0  0  0  0  0  0  0  0  0  0  0  0
   39.0193   31.3164   48.5636 H   0  0  0  0  0  0  0  0  0  0  0  0
   34.7293   30.0345   46.5286 H   0  0  0  0  0  0  0  0  0  0  0  0
   39.8182   33.1055   46.5012 H   0  0  0  0  0  0  0  0  0  0  0  0
   41.7410   32.7234   44.7017 H   0  0  0  0  0  0  0  0  0  0  0  0
   41.5289   30.2439   43.4052 C   0  0  0  0  0  0  0  0  0  0  0  0
   40.8667   29.0842   42.7372 C   0  0  0  0  0  0  0  0  0  0  0  0
   41.8395   28.1588   42.0512 C   0  0  0  0  0  0  0  0  0  0  0  0
   43.1455   28.7832   41.6837 C   0  0  0  0  0  0  0  0  0  0  0  0
   43.7888   29.5893   42.7812 C   0  0  0  0  0  0  0  0  0  0  0  0
   42.8594   29.7499   43.9708 C   0  0  0  0  0  0  0  0  0  0  0  0
   41.7459   30.9948   42.6035 H   0  0  0  0  0  0  0  0  0  0  0  0
   40.1019   29.4549   42.0118 H   0  0  0  0  0  0  0  0  0  0  0  0
   40.3151   28.5038   43.5053 H   0  0  0  0  0  0  0  0  0  0  0  0
   41.3684   27.8258   41.1032 H   0  0  0  0  0  0  0  0  0  0  0  0
   42.0101   27.2502   42.6678 H   0  0  0  0  0  0  0  0  0  0  0  0
   43.0870   29.3388   40.7164 H   0  0  0  0  0  0  0  0  0  0  0  0
   43.8494   27.9365   41.4673 H   0  0  0  0  0  0  0  0  0  0  0  0
   44.7817   29.2129   43.0794 H   0  0  0  0  0  0  0  0  0  0  0  0
   43.9645   30.6268   42.3977 H   0  0  0  0  0  0  0  0  0  0  0  0
   42.7413   28.7314   44.4109 H   0  0  0  0  0  0  0  0  0  0  0  0
   43.3031   30.4771   44.6642 H   0  0  0  0  0  0  0  0  0  0  0  0
  1  2  2  0
  2  3  1  0
  3 12  1  0
  4  3  2  0
  5  4  1  0
  6  1  1  0
  6  5  2  0
  7  1  1  0
  8  7  1  0
  9  8  2  0
 10  9  1  0
 10 11  1  0
 11  7  2  0
 12 13  1  0
 12 15  1  0
 12 14  1  0
  2 16  1  0
  5 17  1  0
  8 18  1  0
  9 19  1  0
 20 21  1  0
 21 22  1  0
 22 23  1  0
 23 24  1  0
 24 25  1  0
 25 20  1  0
 20 26  1  0
 21 27  1  0
 21 28  1  0
 22 29  1  0
 22 30  1  0
 23 31  1  0
 23 32  1  0
 24 33  1  0
 24 34  1  0
 25 35  1  0
 25 36  1  0
 10 20  1  0
M  ISO  4  16  14  17  14  18  14  19  14
M  END
>  <DihAtoms>  (1) 
8,9,19,20

>  <DihDeg>  (1) 
-89.72970187134267

$$$$
