
 OpenBabel03272506393D

 34 36  0  0  1  0  0  0  0  0999 V2000
   34.3850   29.2440   50.0810 O   0  0  0  0  0  0  0  0  0  0  0  0
   34.2340   29.3570   48.8580 C   0  0  0  0  0  0  0  0  0  0  0  0
   35.0590   30.2470   48.0690 C   0  0  2  0  0  0  0  0  0  0  0  0
   34.6140   29.8570   46.6170 C   0  0  0  0  0  0  0  0  0  0  0  0
   33.2000   29.3850   46.8310 C   0  0  0  0  0  0  0  0  0  0  0  0
   33.2570   28.6430   48.0840 N   0  0  0  0  0  0  0  0  0  0  0  0
   34.8220   31.3190   48.1860 H   0  0  0  0  0  0  0  0  0  0  0  0
   34.7120   30.7110   45.9420 H   0  0  0  0  0  0  0  0  0  0  0  0
   35.2150   28.9840   46.3370 H   0  0  0  0  0  0  0  0  0  0  0  0
   32.8410   28.7570   45.9990 H   0  0  0  0  0  0  0  0  0  0  0  0
   32.5410   30.2540   47.0220 H   0  0  0  0  0  0  0  0  0  0  0  0
   32.4880   27.4560   48.4350 C   0  0  0  0  0  0  0  0  0  0  0  0
   32.7730   27.0690   49.4360 H   0  0  0  0  0  0  0  0  0  0  0  0
   32.7120   26.6960   47.6730 H   0  0  0  0  0  0  0  0  0  0  0  0
   31.0170   27.7320   48.3720 C   0  0  0  0  0  3  0  0  0  0  0  0
   30.3600   26.5120   47.7140 C   0  0  0  0  0  2  0  0  0  0  0  0
   28.9240   26.7480   47.3780 C   0  0  0  0  0  2  0  0  0  0  0  0
   28.3980   27.8920   48.2050 C   0  0  0  0  0  2  0  0  0  0  0  0
   28.8740   27.7340   49.6410 C   0  0  0  0  0  2  0  0  0  0  0  0
   30.3740   27.8590   49.7390 C   0  0  0  0  0  2  0  0  0  0  0  0
   36.4540   29.9630   48.1220 O   0  0  0  0  0  0  0  0  0  0  0  0
   37.3280   31.0440   48.2350 C   0  0  0  0  0  0  0  0  0  0  0  0
   37.4990   31.5750   49.5010 C   0  0  0  0  0  0  0  0  0  0  0  0
   38.3620   32.6520   49.6470 C   0  0  0  0  0  0  0  0  0  0  0  0
   38.9990   33.1350   48.5460 N   0  0  0  0  0  0  0  0  0  0  0  0
   38.8210   32.6100   47.3250 C   0  0  0  0  0  0  0  0  0  0  0  0
   37.9930   31.5760   47.1870 N   0  0  0  0  0  0  0  0  0  0  0  0
   40.3370   32.1780   45.5500 C   0  0  0  0  0  0  0  0  0  0  0  0
   40.5280   30.9770   45.8700 O   0  0  0  0  0  0  0  0  0  0  0  0
   39.5010   33.1410   46.1880 N   0  0  0  0  0  0  0  0  0  0  0  0
   37.0270   31.2380   50.4000 H   0  0  0  0  0  0  0  0  0  0  0  0
   38.5320   33.1000   50.6020 H   0  0  0  0  0  0  0  0  0  0  0  0
   40.9510   32.3340   44.6730 H   0  0  0  0  0  0  0  0  0  0  0  0
   39.4790   34.0950   45.7650 H   0  0  0  0  0  0  0  0  0  0  0  0
  2  1  2  0  0  0  0
  3 21  1  0  0  0  0
  3  7  1  1  0  0  0
  3  2  1  0  0  0  0
  4  5  1  0  0  0  0
  4  3  1  0  0  0  0
  5 11  1  0  0  0  0
  5  6  1  0  0  0  0
  6 12  1  0  0  0  0
  6  2  1  0  0  0  0
  8  4  1  0  0  0  0
  9  4  1  0  0  0  0
 10  5  1  0  0  0  0
 12 13  1  0  0  0  0
 14 12  1  0  0  0  0
 15 12  1  0  0  0  0
 15 20  1  0  0  0  0
 16 15  1  0  0  0  0
 17 16  1  0  0  0  0
 17 18  1  0  0  0  0
 18 19  1  0  0  0  0
 19 20  1  0  0  0  0
 21 22  1  0  0  0  0
 22 23  1  0  0  0  0
 23 24  2  0  0  0  0
 23 31  1  0  0  0  0
 24 32  1  0  0  0  0
 25 24  1  0  0  0  0
 26 25  2  0  0  0  0
 27 26  1  0  0  0  0
 27 22  2  0  0  0  0
 28 29  2  0  0  0  0
 28 30  1  0  0  0  0
 30 26  1  0  0  0  0
 33 28  1  0  0  0  0
 34 30  1  0  0  0  0
M  END
>  <minimizedAffinity>
-6.2118535

>  <minimizedRMSD>
1.61971033

$$$$
