
 OpenBabel03272509183D

 30 32  0  0  0  0  0  0  0  0999 V2000
   38.1570   31.3660   47.8960 C   0  0  0  0  0  0  0  0  0  0  0  0
   37.2880   31.5860   48.9600 C   0  0  0  0  0  0  0  0  0  0  0  0
   37.4790   32.8030   49.6450 C   0  0  0  0  0  0  0  0  0  0  0  0
   38.4890   33.6930   49.2390 C   0  0  0  0  0  0  0  0  0  0  0  0
   39.3050   33.3780   48.1630 C   0  0  0  0  0  0  0  0  0  0  0  0
   39.1410   32.1990   47.4780 C   0  0  0  0  0  0  0  0  0  0  0  0
   36.7980   32.9650   50.4670 H   0  0  0  0  0  0  0  0  0  0  0  0
   38.4950   34.5560   49.8600 H   0  0  0  0  0  0  0  0  0  0  0  0
   39.9930   34.1890   48.0370 H   0  0  0  0  0  0  0  0  0  0  0  0
   35.1440   30.4650   48.5330 C   0  0  0  0  0  0  0  0  0  0  0  0
   36.2630   30.6670   49.3560 C   0  0  0  0  0  0  0  0  0  0  0  0
   36.3300   29.9500   50.5480 C   0  0  0  0  0  0  0  0  0  0  0  0
   35.3160   29.0960   50.8540 N   0  0  0  0  0  0  0  0  0  0  0  0
   34.2440   28.9290   50.0280 C   0  0  0  0  0  0  0  0  0  0  0  0
   34.1630   29.6130   48.8730 N   0  0  0  0  0  0  0  0  0  0  0  0
   35.0930   31.0230   47.6080 H   0  0  0  0  0  0  0  0  0  0  0  0
   33.4490   28.2420   50.2960 H   0  0  0  0  0  0  0  0  0  0  0  0
   37.4780   30.1160   51.4510 C   0  0  0  0  0  0  0  0  0  0  0  0
   37.6520   31.2020   51.6330 H   0  0  0  0  0  0  0  0  0  0  0  0
   37.2340   29.6290   52.4210 H   0  0  0  0  0  0  0  0  0  0  0  0
   38.3990   29.6070   51.0930 H   0  0  0  0  0  0  0  0  0  0  0  0
   38.0270   30.1780   47.1690 O   0  0  0  0  0  0  0  0  0  0  0  0
   37.5730   30.1290   46.2710 H   0  0  0  0  0  0  0  0  0  0  0  0
   39.9640   31.9260   46.4180 O   0  0  0  0  0  0  0  0  0  0  0  0
   39.7980   32.3860   45.1230 C   0  0  0  0  0  0  0  0  0  0  0  0
   38.3560   32.6230   44.7480 C   0  0  0  0  0  0  0  0  0  0  0  0
   37.7850   31.5780   43.8450 C   0  0  0  0  0  0  0  0  0  0  0  0
   38.6200   31.2820   42.6370 C   0  0  0  0  0  0  0  0  0  0  0  0
   40.0600   31.6200   42.7590 C   0  0  0  0  0  0  0  0  0  0  0  0
   40.4740   31.4110   44.1810 C   0  0  0  0  0  0  0  0  0  0  0  0
  1  2  1  0  0  0  0
  2 11  1  0  0  0  0
  2  3  2  0  0  0  0
  3  7  1  0  0  0  0
  4  3  1  0  0  0  0
  4  8  1  0  0  0  0
  5  4  2  0  0  0  0
  6  1  2  0  0  0  0
  6  5  1  0  0  0  0
  9  5  1  0  0  0  0
 10 15  2  0  0  0  0
 10 11  1  0  0  0  0
 11 12  2  0  0  0  0
 12 13  1  0  0  0  0
 12 18  1  0  0  0  0
 14 17  1  0  0  0  0
 14 13  2  0  0  0  0
 15 14  1  0  0  0  0
 16 10  1  0  0  0  0
 18 19  1  0  0  0  0
 18 20  1  0  0  0  0
 21 18  1  0  0  0  0
 22  1  1  0  0  0  0
 23 22  1  0  0  0  0
 24  6  1  0  0  0  0
 25 24  1  0  0  0  0
 26 25  1  0  0  0  0
 27 26  1  0  0  0  0
 28 29  1  0  0  0  0
 28 27  1  0  0  0  0
 29 30  1  0  0  0  0
 30 25  1  0  0  0  0
M  END
>  <minimizedAffinity>
-6.62358427

>  <minimizedRMSD>
2.91452456

$$$$
