
 OpenBabel03272506383D

 34 36  0  0  1  0  0  0  0  0999 V2000
   34.9110   28.3670   49.8770 O   0  0  0  0  0  0  0  0  0  0  0  0
   34.7420   28.8020   48.7310 C   0  0  0  0  0  0  0  0  0  0  0  0
   35.4580   29.9630   48.2450 C   0  0  2  0  0  0  0  0  0  0  0  0
   35.0530   29.9520   46.7310 C   0  0  0  0  0  0  0  0  0  0  0  0
   33.7020   29.2880   46.7660 C   0  0  0  0  0  0  0  0  0  0  0  0
   33.8470   28.2340   47.7620 N   0  0  0  0  0  0  0  0  0  0  0  0
   35.1030   30.9270   48.6520 H   0  0  0  0  0  0  0  0  0  0  0  0
   35.0500   30.9660   46.3260 H   0  0  0  0  0  0  0  0  0  0  0  0
   35.7460   29.2640   46.2340 H   0  0  0  0  0  0  0  0  0  0  0  0
   33.4100   28.8840   45.7820 H   0  0  0  0  0  0  0  0  0  0  0  0
   32.9490   29.9900   47.1760 H   0  0  0  0  0  0  0  0  0  0  0  0
   33.2180   26.9200   47.7460 C   0  0  0  0  0  0  0  0  0  0  0  0
   33.6690   26.2440   48.5020 H   0  0  0  0  0  0  0  0  0  0  0  0
   33.3810   26.5030   46.7420 H   0  0  0  0  0  0  0  0  0  0  0  0
   31.7380   27.0310   47.9480 C   0  0  0  0  0  3  0  0  0  0  0  0
   31.5220   27.8390   49.2340 C   0  0  0  0  0  2  0  0  0  0  0  0
   30.0960   27.8300   49.6810 C   0  0  0  0  0  2  0  0  0  0  0  0
   29.2090   27.4670   48.5200 C   0  0  0  0  0  2  0  0  0  0  0  0
   29.6600   28.2340   47.2860 C   0  0  0  0  0  2  0  0  0  0  0  0
   31.0400   27.8090   46.8500 C   0  0  0  0  0  2  0  0  0  0  0  0
   36.8770   29.8300   48.2540 O   0  0  0  0  0  0  0  0  0  0  0  0
   37.6340   31.0000   48.2780 C   0  0  0  0  0  0  0  0  0  0  0  0
   37.7740   31.6250   49.5040 C   0  0  0  0  0  0  0  0  0  0  0  0
   38.5220   32.7920   49.5620 C   0  0  0  0  0  0  0  0  0  0  0  0
   39.0820   33.2690   48.4170 N   0  0  0  0  0  0  0  0  0  0  0  0
   38.9360   32.6520   47.2350 C   0  0  0  0  0  0  0  0  0  0  0  0
   38.2190   31.5320   47.1830 N   0  0  0  0  0  0  0  0  0  0  0  0
   40.4520   32.2690   45.4500 C   0  0  0  0  0  0  0  0  0  0  0  0
   40.7740   31.1160   45.8360 O   0  0  0  0  0  0  0  0  0  0  0  0
   39.5320   33.1780   46.0510 N   0  0  0  0  0  0  0  0  0  0  0  0
   37.3590   31.2970   50.4350 H   0  0  0  0  0  0  0  0  0  0  0  0
   38.6630   33.3150   50.4840 H   0  0  0  0  0  0  0  0  0  0  0  0
   41.0290   32.4320   44.5480 H   0  0  0  0  0  0  0  0  0  0  0  0
   39.4020   34.0960   45.5710 H   0  0  0  0  0  0  0  0  0  0  0  0
  2  1  2  0  0  0  0
  3 21  1  0  0  0  0
  3  7  1  1  0  0  0
  3  2  1  0  0  0  0
  4  5  1  0  0  0  0
  4  3  1  0  0  0  0
  5 11  1  0  0  0  0
  5  6  1  0  0  0  0
  6  2  1  0  0  0  0
  8  4  1  0  0  0  0
  9  4  1  0  0  0  0
 10  5  1  0  0  0  0
 12  6  1  0  0  0  0
 12 15  1  0  0  0  0
 12 13  1  0  0  0  0
 14 12  1  0  0  0  0
 15 16  1  0  0  0  0
 16 17  1  0  0  0  0
 18 17  1  0  0  0  0
 19 18  1  0  0  0  0
 20 19  1  0  0  0  0
 20 15  1  0  0  0  0
 21 22  1  0  0  0  0
 22 23  1  0  0  0  0
 23 24  2  0  0  0  0
 23 31  1  0  0  0  0
 24 32  1  0  0  0  0
 25 24  1  0  0  0  0
 26 25  2  0  0  0  0
 27 26  1  0  0  0  0
 27 22  2  0  0  0  0
 28 29  2  0  0  0  0
 28 30  1  0  0  0  0
 30 26  1  0  0  0  0
 33 28  1  0  0  0  0
 34 30  1  0  0  0  0
M  END
>  <minimizedAffinity>
-6.05300283

>  <minimizedRMSD>
0.882014453

$$$$
