
 OpenBabel03272508573D

 37 40  0  0  1  0  0  0  0  0999 V2000
   38.4200   31.8210   44.6160 C   0  0  0  0  0  0  0  0  0  0  0  0
   37.3240   32.3870   44.5730 O   0  0  0  0  0  0  0  0  0  0  0  0
   39.0160   31.4800   45.8940 N   0  0  0  0  0  0  0  0  0  0  0  0
   39.9900   31.1970   46.0230 H   0  0  0  0  0  0  0  0  0  0  0  0
   39.1650   31.4670   43.3940 C   0  0  0  0  0  0  0  0  0  0  0  0
   40.1900   30.5560   43.4930 C   0  0  0  0  0  0  0  0  0  0  0  0
   40.8790   30.2400   42.3280 C   0  0  0  0  0  0  0  0  0  0  0  0
   40.5020   30.8460   41.1660 C   0  0  0  0  0  0  0  0  0  0  0  0
   39.4770   31.7600   41.0580 C   0  0  0  0  0  0  0  0  0  0  0  0
   38.8260   32.0450   42.2160 N   0  0  0  0  0  0  0  0  0  0  0  0
   40.4720   30.0820   44.4320 H   0  0  0  0  0  0  0  0  0  0  0  0
   41.6750   29.5260   42.4320 H   0  0  0  0  0  0  0  0  0  0  0  0
   41.1040   30.5200   40.3390 H   0  0  0  0  0  0  0  0  0  0  0  0
   39.0640   32.3900   39.7920 C   0  0  2  0  0  0  0  0  0  0  0  0
   38.8600   33.6610   39.8330 O   0  0  0  0  0  0  0  0  0  0  0  0
   38.8250   31.8270   38.4380 C   0  0  0  0  0  0  0  0  0  0  0  0
   40.1090   31.5830   37.7560 C   0  0  0  0  0  0  0  0  0  0  0  0
   39.9400   30.3990   36.7940 C   0  0  0  0  0  0  0  0  0  0  0  0
   39.8050   29.1940   37.7220 C   0  0  0  0  0  0  0  0  0  0  0  0
   38.5550   29.2950   38.5530 C   0  0  0  0  0  0  0  0  0  0  0  0
   37.9000   30.6340   38.4990 C   0  0  0  0  0  0  0  0  0  0  0  0
   38.7000   31.1220   48.3370 C   0  0  2  0  0  0  0  0  0  0  0  0
   38.6620   32.5900   48.1050 C   0  0  0  0  0  0  0  0  0  0  0  0
   38.1890   31.5440   47.0740 C   0  0  1  0  0  0  0  0  0  0  0  0
   39.7260   30.7170   48.4430 H   0  0  0  0  0  0  0  0  0  0  0  0
   39.5870   33.1230   47.8990 H   0  0  0  0  0  0  0  0  0  0  0  0
   37.9100   33.1510   48.6760 H   0  0  0  0  0  0  0  0  0  0  0  0
   37.0830   31.5920   46.9260 H   0  0  0  0  0  0  0  0  0  0  0  0
   35.8770   29.1660   49.7640 C   0  0  0  0  0  0  0  0  0  0  0  0
   36.0960   29.3260   51.1760 C   0  0  0  0  0  0  0  0  0  0  0  0
   37.2230   30.1250   51.5990 C   0  0  0  0  0  0  0  0  0  0  0  0
   38.0440   30.7000   50.6600 N   0  0  0  0  0  0  0  0  0  0  0  0
   37.7600   30.4930   49.3380 C   0  0  0  0  0  0  0  0  0  0  0  0
   36.6950   29.7390   48.8560 N   0  0  0  0  0  0  0  0  0  0  0  0
   35.0400   28.5720   49.4780 H   0  0  0  0  0  0  0  0  0  0  0  0
   35.4610   28.8810   51.9040 H   0  0  0  0  0  0  0  0  0  0  0  0
   37.3870   30.2440   52.6460 H   0  0  0  0  0  0  0  0  0  0  0  0
  1  3  1  0  0  0  0
  2  1  2  0  0  0  0
  3  4  1  0  0  0  0
  3 24  1  0  0  0  0
  5  6  1  0  0  0  0
  5  1  1  0  0  0  0
  6 11  1  0  0  0  0
  7 12  1  0  0  0  0
  7  6  2  0  0  0  0
  8  7  1  0  0  0  0
  9  8  2  0  0  0  0
  9 10  1  0  0  0  0
 10  5  2  0  0  0  0
 13  8  1  0  0  0  0
 14 15  1  1  0  0  0
 14  9  1  0  0  0  0
 16 21  1  0  0  0  0
 16 14  1  0  0  0  0
 17 16  1  0  0  0  0
 18 19  1  0  0  0  0
 18 17  1  0  0  0  0
 19 20  1  0  0  0  0
 21 20  1  0  0  0  0
 22 25  1  6  0  0  0
 22 33  1  0  0  0  0
 23 22  1  0  0  0  0
 23 27  1  0  0  0  0
 24 28  1  6  0  0  0
 24 23  1  0  0  0  0
 24 22  1  0  0  0  0
 26 23  1  0  0  0  0
 29 30  1  0  0  0  0
 30 31  2  0  0  0  0
 30 36  1  0  0  0  0
 31 37  1  0  0  0  0
 32 31  1  0  0  0  0
 33 32  2  0  0  0  0
 34 33  1  0  0  0  0
 34 29  2  0  0  0  0
 35 29  1  0  0  0  0
M  END
>  <minimizedAffinity>
-5.07630682

>  <minimizedRMSD>
0.917355835

$$$$
