
 OpenBabel03272502293D

 20 21  0  0  0  0  0  0  0  0999 V2000
   35.5710   30.1790   34.1350 C   0  0  0  0  0  3  0  0  0  0  0  0
   35.8070   28.8870   34.0600 C   0  0  0  0  0  3  0  0  0  0  0  0
   34.7980   32.3000   37.0830 C   0  0  0  0  0  0  0  0  0  0  0  0
   35.5220   31.7040   36.0290 C   0  0  0  0  0  0  0  0  0  0  0  0
   34.8520   30.7900   35.2070 C   0  0  0  0  0  0  0  0  0  0  0  0
   33.5570   30.5120   35.4470 N   0  0  0  0  0  0  0  0  0  0  0  0
   32.8810   31.0910   36.4620 C   0  0  0  0  0  0  0  0  0  0  0  0
   33.4920   31.9840   37.2810 N   0  0  0  0  0  0  0  0  0  0  0  0
   35.2360   33.0110   37.7600 H   0  0  0  0  0  0  0  0  0  0  0  0
   36.5610   31.9910   35.9140 H   0  0  0  0  0  0  0  0  0  0  0  0
   31.8460   30.8530   36.6340 H   0  0  0  0  0  0  0  0  0  0  0  0
   36.5590   28.2640   32.9330 C   0  0  0  0  0  0  0  0  0  0  0  0
   35.8380   27.9530   32.1420 H   0  0  0  0  0  0  0  0  0  0  0  0
   37.2390   28.9860   32.4390 H   0  0  0  0  0  0  0  0  0  0  0  0
   37.3270   27.0400   33.4420 C   0  0  0  0  0  3  0  0  0  0  0  0
   38.7330   27.1560   32.9680 C   0  0  0  0  0  2  0  0  0  0  0  0
   39.7870   26.5660   33.8270 C   0  0  0  0  0  2  0  0  0  0  0  0
   39.4770   26.5950   35.3000 C   0  0  0  0  0  2  0  0  0  0  0  0
   38.3500   27.5950   35.5770 C   0  0  0  0  0  2  0  0  0  0  0  0
   37.1310   26.9590   34.9150 C   0  0  0  0  0  2  0  0  0  0  0  0
  1  5  1  0  0  0  0
  2  1  2  0  0  0  0
  3  8  1  0  0  0  0
  3  9  1  0  0  0  0
  4  3  2  0  0  0  0
  5  6  2  0  0  0  0
  5  4  1  0  0  0  0
  6  7  1  0  0  0  0
  7 11  1  0  0  0  0
  7  8  2  0  0  0  0
 10  4  1  0  0  0  0
 12 15  1  0  0  0  0
 12  2  1  0  0  0  0
 13 12  1  0  0  0  0
 14 12  1  0  0  0  0
 15 20  1  0  0  0  0
 16 15  1  0  0  0  0
 16 17  1  0  0  0  0
 17 18  1  0  0  0  0
 18 19  1  0  0  0  0
 20 19  1  0  0  0  0
M  END
>  <minimizedAffinity>
-4.68506765

$$$$

 OpenBabel03272502293D

 20 21  0  0  0  0  0  0  0  0999 V2000
   36.9550   27.2790   34.5490 C   0  0  0  0  0  3  0  0  0  0  0  0
   37.8960   27.5510   35.4270 C   0  0  0  0  0  3  0  0  0  0  0  0
   35.1230   30.1190   33.0100 C   0  0  0  0  0  0  0  0  0  0  0  0
   35.5770   29.2010   33.9810 C   0  0  0  0  0  0  0  0  0  0  0  0
   36.4860   28.2150   33.5780 C   0  0  0  0  0  0  0  0  0  0  0  0
   36.8910   28.1750   32.2950 N   0  0  0  0  0  0  0  0  0  0  0  0
   36.4450   29.0630   31.3790 C   0  0  0  0  0  0  0  0  0  0  0  0
   35.5640   30.0340   31.7290 N   0  0  0  0  0  0  0  0  0  0  0  0
   34.4260   30.9050   33.2350 H   0  0  0  0  0  0  0  0  0  0  0  0
   35.1940   29.3130   34.9890 H   0  0  0  0  0  0  0  0  0  0  0  0
   36.7830   29.0110   30.3600 H   0  0  0  0  0  0  0  0  0  0  0  0
   38.3750   26.5620   36.4350 C   0  0  0  0  0  0  0  0  0  0  0  0
   39.4360   26.7870   36.6900 H   0  0  0  0  0  0  0  0  0  0  0  0
   37.8230   26.6440   37.3920 H   0  0  0  0  0  0  0  0  0  0  0  0
   38.2720   25.1470   35.8560 C   0  0  0  0  0  3  0  0  0  0  0  0
   39.6190   24.7610   35.3580 C   0  0  0  0  0  2  0  0  0  0  0  0
   39.9730   23.3230   35.4090 C   0  0  0  0  0  2  0  0  0  0  0  0
   39.3380   22.5660   36.5450 C   0  0  0  0  0  2  0  0  0  0  0  0
   38.8230   23.5480   37.6030 C   0  0  0  0  0  2  0  0  0  0  0  0
   37.6770   24.2690   36.9000 C   0  0  0  0  0  2  0  0  0  0  0  0
  1  2  2  0  0  0  0
  2 12  1  0  0  0  0
  3  9  1  0  0  0  0
  3  4  1  0  0  0  0
  4 10  1  0  0  0  0
  5  4  2  0  0  0  0
  5  1  1  0  0  0  0
  6  5  1  0  0  0  0
  7  8  1  0  0  0  0
  7  6  2  0  0  0  0
  8  3  2  0  0  0  0
 11  7  1  0  0  0  0
 12 13  1  0  0  0  0
 12 14  1  0  0  0  0
 15 12  1  0  0  0  0
 15 20  1  0  0  0  0
 16 17  1  0  0  0  0
 16 15  1  0  0  0  0
 17 18  1  0  0  0  0
 18 19  1  0  0  0  0
 20 19  1  0  0  0  0
M  END
>  <minimizedAffinity>
-4.3548317

$$$$

 OpenBabel03272502293D

 20 21  0  0  0  0  0  0  0  0999 V2000
   38.3630   25.1200   34.9130 C   0  0  0  0  0  3  0  0  0  0  0  0
   38.6140   26.3970   34.7230 C   0  0  0  0  0  3  0  0  0  0  0  0
   39.8810   22.8410   37.4210 C   0  0  0  0  0  0  0  0  0  0  0  0
   39.6500   23.5030   36.1970 C   0  0  0  0  0  0  0  0  0  0  0  0
   38.6100   24.4400   36.1440 C   0  0  0  0  0  0  0  0  0  0  0  0
   37.8760   24.6740   37.2470 N   0  0  0  0  0  0  0  0  0  0  0  0
   38.1120   24.0290   38.4100 C   0  0  0  0  0  0  0  0  0  0  0  0
   39.1100   23.1150   38.5040 N   0  0  0  0  0  0  0  0  0  0  0  0
   40.6570   22.1080   37.5470 H   0  0  0  0  0  0  0  0  0  0  0  0
   40.2930   23.2480   35.3630 H   0  0  0  0  0  0  0  0  0  0  0  0
   37.5120   24.2340   39.2790 H   0  0  0  0  0  0  0  0  0  0  0  0
   38.3500   27.0920   33.4300 C   0  0  0  0  0  0  0  0  0  0  0  0
   38.9010   28.0610   33.4190 H   0  0  0  0  0  0  0  0  0  0  0  0
   38.7460   26.5240   32.5650 H   0  0  0  0  0  0  0  0  0  0  0  0
   36.8470   27.3490   33.2820 C   0  0  0  0  0  3  0  0  0  0  0  0
   36.4420   28.3010   34.3500 C   0  0  0  0  0  2  0  0  0  0  0  0
   35.3190   29.2200   34.0480 C   0  0  0  0  0  2  0  0  0  0  0  0
   35.2120   29.6140   32.5990 C   0  0  0  0  0  2  0  0  0  0  0  0
   36.5270   29.3070   31.8750 C   0  0  0  0  0  2  0  0  0  0  0  0
   36.5950   27.7830   31.8800 C   0  0  0  0  0  2  0  0  0  0  0  0
  1  5  1  0  0  0  0
  2  1  2  0  0  0  0
  3  9  1  0  0  0  0
  3  8  1  0  0  0  0
  4  3  2  0  0  0  0
  5  4  1  0  0  0  0
  5  6  2  0  0  0  0
  6  7  1  0  0  0  0
  7  8  2  0  0  0  0
  7 11  1  0  0  0  0
 10  4  1  0  0  0  0
 12  2  1  0  0  0  0
 13 12  1  0  0  0  0
 14 12  1  0  0  0  0
 15 12  1  0  0  0  0
 15 16  1  0  0  0  0
 17 16  1  0  0  0  0
 18 17  1  0  0  0  0
 19 20  1  0  0  0  0
 19 18  1  0  0  0  0
 20 15  1  0  0  0  0
M  END
>  <minimizedAffinity>
-4.34423351

$$$$

 OpenBabel03272502293D

 20 21  0  0  0  0  0  0  0  0999 V2000
   37.0450   27.1210   34.8420 C   0  0  0  0  0  3  0  0  0  0  0  0
   37.9790   26.2280   35.0890 C   0  0  0  0  0  3  0  0  0  0  0  0
   37.5700   28.0610   31.2880 C   0  0  0  0  0  0  0  0  0  0  0  0
   37.7570   27.4310   32.5360 C   0  0  0  0  0  0  0  0  0  0  0  0
   36.8690   27.7500   33.5720 C   0  0  0  0  0  0  0  0  0  0  0  0
   35.8820   28.6370   33.3450 N   0  0  0  0  0  0  0  0  0  0  0  0
   35.7200   29.2300   32.1430 C   0  0  0  0  0  0  0  0  0  0  0  0
   36.5570   28.9480   31.1130 N   0  0  0  0  0  0  0  0  0  0  0  0
   38.2050   27.8720   30.4410 H   0  0  0  0  0  0  0  0  0  0  0  0
   38.5800   26.7310   32.6230 H   0  0  0  0  0  0  0  0  0  0  0  0
   34.9230   29.9350   31.9860 H   0  0  0  0  0  0  0  0  0  0  0  0
   38.1490   25.5800   36.4220 C   0  0  0  0  0  0  0  0  0  0  0  0
   38.9610   26.1030   36.9790 H   0  0  0  0  0  0  0  0  0  0  0  0
   37.2460   25.6900   37.0540 H   0  0  0  0  0  0  0  0  0  0  0  0
   38.5170   24.1060   36.2330 C   0  0  0  0  0  3  0  0  0  0  0  0
   39.9290   24.0460   35.7680 C   0  0  0  0  0  2  0  0  0  0  0  0
   40.7220   22.8590   36.1650 C   0  0  0  0  0  2  0  0  0  0  0  0
   40.3350   22.2680   37.4950 C   0  0  0  0  0  2  0  0  0  0  0  0
   39.5080   23.2800   38.2950 C   0  0  0  0  0  2  0  0  0  0  0  0
   38.2090   23.3920   37.5020 C   0  0  0  0  0  2  0  0  0  0  0  0
  1  2  2  0  0  0  0
  2 12  1  0  0  0  0
  3  4  1  0  0  0  0
  4 10  1  0  0  0  0
  4  5  2  0  0  0  0
  5  1  1  0  0  0  0
  6  5  1  0  0  0  0
  7  6  2  0  0  0  0
  8  3  2  0  0  0  0
  8  7  1  0  0  0  0
  9  3  1  0  0  0  0
 11  7  1  0  0  0  0
 12 13  1  0  0  0  0
 12 14  1  0  0  0  0
 15 12  1  0  0  0  0
 15 20  1  0  0  0  0
 16 17  1  0  0  0  0
 16 15  1  0  0  0  0
 17 18  1  0  0  0  0
 18 19  1  0  0  0  0
 20 19  1  0  0  0  0
M  END
>  <minimizedAffinity>
-4.30527258

$$$$

 OpenBabel03272502293D

 20 21  0  0  0  0  0  0  0  0999 V2000
   36.0770   24.5150   31.0950 C   0  0  0  0  0  3  0  0  0  0  0  0
   35.7380   23.4210   31.7430 C   0  0  0  0  0  3  0  0  0  0  0  0
   36.0730   28.1750   31.7180 C   0  0  0  0  0  0  0  0  0  0  0  0
   35.8570   26.9370   31.0770 C   0  0  0  0  0  0  0  0  0  0  0  0
   36.2880   25.7760   31.7310 C   0  0  0  0  0  0  0  0  0  0  0  0
   36.8860   25.8780   32.9320 N   0  0  0  0  0  0  0  0  0  0  0  0
   37.0840   27.0730   33.5300 C   0  0  0  0  0  0  0  0  0  0  0  0
   36.6810   28.2220   32.9320 N   0  0  0  0  0  0  0  0  0  0  0  0
   35.7730   29.1130   31.2860 H   0  0  0  0  0  0  0  0  0  0  0  0
   35.3670   26.9560   30.1100 H   0  0  0  0  0  0  0  0  0  0  0  0
   37.5630   27.1280   34.4910 H   0  0  0  0  0  0  0  0  0  0  0  0
   35.5210   22.1110   31.0640 C   0  0  0  0  0  0  0  0  0  0  0  0
   34.4370   21.9990   30.8270 H   0  0  0  0  0  0  0  0  0  0  0  0
   36.0390   22.0600   30.0860 H   0  0  0  0  0  0  0  0  0  0  0  0
   35.9670   20.9730   31.9870 C   0  0  0  0  0  3  0  0  0  0  0  0
   34.8080   20.0610   32.1780 C   0  0  0  0  0  2  0  0  0  0  0  0
   35.1050   18.6260   32.3980 C   0  0  0  0  0  2  0  0  0  0  0  0
   36.3510   18.1360   31.7090 C   0  0  0  0  0  2  0  0  0  0  0  0
   36.7700   19.1290   30.6190 C   0  0  0  0  0  2  0  0  0  0  0  0
   37.1950   20.3670   31.4040 C   0  0  0  0  0  2  0  0  0  0  0  0
  1  5  1  0  0  0  0
  1  2  2  0  0  0  0
  3  8  1  0  0  0  0
  4  3  2  0  0  0  0
  4  5  1  0  0  0  0
  5  6  2  0  0  0  0
  6  7  1  0  0  0  0
  7 11  1  0  0  0  0
  8  7  2  0  0  0  0
  9  3  1  0  0  0  0
 10  4  1  0  0  0  0
 12  2  1  0  0  0  0
 12 15  1  0  0  0  0
 13 12  1  0  0  0  0
 14 12  1  0  0  0  0
 15 16  1  0  0  0  0
 16 17  1  0  0  0  0
 18 17  1  0  0  0  0
 19 20  1  0  0  0  0
 19 18  1  0  0  0  0
 20 15  1  0  0  0  0
M  END
>  <minimizedAffinity>
-4.28185415

$$$$

 OpenBabel03272502293D

 20 21  0  0  0  0  0  0  0  0999 V2000
   38.0350   26.4050   35.9890 C   0  0  0  0  0  3  0  0  0  0  0  0
   37.3530   26.5840   34.8790 C   0  0  0  0  0  3  0  0  0  0  0  0
   38.5980   23.3840   38.0730 C   0  0  0  0  0  0  0  0  0  0  0  0
   38.1060   24.6410   37.6620 C   0  0  0  0  0  0  0  0  0  0  0  0
   38.5240   25.1350   36.4200 C   0  0  0  0  0  0  0  0  0  0  0  0
   39.3720   24.4060   35.6710 N   0  0  0  0  0  0  0  0  0  0  0  0
   39.8330   23.2050   36.0820 C   0  0  0  0  0  0  0  0  0  0  0  0
   39.4520   22.6890   37.2780 N   0  0  0  0  0  0  0  0  0  0  0  0
   38.3280   22.9330   39.0110 H   0  0  0  0  0  0  0  0  0  0  0  0
   37.4270   25.1540   38.3340 H   0  0  0  0  0  0  0  0  0  0  0  0
   40.5090   22.6400   35.4650 H   0  0  0  0  0  0  0  0  0  0  0  0
   36.8480   27.9180   34.4430 C   0  0  0  0  0  0  0  0  0  0  0  0
   36.0440   28.2490   35.1410 H   0  0  0  0  0  0  0  0  0  0  0  0
   37.6300   28.7000   34.5100 H   0  0  0  0  0  0  0  0  0  0  0  0
   36.2870   27.8160   33.0210 C   0  0  0  0  0  3  0  0  0  0  0  0
   36.1200   29.1980   32.4980 C   0  0  0  0  0  2  0  0  0  0  0  0
   36.2770   29.3940   31.0380 C   0  0  0  0  0  2  0  0  0  0  0  0
   37.2510   28.4480   30.3860 C   0  0  0  0  0  2  0  0  0  0  0  0
   38.1450   27.8020   31.4510 C   0  0  0  0  0  2  0  0  0  0  0  0
   37.1830   26.9190   32.2410 C   0  0  0  0  0  2  0  0  0  0  0  0
  1  5  1  0  0  0  0
  2  1  2  0  0  0  0
  3  9  1  0  0  0  0
  4  3  1  0  0  0  0
  4 10  1  0  0  0  0
  5  4  2  0  0  0  0
  6  7  2  0  0  0  0
  6  5  1  0  0  0  0
  7  8  1  0  0  0  0
  8  3  2  0  0  0  0
 11  7  1  0  0  0  0
 12 14  1  0  0  0  0
 12  2  1  0  0  0  0
 12 13  1  0  0  0  0
 15 12  1  0  0  0  0
 16 15  1  0  0  0  0
 17 16  1  0  0  0  0
 18 17  1  0  0  0  0
 18 19  1  0  0  0  0
 19 20  1  0  0  0  0
 20 15  1  0  0  0  0
M  END
>  <minimizedAffinity>
-4.26716661

$$$$

 OpenBabel03272502293D

 20 21  0  0  0  0  0  0  0  0999 V2000
   36.6460   27.9540   34.4940 C   0  0  0  0  0  3  0  0  0  0  0  0
   36.1810   28.6560   33.4830 C   0  0  0  0  0  3  0  0  0  0  0  0
   38.2960   24.7340   35.3300 C   0  0  0  0  0  0  0  0  0  0  0  0
   37.7760   26.0370   35.4770 C   0  0  0  0  0  0  0  0  0  0  0  0
   37.1770   26.6350   34.3610 C   0  0  0  0  0  0  0  0  0  0  0  0
   37.1180   25.9560   33.2010 N   0  0  0  0  0  0  0  0  0  0  0  0
   37.6220   24.7080   33.0790 C   0  0  0  0  0  0  0  0  0  0  0  0
   38.2100   24.0930   34.1360 N   0  0  0  0  0  0  0  0  0  0  0  0
   38.7720   24.2040   36.1350 H   0  0  0  0  0  0  0  0  0  0  0  0
   37.8710   26.5040   36.4510 H   0  0  0  0  0  0  0  0  0  0  0  0
   37.5620   24.1850   32.1420 H   0  0  0  0  0  0  0  0  0  0  0  0
   35.6300   30.0330   33.6390 C   0  0  0  0  0  0  0  0  0  0  0  0
   36.4240   30.7730   33.3850 H   0  0  0  0  0  0  0  0  0  0  0  0
   34.8070   30.2340   32.9250 H   0  0  0  0  0  0  0  0  0  0  0  0
   35.1710   30.2430   35.0850 C   0  0  0  0  0  3  0  0  0  0  0  0
   35.8910   31.4280   35.6230 C   0  0  0  0  0  2  0  0  0  0  0  0
   35.1890   32.2410   36.6430 C   0  0  0  0  0  2  0  0  0  0  0  0
   33.6900   32.2660   36.4950 C   0  0  0  0  0  2  0  0  0  0  0  0
   33.2970   31.7930   35.0910 C   0  0  0  0  0  2  0  0  0  0  0  0
   33.6850   30.3170   35.0860 C   0  0  0  0  0  2  0  0  0  0  0  0
  2 12  1  0  0  0  0
  2  1  2  0  0  0  0
  3  4  1  0  0  0  0
  3  9  1  0  0  0  0
  4 10  1  0  0  0  0
  5  1  1  0  0  0  0
  5  4  2  0  0  0  0
  6  5  1  0  0  0  0
  7  6  2  0  0  0  0
  7  8  1  0  0  0  0
  8  3  2  0  0  0  0
 11  7  1  0  0  0  0
 12 15  1  0  0  0  0
 13 12  1  0  0  0  0
 14 12  1  0  0  0  0
 15 20  1  0  0  0  0
 15 16  1  0  0  0  0
 16 17  1  0  0  0  0
 18 17  1  0  0  0  0
 19 18  1  0  0  0  0
 20 19  1  0  0  0  0
M  END
>  <minimizedAffinity>
-4.19146204

$$$$

 OpenBabel03272502293D

 20 21  0  0  0  0  0  0  0  0999 V2000
   38.0780   24.8100   34.6480 C   0  0  0  0  0  3  0  0  0  0  0  0
   37.9340   24.2000   33.4910 C   0  0  0  0  0  3  0  0  0  0  0  0
   38.3810   23.6680   38.1680 C   0  0  0  0  0  0  0  0  0  0  0  0
   37.8690   24.3060   37.0190 C   0  0  0  0  0  0  0  0  0  0  0  0
   38.5820   24.1700   35.8210 C   0  0  0  0  0  0  0  0  0  0  0  0
   39.7170   23.4460   35.8060 N   0  0  0  0  0  0  0  0  0  0  0  0
   40.1910   22.8430   36.9180 C   0  0  0  0  0  0  0  0  0  0  0  0
   39.5300   22.9490   38.0980 N   0  0  0  0  0  0  0  0  0  0  0  0
   37.8960   23.7220   39.1260 H   0  0  0  0  0  0  0  0  0  0  0  0
   36.9490   24.8680   37.1290 H   0  0  0  0  0  0  0  0  0  0  0  0
   41.0990   22.2690   36.8810 H   0  0  0  0  0  0  0  0  0  0  0  0
   37.4050   24.8830   32.2750 C   0  0  0  0  0  0  0  0  0  0  0  0
   36.4530   25.4020   32.5350 H   0  0  0  0  0  0  0  0  0  0  0  0
   38.0840   25.6840   31.9200 H   0  0  0  0  0  0  0  0  0  0  0  0
   37.1470   23.8480   31.1750 C   0  0  0  0  0  3  0  0  0  0  0  0
   38.0290   22.6790   31.4360 C   0  0  0  0  0  2  0  0  0  0  0  0
   37.5310   21.3490   31.0150 C   0  0  0  0  0  2  0  0  0  0  0  0
   36.0330   21.1990   31.0730 C   0  0  0  0  0  2  0  0  0  0  0  0
   35.4310   22.3060   31.9440 C   0  0  0  0  0  2  0  0  0  0  0  0
   35.6840   23.5770   31.1380 C   0  0  0  0  0  2  0  0  0  0  0  0
  1  5  1  0  0  0  0
  2  1  2  0  0  0  0
  3  9  1  0  0  0  0
  4 10  1  0  0  0  0
  4  3  2  0  0  0  0
  5  4  1  0  0  0  0
  6  5  2  0  0  0  0
  6  7  1  0  0  0  0
  7  8  2  0  0  0  0
  8  3  1  0  0  0  0
 11  7  1  0  0  0  0
 12 13  1  0  0  0  0
 12  2  1  0  0  0  0
 14 12  1  0  0  0  0
 15 16  1  0  0  0  0
 15 12  1  0  0  0  0
 17 18  1  0  0  0  0
 17 16  1  0  0  0  0
 18 19  1  0  0  0  0
 20 15  1  0  0  0  0
 20 19  1  0  0  0  0
M  END
>  <minimizedAffinity>
-4.13463831

$$$$

 OpenBabel03272502293D

 20 21  0  0  0  0  0  0  0  0999 V2000
   37.5700   25.5210   35.8150 C   0  0  0  0  0  3  0  0  0  0  0  0
   38.0460   26.6140   35.2590 C   0  0  0  0  0  3  0  0  0  0  0  0
   40.2640   23.0690   36.5360 C   0  0  0  0  0  0  0  0  0  0  0  0
   39.4740   24.0070   35.8390 C   0  0  0  0  0  0  0  0  0  0  0  0
   38.3790   24.5700   36.5070 C   0  0  0  0  0  0  0  0  0  0  0  0
   38.1200   24.2010   37.7750 N   0  0  0  0  0  0  0  0  0  0  0  0
   38.8870   23.3000   38.4260 C   0  0  0  0  0  0  0  0  0  0  0  0
   39.9580   22.7320   37.8150 N   0  0  0  0  0  0  0  0  0  0  0  0
   41.1210   22.5910   36.0970 H   0  0  0  0  0  0  0  0  0  0  0  0
   39.7620   24.2410   34.8200 H   0  0  0  0  0  0  0  0  0  0  0  0
   38.6600   23.0220   39.4400 H   0  0  0  0  0  0  0  0  0  0  0  0
   37.1870   27.5980   34.5390 C   0  0  0  0  0  0  0  0  0  0  0  0
   36.1170   27.3110   34.6710 H   0  0  0  0  0  0  0  0  0  0  0  0
   37.2700   28.6150   34.9700 H   0  0  0  0  0  0  0  0  0  0  0  0
   37.5420   27.5970   33.0490 C   0  0  0  0  0  3  0  0  0  0  0  0
   38.9060   27.0200   32.9070 C   0  0  0  0  0  2  0  0  0  0  0  0
   39.2010   26.2820   31.6570 C   0  0  0  0  0  2  0  0  0  0  0  0
   38.0130   25.5810   31.0540 C   0  0  0  0  0  2  0  0  0  0  0  0
   36.8960   25.4560   32.0950 C   0  0  0  0  0  2  0  0  0  0  0  0
   36.4490   26.8980   32.3200 C   0  0  0  0  0  2  0  0  0  0  0  0
  1  5  1  0  0  0  0
  2  1  2  0  0  0  0
  3  8  1  0  0  0  0
  4  5  1  0  0  0  0
  4  3  2  0  0  0  0
  5  6  2  0  0  0  0
  6  7  1  0  0  0  0
  7 11  1  0  0  0  0
  8  7  2  0  0  0  0
  9  3  1  0  0  0  0
 10  4  1  0  0  0  0
 12 13  1  0  0  0  0
 12 14  1  0  0  0  0
 12  2  1  0  0  0  0
 15 12  1  0  0  0  0
 16 15  1  0  0  0  0
 17 16  1  0  0  0  0
 18 17  1  0  0  0  0
 18 19  1  0  0  0  0
 19 20  1  0  0  0  0
 20 15  1  0  0  0  0
M  END
>  <minimizedAffinity>
-4.13301706

$$$$
