
 OpenBabel03272503393D

 26 28  0  0  0  0  0  0  0  0999 V2000
   38.5470   24.5720   36.0960 C   0  0  0  0  0  0  0  0  0  0  0  0
   37.6920   25.5320   35.5870 C   0  0  0  0  0  0  0  0  0  0  0  0
   38.1420   26.4580   34.6590 C   0  0  0  0  0  0  0  0  0  0  0  0
   39.4480   26.3660   34.2890 N   0  0  0  0  0  0  0  0  0  0  0  0
   40.2740   25.4190   34.7980 C   0  0  0  0  0  0  0  0  0  0  0  0
   39.8280   24.5330   35.6910 N   0  0  0  0  0  0  0  0  0  0  0  0
   36.6460   25.6490   35.8460 H   0  0  0  0  0  0  0  0  0  0  0  0
   41.3020   25.3980   34.4640 H   0  0  0  0  0  0  0  0  0  0  0  0
   37.2960   27.4750   34.0970 C   0  0  0  0  0  0  0  0  0  0  0  0
   37.0570   27.6650   32.7590 C   0  0  0  0  0  0  0  0  0  0  0  0
   36.1980   28.7430   32.6980 C   0  0  0  0  0  0  0  0  0  0  0  0
   35.9280   29.1870   33.9340 N   0  0  0  0  0  0  0  0  0  0  0  0
   36.6120   28.3960   34.7840 N   0  0  0  0  0  0  0  0  0  0  0  0
   37.4700   27.0760   31.9450 H   0  0  0  0  0  0  0  0  0  0  0  0
   35.8280   29.1310   31.7620 H   0  0  0  0  0  0  0  0  0  0  0  0
   35.0660   30.3060   34.3110 C   0  0  0  0  0  3  0  0  0  0  0  0
   35.4370   30.8670   35.6280 C   0  0  0  0  0  2  0  0  0  0  0  0
   36.2940   32.0730   35.6440 C   0  0  0  0  0  2  0  0  0  0  0  0
   35.8260   33.0640   34.6190 C   0  0  0  0  0  2  0  0  0  0  0  0
   36.0120   32.3860   33.2650 C   0  0  0  0  0  2  0  0  0  0  0  0
   34.9680   31.3070   33.1940 C   0  0  0  0  0  2  0  0  0  0  0  0
   37.9220   23.7340   37.0110 O   0  0  0  0  0  0  0  0  0  0  0  0
   38.1810   23.7470   38.3950 C   0  0  0  0  0  0  0  0  0  0  0  0
   37.9620   24.9980   38.9440 F   0  0  0  0  0  0  0  0  0  0  0  0
   39.4750   23.3430   38.6090 F   0  0  0  0  0  0  0  0  0  0  0  0
   37.3390   22.8270   38.9920 F   0  0  0  0  0  0  0  0  0  0  0  0
  1 22  1  0  0  0  0
  2  7  1  0  0  0  0
  2  1  2  0  0  0  0
  3  2  1  0  0  0  0
  4  3  2  0  0  0  0
  4  5  1  0  0  0  0
  5  6  2  0  0  0  0
  6  1  1  0  0  0  0
  8  5  1  0  0  0  0
  9  3  1  0  0  0  0
  9 13  2  0  0  0  0
 10  9  1  0  0  0  0
 11 10  2  0  0  0  0
 11 12  1  0  0  0  0
 12 16  1  0  0  0  0
 12 13  1  0  0  0  0
 14 10  1  0  0  0  0
 15 11  1  0  0  0  0
 16 17  1  0  0  0  0
 17 18  1  0  0  0  0
 19 18  1  0  0  0  0
 20 19  1  0  0  0  0
 21 20  1  0  0  0  0
 21 16  1  0  0  0  0
 22 23  1  0  0  0  0
 23 25  1  0  0  0  0
 23 24  1  0  0  0  0
 23 26  1  0  0  0  0
M  END
>  <minimizedAffinity>
-5.76251793

$$$$

 OpenBabel03272503393D

 26 28  0  0  0  0  0  0  0  0999 V2000
   38.0810   25.2530   35.5520 C   0  0  0  0  0  0  0  0  0  0  0  0
   37.5570   26.4770   35.1770 C   0  0  0  0  0  0  0  0  0  0  0  0
   37.1660   26.7070   33.8690 C   0  0  0  0  0  0  0  0  0  0  0  0
   37.3250   25.6780   32.9940 N   0  0  0  0  0  0  0  0  0  0  0  0
   37.8400   24.4830   33.3770 C   0  0  0  0  0  0  0  0  0  0  0  0
   38.2140   24.2740   34.6410 N   0  0  0  0  0  0  0  0  0  0  0  0
   37.4090   27.3290   35.8320 H   0  0  0  0  0  0  0  0  0  0  0  0
   37.9420   23.7030   32.6340 H   0  0  0  0  0  0  0  0  0  0  0  0
   36.6150   27.9590   33.4270 C   0  0  0  0  0  0  0  0  0  0  0  0
   36.6690   28.4460   32.1450 C   0  0  0  0  0  0  0  0  0  0  0  0
   36.0190   29.6630   32.1960 C   0  0  0  0  0  0  0  0  0  0  0  0
   35.5920   29.9040   33.4440 N   0  0  0  0  0  0  0  0  0  0  0  0
   35.9670   28.8450   34.1890 N   0  0  0  0  0  0  0  0  0  0  0  0
   37.1310   27.9560   31.2920 H   0  0  0  0  0  0  0  0  0  0  0  0
   35.9010   30.2880   31.3250 H   0  0  0  0  0  0  0  0  0  0  0  0
   34.8620   31.0750   33.9260 C   0  0  0  0  0  3  0  0  0  0  0  0
   34.7870   31.1070   35.4030 C   0  0  0  0  0  2  0  0  0  0  0  0
   35.7680   31.9490   36.1220 C   0  0  0  0  0  2  0  0  0  0  0  0
   35.9150   33.2800   35.4450 C   0  0  0  0  0  2  0  0  0  0  0  0
   36.4890   32.9870   34.0630 C   0  0  0  0  0  2  0  0  0  0  0  0
   35.3820   32.3320   33.2840 C   0  0  0  0  0  2  0  0  0  0  0  0
   38.4170   25.2080   36.9000 O   0  0  0  0  0  0  0  0  0  0  0  0
   38.0580   24.1570   37.7650 C   0  0  0  0  0  0  0  0  0  0  0  0
   39.0920   23.2530   37.9300 F   0  0  0  0  0  0  0  0  0  0  0  0
   36.9420   23.5320   37.2660 F   0  0  0  0  0  0  0  0  0  0  0  0
   37.7290   24.7100   38.9890 F   0  0  0  0  0  0  0  0  0  0  0  0
  1 22  1  0  0  0  0
  2  1  1  0  0  0  0
  2  7  1  0  0  0  0
  3  2  2  0  0  0  0
  4  5  2  0  0  0  0
  4  3  1  0  0  0  0
  5  6  1  0  0  0  0
  6  1  2  0  0  0  0
  8  5  1  0  0  0  0
  9  3  1  0  0  0  0
  9 13  2  0  0  0  0
 10 11  2  0  0  0  0
 10  9  1  0  0  0  0
 11 12  1  0  0  0  0
 12 16  1  0  0  0  0
 12 13  1  0  0  0  0
 14 10  1  0  0  0  0
 15 11  1  0  0  0  0
 16 17  1  0  0  0  0
 17 18  1  0  0  0  0
 19 18  1  0  0  0  0
 20 19  1  0  0  0  0
 21 16  1  0  0  0  0
 21 20  1  0  0  0  0
 22 23  1  0  0  0  0
 23 24  1  0  0  0  0
 23 26  1  0  0  0  0
 25 23  1  0  0  0  0
M  END
>  <minimizedAffinity>
-5.64899588

$$$$

 OpenBabel03272503393D

 26 28  0  0  0  0  0  0  0  0999 V2000
   38.6820   24.2290   36.0610 C   0  0  0  0  0  0  0  0  0  0  0  0
   37.8410   25.1770   35.5070 C   0  0  0  0  0  0  0  0  0  0  0  0
   38.3010   26.0400   34.5250 C   0  0  0  0  0  0  0  0  0  0  0  0
   39.6000   25.9010   34.1500 N   0  0  0  0  0  0  0  0  0  0  0  0
   40.4120   24.9670   34.7030 C   0  0  0  0  0  0  0  0  0  0  0  0
   39.9570   24.1410   35.6480 N   0  0  0  0  0  0  0  0  0  0  0  0
   36.8000   25.3300   35.7680 H   0  0  0  0  0  0  0  0  0  0  0  0
   41.4370   24.9060   34.3620 H   0  0  0  0  0  0  0  0  0  0  0  0
   37.4700   27.0420   33.9150 C   0  0  0  0  0  0  0  0  0  0  0  0
   36.7070   27.9640   34.5870 C   0  0  0  0  0  0  0  0  0  0  0  0
   36.0890   28.7060   33.6000 C   0  0  0  0  0  0  0  0  0  0  0  0
   36.4560   28.2590   32.3910 N   0  0  0  0  0  0  0  0  0  0  0  0
   37.3070   27.2340   32.6020 N   0  0  0  0  0  0  0  0  0  0  0  0
   36.6270   28.0650   35.6660 H   0  0  0  0  0  0  0  0  0  0  0  0
   35.4170   29.5180   33.8280 H   0  0  0  0  0  0  0  0  0  0  0  0
   36.0330   28.7650   31.0870 C   0  0  0  0  0  3  0  0  0  0  0  0
   35.6980   30.2050   31.1380 C   0  0  0  0  0  2  0  0  0  0  0  0
   36.7340   31.1670   30.7020 C   0  0  0  0  0  2  0  0  0  0  0  0
   37.3950   30.6930   29.4410 C   0  0  0  0  0  2  0  0  0  0  0  0
   38.1010   29.3900   29.8010 C   0  0  0  0  0  2  0  0  0  0  0  0
   37.0130   28.3740   30.0160 C   0  0  0  0  0  2  0  0  0  0  0  0
   38.0490   23.4560   37.0270 O   0  0  0  0  0  0  0  0  0  0  0  0
   38.2470   23.6100   38.4120 C   0  0  0  0  0  0  0  0  0  0  0  0
   37.9810   24.9030   38.8260 F   0  0  0  0  0  0  0  0  0  0  0  0
   39.5370   23.2570   38.7190 F   0  0  0  0  0  0  0  0  0  0  0  0
   37.3960   22.7340   39.0620 F   0  0  0  0  0  0  0  0  0  0  0  0
  1 22  1  0  0  0  0
  2  7  1  0  0  0  0
  2  1  2  0  0  0  0
  3  2  1  0  0  0  0
  4  3  2  0  0  0  0
  4  5  1  0  0  0  0
  5  6  2  0  0  0  0
  6  1  1  0  0  0  0
  8  5  1  0  0  0  0
  9  3  1  0  0  0  0
  9 10  1  0  0  0  0
 10 14  1  0  0  0  0
 11 15  1  0  0  0  0
 11 10  2  0  0  0  0
 12 13  1  0  0  0  0
 12 11  1  0  0  0  0
 13  9  2  0  0  0  0
 16 17  1  0  0  0  0
 16 12  1  0  0  0  0
 18 17  1  0  0  0  0
 19 20  1  0  0  0  0
 19 18  1  0  0  0  0
 20 21  1  0  0  0  0
 21 16  1  0  0  0  0
 22 23  1  0  0  0  0
 23 25  1  0  0  0  0
 23 24  1  0  0  0  0
 23 26  1  0  0  0  0
M  END
>  <minimizedAffinity>
-5.60017157

$$$$

 OpenBabel03272503393D

 26 28  0  0  0  0  0  0  0  0999 V2000
   39.4900   22.8370   37.0430 C   0  0  0  0  0  0  0  0  0  0  0  0
   39.1100   23.6940   36.0260 C   0  0  0  0  0  0  0  0  0  0  0  0
   38.2890   24.7790   36.2850 C   0  0  0  0  0  0  0  0  0  0  0  0
   37.8870   24.9460   37.5740 N   0  0  0  0  0  0  0  0  0  0  0  0
   38.2660   24.0970   38.5610 C   0  0  0  0  0  0  0  0  0  0  0  0
   39.0590   23.0550   38.2970 N   0  0  0  0  0  0  0  0  0  0  0  0
   39.4020   23.6080   34.9850 H   0  0  0  0  0  0  0  0  0  0  0  0
   37.9130   24.2830   39.5660 H   0  0  0  0  0  0  0  0  0  0  0  0
   37.8670   25.7010   35.2660 C   0  0  0  0  0  0  0  0  0  0  0  0
   37.7150   27.0550   35.4280 C   0  0  0  0  0  0  0  0  0  0  0  0
   37.2970   27.5190   34.1960 C   0  0  0  0  0  0  0  0  0  0  0  0
   37.2000   26.5000   33.3300 N   0  0  0  0  0  0  0  0  0  0  0  0
   37.5540   25.3880   34.0040 N   0  0  0  0  0  0  0  0  0  0  0  0
   37.8930   27.6150   36.3410 H   0  0  0  0  0  0  0  0  0  0  0  0
   37.0940   28.5620   34.0140 H   0  0  0  0  0  0  0  0  0  0  0  0
   36.7930   26.5580   31.9280 C   0  0  0  0  0  3  0  0  0  0  0  0
   35.7940   27.6230   31.6880 C   0  0  0  0  0  2  0  0  0  0  0  0
   36.2820   28.9160   31.1610 C   0  0  0  0  0  2  0  0  0  0  0  0
   37.2780   28.6940   30.0610 C   0  0  0  0  0  2  0  0  0  0  0  0
   38.4650   27.9840   30.7050 C   0  0  0  0  0  2  0  0  0  0  0  0
   37.9930   26.5920   31.0230 C   0  0  0  0  0  2  0  0  0  0  0  0
   40.3110   21.8100   36.5960 O   0  0  0  0  0  0  0  0  0  0  0  0
   41.6770   21.7000   36.9150 C   0  0  0  0  0  0  0  0  0  0  0  0
   42.2750   22.9420   37.0410 F   0  0  0  0  0  0  0  0  0  0  0  0
   42.3030   20.9570   35.9460 F   0  0  0  0  0  0  0  0  0  0  0  0
   41.7790   21.0170   38.1130 F   0  0  0  0  0  0  0  0  0  0  0  0
  1  6  1  0  0  0  0
  2  3  1  0  0  0  0
  2  1  2  0  0  0  0
  3  4  2  0  0  0  0
  4  5  1  0  0  0  0
  5  8  1  0  0  0  0
  6  5  2  0  0  0  0
  7  2  1  0  0  0  0
  9 10  1  0  0  0  0
  9  3  1  0  0  0  0
 10 14  1  0  0  0  0
 11 10  2  0  0  0  0
 12 13  1  0  0  0  0
 12 11  1  0  0  0  0
 13  9  2  0  0  0  0
 15 11  1  0  0  0  0
 16 12  1  0  0  0  0
 17 16  1  0  0  0  0
 18 17  1  0  0  0  0
 19 20  1  0  0  0  0
 19 18  1  0  0  0  0
 20 21  1  0  0  0  0
 21 16  1  0  0  0  0
 22 23  1  0  0  0  0
 22  1  1  0  0  0  0
 23 24  1  0  0  0  0
 23 26  1  0  0  0  0
 25 23  1  0  0  0  0
M  END
>  <minimizedAffinity>
-5.54745913

$$$$

 OpenBabel03272503393D

 26 28  0  0  0  0  0  0  0  0999 V2000
   38.3670   24.6150   36.0540 C   0  0  0  0  0  0  0  0  0  0  0  0
   37.5770   25.5810   35.4560 C   0  0  0  0  0  0  0  0  0  0  0  0
   38.1000   26.4160   34.4830 C   0  0  0  0  0  0  0  0  0  0  0  0
   39.4080   26.2340   34.1580 N   0  0  0  0  0  0  0  0  0  0  0  0
   40.1690   25.2830   34.7540 C   0  0  0  0  0  0  0  0  0  0  0  0
   39.6540   24.4830   35.6910 N   0  0  0  0  0  0  0  0  0  0  0  0
   36.5330   25.7680   35.6760 H   0  0  0  0  0  0  0  0  0  0  0  0
   41.2040   25.1870   34.4520 H   0  0  0  0  0  0  0  0  0  0  0  0
   37.3230   27.4350   33.8290 C   0  0  0  0  0  0  0  0  0  0  0  0
   37.3580   27.7270   32.4890 C   0  0  0  0  0  0  0  0  0  0  0  0
   36.4600   28.7620   32.3240 C   0  0  0  0  0  0  0  0  0  0  0  0
   35.9060   29.0830   33.5030 N   0  0  0  0  0  0  0  0  0  0  0  0
   36.4490   28.2560   34.4190 N   0  0  0  0  0  0  0  0  0  0  0  0
   37.9720   27.2330   31.7410 H   0  0  0  0  0  0  0  0  0  0  0  0
   36.2690   29.2100   31.3610 H   0  0  0  0  0  0  0  0  0  0  0  0
   34.9100   30.1190   33.7670 C   0  0  0  0  0  3  0  0  0  0  0  0
   34.8420   31.1100   32.6710 C   0  0  0  0  0  2  0  0  0  0  0  0
   33.7780   30.9410   31.6570 C   0  0  0  0  0  2  0  0  0  0  0  0
   32.4730   30.6030   32.3160 C   0  0  0  0  0  2  0  0  0  0  0  0
   32.6810   29.2520   32.9930 C   0  0  0  0  0  2  0  0  0  0  0  0
   33.5930   29.5080   34.1600 C   0  0  0  0  0  2  0  0  0  0  0  0
   37.6750   23.8740   37.0040 O   0  0  0  0  0  0  0  0  0  0  0  0
   38.0960   23.7170   38.3380 C   0  0  0  0  0  0  0  0  0  0  0  0
   39.4090   23.2860   38.4140 F   0  0  0  0  0  0  0  0  0  0  0  0
   37.2570   22.8320   38.9680 F   0  0  0  0  0  0  0  0  0  0  0  0
   37.9770   24.9440   38.9670 F   0  0  0  0  0  0  0  0  0  0  0  0
  1 22  1  0  0  0  0
  2  7  1  0  0  0  0
  2  1  2  0  0  0  0
  3  2  1  0  0  0  0
  4  3  2  0  0  0  0
  4  5  1  0  0  0  0
  5  6  2  0  0  0  0
  6  1  1  0  0  0  0
  8  5  1  0  0  0  0
  9 13  2  0  0  0  0
  9  3  1  0  0  0  0
 10  9  1  0  0  0  0
 11 10  2  0  0  0  0
 11 12  1  0  0  0  0
 12 16  1  0  0  0  0
 12 13  1  0  0  0  0
 14 10  1  0  0  0  0
 15 11  1  0  0  0  0
 16 21  1  0  0  0  0
 17 16  1  0  0  0  0
 18 19  1  0  0  0  0
 18 17  1  0  0  0  0
 19 20  1  0  0  0  0
 20 21  1  0  0  0  0
 22 23  1  0  0  0  0
 23 24  1  0  0  0  0
 23 26  1  0  0  0  0
 23 25  1  0  0  0  0
M  END
>  <minimizedAffinity>
-5.50398731

$$$$

 OpenBabel03272503393D

 26 28  0  0  0  0  0  0  0  0999 V2000
   38.4580   25.3830   35.9090 C   0  0  0  0  0  0  0  0  0  0  0  0
   38.0520   24.4740   34.9480 C   0  0  0  0  0  0  0  0  0  0  0  0
   38.4110   24.6420   33.6210 C   0  0  0  0  0  0  0  0  0  0  0  0
   39.1700   25.7310   33.3270 N   0  0  0  0  0  0  0  0  0  0  0  0
   39.5600   26.6130   34.2800 C   0  0  0  0  0  0  0  0  0  0  0  0
   39.2080   26.4400   35.5560 N   0  0  0  0  0  0  0  0  0  0  0  0
   37.4480   23.5910   35.1280 H   0  0  0  0  0  0  0  0  0  0  0  0
   40.1640   27.4610   33.9820 H   0  0  0  0  0  0  0  0  0  0  0  0
   38.0170   23.7270   32.5840 C   0  0  0  0  0  0  0  0  0  0  0  0
   38.6470   23.5740   31.3750 C   0  0  0  0  0  0  0  0  0  0  0  0
   37.9250   22.5990   30.7150 C   0  0  0  0  0  0  0  0  0  0  0  0
   36.9080   22.1810   31.4830 N   0  0  0  0  0  0  0  0  0  0  0  0
   36.9800   22.8860   32.6310 N   0  0  0  0  0  0  0  0  0  0  0  0
   39.5250   24.1170   31.0360 H   0  0  0  0  0  0  0  0  0  0  0  0
   38.1870   22.2610   29.7250 H   0  0  0  0  0  0  0  0  0  0  0  0
   35.9080   21.1650   31.1630 C   0  0  0  0  0  3  0  0  0  0  0  0
   36.5290   19.9250   30.6480 C   0  0  0  0  0  2  0  0  0  0  0  0
   36.7370   18.8140   31.6020 C   0  0  0  0  0  2  0  0  0  0  0  0
   35.5240   18.6280   32.4660 C   0  0  0  0  0  2  0  0  0  0  0  0
   35.3880   19.9110   33.2790 C   0  0  0  0  0  2  0  0  0  0  0  0
   34.9530   20.9740   32.3080 C   0  0  0  0  0  2  0  0  0  0  0  0
   38.0040   25.0530   37.1800 O   0  0  0  0  0  0  0  0  0  0  0  0
   38.4190   23.9120   37.8920 C   0  0  0  0  0  0  0  0  0  0  0  0
   39.6180   23.4150   37.4100 F   0  0  0  0  0  0  0  0  0  0  0  0
   37.4340   22.9580   37.8170 F   0  0  0  0  0  0  0  0  0  0  0  0
   38.5690   24.2710   39.2190 F   0  0  0  0  0  0  0  0  0  0  0  0
  1 22  1  0  0  0  0
  2  7  1  0  0  0  0
  2  1  2  0  0  0  0
  3  2  1  0  0  0  0
  4  3  2  0  0  0  0
  4  5  1  0  0  0  0
  5  6  2  0  0  0  0
  6  1  1  0  0  0  0
  8  5  1  0  0  0  0
  9 13  2  0  0  0  0
  9  3  1  0  0  0  0
 10  9  1  0  0  0  0
 11 10  2  0  0  0  0
 11 12  1  0  0  0  0
 12 13  1  0  0  0  0
 14 10  1  0  0  0  0
 15 11  1  0  0  0  0
 16 12  1  0  0  0  0
 16 21  1  0  0  0  0
 17 16  1  0  0  0  0
 17 18  1  0  0  0  0
 18 19  1  0  0  0  0
 19 20  1  0  0  0  0
 21 20  1  0  0  0  0
 22 23  1  0  0  0  0
 23 26  1  0  0  0  0
 24 23  1  0  0  0  0
 25 23  1  0  0  0  0
M  END
>  <minimizedAffinity>
-5.46731949

$$$$

 OpenBabel03272503393D

 26 28  0  0  0  0  0  0  0  0999 V2000
   35.4850   29.0380   33.9250 C   0  0  0  0  0  0  0  0  0  0  0  0
   36.4940   28.2570   34.4590 C   0  0  0  0  0  0  0  0  0  0  0  0
   37.1430   27.3130   33.6810 C   0  0  0  0  0  0  0  0  0  0  0  0
   36.7370   27.2030   32.3880 N   0  0  0  0  0  0  0  0  0  0  0  0
   35.7470   27.9770   31.8780 C   0  0  0  0  0  0  0  0  0  0  0  0
   35.1280   28.8830   32.6380 N   0  0  0  0  0  0  0  0  0  0  0  0
   36.8550   28.3030   35.4800 H   0  0  0  0  0  0  0  0  0  0  0  0
   35.4690   27.8420   30.8410 H   0  0  0  0  0  0  0  0  0  0  0  0
   38.1980   26.4760   34.1860 C   0  0  0  0  0  0  0  0  0  0  0  0
   39.4200   26.9140   34.6300 C   0  0  0  0  0  0  0  0  0  0  0  0
   40.0930   25.7710   35.0120 C   0  0  0  0  0  0  0  0  0  0  0  0
   39.3210   24.6930   34.8110 N   0  0  0  0  0  0  0  0  0  0  0  0
   38.1570   25.1450   34.3020 N   0  0  0  0  0  0  0  0  0  0  0  0
   39.7580   27.9460   34.6620 H   0  0  0  0  0  0  0  0  0  0  0  0
   41.0960   25.8000   35.4090 H   0  0  0  0  0  0  0  0  0  0  0  0
   39.6520   23.2960   35.0810 C   0  0  0  0  0  3  0  0  0  0  0  0
   41.1130   23.0870   35.1880 C   0  0  0  0  0  2  0  0  0  0  0  0
   41.7040   23.0490   36.5430 C   0  0  0  0  0  2  0  0  0  0  0  0
   40.8560   22.2220   37.4640 C   0  0  0  0  0  2  0  0  0  0  0  0
   39.5180   22.9460   37.5670 C   0  0  0  0  0  2  0  0  0  0  0  0
   38.8450   22.7680   36.2350 C   0  0  0  0  0  2  0  0  0  0  0  0
   34.9510   29.9260   34.8510 O   0  0  0  0  0  0  0  0  0  0  0  0
   35.4780   31.2050   35.1080 C   0  0  0  0  0  0  0  0  0  0  0  0
   36.4230   31.1770   36.1180 F   0  0  0  0  0  0  0  0  0  0  0  0
   34.4490   32.0540   35.4300 F   0  0  0  0  0  0  0  0  0  0  0  0
   36.0630   31.6650   33.9420 F   0  0  0  0  0  0  0  0  0  0  0  0
  1  2  1  0  0  0  0
  1 22  1  0  0  0  0
  2  7  1  0  0  0  0
  3  9  1  0  0  0  0
  3  2  2  0  0  0  0
  4  3  1  0  0  0  0
  5  4  2  0  0  0  0
  5  6  1  0  0  0  0
  6  1  2  0  0  0  0
  8  5  1  0  0  0  0
  9 13  2  0  0  0  0
  9 10  1  0  0  0  0
 10 14  1  0  0  0  0
 10 11  2  0  0  0  0
 11 15  1  0  0  0  0
 12 11  1  0  0  0  0
 12 16  1  0  0  0  0
 13 12  1  0  0  0  0
 16 17  1  0  0  0  0
 16 21  1  0  0  0  0
 17 18  1  0  0  0  0
 18 19  1  0  0  0  0
 19 20  1  0  0  0  0
 21 20  1  0  0  0  0
 22 23  1  0  0  0  0
 23 25  1  0  0  0  0
 23 24  1  0  0  0  0
 26 23  1  0  0  0  0
M  END
>  <minimizedAffinity>
-5.45391178

$$$$

 OpenBabel03272503393D

 26 28  0  0  0  0  0  0  0  0999 V2000
   36.5270   28.6300   30.9920 C   0  0  0  0  0  0  0  0  0  0  0  0
   37.0910   27.7680   31.9150 C   0  0  0  0  0  0  0  0  0  0  0  0
   36.7870   27.8790   33.2620 C   0  0  0  0  0  0  0  0  0  0  0  0
   35.9190   28.8660   33.6130 N   0  0  0  0  0  0  0  0  0  0  0  0
   35.3750   29.7030   32.6960 C   0  0  0  0  0  0  0  0  0  0  0  0
   35.6760   29.5860   31.4010 N   0  0  0  0  0  0  0  0  0  0  0  0
   37.7850   26.9670   31.6900 H   0  0  0  0  0  0  0  0  0  0  0  0
   34.6910   30.4690   33.0380 H   0  0  0  0  0  0  0  0  0  0  0  0
   37.3440   27.0090   34.2620 C   0  0  0  0  0  0  0  0  0  0  0  0
   37.9230   27.4140   35.4380 C   0  0  0  0  0  0  0  0  0  0  0  0
   38.3080   26.2480   36.0690 C   0  0  0  0  0  0  0  0  0  0  0  0
   37.9800   25.1880   35.3160 N   0  0  0  0  0  0  0  0  0  0  0  0
   37.3870   25.6740   34.2070 N   0  0  0  0  0  0  0  0  0  0  0  0
   38.0400   28.4410   35.7750 H   0  0  0  0  0  0  0  0  0  0  0  0
   38.7990   26.2490   37.0290 H   0  0  0  0  0  0  0  0  0  0  0  0
   38.2090   23.7770   35.6160 C   0  0  0  0  0  3  0  0  0  0  0  0
   39.6030   23.3730   35.3300 C   0  0  0  0  0  2  0  0  0  0  0  0
   40.5530   23.3310   36.4630 C   0  0  0  0  0  2  0  0  0  0  0  0
   39.9160   22.6850   37.6590 C   0  0  0  0  0  2  0  0  0  0  0  0
   38.7600   23.5950   38.0620 C   0  0  0  0  0  2  0  0  0  0  0  0
   37.7140   23.4350   36.9940 C   0  0  0  0  0  2  0  0  0  0  0  0
   36.9470   28.3690   29.6930 O   0  0  0  0  0  0  0  0  0  0  0  0
   37.8220   29.1990   28.9680 C   0  0  0  0  0  0  0  0  0  0  0  0
   38.9250   29.5620   29.7210 F   0  0  0  0  0  0  0  0  0  0  0  0
   37.1350   30.3100   28.5470 F   0  0  0  0  0  0  0  0  0  0  0  0
   38.2380   28.5010   27.8490 F   0  0  0  0  0  0  0  0  0  0  0  0
  1  6  2  0  0  0  0
  1  2  1  0  0  0  0
  2  3  2  0  0  0  0
  3  4  1  0  0  0  0
  3  9  1  0  0  0  0
  5  8  1  0  0  0  0
  5  4  2  0  0  0  0
  6  5  1  0  0  0  0
  7  2  1  0  0  0  0
  9 10  1  0  0  0  0
 10 14  1  0  0  0  0
 10 11  2  0  0  0  0
 11 15  1  0  0  0  0
 12 16  1  0  0  0  0
 12 11  1  0  0  0  0
 13  9  2  0  0  0  0
 13 12  1  0  0  0  0
 16 21  1  0  0  0  0
 17 16  1  0  0  0  0
 17 18  1  0  0  0  0
 18 19  1  0  0  0  0
 19 20  1  0  0  0  0
 21 20  1  0  0  0  0
 22  1  1  0  0  0  0
 23 22  1  0  0  0  0
 23 24  1  0  0  0  0
 25 23  1  0  0  0  0
 26 23  1  0  0  0  0
M  END
>  <minimizedAffinity>
-5.38188457

$$$$

 OpenBabel03272503393D

 26 28  0  0  0  0  0  0  0  0999 V2000
   35.2940   29.5360   32.7510 C   0  0  0  0  0  0  0  0  0  0  0  0
   35.8010   28.6880   33.7180 C   0  0  0  0  0  0  0  0  0  0  0  0
   36.8800   27.8650   33.4410 C   0  0  0  0  0  0  0  0  0  0  0  0
   37.3990   27.9410   32.1860 N   0  0  0  0  0  0  0  0  0  0  0  0
   36.8910   28.7780   31.2480 C   0  0  0  0  0  0  0  0  0  0  0  0
   35.8500   29.5660   31.5280 N   0  0  0  0  0  0  0  0  0  0  0  0
   35.4260   28.5880   34.7310 H   0  0  0  0  0  0  0  0  0  0  0  0
   37.3480   28.7930   30.2670 H   0  0  0  0  0  0  0  0  0  0  0  0
   37.4470   26.9660   34.4090 C   0  0  0  0  0  0  0  0  0  0  0  0
   38.0250   27.3350   35.5980 C   0  0  0  0  0  0  0  0  0  0  0  0
   38.4210   26.1510   36.1860 C   0  0  0  0  0  0  0  0  0  0  0  0
   38.1010   25.1150   35.3970 N   0  0  0  0  0  0  0  0  0  0  0  0
   37.5020   25.6350   34.3070 N   0  0  0  0  0  0  0  0  0  0  0  0
   38.1330   28.3500   35.9700 H   0  0  0  0  0  0  0  0  0  0  0  0
   38.9140   26.1230   37.1450 H   0  0  0  0  0  0  0  0  0  0  0  0
   38.3440   23.6960   35.6470 C   0  0  0  0  0  3  0  0  0  0  0  0
   39.7410   23.3150   35.3470 C   0  0  0  0  0  2  0  0  0  0  0  0
   40.6910   23.2430   36.4790 C   0  0  0  0  0  2  0  0  0  0  0  0
   40.0600   22.5480   37.6510 C   0  0  0  0  0  2  0  0  0  0  0  0
   38.8950   23.4320   38.0850 C   0  0  0  0  0  2  0  0  0  0  0  0
   37.8510   23.3000   37.0110 C   0  0  0  0  0  2  0  0  0  0  0  0
   34.2140   30.2820   33.2090 O   0  0  0  0  0  0  0  0  0  0  0  0
   32.9310   29.7510   33.4330 C   0  0  0  0  0  0  0  0  0  0  0  0
   32.6980   28.6280   32.6580 F   0  0  0  0  0  0  0  0  0  0  0  0
   31.9960   30.7220   33.1730 F   0  0  0  0  0  0  0  0  0  0  0  0
   32.8390   29.4140   34.7720 F   0  0  0  0  0  0  0  0  0  0  0  0
  1 22  1  0  0  0  0
  1  2  1  0  0  0  0
  2  7  1  0  0  0  0
  3  2  2  0  0  0  0
  3  9  1  0  0  0  0
  4  3  1  0  0  0  0
  5  6  1  0  0  0  0
  5  4  2  0  0  0  0
  6  1  2  0  0  0  0
  8  5  1  0  0  0  0
  9 10  1  0  0  0  0
 10 14  1  0  0  0  0
 10 11  2  0  0  0  0
 11 15  1  0  0  0  0
 12 16  1  0  0  0  0
 12 11  1  0  0  0  0
 13  9  2  0  0  0  0
 13 12  1  0  0  0  0
 16 21  1  0  0  0  0
 17 16  1  0  0  0  0
 17 18  1  0  0  0  0
 18 19  1  0  0  0  0
 19 20  1  0  0  0  0
 21 20  1  0  0  0  0
 22 23  1  0  0  0  0
 23 26  1  0  0  0  0
 24 23  1  0  0  0  0
 25 23  1  0  0  0  0
M  END
>  <minimizedAffinity>
-5.32811546

$$$$
