
 OpenBabel03262521463D

 27 28  0  0  0  0  0  0  0  0999 V2000
   38.9250   31.0530   47.0120 C   0  0  0  0  0  0  0  0  0  0  0  0
   38.2630   30.2350   46.6640 H   0  0  0  0  0  0  0  0  0  0  0  0
   39.4270   30.6400   47.9240 H   0  0  0  0  0  0  0  0  0  0  0  0
   39.8840   31.5570   45.9850 C   0  0  0  0  0  0  0  0  0  0  0  0
   40.9140   31.3630   46.3870 H   0  0  0  0  0  0  0  0  0  0  0  0
   39.8370   32.6570   45.8420 H   0  0  0  0  0  0  0  0  0  0  0  0
   39.8010   30.9110   44.6850 C   0  0  0  0  0  0  0  0  0  0  0  0
   40.3660   31.4430   43.5320 C   0  0  0  0  0  0  0  0  0  0  0  0
   40.2170   30.7230   42.3380 C   0  0  0  0  0  0  0  0  0  0  0  0
   39.5230   29.5330   42.3750 N   0  0  0  0  0  0  0  0  0  0  0  0
   38.9900   29.0540   43.5260 C   0  0  0  0  0  0  0  0  0  0  0  0
   39.1390   29.7570   44.6750 N   0  0  0  0  0  0  0  0  0  0  0  0
   40.8920   32.3730   43.5730 H   0  0  0  0  0  0  0  0  0  0  0  0
   40.6340   31.0930   41.4230 H   0  0  0  0  0  0  0  0  0  0  0  0
   38.4590   28.1190   43.4910 H   0  0  0  0  0  0  0  0  0  0  0  0
   38.1640   32.1220   47.4740 O   0  0  0  0  0  0  0  0  0  0  0  0
   38.1280   33.3080   49.7910 O   0  0  0  0  0  0  0  0  0  0  0  0
   37.8050   31.9680   49.1180 P   0  0  2  0  0  0  0  0  0  0  0  0
   38.7890   30.8490   49.8710 O   0  0  0  0  0  0  0  0  0  0  0  0
   38.2580   30.0860   50.1600 H   0  0  0  0  0  0  0  0  0  0  0  0
   36.1910   31.5810   49.3760 O   0  0  0  0  0  0  0  0  0  0  0  0
   35.9490   30.2490   49.1120 C   0  0  0  0  0  0  0  0  0  0  0  0
   34.9040   29.6510   50.0250 C   0  0  0  0  0  0  0  0  0  0  0  0
   34.6350   28.2290   49.5190 C   0  0  0  0  0  0  0  0  0  0  0  0
   33.6720   28.3990   48.3590 C   0  0  0  0  0  0  0  0  0  0  0  0
   33.9880   29.7030   47.6370 C   0  0  0  0  0  0  0  0  0  0  0  0
   35.4710   30.0080   47.6900 C   0  0  0  0  0  0  0  0  0  0  0  0
  1 16  1  0  0  0  0
  1  3  1  0  0  0  0
  2  1  1  0  0  0  0
  4  5  1  0  0  0  0
  4  1  1  0  0  0  0
  6  4  1  0  0  0  0
  7  4  1  0  0  0  0
  8 13  1  0  0  0  0
  8  7  2  0  0  0  0
  9 10  2  0  0  0  0
  9  8  1  0  0  0  0
 10 11  1  0  0  0  0
 11 12  2  0  0  0  0
 12  7  1  0  0  0  0
 14  9  1  0  0  0  0
 15 11  1  0  0  0  0
 16 18  1  0  0  0  0
 18 21  1  0  0  0  0
 18 17  2  1  0  0  0
 18 19  1  0  0  0  0
 19 20  1  0  0  0  0
 22 21  1  0  0  0  0
 22 23  1  0  0  0  0
 24 23  1  0  0  0  0
 25 24  1  0  0  0  0
 26 27  1  0  0  0  0
 26 25  1  0  0  0  0
 27 22  1  0  0  0  0
M  END
>  <minimizedAffinity>
-5.20027781

>  <minimizedRMSD>
4.96604872

$$$$
