
 OpenBabel03272508573D

 37 40  0  0  1  0  0  0  0  0999 V2000
   38.3440   31.8970   44.4930 C   0  0  0  0  0  0  0  0  0  0  0  0
   37.2360   32.4330   44.3980 O   0  0  0  0  0  0  0  0  0  0  0  0
   38.9200   31.6360   45.7990 N   0  0  0  0  0  0  0  0  0  0  0  0
   39.8970   31.3840   45.9620 H   0  0  0  0  0  0  0  0  0  0  0  0
   39.1240   31.5020   43.3060 C   0  0  0  0  0  0  0  0  0  0  0  0
   40.1540   30.6040   43.4680 C   0  0  0  0  0  0  0  0  0  0  0  0
   40.8760   30.2490   42.3350 C   0  0  0  0  0  0  0  0  0  0  0  0
   40.5260   30.8060   41.1410 C   0  0  0  0  0  0  0  0  0  0  0  0
   39.4970   31.7060   40.9690 C   0  0  0  0  0  0  0  0  0  0  0  0
   38.8130   32.0310   42.0980 N   0  0  0  0  0  0  0  0  0  0  0  0
   40.4130   30.1700   44.4320 H   0  0  0  0  0  0  0  0  0  0  0  0
   41.6740   29.5460   42.4890 H   0  0  0  0  0  0  0  0  0  0  0  0
   41.1530   30.4520   40.3440 H   0  0  0  0  0  0  0  0  0  0  0  0
   39.1150   32.2830   39.6700 C   0  0  2  0  0  3  0  0  0  0  0  0
   38.9530   33.5600   39.6420 O   0  0  0  0  0  1  0  0  0  0  0  0
   38.8650   31.6570   38.3450 C   0  0  0  0  0  3  0  0  0  0  0  0
   40.1430   31.3360   37.6850 C   0  0  0  0  0  2  0  0  0  0  0  0
   39.9410   30.1090   36.7850 C   0  0  0  0  0  2  0  0  0  0  0  0
   39.7610   28.9600   37.7730 C   0  0  0  0  0  2  0  0  0  0  0  0
   38.5110   29.1450   38.5900 C   0  0  0  0  0  2  0  0  0  0  0  0
   37.9000   30.5000   38.4610 C   0  0  0  0  0  2  0  0  0  0  0  0
   38.4320   31.1040   48.1800 C   0  0  2  0  0  0  0  0  0  0  0  0
   38.6760   32.5680   48.1050 C   0  0  0  0  0  0  0  0  0  0  0  0
   38.0650   31.7370   46.9560 C   0  0  1  0  0  0  0  0  0  0  0  0
   39.3590   30.5040   48.2700 H   0  0  0  0  0  0  0  0  0  0  0  0
   39.6920   32.9350   47.9810 H   0  0  0  0  0  0  0  0  0  0  0  0
   38.0150   33.2010   48.7110 H   0  0  0  0  0  0  0  0  0  0  0  0
   36.9950   32.0070   46.7850 H   0  0  0  0  0  0  0  0  0  0  0  0
   35.0650   30.2360   49.5030 C   0  0  0  0  0  0  0  0  0  0  0  0
   35.3990   29.5450   50.7190 C   0  0  0  0  0  0  0  0  0  0  0  0
   36.7970   29.4060   51.0560 C   0  0  0  0  0  0  0  0  0  0  0  0
   37.7570   29.9260   50.2210 N   0  0  0  0  0  0  0  0  0  0  0  0
   37.3460   30.5680   49.0840 C   0  0  0  0  0  0  0  0  0  0  0  0
   36.0220   30.7400   48.6960 N   0  0  0  0  0  0  0  0  0  0  0  0
   34.0270   30.3240   49.2770 H   0  0  0  0  0  0  0  0  0  0  0  0
   34.6570   29.1420   51.3660 H   0  0  0  0  0  0  0  0  0  0  0  0
   37.0470   28.8940   51.9570 H   0  0  0  0  0  0  0  0  0  0  0  0
  1  3  1  0  0  0  0
  2  1  2  0  0  0  0
  3  4  1  0  0  0  0
  3 24  1  0  0  0  0
  5  6  1  0  0  0  0
  5  1  1  0  0  0  0
  6 11  1  0  0  0  0
  7 12  1  0  0  0  0
  7  6  2  0  0  0  0
  8  7  1  0  0  0  0
  9  8  2  0  0  0  0
  9 10  1  0  0  0  0
 10  5  2  0  0  0  0
 13  8  1  0  0  0  0
 14 15  1  1  0  0  0
 14  9  1  0  0  0  0
 16 21  1  0  0  0  0
 16 14  1  0  0  0  0
 17 16  1  0  0  0  0
 18 17  1  0  0  0  0
 18 19  1  0  0  0  0
 19 20  1  0  0  0  0
 21 20  1  0  0  0  0
 22 25  1  6  0  0  0
 22 33  1  0  0  0  0
 23 22  1  0  0  0  0
 23 27  1  0  0  0  0
 24 28  1  6  0  0  0
 24 23  1  0  0  0  0
 24 22  1  0  0  0  0
 26 23  1  0  0  0  0
 29 30  1  0  0  0  0
 30 31  2  0  0  0  0
 30 36  1  0  0  0  0
 31 37  1  0  0  0  0
 32 31  1  0  0  0  0
 33 32  2  0  0  0  0
 34 33  1  0  0  0  0
 34 29  2  0  0  0  0
 35 29  1  0  0  0  0
M  END
>  <minimizedAffinity>
-4.94883013

>  <minimizedRMSD>
0.328404456

$$$$
