
 OpenBabel03272508193D

 28 30  0  0  0  0  0  0  0  0999 V2000
   36.5010   30.7080   48.2660 C   0  0  0  0  0  0  0  0  0  0  0  0
   37.1070   30.7420   47.0100 C   0  0  0  0  0  0  0  0  0  0  0  0
   36.2640   30.4070   45.9770 C   0  0  0  0  0  0  0  0  0  0  0  0
   34.9740   30.0760   46.1880 N   0  0  0  0  0  0  0  0  0  0  0  0
   34.4150   30.0490   47.4020 C   0  0  0  0  0  0  0  0  0  0  0  0
   35.1800   30.3640   48.4390 N   0  0  0  0  0  0  0  0  0  0  0  0
   36.6400   30.4050   44.9610 H   0  0  0  0  0  0  0  0  0  0  0  0
   33.4080   29.8020   47.6730 H   0  0  0  0  0  0  0  0  0  0  0  0
   37.3500   31.1740   49.4400 C   0  0  0  0  0  0  0  0  0  0  0  0
   36.9530   30.9640   50.7810 C   0  0  0  0  0  0  0  0  0  0  0  0
   37.8730   29.9030   50.2020 C   0  0  0  0  0  0  0  0  0  0  0  0
   38.2430   31.8020   49.1680 H   0  0  0  0  0  0  0  0  0  0  0  0
   35.8820   30.6870   50.9920 H   0  0  0  0  0  0  0  0  0  0  0  0
   37.3640   31.5770   51.5960 H   0  0  0  0  0  0  0  0  0  0  0  0
   38.9060   29.9080   50.5530 H   0  0  0  0  0  0  0  0  0  0  0  0
   37.3740   28.9580   50.0310 H   0  0  0  0  0  0  0  0  0  0  0  0
   38.5290   31.0740   46.8330 C   0  0  0  0  0  0  0  0  0  0  0  0
   38.6920   32.1730   46.7550 H   0  0  0  0  0  0  0  0  0  0  0  0
   39.0610   30.7530   47.7540 H   0  0  0  0  0  0  0  0  0  0  0  0
   39.1990   30.4660   45.6660 C   0  0  0  0  0  0  0  0  0  0  0  0
   39.9340   29.7010   46.0410 H   0  0  0  0  0  0  0  0  0  0  0  0
   38.4510   29.8920   45.0560 H   0  0  0  0  0  0  0  0  0  0  0  0
   39.9470   31.4180   44.7960 C   0  0  0  0  0  3  0  0  0  0  0  0
   39.1350   32.7110   44.7410 C   0  0  0  0  0  2  0  0  0  0  0  0
   38.0520   32.6000   43.6730 C   0  0  0  0  0  2  0  0  0  0  0  0
   38.7740   32.6640   42.3440 C   0  0  0  0  0  2  0  0  0  0  0  0
   40.0270   31.8330   42.3220 C   0  0  0  0  0  2  0  0  0  0  0  0
   40.0730   30.7990   43.4220 C   0  0  0  0  0  2  0  0  0  0  0  0
  1  6  1  0  0  0  0
  1  9  1  0  0  0  0
  2  1  2  0  0  0  0
  3  4  2  0  0  0  0
  3  2  1  0  0  0  0
  4  5  1  0  0  0  0
  5  8  1  0  0  0  0
  5  6  2  0  0  0  0
  7  3  1  0  0  0  0
  9 11  1  0  0  0  0
  9 10  1  0  0  0  0
 10 13  1  0  0  0  0
 10 14  1  0  0  0  0
 11 15  1  0  0  0  0
 11 10  1  0  0  0  0
 12  9  1  0  0  0  0
 16 11  1  0  0  0  0
 17  2  1  0  0  0  0
 17 19  1  0  0  0  0
 18 17  1  0  0  0  0
 20 21  1  0  0  0  0
 20 17  1  0  0  0  0
 22 20  1  0  0  0  0
 23 20  1  0  0  0  0
 24 23  1  0  0  0  0
 25 24  1  0  0  0  0
 26 25  1  0  0  0  0
 27 26  1  0  0  0  0
 27 28  1  0  0  0  0
 28 23  1  0  0  0  0
M  END
>  <minimizedAffinity>
-4.94655561

>  <minimizedRMSD>
5.63607979

$$$$
