
 OpenBabel03272506433D

 29 31  0  0  1  0  0  0  0  0999 V2000
   32.4250   28.3730   47.5350 C   0  0  2  0  0  0  0  0  0  0  0  0
   33.6650   28.4360   48.4020 C   0  0  1  0  0  0  0  0  0  0  0  0
   34.2190   27.1800   48.4260 O   0  0  0  0  0  0  0  0  0  0  0  0
   33.5900   26.3870   47.4930 C   0  0  0  0  0  0  0  0  0  0  0  0
   32.8600   27.3320   46.5410 C   0  0  1  0  0  0  0  0  0  0  0  0
   31.5390   28.0380   48.1120 H   0  0  0  0  0  0  0  0  0  0  0  0
   33.3940   28.8170   49.4040 H   0  0  0  0  0  0  0  0  0  0  0  0
   32.8680   25.6740   47.9310 H   0  0  0  0  0  0  0  0  0  0  0  0
   34.3900   25.9070   46.8900 H   0  0  0  0  0  0  0  0  0  0  0  0
   33.5270   27.7840   45.7930 H   0  0  0  0  0  0  0  0  0  0  0  0
   32.1820   29.6060   46.9120 O   0  0  0  0  0  0  0  0  0  0  0  0
   32.1440   30.3180   47.5970 H   0  0  0  0  0  0  0  0  0  0  0  0
   34.8320   29.5450   47.5520 S   0  0  0  0  0  0  0  0  0  0  0  0
   37.4840   29.5200   50.4840 C   0  0  0  0  0  0  0  0  0  0  0  0
   38.0670   30.7780   50.4730 C   0  0  0  0  0  0  0  0  0  0  0  0
   37.6170   31.6870   49.5070 C   0  0  0  0  0  0  0  0  0  0  0  0
   36.6400   31.2930   48.6350 N   0  0  0  0  0  0  0  0  0  0  0  0
   36.1020   30.0580   48.6840 C   0  0  0  0  0  0  0  0  0  0  0  0
   36.5210   29.1590   49.6120 N   0  0  0  0  0  0  0  0  0  0  0  0
   37.8410   28.8330   51.2340 H   0  0  0  0  0  0  0  0  0  0  0  0
   38.8350   31.1070   51.1490 H   0  0  0  0  0  0  0  0  0  0  0  0
   37.9870   32.6990   49.3890 H   0  0  0  0  0  0  0  0  0  0  0  0
   31.7960   26.6870   45.9250 O   0  0  0  0  0  0  0  0  0  0  0  0
   32.0000   26.4600   44.5760 C   0  0  0  0  0  3  0  0  0  0  0  0
   30.6900   26.4920   43.8050 C   0  0  0  0  0  2  0  0  0  0  0  0
   30.7970   27.2630   42.5200 C   0  0  0  0  0  2  0  0  0  0  0  0
   32.0600   26.9500   41.7580 C   0  0  0  0  0  2  0  0  0  0  0  0
   33.3030   26.9720   42.6000 C   0  0  0  0  0  2  0  0  0  0  0  0
   32.8960   27.5230   43.9710 C   0  0  0  0  0  2  0  0  0  0  0  0
  1  6  1  1  0  0  0
  1  2  1  0  0  0  0
  2  3  1  0  0  0  0
  2  7  1  1  0  0  0
  4  8  1  0  0  0  0
  4  3  1  0  0  0  0
  5 10  1  6  0  0  0
  5  4  1  0  0  0  0
  5  1  1  0  0  0  0
  9  4  1  0  0  0  0
 11  1  1  0  0  0  0
 11 12  1  0  0  0  0
 13  2  1  0  0  0  0
 13 18  1  0  0  0  0
 14 20  1  0  0  0  0
 15 14  1  0  0  0  0
 15 21  1  0  0  0  0
 16 15  2  0  0  0  0
 17 18  2  0  0  0  0
 17 16  1  0  0  0  0
 18 19  1  0  0  0  0
 19 14  2  0  0  0  0
 22 16  1  0  0  0  0
 23  5  1  0  0  0  0
 24 23  1  0  0  0  0
 25 24  1  0  0  0  0
 26 25  1  0  0  0  0
 27 26  1  0  0  0  0
 27 28  1  0  0  0  0
 28 29  1  0  0  0  0
 29 24  1  0  0  0  0
M  END
>  <minimizedAffinity>
-3.71376562

>  <minimizedRMSD>
0.51319164

$$$$
