REMARK  Name = 
REMARK  2 active torsions:
REMARK  status: ('A' for Active; 'I' for Inactive)
REMARK    1  A    between atoms: C_5  and  C_7
REMARK    2  A    between atoms: C_7  and  C_12
REMARK                            x       y       z     vdW  Elec       q    Type
REMARK                         _______ _______ _______ _____ _____    ______ ____
ROOT
ATOM      1  C   UNL     1      37.261  30.177  51.445  0.00  0.00    +0.000 A 
ATOM      2  C   UNL     1      38.093  30.753  50.448  0.00  0.00    +0.000 A 
ATOM      3  C   UNL     1      37.802  30.493  49.091  0.00  0.00    +0.000 A 
ATOM      4  N   UNL     1      36.741  29.705  48.822  0.00  0.00    +0.000 NA
ATOM      5  C   UNL     1      35.974  29.176  49.782  0.00  0.00    +0.000 A 
ATOM      6  N   UNL     1      36.217  29.398  51.070  0.00  0.00    +0.000 NA
ATOM      7  H   UNL     1      37.549  30.423  52.458  0.00  0.00    +0.000 HD
ATOM      8  H   UNL     1      38.936  31.381  50.703  0.00  0.00    +0.000 HD
ATOM      9  H   UNL     1      38.430  30.928  48.325  0.00  0.00    +0.000 HD
ENDROOT
BRANCH   5  10
ATOM     10  C   UNL     1      34.825  28.320  49.513  0.00  0.00    +0.000 C 
ATOM     11  O   UNL     1      33.638  28.712  49.549  0.00  0.00    +0.000 OA
BRANCH  10  12
ATOM     12  C   UNL     1      35.107  26.902  49.179  0.00  0.00    +0.000 C 
ATOM     13  C   UNL     1      34.204  25.948  49.913  0.00  0.00    +0.000 C 
ATOM     14  C   UNL     1      34.839  24.583  49.854  0.00  0.00    +0.000 C 
ATOM     15  C   UNL     1      35.482  24.328  48.534  0.00  0.00    +0.000 C 
ATOM     16  C   UNL     1      34.943  25.171  47.416  0.00  0.00    +0.000 C 
ATOM     17  C   UNL     1      34.916  26.629  47.699  0.00  0.00    +0.000 C 
ENDBRANCH  10  12
ENDBRANCH   5  10
TORSDOF 2
