
     RDKit          3D

 41 42  0  0  0  0  0  0  0  0999 V2000
   38.6573   32.3519   46.4422 C   0  0  0  0  0  0  0  0  0  0  0  0
   39.9253   32.8241   46.2377 C   0  0  0  0  0  0  0  0  0  0  0  0
   40.3267   33.1988   44.9346 C   0  0  0  0  0  0  0  0  0  0  0  0
   39.3877   33.0584   43.9365 N   0  0  0  0  0  0  0  0  0  0  0  0
   38.1341   32.5842   44.1794 C   0  0  0  0  0  0  0  0  0  0  0  0
   37.8028   32.2447   45.4202 N   0  0  0  0  0  0  0  0  0  0  0  0
   37.7780   32.9388   41.8370 C   0  0  0  0  0  0  0  0  0  0  0  0
   38.9373   33.4125   41.6550 O   0  0  0  0  0  0  0  0  0  0  0  0
   37.2312   32.4747   43.0774 N   0  0  0  0  0  0  0  0  0  0  0  0
   38.4055   32.0263   47.7572 O   0  0  0  0  0  0  0  0  0  0  0  0
   37.2941   31.2987   48.0431 C   0  0  0  0  0  0  0  0  0  0  0  0
   37.8017   30.3755   48.8846 C   0  0  0  0  0  0  0  0  0  0  0  0
   38.0908   30.8292   50.2711 C   0  0  0  0  0  0  0  0  0  0  0  0
   37.2986   29.9283   51.5591 S   0  0  0  0  0  0  0  0  0  0  0  0
   40.7058   32.9559   46.9854 H   0  0  0  0  0  0  0  0  0  0  0  0
   41.3104   33.5708   44.7451 H   0  0  0  0  0  0  0  0  0  0  0  0
   37.1056   32.8662   40.9715 H   0  0  0  0  0  0  0  0  0  0  0  0
   36.2809   32.0818   43.2490 H   0  0  0  0  0  0  0  0  0  0  0  0
   36.7707   30.8917   47.1286 H   0  0  0  0  0  0  0  0  0  0  0  0
   36.5313   31.9784   48.4863 H   0  0  0  0  0  0  0  0  0  0  0  0
   37.1380   29.4649   48.9811 H   0  0  0  0  0  0  0  0  0  0  0  0
   38.7618   29.8533   48.5596 H   0  0  0  0  0  0  0  0  0  0  0  0
   39.1935   30.8855   50.5071 H   0  0  0  0  0  0  0  0  0  0  0  0
   37.7666   31.9092   50.3552 H   0  0  0  0  0  0  0  0  0  0  0  0
   35.5323   30.0810   51.6935 C   0  0  0  0  0  0  0  0  0  0  0  0
   34.7946   30.1424   50.3766 C   0  0  0  0  0  0  0  0  0  0  0  0
   33.4813   29.4115   50.5539 C   0  0  0  0  0  0  0  0  0  0  0  0
   32.8120   30.0085   51.7809 C   0  0  0  0  0  0  0  0  0  0  0  0
   33.5111   29.3786   52.9748 C   0  0  0  0  0  0  0  0  0  0  0  0
   34.9588   29.0453   52.6160 C   0  0  0  0  0  0  0  0  0  0  0  0
   35.3255   31.0735   52.1921 H   0  0  0  0  0  0  0  0  0  0  0  0
   35.3938   29.7255   49.5414 H   0  0  0  0  0  0  0  0  0  0  0  0
   34.5452   31.1839   50.0801 H   0  0  0  0  0  0  0  0  0  0  0  0
   32.8360   29.6232   49.6768 H   0  0  0  0  0  0  0  0  0  0  0  0
   33.6480   28.3210   50.6905 H   0  0  0  0  0  0  0  0  0  0  0  0
   31.7179   29.8356   51.8086 H   0  0  0  0  0  0  0  0  0  0  0  0
   33.0224   31.0877   51.8175 H   0  0  0  0  0  0  0  0  0  0  0  0
   33.0100   28.4097   53.1698 H   0  0  0  0  0  0  0  0  0  0  0  0
   33.4273   30.0017   53.8654 H   0  0  0  0  0  0  0  0  0  0  0  0
   34.9941   28.0230   52.1923 H   0  0  0  0  0  0  0  0  0  0  0  0
   35.5248   29.0403   53.5624 H   0  0  0  0  0  0  0  0  0  0  0  0
  1 10  1  0
  2  1  2  0
  3  2  1  0
  4  5  1  0
  4  3  2  0
  5  6  2  0
  6  1  1  0
  7  9  1  0
  8  7  2  0
  9  5  1  0
 10 11  1  0
 11 12  1  0
 12 13  1  0
 13 14  1  0
  2 15  1  0
  3 16  1  0
  7 17  1  0
  9 18  1  0
 11 19  1  0
 11 20  1  0
 12 21  1  0
 12 22  1  0
 13 23  1  0
 13 24  1  0
 25 26  1  0
 26 27  1  0
 27 28  1  0
 28 29  1  0
 29 30  1  0
 30 25  1  0
 25 31  1  0
 26 32  1  0
 26 33  1  0
 27 34  1  0
 27 35  1  0
 28 36  1  0
 28 37  1  0
 29 38  1  0
 29 39  1  0
 30 40  1  0
 30 41  1  0
 14 25  1  0
M  ISO  8  15  14  16  14  17   6  19   8  20   8  21   8  22   8  23   8
M  ISO  1  24   8
M  END
>  <DihAtoms>  (1) 
12,13,24,25

>  <DihDeg>  (1) 
-66.77499070335426

$$$$
