
 OpenBabel03272502293D

 20 21  0  0  0  0  0  0  0  0999 V2000
   37.7090   31.9360   48.7380 C   0  0  0  0  0  0  0  0  0  0  0  0
   38.5240   31.5410   47.7840 C   0  0  0  0  0  0  0  0  0  0  0  0
   36.9050   29.6920   51.5860 C   0  0  0  0  0  0  0  0  0  0  0  0
   37.6220   30.5790   50.7550 C   0  0  0  0  0  0  0  0  0  0  0  0
   36.9960   31.0380   49.5900 C   0  0  0  0  0  0  0  0  0  0  0  0
   35.7480   30.6240   49.3040 N   0  0  0  0  0  0  0  0  0  0  0  0
   35.0770   29.7740   50.1120 C   0  0  0  0  0  0  0  0  0  0  0  0
   35.6470   29.3060   51.2510 N   0  0  0  0  0  0  0  0  0  0  0  0
   37.3110   29.2930   52.4970 H   0  0  0  0  0  0  0  0  0  0  0  0
   38.6230   30.8550   51.0680 H   0  0  0  0  0  0  0  0  0  0  0  0
   34.0800   29.4580   49.8620 H   0  0  0  0  0  0  0  0  0  0  0  0
   39.2610   32.4920   46.9020 C   0  0  0  0  0  0  0  0  0  0  0  0
   38.5250   33.1190   46.3480 H   0  0  0  0  0  0  0  0  0  0  0  0
   39.8720   33.2090   47.4850 H   0  0  0  0  0  0  0  0  0  0  0  0
   40.1240   31.7080   45.9080 C   0  0  0  0  0  0  0  0  0  0  0  0
   39.3020   30.5870   45.3780 C   0  0  0  0  0  0  0  0  0  0  0  0
   39.5810   30.1390   43.9940 C   0  0  0  0  0  0  0  0  0  0  0  0
   40.0640   31.2290   43.0730 C   0  0  0  0  0  0  0  0  0  0  0  0
   39.7480   32.6010   43.6780 C   0  0  0  0  0  0  0  0  0  0  0  0
   40.6530   32.6720   44.9050 C   0  0  0  0  0  0  0  0  0  0  0  0
  1  5  1  0  0  0  0
  2  1  2  0  0  0  0
  3  9  1  0  0  0  0
  4 10  1  0  0  0  0
  4  3  2  0  0  0  0
  5  4  1  0  0  0  0
  6  5  2  0  0  0  0
  6  7  1  0  0  0  0
  7  8  2  0  0  0  0
  8  3  1  0  0  0  0
 11  7  1  0  0  0  0
 12 14  1  0  0  0  0
 12  2  1  0  0  0  0
 13 12  1  0  0  0  0
 15 12  1  0  0  0  0
 16 15  1  0  0  0  0
 17 16  1  0  0  0  0
 18 19  1  0  0  0  0
 18 17  1  0  0  0  0
 19 20  1  0  0  0  0
 20 15  1  0  0  0  0
M  END
>  <minimizedAffinity>
-5.42307091

>  <minimizedRMSD>
2.21827984

$$$$
