
 OpenBabel03272509263D

 22 23  0  0  0  0  0  0  0  0999 V2000
   35.5290   30.2960   47.6540 C   0  0  0  0  0  0  0  0  0  0  0  0
   36.0040   30.1300   46.6670 H   0  0  0  0  0  0  0  0  0  0  0  0
   35.3180   31.3680   47.8410 H   0  0  0  0  0  0  0  0  0  0  0  0
   32.8710   27.8800   48.7840 C   0  0  0  0  0  0  0  0  0  0  0  0
   34.0500   28.6240   48.7980 C   0  0  0  0  0  0  0  0  0  0  0  0
   34.3230   29.4690   47.7430 C   0  0  0  0  0  0  0  0  0  0  0  0
   33.3940   29.5270   46.7220 N   0  0  0  0  0  0  0  0  0  0  0  0
   32.2790   28.7980   46.7490 C   0  0  0  0  0  0  0  0  0  0  0  0
   31.9900   27.9680   47.7610 N   0  0  0  0  0  0  0  0  0  0  0  0
   32.7140   27.2350   49.6400 H   0  0  0  0  0  0  0  0  0  0  0  0
   34.7240   28.5380   49.6120 H   0  0  0  0  0  0  0  0  0  0  0  0
   31.5500   28.8440   45.9450 H   0  0  0  0  0  0  0  0  0  0  0  0
   36.5380   29.8870   48.7260 C   0  0  0  0  0  0  0  0  0  0  0  0
   36.2360   29.0310   49.3240 H   0  0  0  0  0  0  0  0  0  0  0  0
   37.4120   29.5150   48.1100 H   0  0  0  0  0  0  0  0  0  0  0  0
   37.1450   31.3170   49.6120 S   0  0  0  0  0  0  0  0  0  0  0  0
   38.5870   32.0870   48.8560 C   0  0  0  0  0  3  0  0  0  0  0  0
   38.8420   33.4090   49.5370 C   0  0  0  0  0  2  0  0  0  0  0  0
   39.4160   34.4150   48.5490 C   0  0  0  0  0  2  0  0  0  0  0  0
   40.2880   33.6910   47.5490 C   0  0  0  0  0  2  0  0  0  0  0  0
   39.4790   32.8070   46.6340 C   0  0  0  0  0  2  0  0  0  0  0  0
   38.2640   32.3310   47.3970 C   0  0  0  0  0  2  0  0  0  0  0  0
  1  6  1  0  0  0  0
  1  3  1  0  0  0  0
  1 13  1  0  0  0  0
  2  1  1  0  0  0  0
  4  5  1  0  0  0  0
  4 10  1  0  0  0  0
  5 11  1  0  0  0  0
  6  5  2  0  0  0  0
  7  8  2  0  0  0  0
  7  6  1  0  0  0  0
  8  9  1  0  0  0  0
  9  4  2  0  0  0  0
 12  8  1  0  0  0  0
 13 14  1  0  0  0  0
 13 16  1  0  0  0  0
 15 13  1  0  0  0  0
 17 18  1  0  0  0  0
 17 16  1  0  0  0  0
 19 18  1  0  0  0  0
 20 19  1  0  0  0  0
 21 22  1  0  0  0  0
 21 20  1  0  0  0  0
 22 17  1  0  0  0  0
M  END
>  <minimizedAffinity>
-3.98583841

>  <minimizedRMSD>
3.56556177

$$$$
