
 OpenBabel03262521213D

 30 31  0  0  0  0  0  0  0  0999 V2000
   38.1070   32.1570   48.7240 C   0  0  0  0  0  0  0  0  0  0  0  0
   37.0720   32.0120   48.2980 H   0  0  0  0  0  0  0  0  0  0  0  0
   38.2090   33.2650   48.7600 H   0  0  0  0  0  0  0  0  0  0  0  0
   38.3550   31.5170   49.8860 C   0  0  0  0  0  0  0  0  0  0  0  0
   39.1110   30.6840   49.7680 H   0  0  0  0  0  0  0  0  0  0  0  0
   38.8830   32.1130   50.7010 H   0  0  0  0  0  0  0  0  0  0  0  0
   37.1820   30.9210   50.5780 C   0  0  0  0  0  0  0  0  0  0  0  0
   37.3080   30.8480   51.6980 H   0  0  0  0  0  0  0  0  0  0  0  0
   36.3180   31.6440   50.4760 H   0  0  0  0  0  0  0  0  0  0  0  0
   36.6470   29.3550   49.9810 S   0  0  0  0  0  0  0  0  0  0  0  0
   35.1730   29.3220   48.9850 C   0  0  0  0  0  3  0  0  0  0  0  0
   35.3160   29.9430   47.6150 C   0  0  0  0  0  2  0  0  0  0  0  0
   34.4660   29.1380   46.6570 C   0  0  0  0  0  2  0  0  0  0  0  0
   33.0770   29.0550   47.2690 C   0  0  0  0  0  2  0  0  0  0  0  0
   33.1670   27.9860   48.3450 C   0  0  0  0  0  2  0  0  0  0  0  0
   34.5820   27.9440   48.9220 C   0  0  0  0  0  2  0  0  0  0  0  0
   39.0970   31.6570   47.9380 O   0  0  0  0  0  0  0  0  0  0  0  0
   38.9970   31.8220   46.5740 C   0  0  0  0  0  0  0  0  0  0  0  0
   40.1650   31.5500   45.9130 C   0  0  0  0  0  0  0  0  0  0  0  0
   40.2140   31.6760   44.5050 C   0  0  0  0  0  0  0  0  0  0  0  0
   39.0510   32.0730   43.8820 N   0  0  0  0  0  0  0  0  0  0  0  0
   37.9070   32.3350   44.5740 C   0  0  0  0  0  0  0  0  0  0  0  0
   37.9110   32.2030   45.8960 N   0  0  0  0  0  0  0  0  0  0  0  0
   36.9830   32.8650   42.4290 C   0  0  0  0  0  0  0  0  0  0  0  0
   38.0730   32.6520   41.8220 O   0  0  0  0  0  0  0  0  0  0  0  0
   36.7530   32.7420   43.8380 N   0  0  0  0  0  0  0  0  0  0  0  0
   41.1100   31.2340   46.3510 H   0  0  0  0  0  0  0  0  0  0  0  0
   41.1100   31.4710   43.9630 H   0  0  0  0  0  0  0  0  0  0  0  0
   36.1120   33.1750   41.8360 H   0  0  0  0  0  0  0  0  0  0  0  0
   35.8650   32.9120   44.3570 H   0  0  0  0  0  0  0  0  0  0  0  0
  1  3  1  0  0  0  0
  1  4  1  0  0  0  0
  2  1  1  0  0  0  0
  4  7  1  0  0  0  0
  4  6  1  0  0  0  0
  5  4  1  0  0  0  0
  7  8  1  0  0  0  0
  9  7  1  0  0  0  0
 10  7  1  0  0  0  0
 11 10  1  0  0  0  0
 12 11  1  0  0  0  0
 13 14  1  0  0  0  0
 13 12  1  0  0  0  0
 14 15  1  0  0  0  0
 15 16  1  0  0  0  0
 16 11  1  0  0  0  0
 17  1  1  0  0  0  0
 18 17  1  0  0  0  0
 19 27  1  0  0  0  0
 19 18  1  0  0  0  0
 20 19  2  0  0  0  0
 21 20  1  0  0  0  0
 21 22  2  0  0  0  0
 22 23  1  0  0  0  0
 23 18  2  0  0  0  0
 24 26  1  0  0  0  0
 25 24  2  0  0  0  0
 26 30  1  0  0  0  0
 26 22  1  0  0  0  0
 28 20  1  0  0  0  0
 29 24  1  0  0  0  0
M  END
>  <minimizedAffinity>
-5.50394678

>  <minimizedRMSD>
2.35448575

$$$$
