
 OpenBabel03272509313D

 35 37  0  0  1  0  0  0  0  0999 V2000
   36.3220   30.6970   48.9630 C   0  0  2  0  0  0  0  0  0  0  0  0
   37.2260   31.6350   49.7020 C   0  0  0  0  0  0  0  0  0  0  0  0
   38.1490   30.9270   50.6670 C   0  0  0  0  0  0  0  0  0  0  0  0
   37.3550   30.0830   51.6560 C   0  0  0  0  0  0  0  0  0  0  0  0
   36.1460   29.4150   51.0590 C   0  0  0  0  0  0  0  0  0  0  0  0
   36.3350   29.3210   49.5370 C   0  0  1  0  0  0  0  0  0  0  0  0
   35.2390   31.0480   48.9440 H   0  0  0  0  0  0  0  0  0  0  0  0
   36.5270   32.2190   50.3920 H   0  0  0  0  0  0  0  0  0  0  0  0
   37.7340   32.3900   49.1330 H   0  0  0  0  0  0  0  0  0  0  0  0
   38.6310   31.7180   51.2860 H   0  0  0  0  0  0  0  0  0  0  0  0
   38.9260   30.3300   50.1970 H   0  0  0  0  0  0  0  0  0  0  0  0
   37.0060   30.6970   52.5240 H   0  0  0  0  0  0  0  0  0  0  0  0
   38.0520   29.3310   52.0850 H   0  0  0  0  0  0  0  0  0  0  0  0
   35.2000   29.9410   51.2090 H   0  0  0  0  0  0  0  0  0  0  0  0
   36.0890   28.3730   51.4250 H   0  0  0  0  0  0  0  0  0  0  0  0
   37.3060   28.8920   49.4770 H   0  0  0  0  0  0  0  0  0  0  0  0
   36.6970   30.6180   47.5240 C   0  0  0  0  0  0  0  0  0  0  0  0
   38.0540   30.7990   47.2370 C   0  0  0  0  0  0  0  0  0  0  0  0
   38.4240   30.7220   45.8890 C   0  0  0  0  0  0  0  0  0  0  0  0
   37.4550   30.4760   44.9440 N   0  0  0  0  0  0  0  0  0  0  0  0
   36.1370   30.3040   45.2820 C   0  0  0  0  0  0  0  0  0  0  0  0
   35.7780   30.3800   46.5740 N   0  0  0  0  0  0  0  0  0  0  0  0
   38.8980   30.9850   47.8700 H   0  0  0  0  0  0  0  0  0  0  0  0
   39.4260   30.8420   45.5320 H   0  0  0  0  0  0  0  0  0  0  0  0
   35.4450   30.1170   44.4850 H   0  0  0  0  0  0  0  0  0  0  0  0
   34.0940   28.2560   49.0370 C   0  0  0  0  0  0  0  0  0  0  0  0
   33.2470   28.9340   49.6890 O   0  0  0  0  0  0  0  0  0  0  0  0
   35.4990   28.3790   48.8910 N   0  0  0  0  0  0  0  0  0  0  0  0
   35.8050   27.6250   48.2010 H   0  0  0  0  0  0  0  0  0  0  0  0
   33.1980   27.2370   48.4260 C   0  0  0  0  0  3  0  0  0  0  0  0
   32.0470   28.0150   47.8200 C   0  0  0  0  0  2  0  0  0  0  0  0
   31.1260   27.0230   47.1470 C   0  0  0  0  0  2  0  0  0  0  0  0
   31.4780   25.6050   47.5310 C   0  0  0  0  0  2  0  0  0  0  0  0
   32.8920   25.2460   47.1100 C   0  0  0  0  0  2  0  0  0  0  0  0
   33.8410   26.4250   47.3500 C   0  0  0  0  0  2  0  0  0  0  0  0
  1  7  1  1  0  0  0
  1  6  1  0  0  0  0
  1  2  1  0  0  0  0
  2  8  1  0  0  0  0
  2  3  1  0  0  0  0
  3 10  1  0  0  0  0
  3  4  1  0  0  0  0
  4 13  1  0  0  0  0
  4 12  1  0  0  0  0
  5 14  1  0  0  0  0
  5 15  1  0  0  0  0
  5  4  1  0  0  0  0
  6 16  1  6  0  0  0
  6  5  1  0  0  0  0
  9  2  1  0  0  0  0
 11  3  1  0  0  0  0
 17  1  1  0  0  0  0
 18 17  1  0  0  0  0
 18 23  1  0  0  0  0
 19 18  2  0  0  0  0
 20 21  2  0  0  0  0
 20 19  1  0  0  0  0
 21 22  1  0  0  0  0
 22 17  2  0  0  0  0
 24 19  1  0  0  0  0
 25 21  1  0  0  0  0
 26 27  2  0  0  0  0
 28 26  1  0  0  0  0
 28  6  1  0  0  0  0
 29 28  1  0  0  0  0
 30 26  1  0  0  0  0
 31 30  1  0  0  0  0
 32 33  1  0  0  0  0
 32 31  1  0  0  0  0
 34 35  1  0  0  0  0
 34 33  1  0  0  0  0
 35 30  1  0  0  0  0
M  END
>  <minimizedAffinity>
-6.06100655

>  <minimizedRMSD>
0.907414556

$$$$
