
     RDKit          3D

 47 49  0  0  0  0  0  0  0  0999 V2000
   36.0352   29.9419   46.9708 O   0  0  0  0  0  0  0  0  0  0  0  0
   36.0267   30.2298   48.4424 P   0  0  2  0  0  0  0  0  0  0  0  0
   36.8018   28.9141   49.2390 O   0  0  0  0  0  0  0  0  0  0  0  0
   34.4390   30.3703   49.0203 O   0  0  0  0  0  0  0  0  0  0  0  0
   34.1782   29.2354   49.7700 C   0  0  0  0  0  0  0  0  0  0  0  0
   33.3167   28.2577   49.0688 C   0  0  0  0  0  0  0  0  0  0  0  0
   33.9430   27.3801   48.2155 C   0  0  0  0  0  0  0  0  0  0  0  0
   33.1859   26.4315   47.5224 C   0  0  0  0  0  0  0  0  0  0  0  0
   31.8406   26.4390   47.7438 N   0  0  0  0  0  0  0  0  0  0  0  0
   31.2492   27.3088   48.5848 C   0  0  0  0  0  0  0  0  0  0  0  0
   31.9858   28.2225   49.2512 N   0  0  0  0  0  0  0  0  0  0  0  0
   36.8835   31.6483   48.7409 O   0  0  0  0  0  0  0  0  0  0  0  0
   38.8502   32.4711   47.8113 C   0  0  2  0  0  0  0  0  0  0  0  0
   38.2470   31.4592   48.7651 C   0  0  1  0  0  0  0  0  0  0  0  0
   38.8227   32.0180   50.0742 C   0  0  0  0  0  0  0  0  0  0  0  0
   38.4760   33.3528   49.9614 O   0  0  0  0  0  0  0  0  0  0  0  0
   38.6846   33.7310   48.6518 C   0  0  0  0  0  0  0  0  0  0  0  0
   38.0787   32.4975   46.6613 O   0  0  0  0  0  0  0  0  0  0  0  0
   37.4895   29.2713   49.8719 H   0  0  0  0  0  0  0  0  0  0  0  0
   33.6697   29.4971   50.7427 H   0  0  0  0  0  0  0  0  0  0  0  0
   35.0889   28.6824   50.0877 H   0  0  0  0  0  0  0  0  0  0  0  0
   34.9907   27.2994   47.9787 H   0  0  0  0  0  0  0  0  0  0  0  0
   33.6005   25.7037   46.8315 H   0  0  0  0  0  0  0  0  0  0  0  0
   30.1676   27.2540   48.7105 H   0  0  0  0  0  0  0  0  0  0  0  0
   39.9265   32.2990   47.6413 H   0  0  0  0  0  0  0  0  0  0  0  0
   38.5766   30.4308   48.5899 H   0  0  0  0  0  0  0  0  0  0  0  0
   39.9037   31.8514   50.0556 H   0  0  0  0  0  0  0  0  0  0  0  0
   38.2868   31.5092   50.9015 H   0  0  0  0  0  0  0  0  0  0  0  0
   39.5393   34.4135   48.5118 H   0  0  0  0  0  0  0  0  0  0  0  0
   37.7829   34.3213   48.3454 H   0  0  0  0  0  0  0  0  0  0  0  0
   38.9208   32.2902   45.5755 C   0  0  0  0  0  0  0  0  0  0  0  0
   39.2519   33.5360   44.8280 C   0  0  0  0  0  0  0  0  0  0  0  0
   39.7506   33.1560   43.4478 C   0  0  0  0  0  0  0  0  0  0  0  0
   40.5527   31.9006   43.5235 C   0  0  0  0  0  0  0  0  0  0  0  0
   41.2105   31.6969   44.8717 C   0  0  0  0  0  0  0  0  0  0  0  0
   40.2429   31.6551   46.0138 C   0  0  0  0  0  0  0  0  0  0  0  0
   38.4891   31.5517   44.8493 H   0  0  0  0  0  0  0  0  0  0  0  0
   38.4149   34.2364   44.6699 H   0  0  0  0  0  0  0  0  0  0  0  0
   40.0600   34.1297   45.3348 H   0  0  0  0  0  0  0  0  0  0  0  0
   40.2879   34.0156   42.9995 H   0  0  0  0  0  0  0  0  0  0  0  0
   38.8300   32.9242   42.8565 H   0  0  0  0  0  0  0  0  0  0  0  0
   39.9682   30.9867   43.2619 H   0  0  0  0  0  0  0  0  0  0  0  0
   41.3733   31.9660   42.7810 H   0  0  0  0  0  0  0  0  0  0  0  0
   41.9834   32.4905   44.9798 H   0  0  0  0  0  0  0  0  0  0  0  0
   41.7182   30.7046   44.8026 H   0  0  0  0  0  0  0  0  0  0  0  0
   40.0232   30.6007   46.2863 H   0  0  0  0  0  0  0  0  0  0  0  0
   40.6547   32.1438   46.9197 H   0  0  0  0  0  0  0  0  0  0  0  0
  2  1  2  0
  2 12  1  6
  2  4  1  0
  2  3  1  0
  4  5  1  0
  6 11  1  0
  6  5  1  0
  7  6  2  0
  8  9  2  0
  8  7  1  0
  9 10  1  0
 10 11  2  0
 13 18  1  0
 13 17  1  0
 13 14  1  0
 14 12  1  0
 14 15  1  0
 16 15  1  0
 17 16  1  0
  3 19  1  0
  5 20  1  0
  5 21  1  0
  7 22  1  0
  8 23  1  0
 10 24  1  0
 13 25  1  6
 14 26  1  6
 15 27  1  0
 15 28  1  0
 17 29  1  0
 17 30  1  0
 31 32  1  0
 32 33  1  0
 33 34  1  0
 34 35  1  0
 35 36  1  0
 36 31  1  0
 31 37  1  0
 32 38  1  0
 32 39  1  0
 33 40  1  0
 33 41  1  0
 34 42  1  0
 34 43  1  0
 35 44  1  0
 35 45  1  0
 36 46  1  0
 36 47  1  0
 18 31  1  0
M  ISO  8  19   3  20   8  21   8  22  14  23  14  24  14  25  13  26  13
M  ISO  4  27  13  28  13  29  13  30  13
M  END
>  <DihAtoms>  (1) 
12,17,30,31

>  <DihDeg>  (1) 
122.7538824366712

$$$$
