REMARK  Name = 
REMARK  5 active torsions:
REMARK  status: ('A' for Active; 'I' for Inactive)
REMARK    1  A    between atoms: C_1  and  S_17
REMARK    2  A    between atoms: C_2  and  C_9
REMARK    3  A    between atoms: C_11  and  C_13
REMARK    4  A    between atoms: S_17  and  C_20
REMARK    5  A    between atoms: C_20  and  C_29
REMARK                            x       y       z     vdW  Elec       q    Type
REMARK                         _______ _______ _______ _____ _____    ______ ____
ROOT
ATOM      1  C   UNL     1      38.165  31.242  44.928  0.00  0.00    +0.000 A 
ATOM      2  C   UNL     1      37.349  30.934  45.971  0.00  0.00    +0.000 A 
ATOM      3  C   UNL     1      36.114  30.341  45.731  0.00  0.00    +0.000 A 
ATOM      4  C   UNL     1      35.673  30.050  44.453  0.00  0.00    +0.000 A 
ATOM      5  C   UNL     1      36.466  30.350  43.384  0.00  0.00    +0.000 A 
ATOM      6  C   UNL     1      37.673  30.931  43.654  0.00  0.00    +0.000 A 
ATOM      7  H   UNL     1      35.478  30.100  46.596  0.00  0.00    +0.000 HD
ATOM      8  H   UNL     1      34.702  29.590  44.387  0.00  0.00    +0.000 HD
ATOM      9  H   UNL     1      36.069  30.104  42.433  0.00  0.00    +0.000 HD
ATOM     10  H   UNL     1      38.213  31.126  42.717  0.00  0.00    +0.000 HD
ENDROOT
BRANCH   2  13
ATOM     11  C   UNL     1      38.682  32.781  48.859  0.00  0.00    +0.000 A 
ATOM     12  C   UNL     1      38.313  32.443  47.567  0.00  0.00    +0.000 A 
ATOM     13  C   UNL     1      37.704  31.246  47.312  0.00  0.00    +0.000 A 
ATOM     14  N   UNL     1      37.482  30.428  48.376  0.00  0.00    +0.000 NA
ATOM     15  C   UNL     1      37.833  30.753  49.626  0.00  0.00    +0.000 A 
ATOM     16  N   UNL     1      38.432  31.924  49.856  0.00  0.00    +0.000 NA
ATOM     17  H   UNL     1      39.165  33.663  49.232  0.00  0.00    +0.000 HD
ATOM     18  H   UNL     1      38.584  33.292  46.989  0.00  0.00    +0.000 HD
BRANCH  15  19
ATOM     19  C   UNL     1      37.465  29.791  50.697  0.00  0.00    +0.000 C 
ATOM     20  F   UNL     1      37.716  30.297  51.957  0.00  0.00    +0.000 F 
ATOM     21  F   UNL     1      36.024  29.642  50.707  0.00  0.00    +0.000 F 
ATOM     22  F   UNL     1      37.896  28.556  50.574  0.00  0.00    +0.000 F 
ENDBRANCH  15  19
ENDBRANCH   2  13
BRANCH   1  23
ATOM     23  S   UNL     1      39.728  31.936  45.100  0.00  0.00    +0.000 S 
ATOM     24  O   UNL     1      39.688  33.403  44.889  0.00  0.00    +0.000 OA
ATOM     25  O   UNL     1      40.274  31.585  43.732  0.00  0.00    +0.000 OA
BRANCH  23  26
ATOM     26  C   UNL     1      41.118  31.224  45.737  0.00  0.00    +0.000 C 
ATOM     27  H   UNL     1      41.220  30.146  45.505  0.00  0.00    +0.000 HD
ATOM     28  H   UNL     1      40.891  31.125  46.874  0.00  0.00    +0.000 HD
BRANCH  26  29
ATOM     29  C   UNL     1      42.379  31.991  45.766  0.00  0.00    +0.000 C 
ATOM     30  C   UNL     1      43.402  31.041  46.395  0.00  0.00    +0.000 C 
ATOM     31  C   UNL     1      44.673  31.720  46.732  0.00  0.00    +0.000 C 
ATOM     32  C   UNL     1      44.470  32.992  47.523  0.00  0.00    +0.000 C 
ATOM     33  C   UNL     1      43.573  33.942  46.806  0.00  0.00    +0.000 C 
ATOM     34  C   UNL     1      42.225  33.243  46.591  0.00  0.00    +0.000 C 
ENDBRANCH  26  29
ENDBRANCH  23  26
ENDBRANCH   1  23
TORSDOF 5
