
     RDKit          3D

 37 39  0  0  0  0  0  0  0  0999 V2000
   38.4163   30.6082   46.7863 Cl  0  0  0  0  0  0  0  0  0  0  0  0
   38.8351   32.0453   47.6821 C   0  0  0  0  0  0  0  0  0  0  0  0
   38.3376   32.2061   48.9456 C   0  0  0  0  0  0  0  0  0  0  0  0
   38.7048   33.3690   49.6093 C   0  0  0  0  0  0  0  0  0  0  0  0
   39.5340   34.2907   48.9849 C   0  0  0  0  0  0  0  0  0  0  0  0
   40.0070   34.0806   47.7124 C   0  0  0  0  0  0  0  0  0  0  0  0
   39.6472   32.9298   47.0484 C   0  0  0  0  0  0  0  0  0  0  0  0
   37.9374   30.4135   50.6490 C   0  0  0  0  0  0  0  0  0  0  0  0
   37.4629   31.2365   49.6149 C   0  0  0  0  0  0  0  0  0  0  0  0
   36.1382   31.0995   49.2489 C   0  0  0  0  0  0  0  0  0  0  0  0
   35.3790   30.1847   49.9051 N   0  0  0  0  0  0  0  0  0  0  0  0
   35.8541   29.4192   50.8799 C   0  0  0  0  0  0  0  0  0  0  0  0
   37.1316   29.5245   51.2606 N   0  0  0  0  0  0  0  0  0  0  0  0
   40.1358   32.7424   45.7745 O   0  0  0  0  0  0  0  0  0  0  0  0
   38.3104   33.4958   50.6102 H   0  0  0  0  0  0  0  0  0  0  0  0
   39.7447   35.1503   49.6053 H   0  0  0  0  0  0  0  0  0  0  0  0
   40.6288   34.8729   47.3699 H   0  0  0  0  0  0  0  0  0  0  0  0
   38.9618   30.5004   50.9519 H   0  0  0  0  0  0  0  0  0  0  0  0
   35.7875   31.7402   48.4510 H   0  0  0  0  0  0  0  0  0  0  0  0
   35.1057   28.7490   51.2869 H   0  0  0  0  0  0  0  0  0  0  0  0
   40.9629   33.5659   45.0362 C   0  0  0  0  0  0  0  0  0  0  0  0
   40.1881   34.8608   44.7816 C   0  0  0  0  0  0  0  0  0  0  0  0
   39.0338   34.5687   43.8427 C   0  0  0  0  0  0  0  0  0  0  0  0
   39.5210   34.2788   42.4404 C   0  0  0  0  0  0  0  0  0  0  0  0
   40.9869   33.9030   42.5431 C   0  0  0  0  0  0  0  0  0  0  0  0
   41.1380   32.9026   43.6661 C   0  0  0  0  0  0  0  0  0  0  0  0
   41.9484   33.7896   45.4507 H   0  0  0  0  0  0  0  0  0  0  0  0
   40.8366   35.6504   44.4040 H   0  0  0  0  0  0  0  0  0  0  0  0
   39.7476   35.1530   45.7553 H   0  0  0  0  0  0  0  0  0  0  0  0
   38.5011   33.6772   44.2443 H   0  0  0  0  0  0  0  0  0  0  0  0
   38.3418   35.4280   43.8954 H   0  0  0  0  0  0  0  0  0  0  0  0
   39.3912   35.1748   41.7950 H   0  0  0  0  0  0  0  0  0  0  0  0
   38.9923   33.4009   42.0181 H   0  0  0  0  0  0  0  0  0  0  0  0
   41.2609   33.3591   41.6167 H   0  0  0  0  0  0  0  0  0  0  0  0
   41.6466   34.7685   42.6071 H   0  0  0  0  0  0  0  0  0  0  0  0
   42.1021   32.3971   43.5637 H   0  0  0  0  0  0  0  0  0  0  0  0
   40.3619   32.1308   43.4915 H   0  0  0  0  0  0  0  0  0  0  0  0
  1  2  1  0
  2  3  2  0
  3  4  1  0
  3  9  1  0
  5  4  2  0
  6  5  1  0
  7  2  1  0
  7  6  2  0
  8 13  2  0
  9  8  1  0
 10  9  2  0
 10 11  1  0
 11 12  2  0
 12 13  1  0
 14  7  1  0
  4 15  1  0
  5 16  1  0
  6 17  1  0
  8 18  1  0
 10 19  1  0
 12 20  1  0
 21 22  1  0
 22 23  1  0
 23 24  1  0
 24 25  1  0
 25 26  1  0
 26 21  1  0
 21 27  1  0
 22 28  1  0
 22 29  1  0
 23 30  1  0
 23 31  1  0
 24 32  1  0
 24 33  1  0
 25 34  1  0
 25 35  1  0
 26 36  1  0
 26 37  1  0
 14 21  1  0
M  ISO  6  15  14  16  14  17  14  18  14  19  14  20  14
M  END
>  <DihAtoms>  (1) 
6,13,20,21

>  <DihDeg>  (1) 
-124.39697277677746

$$$$
