
 OpenBabel03262521433D

 27 29  0  0  1  0  0  0  0  0999 V2000
   38.5000   30.6560   46.1740 C   0  0  1  0  0  0  0  0  0  0  0  0
   38.0150   31.0700   44.7850 C   0  0  2  0  0  0  0  0  0  0  0  0
   38.4430   32.5100   44.8760 C   0  0  0  0  0  0  0  0  0  0  0  0
   39.7150   32.4880   45.4310 O   0  0  0  0  0  0  0  0  0  0  0  0
   39.8810   31.3230   46.1280 C   0  0  0  0  0  0  0  0  0  0  0  0
   38.6130   29.5590   46.2650 H   0  0  0  0  0  0  0  0  0  0  0  0
   38.6270   30.5030   44.0840 H   0  0  0  0  0  0  0  0  0  0  0  0
   37.7410   33.1490   45.4120 H   0  0  0  0  0  0  0  0  0  0  0  0
   38.5960   32.8720   43.8270 H   0  0  0  0  0  0  0  0  0  0  0  0
   40.2040   31.5780   47.1610 H   0  0  0  0  0  0  0  0  0  0  0  0
   40.6430   30.6380   45.7050 H   0  0  0  0  0  0  0  0  0  0  0  0
   36.5710   30.8720   44.6100 C   0  0  0  0  0  0  0  0  0  0  0  0
   35.8640   30.0550   45.5030 C   0  0  0  0  0  0  0  0  0  0  0  0
   34.4960   29.8860   45.2740 C   0  0  0  0  0  0  0  0  0  0  0  0
   33.9290   30.5210   44.2010 N   0  0  0  0  0  0  0  0  0  0  0  0
   34.6490   31.3120   43.3480 C   0  0  0  0  0  0  0  0  0  0  0  0
   35.9760   31.4790   43.5680 N   0  0  0  0  0  0  0  0  0  0  0  0
   36.3510   29.5820   46.3240 H   0  0  0  0  0  0  0  0  0  0  0  0
   33.8830   29.2710   45.9190 H   0  0  0  0  0  0  0  0  0  0  0  0
   34.1170   31.7730   42.5280 H   0  0  0  0  0  0  0  0  0  0  0  0
   37.8030   31.2560   47.1770 O   0  0  0  0  0  0  0  0  0  0  0  0
   38.1650   30.6360   48.3740 C   0  0  0  0  0  0  0  0  0  0  0  0
   38.5890   31.6590   49.4110 C   0  0  0  0  0  0  0  0  0  0  0  0
   37.4520   32.6540   49.5270 C   0  0  0  0  0  0  0  0  0  0  0  0
   36.2660   31.9130   50.0910 C   0  0  0  0  0  0  0  0  0  0  0  0
   35.8680   30.7280   49.2770 C   0  0  0  0  0  0  0  0  0  0  0  0
   37.0590   29.8350   48.9860 C   0  0  0  0  0  0  0  0  0  0  0  0
  1  6  1  1  0  0  0
  1 21  1  0  0  0  0
  2  7  1  6  0  0  0
  2  3  1  0  0  0  0
  2  1  1  0  0  0  0
  3  8  1  0  0  0  0
  3  4  1  0  0  0  0
  4  5  1  0  0  0  0
  5  1  1  0  0  0  0
  5 10  1  0  0  0  0
  9  3  1  0  0  0  0
 11  5  1  0  0  0  0
 12  2  1  0  0  0  0
 12 13  1  0  0  0  0
 13 18  1  0  0  0  0
 14 13  2  0  0  0  0
 14 19  1  0  0  0  0
 15 14  1  0  0  0  0
 16 17  1  0  0  0  0
 16 15  2  0  0  0  0
 17 12  2  0  0  0  0
 20 16  1  0  0  0  0
 21 22  1  0  0  0  0
 22 27  1  0  0  0  0
 22 23  1  0  0  0  0
 23 24  1  0  0  0  0
 24 25  1  0  0  0  0
 26 25  1  0  0  0  0
 27 26  1  0  0  0  0
M  END
>  <minimizedAffinity>
-4.72838593

>  <minimizedRMSD>
4.17470264

$$$$
