
 OpenBabel03272510053D

 34 36  0  0  0  0  0  0  0  0999 V2000
   36.7370   25.9980   32.3210 C   0  0  0  0  0  0  0  0  0  0  0  0
   37.2610   26.4570   33.4890 C   0  0  0  0  0  0  0  0  0  0  0  0
   36.9450   27.7370   33.9320 C   0  0  0  0  0  0  0  0  0  0  0  0
   36.1080   28.5770   33.2200 C   0  0  0  0  0  0  0  0  0  0  0  0
   35.5690   28.1490   32.0430 C   0  0  0  0  0  0  0  0  0  0  0  0
   35.8990   26.8870   31.6360 C   0  0  0  0  0  0  0  0  0  0  0  0
   37.3810   28.0790   34.8830 H   0  0  0  0  0  0  0  0  0  0  0  0
   35.9330   29.5440   33.6600 H   0  0  0  0  0  0  0  0  0  0  0  0
   34.9390   28.8410   31.5460 H   0  0  0  0  0  0  0  0  0  0  0  0
   35.4080   26.6620   30.6780 H   0  0  0  0  0  0  0  0  0  0  0  0
   40.3710   24.7910   34.5280 C   0  0  0  0  0  0  0  0  0  0  0  0
   39.4570   25.5490   33.8140 C   0  0  0  0  0  0  0  0  0  0  0  0
   38.1690   25.6770   34.2550 C   0  0  0  0  0  0  0  0  0  0  0  0
   37.8470   25.0370   35.4110 N   0  0  0  0  0  0  0  0  0  0  0  0
   38.7280   24.3070   36.1060 C   0  0  0  0  0  0  0  0  0  0  0  0
   39.9800   24.1880   35.6570 N   0  0  0  0  0  0  0  0  0  0  0  0
   41.4040   24.5840   34.3280 H   0  0  0  0  0  0  0  0  0  0  0  0
   40.0200   25.9380   33.0020 H   0  0  0  0  0  0  0  0  0  0  0  0
   38.2520   23.7220   37.3860 C   0  0  0  0  0  0  0  0  0  0  0  0
   39.2590   23.0580   38.0580 F   0  0  0  0  0  0  0  0  0  0  0  0
   37.9360   24.8030   38.2970 F   0  0  0  0  0  0  0  0  0  0  0  0
   37.1420   23.0200   37.3540 F   0  0  0  0  0  0  0  0  0  0  0  0
   37.0190   24.4240   31.6920 S   0  0  0  0  0  0  0  0  0  0  0  0
   37.8940   24.4740   30.4960 O   0  0  0  0  0  0  0  0  0  0  0  0
   35.7160   24.2540   30.9390 O   0  0  0  0  0  0  0  0  0  0  0  0
   36.6870   22.9380   32.4190 C   0  0  0  0  0  0  0  0  0  0  0  0
   36.3390   23.0170   33.4670 H   0  0  0  0  0  0  0  0  0  0  0  0
   37.7380   22.4850   32.6300 H   0  0  0  0  0  0  0  0  0  0  0  0
   36.0690   21.8610   31.6210 C   0  0  0  0  0  3  0  0  0  0  0  0
   35.2540   21.0450   32.6290 C   0  0  0  0  0  2  0  0  0  0  0  0
   34.7550   19.7750   32.0560 C   0  0  0  0  0  2  0  0  0  0  0  0
   35.8370   18.9720   31.3690 C   0  0  0  0  0  2  0  0  0  0  0  0
   36.5110   19.7670   30.3040 C   0  0  0  0  0  2  0  0  0  0  0  0
   37.1230   21.0090   30.9630 C   0  0  0  0  0  2  0  0  0  0  0  0
  1  2  1  0  0  0  0
  2  3  2  0  0  0  0
  2 13  1  0  0  0  0
  3  7  1  0  0  0  0
  4  8  1  0  0  0  0
  4  3  1  0  0  0  0
  5  4  2  0  0  0  0
  6  5  1  0  0  0  0
  6  1  2  0  0  0  0
  9  5  1  0  0  0  0
 10  6  1  0  0  0  0
 11 16  1  0  0  0  0
 12 13  1  0  0  0  0
 12 11  2  0  0  0  0
 13 14  2  0  0  0  0
 14 15  1  0  0  0  0
 15 19  1  0  0  0  0
 16 15  2  0  0  0  0
 17 11  1  0  0  0  0
 18 12  1  0  0  0  0
 19 20  1  0  0  0  0
 19 21  1  0  0  0  0
 22 19  1  0  0  0  0
 23  1  1  0  0  0  0
 23 26  1  0  0  0  0
 24 23  2  0  0  0  0
 25 23  2  0  0  0  0
 26 28  1  0  0  0  0
 26 27  1  0  0  0  0
 29 26  1  0  0  0  0
 29 30  1  0  0  0  0
 31 30  1  0  0  0  0
 32 31  1  0  0  0  0
 33 34  1  0  0  0  0
 33 32  1  0  0  0  0
 34 29  1  0  0  0  0
M  END
>  <minimizedAffinity>
-6.44924116

$$$$

 OpenBabel03272510053D

 34 36  0  0  0  0  0  0  0  0999 V2000
   38.3040   24.7900   35.8460 C   0  0  0  0  0  0  0  0  0  0  0  0
   38.2630   24.6290   34.4970 C   0  0  0  0  0  0  0  0  0  0  0  0
   38.2080   25.7450   33.6690 C   0  0  0  0  0  0  0  0  0  0  0  0
   38.1890   27.0340   34.1700 C   0  0  0  0  0  0  0  0  0  0  0  0
   38.2250   27.2300   35.5200 C   0  0  0  0  0  0  0  0  0  0  0  0
   38.2800   26.1130   36.3050 C   0  0  0  0  0  0  0  0  0  0  0  0
   38.1800   25.5830   32.5810 H   0  0  0  0  0  0  0  0  0  0  0  0
   38.1480   27.8210   33.4370 H   0  0  0  0  0  0  0  0  0  0  0  0
   38.2060   28.2400   35.8390 H   0  0  0  0  0  0  0  0  0  0  0  0
   38.3000   26.4010   37.3660 H   0  0  0  0  0  0  0  0  0  0  0  0
   39.3780   21.5900   32.7500 C   0  0  0  0  0  0  0  0  0  0  0  0
   39.3730   22.8400   33.3480 C   0  0  0  0  0  0  0  0  0  0  0  0
   38.2270   23.3390   33.9010 C   0  0  0  0  0  0  0  0  0  0  0  0
   37.1190   22.5520   33.8370 N   0  0  0  0  0  0  0  0  0  0  0  0
   37.1210   21.3420   33.2640 C   0  0  0  0  0  0  0  0  0  0  0  0
   38.2480   20.8740   32.7240 N   0  0  0  0  0  0  0  0  0  0  0  0
   40.1750   21.0550   32.2720 H   0  0  0  0  0  0  0  0  0  0  0  0
   40.3800   23.1700   33.2670 H   0  0  0  0  0  0  0  0  0  0  0  0
   35.8540   20.5680   33.3300 C   0  0  0  0  0  0  0  0  0  0  0  0
   36.0390   19.2430   32.9910 F   0  0  0  0  0  0  0  0  0  0  0  0
   35.4410   20.4770   34.7160 F   0  0  0  0  0  0  0  0  0  0  0  0
   34.8010   21.0810   32.7340 F   0  0  0  0  0  0  0  0  0  0  0  0
   38.4160   23.4930   36.9680 S   0  0  0  0  0  0  0  0  0  0  0  0
   37.1010   22.8360   37.1590 O   0  0  0  0  0  0  0  0  0  0  0  0
   38.3840   24.3050   38.2450 O   0  0  0  0  0  0  0  0  0  0  0  0
   39.8080   22.7600   37.5760 C   0  0  0  0  0  0  0  0  0  0  0  0
   39.6360   22.1430   38.4790 H   0  0  0  0  0  0  0  0  0  0  0  0
   40.3890   23.6320   38.0840 H   0  0  0  0  0  0  0  0  0  0  0  0
   40.8280   22.2490   36.6390 C   0  0  0  0  0  3  0  0  0  0  0  0
   41.6570   21.2590   37.4640 C   0  0  0  0  0  2  0  0  0  0  0  0
   42.8840   20.8240   36.7590 C   0  0  0  0  0  2  0  0  0  0  0  0
   43.6950   21.9790   36.2170 C   0  0  0  0  0  2  0  0  0  0  0  0
   42.8790   22.8390   35.3130 C   0  0  0  0  0  2  0  0  0  0  0  0
   41.6890   23.3710   36.1190 C   0  0  0  0  0  2  0  0  0  0  0  0
  1  6  1  0  0  0  0
  1 23  1  0  0  0  0
  2  1  2  0  0  0  0
  3  4  2  0  0  0  0
  3  2  1  0  0  0  0
  4  5  1  0  0  0  0
  5  9  1  0  0  0  0
  5  6  2  0  0  0  0
  6 10  1  0  0  0  0
  7  3  1  0  0  0  0
  8  4  1  0  0  0  0
 11 12  1  0  0  0  0
 12 13  2  0  0  0  0
 13  2  1  0  0  0  0
 14 13  1  0  0  0  0
 15 19  1  0  0  0  0
 15 14  2  0  0  0  0
 16 11  2  0  0  0  0
 16 15  1  0  0  0  0
 17 11  1  0  0  0  0
 18 12  1  0  0  0  0
 19 21  1  0  0  0  0
 20 19  1  0  0  0  0
 22 19  1  0  0  0  0
 23 24  2  0  0  0  0
 23 26  1  0  0  0  0
 23 25  2  0  0  0  0
 26 28  1  0  0  0  0
 26 27  1  0  0  0  0
 29 30  1  0  0  0  0
 29 26  1  0  0  0  0
 31 30  1  0  0  0  0
 32 31  1  0  0  0  0
 33 34  1  0  0  0  0
 33 32  1  0  0  0  0
 34 29  1  0  0  0  0
M  END
>  <minimizedAffinity>
-6.11496592

$$$$

 OpenBabel03272510053D

 34 36  0  0  0  0  0  0  0  0999 V2000
   37.8500   25.1000   33.9450 C   0  0  0  0  0  0  0  0  0  0  0  0
   38.1190   25.4460   35.2330 C   0  0  0  0  0  0  0  0  0  0  0  0
   37.8450   26.7360   35.6730 C   0  0  0  0  0  0  0  0  0  0  0  0
   37.3060   27.7000   34.8400 C   0  0  0  0  0  0  0  0  0  0  0  0
   37.0290   27.3860   33.5410 C   0  0  0  0  0  0  0  0  0  0  0  0
   37.3080   26.1100   33.1410 C   0  0  0  0  0  0  0  0  0  0  0  0
   38.0700   26.9850   36.7210 H   0  0  0  0  0  0  0  0  0  0  0  0
   37.1350   28.6630   35.2890 H   0  0  0  0  0  0  0  0  0  0  0  0
   36.6190   28.1690   32.9560 H   0  0  0  0  0  0  0  0  0  0  0  0
   37.0460   25.9840   32.0810 H   0  0  0  0  0  0  0  0  0  0  0  0
   38.6110   23.3380   38.2060 C   0  0  0  0  0  0  0  0  0  0  0  0
   38.0550   24.2180   37.2930 C   0  0  0  0  0  0  0  0  0  0  0  0
   38.7200   24.5310   36.1400 C   0  0  0  0  0  0  0  0  0  0  0  0
   39.9290   23.9380   35.9450 N   0  0  0  0  0  0  0  0  0  0  0  0
   40.4670   23.0830   36.8230 C   0  0  0  0  0  0  0  0  0  0  0  0
   39.8060   22.7930   37.9460 N   0  0  0  0  0  0  0  0  0  0  0  0
   38.2350   22.9890   39.1480 H   0  0  0  0  0  0  0  0  0  0  0  0
   37.1120   24.4680   37.7130 H   0  0  0  0  0  0  0  0  0  0  0  0
   41.7610   22.4590   36.4440 C   0  0  0  0  0  0  0  0  0  0  0  0
   41.7960   22.1080   35.1090 F   0  0  0  0  0  0  0  0  0  0  0  0
   42.7990   23.4670   36.5230 F   0  0  0  0  0  0  0  0  0  0  0  0
   42.2160   21.4960   37.2130 F   0  0  0  0  0  0  0  0  0  0  0  0
   38.1040   23.5280   33.2980 S   0  0  0  0  0  0  0  0  0  0  0  0
   39.2960   23.4980   32.4170 O   0  0  0  0  0  0  0  0  0  0  0  0
   37.0760   23.5820   32.1870 O   0  0  0  0  0  0  0  0  0  0  0  0
   37.3820   22.0790   33.7710 C   0  0  0  0  0  0  0  0  0  0  0  0
   36.8090   22.1470   34.7160 H   0  0  0  0  0  0  0  0  0  0  0  0
   38.2680   21.4350   34.1640 H   0  0  0  0  0  0  0  0  0  0  0  0
   36.8130   21.1820   32.7460 C   0  0  0  0  0  3  0  0  0  0  0  0
   35.6770   20.4430   33.4580 C   0  0  0  0  0  2  0  0  0  0  0  0
   35.1430   19.3190   32.6560 C   0  0  0  0  0  2  0  0  0  0  0  0
   36.2240   18.3980   32.1370 C   0  0  0  0  0  2  0  0  0  0  0  0
   37.2360   19.1450   31.3360 C   0  0  0  0  0  2  0  0  0  0  0  0
   37.8540   20.2150   32.2430 C   0  0  0  0  0  2  0  0  0  0  0  0
  1  2  1  0  0  0  0
  2  3  2  0  0  0  0
  2 13  1  0  0  0  0
  3  7  1  0  0  0  0
  4  8  1  0  0  0  0
  4  3  1  0  0  0  0
  5  4  2  0  0  0  0
  6  5  1  0  0  0  0
  6  1  2  0  0  0  0
  9  5  1  0  0  0  0
 10  6  1  0  0  0  0
 11 17  1  0  0  0  0
 12 18  1  0  0  0  0
 12 11  2  0  0  0  0
 13 12  1  0  0  0  0
 14 13  2  0  0  0  0
 14 15  1  0  0  0  0
 15 16  2  0  0  0  0
 16 11  1  0  0  0  0
 19 21  1  0  0  0  0
 19 15  1  0  0  0  0
 19 22  1  0  0  0  0
 20 19  1  0  0  0  0
 23 26  1  0  0  0  0
 23  1  1  0  0  0  0
 24 23  2  0  0  0  0
 25 23  2  0  0  0  0
 26 28  1  0  0  0  0
 26 27  1  0  0  0  0
 29 30  1  0  0  0  0
 29 26  1  0  0  0  0
 31 30  1  0  0  0  0
 32 31  1  0  0  0  0
 33 32  1  0  0  0  0
 33 34  1  0  0  0  0
 34 29  1  0  0  0  0
M  END
>  <minimizedAffinity>
-6.08150816

$$$$

 OpenBabel03272510053D

 34 36  0  0  0  0  0  0  0  0999 V2000
   37.5330   25.0470   32.2240 C   0  0  0  0  0  0  0  0  0  0  0  0
   36.4220   25.7080   31.8030 C   0  0  0  0  0  0  0  0  0  0  0  0
   35.3760   25.0020   31.2200 C   0  0  0  0  0  0  0  0  0  0  0  0
   35.4200   23.6310   31.0450 C   0  0  0  0  0  0  0  0  0  0  0  0
   36.5220   22.9370   31.4530 C   0  0  0  0  0  0  0  0  0  0  0  0
   37.5320   23.6600   32.0230 C   0  0  0  0  0  0  0  0  0  0  0  0
   34.4890   25.5650   30.8930 H   0  0  0  0  0  0  0  0  0  0  0  0
   34.5530   23.1900   30.5840 H   0  0  0  0  0  0  0  0  0  0  0  0
   36.4940   21.8910   31.2890 H   0  0  0  0  0  0  0  0  0  0  0  0
   38.3580   22.9930   32.3040 H   0  0  0  0  0  0  0  0  0  0  0  0
   36.3870   29.2520   30.8170 C   0  0  0  0  0  0  0  0  0  0  0  0
   36.4740   27.8700   30.7640 C   0  0  0  0  0  0  0  0  0  0  0  0
   36.3170   27.1230   31.8980 C   0  0  0  0  0  0  0  0  0  0  0  0
   36.0700   27.7990   33.0530 N   0  0  0  0  0  0  0  0  0  0  0  0
   35.9810   29.1330   33.1070 C   0  0  0  0  0  0  0  0  0  0  0  0
   36.1430   29.8480   31.9900 N   0  0  0  0  0  0  0  0  0  0  0  0
   36.4870   29.9810   30.0370 H   0  0  0  0  0  0  0  0  0  0  0  0
   36.6320   27.6590   29.7360 H   0  0  0  0  0  0  0  0  0  0  0  0
   35.6390   29.7290   34.4240 C   0  0  0  0  0  0  0  0  0  0  0  0
   36.6000   29.4650   35.3790 F   0  0  0  0  0  0  0  0  0  0  0  0
   35.7090   31.1720   34.3090 F   0  0  0  0  0  0  0  0  0  0  0  0
   34.4260   29.5210   34.8850 F   0  0  0  0  0  0  0  0  0  0  0  0
   38.8700   25.8020   32.9960 S   0  0  0  0  0  0  0  0  0  0  0  0
   39.4470   26.8690   32.1430 O   0  0  0  0  0  0  0  0  0  0  0  0
   39.9190   24.7550   32.6880 O   0  0  0  0  0  0  0  0  0  0  0  0
   39.3480   25.6760   34.6090 C   0  0  0  0  0  0  0  0  0  0  0  0
   39.3770   26.6420   35.1480 H   0  0  0  0  0  0  0  0  0  0  0  0
   40.4940   25.4870   34.5510 H   0  0  0  0  0  0  0  0  0  0  0  0
   38.9090   24.5140   35.4070 C   0  0  0  0  0  3  0  0  0  0  0  0
   38.0930   25.1130   36.5560 C   0  0  0  0  0  2  0  0  0  0  0  0
   37.7730   24.1170   37.6030 C   0  0  0  0  0  2  0  0  0  0  0  0
   38.9830   23.3400   38.0680 C   0  0  0  0  0  2  0  0  0  0  0  0
   39.6670   22.6640   36.9290 C   0  0  0  0  0  2  0  0  0  0  0  0
   40.0950   23.7450   35.9310 C   0  0  0  0  0  2  0  0  0  0  0  0
  1 23  1  0  0  0  0
  2 13  1  0  0  0  0
  2  1  2  0  0  0  0
  3  2  1  0  0  0  0
  4  3  2  0  0  0  0
  4  5  1  0  0  0  0
  5  6  2  0  0  0  0
  6  1  1  0  0  0  0
  6 10  1  0  0  0  0
  7  3  1  0  0  0  0
  8  4  1  0  0  0  0
  9  5  1  0  0  0  0
 11 16  1  0  0  0  0
 12 11  2  0  0  0  0
 12 13  1  0  0  0  0
 13 14  2  0  0  0  0
 14 15  1  0  0  0  0
 15 19  1  0  0  0  0
 16 15  2  0  0  0  0
 17 11  1  0  0  0  0
 18 12  1  0  0  0  0
 19 22  1  0  0  0  0
 19 20  1  0  0  0  0
 21 19  1  0  0  0  0
 23 26  1  0  0  0  0
 24 23  2  0  0  0  0
 25 23  2  0  0  0  0
 26 27  1  0  0  0  0
 26 29  1  0  0  0  0
 28 26  1  0  0  0  0
 29 34  1  0  0  0  0
 29 30  1  0  0  0  0
 30 31  1  0  0  0  0
 31 32  1  0  0  0  0
 33 32  1  0  0  0  0
 34 33  1  0  0  0  0
M  END
>  <minimizedAffinity>
-5.97210598

$$$$

 OpenBabel03272510053D

 34 36  0  0  0  0  0  0  0  0999 V2000
   37.5670   25.0420   33.2490 C   0  0  0  0  0  0  0  0  0  0  0  0
   37.9040   23.7500   33.5070 C   0  0  0  0  0  0  0  0  0  0  0  0
   37.5320   22.7480   32.6170 C   0  0  0  0  0  0  0  0  0  0  0  0
   36.8180   23.0150   31.4640 C   0  0  0  0  0  0  0  0  0  0  0  0
   36.4600   24.3010   31.1770 C   0  0  0  0  0  0  0  0  0  0  0  0
   36.8420   25.2620   32.0710 C   0  0  0  0  0  0  0  0  0  0  0  0
   37.8230   21.7130   32.8520 H   0  0  0  0  0  0  0  0  0  0  0  0
   36.5860   22.1630   30.8490 H   0  0  0  0  0  0  0  0  0  0  0  0
   35.9130   24.4370   30.2810 H   0  0  0  0  0  0  0  0  0  0  0  0
   36.4940   26.2470   31.7330 H   0  0  0  0  0  0  0  0  0  0  0  0
   40.4650   22.3100   35.7190 C   0  0  0  0  0  0  0  0  0  0  0  0
   39.7680   22.6930   34.5850 C   0  0  0  0  0  0  0  0  0  0  0  0
   38.5930   23.3830   34.6950 C   0  0  0  0  0  0  0  0  0  0  0  0
   38.1620   23.6690   35.9530 N   0  0  0  0  0  0  0  0  0  0  0  0
   38.8350   23.3040   37.0510 C   0  0  0  0  0  0  0  0  0  0  0  0
   39.9780   22.6260   36.9240 N   0  0  0  0  0  0  0  0  0  0  0  0
   41.3860   21.7680   35.8140 H   0  0  0  0  0  0  0  0  0  0  0  0
   40.3760   22.3590   33.7800 H   0  0  0  0  0  0  0  0  0  0  0  0
   38.2790   23.7460   38.3560 C   0  0  0  0  0  0  0  0  0  0  0  0
   37.3190   22.8750   38.8320 F   0  0  0  0  0  0  0  0  0  0  0  0
   39.3180   23.6380   39.3600 F   0  0  0  0  0  0  0  0  0  0  0  0
   37.8920   24.9980   38.4550 F   0  0  0  0  0  0  0  0  0  0  0  0
   38.0060   26.3700   34.2480 S   0  0  0  0  0  0  0  0  0  0  0  0
   36.8700   26.7970   35.1000 O   0  0  0  0  0  0  0  0  0  0  0  0
   37.8670   27.4720   33.2190 O   0  0  0  0  0  0  0  0  0  0  0  0
   39.5500   26.9750   34.5550 C   0  0  0  0  0  0  0  0  0  0  0  0
   39.7340   27.2280   35.6170 H   0  0  0  0  0  0  0  0  0  0  0  0
   39.5190   28.0600   34.1330 H   0  0  0  0  0  0  0  0  0  0  0  0
   40.7060   26.4210   33.8230 C   0  0  0  0  0  3  0  0  0  0  0  0
   41.5830   25.7800   34.9030 C   0  0  0  0  0  2  0  0  0  0  0  0
   42.9130   25.3820   34.3900 C   0  0  0  0  0  2  0  0  0  0  0  0
   43.6090   26.4910   33.6320 C   0  0  0  0  0  2  0  0  0  0  0  0
   42.7700   26.9900   32.5070 C   0  0  0  0  0  2  0  0  0  0  0  0
   41.4540   27.5100   33.0970 C   0  0  0  0  0  2  0  0  0  0  0  0
  1  2  1  0  0  0  0
  1 23  1  0  0  0  0
  2 13  1  0  0  0  0
  3  7  1  0  0  0  0
  3  2  2  0  0  0  0
  4  3  1  0  0  0  0
  5  4  2  0  0  0  0
  5  6  1  0  0  0  0
  6  1  2  0  0  0  0
  8  4  1  0  0  0  0
  9  5  1  0  0  0  0
 10  6  1  0  0  0  0
 11 17  1  0  0  0  0
 11 16  1  0  0  0  0
 12 13  1  0  0  0  0
 12 11  2  0  0  0  0
 13 14  2  0  0  0  0
 14 15  1  0  0  0  0
 15 19  1  0  0  0  0
 16 15  2  0  0  0  0
 18 12  1  0  0  0  0
 19 22  1  0  0  0  0
 19 20  1  0  0  0  0
 19 21  1  0  0  0  0
 23 26  1  0  0  0  0
 23 24  2  0  0  0  0
 25 23  2  0  0  0  0
 26 27  1  0  0  0  0
 28 26  1  0  0  0  0
 29 26  1  0  0  0  0
 29 30  1  0  0  0  0
 31 30  1  0  0  0  0
 32 31  1  0  0  0  0
 33 34  1  0  0  0  0
 33 32  1  0  0  0  0
 34 29  1  0  0  0  0
M  END
>  <minimizedAffinity>
-5.94625092

$$$$

 OpenBabel03272510053D

 34 36  0  0  0  0  0  0  0  0999 V2000
   40.0750   24.9230   33.0020 C   0  0  0  0  0  0  0  0  0  0  0  0
   40.4820   25.2290   34.2630 C   0  0  0  0  0  0  0  0  0  0  0  0
   41.1010   26.4490   34.5130 C   0  0  0  0  0  0  0  0  0  0  0  0
   41.3270   27.3780   33.5140 C   0  0  0  0  0  0  0  0  0  0  0  0
   40.9350   27.1010   32.2370 C   0  0  0  0  0  0  0  0  0  0  0  0
   40.3290   25.8950   32.0250 C   0  0  0  0  0  0  0  0  0  0  0  0
   41.4150   26.6690   35.5450 H   0  0  0  0  0  0  0  0  0  0  0  0
   41.8120   28.2880   33.8240 H   0  0  0  0  0  0  0  0  0  0  0  0
   41.1400   27.8530   31.5190 H   0  0  0  0  0  0  0  0  0  0  0  0
   40.0660   25.7890   30.9630 H   0  0  0  0  0  0  0  0  0  0  0  0
   41.2580   22.5440   36.6540 C   0  0  0  0  0  0  0  0  0  0  0  0
   41.3670   23.4610   35.6210 C   0  0  0  0  0  0  0  0  0  0  0  0
   40.3330   24.3090   35.3370 C   0  0  0  0  0  0  0  0  0  0  0  0
   39.2200   24.2060   36.1130 N   0  0  0  0  0  0  0  0  0  0  0  0
   39.1140   23.3250   37.1140 C   0  0  0  0  0  0  0  0  0  0  0  0
   40.1310   22.5010   37.3740 N   0  0  0  0  0  0  0  0  0  0  0  0
   41.9590   21.8130   37.0060 H   0  0  0  0  0  0  0  0  0  0  0  0
   42.3500   23.3150   35.2460 H   0  0  0  0  0  0  0  0  0  0  0  0
   37.8660   23.3750   37.9200 C   0  0  0  0  0  0  0  0  0  0  0  0
   36.8310   22.6890   37.3160 F   0  0  0  0  0  0  0  0  0  0  0  0
   38.0720   22.6120   39.1350 F   0  0  0  0  0  0  0  0  0  0  0  0
   37.4790   24.5500   38.3630 F   0  0  0  0  0  0  0  0  0  0  0  0
   39.2630   23.4690   32.5770 S   0  0  0  0  0  0  0  0  0  0  0  0
   40.2290   22.3840   32.2810 O   0  0  0  0  0  0  0  0  0  0  0  0
   38.9470   23.8090   31.1360 O   0  0  0  0  0  0  0  0  0  0  0  0
   37.6260   23.1020   32.7540 C   0  0  0  0  0  0  0  0  0  0  0  0
   36.9440   23.8790   32.3560 H   0  0  0  0  0  0  0  0  0  0  0  0
   37.4190   23.2680   33.8870 H   0  0  0  0  0  0  0  0  0  0  0  0
   37.1720   21.7080   32.5850 C   0  0  0  0  0  3  0  0  0  0  0  0
   36.3760   21.7110   31.2760 C   0  0  0  0  0  2  0  0  0  0  0  0
   35.6330   20.4490   31.0630 C   0  0  0  0  0  2  0  0  0  0  0  0
   34.8120   20.0370   32.2640 C   0  0  0  0  0  2  0  0  0  0  0  0
   35.6570   19.9180   33.4860 C   0  0  0  0  0  2  0  0  0  0  0  0
   36.3060   21.2820   33.7430 C   0  0  0  0  0  2  0  0  0  0  0  0
  1  2  1  0  0  0  0
  2  3  2  0  0  0  0
  2 13  1  0  0  0  0
  3  7  1  0  0  0  0
  4  8  1  0  0  0  0
  4  3  1  0  0  0  0
  5  4  2  0  0  0  0
  6  5  1  0  0  0  0
  6  1  2  0  0  0  0
  9  5  1  0  0  0  0
 10  6  1  0  0  0  0
 11 17  1  0  0  0  0
 11 16  1  0  0  0  0
 12 11  2  0  0  0  0
 13 12  1  0  0  0  0
 13 14  2  0  0  0  0
 14 15  1  0  0  0  0
 15 16  2  0  0  0  0
 15 19  1  0  0  0  0
 18 12  1  0  0  0  0
 19 22  1  0  0  0  0
 19 21  1  0  0  0  0
 20 19  1  0  0  0  0
 23 26  1  0  0  0  0
 23  1  1  0  0  0  0
 24 23  2  0  0  0  0
 25 23  2  0  0  0  0
 26 28  1  0  0  0  0
 27 26  1  0  0  0  0
 29 26  1  0  0  0  0
 29 34  1  0  0  0  0
 30 29  1  0  0  0  0
 31 30  1  0  0  0  0
 31 32  1  0  0  0  0
 32 33  1  0  0  0  0
 33 34  1  0  0  0  0
M  END
>  <minimizedAffinity>
-5.80276346

$$$$

 OpenBabel03272510053D

 34 36  0  0  0  0  0  0  0  0999 V2000
   36.7420   22.7710   32.3530 C   0  0  0  0  0  0  0  0  0  0  0  0
   37.1340   21.8620   33.2840 C   0  0  0  0  0  0  0  0  0  0  0  0
   36.5400   20.6050   33.3170 C   0  0  0  0  0  0  0  0  0  0  0  0
   35.5470   20.2370   32.4280 C   0  0  0  0  0  0  0  0  0  0  0  0
   35.1270   21.1270   31.4830 C   0  0  0  0  0  0  0  0  0  0  0  0
   35.7310   22.3530   31.4780 C   0  0  0  0  0  0  0  0  0  0  0  0
   36.8820   19.8890   34.0790 H   0  0  0  0  0  0  0  0  0  0  0  0
   35.1610   19.2390   32.5450 H   0  0  0  0  0  0  0  0  0  0  0  0
   34.3620   20.7850   30.8350 H   0  0  0  0  0  0  0  0  0  0  0  0
   35.3060   22.9770   30.6800 H   0  0  0  0  0  0  0  0  0  0  0  0
   40.4100   22.2160   34.9190 C   0  0  0  0  0  0  0  0  0  0  0  0
   39.4270   21.9310   33.9850 C   0  0  0  0  0  0  0  0  0  0  0  0
   38.1130   22.1760   34.2670 C   0  0  0  0  0  0  0  0  0  0  0  0
   37.8330   22.7090   35.4870 N   0  0  0  0  0  0  0  0  0  0  0  0
   38.7800   22.9900   36.3900 C   0  0  0  0  0  0  0  0  0  0  0  0
   40.0590   22.7390   36.1000 N   0  0  0  0  0  0  0  0  0  0  0  0
   41.4730   22.0850   34.8660 H   0  0  0  0  0  0  0  0  0  0  0  0
   39.9660   21.5700   33.1430 H   0  0  0  0  0  0  0  0  0  0  0  0
   38.3320   23.6330   37.6530 C   0  0  0  0  0  0  0  0  0  0  0  0
   37.2490   22.9830   38.2100 F   0  0  0  0  0  0  0  0  0  0  0  0
   39.3580   23.4400   38.6570 F   0  0  0  0  0  0  0  0  0  0  0  0
   38.1640   24.9360   37.6400 F   0  0  0  0  0  0  0  0  0  0  0  0
   37.4290   24.3380   32.1870 S   0  0  0  0  0  0  0  0  0  0  0  0
   36.4770   25.3890   32.6180 O   0  0  0  0  0  0  0  0  0  0  0  0
   37.2100   24.5140   30.6990 O   0  0  0  0  0  0  0  0  0  0  0  0
   39.0430   24.7410   31.9050 C   0  0  0  0  0  0  0  0  0  0  0  0
   39.3870   24.5300   30.8740 H   0  0  0  0  0  0  0  0  0  0  0  0
   39.6430   23.9080   32.4520 H   0  0  0  0  0  0  0  0  0  0  0  0
   39.6080   25.9530   32.5290 C   0  0  0  0  0  3  0  0  0  0  0  0
   40.9510   26.1680   31.8250 C   0  0  0  0  0  2  0  0  0  0  0  0
   41.7790   27.2000   32.4870 C   0  0  0  0  0  2  0  0  0  0  0  0
   41.9110   26.9840   33.9780 C   0  0  0  0  0  2  0  0  0  0  0  0
   40.5760   26.9160   34.6390 C   0  0  0  0  0  2  0  0  0  0  0  0
   39.8010   25.7530   34.0110 C   0  0  0  0  0  2  0  0  0  0  0  0
  1  2  1  0  0  0  0
  2  3  2  0  0  0  0
  2 13  1  0  0  0  0
  3  7  1  0  0  0  0
  4  8  1  0  0  0  0
  4  3  1  0  0  0  0
  5  4  2  0  0  0  0
  6  5  1  0  0  0  0
  6  1  2  0  0  0  0
  9  5  1  0  0  0  0
 10  6  1  0  0  0  0
 11 16  1  0  0  0  0
 12 13  1  0  0  0  0
 12 11  2  0  0  0  0
 13 14  2  0  0  0  0
 14 15  1  0  0  0  0
 15 19  1  0  0  0  0
 16 15  2  0  0  0  0
 17 11  1  0  0  0  0
 18 12  1  0  0  0  0
 19 20  1  0  0  0  0
 19 21  1  0  0  0  0
 22 19  1  0  0  0  0
 23  1  1  0  0  0  0
 23 24  2  0  0  0  0
 25 23  2  0  0  0  0
 26 23  1  0  0  0  0
 26 28  1  0  0  0  0
 26 29  1  0  0  0  0
 27 26  1  0  0  0  0
 29 34  1  0  0  0  0
 30 31  1  0  0  0  0
 30 29  1  0  0  0  0
 31 32  1  0  0  0  0
 32 33  1  0  0  0  0
 34 33  1  0  0  0  0
M  END
>  <minimizedAffinity>
-5.79522371

$$$$

 OpenBabel03272510053D

 34 36  0  0  0  0  0  0  0  0999 V2000
   37.4170   25.5310   33.2660 C   0  0  0  0  0  0  0  0  0  0  0  0
   37.9000   25.5140   34.5370 C   0  0  0  0  0  0  0  0  0  0  0  0
   37.7730   26.6430   35.3390 C   0  0  0  0  0  0  0  0  0  0  0  0
   37.1690   27.8020   34.8890 C   0  0  0  0  0  0  0  0  0  0  0  0
   36.6770   27.8530   33.6170 C   0  0  0  0  0  0  0  0  0  0  0  0
   36.8170   26.7280   32.8550 C   0  0  0  0  0  0  0  0  0  0  0  0
   38.1700   26.5970   36.3650 H   0  0  0  0  0  0  0  0  0  0  0  0
   37.1250   28.6120   35.5970 H   0  0  0  0  0  0  0  0  0  0  0  0
   36.2280   28.7710   33.3340 H   0  0  0  0  0  0  0  0  0  0  0  0
   36.3880   26.8950   31.8580 H   0  0  0  0  0  0  0  0  0  0  0  0
   38.4700   22.1720   35.9630 C   0  0  0  0  0  0  0  0  0  0  0  0
   37.8450   23.2930   35.4400 C   0  0  0  0  0  0  0  0  0  0  0  0
   38.5800   24.3810   35.0610 C   0  0  0  0  0  0  0  0  0  0  0  0
   39.9290   24.2990   35.2170 N   0  0  0  0  0  0  0  0  0  0  0  0
   40.5360   23.2160   35.7170 C   0  0  0  0  0  0  0  0  0  0  0  0
   39.8020   22.1650   36.0880 N   0  0  0  0  0  0  0  0  0  0  0  0
   38.0530   21.2470   36.3100 H   0  0  0  0  0  0  0  0  0  0  0  0
   36.8170   23.0290   35.4140 H   0  0  0  0  0  0  0  0  0  0  0  0
   42.0210   23.2430   35.7650 C   0  0  0  0  0  0  0  0  0  0  0  0
   42.5320   22.2390   36.5640 F   0  0  0  0  0  0  0  0  0  0  0  0
   42.5310   22.8840   34.4580 F   0  0  0  0  0  0  0  0  0  0  0  0
   42.5970   24.3980   36.0080 F   0  0  0  0  0  0  0  0  0  0  0  0
   37.4760   24.1880   32.1950 S   0  0  0  0  0  0  0  0  0  0  0  0
   38.8710   23.8840   31.7950 O   0  0  0  0  0  0  0  0  0  0  0  0
   37.0890   24.9070   30.9210 O   0  0  0  0  0  0  0  0  0  0  0  0
   36.2490   23.0860   31.8390 C   0  0  0  0  0  0  0  0  0  0  0  0
   35.6990   23.3110   30.9040 H   0  0  0  0  0  0  0  0  0  0  0  0
   35.4030   23.3500   32.5930 H   0  0  0  0  0  0  0  0  0  0  0  0
   36.4520   21.6540   32.1300 C   0  0  0  0  0  3  0  0  0  0  0  0
   36.0990   20.9340   30.8250 C   0  0  0  0  0  2  0  0  0  0  0  0
   36.0080   19.4670   30.9940 C   0  0  0  0  0  2  0  0  0  0  0  0
   35.1330   19.0600   32.1580 C   0  0  0  0  0  2  0  0  0  0  0  0
   35.5980   19.6810   33.4310 C   0  0  0  0  0  2  0  0  0  0  0  0
   35.5550   21.2030   33.2540 C   0  0  0  0  0  2  0  0  0  0  0  0
  1  2  1  0  0  0  0
  2 13  1  0  0  0  0
  2  3  2  0  0  0  0
  3  7  1  0  0  0  0
  4  3  1  0  0  0  0
  4  8  1  0  0  0  0
  5  4  2  0  0  0  0
  6  1  2  0  0  0  0
  6  5  1  0  0  0  0
  9  5  1  0  0  0  0
 10  6  1  0  0  0  0
 11 16  1  0  0  0  0
 11 17  1  0  0  0  0
 12 11  2  0  0  0  0
 13 14  2  0  0  0  0
 13 12  1  0  0  0  0
 14 15  1  0  0  0  0
 15 19  1  0  0  0  0
 15 16  2  0  0  0  0
 18 12  1  0  0  0  0
 19 22  1  0  0  0  0
 19 20  1  0  0  0  0
 21 19  1  0  0  0  0
 23  1  1  0  0  0  0
 24 23  2  0  0  0  0
 25 23  2  0  0  0  0
 26 29  1  0  0  0  0
 26 23  1  0  0  0  0
 26 28  1  0  0  0  0
 27 26  1  0  0  0  0
 29 34  1  0  0  0  0
 30 31  1  0  0  0  0
 30 29  1  0  0  0  0
 31 32  1  0  0  0  0
 32 33  1  0  0  0  0
 34 33  1  0  0  0  0
M  END
>  <minimizedAffinity>
-5.78762341

$$$$

 OpenBabel03272510053D

 34 36  0  0  0  0  0  0  0  0999 V2000
   37.9860   25.7220   33.7660 C   0  0  0  0  0  0  0  0  0  0  0  0
   38.8500   26.0330   34.7700 C   0  0  0  0  0  0  0  0  0  0  0  0
   38.6440   27.1790   35.5300 C   0  0  0  0  0  0  0  0  0  0  0  0
   37.5810   28.0330   35.3010 C   0  0  0  0  0  0  0  0  0  0  0  0
   36.6980   27.7530   34.2990 C   0  0  0  0  0  0  0  0  0  0  0  0
   36.9280   26.6190   33.5720 C   0  0  0  0  0  0  0  0  0  0  0  0
   39.3580   27.4010   36.3370 H   0  0  0  0  0  0  0  0  0  0  0  0
   37.5200   28.8880   35.9520 H   0  0  0  0  0  0  0  0  0  0  0  0
   35.9070   28.4470   34.1750 H   0  0  0  0  0  0  0  0  0  0  0  0
   36.1550   26.5070   32.7980 H   0  0  0  0  0  0  0  0  0  0  0  0
   42.3520   24.9060   34.8050 C   0  0  0  0  0  0  0  0  0  0  0  0
   41.2110   25.6580   34.5720 C   0  0  0  0  0  0  0  0  0  0  0  0
   39.9970   25.2360   35.0380 C   0  0  0  0  0  0  0  0  0  0  0  0
   39.9750   24.0660   35.7320 N   0  0  0  0  0  0  0  0  0  0  0  0
   41.0760   23.3400   35.9630 C   0  0  0  0  0  0  0  0  0  0  0  0
   42.2520   23.7640   35.4950 N   0  0  0  0  0  0  0  0  0  0  0  0
   43.3680   25.0830   34.5130 H   0  0  0  0  0  0  0  0  0  0  0  0
   41.5650   26.5120   34.0490 H   0  0  0  0  0  0  0  0  0  0  0  0
   40.9110   22.1200   36.7950 C   0  0  0  0  0  0  0  0  0  0  0  0
   42.0670   21.3670   36.8460 F   0  0  0  0  0  0  0  0  0  0  0  0
   40.7440   22.5230   38.1760 F   0  0  0  0  0  0  0  0  0  0  0  0
   39.8540   21.3730   36.5680 F   0  0  0  0  0  0  0  0  0  0  0  0
   38.1110   24.3150   32.7880 S   0  0  0  0  0  0  0  0  0  0  0  0
   39.0510   24.5280   31.6620 O   0  0  0  0  0  0  0  0  0  0  0  0
   36.8420   24.4950   31.9830 O   0  0  0  0  0  0  0  0  0  0  0  0
   37.5630   22.7570   33.1320 C   0  0  0  0  0  0  0  0  0  0  0  0
   37.3160   22.5900   34.1990 H   0  0  0  0  0  0  0  0  0  0  0  0
   38.5230   22.1010   33.0830 H   0  0  0  0  0  0  0  0  0  0  0  0
   36.6940   22.0620   32.1620 C   0  0  0  0  0  3  0  0  0  0  0  0
   35.6670   21.3160   33.0190 C   0  0  0  0  0  2  0  0  0  0  0  0
   34.8570   20.3630   32.2280 C   0  0  0  0  0  2  0  0  0  0  0  0
   35.6960   19.4470   31.3660 C   0  0  0  0  0  2  0  0  0  0  0  0
   36.5840   20.2220   30.4540 C   0  0  0  0  0  2  0  0  0  0  0  0
   37.4940   21.1010   31.3190 C   0  0  0  0  0  2  0  0  0  0  0  0
  1  2  1  0  0  0  0
  2 13  1  0  0  0  0
  2  3  2  0  0  0  0
  3  7  1  0  0  0  0
  4  3  1  0  0  0  0
  4  8  1  0  0  0  0
  5  4  2  0  0  0  0
  6  1  2  0  0  0  0
  6  5  1  0  0  0  0
  9  5  1  0  0  0  0
 10  6  1  0  0  0  0
 11 16  1  0  0  0  0
 12 11  2  0  0  0  0
 12 13  1  0  0  0  0
 13 14  2  0  0  0  0
 14 15  1  0  0  0  0
 15 19  1  0  0  0  0
 16 15  2  0  0  0  0
 17 11  1  0  0  0  0
 18 12  1  0  0  0  0
 19 20  1  0  0  0  0
 19 21  1  0  0  0  0
 22 19  1  0  0  0  0
 23 26  1  0  0  0  0
 23  1  1  0  0  0  0
 24 23  2  0  0  0  0
 25 23  2  0  0  0  0
 26 27  1  0  0  0  0
 28 26  1  0  0  0  0
 29 30  1  0  0  0  0
 29 26  1  0  0  0  0
 31 30  1  0  0  0  0
 32 31  1  0  0  0  0
 33 34  1  0  0  0  0
 33 32  1  0  0  0  0
 34 29  1  0  0  0  0
M  END
>  <minimizedAffinity>
-5.75700426

$$$$
