
 OpenBabel03262521363D

 34 37  0  0  1  0  0  0  0  0999 V2000
   39.6930   26.0440   32.4370 C   0  0  1  0  0  0  0  0  0  0  0  0
   39.9140   27.0440   33.4730 C   0  0  2  0  0  0  0  0  0  0  0  0
   41.3760   27.4800   33.2060 C   0  0  0  0  0  0  0  0  0  0  0  0
   41.9700   26.3030   32.8770 O   0  0  0  0  0  0  0  0  0  0  0  0
   41.1070   25.4970   32.1770 C   0  0  0  0  0  0  0  0  0  0  0  0
   39.3080   26.4990   31.4980 H   0  0  0  0  0  0  0  0  0  0  0  0
   39.3140   27.9630   33.3120 H   0  0  0  0  0  0  0  0  0  0  0  0
   41.4010   28.2610   32.4270 H   0  0  0  0  0  0  0  0  0  0  0  0
   41.7620   27.8350   34.1840 H   0  0  0  0  0  0  0  0  0  0  0  0
   41.1680   24.4330   32.4680 H   0  0  0  0  0  0  0  0  0  0  0  0
   41.3180   25.6270   31.0970 H   0  0  0  0  0  0  0  0  0  0  0  0
   38.5020   25.9600   35.3780 C   0  0  1  0  0  0  0  0  0  0  0  0
   38.7790   27.3300   35.7250 C   0  0  0  0  0  0  0  0  0  0  0  0
   39.8310   26.5530   34.9070 C   0  0  2  0  0  0  0  0  0  0  0  0
   37.7780   25.7140   34.5640 H   0  0  0  0  0  0  0  0  0  0  0  0
   38.3020   28.2070   35.2870 H   0  0  0  0  0  0  0  0  0  0  0  0
   39.1000   27.5140   36.7930 H   0  0  0  0  0  0  0  0  0  0  0  0
   40.7630   26.2780   35.4010 H   0  0  0  0  0  0  0  0  0  0  0  0
   38.1020   23.7490   38.3880 C   0  0  0  0  0  0  0  0  0  0  0  0
   37.9100   24.7960   37.4810 C   0  0  0  0  0  0  0  0  0  0  0  0
   38.6770   24.8560   36.3300 C   0  0  0  0  0  0  0  0  0  0  0  0
   39.6030   23.8530   36.1500 N   0  0  0  0  0  0  0  0  0  0  0  0
   39.7800   22.8470   37.0310 C   0  0  0  0  0  0  0  0  0  0  0  0
   39.0250   22.7910   38.1610 N   0  0  0  0  0  0  0  0  0  0  0  0
   37.5170   23.6700   39.3010 H   0  0  0  0  0  0  0  0  0  0  0  0
   37.1650   25.5000   37.7460 H   0  0  0  0  0  0  0  0  0  0  0  0
   40.5350   22.0880   36.8190 H   0  0  0  0  0  0  0  0  0  0  0  0
   38.8390   24.9880   32.8000 O   0  0  0  0  0  0  0  0  0  0  0  0
   37.7980   24.8870   31.8820 C   0  0  0  0  0  3  0  0  0  0  0  0
   36.8520   26.0340   32.0580 C   0  0  0  0  0  2  0  0  0  0  0  0
   35.7790   26.0270   30.9670 C   0  0  0  0  0  2  0  0  0  0  0  0
   34.9360   24.7660   31.2080 C   0  0  0  0  0  2  0  0  0  0  0  0
   35.8590   23.5960   31.0680 C   0  0  0  0  0  2  0  0  0  0  0  0
   37.0120   23.6010   32.0480 C   0  0  0  0  0  2  0  0  0  0  0  0
  1  6  1  6  0  0  0
  1 28  1  0  0  0  0
  1  2  1  0  0  0  0
  2  7  1  6  0  0  0
  2 14  1  0  0  0  0
  3  2  1  0  0  0  0
  3  9  1  0  0  0  0
  4  3  1  0  0  0  0
  5  1  1  0  0  0  0
  5 10  1  0  0  0  0
  5  4  1  0  0  0  0
  8  3  1  0  0  0  0
 11  5  1  0  0  0  0
 12 15  1  6  0  0  0
 12 13  1  0  0  0  0
 12 21  1  0  0  0  0
 13 17  1  0  0  0  0
 14 12  1  0  0  0  0
 14 18  1  1  0  0  0
 14 13  1  0  0  0  0
 16 13  1  0  0  0  0
 19 25  1  0  0  0  0
 20 26  1  0  0  0  0
 20 19  2  0  0  0  0
 21 20  1  0  0  0  0
 22 21  2  0  0  0  0
 22 23  1  0  0  0  0
 23 24  2  0  0  0  0
 24 19  1  0  0  0  0
 27 23  1  0  0  0  0
 29 34  1  0  0  0  0
 29 30  1  0  0  0  0
 29 28  1  0  0  0  0
 31 32  1  0  0  0  0
 31 30  1  0  0  0  0
 33 32  1  0  0  0  0
 33 34  1  0  0  0  0
M  END
>  <minimizedAffinity>
-5.25179195

$$$$

 OpenBabel03262521363D

 34 37  0  0  1  0  0  0  0  0999 V2000
   38.5640   23.3170   34.9220 C   0  0  1  0  0  0  0  0  0  0  0  0
   38.7600   24.4620   35.8010 C   0  0  2  0  0  0  0  0  0  0  0  0
   38.4510   23.8660   37.1970 C   0  0  0  0  0  0  0  0  0  0  0  0
   37.4070   23.0380   36.9290 O   0  0  0  0  0  0  0  0  0  0  0  0
   37.5420   22.4620   35.6910 C   0  0  0  0  0  0  0  0  0  0  0  0
   39.4990   22.7280   34.7960 H   0  0  0  0  0  0  0  0  0  0  0  0
   39.8220   24.7770   35.8590 H   0  0  0  0  0  0  0  0  0  0  0  0
   39.3530   23.3800   37.6070 H   0  0  0  0  0  0  0  0  0  0  0  0
   38.1050   24.7200   37.8130 H   0  0  0  0  0  0  0  0  0  0  0  0
   36.5920   22.4000   35.1300 H   0  0  0  0  0  0  0  0  0  0  0  0
   37.9890   21.4580   35.8290 H   0  0  0  0  0  0  0  0  0  0  0  0
   38.3040   26.7610   34.6590 C   0  0  1  0  0  0  0  0  0  0  0  0
   38.4440   26.9650   36.0780 C   0  0  0  0  0  0  0  0  0  0  0  0
   37.8270   25.6400   35.5830 C   0  0  2  0  0  0  0  0  0  0  0  0
   39.1920   26.5110   34.0290 H   0  0  0  0  0  0  0  0  0  0  0  0
   39.3810   26.9440   36.6350 H   0  0  0  0  0  0  0  0  0  0  0  0
   37.6850   27.6540   36.5550 H   0  0  0  0  0  0  0  0  0  0  0  0
   36.7620   25.4780   35.7500 H   0  0  0  0  0  0  0  0  0  0  0  0
   35.9090   27.5090   31.8640 C   0  0  0  0  0  0  0  0  0  0  0  0
   36.9390   26.9140   32.6000 C   0  0  0  0  0  0  0  0  0  0  0  0
   37.2120   27.3610   33.8810 C   0  0  0  0  0  0  0  0  0  0  0  0
   36.4300   28.3880   34.3580 N   0  0  0  0  0  0  0  0  0  0  0  0
   35.4390   28.9550   33.6410 C   0  0  0  0  0  0  0  0  0  0  0  0
   35.1730   28.5140   32.3810 N   0  0  0  0  0  0  0  0  0  0  0  0
   35.6670   27.1830   30.8550 H   0  0  0  0  0  0  0  0  0  0  0  0
   37.4620   26.1360   32.1090 H   0  0  0  0  0  0  0  0  0  0  0  0
   34.8620   29.7660   34.0870 H   0  0  0  0  0  0  0  0  0  0  0  0
   38.0580   23.6240   33.6480 O   0  0  0  0  0  0  0  0  0  0  0  0
   37.4310   22.5040   33.1080 C   0  0  0  0  0  3  0  0  0  0  0  0
   38.4360   21.6590   32.3850 C   0  0  0  0  0  2  0  0  0  0  0  0
   37.8020   20.3510   31.9080 C   0  0  0  0  0  2  0  0  0  0  0  0
   36.7640   20.7430   30.8460 C   0  0  0  0  0  2  0  0  0  0  0  0
   35.7570   21.6150   31.5280 C   0  0  0  0  0  2  0  0  0  0  0  0
   36.3390   22.8780   32.1240 C   0  0  0  0  0  2  0  0  0  0  0  0
  1  6  1  6  0  0  0
  1  5  1  0  0  0  0
  1  2  1  0  0  0  0
  2  7  1  6  0  0  0
  2  3  1  0  0  0  0
  3  8  1  0  0  0  0
  3  9  1  0  0  0  0
  4  3  1  0  0  0  0
  5 11  1  0  0  0  0
  5  4  1  0  0  0  0
 10  5  1  0  0  0  0
 12 15  1  6  0  0  0
 12 14  1  0  0  0  0
 12 13  1  0  0  0  0
 13 17  1  0  0  0  0
 13 16  1  0  0  0  0
 14 18  1  1  0  0  0
 14  2  1  0  0  0  0
 14 13  1  0  0  0  0
 19 24  2  0  0  0  0
 19 20  1  0  0  0  0
 20 21  2  0  0  0  0
 21 22  1  0  0  0  0
 21 12  1  0  0  0  0
 23 27  1  0  0  0  0
 23 22  2  0  0  0  0
 24 23  1  0  0  0  0
 25 19  1  0  0  0  0
 26 20  1  0  0  0  0
 28  1  1  0  0  0  0
 29 28  1  0  0  0  0
 30 29  1  0  0  0  0
 31 30  1  0  0  0  0
 32 33  1  0  0  0  0
 32 31  1  0  0  0  0
 33 34  1  0  0  0  0
 34 29  1  0  0  0  0
M  END
>  <minimizedAffinity>
-5.12122917

$$$$

 OpenBabel03262521363D

 34 37  0  0  1  0  0  0  0  0999 V2000
   37.3190   24.5530   32.0080 C   0  0  1  0  0  0  0  0  0  0  0  0
   37.2550   25.6170   33.0000 C   0  0  2  0  0  0  0  0  0  0  0  0
   37.6370   26.8680   32.1710 C   0  0  0  0  0  0  0  0  0  0  0  0
   38.6110   26.3840   31.3560 O   0  0  0  0  0  0  0  0  0  0  0  0
   38.3500   25.0850   30.9960 C   0  0  0  0  0  0  0  0  0  0  0  0
   36.3470   24.4140   31.4860 H   0  0  0  0  0  0  0  0  0  0  0  0
   36.2190   25.8160   33.3450 H   0  0  0  0  0  0  0  0  0  0  0  0
   36.7460   27.2710   31.6610 H   0  0  0  0  0  0  0  0  0  0  0  0
   38.0770   27.5820   32.8970 H   0  0  0  0  0  0  0  0  0  0  0  0
   39.2490   24.4430   30.9890 H   0  0  0  0  0  0  0  0  0  0  0  0
   37.8610   25.0970   30.0030 H   0  0  0  0  0  0  0  0  0  0  0  0
   37.6860   25.0270   35.5030 C   0  0  1  0  0  0  0  0  0  0  0  0
   37.8460   26.4470   35.3250 C   0  0  0  0  0  0  0  0  0  0  0  0
   38.2300   25.5120   34.1590 C   0  0  2  0  0  0  0  0  0  0  0  0
   36.6720   24.5590   35.4620 H   0  0  0  0  0  0  0  0  0  0  0  0
   37.0390   27.1680   35.1890 H   0  0  0  0  0  0  0  0  0  0  0  0
   38.7440   26.9100   35.8320 H   0  0  0  0  0  0  0  0  0  0  0  0
   39.2880   25.4000   33.9190 H   0  0  0  0  0  0  0  0  0  0  0  0
   40.7120   22.9720   36.3530 C   0  0  0  0  0  0  0  0  0  0  0  0
   39.8110   23.7640   35.6360 C   0  0  0  0  0  0  0  0  0  0  0  0
   38.6540   24.2120   36.2490 C   0  0  0  0  0  0  0  0  0  0  0  0
   38.4630   23.8390   37.5600 N   0  0  0  0  0  0  0  0  0  0  0  0
   39.3390   23.0750   38.2430 C   0  0  0  0  0  0  0  0  0  0  0  0
   40.4760   22.6350   37.6380 N   0  0  0  0  0  0  0  0  0  0  0  0
   41.6310   22.6030   35.9030 H   0  0  0  0  0  0  0  0  0  0  0  0
   40.0810   23.9730   34.6340 H   0  0  0  0  0  0  0  0  0  0  0  0
   39.1190   22.8200   39.2810 H   0  0  0  0  0  0  0  0  0  0  0  0
   37.7410   23.3050   32.4980 O   0  0  0  0  0  0  0  0  0  0  0  0
   36.6370   22.4860   32.7140 C   0  0  0  0  0  3  0  0  0  0  0  0
   36.9500   21.4830   33.7820 C   0  0  0  0  0  2  0  0  0  0  0  0
   35.7080   20.6660   34.1410 C   0  0  0  0  0  2  0  0  0  0  0  0
   35.3680   19.8370   32.8940 C   0  0  0  0  0  2  0  0  0  0  0  0
   35.0770   20.8090   31.7940 C   0  0  0  0  0  2  0  0  0  0  0  0
   36.2330   21.7290   31.4640 C   0  0  0  0  0  2  0  0  0  0  0  0
  1  6  1  6  0  0  0
  1 28  1  0  0  0  0
  1  2  1  0  0  0  0
  2  7  1  1  0  0  0
  2 14  1  0  0  0  0
  3  9  1  0  0  0  0
  3  2  1  0  0  0  0
  4  3  1  0  0  0  0
  5  4  1  0  0  0  0
  5  1  1  0  0  0  0
  8  3  1  0  0  0  0
 10  5  1  0  0  0  0
 11  5  1  0  0  0  0
 12 15  1  6  0  0  0
 12 21  1  0  0  0  0
 13 12  1  0  0  0  0
 13 17  1  0  0  0  0
 14 18  1  6  0  0  0
 14 13  1  0  0  0  0
 14 12  1  0  0  0  0
 16 13  1  0  0  0  0
 19 24  1  0  0  0  0
 20 21  1  0  0  0  0
 20 19  2  0  0  0  0
 21 22  2  0  0  0  0
 22 23  1  0  0  0  0
 23 27  1  0  0  0  0
 24 23  2  0  0  0  0
 25 19  1  0  0  0  0
 26 20  1  0  0  0  0
 28 29  1  0  0  0  0
 29 30  1  0  0  0  0
 30 31  1  0  0  0  0
 32 31  1  0  0  0  0
 33 32  1  0  0  0  0
 34 33  1  0  0  0  0
 34 29  1  0  0  0  0
M  END
>  <minimizedAffinity>
-5.12014818

$$$$

 OpenBabel03262521363D

 34 37  0  0  1  0  0  0  0  0999 V2000
   39.6860   23.5930   36.0270 C   0  0  1  0  0  0  0  0  0  0  0  0
   38.8760   24.7050   36.5050 C   0  0  2  0  0  0  0  0  0  0  0  0
   37.6930   23.9810   37.1950 C   0  0  0  0  0  0  0  0  0  0  0  0
   37.4730   22.9330   36.3590 O   0  0  0  0  0  0  0  0  0  0  0  0
   38.6520   22.4710   35.8290 C   0  0  0  0  0  0  0  0  0  0  0  0
   40.4270   23.2640   36.7890 H   0  0  0  0  0  0  0  0  0  0  0  0
   39.3700   25.2730   37.3190 H   0  0  0  0  0  0  0  0  0  0  0  0
   37.9650   23.7170   38.2310 H   0  0  0  0  0  0  0  0  0  0  0  0
   36.8410   24.6890   37.1420 H   0  0  0  0  0  0  0  0  0  0  0  0
   38.5760   22.2020   34.7610 H   0  0  0  0  0  0  0  0  0  0  0  0
   38.9830   21.6060   36.4360 H   0  0  0  0  0  0  0  0  0  0  0  0
   39.1590   26.7990   34.9780 C   0  0  1  0  0  0  0  0  0  0  0  0
   38.1310   27.0670   35.9500 C   0  0  0  0  0  0  0  0  0  0  0  0
   38.3010   25.6210   35.4400 C   0  0  2  0  0  0  0  0  0  0  0  0
   40.2330   26.7520   35.2840 H   0  0  0  0  0  0  0  0  0  0  0  0
   38.2930   27.2840   37.0060 H   0  0  0  0  0  0  0  0  0  0  0  0
   37.1970   27.5670   35.5550 H   0  0  0  0  0  0  0  0  0  0  0  0
   37.5270   25.2140   34.7880 H   0  0  0  0  0  0  0  0  0  0  0  0
   39.9000   27.3260   31.3340 C   0  0  0  0  0  0  0  0  0  0  0  0
   40.0710   27.0150   32.6860 C   0  0  0  0  0  0  0  0  0  0  0  0
   38.9930   27.1010   33.5510 C   0  0  0  0  0  0  0  0  0  0  0  0
   37.7920   27.4960   33.0050 N   0  0  0  0  0  0  0  0  0  0  0  0
   37.6380   27.7920   31.6990 C   0  0  0  0  0  0  0  0  0  0  0  0
   38.7000   27.7080   30.8520 N   0  0  0  0  0  0  0  0  0  0  0  0
   40.7250   27.2690   30.6270 H   0  0  0  0  0  0  0  0  0  0  0  0
   41.0480   26.7280   32.9710 H   0  0  0  0  0  0  0  0  0  0  0  0
   36.6540   28.0990   31.3400 H   0  0  0  0  0  0  0  0  0  0  0  0
   40.3650   23.8260   34.8190 O   0  0  0  0  0  0  0  0  0  0  0  0
   41.7390   23.8200   35.0420 C   0  0  0  0  0  3  0  0  0  0  0  0
   42.0410   23.1210   36.3320 C   0  0  0  0  0  2  0  0  0  0  0  0
   43.5510   22.9720   36.5290 C   0  0  0  0  0  2  0  0  0  0  0  0
   44.1010   24.3960   36.7010 C   0  0  0  0  0  2  0  0  0  0  0  0
   43.7900   25.1350   35.4370 C   0  0  0  0  0  2  0  0  0  0  0  0
   42.3120   25.2220   35.1230 C   0  0  0  0  0  2  0  0  0  0  0  0
  1  2  1  0  0  0  0
  1  6  1  1  0  0  0
  2  3  1  0  0  0  0
  2  7  1  1  0  0  0
  3  8  1  0  0  0  0
  4  3  1  0  0  0  0
  5  1  1  0  0  0  0
  5  4  1  0  0  0  0
  5 11  1  0  0  0  0
  9  3  1  0  0  0  0
 10  5  1  0  0  0  0
 12 15  1  1  0  0  0
 12 14  1  0  0  0  0
 12 13  1  0  0  0  0
 13 16  1  0  0  0  0
 14 18  1  6  0  0  0
 14 13  1  0  0  0  0
 14  2  1  0  0  0  0
 17 13  1  0  0  0  0
 19 20  1  0  0  0  0
 20 26  1  0  0  0  0
 20 21  2  0  0  0  0
 21 12  1  0  0  0  0
 22 21  1  0  0  0  0
 23 22  2  0  0  0  0
 24 19  2  0  0  0  0
 24 23  1  0  0  0  0
 25 19  1  0  0  0  0
 27 23  1  0  0  0  0
 28 29  1  0  0  0  0
 28  1  1  0  0  0  0
 29 34  1  0  0  0  0
 29 30  1  0  0  0  0
 30 31  1  0  0  0  0
 31 32  1  0  0  0  0
 33 32  1  0  0  0  0
 34 33  1  0  0  0  0
M  END
>  <minimizedAffinity>
-5.08313942

$$$$

 OpenBabel03262521363D

 34 37  0  0  1  0  0  0  0  0999 V2000
   37.3550   25.3380   32.2840 C   0  0  1  0  0  0  0  0  0  0  0  0
   37.6380   26.4570   33.1710 C   0  0  2  0  0  0  0  0  0  0  0  0
   38.4940   27.3850   32.2730 C   0  0  0  0  0  0  0  0  0  0  0  0
   39.2600   26.4950   31.5910 O   0  0  0  0  0  0  0  0  0  0  0  0
   38.5580   25.3460   31.3230 C   0  0  0  0  0  0  0  0  0  0  0  0
   36.4270   25.5020   31.6930 H   0  0  0  0  0  0  0  0  0  0  0  0
   36.7320   27.0530   33.4060 H   0  0  0  0  0  0  0  0  0  0  0  0
   37.8380   28.0230   31.6560 H   0  0  0  0  0  0  0  0  0  0  0  0
   39.1280   27.9690   32.9710 H   0  0  0  0  0  0  0  0  0  0  0  0
   39.1570   24.4270   31.4490 H   0  0  0  0  0  0  0  0  0  0  0  0
   38.1570   25.4230   30.2940 H   0  0  0  0  0  0  0  0  0  0  0  0
   37.6840   25.7330   35.6750 C   0  0  1  0  0  0  0  0  0  0  0  0
   38.1270   27.1000   35.5780 C   0  0  0  0  0  0  0  0  0  0  0  0
   38.4480   26.1380   34.4140 C   0  0  2  0  0  0  0  0  0  0  0  0
   36.6100   25.4690   35.5140 H   0  0  0  0  0  0  0  0  0  0  0  0
   37.4890   27.9650   35.3960 H   0  0  0  0  0  0  0  0  0  0  0  0
   39.0370   27.3690   36.1920 H   0  0  0  0  0  0  0  0  0  0  0  0
   39.4850   25.8320   34.2760 H   0  0  0  0  0  0  0  0  0  0  0  0
   40.1040   23.0480   36.6960 C   0  0  0  0  0  0  0  0  0  0  0  0
   39.4480   24.0150   35.9280 C   0  0  0  0  0  0  0  0  0  0  0  0
   38.3970   24.7290   36.4760 C   0  0  0  0  0  0  0  0  0  0  0  0
   38.0580   24.4320   37.7760 N   0  0  0  0  0  0  0  0  0  0  0  0
   38.6970   23.4980   38.5100 C   0  0  0  0  0  0  0  0  0  0  0  0
   39.7300   22.7970   37.9680 N   0  0  0  0  0  0  0  0  0  0  0  0
   40.9340   22.4690   36.2980 H   0  0  0  0  0  0  0  0  0  0  0  0
   39.8110   24.1390   34.9410 H   0  0  0  0  0  0  0  0  0  0  0  0
   38.3710   23.3180   39.5350 H   0  0  0  0  0  0  0  0  0  0  0  0
   37.2650   24.0850   32.9140 O   0  0  0  0  0  0  0  0  0  0  0  0
   37.1190   23.0850   31.9570 C   0  0  0  0  0  3  0  0  0  0  0  0
   35.7220   22.5460   31.9950 C   0  0  0  0  0  2  0  0  0  0  0  0
   35.4930   21.5490   30.8580 C   0  0  0  0  0  2  0  0  0  0  0  0
   36.4000   20.3460   31.1560 C   0  0  0  0  0  2  0  0  0  0  0  0
   37.8070   20.8550   31.1540 C   0  0  0  0  0  2  0  0  0  0  0  0
   38.0740   21.9300   32.1860 C   0  0  0  0  0  2  0  0  0  0  0  0
  1  6  1  6  0  0  0
  1 28  1  0  0  0  0
  1  2  1  0  0  0  0
  2  7  1  1  0  0  0
  2 14  1  0  0  0  0
  3  9  1  0  0  0  0
  3  2  1  0  0  0  0
  4  3  1  0  0  0  0
  5 10  1  0  0  0  0
  5  4  1  0  0  0  0
  5  1  1  0  0  0  0
  8  3  1  0  0  0  0
 11  5  1  0  0  0  0
 12 15  1  6  0  0  0
 12 21  1  0  0  0  0
 13 12  1  0  0  0  0
 13 17  1  0  0  0  0
 14 18  1  6  0  0  0
 14 13  1  0  0  0  0
 14 12  1  0  0  0  0
 16 13  1  0  0  0  0
 19 24  1  0  0  0  0
 20 21  1  0  0  0  0
 20 19  2  0  0  0  0
 21 22  2  0  0  0  0
 22 23  1  0  0  0  0
 23 27  1  0  0  0  0
 24 23  2  0  0  0  0
 25 19  1  0  0  0  0
 26 20  1  0  0  0  0
 29 30  1  0  0  0  0
 29 34  1  0  0  0  0
 29 28  1  0  0  0  0
 31 32  1  0  0  0  0
 31 30  1  0  0  0  0
 33 32  1  0  0  0  0
 33 34  1  0  0  0  0
M  END
>  <minimizedAffinity>
-5.05584955

$$$$

 OpenBabel03262521363D

 34 37  0  0  1  0  0  0  0  0999 V2000
   38.3840   27.2800   31.8160 C   0  0  1  0  0  0  0  0  0  0  0  0
   39.6350   27.2480   32.5600 C   0  0  2  0  0  0  0  0  0  0  0  0
   40.6810   27.0170   31.4420 C   0  0  0  0  0  0  0  0  0  0  0  0
   40.0380   26.1440   30.6240 O   0  0  0  0  0  0  0  0  0  0  0  0
   38.6910   26.4090   30.5850 C   0  0  0  0  0  0  0  0  0  0  0  0
   38.1350   28.3080   31.4710 H   0  0  0  0  0  0  0  0  0  0  0  0
   39.8990   28.2350   32.9920 H   0  0  0  0  0  0  0  0  0  0  0  0
   40.9640   27.9800   30.9840 H   0  0  0  0  0  0  0  0  0  0  0  0
   41.5350   26.5090   31.9360 H   0  0  0  0  0  0  0  0  0  0  0  0
   38.0650   25.4990   30.5920 H   0  0  0  0  0  0  0  0  0  0  0  0
   38.4900   27.0240   29.6860 H   0  0  0  0  0  0  0  0  0  0  0  0
   39.2010   26.3480   34.9690 C   0  0  1  0  0  0  0  0  0  0  0  0
   40.6160   26.5570   34.7970 C   0  0  0  0  0  0  0  0  0  0  0  0
   39.7830   26.1260   33.5720 C   0  0  2  0  0  0  0  0  0  0  0  0
   38.5050   27.2170   35.0590 H   0  0  0  0  0  0  0  0  0  0  0  0
   41.1210   27.5230   34.7870 H   0  0  0  0  0  0  0  0  0  0  0  0
   41.2870   25.7350   35.1860 H   0  0  0  0  0  0  0  0  0  0  0  0
   39.9230   25.1150   33.1880 H   0  0  0  0  0  0  0  0  0  0  0  0
   37.6380   23.9510   37.4010 C   0  0  0  0  0  0  0  0  0  0  0  0
   38.1380   25.1320   36.8450 C   0  0  0  0  0  0  0  0  0  0  0  0
   38.6520   25.1220   35.5600 C   0  0  0  0  0  0  0  0  0  0  0  0
   38.6340   23.9160   34.8960 N   0  0  0  0  0  0  0  0  0  0  0  0
   38.1470   22.7820   35.4400 C   0  0  0  0  0  0  0  0  0  0  0  0
   37.6440   22.7960   36.7050 N   0  0  0  0  0  0  0  0  0  0  0  0
   37.2260   23.9240   38.4070 H   0  0  0  0  0  0  0  0  0  0  0  0
   38.0930   25.9870   37.4680 H   0  0  0  0  0  0  0  0  0  0  0  0
   38.1670   21.8630   34.8520 H   0  0  0  0  0  0  0  0  0  0  0  0
   37.2710   26.7580   32.4960 O   0  0  0  0  0  0  0  0  0  0  0  0
   36.3340   27.7650   32.7090 C   0  0  0  0  0  3  0  0  0  0  0  0
   36.6060   28.9150   31.7890 C   0  0  0  0  0  2  0  0  0  0  0  0
   35.5060   29.9720   31.9000 C   0  0  0  0  0  2  0  0  0  0  0  0
   35.6150   30.5530   33.3170 C   0  0  0  0  0  2  0  0  0  0  0  0
   35.3770   29.4220   34.2680 C   0  0  0  0  0  2  0  0  0  0  0  0
   36.3680   28.2860   34.1330 C   0  0  0  0  0  2  0  0  0  0  0  0
  1  6  1  6  0  0  0
  1 28  1  0  0  0  0
  1  2  1  0  0  0  0
  2  7  1  1  0  0  0
  2 14  1  0  0  0  0
  3  9  1  0  0  0  0
  3  2  1  0  0  0  0
  4  3  1  0  0  0  0
  5 10  1  0  0  0  0
  5  4  1  0  0  0  0
  5  1  1  0  0  0  0
  8  3  1  0  0  0  0
 11  5  1  0  0  0  0
 12 15  1  1  0  0  0
 12 21  1  0  0  0  0
 13 12  1  0  0  0  0
 13 17  1  0  0  0  0
 14 18  1  6  0  0  0
 14 13  1  0  0  0  0
 14 12  1  0  0  0  0
 16 13  1  0  0  0  0
 19 25  1  0  0  0  0
 20 19  1  0  0  0  0
 20 26  1  0  0  0  0
 21 20  2  0  0  0  0
 22 23  2  0  0  0  0
 22 21  1  0  0  0  0
 23 24  1  0  0  0  0
 24 19  2  0  0  0  0
 27 23  1  0  0  0  0
 28 29  1  0  0  0  0
 29 34  1  0  0  0  0
 30 31  1  0  0  0  0
 30 29  1  0  0  0  0
 31 32  1  0  0  0  0
 32 33  1  0  0  0  0
 34 33  1  0  0  0  0
M  END
>  <minimizedAffinity>
-4.93079281

$$$$

 OpenBabel03262521363D

 34 37  0  0  1  0  0  0  0  0999 V2000
   37.6330   24.9860   32.3280 C   0  0  1  0  0  0  0  0  0  0  0  0
   37.4430   25.6510   33.6100 C   0  0  2  0  0  0  0  0  0  0  0  0
   37.4020   27.1450   33.2070 C   0  0  0  0  0  0  0  0  0  0  0  0
   38.3490   27.2050   32.2350 O   0  0  0  0  0  0  0  0  0  0  0  0
   38.3640   26.0510   31.4920 C   0  0  0  0  0  0  0  0  0  0  0  0
   36.6630   24.7510   31.8370 H   0  0  0  0  0  0  0  0  0  0  0  0
   36.4450   25.4510   34.0500 H   0  0  0  0  0  0  0  0  0  0  0  0
   36.3800   27.4240   32.8970 H   0  0  0  0  0  0  0  0  0  0  0  0
   37.7460   27.7030   34.1020 H   0  0  0  0  0  0  0  0  0  0  0  0
   39.3820   25.7080   31.2360 H   0  0  0  0  0  0  0  0  0  0  0  0
   37.7610   26.2250   30.5790 H   0  0  0  0  0  0  0  0  0  0  0  0
   38.3550   24.4360   35.7300 C   0  0  1  0  0  0  0  0  0  0  0  0
   38.0940   25.8140   36.0590 C   0  0  0  0  0  0  0  0  0  0  0  0
   38.5580   25.4750   34.6270 C   0  0  2  0  0  0  0  0  0  0  0  0
   37.5120   23.7220   35.5600 H   0  0  0  0  0  0  0  0  0  0  0  0
   37.1100   26.2570   36.2110 H   0  0  0  0  0  0  0  0  0  0  0  0
   38.8900   26.3350   36.6680 H   0  0  0  0  0  0  0  0  0  0  0  0
   39.5630   25.7750   34.3300 H   0  0  0  0  0  0  0  0  0  0  0  0
   40.8040   22.2040   37.4970 C   0  0  0  0  0  0  0  0  0  0  0  0
   39.6060   22.8260   37.1340 C   0  0  0  0  0  0  0  0  0  0  0  0
   39.6000   23.7580   36.1100 C   0  0  0  0  0  0  0  0  0  0  0  0
   40.8080   24.0160   35.5010 N   0  0  0  0  0  0  0  0  0  0  0  0
   41.9580   23.4090   35.8590 C   0  0  0  0  0  0  0  0  0  0  0  0
   41.9600   22.4940   36.8660 N   0  0  0  0  0  0  0  0  0  0  0  0
   40.8450   21.4670   38.2960 H   0  0  0  0  0  0  0  0  0  0  0  0
   38.7520   22.5350   37.6880 H   0  0  0  0  0  0  0  0  0  0  0  0
   42.8770   23.6670   35.3290 H   0  0  0  0  0  0  0  0  0  0  0  0
   38.4030   23.8120   32.3730 O   0  0  0  0  0  0  0  0  0  0  0  0
   37.5920   22.7060   32.1380 C   0  0  0  0  0  3  0  0  0  0  0  0
   36.3120   23.1430   31.4930 C   0  0  0  0  0  2  0  0  0  0  0  0
   35.4650   21.9340   31.0920 C   0  0  0  0  0  2  0  0  0  0  0  0
   35.0450   21.2540   32.4030 C   0  0  0  0  0  2  0  0  0  0  0  0
   36.3050   20.8290   33.0910 C   0  0  0  0  0  2  0  0  0  0  0  0
   37.2440   21.9700   33.4170 C   0  0  0  0  0  2  0  0  0  0  0  0
  1  6  1  6  0  0  0
  1 28  1  0  0  0  0
  1  2  1  0  0  0  0
  2  7  1  1  0  0  0
  2 14  1  0  0  0  0
  3  2  1  0  0  0  0
  3  9  1  0  0  0  0
  4  3  1  0  0  0  0
  5  4  1  0  0  0  0
  5  1  1  0  0  0  0
  8  3  1  0  0  0  0
 10  5  1  0  0  0  0
 11  5  1  0  0  0  0
 12 15  1  6  0  0  0
 12 13  1  0  0  0  0
 12 21  1  0  0  0  0
 13 16  1  0  0  0  0
 13 17  1  0  0  0  0
 14 18  1  6  0  0  0
 14 12  1  0  0  0  0
 14 13  1  0  0  0  0
 19 25  1  0  0  0  0
 20 19  1  0  0  0  0
 20 26  1  0  0  0  0
 21 20  2  0  0  0  0
 22 23  2  0  0  0  0
 22 21  1  0  0  0  0
 23 24  1  0  0  0  0
 24 19  2  0  0  0  0
 27 23  1  0  0  0  0
 29 28  1  0  0  0  0
 29 34  1  0  0  0  0
 30 29  1  0  0  0  0
 31 30  1  0  0  0  0
 31 32  1  0  0  0  0
 32 33  1  0  0  0  0
 33 34  1  0  0  0  0
M  END
>  <minimizedAffinity>
-4.9124856

$$$$

 OpenBabel03262521363D

 34 37  0  0  1  0  0  0  0  0999 V2000
   38.2000   25.7150   34.4750 C   0  0  1  0  0  0  0  0  0  0  0  0
   38.1810   25.6450   33.0200 C   0  0  2  0  0  0  0  0  0  0  0  0
   37.6760   27.0560   32.6260 C   0  0  0  0  0  0  0  0  0  0  0  0
   36.7390   27.3000   33.5800 O   0  0  0  0  0  0  0  0  0  0  0  0
   37.1120   26.7580   34.7850 C   0  0  0  0  0  0  0  0  0  0  0  0
   39.1740   26.0910   34.8580 H   0  0  0  0  0  0  0  0  0  0  0  0
   39.1990   25.5800   32.5840 H   0  0  0  0  0  0  0  0  0  0  0  0
   38.5210   27.7640   32.5950 H   0  0  0  0  0  0  0  0  0  0  0  0
   37.1840   26.9290   31.6400 H   0  0  0  0  0  0  0  0  0  0  0  0
   36.2750   26.2900   35.3330 H   0  0  0  0  0  0  0  0  0  0  0  0
   37.5850   27.5580   35.3870 H   0  0  0  0  0  0  0  0  0  0  0  0
   37.8070   23.2570   32.0420 C   0  0  1  0  0  0  0  0  0  0  0  0
   37.6600   24.2230   30.9830 C   0  0  0  0  0  0  0  0  0  0  0  0
   37.2350   24.6270   32.4100 C   0  0  2  0  0  0  0  0  0  0  0  0
   38.8130   23.0330   32.4720 H   0  0  0  0  0  0  0  0  0  0  0  0
   38.4720   24.7610   30.4940 H   0  0  0  0  0  0  0  0  0  0  0  0
   36.7810   24.0640   30.2900 H   0  0  0  0  0  0  0  0  0  0  0  0
   36.1700   24.7430   32.6140 H   0  0  0  0  0  0  0  0  0  0  0  0
   35.7590   20.5760   33.6920 C   0  0  0  0  0  0  0  0  0  0  0  0
   36.6600   21.6300   33.5130 C   0  0  0  0  0  0  0  0  0  0  0  0
   36.8490   22.1640   32.2500 C   0  0  0  0  0  0  0  0  0  0  0  0
   36.1150   21.6080   31.2270 N   0  0  0  0  0  0  0  0  0  0  0  0
   35.2480   20.5910   31.4100 C   0  0  0  0  0  0  0  0  0  0  0  0
   35.0650   20.0680   32.6530 N   0  0  0  0  0  0  0  0  0  0  0  0
   35.5860   20.1330   34.6700 H   0  0  0  0  0  0  0  0  0  0  0  0
   37.1590   21.9590   34.3860 H   0  0  0  0  0  0  0  0  0  0  0  0
   34.7020   20.2020   30.5490 H   0  0  0  0  0  0  0  0  0  0  0  0
   37.8990   24.5110   35.1330 O   0  0  0  0  0  0  0  0  0  0  0  0
   38.9230   24.1890   36.0190 C   0  0  0  0  0  3  0  0  0  0  0  0
   39.9530   23.3530   35.3240 C   0  0  0  0  0  2  0  0  0  0  0  0
   41.1590   23.1090   36.2330 C   0  0  0  0  0  2  0  0  0  0  0  0
   40.6490   22.2410   37.3930 C   0  0  0  0  0  2  0  0  0  0  0  0
   39.5930   23.0360   38.0960 C   0  0  0  0  0  2  0  0  0  0  0  0
   38.4180   23.4100   37.2180 C   0  0  0  0  0  2  0  0  0  0  0  0
  1  5  1  0  0  0  0
  1  6  1  1  0  0  0
  1 28  1  0  0  0  0
  2  7  1  6  0  0  0
  2  1  1  0  0  0  0
  3  2  1  0  0  0  0
  3  4  1  0  0  0  0
  4  5  1  0  0  0  0
  5 10  1  0  0  0  0
  5 11  1  0  0  0  0
  8  3  1  0  0  0  0
  9  3  1  0  0  0  0
 12 21  1  0  0  0  0
 12 14  1  0  0  0  0
 12 15  1  1  0  0  0
 13 12  1  0  0  0  0
 13 14  1  0  0  0  0
 14 18  1  1  0  0  0
 14  2  1  0  0  0  0
 16 13  1  0  0  0  0
 17 13  1  0  0  0  0
 19 25  1  0  0  0  0
 20 19  1  0  0  0  0
 20 26  1  0  0  0  0
 21 20  2  0  0  0  0
 22 23  2  0  0  0  0
 22 21  1  0  0  0  0
 23 24  1  0  0  0  0
 24 19  2  0  0  0  0
 27 23  1  0  0  0  0
 28 29  1  0  0  0  0
 29 34  1  0  0  0  0
 30 29  1  0  0  0  0
 30 31  1  0  0  0  0
 31 32  1  0  0  0  0
 32 33  1  0  0  0  0
 34 33  1  0  0  0  0
M  END
>  <minimizedAffinity>
-4.90256119

$$$$

 OpenBabel03262521363D

 34 37  0  0  1  0  0  0  0  0999 V2000
   36.7950   27.6460   31.5900 C   0  0  1  0  0  0  0  0  0  0  0  0
   36.4130   28.7930   30.7780 C   0  0  2  0  0  0  0  0  0  0  0  0
   37.5130   28.8100   29.6880 C   0  0  0  0  0  0  0  0  0  0  0  0
   38.6220   28.4730   30.3970 O   0  0  0  0  0  0  0  0  0  0  0  0
   38.3180   27.5690   31.3850 C   0  0  0  0  0  0  0  0  0  0  0  0
   36.3360   26.7040   31.2160 H   0  0  0  0  0  0  0  0  0  0  0  0
   35.4690   28.6240   30.2200 H   0  0  0  0  0  0  0  0  0  0  0  0
   37.2440   28.1230   28.8680 H   0  0  0  0  0  0  0  0  0  0  0  0
   37.5860   29.8660   29.3580 H   0  0  0  0  0  0  0  0  0  0  0  0
   38.8440   27.7650   32.3360 H   0  0  0  0  0  0  0  0  0  0  0  0
   38.5490   26.5550   31.0030 H   0  0  0  0  0  0  0  0  0  0  0  0
   35.2240   30.5070   32.3440 C   0  0  1  0  0  0  0  0  0  0  0  0
   35.2690   31.0470   31.0100 C   0  0  0  0  0  0  0  0  0  0  0  0
   36.4290   30.1420   31.4750 C   0  0  2  0  0  0  0  0  0  0  0  0
   34.5440   29.6560   32.5910 H   0  0  0  0  0  0  0  0  0  0  0  0
   34.6460   30.7310   30.1730 H   0  0  0  0  0  0  0  0  0  0  0  0
   35.5650   32.1350   30.9280 H   0  0  0  0  0  0  0  0  0  0  0  0
   37.3990   30.6050   31.6550 H   0  0  0  0  0  0  0  0  0  0  0  0
   36.4030   33.3300   34.5230 C   0  0  0  0  0  0  0  0  0  0  0  0
   36.0350   32.5990   33.3880 C   0  0  0  0  0  0  0  0  0  0  0  0
   35.5930   31.2950   33.5260 C   0  0  0  0  0  0  0  0  0  0  0  0
   35.5430   30.7910   34.8060 N   0  0  0  0  0  0  0  0  0  0  0  0
   35.8980   31.5040   35.8940 C   0  0  0  0  0  0  0  0  0  0  0  0
   36.3330   32.7860   35.7550 N   0  0  0  0  0  0  0  0  0  0  0  0
   36.7530   34.3570   34.4510 H   0  0  0  0  0  0  0  0  0  0  0  0
   36.1260   33.1090   32.4660 H   0  0  0  0  0  0  0  0  0  0  0  0
   35.8310   31.0360   36.8780 H   0  0  0  0  0  0  0  0  0  0  0  0
   36.5090   27.7650   32.9610 O   0  0  0  0  0  0  0  0  0  0  0  0
   37.5280   27.1790   33.7060 C   0  0  0  0  0  3  0  0  0  0  0  0
   37.2670   25.7120   33.8590 C   0  0  0  0  0  2  0  0  0  0  0  0
   38.4440   25.0180   34.5480 C   0  0  0  0  0  2  0  0  0  0  0  0
   38.4850   25.5730   35.9800 C   0  0  0  0  0  2  0  0  0  0  0  0
   38.7160   27.0470   35.8660 C   0  0  0  0  0  2  0  0  0  0  0  0
   37.6410   27.7810   35.0940 C   0  0  0  0  0  2  0  0  0  0  0  0
  1  6  1  6  0  0  0
  1 28  1  0  0  0  0
  2  7  1  6  0  0  0
  2 14  1  0  0  0  0
  2  1  1  0  0  0  0
  3  4  1  0  0  0  0
  3  2  1  0  0  0  0
  4  5  1  0  0  0  0
  5  1  1  0  0  0  0
  5 10  1  0  0  0  0
  8  3  1  0  0  0  0
  9  3  1  0  0  0  0
 11  5  1  0  0  0  0
 12 15  1  1  0  0  0
 12 21  1  0  0  0  0
 13 14  1  0  0  0  0
 13 12  1  0  0  0  0
 14 18  1  1  0  0  0
 14 12  1  0  0  0  0
 16 13  1  0  0  0  0
 17 13  1  0  0  0  0
 19 24  1  0  0  0  0
 20 21  1  0  0  0  0
 20 19  2  0  0  0  0
 21 22  2  0  0  0  0
 22 23  1  0  0  0  0
 23 27  1  0  0  0  0
 24 23  2  0  0  0  0
 25 19  1  0  0  0  0
 26 20  1  0  0  0  0
 28 29  1  0  0  0  0
 29 30  1  0  0  0  0
 29 34  1  0  0  0  0
 30 31  1  0  0  0  0
 31 32  1  0  0  0  0
 33 32  1  0  0  0  0
 34 33  1  0  0  0  0
M  END
>  <minimizedAffinity>
-4.83948517

$$$$
