REMARK  Name = 
REMARK  3 active torsions:
REMARK  status: ('A' for Active; 'I' for Inactive)
REMARK    1  A    between atoms: C_1  and  C_7
REMARK    2  A    between atoms: C_6  and  N_15
REMARK    3  A    between atoms: C_13  and  C_30
REMARK                            x       y       z     vdW  Elec       q    Type
REMARK                         _______ _______ _______ _____ _____    ______ ____
ROOT
ATOM      1  C   UNL     1      36.076  30.690  49.067  0.00  0.00    +0.000 C 
ATOM      2  C   UNL     1      37.009  31.646  49.744  0.00  0.00    +0.000 C 
ATOM      3  C   UNL     1      38.038  30.954  50.609  0.00  0.00    +0.000 C 
ATOM      4  C   UNL     1      37.364  30.063  51.645  0.00  0.00    +0.000 C 
ATOM      5  C   UNL     1      36.130  29.363  51.142  0.00  0.00    +0.000 C 
ATOM      6  C   UNL     1      36.187  29.305  49.608  0.00  0.00    +0.000 C 
ATOM      7  H   UNL     1      34.984  31.002  49.151  0.00  0.00    +0.000 HD
ATOM      8  H   UNL     1      36.354  32.191  50.505  0.00  0.00    +0.000 HD
ATOM      9  H   UNL     1      37.439  32.429  49.149  0.00  0.00    +0.000 HD
ATOM     10  H   UNL     1      38.545  31.750  51.200  0.00  0.00    +0.000 HD
ATOM     11  H   UNL     1      38.790  30.394  50.059  0.00  0.00    +0.000 HD
ATOM     12  H   UNL     1      37.072  30.648  52.553  0.00  0.00    +0.000 HD
ATOM     13  H   UNL     1      38.121  29.329  51.995  0.00  0.00    +0.000 HD
ATOM     14  H   UNL     1      35.184  29.852  51.386  0.00  0.00    +0.000 HD
ATOM     15  H   UNL     1      36.141  28.313  51.489  0.00  0.00    +0.000 HD
ATOM     16  H   UNL     1      37.163  28.912  49.453  0.00  0.00    +0.000 HD
ENDROOT
BRANCH   1  17
ATOM     17  C   UNL     1      36.324  30.651  47.599  0.00  0.00    +0.000 A 
ATOM     18  C   UNL     1      37.576  31.114  47.181  0.00  0.00    +0.000 A 
ATOM     19  C   UNL     1      37.828  31.079  45.804  0.00  0.00    +0.000 A 
ATOM     20  N   UNL     1      36.853  30.601  44.959  0.00  0.00    +0.000 NA
ATOM     21  C   UNL     1      35.642  30.157  45.425  0.00  0.00    +0.000 A 
ATOM     22  N   UNL     1      35.396  30.191  46.745  0.00  0.00    +0.000 NA
ATOM     23  H   UNL     1      38.414  31.498  47.728  0.00  0.00    +0.000 HD
ATOM     24  H   UNL     1      38.742  31.404  45.351  0.00  0.00    +0.000 HD
ATOM     25  H   UNL     1      34.937  29.800  44.700  0.00  0.00    +0.000 HD
ENDBRANCH   1  17
BRANCH   6  28
ATOM     26  C   UNL     1      33.937  28.203  49.244  0.00  0.00    +0.000 C 
ATOM     27  O   UNL     1      33.119  28.874  49.938  0.00  0.00    +0.000 OA
ATOM     28  N   UNL     1      35.330  28.345  49.017  0.00  0.00    +0.000 N 
ATOM     29  H   UNL     1      35.607  27.590  48.316  0.00  0.00    +0.000 HD
BRANCH  26  30
ATOM     30  C   UNL     1      33.023  27.166  48.692  0.00  0.00    +0.000 C 
ATOM     31  C   UNL     1      33.924  26.076  48.146  0.00  0.00    +0.000 C 
ATOM     32  C   UNL     1      33.037  24.975  47.609  0.00  0.00    +0.000 C 
ATOM     33  C   UNL     1      31.599  25.426  47.525  0.00  0.00    +0.000 C 
ATOM     34  C   UNL     1      31.049  25.805  48.888  0.00  0.00    +0.000 C 
ATOM     35  C   UNL     1      32.104  26.562  49.702  0.00  0.00    +0.000 C 
ENDBRANCH  26  30
ENDBRANCH   6  28
TORSDOF 3
