
 OpenBabel03272509183D

 30 32  0  0  0  0  0  0  0  0999 V2000
   37.2860   31.4660   47.5060 C   0  0  0  0  0  0  0  0  0  0  0  0
   37.1150   31.4580   48.8870 C   0  0  0  0  0  0  0  0  0  0  0  0
   37.9900   32.3030   49.6020 C   0  0  0  0  0  0  0  0  0  0  0  0
   38.9440   33.0750   48.9170 C   0  0  0  0  0  0  0  0  0  0  0  0
   39.0330   33.0100   47.5340 C   0  0  0  0  0  0  0  0  0  0  0  0
   38.1950   32.1950   46.8140 C   0  0  0  0  0  0  0  0  0  0  0  0
   37.8480   32.2920   50.6720 H   0  0  0  0  0  0  0  0  0  0  0  0
   39.5170   33.6510   49.6020 H   0  0  0  0  0  0  0  0  0  0  0  0
   39.8200   33.6720   47.2340 H   0  0  0  0  0  0  0  0  0  0  0  0
   34.7680   30.9160   49.3660 C   0  0  0  0  0  0  0  0  0  0  0  0
   36.1350   30.6650   49.5660 C   0  0  0  0  0  0  0  0  0  0  0  0
   36.4860   29.6340   50.4330 C   0  0  0  0  0  0  0  0  0  0  0  0
   35.4950   28.9260   51.0410 N   0  0  0  0  0  0  0  0  0  0  0  0
   34.1780   29.2020   50.8220 C   0  0  0  0  0  0  0  0  0  0  0  0
   33.8210   30.1930   49.9860 N   0  0  0  0  0  0  0  0  0  0  0  0
   34.4970   31.7170   48.6920 H   0  0  0  0  0  0  0  0  0  0  0  0
   33.4080   28.6230   51.3190 H   0  0  0  0  0  0  0  0  0  0  0  0
   37.9000   29.3210   50.6820 C   0  0  0  0  0  0  0  0  0  0  0  0
   38.4470   30.2580   50.9400 H   0  0  0  0  0  0  0  0  0  0  0  0
   37.9590   28.6270   51.5490 H   0  0  0  0  0  0  0  0  0  0  0  0
   38.3870   28.7800   49.8430 H   0  0  0  0  0  0  0  0  0  0  0  0
   36.4540   30.6510   46.7320 O   0  0  0  0  0  0  0  0  0  0  0  0
   35.6590   31.0020   46.2220 H   0  0  0  0  0  0  0  0  0  0  0  0
   38.3100   32.1610   45.4500 O   0  0  0  0  0  0  0  0  0  0  0  0
   39.4890   32.0090   44.7390 C   0  0  0  0  0  3  0  0  0  0  0  0
   39.6650   33.0300   43.6420 C   0  0  0  0  0  2  0  0  0  0  0  0
   39.4320   32.4900   42.2700 C   0  0  0  0  0  2  0  0  0  0  0  0
   40.1810   31.2310   41.9630 C   0  0  0  0  0  2  0  0  0  0  0  0
   40.5840   30.4280   43.1460 C   0  0  0  0  0  2  0  0  0  0  0  0
   39.5440   30.5920   44.2050 C   0  0  0  0  0  2  0  0  0  0  0  0
  1  2  1  0  0  0  0
  2 11  1  0  0  0  0
  2  3  2  0  0  0  0
  3  7  1  0  0  0  0
  4  8  1  0  0  0  0
  4  3  1  0  0  0  0
  5  4  2  0  0  0  0
  6  1  2  0  0  0  0
  6  5  1  0  0  0  0
  9  5  1  0  0  0  0
 10 11  2  0  0  0  0
 10 15  1  0  0  0  0
 11 12  1  0  0  0  0
 12 18  1  0  0  0  0
 12 13  2  0  0  0  0
 14 13  1  0  0  0  0
 14 17  1  0  0  0  0
 15 14  2  0  0  0  0
 16 10  1  0  0  0  0
 18 19  1  0  0  0  0
 18 20  1  0  0  0  0
 21 18  1  0  0  0  0
 22  1  1  0  0  0  0
 23 22  1  0  0  0  0
 24  6  1  0  0  0  0
 25 24  1  0  0  0  0
 26 25  1  0  0  0  0
 27 26  1  0  0  0  0
 28 27  1  0  0  0  0
 28 29  1  0  0  0  0
 29 30  1  0  0  0  0
 30 25  1  0  0  0  0
M  END
>  <minimizedAffinity>
-5.66289663

>  <minimizedRMSD>
2.91741419

$$$$
