
 OpenBabel03272508573D

 37 40  0  0  1  0  0  0  0  0999 V2000
   38.3450   31.8660   44.5660 C   0  0  0  0  0  0  0  0  0  0  0  0
   37.2390   32.4030   44.4560 O   0  0  0  0  0  0  0  0  0  0  0  0
   38.9040   31.6110   45.8800 N   0  0  0  0  0  0  0  0  0  0  0  0
   39.8790   31.3590   46.0570 H   0  0  0  0  0  0  0  0  0  0  0  0
   39.1390   31.4650   43.3910 C   0  0  0  0  0  0  0  0  0  0  0  0
   40.1440   30.5410   43.5640 C   0  0  0  0  0  0  0  0  0  0  0  0
   40.8800   30.1800   42.4420 C   0  0  0  0  0  0  0  0  0  0  0  0
   40.5670   30.7560   41.2460 C   0  0  0  0  0  0  0  0  0  0  0  0
   39.5620   31.6810   41.0640 C   0  0  0  0  0  0  0  0  0  0  0  0
   38.8640   32.0110   42.1820 N   0  0  0  0  0  0  0  0  0  0  0  0
   40.3750   30.0930   44.5290 H   0  0  0  0  0  0  0  0  0  0  0  0
   41.6590   29.4580   42.6040 H   0  0  0  0  0  0  0  0  0  0  0  0
   41.2000   30.3960   40.4580 H   0  0  0  0  0  0  0  0  0  0  0  0
   39.2180   32.2790   39.7630 C   0  0  2  0  0  3  0  0  0  0  0  0
   38.8720   33.5190   39.7820 O   0  0  0  0  0  1  0  0  0  0  0  0
   39.1870   31.7090   38.3900 C   0  0  0  0  0  3  0  0  0  0  0  0
   40.5590   31.4830   37.9030 C   0  0  0  0  0  2  0  0  0  0  0  0
   40.5490   30.2960   36.9310 C   0  0  0  0  0  2  0  0  0  0  0  0
   40.2980   29.0900   37.8340 C   0  0  0  0  0  2  0  0  0  0  0  0
   38.9380   29.1740   38.4740 C   0  0  0  0  0  2  0  0  0  0  0  0
   38.2790   30.5030   38.3200 C   0  0  0  0  0  2  0  0  0  0  0  0
   38.4020   31.1190   48.2670 C   0  0  2  0  0  0  0  0  0  0  0  0
   38.6180   32.5850   48.1640 C   0  0  0  0  0  0  0  0  0  0  0  0
   38.0360   31.7190   47.0260 C   0  0  1  0  0  0  0  0  0  0  0  0
   39.3400   30.5390   48.3790 H   0  0  0  0  0  0  0  0  0  0  0  0
   39.6280   32.9700   48.0420 H   0  0  0  0  0  0  0  0  0  0  0  0
   37.9390   33.2180   48.7500 H   0  0  0  0  0  0  0  0  0  0  0  0
   36.9630   31.9640   46.8390 H   0  0  0  0  0  0  0  0  0  0  0  0
   35.0420   30.1860   49.5610 C   0  0  0  0  0  0  0  0  0  0  0  0
   35.3750   29.5520   50.8090 C   0  0  0  0  0  0  0  0  0  0  0  0
   36.7710   29.4730   51.1750 C   0  0  0  0  0  0  0  0  0  0  0  0
   37.7280   29.9950   50.3380 N   0  0  0  0  0  0  0  0  0  0  0  0
   37.3180   30.5790   49.1710 C   0  0  0  0  0  0  0  0  0  0  0  0
   35.9970   30.6920   48.7530 N   0  0  0  0  0  0  0  0  0  0  0  0
   34.0060   30.2310   49.3140 H   0  0  0  0  0  0  0  0  0  0  0  0
   34.6350   29.1480   51.4570 H   0  0  0  0  0  0  0  0  0  0  0  0
   37.0200   29.0040   52.0990 H   0  0  0  0  0  0  0  0  0  0  0  0
  1  3  1  0  0  0  0
  2  1  2  0  0  0  0
  3  4  1  0  0  0  0
  3 24  1  0  0  0  0
  5  6  1  0  0  0  0
  5  1  1  0  0  0  0
  6 11  1  0  0  0  0
  7 12  1  0  0  0  0
  7  6  2  0  0  0  0
  8  7  1  0  0  0  0
  9  8  2  0  0  0  0
  9 10  1  0  0  0  0
 10  5  2  0  0  0  0
 13  8  1  0  0  0  0
 14 15  1  1  0  0  0
 14  9  1  0  0  0  0
 16 14  1  0  0  0  0
 17 16  1  0  0  0  0
 18 19  1  0  0  0  0
 18 17  1  0  0  0  0
 19 20  1  0  0  0  0
 21 16  1  0  0  0  0
 21 20  1  0  0  0  0
 22 25  1  6  0  0  0
 22 33  1  0  0  0  0
 23 22  1  0  0  0  0
 23 27  1  0  0  0  0
 24 28  1  6  0  0  0
 24 23  1  0  0  0  0
 24 22  1  0  0  0  0
 26 23  1  0  0  0  0
 29 30  1  0  0  0  0
 30 31  2  0  0  0  0
 30 36  1  0  0  0  0
 31 37  1  0  0  0  0
 32 31  1  0  0  0  0
 33 32  2  0  0  0  0
 34 33  1  0  0  0  0
 34 29  2  0  0  0  0
 35 29  1  0  0  0  0
M  END
>  <minimizedAffinity>
-5.0037365

>  <minimizedRMSD>
0.518356442

$$$$
