
 OpenBabel03272501313D

 17 18  0  0  0  0  0  0  0  0999 V2000
   36.4600   21.1400   33.3800 C   0  0  0  0  0  0  0  0  0  0  0  0
   37.5520   21.8660   33.9120 C   0  0  0  0  0  0  0  0  0  0  0  0
   37.6160   22.0110   35.2910 C   0  0  0  0  0  0  0  0  0  0  0  0
   36.6390   21.4560   36.0660 N   0  0  0  0  0  0  0  0  0  0  0  0
   35.6160   20.7710   35.5090 C   0  0  0  0  0  0  0  0  0  0  0  0
   35.5240   20.6120   34.1880 N   0  0  0  0  0  0  0  0  0  0  0  0
   36.3460   20.9880   32.3240 H   0  0  0  0  0  0  0  0  0  0  0  0
   38.2950   22.2830   33.2440 H   0  0  0  0  0  0  0  0  0  0  0  0
   34.8810   20.3620   36.2080 H   0  0  0  0  0  0  0  0  0  0  0  0
   38.7170   22.7460   35.8710 C   0  0  0  0  0  0  0  0  0  0  0  0
   39.6090   22.2530   36.6190 O   0  0  0  0  0  0  0  0  0  0  0  0
   38.8350   24.1730   35.5860 C   0  0  0  0  0  3  0  0  0  0  0  0
   40.2510   24.6400   35.2950 C   0  0  0  0  0  2  0  0  0  0  0  0
   40.0800   25.9470   34.5310 C   0  0  0  0  0  2  0  0  0  0  0  0
   39.2730   26.9350   35.2900 C   0  0  0  0  0  2  0  0  0  0  0  0
   38.1010   26.4240   36.0440 C   0  0  0  0  0  2  0  0  0  0  0  0
   38.3190   25.0680   36.6730 C   0  0  0  0  0  2  0  0  0  0  0  0
  1  2  2  0  0  0  0
  1  6  1  0  0  0  0
  2  3  1  0  0  0  0
  3 10  1  0  0  0  0
  3  4  2  0  0  0  0
  5  4  1  0  0  0  0
  5  9  1  0  0  0  0
  6  5  2  0  0  0  0
  7  1  1  0  0  0  0
  8  2  1  0  0  0  0
 10 11  2  0  0  0  0
 12 10  1  0  0  0  0
 12 17  1  0  0  0  0
 13 12  1  0  0  0  0
 14 15  1  0  0  0  0
 14 13  1  0  0  0  0
 15 16  1  0  0  0  0
 16 17  1  0  0  0  0
M  END
>  <minimizedAffinity>
-4.22926092

$$$$

 OpenBabel03272501313D

 17 18  0  0  0  0  0  0  0  0999 V2000
   36.3530   23.5720   31.1930 C   0  0  0  0  0  0  0  0  0  0  0  0
   37.3710   24.5020   31.5140 C   0  0  0  0  0  0  0  0  0  0  0  0
   37.0410   25.8500   31.4860 C   0  0  0  0  0  0  0  0  0  0  0  0
   35.7690   26.2190   31.1560 N   0  0  0  0  0  0  0  0  0  0  0  0
   34.8330   25.2910   30.8580 C   0  0  0  0  0  0  0  0  0  0  0  0
   35.1150   23.9880   30.8750 N   0  0  0  0  0  0  0  0  0  0  0  0
   36.5360   22.5150   31.1950 H   0  0  0  0  0  0  0  0  0  0  0  0
   38.3620   24.1470   31.7680 H   0  0  0  0  0  0  0  0  0  0  0  0
   33.8420   25.6790   30.6050 H   0  0  0  0  0  0  0  0  0  0  0  0
   38.0550   26.8290   31.8080 C   0  0  0  0  0  0  0  0  0  0  0  0
   38.7070   27.5080   30.9640 O   0  0  0  0  0  0  0  0  0  0  0  0
   38.3710   27.0760   33.2120 C   0  0  0  0  0  3  0  0  0  0  0  0
   39.3840   26.1130   33.8060 C   0  0  0  0  0  2  0  0  0  0  0  0
   39.9460   26.8400   35.0200 C   0  0  0  0  0  2  0  0  0  0  0  0
   38.8810   27.2410   35.9720 C   0  0  0  0  0  2  0  0  0  0  0  0
   37.6090   27.7480   35.3990 C   0  0  0  0  0  2  0  0  0  0  0  0
   37.1850   27.0480   34.1290 C   0  0  0  0  0  2  0  0  0  0  0  0
  1  7  1  0  0  0  0
  1  2  1  0  0  0  0
  2  8  1  0  0  0  0
  3  2  2  0  0  0  0
  3 10  1  0  0  0  0
  4  3  1  0  0  0  0
  5  6  1  0  0  0  0
  5  4  2  0  0  0  0
  6  1  2  0  0  0  0
  9  5  1  0  0  0  0
 10 12  1  0  0  0  0
 11 10  2  0  0  0  0
 12 13  1  0  0  0  0
 12 17  1  0  0  0  0
 13 14  1  0  0  0  0
 14 15  1  0  0  0  0
 16 15  1  0  0  0  0
 17 16  1  0  0  0  0
M  END
>  <minimizedAffinity>
-4.09809732

$$$$

 OpenBabel03272501313D

 17 18  0  0  0  0  0  0  0  0999 V2000
   36.6920   21.1830   32.9620 C   0  0  0  0  0  0  0  0  0  0  0  0
   37.5430   21.9240   33.8160 C   0  0  0  0  0  0  0  0  0  0  0  0
   37.7600   23.2590   33.5040 C   0  0  0  0  0  0  0  0  0  0  0  0
   37.1540   23.7950   32.4050 N   0  0  0  0  0  0  0  0  0  0  0  0
   36.3500   23.0430   31.6210 C   0  0  0  0  0  0  0  0  0  0  0  0
   36.1190   21.7580   31.8910 N   0  0  0  0  0  0  0  0  0  0  0  0
   36.4790   20.1470   33.1420 H   0  0  0  0  0  0  0  0  0  0  0  0
   37.9950   21.4420   34.6740 H   0  0  0  0  0  0  0  0  0  0  0  0
   35.9080   23.5560   30.7620 H   0  0  0  0  0  0  0  0  0  0  0  0
   38.6230   24.0490   34.3530 C   0  0  0  0  0  0  0  0  0  0  0  0
   39.3370   25.0180   33.9670 O   0  0  0  0  0  0  0  0  0  0  0  0
   38.6950   23.7250   35.7750 C   0  0  0  0  0  3  0  0  0  0  0  0
   38.1320   24.7980   36.6920 C   0  0  0  0  0  2  0  0  0  0  0  0
   37.8160   24.0700   37.9930 C   0  0  0  0  0  2  0  0  0  0  0  0
   39.0070   23.3800   38.5480 C   0  0  0  0  0  2  0  0  0  0  0  0
   39.9130   22.7020   37.5870 C   0  0  0  0  0  2  0  0  0  0  0  0
   40.0780   23.4350   36.2760 C   0  0  0  0  0  2  0  0  0  0  0  0
  1  7  1  0  0  0  0
  1  2  1  0  0  0  0
  2  8  1  0  0  0  0
  3  2  2  0  0  0  0
  3 10  1  0  0  0  0
  4  3  1  0  0  0  0
  5  6  1  0  0  0  0
  5  4  2  0  0  0  0
  6  1  2  0  0  0  0
  9  5  1  0  0  0  0
 10 12  1  0  0  0  0
 11 10  2  0  0  0  0
 12 17  1  0  0  0  0
 12 13  1  0  0  0  0
 13 14  1  0  0  0  0
 14 15  1  0  0  0  0
 16 15  1  0  0  0  0
 17 16  1  0  0  0  0
M  END
>  <minimizedAffinity>
-4.07365847

$$$$

 OpenBabel03272501313D

 17 18  0  0  0  0  0  0  0  0999 V2000
   38.2980   23.6900   38.3250 C   0  0  0  0  0  0  0  0  0  0  0  0
   37.8950   24.6790   37.3960 C   0  0  0  0  0  0  0  0  0  0  0  0
   38.5680   24.7330   36.1830 C   0  0  0  0  0  0  0  0  0  0  0  0
   39.5740   23.8440   35.9380 N   0  0  0  0  0  0  0  0  0  0  0  0
   39.9210   22.9170   36.8590 C   0  0  0  0  0  0  0  0  0  0  0  0
   39.2960   22.8380   38.0340 N   0  0  0  0  0  0  0  0  0  0  0  0
   37.8230   23.5910   39.2810 H   0  0  0  0  0  0  0  0  0  0  0  0
   37.0890   25.3570   37.6490 H   0  0  0  0  0  0  0  0  0  0  0  0
   40.7380   22.2480   36.5760 H   0  0  0  0  0  0  0  0  0  0  0  0
   38.1840   25.7300   35.2090 C   0  0  0  0  0  0  0  0  0  0  0  0
   37.0420   26.2660   35.1260 O   0  0  0  0  0  0  0  0  0  0  0  0
   39.1740   26.1720   34.2310 C   0  0  0  0  0  3  0  0  0  0  0  0
   40.3080   26.9970   34.8150 C   0  0  0  0  0  2  0  0  0  0  0  0
   41.4340   26.8850   33.7960 C   0  0  0  0  0  2  0  0  0  0  0  0
   41.0100   27.3310   32.4450 C   0  0  0  0  0  2  0  0  0  0  0  0
   39.6450   26.9560   32.0000 C   0  0  0  0  0  2  0  0  0  0  0  0
   38.6110   26.9810   33.1010 C   0  0  0  0  0  2  0  0  0  0  0  0
  1  7  1  0  0  0  0
  2  8  1  0  0  0  0
  2  1  2  0  0  0  0
  3  2  1  0  0  0  0
  4  3  2  0  0  0  0
  4  5  1  0  0  0  0
  5  6  2  0  0  0  0
  6  1  1  0  0  0  0
  9  5  1  0  0  0  0
 10  3  1  0  0  0  0
 11 10  2  0  0  0  0
 12 13  1  0  0  0  0
 12 10  1  0  0  0  0
 14 13  1  0  0  0  0
 15 14  1  0  0  0  0
 16 15  1  0  0  0  0
 16 17  1  0  0  0  0
 17 12  1  0  0  0  0
M  END
>  <minimizedAffinity>
-4.07028913

$$$$

 OpenBabel03272501313D

 17 18  0  0  0  0  0  0  0  0999 V2000
   35.8110   30.6110   30.7640 C   0  0  0  0  0  0  0  0  0  0  0  0
   36.4410   29.3860   31.0910 C   0  0  0  0  0  0  0  0  0  0  0  0
   35.8180   28.5740   32.0270 C   0  0  0  0  0  0  0  0  0  0  0  0
   34.6410   28.9800   32.5860 N   0  0  0  0  0  0  0  0  0  0  0  0
   34.0800   30.1600   32.2390 C   0  0  0  0  0  0  0  0  0  0  0  0
   34.6510   30.9650   31.3430 N   0  0  0  0  0  0  0  0  0  0  0  0
   36.2360   31.2880   30.0490 H   0  0  0  0  0  0  0  0  0  0  0  0
   37.3760   29.1190   30.6130 H   0  0  0  0  0  0  0  0  0  0  0  0
   33.1370   30.4040   32.7380 H   0  0  0  0  0  0  0  0  0  0  0  0
   36.4310   27.3150   32.3870 C   0  0  0  0  0  0  0  0  0  0  0  0
   36.1030   26.1850   31.9230 O   0  0  0  0  0  0  0  0  0  0  0  0
   37.5200   27.3180   33.3590 C   0  0  0  0  0  3  0  0  0  0  0  0
   38.7020   26.4420   32.9810 C   0  0  0  0  0  2  0  0  0  0  0  0
   39.8680   26.9900   33.7940 C   0  0  0  0  0  2  0  0  0  0  0  0
   39.5770   26.9960   35.2500 C   0  0  0  0  0  2  0  0  0  0  0  0
   38.2070   27.3830   35.6700 C   0  0  0  0  0  2  0  0  0  0  0  0
   37.1190   26.8970   34.7410 C   0  0  0  0  0  2  0  0  0  0  0  0
  1  2  2  0  0  0  0
  1  6  1  0  0  0  0
  2  3  1  0  0  0  0
  3 10  1  0  0  0  0
  3  4  2  0  0  0  0
  5  4  1  0  0  0  0
  5  9  1  0  0  0  0
  6  5  2  0  0  0  0
  7  1  1  0  0  0  0
  8  2  1  0  0  0  0
 10 12  1  0  0  0  0
 11 10  2  0  0  0  0
 12 17  1  0  0  0  0
 13 12  1  0  0  0  0
 13 14  1  0  0  0  0
 14 15  1  0  0  0  0
 15 16  1  0  0  0  0
 17 16  1  0  0  0  0
M  END
>  <minimizedAffinity>
-4.03159428

$$$$

 OpenBabel03272501313D

 17 18  0  0  0  0  0  0  0  0999 V2000
   39.9780   22.7050   37.7490 C   0  0  0  0  0  0  0  0  0  0  0  0
   40.0120   22.2930   36.3950 C   0  0  0  0  0  0  0  0  0  0  0  0
   38.8550   22.4500   35.6460 C   0  0  0  0  0  0  0  0  0  0  0  0
   37.7470   22.9880   36.2350 N   0  0  0  0  0  0  0  0  0  0  0  0
   37.7650   23.3670   37.5320 C   0  0  0  0  0  0  0  0  0  0  0  0
   38.8600   23.2300   38.2810 N   0  0  0  0  0  0  0  0  0  0  0  0
   40.8350   22.6130   38.3870 H   0  0  0  0  0  0  0  0  0  0  0  0
   40.9220   21.8720   35.9860 H   0  0  0  0  0  0  0  0  0  0  0  0
   36.8330   23.7880   37.9180 H   0  0  0  0  0  0  0  0  0  0  0  0
   38.8520   22.0400   34.2600 C   0  0  0  0  0  0  0  0  0  0  0  0
   39.8340   21.5270   33.6500 O   0  0  0  0  0  0  0  0  0  0  0  0
   37.6330   22.2210   33.4770 C   0  0  0  0  0  3  0  0  0  0  0  0
   36.9930   20.9260   33.0060 C   0  0  0  0  0  2  0  0  0  0  0  0
   35.5440   21.2940   32.7130 C   0  0  0  0  0  2  0  0  0  0  0  0
   35.4380   22.4010   31.7300 C   0  0  0  0  0  2  0  0  0  0  0  0
   36.4160   23.5110   31.8440 C   0  0  0  0  0  2  0  0  0  0  0  0
   37.8020   23.0700   32.2530 C   0  0  0  0  0  2  0  0  0  0  0  0
  1  6  1  0  0  0  0
  1  7  1  0  0  0  0
  2  1  2  0  0  0  0
  3  4  2  0  0  0  0
  3  2  1  0  0  0  0
  4  5  1  0  0  0  0
  5  9  1  0  0  0  0
  5  6  2  0  0  0  0
  8  2  1  0  0  0  0
 10  3  1  0  0  0  0
 11 10  2  0  0  0  0
 12 10  1  0  0  0  0
 13 12  1  0  0  0  0
 14 13  1  0  0  0  0
 15 16  1  0  0  0  0
 15 14  1  0  0  0  0
 16 17  1  0  0  0  0
 17 12  1  0  0  0  0
M  END
>  <minimizedAffinity>
-3.98700237

$$$$

 OpenBabel03272501313D

 17 18  0  0  0  0  0  0  0  0999 V2000
   36.6570   24.7330   32.0470 C   0  0  0  0  0  0  0  0  0  0  0  0
   37.7180   25.0640   32.9240 C   0  0  0  0  0  0  0  0  0  0  0  0
   38.3530   24.0220   33.5850 C   0  0  0  0  0  0  0  0  0  0  0  0
   37.9370   22.7410   33.3670 N   0  0  0  0  0  0  0  0  0  0  0  0
   36.9190   22.4770   32.5180 C   0  0  0  0  0  0  0  0  0  0  0  0
   36.2860   23.4530   31.8670 N   0  0  0  0  0  0  0  0  0  0  0  0
   36.1220   25.4860   31.5030 H   0  0  0  0  0  0  0  0  0  0  0  0
   38.0010   26.1010   33.0560 H   0  0  0  0  0  0  0  0  0  0  0  0
   36.6540   21.4220   32.4060 H   0  0  0  0  0  0  0  0  0  0  0  0
   39.4410   24.3220   34.4890 C   0  0  0  0  0  0  0  0  0  0  0  0
   40.5680   24.7820   34.1460 O   0  0  0  0  0  0  0  0  0  0  0  0
   39.2520   24.0850   35.9180 C   0  0  0  0  0  3  0  0  0  0  0  0
   39.6020   22.6790   36.3720 C   0  0  0  0  0  2  0  0  0  0  0  0
   39.8500   22.8050   37.8700 C   0  0  0  0  0  2  0  0  0  0  0  0
   38.6830   23.3860   38.5810 C   0  0  0  0  0  2  0  0  0  0  0  0
   37.9580   24.4940   37.9110 C   0  0  0  0  0  2  0  0  0  0  0  0
   37.8600   24.3460   36.4110 C   0  0  0  0  0  2  0  0  0  0  0  0
  1  2  1  0  0  0  0
  2  8  1  0  0  0  0
  2  3  2  0  0  0  0
  3 10  1  0  0  0  0
  4  3  1  0  0  0  0
  5  4  2  0  0  0  0
  6  1  2  0  0  0  0
  6  5  1  0  0  0  0
  7  1  1  0  0  0  0
  9  5  1  0  0  0  0
 10 12  1  0  0  0  0
 11 10  2  0  0  0  0
 12 13  1  0  0  0  0
 12 17  1  0  0  0  0
 13 14  1  0  0  0  0
 14 15  1  0  0  0  0
 16 15  1  0  0  0  0
 17 16  1  0  0  0  0
M  END
>  <minimizedAffinity>
-3.97908854

$$$$

 OpenBabel03272501313D

 17 18  0  0  0  0  0  0  0  0999 V2000
   37.9640   25.1020   35.9330 C   0  0  0  0  0  0  0  0  0  0  0  0
   38.1450   24.2790   34.7950 C   0  0  0  0  0  0  0  0  0  0  0  0
   38.3550   22.9240   35.0100 C   0  0  0  0  0  0  0  0  0  0  0  0
   38.3780   22.4470   36.2880 N   0  0  0  0  0  0  0  0  0  0  0  0
   38.1990   23.2750   37.3410 C   0  0  0  0  0  0  0  0  0  0  0  0
   37.9950   24.5810   37.1710 N   0  0  0  0  0  0  0  0  0  0  0  0
   37.7970   26.1580   35.8420 H   0  0  0  0  0  0  0  0  0  0  0  0
   38.1160   24.7180   33.8060 H   0  0  0  0  0  0  0  0  0  0  0  0
   38.2340   22.8040   38.3280 H   0  0  0  0  0  0  0  0  0  0  0  0
   38.5440   22.0520   33.8720 C   0  0  0  0  0  0  0  0  0  0  0  0
   39.6630   21.7150   33.3910 O   0  0  0  0  0  0  0  0  0  0  0  0
   37.3670   21.5030   33.2070 C   0  0  0  0  0  3  0  0  0  0  0  0
   36.7120   22.4440   32.2100 C   0  0  0  0  0  2  0  0  0  0  0  0
   35.9040   21.5370   31.2920 C   0  0  0  0  0  2  0  0  0  0  0  0
   34.9340   20.7030   32.0450 C   0  0  0  0  0  2  0  0  0  0  0  0
   35.3830   20.1390   33.3420 C   0  0  0  0  0  2  0  0  0  0  0  0
   36.2770   21.0610   34.1370 C   0  0  0  0  0  2  0  0  0  0  0  0
  1  6  1  0  0  0  0
  2  3  1  0  0  0  0
  2  1  2  0  0  0  0
  3  4  2  0  0  0  0
  4  5  1  0  0  0  0
  5  9  1  0  0  0  0
  6  5  2  0  0  0  0
  7  1  1  0  0  0  0
  8  2  1  0  0  0  0
 10  3  1  0  0  0  0
 11 10  2  0  0  0  0
 12 10  1  0  0  0  0
 12 17  1  0  0  0  0
 13 12  1  0  0  0  0
 14 15  1  0  0  0  0
 14 13  1  0  0  0  0
 15 16  1  0  0  0  0
 16 17  1  0  0  0  0
M  END
>  <minimizedAffinity>
-3.96638632

$$$$

 OpenBabel03272501313D

 17 18  0  0  0  0  0  0  0  0999 V2000
   37.6150   27.2960   34.0030 C   0  0  0  0  0  0  0  0  0  0  0  0
   38.0680   26.0930   34.5950 C   0  0  0  0  0  0  0  0  0  0  0  0
   37.7930   24.9060   33.9290 C   0  0  0  0  0  0  0  0  0  0  0  0
   37.1090   24.9460   32.7490 N   0  0  0  0  0  0  0  0  0  0  0  0
   36.6990   26.1220   32.2250 C   0  0  0  0  0  0  0  0  0  0  0  0
   36.9450   27.2810   32.8380 N   0  0  0  0  0  0  0  0  0  0  0  0
   37.7910   28.2500   34.4620 H   0  0  0  0  0  0  0  0  0  0  0  0
   38.6050   26.1260   35.5350 H   0  0  0  0  0  0  0  0  0  0  0  0
   36.1580   26.0580   31.2760 H   0  0  0  0  0  0  0  0  0  0  0  0
   38.2400   23.6570   34.5040 C   0  0  0  0  0  0  0  0  0  0  0  0
   38.3630   22.5680   33.8740 O   0  0  0  0  0  0  0  0  0  0  0  0
   38.5840   23.6210   35.9220 C   0  0  0  0  0  3  0  0  0  0  0  0
   39.4710   22.4550   36.3230 C   0  0  0  0  0  2  0  0  0  0  0  0
   40.1190   22.8910   37.6310 C   0  0  0  0  0  2  0  0  0  0  0  0
   39.1110   23.2500   38.6590 C   0  0  0  0  0  2  0  0  0  0  0  0
   37.9110   23.9980   38.2070 C   0  0  0  0  0  2  0  0  0  0  0  0
   37.4040   23.5810   36.8460 C   0  0  0  0  0  2  0  0  0  0  0  0
  1  7  1  0  0  0  0
  1  2  1  0  0  0  0
  2  8  1  0  0  0  0
  3 10  1  0  0  0  0
  3  2  2  0  0  0  0
  4  3  1  0  0  0  0
  5  4  2  0  0  0  0
  5  6  1  0  0  0  0
  6  1  2  0  0  0  0
  9  5  1  0  0  0  0
 10 12  1  0  0  0  0
 11 10  2  0  0  0  0
 12 13  1  0  0  0  0
 12 17  1  0  0  0  0
 13 14  1  0  0  0  0
 14 15  1  0  0  0  0
 16 15  1  0  0  0  0
 17 16  1  0  0  0  0
M  END
>  <minimizedAffinity>
-3.96478271

$$$$
