
     RDKit          3D

 29 30  0  0  0  0  0  0  0  0999 V2000
   37.3676   30.2219   51.3270 C   0  0  0  0  0  0  0  0  0  0  0  0
   38.0236   30.6897   50.1629 C   0  0  0  0  0  0  0  0  0  0  0  0
   37.4793   30.2990   48.9276 C   0  0  0  0  0  0  0  0  0  0  0  0
   36.3782   29.5117   48.9024 N   0  0  0  0  0  0  0  0  0  0  0  0
   35.7878   29.0909   50.0418 C   0  0  0  0  0  0  0  0  0  0  0  0
   36.2888   29.4504   51.2453 N   0  0  0  0  0  0  0  0  0  0  0  0
   38.1726   30.7934   47.7140 C   0  0  0  0  0  0  0  0  0  0  0  0
   37.7587   30.5027   52.3023 H   0  0  0  0  0  0  0  0  0  0  0  0
   38.8855   31.3061   50.2767 H   0  0  0  0  0  0  0  0  0  0  0  0
   34.9066   28.4606   49.9182 H   0  0  0  0  0  0  0  0  0  0  0  0
   37.3710   30.9197   46.9550 H   0  0  0  0  0  0  0  0  0  0  0  0
   38.6070   31.7885   47.8618 H   0  0  0  0  0  0  0  0  0  0  0  0
   39.2539   29.8901   47.2106 C   0  0  0  0  0  0  0  0  0  0  0  0
   40.2856   30.7924   46.5413 C   0  0  0  0  0  0  0  0  0  0  0  0
   41.0221   30.0627   45.4499 C   0  0  0  0  0  0  0  0  0  0  0  0
   40.0459   29.8087   44.3201 C   0  0  0  0  0  0  0  0  0  0  0  0
   38.7071   29.3404   44.8263 C   0  0  0  0  0  0  0  0  0  0  0  0
   38.7796   28.8340   46.2508 C   0  0  0  0  0  0  0  0  0  0  0  0
   39.7677   29.4157   48.0680 H   0  0  0  0  0  0  0  0  0  0  0  0
   41.0243   31.1335   47.3197 H   0  0  0  0  0  0  0  0  0  0  0  0
   39.8088   31.6841   46.1245 H   0  0  0  0  0  0  0  0  0  0  0  0
   41.4029   29.0944   45.8163 H   0  0  0  0  0  0  0  0  0  0  0  0
   41.7957   30.7231   45.0517 H   0  0  0  0  0  0  0  0  0  0  0  0
   39.9143   30.7723   43.7552 H   0  0  0  0  0  0  0  0  0  0  0  0
   40.5301   29.1093   43.6080 H   0  0  0  0  0  0  0  0  0  0  0  0
   38.3744   28.4911   44.1965 H   0  0  0  0  0  0  0  0  0  0  0  0
   37.9793   30.1714   44.7516 H   0  0  0  0  0  0  0  0  0  0  0  0
   39.4940   27.9851   46.2421 H   0  0  0  0  0  0  0  0  0  0  0  0
   37.7868   28.4301   46.4984 H   0  0  0  0  0  0  0  0  0  0  0  0
  2  1  2  0
  3  2  1  0
  4  3  2  0
  4  5  1  0
  5  6  2  0
  6  1  1  0
  7  3  1  0
  1  8  1  0
  2  9  1  0
  5 10  1  0
  7 11  1  0
  7 12  1  0
 13 14  1  0
 14 15  1  0
 15 16  1  0
 16 17  1  0
 17 18  1  0
 18 13  1  0
 13 19  1  0
 14 20  1  0
 14 21  1  0
 15 22  1  0
 15 23  1  0
 16 24  1  0
 16 25  1  0
 17 26  1  0
 17 27  1  0
 18 28  1  0
 18 29  1  0
  7 13  1  0
M  ISO  5   8  14   9  14  10  14  11   8  12   8
M  END
>  <DihAtoms>  (1) 
2,6,12,13

>  <DihDeg>  (1) 
179.99874439345106

$$$$
