
     RDKit          3D

 37 39  0  0  0  0  0  0  0  0999 V2000
   38.4163   30.6082   46.7863 Cl  0  0  0  0  0  0  0  0  0  0  0  0
   38.8351   32.0453   47.6821 C   0  0  0  0  0  0  0  0  0  0  0  0
   38.3376   32.2061   48.9456 C   0  0  0  0  0  0  0  0  0  0  0  0
   38.7048   33.3690   49.6093 C   0  0  0  0  0  0  0  0  0  0  0  0
   39.5340   34.2907   48.9849 C   0  0  0  0  0  0  0  0  0  0  0  0
   40.0070   34.0806   47.7124 C   0  0  0  0  0  0  0  0  0  0  0  0
   39.6472   32.9298   47.0484 C   0  0  0  0  0  0  0  0  0  0  0  0
   37.9374   30.4135   50.6490 C   0  0  0  0  0  0  0  0  0  0  0  0
   37.4629   31.2365   49.6149 C   0  0  0  0  0  0  0  0  0  0  0  0
   36.1382   31.0995   49.2489 C   0  0  0  0  0  0  0  0  0  0  0  0
   35.3790   30.1847   49.9051 N   0  0  0  0  0  0  0  0  0  0  0  0
   35.8541   29.4192   50.8799 C   0  0  0  0  0  0  0  0  0  0  0  0
   37.1316   29.5245   51.2606 N   0  0  0  0  0  0  0  0  0  0  0  0
   40.1358   32.7424   45.7745 O   0  0  0  0  0  0  0  0  0  0  0  0
   38.3104   33.4958   50.6102 H   0  0  0  0  0  0  0  0  0  0  0  0
   39.7447   35.1503   49.6053 H   0  0  0  0  0  0  0  0  0  0  0  0
   40.6288   34.8729   47.3699 H   0  0  0  0  0  0  0  0  0  0  0  0
   38.9618   30.5004   50.9519 H   0  0  0  0  0  0  0  0  0  0  0  0
   35.7875   31.7402   48.4510 H   0  0  0  0  0  0  0  0  0  0  0  0
   35.1057   28.7490   51.2869 H   0  0  0  0  0  0  0  0  0  0  0  0
   40.9629   33.5659   45.0362 C   0  0  0  0  0  0  0  0  0  0  0  0
   40.3635   34.9724   45.1025 C   0  0  0  0  0  0  0  0  0  0  0  0
   39.0557   34.9881   44.3350 C   0  0  0  0  0  0  0  0  0  0  0  0
   39.2875   34.8756   42.8446 C   0  0  0  0  0  0  0  0  0  0  0  0
   40.6796   34.3061   42.6484 C   0  0  0  0  0  0  0  0  0  0  0  0
   40.8378   33.1223   43.5749 C   0  0  0  0  0  0  0  0  0  0  0  0
   42.0200   33.5915   45.3100 H   0  0  0  0  0  0  0  0  0  0  0  0
   41.0625   35.7254   44.7407 H   0  0  0  0  0  0  0  0  0  0  0  0
   40.1162   35.1523   46.1674 H   0  0  0  0  0  0  0  0  0  0  0  0
   38.4581   34.1167   44.6864 H   0  0  0  0  0  0  0  0  0  0  0  0
   38.5158   35.9071   44.6247 H   0  0  0  0  0  0  0  0  0  0  0  0
   39.2029   35.8754   42.3655 H   0  0  0  0  0  0  0  0  0  0  0  0
   38.5777   34.1538   42.3933 H   0  0  0  0  0  0  0  0  0  0  0  0
   40.7328   33.8932   41.6208 H   0  0  0  0  0  0  0  0  0  0  0  0
   41.4643   35.0587   42.7266 H   0  0  0  0  0  0  0  0  0  0  0  0
   41.6901   32.5232   43.2429 H   0  0  0  0  0  0  0  0  0  0  0  0
   39.9375   32.4944   43.4215 H   0  0  0  0  0  0  0  0  0  0  0  0
  1  2  1  0
  2  3  2  0
  3  4  1  0
  3  9  1  0
  5  4  2  0
  6  5  1  0
  7  2  1  0
  7  6  2  0
  8 13  2  0
  9  8  1  0
 10  9  2  0
 10 11  1  0
 11 12  2  0
 12 13  1  0
 14  7  1  0
  4 15  1  0
  5 16  1  0
  6 17  1  0
  8 18  1  0
 10 19  1  0
 12 20  1  0
 21 22  1  0
 22 23  1  0
 23 24  1  0
 24 25  1  0
 25 26  1  0
 26 21  1  0
 21 27  1  0
 22 28  1  0
 22 29  1  0
 23 30  1  0
 23 31  1  0
 24 32  1  0
 24 33  1  0
 25 34  1  0
 25 35  1  0
 26 36  1  0
 26 37  1  0
 14 21  1  0
M  ISO  6  15  14  16  14  17  14  18  14  19  14  20  14
M  END
>  <DihAtoms>  (1) 
6,13,20,21

>  <DihDeg>  (1) 
-124.39697277677746

$$$$
