
     RDKit          3D

 45 47  0  0  0  0  0  0  0  0999 V2000
   37.3444   30.1145   48.2938 O   0  0  0  0  0  0  0  0  0  0  0  0
   38.0648   31.3053   48.2211 C   0  0  0  0  0  0  0  0  0  0  0  0
   38.2171   32.0127   49.3997 C   0  0  0  0  0  0  0  0  0  0  0  0
   38.9292   33.2028   49.3611 C   0  0  0  0  0  0  0  0  0  0  0  0
   39.4437   33.6205   48.1733 N   0  0  0  0  0  0  0  0  0  0  0  0
   39.2871   32.9227   47.0382 C   0  0  0  0  0  0  0  0  0  0  0  0
   38.6038   31.7811   47.0777 N   0  0  0  0  0  0  0  0  0  0  0  0
   40.7676   32.4693   45.2400 C   0  0  0  0  0  0  0  0  0  0  0  0
   41.1359   31.3543   45.6912 O   0  0  0  0  0  0  0  0  0  0  0  0
   39.8362   33.3875   45.8057 N   0  0  0  0  0  0  0  0  0  0  0  0
   35.4779   28.6824   50.0563 O   0  0  0  0  0  0  0  0  0  0  0  0
   35.2590   29.0511   48.8949 C   0  0  0  0  0  0  0  0  0  0  0  0
   35.9222   30.2053   48.3262 C   0  0  2  0  0  0  0  0  0  0  0  0
   35.4690   30.1022   46.8290 C   0  0  0  0  0  0  0  0  0  0  0  0
   34.1412   29.4006   46.9441 C   0  0  0  0  0  0  0  0  0  0  0  0
   34.3513   28.4057   47.9882 N   0  0  0  0  0  0  0  0  0  0  0  0
   33.7627   27.0751   48.0606 C   0  0  0  0  0  0  0  0  0  0  0  0
   37.8363   31.7352   50.3606 H   0  0  0  0  0  0  0  0  0  0  0  0
   39.0768   33.7890   50.2430 H   0  0  0  0  0  0  0  0  0  0  0  0
   41.3156   32.5896   44.3141 H   0  0  0  0  0  0  0  0  0  0  0  0
   39.6647   34.2683   45.2721 H   0  0  0  0  0  0  0  0  0  0  0  0
   35.5513   31.1785   48.6935 H   0  0  0  0  0  0  0  0  0  0  0  0
   35.4217   31.0934   46.3723 H   0  0  0  0  0  0  0  0  0  0  0  0
   36.1666   29.4088   46.3447 H   0  0  0  0  0  0  0  0  0  0  0  0
   33.8310   28.9377   45.9926 H   0  0  0  0  0  0  0  0  0  0  0  0
   33.3806   30.1020   47.3416 H   0  0  0  0  0  0  0  0  0  0  0  0
   34.4622   26.3466   48.5229 H   0  0  0  0  0  0  0  0  0  0  0  0
   33.5456   26.7669   47.0280 H   0  0  0  0  0  0  0  0  0  0  0  0
   32.4614   27.1044   48.8013 C   0  0  0  0  0  0  0  0  0  0  0  0
   32.2998   25.7374   49.4782 C   0  0  0  0  0  0  0  0  0  0  0  0
   30.9384   25.5458   50.0616 C   0  0  0  0  0  0  0  0  0  0  0  0
   30.2860   26.8887   50.2619 C   0  0  0  0  0  0  0  0  0  0  0  0
   31.2948   27.8506   50.8715 C   0  0  0  0  0  0  0  0  0  0  0  0
   32.4338   28.1248   49.9214 C   0  0  0  0  0  0  0  0  0  0  0  0
   31.6299   27.2460   48.1121 H   0  0  0  0  0  0  0  0  0  0  0  0
   33.0838   25.6596   50.2420 H   0  0  0  0  0  0  0  0  0  0  0  0
   32.4846   24.9848   48.6801 H   0  0  0  0  0  0  0  0  0  0  0  0
   30.3356   24.8583   49.4648 H   0  0  0  0  0  0  0  0  0  0  0  0
   31.0687   25.1011   51.0842 H   0  0  0  0  0  0  0  0  0  0  0  0
   29.4284   26.8388   50.9507 H   0  0  0  0  0  0  0  0  0  0  0  0
   29.9698   27.3057   49.2961 H   0  0  0  0  0  0  0  0  0  0  0  0
   31.6485   27.4327   51.8397 H   0  0  0  0  0  0  0  0  0  0  0  0
   30.7714   28.7980   51.0822 H   0  0  0  0  0  0  0  0  0  0  0  0
   33.3644   28.0503   50.5213 H   0  0  0  0  0  0  0  0  0  0  0  0
   32.2819   29.0967   49.4552 H   0  0  0  0  0  0  0  0  0  0  0  0
  2  1  1  0
  2  3  2  0
  4  3  1  0
  5  4  2  0
  6  7  2  0
  6  5  1  0
  7  2  1  0
  8  9  2  0
  8 10  1  0
 10  6  1  0
 12 11  2  0
 13  1  1  0
 13 12  1  0
 14 15  1  0
 14 13  1  0
 15 16  1  0
 16 17  1  0
 16 12  1  0
  3 18  1  0
  4 19  1  0
  8 20  1  0
 10 21  1  0
 13 22  1  1
 14 23  1  0
 14 24  1  0
 15 25  1  0
 15 26  1  0
 17 27  1  0
 17 28  1  0
 29 30  1  0
 30 31  1  0
 31 32  1  0
 32 33  1  0
 33 34  1  0
 34 29  1  0
 29 35  1  0
 30 36  1  0
 30 37  1  0
 31 38  1  0
 31 39  1  0
 32 40  1  0
 32 41  1  0
 33 42  1  0
 33 43  1  0
 34 44  1  0
 34 45  1  0
 17 29  1  0
M  ISO  8  18  14  19  14  20   6  22  13  23  13  24  13  25  13  26  13
M  ISO  2  27   8  28   8
M  END
>  <DihAtoms>  (1) 
15,16,28,29

>  <DihDeg>  (1) 
179.93534241276828

$$$$
