
 OpenBabel03272501053D

 27 29  0  0  1  0  0  0  0  0999 V2000
   37.4640   31.1200   47.0430 C   0  0  2  0  0  0  0  0  0  0  0  0
   37.4350   31.8220   48.4020 C   0  0  2  0  0  0  0  0  0  0  0  0
   38.8380   32.2590   48.5180 C   0  0  0  0  0  0  0  0  0  0  0  0
   39.2210   32.6690   47.2450 O   0  0  0  0  0  0  0  0  0  0  0  0
   38.3530   32.1540   46.3250 C   0  0  0  0  0  0  0  0  0  0  0  0
   37.9880   30.1740   47.1500 H   0  0  0  0  0  0  0  0  0  0  0  0
   36.7770   32.7190   48.2030 H   0  0  0  0  0  0  0  0  0  0  0  0
   39.4810   31.3900   48.8240 H   0  0  0  0  0  0  0  0  0  0  0  0
   38.9150   33.0880   49.2550 H   0  0  0  0  0  0  0  0  0  0  0  0
   37.7100   32.9220   45.8780 H   0  0  0  0  0  0  0  0  0  0  0  0
   38.8550   31.6050   45.5010 H   0  0  0  0  0  0  0  0  0  0  0  0
   37.1400   29.7910   51.5770 C   0  0  0  0  0  0  0  0  0  0  0  0
   37.7160   30.6470   50.6050 C   0  0  0  0  0  0  0  0  0  0  0  0
   36.9330   30.9710   49.4650 C   0  0  0  0  0  0  0  0  0  0  0  0
   35.6660   30.4340   49.3750 N   0  0  0  0  0  0  0  0  0  0  0  0
   35.1650   29.6330   50.3110 C   0  0  0  0  0  0  0  0  0  0  0  0
   35.8900   29.3030   51.4170 N   0  0  0  0  0  0  0  0  0  0  0  0
   37.6980   29.5170   52.4620 H   0  0  0  0  0  0  0  0  0  0  0  0
   38.7050   31.0400   50.7220 H   0  0  0  0  0  0  0  0  0  0  0  0
   34.1580   29.2870   50.1030 H   0  0  0  0  0  0  0  0  0  0  0  0
   36.2280   31.0620   46.4490 O   0  0  0  0  0  0  0  0  0  0  0  0
   35.9630   29.9450   45.6990 C   0  0  0  0  0  0  0  0  0  0  0  0
   34.5910   29.4280   46.0220 C   0  0  0  0  0  0  0  0  0  0  0  0
   33.8820   28.8690   44.7830 C   0  0  0  0  0  0  0  0  0  0  0  0
   34.8880   28.1130   43.9570 C   0  0  0  0  0  0  0  0  0  0  0  0
   35.8700   29.1040   43.3810 C   0  0  0  0  0  0  0  0  0  0  0  0
   35.8950   30.3580   44.2100 C   0  0  0  0  0  0  0  0  0  0  0  0
  1  6  1  1  0  0  0
  1  2  1  0  0  0  0
  2  7  1  6  0  0  0
  2  3  1  0  0  0  0
  2 14  1  0  0  0  0
  3  8  1  0  0  0  0
  3  9  1  0  0  0  0
  4  3  1  0  0  0  0
  5  1  1  0  0  0  0
  5  4  1  0  0  0  0
 10  5  1  0  0  0  0
 11  5  1  0  0  0  0
 12 18  1  0  0  0  0
 13 19  1  0  0  0  0
 13 12  2  0  0  0  0
 14 13  1  0  0  0  0
 15 14  2  0  0  0  0
 15 16  1  0  0  0  0
 16 17  2  0  0  0  0
 17 12  1  0  0  0  0
 20 16  1  0  0  0  0
 21  1  1  0  0  0  0
 22 23  1  0  0  0  0
 22 21  1  0  0  0  0
 24 23  1  0  0  0  0
 25 24  1  0  0  0  0
 26 25  1  0  0  0  0
 26 27  1  0  0  0  0
 27 22  1  0  0  0  0
M  END
>  <minimizedAffinity>
-4.4128685

>  <minimizedRMSD>
1.10654473

$$$$
