
     RDKit          3D

 40 42  0  0  0  0  0  0  0  0999 V2000
   34.7828   29.5441   47.5399 S   0  0  0  0  0  0  0  0  0  0  0  0
   37.3702   29.4829   50.5304 C   0  0  0  0  0  0  0  0  0  0  0  0
   37.9909   30.7231   50.5137 C   0  0  0  0  0  0  0  0  0  0  0  0
   37.5896   31.6296   49.5251 C   0  0  0  0  0  0  0  0  0  0  0  0
   36.6199   31.2526   48.6384 N   0  0  0  0  0  0  0  0  0  0  0  0
   36.0443   30.0361   48.6927 C   0  0  0  0  0  0  0  0  0  0  0  0
   36.4151   29.1379   49.6416 N   0  0  0  0  0  0  0  0  0  0  0  0
   32.3895   28.3487   47.4744 C   0  0  2  0  0  0  0  0  0  0  0  0
   33.6198   28.4054   48.3540 C   0  0  1  0  0  0  0  0  0  0  0  0
   34.1859   27.1548   48.3557 O   0  0  0  0  0  0  0  0  0  0  0  0
   33.5740   26.3759   47.4003 C   0  0  0  0  0  0  0  0  0  0  0  0
   32.8432   27.3348   46.4618 C   0  0  1  0  0  0  0  0  0  0  0  0
   32.1387   29.5933   46.8764 O   0  0  0  0  0  0  0  0  0  0  0  0
   31.7923   26.6929   45.8225 O   0  0  0  0  0  0  0  0  0  0  0  0
   37.6901   28.7970   51.2971 H   0  0  0  0  0  0  0  0  0  0  0  0
   38.7544   31.0389   51.2008 H   0  0  0  0  0  0  0  0  0  0  0  0
   37.9928   32.6287   49.4010 H   0  0  0  0  0  0  0  0  0  0  0  0
   31.5009   27.9931   48.0354 H   0  0  0  0  0  0  0  0  0  0  0  0
   33.3352   28.7613   49.3623 H   0  0  0  0  0  0  0  0  0  0  0  0
   32.8546   25.6474   47.8154 H   0  0  0  0  0  0  0  0  0  0  0  0
   34.3838   25.9183   46.7941 H   0  0  0  0  0  0  0  0  0  0  0  0
   33.5131   27.8104   45.7313 H   0  0  0  0  0  0  0  0  0  0  0  0
   32.0872   30.2898   47.5757 H   0  0  0  0  0  0  0  0  0  0  0  0
   31.8398   26.8040   44.4443 C   0  0  0  0  0  0  0  0  0  0  0  0
   31.4237   28.1933   43.9859 C   0  0  0  0  0  0  0  0  0  0  0  0
   32.3242   28.7385   42.9130 C   0  0  0  0  0  0  0  0  0  0  0  0
   32.6577   27.7138   41.8573 C   0  0  0  0  0  0  0  0  0  0  0  0
   33.0854   26.3847   42.4097 C   0  0  0  0  0  0  0  0  0  0  0  0
   33.2435   26.5680   43.9232 C   0  0  0  0  0  0  0  0  0  0  0  0
   31.1847   26.1032   43.9117 H   0  0  0  0  0  0  0  0  0  0  0  0
   30.3930   28.1892   43.5856 H   0  0  0  0  0  0  0  0  0  0  0  0
   31.4581   28.9101   44.8470 H   0  0  0  0  0  0  0  0  0  0  0  0
   31.7412   29.5486   42.3943 H   0  0  0  0  0  0  0  0  0  0  0  0
   33.1911   29.2433   43.3453 H   0  0  0  0  0  0  0  0  0  0  0  0
   33.5218   28.1273   41.2822 H   0  0  0  0  0  0  0  0  0  0  0  0
   31.8152   27.6477   41.1275 H   0  0  0  0  0  0  0  0  0  0  0  0
   32.1968   25.6979   42.2925 H   0  0  0  0  0  0  0  0  0  0  0  0
   33.9797   25.9681   41.9364 H   0  0  0  0  0  0  0  0  0  0  0  0
   33.8844   27.4582   44.0513 H   0  0  0  0  0  0  0  0  0  0  0  0
   33.6768   25.6431   44.3449 H   0  0  0  0  0  0  0  0  0  0  0  0
  1  6  1  0
  3  2  2  0
  4  3  1  0
  5  6  1  0
  5  4  2  0
  6  7  2  0
  7  2  1  0
  8 13  1  0
  8  9  1  0
  9  1  1  0
  9 10  1  0
 11 10  1  0
 12 14  1  0
 12 11  1  0
 12  8  1  0
  2 15  1  0
  3 16  1  0
  4 17  1  0
  8 18  1  1
  9 19  1  1
 11 20  1  0
 11 21  1  0
 12 22  1  6
 13 23  1  0
 24 25  1  0
 25 26  1  0
 26 27  1  0
 27 28  1  0
 28 29  1  0
 29 24  1  0
 24 30  1  0
 25 31  1  0
 25 32  1  0
 26 33  1  0
 26 34  1  0
 27 35  1  0
 27 36  1  0
 28 37  1  0
 28 38  1  0
 29 39  1  0
 29 40  1  0
 14 24  1  0
M  ISO  8  15  14  16  14  17  14  18  13  19  13  20  13  21  13  22  13
M  ISO  1  23   3
M  END
>  <DihAtoms>  (1) 
11,13,23,24

>  <DihDeg>  (1) 
119.95345415140399

$$$$
