
 OpenBabel03272506393D

 34 36  0  0  1  0  0  0  0  0999 V2000
   34.6380   28.3630   49.8430 O   0  0  0  0  0  0  0  0  0  0  0  0
   34.4260   28.8530   48.7270 C   0  0  0  0  0  0  0  0  0  0  0  0
   35.1680   30.0000   48.2470 C   0  0  2  0  0  0  0  0  0  0  0  0
   34.6780   30.0710   46.7590 C   0  0  0  0  0  0  0  0  0  0  0  0
   33.3010   29.4680   46.8460 C   0  0  0  0  0  0  0  0  0  0  0  0
   33.4520   28.3670   47.7900 N   0  0  0  0  0  0  0  0  0  0  0  0
   34.8820   30.9610   48.7110 H   0  0  0  0  0  0  0  0  0  0  0  0
   34.7010   31.1010   46.3950 H   0  0  0  0  0  0  0  0  0  0  0  0
   35.3090   29.3740   46.1960 H   0  0  0  0  0  0  0  0  0  0  0  0
   32.9370   29.1200   45.8660 H   0  0  0  0  0  0  0  0  0  0  0  0
   32.6070   30.1850   47.3260 H   0  0  0  0  0  0  0  0  0  0  0  0
   32.7620   27.0840   47.7580 C   0  0  0  0  0  0  0  0  0  0  0  0
   33.2160   26.3610   48.4660 H   0  0  0  0  0  0  0  0  0  0  0  0
   32.8560   26.6990   46.7320 H   0  0  0  0  0  0  0  0  0  0  0  0
   31.3000   27.2550   48.0380 C   0  0  0  0  0  3  0  0  0  0  0  0
   31.1830   27.9050   49.4230 C   0  0  0  0  0  2  0  0  0  0  0  0
   29.7770   27.9220   49.9280 C   0  0  0  0  0  2  0  0  0  0  0  0
   28.8270   27.7610   48.7710 C   0  0  0  0  0  2  0  0  0  0  0  0
   29.2800   28.6500   47.6220 C   0  0  0  0  0  2  0  0  0  0  0  0
   30.6140   28.2040   47.0770 C   0  0  0  0  0  2  0  0  0  0  0  0
   36.5770   29.8030   48.1680 O   0  0  0  0  0  0  0  0  0  0  0  0
   37.3920   30.9300   48.2600 C   0  0  0  0  0  0  0  0  0  0  0  0
   37.5390   31.4900   49.5170 C   0  0  0  0  0  0  0  0  0  0  0  0
   38.3440   32.6130   49.6420 C   0  0  0  0  0  0  0  0  0  0  0  0
   38.9490   33.1130   48.5310 N   0  0  0  0  0  0  0  0  0  0  0  0
   38.7960   32.5600   47.3190 C   0  0  0  0  0  0  0  0  0  0  0  0
   38.0240   31.4810   47.2020 N   0  0  0  0  0  0  0  0  0  0  0  0
   40.3260   32.1820   45.5450 C   0  0  0  0  0  0  0  0  0  0  0  0
   40.5810   30.9980   45.8820 O   0  0  0  0  0  0  0  0  0  0  0  0
   39.4410   33.1090   46.1720 N   0  0  0  0  0  0  0  0  0  0  0  0
   37.0900   31.1420   50.4240 H   0  0  0  0  0  0  0  0  0  0  0  0
   38.4930   33.0850   50.5900 H   0  0  0  0  0  0  0  0  0  0  0  0
   40.9280   32.3570   44.6620 H   0  0  0  0  0  0  0  0  0  0  0  0
   39.3670   34.0530   45.7340 H   0  0  0  0  0  0  0  0  0  0  0  0
  2  1  2  0  0  0  0
  3  7  1  1  0  0  0
  3  2  1  0  0  0  0
  4  5  1  0  0  0  0
  4  3  1  0  0  0  0
  5 11  1  0  0  0  0
  5  6  1  0  0  0  0
  6  2  1  0  0  0  0
  8  4  1  0  0  0  0
  9  4  1  0  0  0  0
 10  5  1  0  0  0  0
 12  6  1  0  0  0  0
 12 15  1  0  0  0  0
 12 13  1  0  0  0  0
 14 12  1  0  0  0  0
 15 16  1  0  0  0  0
 16 17  1  0  0  0  0
 18 17  1  0  0  0  0
 19 18  1  0  0  0  0
 20 19  1  0  0  0  0
 20 15  1  0  0  0  0
 21  3  1  0  0  0  0
 21 22  1  0  0  0  0
 22 23  1  0  0  0  0
 23 24  2  0  0  0  0
 23 31  1  0  0  0  0
 24 32  1  0  0  0  0
 25 24  1  0  0  0  0
 26 25  2  0  0  0  0
 27 26  1  0  0  0  0
 27 22  2  0  0  0  0
 28 29  2  0  0  0  0
 28 30  1  0  0  0  0
 30 26  1  0  0  0  0
 33 28  1  0  0  0  0
 34 30  1  0  0  0  0
M  END
>  <minimizedAffinity>
-6.07960844

>  <minimizedRMSD>
1.13315618

$$$$
