
 OpenBabel03272503493D

 34 36  0  0  1  0  0  0  0  0999 V2000
   33.0930   27.3120   45.8930 C   0  0  1  0  0  0  0  0  0  0  0  0
   33.9070   27.4700   47.1960 C   0  0  2  0  0  0  0  0  0  0  0  0
   33.8080   26.2430   47.7730 O   0  0  0  0  0  0  0  0  0  0  0  0
   34.0500   25.3500   46.7430 C   0  0  0  0  0  0  0  0  0  0  0  0
   33.4620   25.9160   45.4870 C   0  0  2  0  0  0  0  0  0  0  0  0
   33.5080   28.0250   45.1630 H   0  0  0  0  0  0  0  0  0  0  0  0
   34.9350   27.7880   46.8810 H   0  0  0  0  0  0  0  0  0  0  0  0
   33.4970   24.4160   46.9910 H   0  0  0  0  0  0  0  0  0  0  0  0
   35.1480   25.2150   46.6920 H   0  0  0  0  0  0  0  0  0  0  0  0
   32.5970   25.3260   45.1280 H   0  0  0  0  0  0  0  0  0  0  0  0
   31.7490   27.5060   46.1410 O   0  0  0  0  0  0  0  0  0  0  0  0
   31.3720   28.0360   45.3800 H   0  0  0  0  0  0  0  0  0  0  0  0
   33.3190   28.5140   47.8480 O   0  0  0  0  0  0  0  0  0  0  0  0
   35.3470   29.8120   46.7660 O   0  0  0  0  0  0  0  0  0  0  0  0
   34.0960   29.9890   47.6130 P   0  0  1  0  0  0  0  0  0  0  0  0
   33.1040   31.0310   46.7180 O   0  0  0  0  0  0  0  0  0  0  0  0
   32.1530   30.8800   46.9860 H   0  0  0  0  0  0  0  0  0  0  0  0
   34.4050   30.6340   49.1630 O   0  0  0  0  0  0  0  0  0  0  0  0
   35.6420   30.5120   49.7730 C   0  0  0  0  0  0  0  0  0  0  0  0
   35.9780   29.4910   50.6890 C   0  0  0  0  0  0  0  0  0  0  0  0
   37.2590   29.4930   51.2230 C   0  0  0  0  0  0  0  0  0  0  0  0
   38.1270   30.4750   50.8420 N   0  0  0  0  0  0  0  0  0  0  0  0
   37.7790   31.4470   49.9580 C   0  0  0  0  0  0  0  0  0  0  0  0
   36.5250   31.4630   49.4210 N   0  0  0  0  0  0  0  0  0  0  0  0
   35.2110   28.7650   50.9190 H   0  0  0  0  0  0  0  0  0  0  0  0
   37.5230   28.7150   51.9250 H   0  0  0  0  0  0  0  0  0  0  0  0
   38.5120   32.1970   49.6950 H   0  0  0  0  0  0  0  0  0  0  0  0
   34.4210   25.9550   44.4750 O   0  0  0  0  0  0  0  0  0  0  0  0
   35.0030   24.7260   44.2400 C   0  0  0  0  0  3  0  0  0  0  0  0
   34.1980   23.8920   43.2620 C   0  0  0  0  0  2  0  0  0  0  0  0
   34.4430   24.4300   41.8620 C   0  0  0  0  0  2  0  0  0  0  0  0
   35.8470   24.1880   41.3950 C   0  0  0  0  0  2  0  0  0  0  0  0
   36.6770   23.8030   42.6090 C   0  0  0  0  0  2  0  0  0  0  0  0
   36.3910   24.8790   43.6460 C   0  0  0  0  0  2  0  0  0  0  0  0
  1  6  1  6  0  0  0
  1 11  1  0  0  0  0
  1  2  1  0  0  0  0
  2  7  1  6  0  0  0
  2  3  1  0  0  0  0
  2 13  1  0  0  0  0
  4  8  1  0  0  0  0
  4  3  1  0  0  0  0
  5 10  1  6  0  0  0
  5  1  1  0  0  0  0
  5  4  1  0  0  0  0
  9  4  1  0  0  0  0
 12 11  1  0  0  0  0
 15 14  2  6  0  0  0
 15 13  1  0  0  0  0
 15 18  1  0  0  0  0
 16 17  1  0  0  0  0
 16 15  1  0  0  0  0
 18 19  1  0  0  0  0
 19 20  1  0  0  0  0
 20 25  1  0  0  0  0
 20 21  2  0  0  0  0
 21 26  1  0  0  0  0
 22 21  1  0  0  0  0
 23 22  2  0  0  0  0
 24 19  2  0  0  0  0
 24 23  1  0  0  0  0
 27 23  1  0  0  0  0
 28  5  1  0  0  0  0
 29 28  1  0  0  0  0
 30 29  1  0  0  0  0
 31 30  1  0  0  0  0
 32 31  1  0  0  0  0
 32 33  1  0  0  0  0
 33 34  1  0  0  0  0
 34 29  1  0  0  0  0
M  END
>  <minimizedAffinity>
-4.10153627

>  <minimizedRMSD>
1.80634344

$$$$
