
 OpenBabel03272509313D

 35 37  0  0  1  0  0  0  0  0999 V2000
   36.3140   30.6940   48.9960 C   0  0  2  0  0  0  0  0  0  0  0  0
   37.2460   31.5820   49.7620 C   0  0  0  0  0  0  0  0  0  0  0  0
   38.1270   30.8220   50.7280 C   0  0  0  0  0  0  0  0  0  0  0  0
   37.2850   29.9970   51.6930 C   0  0  0  0  0  0  0  0  0  0  0  0
   36.0570   29.3890   51.0700 C   0  0  0  0  0  0  0  0  0  0  0  0
   36.2620   29.3100   49.5490 C   0  0  1  0  0  0  0  0  0  0  0  0
   35.2470   31.0900   48.9690 H   0  0  0  0  0  0  0  0  0  0  0  0
   36.5630   32.1840   50.4510 H   0  0  0  0  0  0  0  0  0  0  0  0
   37.7940   32.3240   49.2110 H   0  0  0  0  0  0  0  0  0  0  0  0
   38.6320   31.5830   51.3650 H   0  0  0  0  0  0  0  0  0  0  0  0
   38.8840   30.2000   50.2580 H   0  0  0  0  0  0  0  0  0  0  0  0
   36.9500   30.6120   52.5650 H   0  0  0  0  0  0  0  0  0  0  0  0
   37.9430   29.2100   52.1190 H   0  0  0  0  0  0  0  0  0  0  0  0
   35.1320   29.9520   51.2160 H   0  0  0  0  0  0  0  0  0  0  0  0
   35.9510   28.3450   51.4190 H   0  0  0  0  0  0  0  0  0  0  0  0
   37.2160   28.8420   49.4950 H   0  0  0  0  0  0  0  0  0  0  0  0
   36.7050   30.6210   47.5610 C   0  0  0  0  0  0  0  0  0  0  0  0
   38.0650   30.8030   47.2900 C   0  0  0  0  0  0  0  0  0  0  0  0
   38.4500   30.7320   45.9460 C   0  0  0  0  0  0  0  0  0  0  0  0
   37.4910   30.4900   44.9890 N   0  0  0  0  0  0  0  0  0  0  0  0
   36.1700   30.3170   45.3120 C   0  0  0  0  0  0  0  0  0  0  0  0
   35.7960   30.3870   46.6010 N   0  0  0  0  0  0  0  0  0  0  0  0
   38.9020   30.9870   47.9330 H   0  0  0  0  0  0  0  0  0  0  0  0
   39.4560   30.8540   45.6010 H   0  0  0  0  0  0  0  0  0  0  0  0
   35.4860   30.1330   44.5070 H   0  0  0  0  0  0  0  0  0  0  0  0
   33.9920   28.3090   49.0460 C   0  0  0  0  0  0  0  0  0  0  0  0
   33.1720   28.9710   49.7450 O   0  0  0  0  0  0  0  0  0  0  0  0
   35.3970   28.4130   48.8780 N   0  0  0  0  0  0  0  0  0  0  0  0
   35.6750   27.6870   48.1480 H   0  0  0  0  0  0  0  0  0  0  0  0
   33.0660   27.3350   48.4070 C   0  0  0  0  0  3  0  0  0  0  0  0
   32.1560   28.1590   47.5170 C   0  0  0  0  0  2  0  0  0  0  0  0
   31.2200   27.2050   46.8100 C   0  0  0  0  0  2  0  0  0  0  0  0
   31.2920   25.8230   47.4150 C   0  0  0  0  0  2  0  0  0  0  0  0
   32.6860   25.2330   47.3010 C   0  0  0  0  0  2  0  0  0  0  0  0
   33.7470   26.3050   47.5680 C   0  0  0  0  0  2  0  0  0  0  0  0
  1  7  1  1  0  0  0
  1  6  1  0  0  0  0
  1  2  1  0  0  0  0
  2  8  1  0  0  0  0
  2  3  1  0  0  0  0
  3 10  1  0  0  0  0
  3  4  1  0  0  0  0
  4 13  1  0  0  0  0
  4 12  1  0  0  0  0
  5 14  1  0  0  0  0
  5 15  1  0  0  0  0
  5  4  1  0  0  0  0
  6 16  1  6  0  0  0
  6  5  1  0  0  0  0
  9  2  1  0  0  0  0
 11  3  1  0  0  0  0
 17  1  1  0  0  0  0
 18 17  1  0  0  0  0
 18 23  1  0  0  0  0
 19 18  2  0  0  0  0
 20 21  2  0  0  0  0
 20 19  1  0  0  0  0
 21 22  1  0  0  0  0
 22 17  2  0  0  0  0
 24 19  1  0  0  0  0
 25 21  1  0  0  0  0
 26 27  2  0  0  0  0
 28 26  1  0  0  0  0
 28  6  1  0  0  0  0
 29 28  1  0  0  0  0
 30 26  1  0  0  0  0
 31 30  1  0  0  0  0
 32 33  1  0  0  0  0
 32 31  1  0  0  0  0
 34 33  1  0  0  0  0
 34 35  1  0  0  0  0
 35 30  1  0  0  0  0
M  END
>  <minimizedAffinity>
-6.08537865

>  <minimizedRMSD>
0.421281099

$$$$
