REMARK  Name = 
REMARK  2 active torsions:
REMARK  status: ('A' for Active; 'I' for Inactive)
REMARK    1  A    between atoms: C_3  and  C_7
REMARK    2  A    between atoms: C_7  and  C_13
REMARK                            x       y       z     vdW  Elec       q    Type
REMARK                         _______ _______ _______ _____ _____    ______ ____
ROOT
ATOM      1  C   UNL     1      37.368  30.222  51.327  0.00  0.00    +0.000 A 
ATOM      2  C   UNL     1      38.024  30.690  50.163  0.00  0.00    +0.000 A 
ATOM      3  C   UNL     1      37.479  30.299  48.928  0.00  0.00    +0.000 A 
ATOM      4  N   UNL     1      36.378  29.512  48.902  0.00  0.00    +0.000 NA
ATOM      5  C   UNL     1      35.788  29.091  50.042  0.00  0.00    +0.000 A 
ATOM      6  N   UNL     1      36.289  29.450  51.245  0.00  0.00    +0.000 NA
ATOM      7  H   UNL     1      37.759  30.503  52.302  0.00  0.00    +0.000 HD
ATOM      8  H   UNL     1      38.886  31.306  50.277  0.00  0.00    +0.000 HD
ATOM      9  H   UNL     1      34.907  28.461  49.918  0.00  0.00    +0.000 HD
ENDROOT
BRANCH   3  10
ATOM     10  C   UNL     1      38.173  30.793  47.714  0.00  0.00    +0.000 C 
ATOM     11  H   UNL     1      37.371  30.920  46.955  0.00  0.00    +0.000 HD
ATOM     12  H   UNL     1      38.607  31.788  47.862  0.00  0.00    +0.000 HD
BRANCH  10  13
ATOM     13  C   UNL     1      39.254  29.890  47.211  0.00  0.00    +0.000 C 
ATOM     14  C   UNL     1      40.286  30.792  46.541  0.00  0.00    +0.000 C 
ATOM     15  C   UNL     1      41.022  30.063  45.450  0.00  0.00    +0.000 C 
ATOM     16  C   UNL     1      40.046  29.809  44.320  0.00  0.00    +0.000 C 
ATOM     17  C   UNL     1      38.707  29.340  44.826  0.00  0.00    +0.000 C 
ATOM     18  C   UNL     1      38.780  28.834  46.251  0.00  0.00    +0.000 C 
ENDBRANCH  10  13
ENDBRANCH   3  10
TORSDOF 2
