
 OpenBabel03272505243D

 25 27  0  0  0  0  0  0  0  0999 V2000
   36.3110   29.1950   51.0340 C   0  0  0  0  0  0  0  0  0  0  0  0
   36.6140   29.4440   49.6690 C   0  0  0  0  0  0  0  0  0  0  0  0
   35.5810   29.8080   48.8070 C   0  0  0  0  0  0  0  0  0  0  0  0
   34.3440   29.9030   49.3250 N   0  0  0  0  0  0  0  0  0  0  0  0
   34.0430   29.6700   50.6160 C   0  0  0  0  0  0  0  0  0  0  0  0
   35.0360   29.3150   51.4690 N   0  0  0  0  0  0  0  0  0  0  0  0
   35.8160   30.0690   47.4420 N   0  0  0  0  0  0  0  0  0  0  0  0
   34.8930   29.7910   46.4980 C   0  0  0  0  0  0  0  0  0  0  0  0
   35.1380   30.0410   45.1500 C   0  0  0  0  0  0  0  0  0  0  0  0
   36.3830   30.5950   44.8010 C   0  0  0  0  0  0  0  0  0  0  0  0
   36.6430   30.8330   43.6100 O   0  0  0  0  0  0  0  0  0  0  0  0
   37.3040   30.8710   45.7680 N   0  0  0  0  0  0  0  0  0  0  0  0
   36.9710   30.5930   47.0350 C   0  0  0  0  0  0  0  0  0  0  0  0
   37.8470   30.8640   47.8990 O   0  0  0  0  0  0  0  0  0  0  0  0
   37.0820   28.9080   51.7520 H   0  0  0  0  0  0  0  0  0  0  0  0
   37.6330   29.3060   49.4500 H   0  0  0  0  0  0  0  0  0  0  0  0
   33.0270   29.7610   50.9800 H   0  0  0  0  0  0  0  0  0  0  0  0
   33.9370   29.3640   46.7680 H   0  0  0  0  0  0  0  0  0  0  0  0
   34.4310   29.8370   44.3590 H   0  0  0  0  0  0  0  0  0  0  0  0
   38.5890   31.4410   45.4280 C   0  0  0  0  0  0  0  0  0  0  0  0
   39.4860   30.4650   44.7280 C   0  0  0  0  0  0  0  0  0  0  0  0
   40.7220   31.1800   44.2580 C   0  0  0  0  0  0  0  0  0  0  0  0
   40.9850   32.4510   45.0350 C   0  0  0  0  0  0  0  0  0  0  0  0
   39.8610   33.4480   44.8550 C   0  0  0  0  0  0  0  0  0  0  0  0
   38.5240   32.7140   44.6630 C   0  0  0  0  0  0  0  0  0  0  0  0
  1  6  1  0  0  0  0
  1 15  1  0  0  0  0
  2  1  2  0  0  0  0
  3  4  2  0  0  0  0
  3  2  1  0  0  0  0
  4  5  1  0  0  0  0
  5 17  1  0  0  0  0
  5  6  2  0  0  0  0
  7  3  1  0  0  0  0
  8 18  1  0  0  0  0
  8  7  1  0  0  0  0
  9  8  2  0  0  0  0
 10  9  1  0  0  0  0
 10 12  1  0  0  0  0
 11 10  2  0  0  0  0
 12 13  1  0  0  0  0
 13  7  1  0  0  0  0
 13 14  2  0  0  0  0
 16  2  1  0  0  0  0
 19  9  1  0  0  0  0
 20 12  1  0  0  0  0
 21 20  1  0  0  0  0
 22 21  1  0  0  0  0
 22 23  1  0  0  0  0
 24 23  1  0  0  0  0
 25 24  1  0  0  0  0
 25 20  1  0  0  0  0
M  END
>  <minimizedAffinity>
-5.7597928

>  <minimizedRMSD>
3.84371758

$$$$
