
     RDKit          3D

 33 34  0  0  0  0  0  0  0  0999 V2000
   37.0621   29.4066   51.1644 C   0  0  0  0  0  0  0  0  0  0  0  0
   37.6844   30.0098   50.0725 C   0  0  0  0  0  0  0  0  0  0  0  0
   36.9070   30.4854   49.0360 C   0  0  0  0  0  0  0  0  0  0  0  0
   35.5386   30.3306   49.1489 N   0  0  0  0  0  0  0  0  0  0  0  0
   34.9858   29.7478   50.2108 C   0  0  0  0  0  0  0  0  0  0  0  0
   35.7170   29.2769   51.2310 N   0  0  0  0  0  0  0  0  0  0  0  0
   37.4529   31.1352   47.8417 C   0  0  0  0  0  0  0  0  0  0  0  0
   38.7593   31.8555   48.1755 C   0  0  0  0  0  0  0  0  0  0  0  0
   38.4460   33.3554   49.0963 S   0  0  0  0  0  0  0  0  0  0  0  0
   37.7248   29.0536   51.9449 H   0  0  0  0  0  0  0  0  0  0  0  0
   38.7386   30.1007   50.0443 H   0  0  0  0  0  0  0  0  0  0  0  0
   33.9101   29.6267   50.2983 H   0  0  0  0  0  0  0  0  0  0  0  0
   37.6821   30.3593   47.0854 H   0  0  0  0  0  0  0  0  0  0  0  0
   36.7770   31.9190   47.4441 H   0  0  0  0  0  0  0  0  0  0  0  0
   39.5476   31.2061   48.5468 H   0  0  0  0  0  0  0  0  0  0  0  0
   39.1193   32.1911   47.1553 H   0  0  0  0  0  0  0  0  0  0  0  0
   39.5210   34.7283   48.6443 C   0  0  0  0  0  0  0  0  0  0  0  0
   39.5609   35.7088   49.7904 C   0  0  0  0  0  0  0  0  0  0  0  0
   39.7100   37.1307   49.2684 C   0  0  0  0  0  0  0  0  0  0  0  0
   40.5549   37.1176   48.0161 C   0  0  0  0  0  0  0  0  0  0  0  0
   39.8434   36.4539   46.8652 C   0  0  0  0  0  0  0  0  0  0  0  0
   38.9172   35.4021   47.4307 C   0  0  0  0  0  0  0  0  0  0  0  0
   40.5402   34.3885   48.3503 H   0  0  0  0  0  0  0  0  0  0  0  0
   40.3369   35.4867   50.5332 H   0  0  0  0  0  0  0  0  0  0  0  0
   38.5715   35.6290   50.3157 H   0  0  0  0  0  0  0  0  0  0  0  0
   40.2225   37.7466   50.0121 H   0  0  0  0  0  0  0  0  0  0  0  0
   38.7229   37.5718   49.0888 H   0  0  0  0  0  0  0  0  0  0  0  0
   41.4504   36.4959   48.2329 H   0  0  0  0  0  0  0  0  0  0  0  0
   40.7903   38.1537   47.7383 H   0  0  0  0  0  0  0  0  0  0  0  0
   40.5753   35.9126   46.2073 H   0  0  0  0  0  0  0  0  0  0  0  0
   39.2902   37.1633   46.2201 H   0  0  0  0  0  0  0  0  0  0  0  0
   37.9234   35.7960   47.7263 H   0  0  0  0  0  0  0  0  0  0  0  0
   38.7206   34.5830   46.6823 H   0  0  0  0  0  0  0  0  0  0  0  0
  1  6  2  0
  2  1  1  0
  3  4  1  0
  3  2  2  0
  4  5  2  0
  5  6  1  0
  7  8  1  0
  7  3  1  0
  8  9  1  0
  1 10  1  0
  2 11  1  0
  5 12  1  0
  7 13  1  0
  7 14  1  0
  8 15  1  0
  8 16  1  0
 17 18  1  0
 18 19  1  0
 19 20  1  0
 20 21  1  0
 21 22  1  0
 22 17  1  0
 17 23  1  0
 18 24  1  0
 18 25  1  0
 19 26  1  0
 19 27  1  0
 20 28  1  0
 20 29  1  0
 21 30  1  0
 21 31  1  0
 22 32  1  0
 22 33  1  0
  9 17  1  0
M  ISO  7  10  14  11  14  12  14  13   8  14   8  15   8  16   8
M  END
>  <DihAtoms>  (1) 
7,8,16,17

>  <DihDeg>  (1) 
-67.83904292588649

$$$$
