
     RDKit          3D

 28 29  0  0  0  0  0  0  0  0999 V2000
   37.2613   30.1772   51.4448 C   0  0  0  0  0  0  0  0  0  0  0  0
   38.0925   30.7529   50.4478 C   0  0  0  0  0  0  0  0  0  0  0  0
   37.8017   30.4929   49.0907 C   0  0  0  0  0  0  0  0  0  0  0  0
   36.7406   29.7049   48.8216 N   0  0  0  0  0  0  0  0  0  0  0  0
   35.9745   29.1757   49.7818 C   0  0  0  0  0  0  0  0  0  0  0  0
   36.2167   29.3978   51.0696 N   0  0  0  0  0  0  0  0  0  0  0  0
   34.8251   28.3199   49.5133 C   0  0  0  0  0  0  0  0  0  0  0  0
   33.6377   28.7116   49.5493 O   0  0  0  0  0  0  0  0  0  0  0  0
   37.5490   30.4230   52.4575 H   0  0  0  0  0  0  0  0  0  0  0  0
   38.9360   31.3807   50.7027 H   0  0  0  0  0  0  0  0  0  0  0  0
   38.4303   30.9280   48.3253 H   0  0  0  0  0  0  0  0  0  0  0  0
   35.1072   26.9022   49.1794 C   0  0  0  0  0  0  0  0  0  0  0  0
   34.4756   25.9457   50.1541 C   0  0  0  0  0  0  0  0  0  0  0  0
   35.1632   24.6139   49.9962 C   0  0  0  0  0  0  0  0  0  0  0  0
   35.4767   24.3184   48.5693 C   0  0  0  0  0  0  0  0  0  0  0  0
   34.6263   25.0679   47.5866 C   0  0  0  0  0  0  0  0  0  0  0  0
   34.5753   26.5359   47.8055 C   0  0  0  0  0  0  0  0  0  0  0  0
   36.1907   26.6702   49.1606 H   0  0  0  0  0  0  0  0  0  0  0  0
   34.4968   26.3156   51.1907 H   0  0  0  0  0  0  0  0  0  0  0  0
   33.4174   25.7783   49.8013 H   0  0  0  0  0  0  0  0  0  0  0  0
   34.6348   23.7919   50.5130 H   0  0  0  0  0  0  0  0  0  0  0  0
   36.1560   24.7163   50.5116 H   0  0  0  0  0  0  0  0  0  0  0  0
   36.5385   24.4498   48.3034 H   0  0  0  0  0  0  0  0  0  0  0  0
   35.2504   23.2313   48.3975 H   0  0  0  0  0  0  0  0  0  0  0  0
   35.1140   24.8960   46.5826 H   0  0  0  0  0  0  0  0  0  0  0  0
   33.6386   24.5614   47.5083 H   0  0  0  0  0  0  0  0  0  0  0  0
   35.1636   27.1105   47.0595 H   0  0  0  0  0  0  0  0  0  0  0  0
   33.4996   26.8515   47.7395 H   0  0  0  0  0  0  0  0  0  0  0  0
  2  1  2  0
  3  2  1  0
  4  3  2  0
  4  5  1  0
  5  6  2  0
  6  1  1  0
  7  8  2  0
  7  5  1  0
  1  9  1  0
  2 10  1  0
  3 11  1  0
 12 13  1  0
 13 14  1  0
 14 15  1  0
 15 16  1  0
 16 17  1  0
 17 12  1  0
 12 18  1  0
 13 19  1  0
 13 20  1  0
 14 21  1  0
 14 22  1  0
 15 23  1  0
 15 24  1  0
 16 25  1  0
 16 26  1  0
 17 27  1  0
 17 28  1  0
  7 12  1  0
M  ISO  3   9  14  10  14  11  14
M  END
>  <DihAtoms>  (1) 
7,6,11,12

>  <DihDeg>  (1) 
119.99403310228196

$$$$
