REMARK  Name = 
REMARK  5 active torsions:
REMARK  status: ('A' for Active; 'I' for Inactive)
REMARK    1  A    between atoms: C_1  and  C_7
REMARK    2  A    between atoms: C_6  and  C_15
REMARK    3  A    between atoms: C_7  and  C_13
REMARK    4  A    between atoms: C_16  and  C_17
REMARK    5  A    between atoms: C_17  and  C_29
REMARK                            x       y       z     vdW  Elec       q    Type
REMARK                         _______ _______ _______ _____ _____    ______ ____
ROOT
ATOM      1  C   UNL     1      37.133  30.968  49.019  0.00  0.00    +0.000 A 
ATOM      2  C   UNL     1      36.912  31.929  50.007  0.00  0.00    +0.000 A 
ATOM      3  C   UNL     1      37.558  33.160  49.980  0.00  0.00    +0.000 A 
ATOM      4  C   UNL     1      38.450  33.457  48.951  0.00  0.00    +0.000 A 
ATOM      5  C   UNL     1      38.651  32.496  47.994  0.00  0.00    +0.000 A 
ATOM      6  C   UNL     1      38.001  31.280  48.037  0.00  0.00    +0.000 A 
ATOM      7  H   UNL     1      36.228  31.723  50.810  0.00  0.00    +0.000 HD
ATOM      8  H   UNL     1      37.340  33.861  50.777  0.00  0.00    +0.000 HD
ATOM      9  H   UNL     1      38.925  34.420  48.973  0.00  0.00    +0.000 HD
ATOM     10  H   UNL     1      39.359  32.807  47.231  0.00  0.00    +0.000 HD
ENDROOT
BRANCH   1  11
ATOM     11  C   UNL     1      36.417  29.708  49.122  0.00  0.00    +0.000 C 
ATOM     12  O   UNL     1      36.926  28.863  49.949  0.00  0.00    +0.000 OA
BRANCH  11  17
ATOM     13  C   UNL     1      33.629  30.181  46.850  0.00  0.00    +0.000 A 
ATOM     14  C   UNL     1      32.962  28.956  46.875  0.00  0.00    +0.000 A 
ATOM     15  C   UNL     1      33.471  27.952  47.680  0.00  0.00    +0.000 A 
ATOM     16  N   UNL     1      34.594  28.193  48.413  0.00  0.00    +0.000 NA
ATOM     17  C   UNL     1      35.210  29.367  48.372  0.00  0.00    +0.000 A 
ATOM     18  N   UNL     1      34.713  30.341  47.589  0.00  0.00    +0.000 NA
ATOM     19  H   UNL     1      33.231  30.960  46.223  0.00  0.00    +0.000 HD
ATOM     20  H   UNL     1      32.063  28.759  46.290  0.00  0.00    +0.000 HD
ATOM     21  H   UNL     1      32.991  26.985  47.734  0.00  0.00    +0.000 HD
ENDBRANCH  11  17
ENDBRANCH   1  11
BRANCH   6  22
ATOM     22  C   UNL     1      38.332  30.388  46.950  0.00  0.00    +0.000 C 
ATOM     23  C   UNL     1      38.806  30.698  45.764  0.00  0.00    +0.000 C 
BRANCH  23  24
ATOM     24  C   UNL     1      39.194  29.918  44.596  0.00  0.00    +0.000 C 
ATOM     25  H   UNL     1      38.704  30.274  43.666  0.00  0.00    +0.000 HD
ATOM     26  H   UNL     1      40.295  30.087  44.413  0.00  0.00    +0.000 HD
BRANCH  24  27
ATOM     27  C   UNL     1      39.079  28.416  44.755  0.00  0.00    +0.000 C 
ATOM     28  C   UNL     1      38.093  27.950  43.706  0.00  0.00    +0.000 C 
ATOM     29  C   UNL     1      38.055  26.444  43.588  0.00  0.00    +0.000 C 
ATOM     30  C   UNL     1      39.450  25.855  43.533  0.00  0.00    +0.000 C 
ATOM     31  C   UNL     1      40.425  27.001  43.240  0.00  0.00    +0.000 C 
ATOM     32  C   UNL     1      40.458  27.840  44.519  0.00  0.00    +0.000 C 
ENDBRANCH  24  27
ENDBRANCH  23  24
ENDBRANCH   6  22
TORSDOF 5
