
     RDKit          3D

 37 39  0  0  0  0  0  0  0  0999 V2000
   37.1149   30.2747   50.3147 C   0  0  0  0  0  0  0  0  0  0  0  0
   37.5079   30.1317   51.4939 O   0  0  0  0  0  0  0  0  0  0  0  0
   37.7926   31.0916   49.3346 C   0  0  0  0  0  0  0  0  0  0  0  0
   38.1132   32.3924   49.7010 C   0  0  0  0  0  0  0  0  0  0  0  0
   38.7638   33.1939   48.7760 C   0  0  0  0  0  0  0  0  0  0  0  0
   39.0571   32.6719   47.5570 N   0  0  0  0  0  0  0  0  0  0  0  0
   38.7369   31.4086   47.2236 C   0  0  0  0  0  0  0  0  0  0  0  0
   38.1093   30.6274   48.1086 N   0  0  0  0  0  0  0  0  0  0  0  0
   35.9137   29.5833   49.9084 C   0  0  0  0  0  0  0  0  0  0  0  0
   34.6833   29.8967   50.3969 C   0  0  0  0  0  0  0  0  0  0  0  0
   33.7631   29.0297   49.7869 C   0  0  0  0  0  0  0  0  0  0  0  0
   34.5279   28.2196   48.9384 C   0  0  0  0  0  0  0  0  0  0  0  0
   35.7578   28.5965   49.0612 O   0  0  0  0  0  0  0  0  0  0  0  0
   33.9805   27.1556   48.0900 C   0  0  0  0  0  0  0  0  0  0  0  0
   32.7329   26.9184   48.1048 O   0  0  0  0  0  0  0  0  0  0  0  0
   37.9026   32.8572   50.6581 H   0  0  0  0  0  0  0  0  0  0  0  0
   39.0290   34.2194   49.0331 H   0  0  0  0  0  0  0  0  0  0  0  0
   38.9593   30.9685   46.2593 H   0  0  0  0  0  0  0  0  0  0  0  0
   34.3360   30.6368   51.1119 H   0  0  0  0  0  0  0  0  0  0  0  0
   32.6899   28.9772   49.9245 H   0  0  0  0  0  0  0  0  0  0  0  0
   34.9218   26.3863   47.2345 C   0  0  0  0  0  0  0  0  0  0  0  0
   34.3579   26.2301   45.8525 C   0  0  0  0  0  0  0  0  0  0  0  0
   34.9926   25.1156   45.0660 C   0  0  0  0  0  0  0  0  0  0  0  0
   35.1184   23.8403   45.8530 C   0  0  0  0  0  0  0  0  0  0  0  0
   36.0316   24.1807   47.0275 C   0  0  0  0  0  0  0  0  0  0  0  0
   35.2184   25.1032   47.9240 C   0  0  0  0  0  0  0  0  0  0  0  0
   35.8649   26.9853   47.1822 H   0  0  0  0  0  0  0  0  0  0  0  0
   34.5949   27.1631   45.2971 H   0  0  0  0  0  0  0  0  0  0  0  0
   33.2640   26.0438   45.8561 H   0  0  0  0  0  0  0  0  0  0  0  0
   34.4131   25.0043   44.1265 H   0  0  0  0  0  0  0  0  0  0  0  0
   36.0445   25.4282   44.8061 H   0  0  0  0  0  0  0  0  0  0  0  0
   35.5407   23.0717   45.1878 H   0  0  0  0  0  0  0  0  0  0  0  0
   34.1567   23.4896   46.2614 H   0  0  0  0  0  0  0  0  0  0  0  0
   36.9151   24.7360   46.6310 H   0  0  0  0  0  0  0  0  0  0  0  0
   36.3845   23.2961   47.5524 H   0  0  0  0  0  0  0  0  0  0  0  0
   35.8954   25.3296   48.7942 H   0  0  0  0  0  0  0  0  0  0  0  0
   34.3325   24.5632   48.2881 H   0  0  0  0  0  0  0  0  0  0  0  0
  1  2  2  0
  3  4  2  0
  3  1  1  0
  5  4  1  0
  6  5  2  0
  7  6  1  0
  7  8  2  0
  8  3  1  0
  9  1  1  0
  9 10  2  0
 11 10  1  0
 12 13  1  0
 12 11  2  0
 13  9  1  0
 14 15  2  0
 14 12  1  0
  4 16  1  0
  5 17  1  0
  7 18  1  0
 10 19  1  0
 11 20  1  0
 21 22  1  0
 22 23  1  0
 23 24  1  0
 24 25  1  0
 25 26  1  0
 26 21  1  0
 21 27  1  0
 22 28  1  0
 22 29  1  0
 23 30  1  0
 23 31  1  0
 24 32  1  0
 24 33  1  0
 25 34  1  0
 25 35  1  0
 26 36  1  0
 26 37  1  0
 14 21  1  0
M  ISO  5  16  14  17  14  18  14  19  14  20  14
M  END
>  <DihAtoms>  (1) 
14,13,20,21

>  <DihDeg>  (1) 
119.9888290701053

$$$$
