
     RDKit          3D

 45 47  0  0  0  0  0  0  0  0999 V2000
   35.3533   29.8344   46.7668 O   0  0  0  0  0  0  0  0  0  0  0  0
   34.0991   29.9958   47.6142 P   0  0  2  0  0  0  0  0  0  0  0  0
   33.0985   31.0322   46.7220 O   0  0  0  0  0  0  0  0  0  0  0  0
   34.4017   30.6374   49.1659 O   0  0  0  0  0  0  0  0  0  0  0  0
   35.6357   30.5124   49.7820 C   0  0  0  0  0  0  0  0  0  0  0  0
   35.9618   29.4942   50.7046 C   0  0  0  0  0  0  0  0  0  0  0  0
   37.2411   29.4918   51.2452 C   0  0  0  0  0  0  0  0  0  0  0  0
   38.1159   30.4668   50.8617 N   0  0  0  0  0  0  0  0  0  0  0  0
   37.7768   31.4358   49.9717 C   0  0  0  0  0  0  0  0  0  0  0  0
   36.5254   31.4560   49.4291 N   0  0  0  0  0  0  0  0  0  0  0  0
   33.3357   28.5126   47.8415 O   0  0  0  0  0  0  0  0  0  0  0  0
   33.0845   27.3372   45.8742 C   0  0  1  0  0  0  0  0  0  0  0  0
   33.9192   27.4810   47.1662 C   0  0  2  0  0  0  0  0  0  0  0  0
   33.8363   26.2457   47.7270 O   0  0  0  0  0  0  0  0  0  0  0  0
   34.0657   25.3688   46.6815 C   0  0  0  0  0  0  0  0  0  0  0  0
   33.4540   25.9494   45.4427 C   0  0  2  0  0  0  0  0  0  0  0  0
   31.7426   27.5193   46.1478 O   0  0  0  0  0  0  0  0  0  0  0  0
   34.3959   26.0081   44.4152 O   0  0  0  0  0  0  0  0  0  0  0  0
   32.1493   30.8719   46.9887 H   0  0  0  0  0  0  0  0  0  0  0  0
   35.1899   28.7725   50.9360 H   0  0  0  0  0  0  0  0  0  0  0  0
   37.4983   28.7156   51.9521 H   0  0  0  0  0  0  0  0  0  0  0  0
   38.5148   32.1805   49.7082 H   0  0  0  0  0  0  0  0  0  0  0  0
   33.4824   28.0623   45.1478 H   0  0  0  0  0  0  0  0  0  0  0  0
   34.9388   27.8098   46.8377 H   0  0  0  0  0  0  0  0  0  0  0  0
   33.5231   24.4285   46.9248 H   0  0  0  0  0  0  0  0  0  0  0  0
   35.1643   25.2412   46.6095 H   0  0  0  0  0  0  0  0  0  0  0  0
   32.5858   25.3587   45.0900 H   0  0  0  0  0  0  0  0  0  0  0  0
   31.3501   28.0580   45.3997 H   0  0  0  0  0  0  0  0  0  0  0  0
   33.9928   25.3331   43.2807 C   0  0  0  0  0  0  0  0  0  0  0  0
   32.9475   26.1047   42.4995 C   0  0  0  0  0  0  0  0  0  0  0  0
   33.6435   27.2301   41.7514 C   0  0  0  0  0  0  0  0  0  0  0  0
   34.5356   26.7212   40.6592 C   0  0  0  0  0  0  0  0  0  0  0  0
   34.7354   25.2316   40.8824 C   0  0  0  0  0  0  0  0  0  0  0  0
   35.1584   25.0990   42.3383 C   0  0  0  0  0  0  0  0  0  0  0  0
   33.5787   24.3565   43.6379 H   0  0  0  0  0  0  0  0  0  0  0  0
   32.1783   26.5376   43.1561 H   0  0  0  0  0  0  0  0  0  0  0  0
   32.4178   25.4423   41.7970 H   0  0  0  0  0  0  0  0  0  0  0  0
   32.9166   27.9522   41.3294 H   0  0  0  0  0  0  0  0  0  0  0  0
   34.2139   27.8005   42.5224 H   0  0  0  0  0  0  0  0  0  0  0  0
   34.1745   26.9472   39.6418 H   0  0  0  0  0  0  0  0  0  0  0  0
   35.5589   27.1686   40.8253 H   0  0  0  0  0  0  0  0  0  0  0  0
   35.6251   24.8607   40.2983 H   0  0  0  0  0  0  0  0  0  0  0  0
   33.8677   24.6198   40.6161 H   0  0  0  0  0  0  0  0  0  0  0  0
   35.9285   25.9059   42.4991 H   0  0  0  0  0  0  0  0  0  0  0  0
   35.6335   24.1038   42.4819 H   0  0  0  0  0  0  0  0  0  0  0  0
  2  1  2  0
  2 11  1  1
  2  4  1  0
  3  2  1  0
  4  5  1  0
  5  6  2  0
  6  7  1  0
  8  7  2  0
  9  8  1  0
 10  5  1  0
 10  9  2  0
 12 17  1  0
 12 13  1  0
 13 14  1  0
 13 11  1  0
 15 14  1  0
 16 18  1  0
 16 12  1  0
 16 15  1  0
  3 19  1  0
  6 20  1  0
  7 21  1  0
  9 22  1  0
 12 23  1  6
 13 24  1  6
 15 25  1  0
 15 26  1  0
 16 27  1  6
 17 28  1  0
 29 30  1  0
 30 31  1  0
 31 32  1  0
 32 33  1  0
 33 34  1  0
 34 29  1  0
 29 35  1  0
 30 36  1  0
 30 37  1  0
 31 38  1  0
 31 39  1  0
 32 40  1  0
 32 41  1  0
 33 42  1  0
 33 43  1  0
 34 44  1  0
 34 45  1  0
 18 29  1  0
M  ISO  8  19   3  20  14  21  14  22  14  23  13  24  13  25  13  26  13
M  ISO  2  27  13  28   3
M  END
>  <DihAtoms>  (1) 
15,17,28,29

>  <DihDeg>  (1) 
120.7462163710846

$$$$
