
 OpenBabel03272505443D

 21 22  0  0  0  0  0  0  0  0999 V2000
   40.7460   27.0130   34.4040 O   0  0  0  0  0  0  0  0  0  0  0  0
   39.2700   26.7140   34.6860 P   0  0  2  0  0  0  0  0  0  0  0  0
   38.8960   27.5590   36.0900 O   0  0  0  0  0  0  0  0  0  0  0  0
   39.6690   27.5650   36.6840 H   0  0  0  0  0  0  0  0  0  0  0  0
   39.0810   25.0420   34.8600 O   0  0  0  0  0  0  0  0  0  0  0  0
   39.7530   22.8540   37.6960 C   0  0  0  0  0  0  0  0  0  0  0  0
   38.7550   23.3000   38.6120 C   0  0  0  0  0  0  0  0  0  0  0  0
   37.9250   24.3330   38.1630 C   0  0  0  0  0  0  0  0  0  0  0  0
   38.1090   24.8380   36.9180 N   0  0  0  0  0  0  0  0  0  0  0  0
   39.0630   24.3890   36.0840 C   0  0  0  0  0  0  0  0  0  0  0  0
   39.8840   23.3960   36.4780 N   0  0  0  0  0  0  0  0  0  0  0  0
   40.4470   22.0460   37.9720 H   0  0  0  0  0  0  0  0  0  0  0  0
   38.6750   22.8510   39.5740 H   0  0  0  0  0  0  0  0  0  0  0  0
   37.1510   24.7040   38.8250 H   0  0  0  0  0  0  0  0  0  0  0  0
   38.4170   27.3850   33.4040 O   0  0  0  0  0  0  0  0  0  0  0  0
   37.0680   27.0990   33.4350 C   0  0  0  0  0  3  0  0  0  0  0  0
   36.1990   28.2960   33.1400 C   0  0  0  0  0  2  0  0  0  0  0  0
   36.7670   28.8880   31.8800 C   0  0  0  0  0  2  0  0  0  0  0  0
   36.4020   27.9720   30.7700 C   0  0  0  0  0  2  0  0  0  0  0  0
   36.1840   26.5480   31.1350 C   0  0  0  0  0  2  0  0  0  0  0  0
   36.7350   26.0610   32.4250 C   0  0  0  0  0  2  0  0  0  0  0  0
  2  1  2  6  0  0  0
  2  5  1  0  0  0  0
  2  3  1  0  0  0  0
  3  4  1  0  0  0  0
  5 10  1  0  0  0  0
  6 12  1  0  0  0  0
  6  7  1  0  0  0  0
  7 13  1  0  0  0  0
  8  7  2  0  0  0  0
  8 14  1  0  0  0  0
  9  8  1  0  0  0  0
 10 11  1  0  0  0  0
 10  9  2  0  0  0  0
 11  6  2  0  0  0  0
 15 16  1  0  0  0  0
 15  2  1  0  0  0  0
 17 16  1  0  0  0  0
 18 17  1  0  0  0  0
 19 20  1  0  0  0  0
 19 18  1  0  0  0  0
 20 21  1  0  0  0  0
 21 16  1  0  0  0  0
M  END
>  <minimizedAffinity>
-4.8564086

$$$$

 OpenBabel03272505443D

 21 22  0  0  0  0  0  0  0  0999 V2000
   36.7580   26.3370   35.5690 O   0  0  0  0  0  0  0  0  0  0  0  0
   38.2290   26.4480   35.1530 P   0  0  2  0  0  0  0  0  0  0  0  0
   38.8240   27.8060   35.9460 O   0  0  0  0  0  0  0  0  0  0  0  0
   38.1260   28.4830   36.0020 H   0  0  0  0  0  0  0  0  0  0  0  0
   38.3040   26.5900   33.4690 O   0  0  0  0  0  0  0  0  0  0  0  0
   35.6130   26.2010   31.0440 C   0  0  0  0  0  0  0  0  0  0  0  0
   35.5100   24.7800   30.9930 C   0  0  0  0  0  0  0  0  0  0  0  0
   36.3940   24.0690   31.8130 C   0  0  0  0  0  0  0  0  0  0  0  0
   37.2720   24.7510   32.5890 N   0  0  0  0  0  0  0  0  0  0  0  0
   37.3370   26.0940   32.6080 C   0  0  0  0  0  0  0  0  0  0  0  0
   36.5040   26.8160   31.8320 N   0  0  0  0  0  0  0  0  0  0  0  0
   34.9550   26.8340   30.4290 H   0  0  0  0  0  0  0  0  0  0  0  0
   34.7920   24.3190   30.3560 H   0  0  0  0  0  0  0  0  0  0  0  0
   36.3520   22.9860   31.8090 H   0  0  0  0  0  0  0  0  0  0  0  0
   38.9830   25.0820   35.7750 O   0  0  0  0  0  0  0  0  0  0  0  0
   38.1030   24.1770   36.3310 C   0  0  0  0  0  3  0  0  0  0  0  0
   38.4480   22.7430   36.0180 C   0  0  0  0  0  2  0  0  0  0  0  0
   39.9070   22.6100   36.3570 C   0  0  0  0  0  2  0  0  0  0  0  0
   40.0080   22.6260   37.8380 C   0  0  0  0  0  2  0  0  0  0  0  0
   38.9260   23.3380   38.5660 C   0  0  0  0  0  2  0  0  0  0  0  0
   38.0930   24.3080   37.8110 C   0  0  0  0  0  2  0  0  0  0  0  0
  2  1  2  1  0  0  0
  2 15  1  0  0  0  0
  2  3  1  0  0  0  0
  3  4  1  0  0  0  0
  5  2  1  0  0  0  0
  6 11  1  0  0  0  0
  7  6  2  0  0  0  0
  7  8  1  0  0  0  0
  8  9  2  0  0  0  0
  9 10  1  0  0  0  0
 10  5  1  0  0  0  0
 11 10  2  0  0  0  0
 12  6  1  0  0  0  0
 13  7  1  0  0  0  0
 14  8  1  0  0  0  0
 15 16  1  0  0  0  0
 16 21  1  0  0  0  0
 17 16  1  0  0  0  0
 17 18  1  0  0  0  0
 18 19  1  0  0  0  0
 19 20  1  0  0  0  0
 21 20  1  0  0  0  0
M  END
>  <minimizedAffinity>
-4.80174065

$$$$

 OpenBabel03272505443D

 21 22  0  0  0  0  0  0  0  0999 V2000
   39.4680   22.2450   36.5310 O   0  0  0  0  0  0  0  0  0  0  0  0
   38.1910   22.4870   35.7190 P   0  0  2  0  0  0  0  0  0  0  0  0
   36.9470   21.7930   36.6110 O   0  0  0  0  0  0  0  0  0  0  0  0
   37.2730   20.9920   37.0590 H   0  0  0  0  0  0  0  0  0  0  0  0
   38.3770   21.7760   34.1950 O   0  0  0  0  0  0  0  0  0  0  0  0
   35.1740   20.6870   32.8410 C   0  0  0  0  0  0  0  0  0  0  0  0
   35.4160   20.8390   31.4440 C   0  0  0  0  0  0  0  0  0  0  0  0
   36.6840   21.3110   31.0860 C   0  0  0  0  0  0  0  0  0  0  0  0
   37.5860   21.5900   32.0590 N   0  0  0  0  0  0  0  0  0  0  0  0
   37.3180   21.4340   33.3670 C   0  0  0  0  0  0  0  0  0  0  0  0
   36.1100   20.9810   33.7540 N   0  0  0  0  0  0  0  0  0  0  0  0
   34.2030   20.3210   33.2060 H   0  0  0  0  0  0  0  0  0  0  0  0
   34.6540   20.5980   30.7410 H   0  0  0  0  0  0  0  0  0  0  0  0
   36.9140   21.4420   30.0350 H   0  0  0  0  0  0  0  0  0  0  0  0
   37.9780   24.1530   35.6920 O   0  0  0  0  0  0  0  0  0  0  0  0
   38.4930   24.7530   34.5620 C   0  0  0  0  0  3  0  0  0  0  0  0
   37.5900   25.8180   33.9910 C   0  0  0  0  0  2  0  0  0  0  0  0
   37.2370   26.6970   35.1580 C   0  0  0  0  0  2  0  0  0  0  0  0
   38.4530   27.4810   35.4910 C   0  0  0  0  0  2  0  0  0  0  0  0
   39.7560   26.8650   35.1270 C   0  0  0  0  0  2  0  0  0  0  0  0
   39.7930   25.4030   34.8670 C   0  0  0  0  0  2  0  0  0  0  0  0
  2  1  2  1  0  0  0
  2  3  1  0  0  0  0
  3  4  1  0  0  0  0
  5  2  1  0  0  0  0
  6 12  1  0  0  0  0
  6 11  1  0  0  0  0
  7  6  2  0  0  0  0
  8  7  1  0  0  0  0
  8  9  2  0  0  0  0
  9 10  1  0  0  0  0
 10 11  2  0  0  0  0
 10  5  1  0  0  0  0
 13  7  1  0  0  0  0
 14  8  1  0  0  0  0
 15  2  1  0  0  0  0
 16 21  1  0  0  0  0
 16 15  1  0  0  0  0
 17 16  1  0  0  0  0
 17 18  1  0  0  0  0
 18 19  1  0  0  0  0
 20 19  1  0  0  0  0
 21 20  1  0  0  0  0
M  END
>  <minimizedAffinity>
-4.61940956

$$$$

 OpenBabel03272505443D

 21 22  0  0  0  0  0  0  0  0999 V2000
   37.2310   22.6800   32.3410 O   0  0  0  0  0  0  0  0  0  0  0  0
   38.1670   23.2090   33.4330 P   0  0  2  0  0  0  0  0  0  0  0  0
   39.7030   23.2160   32.7500 O   0  0  0  0  0  0  0  0  0  0  0  0
   39.7950   22.4570   32.1460 H   0  0  0  0  0  0  0  0  0  0  0  0
   38.0550   22.1920   34.7800 O   0  0  0  0  0  0  0  0  0  0  0  0
   39.9820   22.6980   37.8320 C   0  0  0  0  0  0  0  0  0  0  0  0
   39.0240   23.3850   38.6350 C   0  0  0  0  0  0  0  0  0  0  0  0
   37.7780   23.6170   38.0420 C   0  0  0  0  0  0  0  0  0  0  0  0
   37.5560   23.1880   36.7750 N   0  0  0  0  0  0  0  0  0  0  0  0
   38.4870   22.5430   36.0510 C   0  0  0  0  0  0  0  0  0  0  0  0
   39.7000   22.3000   36.5840 N   0  0  0  0  0  0  0  0  0  0  0  0
   40.9870   22.4760   38.2230 H   0  0  0  0  0  0  0  0  0  0  0  0
   39.2770   23.6890   39.6230 H   0  0  0  0  0  0  0  0  0  0  0  0
   37.0170   24.1350   38.6150 H   0  0  0  0  0  0  0  0  0  0  0  0
   37.6890   24.7950   33.7120 O   0  0  0  0  0  0  0  0  0  0  0  0
   38.7290   25.6990   33.6520 C   0  0  0  0  0  3  0  0  0  0  0  0
   38.3140   27.0480   33.1190 C   0  0  0  0  0  2  0  0  0  0  0  0
   37.0970   27.4240   33.9180 C   0  0  0  0  0  2  0  0  0  0  0  0
   37.5660   27.7720   35.2820 C   0  0  0  0  0  2  0  0  0  0  0  0
   38.8320   27.1340   35.7280 C   0  0  0  0  0  2  0  0  0  0  0  0
   39.3000   25.9230   35.0050 C   0  0  0  0  0  2  0  0  0  0  0  0
  2  1  2  6  0  0  0
  2 15  1  0  0  0  0
  2  5  1  0  0  0  0
  3  2  1  0  0  0  0
  4  3  1  0  0  0  0
  5 10  1  0  0  0  0
  6 12  1  0  0  0  0
  6  7  1  0  0  0  0
  7 13  1  0  0  0  0
  8 14  1  0  0  0  0
  8  7  2  0  0  0  0
  9  8  1  0  0  0  0
 10 11  1  0  0  0  0
 10  9  2  0  0  0  0
 11  6  2  0  0  0  0
 16 15  1  0  0  0  0
 16 21  1  0  0  0  0
 17 16  1  0  0  0  0
 17 18  1  0  0  0  0
 18 19  1  0  0  0  0
 19 20  1  0  0  0  0
 21 20  1  0  0  0  0
M  END
>  <minimizedAffinity>
-4.6097908

$$$$

 OpenBabel03272505443D

 21 22  0  0  0  0  0  0  0  0999 V2000
   35.5170   26.3490   31.0470 O   0  0  0  0  0  0  0  0  0  0  0  0
   36.3220   25.1160   31.4710 P   0  0  2  0  0  0  0  0  0  0  0  0
   37.4880   24.9030   30.2780 O   0  0  0  0  0  0  0  0  0  0  0  0
   37.1200   25.1560   29.4130 H   0  0  0  0  0  0  0  0  0  0  0  0
   35.2680   23.7990   31.5950 O   0  0  0  0  0  0  0  0  0  0  0  0
   35.6010   20.3100   32.5920 C   0  0  0  0  0  0  0  0  0  0  0  0
   36.7920   19.9510   31.8940 C   0  0  0  0  0  0  0  0  0  0  0  0
   37.3840   20.9620   31.1280 C   0  0  0  0  0  0  0  0  0  0  0  0
   36.8100   22.1900   31.0930 N   0  0  0  0  0  0  0  0  0  0  0  0
   35.6860   22.4880   31.7670 C   0  0  0  0  0  0  0  0  0  0  0  0
   35.0840   21.5430   32.5160 N   0  0  0  0  0  0  0  0  0  0  0  0
   35.0730   19.5730   33.2170 H   0  0  0  0  0  0  0  0  0  0  0  0
   37.1800   18.9640   31.9730 H   0  0  0  0  0  0  0  0  0  0  0  0
   38.2920   20.7360   30.5800 H   0  0  0  0  0  0  0  0  0  0  0  0
   37.0840   25.5410   32.9060 O   0  0  0  0  0  0  0  0  0  0  0  0
   37.5020   26.8550   32.9360 C   0  0  0  0  0  3  0  0  0  0  0  0
   37.0960   27.5790   34.1950 C   0  0  0  0  0  2  0  0  0  0  0  0
   37.5240   26.6760   35.3190 C   0  0  0  0  0  2  0  0  0  0  0  0
   39.0050   26.7520   35.3930 C   0  0  0  0  0  2  0  0  0  0  0  0
   39.7120   27.0980   34.1330 C   0  0  0  0  0  2  0  0  0  0  0  0
   38.9830   26.9300   32.8500 C   0  0  0  0  0  2  0  0  0  0  0  0
  2  1  2  6  0  0  0
  2  5  1  0  0  0  0
  2 15  1  0  0  0  0
  3  2  1  0  0  0  0
  4  3  1  0  0  0  0
  5 10  1  0  0  0  0
  6 12  1  0  0  0  0
  7 13  1  0  0  0  0
  7  6  2  0  0  0  0
  8  7  1  0  0  0  0
  9  8  2  0  0  0  0
  9 10  1  0  0  0  0
 10 11  2  0  0  0  0
 11  6  1  0  0  0  0
 14  8  1  0  0  0  0
 15 16  1  0  0  0  0
 16 17  1  0  0  0  0
 17 18  1  0  0  0  0
 18 19  1  0  0  0  0
 20 19  1  0  0  0  0
 21 16  1  0  0  0  0
 21 20  1  0  0  0  0
M  END
>  <minimizedAffinity>
-4.55036974

$$$$

 OpenBabel03272505443D

 21 22  0  0  0  0  0  0  0  0999 V2000
   39.4470   22.8250   36.7840 O   0  0  0  0  0  0  0  0  0  0  0  0
   38.1230   22.8610   36.0130 P   0  0  2  0  0  0  0  0  0  0  0  0
   37.0300   21.9890   36.9450 O   0  0  0  0  0  0  0  0  0  0  0  0
   37.4910   21.2510   37.3840 H   0  0  0  0  0  0  0  0  0  0  0  0
   38.3700   22.1780   34.4850 O   0  0  0  0  0  0  0  0  0  0  0  0
   36.2030   22.1960   31.5550 C   0  0  0  0  0  0  0  0  0  0  0  0
   35.1900   21.2840   31.9730 C   0  0  0  0  0  0  0  0  0  0  0  0
   35.3470   20.7340   33.2500 C   0  0  0  0  0  0  0  0  0  0  0  0
   36.4220   21.0880   33.9980 N   0  0  0  0  0  0  0  0  0  0  0  0
   37.3560   21.9530   33.5660 C   0  0  0  0  0  0  0  0  0  0  0  0
   37.2420   22.5050   32.3420 N   0  0  0  0  0  0  0  0  0  0  0  0
   36.1550   22.6730   30.5640 H   0  0  0  0  0  0  0  0  0  0  0  0
   34.3760   21.0570   31.3260 H   0  0  0  0  0  0  0  0  0  0  0  0
   34.6010   20.0360   33.6120 H   0  0  0  0  0  0  0  0  0  0  0  0
   37.6530   24.4740   35.9900 O   0  0  0  0  0  0  0  0  0  0  0  0
   38.6790   25.3390   35.6710 C   0  0  0  0  0  3  0  0  0  0  0  0
   38.8290   25.5620   34.1880 C   0  0  0  0  0  2  0  0  0  0  0  0
   37.4460   25.8980   33.7030 C   0  0  0  0  0  2  0  0  0  0  0  0
   37.1410   27.2690   34.1830 C   0  0  0  0  0  2  0  0  0  0  0  0
   37.8480   27.7090   35.4140 C   0  0  0  0  0  2  0  0  0  0  0  0
   38.4460   26.6690   36.2900 C   0  0  0  0  0  2  0  0  0  0  0  0
  2  1  2  1  0  0  0
  2  3  1  0  0  0  0
  3  4  1  0  0  0  0
  5  2  1  0  0  0  0
  6  7  2  0  0  0  0
  6 11  1  0  0  0  0
  7  8  1  0  0  0  0
  8 14  1  0  0  0  0
  8  9  2  0  0  0  0
 10  9  1  0  0  0  0
 10  5  1  0  0  0  0
 11 10  2  0  0  0  0
 12  6  1  0  0  0  0
 13  7  1  0  0  0  0
 15  2  1  0  0  0  0
 16 15  1  0  0  0  0
 16 21  1  0  0  0  0
 17 16  1  0  0  0  0
 18 19  1  0  0  0  0
 18 17  1  0  0  0  0
 19 20  1  0  0  0  0
 20 21  1  0  0  0  0
M  END
>  <minimizedAffinity>
-4.5319643

$$$$

 OpenBabel03272505443D

 21 22  0  0  0  0  0  0  0  0999 V2000
   38.6950   27.4830   36.0510 O   0  0  0  0  0  0  0  0  0  0  0  0
   38.8240   26.5040   34.8790 P   0  0  2  0  0  0  0  0  0  0  0  0
   39.9720   27.1750   33.8510 O   0  0  0  0  0  0  0  0  0  0  0  0
   39.8930   28.1460   33.8630 H   0  0  0  0  0  0  0  0  0  0  0  0
   37.3090   26.3350   34.1460 O   0  0  0  0  0  0  0  0  0  0  0  0
   36.3680   27.6690   30.8880 C   0  0  0  0  0  0  0  0  0  0  0  0
   35.9110   28.9680   31.2590 C   0  0  0  0  0  0  0  0  0  0  0  0
   35.9690   29.2740   32.6230 C   0  0  0  0  0  0  0  0  0  0  0  0
   36.4430   28.3460   33.4910 N   0  0  0  0  0  0  0  0  0  0  0  0
   36.8640   27.1310   33.1000 C   0  0  0  0  0  0  0  0  0  0  0  0
   36.8250   26.7960   31.7960 N   0  0  0  0  0  0  0  0  0  0  0  0
   36.3550   27.3490   29.8350 H   0  0  0  0  0  0  0  0  0  0  0  0
   35.5530   29.6400   30.5160 H   0  0  0  0  0  0  0  0  0  0  0  0
   35.6330   30.2500   32.9530 H   0  0  0  0  0  0  0  0  0  0  0  0
   39.4450   25.0870   35.5370 O   0  0  0  0  0  0  0  0  0  0  0  0
   38.4770   24.1480   35.8270 C   0  0  0  0  0  3  0  0  0  0  0  0
   38.9730   22.7290   35.7160 C   0  0  0  0  0  2  0  0  0  0  0  0
   40.2480   22.6990   36.5140 C   0  0  0  0  0  2  0  0  0  0  0  0
   39.8630   22.7710   37.9450 C   0  0  0  0  0  2  0  0  0  0  0  0
   38.5700   23.4390   38.2480 C   0  0  0  0  0  2  0  0  0  0  0  0
   37.9800   24.3280   37.2150 C   0  0  0  0  0  2  0  0  0  0  0  0
  2 15  1  0  0  0  0
  2  1  2  1  0  0  0
  3  4  1  0  0  0  0
  3  2  1  0  0  0  0
  5  2  1  0  0  0  0
  6  7  2  0  0  0  0
  6 11  1  0  0  0  0
  7  8  1  0  0  0  0
  8 14  1  0  0  0  0
  8  9  2  0  0  0  0
 10  9  1  0  0  0  0
 10  5  1  0  0  0  0
 11 10  2  0  0  0  0
 12  6  1  0  0  0  0
 13  7  1  0  0  0  0
 15 16  1  0  0  0  0
 16 21  1  0  0  0  0
 17 16  1  0  0  0  0
 17 18  1  0  0  0  0
 18 19  1  0  0  0  0
 19 20  1  0  0  0  0
 21 20  1  0  0  0  0
M  END
>  <minimizedAffinity>
-4.44271755

$$$$

 OpenBabel03272505443D

 21 22  0  0  0  0  0  0  0  0999 V2000
   39.2120   23.9440   31.7220 O   0  0  0  0  0  0  0  0  0  0  0  0
   38.4220   23.4550   32.9400 P   0  0  2  0  0  0  0  0  0  0  0  0
   37.2140   24.5970   33.1880 O   0  0  0  0  0  0  0  0  0  0  0  0
   37.5510   25.4830   32.9620 H   0  0  0  0  0  0  0  0  0  0  0  0
   39.4800   23.3280   34.2550 O   0  0  0  0  0  0  0  0  0  0  0  0
   37.7420   24.1480   37.3510 C   0  0  0  0  0  0  0  0  0  0  0  0
   38.5850   23.5010   38.3020 C   0  0  0  0  0  0  0  0  0  0  0  0
   39.6960   22.8280   37.7830 C   0  0  0  0  0  0  0  0  0  0  0  0
   39.9050   22.8280   36.4430 N   0  0  0  0  0  0  0  0  0  0  0  0
   39.0860   23.4510   35.5790 C   0  0  0  0  0  0  0  0  0  0  0  0
   38.0040   24.1100   36.0370 N   0  0  0  0  0  0  0  0  0  0  0  0
   36.8470   24.6980   37.6770 H   0  0  0  0  0  0  0  0  0  0  0  0
   38.3520   23.5470   39.3400 H   0  0  0  0  0  0  0  0  0  0  0  0
   40.3660   22.3210   38.4690 H   0  0  0  0  0  0  0  0  0  0  0  0
   37.7130   22.0060   32.4710 O   0  0  0  0  0  0  0  0  0  0  0  0
   36.3490   21.9740   32.6740 C   0  0  0  0  0  3  0  0  0  0  0  0
   35.5660   21.7090   31.4130 C   0  0  0  0  0  2  0  0  0  0  0  0
   36.2170   20.5020   30.7960 C   0  0  0  0  0  2  0  0  0  0  0  0
   35.8420   19.3350   31.6320 C   0  0  0  0  0  2  0  0  0  0  0  0
   35.5250   19.6180   33.0560 C   0  0  0  0  0  2  0  0  0  0  0  0
   35.9940   20.9010   33.6380 C   0  0  0  0  0  2  0  0  0  0  0  0
  2  1  2  6  0  0  0
  2  3  1  0  0  0  0
  2  5  1  0  0  0  0
  4  3  1  0  0  0  0
  5 10  1  0  0  0  0
  6 12  1  0  0  0  0
  6  7  1  0  0  0  0
  7 13  1  0  0  0  0
  8  7  2  0  0  0  0
  8 14  1  0  0  0  0
  9  8  1  0  0  0  0
 10 11  1  0  0  0  0
 10  9  2  0  0  0  0
 11  6  2  0  0  0  0
 15 16  1  0  0  0  0
 15  2  1  0  0  0  0
 16 21  1  0  0  0  0
 17 16  1  0  0  0  0
 18 17  1  0  0  0  0
 18 19  1  0  0  0  0
 19 20  1  0  0  0  0
 20 21  1  0  0  0  0
M  END
>  <minimizedAffinity>
-4.30594397

$$$$

 OpenBabel03272505443D

 21 22  0  0  0  0  0  0  0  0999 V2000
   35.3180   24.5120   31.5040 O   0  0  0  0  0  0  0  0  0  0  0  0
   36.8420   24.5760   31.6540 P   0  0  2  0  0  0  0  0  0  0  0  0
   37.3770   25.5880   30.4230 O   0  0  0  0  0  0  0  0  0  0  0  0
   36.8200   25.4640   29.6340 H   0  0  0  0  0  0  0  0  0  0  0  0
   37.4630   23.0070   31.5270 O   0  0  0  0  0  0  0  0  0  0  0  0
   35.6160   19.8680   31.4230 C   0  0  0  0  0  0  0  0  0  0  0  0
   35.3290   19.6880   32.8090 C   0  0  0  0  0  0  0  0  0  0  0  0
   35.8060   20.6820   33.6700 C   0  0  0  0  0  0  0  0  0  0  0  0
   36.4940   21.7310   33.1560 N   0  0  0  0  0  0  0  0  0  0  0  0
   36.7440   21.8640   31.8420 C   0  0  0  0  0  0  0  0  0  0  0  0
   36.3030   20.9290   30.9780 N   0  0  0  0  0  0  0  0  0  0  0  0
   35.2770   19.1310   30.6790 H   0  0  0  0  0  0  0  0  0  0  0  0
   34.7810   18.8350   33.1330 H   0  0  0  0  0  0  0  0  0  0  0  0
   35.6110   20.5880   34.7320 H   0  0  0  0  0  0  0  0  0  0  0  0
   37.1220   25.3220   33.1330 O   0  0  0  0  0  0  0  0  0  0  0  0
   38.2660   24.8780   33.7620 C   0  0  0  0  0  3  0  0  0  0  0  0
   39.4210   25.8390   33.6450 C   0  0  0  0  0  2  0  0  0  0  0  0
   38.8620   27.1730   34.0570 C   0  0  0  0  0  2  0  0  0  0  0  0
   38.6620   27.1220   35.5270 C   0  0  0  0  0  2  0  0  0  0  0  0
   38.4380   25.7760   36.1160 C   0  0  0  0  0  2  0  0  0  0  0  0
   38.0140   24.6760   35.2120 C   0  0  0  0  0  2  0  0  0  0  0  0
  2  1  2  6  0  0  0
  2 15  1  0  0  0  0
  3  2  1  0  0  0  0
  4  3  1  0  0  0  0
  5  2  1  0  0  0  0
  5 10  1  0  0  0  0
  6  7  1  0  0  0  0
  7 13  1  0  0  0  0
  7  8  2  0  0  0  0
  8 14  1  0  0  0  0
  9  8  1  0  0  0  0
 10  9  2  0  0  0  0
 11  6  2  0  0  0  0
 11 10  1  0  0  0  0
 12  6  1  0  0  0  0
 15 16  1  0  0  0  0
 16 21  1  0  0  0  0
 17 16  1  0  0  0  0
 17 18  1  0  0  0  0
 18 19  1  0  0  0  0
 19 20  1  0  0  0  0
 21 20  1  0  0  0  0
M  END
>  <minimizedAffinity>
-4.28717613

$$$$
