
     RDKit          3D

 46 48  0  0  0  0  0  0  0  0999 V2000
   36.0756   30.6897   49.0670 C   0  0  2  0  0  0  0  0  0  0  0  0
   37.0087   31.6458   49.7439 C   0  0  0  0  0  0  0  0  0  0  0  0
   38.0380   30.9543   50.6093 C   0  0  0  0  0  0  0  0  0  0  0  0
   37.3642   30.0627   51.6447 C   0  0  0  0  0  0  0  0  0  0  0  0
   36.1304   29.3635   51.1423 C   0  0  0  0  0  0  0  0  0  0  0  0
   36.1869   29.3053   49.6076 C   0  0  1  0  0  0  0  0  0  0  0  0
   36.3236   30.6507   47.5988 C   0  0  0  0  0  0  0  0  0  0  0  0
   37.5758   31.1143   47.1815 C   0  0  0  0  0  0  0  0  0  0  0  0
   37.8284   31.0792   45.8045 C   0  0  0  0  0  0  0  0  0  0  0  0
   36.8527   30.6005   44.9592 N   0  0  0  0  0  0  0  0  0  0  0  0
   35.6416   30.1575   45.4253 C   0  0  0  0  0  0  0  0  0  0  0  0
   35.3963   30.1907   46.7447 N   0  0  0  0  0  0  0  0  0  0  0  0
   33.9370   28.2032   49.2441 C   0  0  0  0  0  0  0  0  0  0  0  0
   33.1193   28.8742   49.9377 O   0  0  0  0  0  0  0  0  0  0  0  0
   35.3296   28.3454   49.0174 N   0  0  0  0  0  0  0  0  0  0  0  0
   34.9843   31.0018   49.1509 H   0  0  0  0  0  0  0  0  0  0  0  0
   36.3537   32.1910   50.5049 H   0  0  0  0  0  0  0  0  0  0  0  0
   37.4393   32.4287   49.1487 H   0  0  0  0  0  0  0  0  0  0  0  0
   38.5448   31.7500   51.2003 H   0  0  0  0  0  0  0  0  0  0  0  0
   38.7898   30.3942   50.0588 H   0  0  0  0  0  0  0  0  0  0  0  0
   37.0725   30.6481   52.5533 H   0  0  0  0  0  0  0  0  0  0  0  0
   38.1208   29.3292   51.9952 H   0  0  0  0  0  0  0  0  0  0  0  0
   35.1840   29.8523   51.3861 H   0  0  0  0  0  0  0  0  0  0  0  0
   36.1407   28.3126   51.4894 H   0  0  0  0  0  0  0  0  0  0  0  0
   37.1629   28.9123   49.4531 H   0  0  0  0  0  0  0  0  0  0  0  0
   38.4142   31.4983   47.7281 H   0  0  0  0  0  0  0  0  0  0  0  0
   38.7423   31.4035   45.3511 H   0  0  0  0  0  0  0  0  0  0  0  0
   34.9367   29.7997   44.6996 H   0  0  0  0  0  0  0  0  0  0  0  0
   35.6074   27.5900   48.3162 H   0  0  0  0  0  0  0  0  0  0  0  0
   33.0229   27.1657   48.6916 C   0  0  0  0  0  0  0  0  0  0  0  0
   32.4973   27.7356   47.3893 C   0  0  0  0  0  0  0  0  0  0  0  0
   31.5927   26.6965   46.7666 C   0  0  0  0  0  0  0  0  0  0  0  0
   31.2826   25.5879   47.7442 C   0  0  0  0  0  0  0  0  0  0  0  0
   32.5408   24.8634   48.1877 C   0  0  0  0  0  0  0  0  0  0  0  0
   33.6853   25.8584   48.4058 C   0  0  0  0  0  0  0  0  0  0  0  0
   32.1902   27.0625   49.4198 H   0  0  0  0  0  0  0  0  0  0  0  0
   31.9254   28.6582   47.6316 H   0  0  0  0  0  0  0  0  0  0  0  0
   33.3506   27.9487   46.7242 H   0  0  0  0  0  0  0  0  0  0  0  0
   31.9801   26.3070   45.8057 H   0  0  0  0  0  0  0  0  0  0  0  0
   30.6016   27.1849   46.5540 H   0  0  0  0  0  0  0  0  0  0  0  0
   30.6796   25.9840   48.5736 H   0  0  0  0  0  0  0  0  0  0  0  0
   30.6543   24.8418   47.2240 H   0  0  0  0  0  0  0  0  0  0  0  0
   32.2699   24.3686   49.1457 H   0  0  0  0  0  0  0  0  0  0  0  0
   32.7797   24.1180   47.4296 H   0  0  0  0  0  0  0  0  0  0  0  0
   34.2846   25.5099   49.2656 H   0  0  0  0  0  0  0  0  0  0  0  0
   34.2504   25.9172   47.4730 H   0  0  0  0  0  0  0  0  0  0  0  0
  1  6  1  0
  1  2  1  0
  2  3  1  0
  3  4  1  0
  5  4  1  0
  6  5  1  0
  7  1  1  0
  8  7  2  0
  9  8  1  0
 10 11  1  0
 10  9  2  0
 11 12  2  0
 12  7  1  0
 13 14  2  0
 15 13  1  0
 15  6  1  0
  1 16  1  6
  2 17  1  0
  2 18  1  0
  3 19  1  0
  3 20  1  0
  4 21  1  0
  4 22  1  0
  5 23  1  0
  5 24  1  0
  6 25  1  1
  8 26  1  0
  9 27  1  0
 11 28  1  0
 15 29  1  0
 30 31  1  0
 31 32  1  0
 32 33  1  0
 33 34  1  0
 34 35  1  0
 35 30  1  0
 30 36  1  0
 31 37  1  0
 31 38  1  0
 32 39  1  0
 32 40  1  0
 33 41  1  0
 33 42  1  0
 34 43  1  0
 34 44  1  0
 35 45  1  0
 35 46  1  0
 13 30  1  0
M  ISO  8  16  13  17  13  18  13  19  13  20  13  21  13  22  13  23  13
M  ISO  5  24  13  25  13  26  14  27  14  28  14
M  END
>  <DihAtoms>  (1) 
13,12,29,30

>  <DihDeg>  (1) 
-0.003013153678130469

$$$$
