
     RDKit          3D

 37 39  0  0  0  0  0  0  0  0999 V2000
   37.2794   29.4573   51.1284 Br  0  0  0  0  0  0  0  0  0  0  0  0
   35.9963   29.3205   49.7178 C   0  0  0  0  0  0  0  0  0  0  0  0
   36.0202   30.1981   48.6480 C   0  0  0  0  0  0  0  0  0  0  0  0
   35.0645   30.0391   47.6693 C   0  0  0  0  0  0  0  0  0  0  0  0
   34.0931   29.0600   47.6986 C   0  0  0  0  0  0  0  0  0  0  0  0
   34.1046   28.1962   48.7947 C   0  0  0  0  0  0  0  0  0  0  0  0
   35.0595   28.3384   49.7935 C   0  0  0  0  0  0  0  0  0  0  0  0
   37.8755   33.2324   49.4559 C   0  0  0  0  0  0  0  0  0  0  0  0
   38.9096   33.2720   48.4834 C   0  0  0  0  0  0  0  0  0  0  0  0
   38.9326   32.2365   47.5677 C   0  0  0  0  0  0  0  0  0  0  0  0
   37.9928   31.2593   47.6397 N   0  0  0  0  0  0  0  0  0  0  0  0
   37.0264   31.2481   48.5709 C   0  0  0  0  0  0  0  0  0  0  0  0
   36.9571   32.2483   49.5010 N   0  0  0  0  0  0  0  0  0  0  0  0
   39.7736   34.3180   48.5451 O   0  0  0  0  0  0  0  0  0  0  0  0
   35.0547   30.7096   46.8172 H   0  0  0  0  0  0  0  0  0  0  0  0
   33.3608   28.9695   46.9096 H   0  0  0  0  0  0  0  0  0  0  0  0
   33.3502   27.4189   48.8387 H   0  0  0  0  0  0  0  0  0  0  0  0
   34.9903   27.6225   50.6050 H   0  0  0  0  0  0  0  0  0  0  0  0
   37.8002   34.0176   50.2070 H   0  0  0  0  0  0  0  0  0  0  0  0
   39.7117   32.2471   46.8182 H   0  0  0  0  0  0  0  0  0  0  0  0
   40.8628   34.6468   47.7646 C   0  0  0  0  0  0  0  0  0  0  0  0
   40.4550   35.3984   46.4874 C   0  0  0  0  0  0  0  0  0  0  0  0
   39.8216   36.7266   46.8350 C   0  0  0  0  0  0  0  0  0  0  0  0
   40.6609   37.4107   47.8686 C   0  0  0  0  0  0  0  0  0  0  0  0
   42.0308   36.7878   47.9870 C   0  0  0  0  0  0  0  0  0  0  0  0
   41.9607   35.3592   48.4859 C   0  0  0  0  0  0  0  0  0  0  0  0
   41.2821   33.6868   47.3977 H   0  0  0  0  0  0  0  0  0  0  0  0
   41.3498   35.6274   45.8729 H   0  0  0  0  0  0  0  0  0  0  0  0
   39.8087   34.7564   45.8551 H   0  0  0  0  0  0  0  0  0  0  0  0
   39.8282   37.3323   45.9049 H   0  0  0  0  0  0  0  0  0  0  0  0
   38.7607   36.6220   47.1346 H   0  0  0  0  0  0  0  0  0  0  0  0
   40.1244   37.3845   48.8551 H   0  0  0  0  0  0  0  0  0  0  0  0
   40.7559   38.4724   47.6132 H   0  0  0  0  0  0  0  0  0  0  0  0
   42.5194   36.8488   47.0140 H   0  0  0  0  0  0  0  0  0  0  0  0
   42.6356   37.3547   48.7165 H   0  0  0  0  0  0  0  0  0  0  0  0
   41.8806   35.3012   49.5865 H   0  0  0  0  0  0  0  0  0  0  0  0
   42.9295   34.9053   48.2031 H   0  0  0  0  0  0  0  0  0  0  0  0
  2  7  2  0
  2  1  1  0
  3  2  1  0
  4  5  1  0
  4  3  2  0
  5  6  2  0
  6  7  1  0
  8 13  2  0
  9 14  1  0
  9  8  1  0
 10 11  1  0
 10  9  2  0
 11 12  2  0
 12  3  1  0
 12 13  1  0
  4 15  1  0
  5 16  1  0
  6 17  1  0
  7 18  1  0
  8 19  1  0
 10 20  1  0
 21 22  1  0
 22 23  1  0
 23 24  1  0
 24 25  1  0
 25 26  1  0
 26 21  1  0
 21 27  1  0
 22 28  1  0
 22 29  1  0
 23 30  1  0
 23 31  1  0
 24 32  1  0
 24 33  1  0
 25 34  1  0
 25 35  1  0
 26 36  1  0
 26 37  1  0
 14 21  1  0
M  ISO  6  15  14  16  14  17  14  18  14  19  14  20  14
M  END
>  <DihAtoms>  (1) 
8,13,20,21

>  <DihDeg>  (1) 
113.49115993702792

$$$$
