
 OpenBabel03272503503D

 34 36  0  0  1  0  0  0  0  0999 V2000
   33.0940   27.3120   45.8910 C   0  0  1  0  0  0  0  0  0  0  0  0
   33.9070   27.4700   47.1950 C   0  0  2  0  0  0  0  0  0  0  0  0
   33.8070   26.2430   47.7720 O   0  0  0  0  0  0  0  0  0  0  0  0
   34.0500   25.3500   46.7420 C   0  0  0  0  0  0  0  0  0  0  0  0
   33.4630   25.9160   45.4860 C   0  0  2  0  0  0  0  0  0  0  0  0
   33.5090   28.0250   45.1620 H   0  0  0  0  0  0  0  0  0  0  0  0
   34.9340   27.7890   46.8800 H   0  0  0  0  0  0  0  0  0  0  0  0
   33.4980   24.4160   46.9900 H   0  0  0  0  0  0  0  0  0  0  0  0
   35.1490   25.2150   46.6920 H   0  0  0  0  0  0  0  0  0  0  0  0
   32.5980   25.3260   45.1260 H   0  0  0  0  0  0  0  0  0  0  0  0
   31.7490   27.5050   46.1390 O   0  0  0  0  0  0  0  0  0  0  0  0
   31.3730   28.0360   45.3760 H   0  0  0  0  0  0  0  0  0  0  0  0
   33.3180   28.5140   47.8460 O   0  0  0  0  0  0  0  0  0  0  0  0
   35.3470   29.8130   46.7670 O   0  0  0  0  0  0  0  0  0  0  0  0
   34.0950   29.9890   47.6130 P   0  0  1  0  0  0  0  0  0  0  0  0
   33.1050   31.0320   46.7180 O   0  0  0  0  0  0  0  0  0  0  0  0
   32.1530   30.8820   46.9850 H   0  0  0  0  0  0  0  0  0  0  0  0
   34.4040   30.6330   49.1630 O   0  0  0  0  0  0  0  0  0  0  0  0
   35.6420   30.5120   49.7730 C   0  0  0  0  0  0  0  0  0  0  0  0
   35.9770   29.4910   50.6900 C   0  0  0  0  0  0  0  0  0  0  0  0
   37.2590   29.4940   51.2240 C   0  0  0  0  0  0  0  0  0  0  0  0
   38.1270   30.4750   50.8420 N   0  0  0  0  0  0  0  0  0  0  0  0
   37.7780   31.4470   49.9580 C   0  0  0  0  0  0  0  0  0  0  0  0
   36.5240   31.4620   49.4200 N   0  0  0  0  0  0  0  0  0  0  0  0
   35.2110   28.7650   50.9210 H   0  0  0  0  0  0  0  0  0  0  0  0
   37.5230   28.7160   51.9260 H   0  0  0  0  0  0  0  0  0  0  0  0
   38.5110   32.1970   49.6940 H   0  0  0  0  0  0  0  0  0  0  0  0
   34.4240   25.9550   44.4740 O   0  0  0  0  0  0  0  0  0  0  0  0
   35.0060   24.7260   44.2410 C   0  0  0  0  0  3  0  0  0  0  0  0
   34.2030   23.8900   43.2650 C   0  0  0  0  0  2  0  0  0  0  0  0
   34.4450   24.4260   41.8630 C   0  0  0  0  0  2  0  0  0  0  0  0
   35.8490   24.1850   41.3970 C   0  0  0  0  0  2  0  0  0  0  0  0
   36.6800   23.8030   42.6100 C   0  0  0  0  0  2  0  0  0  0  0  0
   36.3940   24.8810   43.6460 C   0  0  0  0  0  2  0  0  0  0  0  0
  1  6  1  6  0  0  0
  1 11  1  0  0  0  0
  1  2  1  0  0  0  0
  2  7  1  6  0  0  0
  2  3  1  0  0  0  0
  2 13  1  0  0  0  0
  4  8  1  0  0  0  0
  4  3  1  0  0  0  0
  5 10  1  6  0  0  0
  5  1  1  0  0  0  0
  5  4  1  0  0  0  0
  9  4  1  0  0  0  0
 12 11  1  0  0  0  0
 15 14  2  6  0  0  0
 15 13  1  0  0  0  0
 15 18  1  0  0  0  0
 16 17  1  0  0  0  0
 16 15  1  0  0  0  0
 18 19  1  0  0  0  0
 19 20  1  0  0  0  0
 20 25  1  0  0  0  0
 20 21  2  0  0  0  0
 21 26  1  0  0  0  0
 22 21  1  0  0  0  0
 23 22  2  0  0  0  0
 24 19  2  0  0  0  0
 24 23  1  0  0  0  0
 27 23  1  0  0  0  0
 28  5  1  0  0  0  0
 29 28  1  0  0  0  0
 30 29  1  0  0  0  0
 31 30  1  0  0  0  0
 32 31  1  0  0  0  0
 32 33  1  0  0  0  0
 33 34  1  0  0  0  0
 34 29  1  0  0  0  0
M  END
>  <minimizedAffinity>
-4.10180235

>  <minimizedRMSD>
1.69130337

$$$$
