
 OpenBabel03262521213D

 30 31  0  0  0  0  0  0  0  0999 V2000
   38.6840   32.8240   48.7400 C   0  0  0  0  0  0  0  0  0  0  0  0
   37.8590   33.4850   48.3450 H   0  0  0  0  0  0  0  0  0  0  0  0
   39.4600   33.5550   49.0590 H   0  0  0  0  0  0  0  0  0  0  0  0
   38.3140   31.9290   49.6800 C   0  0  0  0  0  0  0  0  0  0  0  0
   38.6810   30.8840   49.4520 H   0  0  0  0  0  0  0  0  0  0  0  0
   38.7750   32.0490   50.7170 H   0  0  0  0  0  0  0  0  0  0  0  0
   36.8560   31.8110   49.9460 C   0  0  0  0  0  0  0  0  0  0  0  0
   36.5030   32.4400   50.8150 H   0  0  0  0  0  0  0  0  0  0  0  0
   36.3080   32.2720   49.0720 H   0  0  0  0  0  0  0  0  0  0  0  0
   36.2410   30.1760   50.1650 S   0  0  0  0  0  0  0  0  0  0  0  0
   34.8960   29.6640   49.1210 C   0  0  0  0  0  0  0  0  0  0  0  0
   34.9330   30.2190   47.7150 C   0  0  0  0  0  0  0  0  0  0  0  0
   34.4020   29.1470   46.7880 C   0  0  0  0  0  0  0  0  0  0  0  0
   33.0610   28.7070   47.3520 C   0  0  0  0  0  0  0  0  0  0  0  0
   33.3900   27.7740   48.5060 C   0  0  0  0  0  0  0  0  0  0  0  0
   34.7240   28.1740   49.1370 C   0  0  0  0  0  0  0  0  0  0  0  0
   39.2230   32.0030   47.8010 O   0  0  0  0  0  0  0  0  0  0  0  0
   39.0450   32.3190   46.4720 C   0  0  0  0  0  0  0  0  0  0  0  0
   40.1910   32.7590   45.8660 C   0  0  0  0  0  0  0  0  0  0  0  0
   40.1600   33.1210   44.4990 C   0  0  0  0  0  0  0  0  0  0  0  0
   38.9470   33.0010   43.8580 N   0  0  0  0  0  0  0  0  0  0  0  0
   37.8270   32.5590   44.4950 C   0  0  0  0  0  0  0  0  0  0  0  0
   37.9050   32.2320   45.7800 N   0  0  0  0  0  0  0  0  0  0  0  0
   36.7450   32.9180   42.3890 C   0  0  0  0  0  0  0  0  0  0  0  0
   37.7940   33.3620   41.8390 O   0  0  0  0  0  0  0  0  0  0  0  0
   36.6150   32.4710   43.7440 N   0  0  0  0  0  0  0  0  0  0  0  0
   41.1730   32.8730   46.3210 H   0  0  0  0  0  0  0  0  0  0  0  0
   41.0380   33.4670   44.0000 H   0  0  0  0  0  0  0  0  0  0  0  0
   35.8280   32.8600   41.7860 H   0  0  0  0  0  0  0  0  0  0  0  0
   35.7620   32.1020   44.2160 H   0  0  0  0  0  0  0  0  0  0  0  0
  1  3  1  0  0  0  0
  1  4  1  0  0  0  0
  2  1  1  0  0  0  0
  4  7  1  0  0  0  0
  4  6  1  0  0  0  0
  5  4  1  0  0  0  0
  7 10  1  0  0  0  0
  7  8  1  0  0  0  0
  9  7  1  0  0  0  0
 11 16  1  0  0  0  0
 11 10  1  0  0  0  0
 12 11  1  0  0  0  0
 13 14  1  0  0  0  0
 13 12  1  0  0  0  0
 14 15  1  0  0  0  0
 15 16  1  0  0  0  0
 17  1  1  0  0  0  0
 18 17  1  0  0  0  0
 19 27  1  0  0  0  0
 19 18  1  0  0  0  0
 20 19  2  0  0  0  0
 21 22  2  0  0  0  0
 21 20  1  0  0  0  0
 22 23  1  0  0  0  0
 23 18  2  0  0  0  0
 24 26  1  0  0  0  0
 25 24  2  0  0  0  0
 26 30  1  0  0  0  0
 26 22  1  0  0  0  0
 28 20  1  0  0  0  0
 29 24  1  0  0  0  0
M  END
>  <minimizedAffinity>
-5.67130995

>  <minimizedRMSD>
2.16947246

$$$$
