
 OpenBabel03272506453D

 29 31  0  0  1  0  0  0  0  0999 V2000
   37.8470   24.6570   32.3240 C   0  0  2  0  0  0  0  0  0  0  0  0
   37.5340   23.7440   31.1570 C   0  0  1  0  0  0  0  0  0  0  0  0
   38.3230   22.6280   31.2810 O   0  0  0  0  0  0  0  0  0  0  0  0
   38.9360   22.6380   32.5130 C   0  0  0  0  0  0  0  0  0  0  0  0
   38.1600   23.6310   33.3760 C   0  0  1  0  0  0  0  0  0  0  0  0
   38.7230   25.3040   32.1140 H   0  0  0  0  0  0  0  0  0  0  0  0
   37.6920   24.2920   30.2090 H   0  0  0  0  0  0  0  0  0  0  0  0
   40.0000   22.9330   32.4780 H   0  0  0  0  0  0  0  0  0  0  0  0
   38.7590   21.6400   32.9660 H   0  0  0  0  0  0  0  0  0  0  0  0
   37.2270   23.2100   33.7770 H   0  0  0  0  0  0  0  0  0  0  0  0
   36.7280   25.4270   32.6760 O   0  0  0  0  0  0  0  0  0  0  0  0
   36.3970   25.9110   31.8790 H   0  0  0  0  0  0  0  0  0  0  0  0
   35.8010   23.2280   31.3570 S   0  0  0  0  0  0  0  0  0  0  0  0
   35.4520   19.8850   33.4400 C   0  0  0  0  0  0  0  0  0  0  0  0
   35.6200   18.8550   32.5270 C   0  0  0  0  0  0  0  0  0  0  0  0
   35.8530   19.2100   31.1930 C   0  0  0  0  0  0  0  0  0  0  0  0
   35.9040   20.5360   30.8620 N   0  0  0  0  0  0  0  0  0  0  0  0
   35.7360   21.5030   31.7850 C   0  0  0  0  0  0  0  0  0  0  0  0
   35.5080   21.1850   33.0860 N   0  0  0  0  0  0  0  0  0  0  0  0
   35.2740   19.5940   34.4620 H   0  0  0  0  0  0  0  0  0  0  0  0
   35.5850   17.8080   32.7650 H   0  0  0  0  0  0  0  0  0  0  0  0
   36.0010   18.5070   30.3810 H   0  0  0  0  0  0  0  0  0  0  0  0
   38.9580   24.1240   34.3990 O   0  0  0  0  0  0  0  0  0  0  0  0
   38.5700   23.6890   35.6540 C   0  0  0  0  0  3  0  0  0  0  0  0
   39.5550   22.6760   36.2180 C   0  0  0  0  0  2  0  0  0  0  0  0
   39.8740   22.9280   37.6640 C   0  0  0  0  0  2  0  0  0  0  0  0
   38.6480   23.2570   38.4810 C   0  0  0  0  0  2  0  0  0  0  0  0
   37.7540   24.2880   37.8540 C   0  0  0  0  0  2  0  0  0  0  0  0
   38.5060   24.8390   36.6380 C   0  0  0  0  0  2  0  0  0  0  0  0
  1  6  1  6  0  0  0
  1 11  1  0  0  0  0
  1  5  1  0  0  0  0
  2  7  1  6  0  0  0
  2  3  1  0  0  0  0
  2 13  1  0  0  0  0
  2  1  1  0  0  0  0
  3  4  1  0  0  0  0
  4  9  1  0  0  0  0
  4  5  1  0  0  0  0
  5 10  1  1  0  0  0
  5 23  1  0  0  0  0
  8  4  1  0  0  0  0
 12 11  1  0  0  0  0
 13 18  1  0  0  0  0
 14 20  1  0  0  0  0
 15 21  1  0  0  0  0
 15 14  2  0  0  0  0
 16 15  1  0  0  0  0
 17 16  2  0  0  0  0
 17 18  1  0  0  0  0
 18 19  2  0  0  0  0
 19 14  1  0  0  0  0
 22 16  1  0  0  0  0
 23 24  1  0  0  0  0
 24 25  1  0  0  0  0
 24 29  1  0  0  0  0
 25 26  1  0  0  0  0
 26 27  1  0  0  0  0
 28 27  1  0  0  0  0
 29 28  1  0  0  0  0
M  END
>  <minimizedAffinity>
-4.94177485

$$$$

 OpenBabel03272506453D

 29 31  0  0  1  0  0  0  0  0999 V2000
   36.7080   28.9880   31.9810 C   0  0  2  0  0  0  0  0  0  0  0  0
   37.0880   27.5300   32.1340 C   0  0  1  0  0  0  0  0  0  0  0  0
   37.0470   27.2290   33.4720 O   0  0  0  0  0  0  0  0  0  0  0  0
   36.4700   28.2740   34.1570 C   0  0  0  0  0  0  0  0  0  0  0  0
   35.7350   29.1200   33.1190 C   0  0  1  0  0  0  0  0  0  0  0  0
   37.5830   29.6550   32.1160 H   0  0  0  0  0  0  0  0  0  0  0  0
   38.0790   27.3590   31.6740 H   0  0  0  0  0  0  0  0  0  0  0  0
   37.1970   28.9050   34.6990 H   0  0  0  0  0  0  0  0  0  0  0  0
   35.6810   27.8350   34.8040 H   0  0  0  0  0  0  0  0  0  0  0  0
   34.7630   28.6940   32.8320 H   0  0  0  0  0  0  0  0  0  0  0  0
   36.0850   29.2210   30.7460 O   0  0  0  0  0  0  0  0  0  0  0  0
   36.6670   28.8910   30.0170 H   0  0  0  0  0  0  0  0  0  0  0  0
   35.7840   26.5690   31.3040 S   0  0  0  0  0  0  0  0  0  0  0  0
   35.7040   22.6200   31.4780 C   0  0  0  0  0  0  0  0  0  0  0  0
   36.9570   22.2000   31.0590 C   0  0  0  0  0  0  0  0  0  0  0  0
   37.8800   23.1910   30.7010 C   0  0  0  0  0  0  0  0  0  0  0  0
   37.5050   24.5030   30.7830 N   0  0  0  0  0  0  0  0  0  0  0  0
   36.2740   24.8630   31.1980 C   0  0  0  0  0  0  0  0  0  0  0  0
   35.3600   23.9220   31.5500 N   0  0  0  0  0  0  0  0  0  0  0  0
   35.0060   21.8450   31.7500 H   0  0  0  0  0  0  0  0  0  0  0  0
   37.2730   21.1760   30.9880 H   0  0  0  0  0  0  0  0  0  0  0  0
   38.8910   23.0010   30.3580 H   0  0  0  0  0  0  0  0  0  0  0  0
   35.5880   30.4270   33.5640 O   0  0  0  0  0  0  0  0  0  0  0  0
   35.0090   30.5170   34.8170 C   0  0  0  0  0  3  0  0  0  0  0  0
   35.8570   31.3580   35.7590 C   0  0  0  0  0  2  0  0  0  0  0  0
   35.0330   32.3170   36.5720 C   0  0  0  0  0  2  0  0  0  0  0  0
   33.7770   31.6860   37.1200 C   0  0  0  0  0  2  0  0  0  0  0  0
   32.9940   30.9020   36.1050 C   0  0  0  0  0  2  0  0  0  0  0  0
   33.6440   31.1730   34.7450 C   0  0  0  0  0  2  0  0  0  0  0  0
  1  6  1  1  0  0  0
  1  2  1  0  0  0  0
  1  5  1  0  0  0  0
  2  7  1  6  0  0  0
  2  3  1  0  0  0  0
  3  4  1  0  0  0  0
  4  8  1  0  0  0  0
  4  9  1  0  0  0  0
  5 10  1  6  0  0  0
  5 23  1  0  0  0  0
  5  4  1  0  0  0  0
 11  1  1  0  0  0  0
 12 11  1  0  0  0  0
 13  2  1  0  0  0  0
 14 19  1  0  0  0  0
 14 20  1  0  0  0  0
 15 14  2  0  0  0  0
 16 17  2  0  0  0  0
 16 15  1  0  0  0  0
 17 18  1  0  0  0  0
 18 13  1  0  0  0  0
 18 19  2  0  0  0  0
 21 15  1  0  0  0  0
 22 16  1  0  0  0  0
 23 24  1  0  0  0  0
 24 25  1  0  0  0  0
 25 26  1  0  0  0  0
 26 27  1  0  0  0  0
 28 27  1  0  0  0  0
 29 24  1  0  0  0  0
 29 28  1  0  0  0  0
M  END
>  <minimizedAffinity>
-4.92460394

$$$$

 OpenBabel03272506453D

 29 31  0  0  1  0  0  0  0  0999 V2000
   38.3080   23.3070   35.8500 C   0  0  2  0  0  0  0  0  0  0  0  0
   37.6090   24.4730   36.5180 C   0  0  1  0  0  0  0  0  0  0  0  0
   37.8310   24.3730   37.8680 O   0  0  0  0  0  0  0  0  0  0  0  0
   38.7750   23.3980   38.1030 C   0  0  0  0  0  0  0  0  0  0  0  0
   39.4840   23.1510   36.7730 C   0  0  1  0  0  0  0  0  0  0  0  0
   37.6720   22.3980   35.8460 H   0  0  0  0  0  0  0  0  0  0  0  0
   36.5370   24.4630   36.2460 H   0  0  0  0  0  0  0  0  0  0  0  0
   38.3500   22.4490   38.4770 H   0  0  0  0  0  0  0  0  0  0  0  0
   39.5380   23.8480   38.7740 H   0  0  0  0  0  0  0  0  0  0  0  0
   40.2420   23.9140   36.5450 H   0  0  0  0  0  0  0  0  0  0  0  0
   38.7170   23.6400   34.5510 O   0  0  0  0  0  0  0  0  0  0  0  0
   37.9410   23.9750   34.0370 H   0  0  0  0  0  0  0  0  0  0  0  0
   38.4420   25.9790   35.9250 S   0  0  0  0  0  0  0  0  0  0  0  0
   36.2210   28.4960   33.8340 C   0  0  0  0  0  0  0  0  0  0  0  0
   36.0240   27.8890   32.6030 C   0  0  0  0  0  0  0  0  0  0  0  0
   36.6090   26.6320   32.4050 C   0  0  0  0  0  0  0  0  0  0  0  0
   37.3340   26.0740   33.4220 N   0  0  0  0  0  0  0  0  0  0  0  0
   37.4980   26.7020   34.6020 C   0  0  0  0  0  0  0  0  0  0  0  0
   36.9420   27.9220   34.8200 N   0  0  0  0  0  0  0  0  0  0  0  0
   35.7650   29.4630   33.9700 H   0  0  0  0  0  0  0  0  0  0  0  0
   35.4580   28.3090   31.7930 H   0  0  0  0  0  0  0  0  0  0  0  0
   36.5330   26.0500   31.4930 H   0  0  0  0  0  0  0  0  0  0  0  0
   40.0400   21.8790   36.7400 O   0  0  0  0  0  0  0  0  0  0  0  0
   41.3170   21.8530   36.2090 C   0  0  0  0  0  3  0  0  0  0  0  0
   41.8650   23.2590   36.0170 C   0  0  0  0  0  2  0  0  0  0  0  0
   43.2940   23.3850   36.4670 C   0  0  0  0  0  2  0  0  0  0  0  0
   44.1480   22.2230   36.0240 C   0  0  0  0  0  2  0  0  0  0  0  0
   43.5320   20.8780   36.2830 C   0  0  0  0  0  2  0  0  0  0  0  0
   42.2780   21.1240   37.1270 C   0  0  0  0  0  2  0  0  0  0  0  0
  1  6  1  1  0  0  0
  1  2  1  0  0  0  0
  1  5  1  0  0  0  0
  2  7  1  6  0  0  0
  2  3  1  0  0  0  0
  3  4  1  0  0  0  0
  4  8  1  0  0  0  0
  4  9  1  0  0  0  0
  5 10  1  6  0  0  0
  5  4  1  0  0  0  0
 11  1  1  0  0  0  0
 12 11  1  0  0  0  0
 13  2  1  0  0  0  0
 14 20  1  0  0  0  0
 14 19  1  0  0  0  0
 15 14  2  0  0  0  0
 16 15  1  0  0  0  0
 16 17  2  0  0  0  0
 17 18  1  0  0  0  0
 18 19  2  0  0  0  0
 18 13  1  0  0  0  0
 21 15  1  0  0  0  0
 22 16  1  0  0  0  0
 23  5  1  0  0  0  0
 24 23  1  0  0  0  0
 24 29  1  0  0  0  0
 25 24  1  0  0  0  0
 25 26  1  0  0  0  0
 27 28  1  0  0  0  0
 27 26  1  0  0  0  0
 28 29  1  0  0  0  0
M  END
>  <minimizedAffinity>
-4.85603046

$$$$

 OpenBabel03272506453D

 29 31  0  0  1  0  0  0  0  0999 V2000
   35.6190   24.8390   31.4840 C   0  0  2  0  0  0  0  0  0  0  0  0
   36.6990   25.5970   32.2270 C   0  0  1  0  0  0  0  0  0  0  0  0
   37.4880   24.6740   32.8670 O   0  0  0  0  0  0  0  0  0  0  0  0
   37.1570   23.4110   32.4300 C   0  0  0  0  0  0  0  0  0  0  0  0
   36.3790   23.5920   31.1280 C   0  0  1  0  0  0  0  0  0  0  0  0
   34.7530   24.6140   32.1390 H   0  0  0  0  0  0  0  0  0  0  0  0
   36.2290   26.3270   32.9140 H   0  0  0  0  0  0  0  0  0  0  0  0
   36.5450   22.8390   33.1490 H   0  0  0  0  0  0  0  0  0  0  0  0
   38.1080   22.9120   32.1470 H   0  0  0  0  0  0  0  0  0  0  0  0
   37.0310   23.7850   30.2650 H   0  0  0  0  0  0  0  0  0  0  0  0
   35.2130   25.5360   30.3360 O   0  0  0  0  0  0  0  0  0  0  0  0
   34.9430   26.4540   30.5870 H   0  0  0  0  0  0  0  0  0  0  0  0
   37.7150   26.4190   30.9610 S   0  0  0  0  0  0  0  0  0  0  0  0
   35.5920   29.7430   31.2400 C   0  0  0  0  0  0  0  0  0  0  0  0
   36.2950   30.6990   30.5210 C   0  0  0  0  0  0  0  0  0  0  0  0
   37.4920   30.2960   29.9170 C   0  0  0  0  0  0  0  0  0  0  0  0
   37.9020   29.0000   30.0620 N   0  0  0  0  0  0  0  0  0  0  0  0
   37.1840   28.1050   30.7700 C   0  0  0  0  0  0  0  0  0  0  0  0
   36.0200   28.4700   31.3670 N   0  0  0  0  0  0  0  0  0  0  0  0
   34.6730   30.0700   31.6990 H   0  0  0  0  0  0  0  0  0  0  0  0
   35.9910   31.7210   30.3940 H   0  0  0  0  0  0  0  0  0  0  0  0
   38.1360   30.9410   29.3290 H   0  0  0  0  0  0  0  0  0  0  0  0
   35.5560   22.5000   30.8900 O   0  0  0  0  0  0  0  0  0  0  0  0
   35.9500   21.3600   31.5660 C   0  0  0  0  0  3  0  0  0  0  0  0
   34.7770   20.7070   32.2820 C   0  0  0  0  0  2  0  0  0  0  0  0
   34.7600   19.2140   32.1130 C   0  0  0  0  0  2  0  0  0  0  0  0
   36.1260   18.5940   32.2770 C   0  0  0  0  0  2  0  0  0  0  0  0
   37.2110   19.2930   31.5080 C   0  0  0  0  0  2  0  0  0  0  0  0
   36.5190   20.3260   30.6140 C   0  0  0  0  0  2  0  0  0  0  0  0
  1  6  1  1  0  0  0
  1  2  1  0  0  0  0
  2  3  1  0  0  0  0
  2  7  1  1  0  0  0
  4  3  1  0  0  0  0
  4  8  1  0  0  0  0
  5 10  1  6  0  0  0
  5  1  1  0  0  0  0
  5  4  1  0  0  0  0
  9  4  1  0  0  0  0
 11 12  1  0  0  0  0
 11  1  1  0  0  0  0
 13  2  1  0  0  0  0
 14 19  1  0  0  0  0
 14 20  1  0  0  0  0
 15 14  2  0  0  0  0
 16 17  2  0  0  0  0
 16 15  1  0  0  0  0
 17 18  1  0  0  0  0
 18 13  1  0  0  0  0
 18 19  2  0  0  0  0
 21 15  1  0  0  0  0
 22 16  1  0  0  0  0
 23  5  1  0  0  0  0
 23 24  1  0  0  0  0
 24 25  1  0  0  0  0
 26 27  1  0  0  0  0
 26 25  1  0  0  0  0
 28 27  1  0  0  0  0
 29 28  1  0  0  0  0
 29 24  1  0  0  0  0
M  END
>  <minimizedAffinity>
-4.82424212

$$$$

 OpenBabel03272506453D

 29 31  0  0  1  0  0  0  0  0999 V2000
   37.9810   22.4500   33.4050 C   0  0  2  0  0  0  0  0  0  0  0  0
   39.1950   23.3480   33.2830 C   0  0  1  0  0  0  0  0  0  0  0  0
   39.2330   23.8220   31.9960 O   0  0  0  0  0  0  0  0  0  0  0  0
   38.0580   23.5000   31.3560 C   0  0  0  0  0  0  0  0  0  0  0  0
   37.0520   23.1450   32.4500 C   0  0  1  0  0  0  0  0  0  0  0  0
   38.2030   21.4150   33.0740 H   0  0  0  0  0  0  0  0  0  0  0  0
   40.1010   22.7820   33.5710 H   0  0  0  0  0  0  0  0  0  0  0  0
   38.1520   22.6520   30.6540 H   0  0  0  0  0  0  0  0  0  0  0  0
   37.6810   24.4340   30.8890 H   0  0  0  0  0  0  0  0  0  0  0  0
   36.6150   24.0320   32.9320 H   0  0  0  0  0  0  0  0  0  0  0  0
   37.4740   22.4610   34.7130 O   0  0  0  0  0  0  0  0  0  0  0  0
   38.1970   22.2290   35.3470 H   0  0  0  0  0  0  0  0  0  0  0  0
   38.9020   24.7610   34.3920 S   0  0  0  0  0  0  0  0  0  0  0  0
   39.8680   22.8750   37.7300 C   0  0  0  0  0  0  0  0  0  0  0  0
   38.9490   23.2980   38.6790 C   0  0  0  0  0  0  0  0  0  0  0  0
   37.9760   24.2180   38.2670 C   0  0  0  0  0  0  0  0  0  0  0  0
   37.9810   24.6460   36.9680 N   0  0  0  0  0  0  0  0  0  0  0  0
   38.8950   24.2060   36.0810 C   0  0  0  0  0  0  0  0  0  0  0  0
   39.8490   23.3140   36.4550 N   0  0  0  0  0  0  0  0  0  0  0  0
   40.6100   22.1680   38.0640 H   0  0  0  0  0  0  0  0  0  0  0  0
   38.9280   22.9750   39.7030 H   0  0  0  0  0  0  0  0  0  0  0  0
   37.2020   24.6280   38.9060 H   0  0  0  0  0  0  0  0  0  0  0  0
   36.0560   22.3150   31.9540 O   0  0  0  0  0  0  0  0  0  0  0  0
   36.3770   20.9710   32.0290 C   0  0  0  0  0  3  0  0  0  0  0  0
   35.3950   20.2160   32.9120 C   0  0  0  0  0  2  0  0  0  0  0  0
   34.9730   18.9050   32.3110 C   0  0  0  0  0  2  0  0  0  0  0  0
   36.1290   18.1370   31.7180 C   0  0  0  0  0  2  0  0  0  0  0  0
   37.0230   18.9640   30.8380 C   0  0  0  0  0  2  0  0  0  0  0  0
   36.3330   20.3200   30.6610 C   0  0  0  0  0  2  0  0  0  0  0  0
  1  6  1  6  0  0  0
  1 11  1  0  0  0  0
  2  1  1  0  0  0  0
  2  7  1  1  0  0  0
  2 13  1  0  0  0  0
  3  2  1  0  0  0  0
  4  3  1  0  0  0  0
  4  5  1  0  0  0  0
  5 10  1  1  0  0  0
  5  1  1  0  0  0  0
  8  4  1  0  0  0  0
  9  4  1  0  0  0  0
 11 12  1  0  0  0  0
 13 18  1  0  0  0  0
 14 20  1  0  0  0  0
 14 15  1  0  0  0  0
 15 21  1  0  0  0  0
 16 15  2  0  0  0  0
 16 22  1  0  0  0  0
 17 16  1  0  0  0  0
 18 19  1  0  0  0  0
 18 17  2  0  0  0  0
 19 14  2  0  0  0  0
 23 24  1  0  0  0  0
 23  5  1  0  0  0  0
 24 25  1  0  0  0  0
 26 25  1  0  0  0  0
 27 26  1  0  0  0  0
 28 27  1  0  0  0  0
 29 28  1  0  0  0  0
 29 24  1  0  0  0  0
M  END
>  <minimizedAffinity>
-4.76718187

$$$$

 OpenBabel03272506453D

 29 31  0  0  1  0  0  0  0  0999 V2000
   38.8930   26.4420   33.5670 C   0  0  2  0  0  0  0  0  0  0  0  0
   37.7400   26.9980   32.7580 C   0  0  1  0  0  0  0  0  0  0  0  0
   37.0070   25.9340   32.2950 O   0  0  0  0  0  0  0  0  0  0  0  0
   37.4430   24.7800   32.9060 C   0  0  0  0  0  0  0  0  0  0  0  0
   38.2400   25.2130   34.1350 C   0  0  1  0  0  0  0  0  0  0  0  0
   39.7570   26.1800   32.9220 H   0  0  0  0  0  0  0  0  0  0  0  0
   38.1350   27.6450   31.9530 H   0  0  0  0  0  0  0  0  0  0  0  0
   38.0790   24.1480   32.2590 H   0  0  0  0  0  0  0  0  0  0  0  0
   36.5410   24.2630   33.2960 H   0  0  0  0  0  0  0  0  0  0  0  0
   37.5980   25.4890   34.9830 H   0  0  0  0  0  0  0  0  0  0  0  0
   39.2760   27.3330   34.5800 O   0  0  0  0  0  0  0  0  0  0  0  0
   39.4680   28.2190   34.1840 H   0  0  0  0  0  0  0  0  0  0  0  0
   36.6980   27.9300   33.9230 S   0  0  0  0  0  0  0  0  0  0  0  0
   33.6530   30.2390   32.9040 C   0  0  0  0  0  0  0  0  0  0  0  0
   34.0070   30.8140   31.6930 C   0  0  0  0  0  0  0  0  0  0  0  0
   35.2560   30.4710   31.1600 C   0  0  0  0  0  0  0  0  0  0  0  0
   36.0520   29.5990   31.8500 N   0  0  0  0  0  0  0  0  0  0  0  0
   35.6640   29.0640   33.0240 C   0  0  0  0  0  0  0  0  0  0  0  0
   34.4580   29.3800   33.5630 N   0  0  0  0  0  0  0  0  0  0  0  0
   32.6890   30.5130   33.3010 H   0  0  0  0  0  0  0  0  0  0  0  0
   33.3980   31.5000   31.1350 H   0  0  0  0  0  0  0  0  0  0  0  0
   35.6540   30.8480   30.2240 H   0  0  0  0  0  0  0  0  0  0  0  0
   39.1490   24.2320   34.5050 O   0  0  0  0  0  0  0  0  0  0  0  0
   39.3260   24.1370   35.8730 C   0  0  0  0  0  3  0  0  0  0  0  0
   38.1270   24.6940   36.6270 C   0  0  0  0  0  2  0  0  0  0  0  0
   37.7130   23.8180   37.7750 C   0  0  0  0  0  2  0  0  0  0  0  0
   38.8880   23.3190   38.5800 C   0  0  0  0  0  2  0  0  0  0  0  0
   40.0070   22.7610   37.7470 C   0  0  0  0  0  2  0  0  0  0  0  0
   39.4890   22.6930   36.3060 C   0  0  0  0  0  2  0  0  0  0  0  0
  1  6  1  6  0  0  0
  1  5  1  0  0  0  0
  1 11  1  0  0  0  0
  2  7  1  6  0  0  0
  2  1  1  0  0  0  0
  2 13  1  0  0  0  0
  3  2  1  0  0  0  0
  3  4  1  0  0  0  0
  4  9  1  0  0  0  0
  4  5  1  0  0  0  0
  5 23  1  0  0  0  0
  5 10  1  1  0  0  0
  8  4  1  0  0  0  0
 12 11  1  0  0  0  0
 14 20  1  0  0  0  0
 14 19  1  0  0  0  0
 15 14  2  0  0  0  0
 16 15  1  0  0  0  0
 16 17  2  0  0  0  0
 17 18  1  0  0  0  0
 18 19  2  0  0  0  0
 18 13  1  0  0  0  0
 21 15  1  0  0  0  0
 22 16  1  0  0  0  0
 23 24  1  0  0  0  0
 24 29  1  0  0  0  0
 24 25  1  0  0  0  0
 25 26  1  0  0  0  0
 26 27  1  0  0  0  0
 28 27  1  0  0  0  0
 29 28  1  0  0  0  0
M  END
>  <minimizedAffinity>
-4.74480391

$$$$

 OpenBabel03272506453D

 29 31  0  0  1  0  0  0  0  0999 V2000
   38.5680   25.4080   32.4070 C   0  0  2  0  0  0  0  0  0  0  0  0
   39.3830   24.5090   33.3140 C   0  0  1  0  0  0  0  0  0  0  0  0
   39.9710   25.3030   34.2650 O   0  0  0  0  0  0  0  0  0  0  0  0
   39.4410   26.5710   34.1920 C   0  0  0  0  0  0  0  0  0  0  0  0
   38.1410   26.4530   33.3990 C   0  0  1  0  0  0  0  0  0  0  0  0
   39.1890   25.8450   31.5990 H   0  0  0  0  0  0  0  0  0  0  0  0
   40.1090   23.9370   32.7070 H   0  0  0  0  0  0  0  0  0  0  0  0
   40.1070   27.3030   33.7010 H   0  0  0  0  0  0  0  0  0  0  0  0
   39.1420   26.8530   35.2240 H   0  0  0  0  0  0  0  0  0  0  0  0
   37.3050   26.0740   34.0050 H   0  0  0  0  0  0  0  0  0  0  0  0
   37.4640   24.7230   31.8770 O   0  0  0  0  0  0  0  0  0  0  0  0
   37.7730   23.8960   31.4310 H   0  0  0  0  0  0  0  0  0  0  0  0
   38.1960   23.4140   34.1540 S   0  0  0  0  0  0  0  0  0  0  0  0
   37.8710   24.1490   38.0260 C   0  0  0  0  0  0  0  0  0  0  0  0
   38.9310   23.4840   38.6240 C   0  0  0  0  0  0  0  0  0  0  0  0
   39.7950   22.7680   37.7870 C   0  0  0  0  0  0  0  0  0  0  0  0
   39.5550   22.7610   36.4410 N   0  0  0  0  0  0  0  0  0  0  0  0
   38.5110   23.4230   35.9040 C   0  0  0  0  0  0  0  0  0  0  0  0
   37.6570   24.1250   36.6940 N   0  0  0  0  0  0  0  0  0  0  0  0
   37.2150   24.6950   38.6840 H   0  0  0  0  0  0  0  0  0  0  0  0
   39.1380   23.4770   39.6790 H   0  0  0  0  0  0  0  0  0  0  0  0
   40.6590   22.2060   38.1240 H   0  0  0  0  0  0  0  0  0  0  0  0
   37.8120   27.6650   32.8090 O   0  0  0  0  0  0  0  0  0  0  0  0
   36.5170   28.0710   33.0770 C   0  0  0  0  0  3  0  0  0  0  0  0
   36.3750   28.5550   34.5130 C   0  0  0  0  0  2  0  0  0  0  0  0
   35.5720   29.8210   34.6160 C   0  0  0  0  0  2  0  0  0  0  0  0
   34.3370   29.7990   33.7490 C   0  0  0  0  0  2  0  0  0  0  0  0
   34.5860   29.3350   32.3420 C   0  0  0  0  0  2  0  0  0  0  0  0
   36.1060   29.2210   32.1800 C   0  0  0  0  0  2  0  0  0  0  0  0
  1  6  1  6  0  0  0
  1  2  1  0  0  0  0
  1  5  1  0  0  0  0
  2  7  1  6  0  0  0
  2 13  1  0  0  0  0
  2  3  1  0  0  0  0
  4  3  1  0  0  0  0
  4  9  1  0  0  0  0
  5 10  1  1  0  0  0
  5  4  1  0  0  0  0
  8  4  1  0  0  0  0
 11  1  1  0  0  0  0
 12 11  1  0  0  0  0
 13 18  1  0  0  0  0
 14 15  1  0  0  0  0
 14 20  1  0  0  0  0
 15 21  1  0  0  0  0
 16 22  1  0  0  0  0
 16 15  2  0  0  0  0
 17 16  1  0  0  0  0
 18 17  2  0  0  0  0
 18 19  1  0  0  0  0
 19 14  2  0  0  0  0
 23 24  1  0  0  0  0
 23  5  1  0  0  0  0
 24 25  1  0  0  0  0
 25 26  1  0  0  0  0
 27 26  1  0  0  0  0
 28 27  1  0  0  0  0
 29 28  1  0  0  0  0
 29 24  1  0  0  0  0
M  END
>  <minimizedAffinity>
-4.6546998

$$$$

 OpenBabel03272506453D

 29 31  0  0  1  0  0  0  0  0999 V2000
   37.4240   25.6300   31.4040 C   0  0  2  0  0  0  0  0  0  0  0  0
   37.4900   24.1420   31.6720 C   0  0  1  0  0  0  0  0  0  0  0  0
   37.8240   23.9710   32.9920 O   0  0  0  0  0  0  0  0  0  0  0  0
   37.7590   25.1850   33.6380 C   0  0  0  0  0  0  0  0  0  0  0  0
   36.9370   26.1100   32.7420 C   0  0  1  0  0  0  0  0  0  0  0  0
   38.4230   26.0470   31.1620 H   0  0  0  0  0  0  0  0  0  0  0  0
   38.2080   23.6740   30.9720 H   0  0  0  0  0  0  0  0  0  0  0  0
   38.7480   25.6400   33.8290 H   0  0  0  0  0  0  0  0  0  0  0  0
   37.1490   25.0280   34.5530 H   0  0  0  0  0  0  0  0  0  0  0  0
   35.8550   25.9380   32.8310 H   0  0  0  0  0  0  0  0  0  0  0  0
   36.5000   25.9200   30.3890 O   0  0  0  0  0  0  0  0  0  0  0  0
   36.7180   25.3880   29.5840 H   0  0  0  0  0  0  0  0  0  0  0  0
   35.8030   23.5010   31.4350 S   0  0  0  0  0  0  0  0  0  0  0  0
   34.8520   19.7380   32.1920 C   0  0  0  0  0  0  0  0  0  0  0  0
   35.8030   18.9720   31.5360 C   0  0  0  0  0  0  0  0  0  0  0  0
   36.7950   19.6530   30.8190 C   0  0  0  0  0  0  0  0  0  0  0  0
   36.7750   21.0200   30.8020 N   0  0  0  0  0  0  0  0  0  0  0  0
   35.8300   21.7230   31.4560 C   0  0  0  0  0  0  0  0  0  0  0  0
   34.8570   21.0870   32.1590 N   0  0  0  0  0  0  0  0  0  0  0  0
   34.0960   19.1990   32.7390 H   0  0  0  0  0  0  0  0  0  0  0  0
   35.8370   17.8980   31.5360 H   0  0  0  0  0  0  0  0  0  0  0  0
   37.5950   19.1770   30.2630 H   0  0  0  0  0  0  0  0  0  0  0  0
   37.2470   27.4400   32.9920 O   0  0  0  0  0  0  0  0  0  0  0  0
   36.1430   28.2740   32.9620 C   0  0  0  0  0  3  0  0  0  0  0  0
   35.8880   28.9040   34.3230 C   0  0  0  0  0  2  0  0  0  0  0  0
   35.5630   30.3680   34.2260 C   0  0  0  0  0  2  0  0  0  0  0  0
   34.5980   30.6780   33.1080 C   0  0  0  0  0  2  0  0  0  0  0  0
   34.9530   30.0340   31.7990 C   0  0  0  0  0  2  0  0  0  0  0  0
   36.3410   29.4100   31.9780 C   0  0  0  0  0  2  0  0  0  0  0  0
  1  6  1  6  0  0  0
  1  2  1  0  0  0  0
  1  5  1  0  0  0  0
  2  7  1  6  0  0  0
  2  3  1  0  0  0  0
  3  4  1  0  0  0  0
  4  8  1  0  0  0  0
  4  9  1  0  0  0  0
  5 10  1  1  0  0  0
  5 23  1  0  0  0  0
  5  4  1  0  0  0  0
 11  1  1  0  0  0  0
 12 11  1  0  0  0  0
 13 18  1  0  0  0  0
 13  2  1  0  0  0  0
 14 20  1  0  0  0  0
 15 14  2  0  0  0  0
 16 15  1  0  0  0  0
 17 16  2  0  0  0  0
 17 18  1  0  0  0  0
 18 19  2  0  0  0  0
 19 14  1  0  0  0  0
 21 15  1  0  0  0  0
 22 16  1  0  0  0  0
 24 23  1  0  0  0  0
 24 25  1  0  0  0  0
 26 25  1  0  0  0  0
 27 26  1  0  0  0  0
 28 29  1  0  0  0  0
 28 27  1  0  0  0  0
 29 24  1  0  0  0  0
M  END
>  <minimizedAffinity>
-4.63271713

$$$$

 OpenBabel03272506453D

 29 31  0  0  1  0  0  0  0  0999 V2000
   38.8460   24.9370   32.5860 C   0  0  2  0  0  0  0  0  0  0  0  0
   37.6970   25.2050   31.6370 C   0  0  1  0  0  0  0  0  0  0  0  0
   36.8830   24.1010   31.6490 O   0  0  0  0  0  0  0  0  0  0  0  0
   37.2720   23.2580   32.6650 C   0  0  0  0  0  0  0  0  0  0  0  0
   38.1430   24.0880   33.6070 C   0  0  1  0  0  0  0  0  0  0  0  0
   39.6650   24.3790   32.0890 H   0  0  0  0  0  0  0  0  0  0  0  0
   38.0980   25.4470   30.6350 H   0  0  0  0  0  0  0  0  0  0  0  0
   37.8410   22.3770   32.3170 H   0  0  0  0  0  0  0  0  0  0  0  0
   36.3560   23.0070   33.2410 H   0  0  0  0  0  0  0  0  0  0  0  0
   37.5530   24.7250   34.2820 H   0  0  0  0  0  0  0  0  0  0  0  0
   39.3230   26.1290   33.1520 O   0  0  0  0  0  0  0  0  0  0  0  0
   39.5530   26.7660   32.4310 H   0  0  0  0  0  0  0  0  0  0  0  0
   36.7610   26.5980   32.3430 S   0  0  0  0  0  0  0  0  0  0  0  0
   36.4350   30.2650   30.9020 C   0  0  0  0  0  0  0  0  0  0  0  0
   36.9970   30.2220   29.6350 C   0  0  0  0  0  0  0  0  0  0  0  0
   37.5060   28.9920   29.2000 C   0  0  0  0  0  0  0  0  0  0  0  0
   37.4240   27.9120   30.0330 N   0  0  0  0  0  0  0  0  0  0  0  0
   36.8680   28.0020   31.2580 C   0  0  0  0  0  0  0  0  0  0  0  0
   36.3670   29.1830   31.7040 N   0  0  0  0  0  0  0  0  0  0  0  0
   36.0480   31.2190   31.2220 H   0  0  0  0  0  0  0  0  0  0  0  0
   37.0710   31.0580   28.9640 H   0  0  0  0  0  0  0  0  0  0  0  0
   37.9700   28.8210   28.2350 H   0  0  0  0  0  0  0  0  0  0  0  0
   39.0040   23.2730   34.3280 O   0  0  0  0  0  0  0  0  0  0  0  0
   38.6440   23.1330   35.6560 C   0  0  0  0  0  3  0  0  0  0  0  0
   39.6290   22.2510   36.4070 C   0  0  0  0  0  2  0  0  0  0  0  0
   39.9890   22.8100   37.7550 C   0  0  0  0  0  2  0  0  0  0  0  0
   38.7910   23.3340   38.5060 C   0  0  0  0  0  2  0  0  0  0  0  0
   37.8950   24.2190   37.6870 C   0  0  0  0  0  2  0  0  0  0  0  0
   38.6220   24.4730   36.3620 C   0  0  0  0  0  2  0  0  0  0  0  0
  1  6  1  6  0  0  0
  1 11  1  0  0  0  0
  1  5  1  0  0  0  0
  2  7  1  6  0  0  0
  2  3  1  0  0  0  0
  2 13  1  0  0  0  0
  2  1  1  0  0  0  0
  3  4  1  0  0  0  0
  4  9  1  0  0  0  0
  4  5  1  0  0  0  0
  5 10  1  1  0  0  0
  5 23  1  0  0  0  0
  8  4  1  0  0  0  0
 12 11  1  0  0  0  0
 14 20  1  0  0  0  0
 14 19  1  0  0  0  0
 15 14  2  0  0  0  0
 16 15  1  0  0  0  0
 16 17  2  0  0  0  0
 17 18  1  0  0  0  0
 18 19  2  0  0  0  0
 18 13  1  0  0  0  0
 21 15  1  0  0  0  0
 22 16  1  0  0  0  0
 23 24  1  0  0  0  0
 24 29  1  0  0  0  0
 24 25  1  0  0  0  0
 25 26  1  0  0  0  0
 26 27  1  0  0  0  0
 28 27  1  0  0  0  0
 29 28  1  0  0  0  0
M  END
>  <minimizedAffinity>
-4.57563591

$$$$
