
 OpenBabel03262520423D

 18 19  0  0  0  0  0  0  0  0999 V2000
   37.5470   30.4090   51.0230 C   0  0  0  0  0  0  0  0  0  0  0  0
   38.2470   31.1650   50.0520 C   0  0  0  0  0  0  0  0  0  0  0  0
   37.9470   30.8990   48.7050 C   0  0  0  0  0  0  0  0  0  0  0  0
   37.0260   29.9560   48.3980 N   0  0  0  0  0  0  0  0  0  0  0  0
   36.3840   29.2600   49.3620 C   0  0  0  0  0  0  0  0  0  0  0  0
   36.6510   29.4930   50.6670 N   0  0  0  0  0  0  0  0  0  0  0  0
   37.7500   30.5860   52.0760 H   0  0  0  0  0  0  0  0  0  0  0  0
   38.9560   31.8880   50.3830 H   0  0  0  0  0  0  0  0  0  0  0  0
   35.6600   28.5230   49.0160 H   0  0  0  0  0  0  0  0  0  0  0  0
   38.6860   31.6950   47.6940 C   0  0  0  0  0  0  0  0  0  0  0  0
   38.1000   32.6330   47.5820 H   0  0  0  0  0  0  0  0  0  0  0  0
   39.6760   32.0000   48.0510 H   0  0  0  0  0  0  0  0  0  0  0  0
   38.8630   31.0080   46.3780 C   0  0  0  0  0  3  0  0  0  0  0  0
   40.3240   31.2110   45.9850 C   0  0  0  0  0  2  0  0  0  0  0  0
   40.4920   31.2040   44.4890 C   0  0  0  0  0  2  0  0  0  0  0  0
   39.8430   32.4580   43.9430 C   0  0  0  0  0  2  0  0  0  0  0  0
   38.5110   32.7330   44.5910 C   0  0  0  0  0  2  0  0  0  0  0  0
   37.9540   31.5110   45.2900 C   0  0  0  0  0  2  0  0  0  0  0  0
  1  7  1  0  0  0  0
  2  8  1  0  0  0  0
  2  1  2  0  0  0  0
  3  2  1  0  0  0  0
  4  3  2  0  0  0  0
  4  5  1  0  0  0  0
  5  6  2  0  0  0  0
  6  1  1  0  0  0  0
  9  5  1  0  0  0  0
 10 12  1  0  0  0  0
 10  3  1  0  0  0  0
 11 10  1  0  0  0  0
 13 10  1  0  0  0  0
 14 13  1  0  0  0  0
 15 14  1  0  0  0  0
 16 15  1  0  0  0  0
 16 17  1  0  0  0  0
 17 18  1  0  0  0  0
 18 13  1  0  0  0  0
M  END
>  <minimizedAffinity>
-4.92769623

>  <minimizedRMSD>
1.8624016

$$$$
