
 OpenBabel03272506393D

 34 36  0  0  1  0  0  0  0  0999 V2000
   35.2060   28.4200   49.8200 O   0  0  0  0  0  0  0  0  0  0  0  0
   35.0600   28.8900   48.6850 C   0  0  0  0  0  0  0  0  0  0  0  0
   35.7580   30.0850   48.2620 C   0  0  2  0  0  0  0  0  0  0  0  0
   35.4000   30.1160   46.7360 C   0  0  0  0  0  0  0  0  0  0  0  0
   34.0680   29.4150   46.7050 C   0  0  0  0  0  0  0  0  0  0  0  0
   34.2110   28.3320   47.6700 N   0  0  0  0  0  0  0  0  0  0  0  0
   35.3650   31.0250   48.6890 H   0  0  0  0  0  0  0  0  0  0  0  0
   35.3820   31.1430   46.3650 H   0  0  0  0  0  0  0  0  0  0  0  0
   36.1280   29.4640   46.2380 H   0  0  0  0  0  0  0  0  0  0  0  0
   33.8180   29.0390   45.7000 H   0  0  0  0  0  0  0  0  0  0  0  0
   33.2840   30.0830   47.1150 H   0  0  0  0  0  0  0  0  0  0  0  0
   33.6200   27.0030   47.5890 C   0  0  0  0  0  0  0  0  0  0  0  0
   34.0540   26.3180   48.3470 H   0  0  0  0  0  0  0  0  0  0  0  0
   33.8400   26.6180   46.5820 H   0  0  0  0  0  0  0  0  0  0  0  0
   32.1300   27.0700   47.7250 C   0  0  0  0  0  3  0  0  0  0  0  0
   31.8330   27.7960   49.0440 C   0  0  0  0  0  2  0  0  0  0  0  0
   30.3900   27.7300   49.4210 C   0  0  0  0  0  2  0  0  0  0  0  0
   29.5670   27.4180   48.1980 C   0  0  0  0  0  2  0  0  0  0  0  0
   30.0570   28.2660   47.0340 C   0  0  0  0  0  2  0  0  0  0  0  0
   31.4660   27.8960   46.6420 C   0  0  0  0  0  2  0  0  0  0  0  0
   37.1790   29.9890   48.3110 O   0  0  0  0  0  0  0  0  0  0  0  0
   37.9080   31.1780   48.2720 C   0  0  0  0  0  0  0  0  0  0  0  0
   38.0540   31.8570   49.4680 C   0  0  0  0  0  0  0  0  0  0  0  0
   38.7730   33.0430   49.4630 C   0  0  0  0  0  0  0  0  0  0  0  0
   39.3000   33.4850   48.2890 N   0  0  0  0  0  0  0  0  0  0  0  0
   39.1480   32.8160   47.1370 C   0  0  0  0  0  0  0  0  0  0  0  0
   38.4590   31.6770   47.1450 N   0  0  0  0  0  0  0  0  0  0  0  0
   40.6420   32.3950   45.3410 C   0  0  0  0  0  0  0  0  0  0  0  0
   41.0000   31.2680   45.7690 O   0  0  0  0  0  0  0  0  0  0  0  0
   39.7100   33.3060   45.9210 N   0  0  0  0  0  0  0  0  0  0  0  0
   37.6630   31.5590   50.4200 H   0  0  0  0  0  0  0  0  0  0  0  0
   38.9170   33.6080   50.3600 H   0  0  0  0  0  0  0  0  0  0  0  0
   41.1980   32.5340   44.4230 H   0  0  0  0  0  0  0  0  0  0  0  0
   39.5490   34.1990   45.4060 H   0  0  0  0  0  0  0  0  0  0  0  0
  2  1  2  0  0  0  0
  3 21  1  0  0  0  0
  3  2  1  0  0  0  0
  3  7  1  1  0  0  0
  4  3  1  0  0  0  0
  5  4  1  0  0  0  0
  5 11  1  0  0  0  0
  5  6  1  0  0  0  0
  6  2  1  0  0  0  0
  8  4  1  0  0  0  0
  9  4  1  0  0  0  0
 10  5  1  0  0  0  0
 12  6  1  0  0  0  0
 12 15  1  0  0  0  0
 12 13  1  0  0  0  0
 14 12  1  0  0  0  0
 15 16  1  0  0  0  0
 16 17  1  0  0  0  0
 18 17  1  0  0  0  0
 19 18  1  0  0  0  0
 20 19  1  0  0  0  0
 20 15  1  0  0  0  0
 22 21  1  0  0  0  0
 22 23  1  0  0  0  0
 23 31  1  0  0  0  0
 24 23  2  0  0  0  0
 24 32  1  0  0  0  0
 25 24  1  0  0  0  0
 26 27  1  0  0  0  0
 26 25  2  0  0  0  0
 27 22  2  0  0  0  0
 28 29  2  0  0  0  0
 28 30  1  0  0  0  0
 30 26  1  0  0  0  0
 33 28  1  0  0  0  0
 34 30  1  0  0  0  0
M  END
>  <minimizedAffinity>
-6.04861212

>  <minimizedRMSD>
0.897741258

$$$$
