REMARK  Name = 
REMARK  5 active torsions:
REMARK  status: ('A' for Active; 'I' for Inactive)
REMARK    1  A    between atoms: C_1  and  C_8
REMARK    2  A    between atoms: C_3  and  N_12
REMARK    3  A    between atoms: C_10  and  C_13
REMARK    4  A    between atoms: C_17  and  C_19
REMARK    5  A    between atoms: C_19  and  C_32
REMARK                            x       y       z     vdW  Elec       q    Type
REMARK                         _______ _______ _______ _____ _____    ______ ____
ROOT
ATOM      1  C   UNL     1      38.353  31.907  44.478  0.00  0.00    +0.000 C 
ATOM      2  O   UNL     1      37.245  32.443  44.387  0.00  0.00    +0.000 OA
ATOM      3  N   UNL     1      38.933  31.647  45.782  0.00  0.00    +0.000 N 
ATOM      4  H   UNL     1      39.911  31.395  45.942  0.00  0.00    +0.000 HD
ENDROOT
BRANCH   1   5
ATOM      5  C   UNL     1      39.129  31.511  43.289  0.00  0.00    +0.000 A 
ATOM      6  C   UNL     1      40.152  30.605  43.446  0.00  0.00    +0.000 A 
ATOM      7  C   UNL     1      40.870  30.249  42.311  0.00  0.00    +0.000 A 
ATOM      8  C   UNL     1      40.523  30.813  41.119  0.00  0.00    +0.000 A 
ATOM      9  C   UNL     1      39.500  31.721  40.952  0.00  0.00    +0.000 A 
ATOM     10  N   UNL     1      38.820  32.046  42.083  0.00  0.00    +0.000 NA
ATOM     11  H   UNL     1      40.410  30.166  44.408  0.00  0.00    +0.000 HD
ATOM     12  H   UNL     1      41.664  29.540  42.461  0.00  0.00    +0.000 HD
ATOM     13  H   UNL     1      41.146  30.458  40.320  0.00  0.00    +0.000 HD
BRANCH   9  14
ATOM     14  C   UNL     1      39.120  32.305  39.655  0.00  0.00    +0.000 C 
ATOM     15  O   UNL     1      38.890  33.572  39.650  0.00  0.00    +0.000 OA
BRANCH  14  16
ATOM     16  C   UNL     1      38.939  31.697  38.311  0.00  0.00    +0.000 C 
ATOM     17  C   UNL     1      38.961  30.227  38.413  0.00  0.00    +0.000 C 
ATOM     18  C   UNL     1      38.081  29.642  37.300  0.00  0.00    +0.000 C 
ATOM     19  C   UNL     1      36.661  29.999  37.734  0.00  0.00    +0.000 C 
ATOM     20  C   UNL     1      36.463  31.490  37.743  0.00  0.00    +0.000 C 
ATOM     21  C   UNL     1      37.729  32.269  37.611  0.00  0.00    +0.000 C 
ENDBRANCH  14  16
ENDBRANCH   9  14
ENDBRANCH   1   5
BRANCH   3  24
ATOM     22  C   UNL     1      38.449  31.109  48.163  0.00  0.00    +0.000 C 
ATOM     23  C   UNL     1      38.702  32.572  48.092  0.00  0.00    +0.000 C 
ATOM     24  C   UNL     1      38.083  31.749  46.942  0.00  0.00    +0.000 C 
ATOM     25  H   UNL     1      39.373  30.503  48.248  0.00  0.00    +0.000 HD
ATOM     26  H   UNL     1      39.720  32.933  47.966  0.00  0.00    +0.000 HD
ATOM     27  H   UNL     1      38.047  33.207  48.703  0.00  0.00    +0.000 HD
ATOM     28  H   UNL     1      37.014  32.026  46.775  0.00  0.00    +0.000 HD
BRANCH  22  33
ATOM     29  C   UNL     1      35.081  30.267  49.498  0.00  0.00    +0.000 A 
ATOM     30  C   UNL     1      35.414  29.559  50.705  0.00  0.00    +0.000 A 
ATOM     31  C   UNL     1      36.813  29.400  51.031  0.00  0.00    +0.000 A 
ATOM     32  N   UNL     1      37.773  29.918  50.195  0.00  0.00    +0.000 NA
ATOM     33  C   UNL     1      37.363  30.576  49.068  0.00  0.00    +0.000 A 
ATOM     34  N   UNL     1      36.039  30.768  48.690  0.00  0.00    +0.000 NA
ATOM     35  H   UNL     1      34.043  30.370  49.280  0.00  0.00    +0.000 HD
ATOM     36  H   UNL     1      34.672  29.158  51.352  0.00  0.00    +0.000 HD
ATOM     37  H   UNL     1      37.062  28.876  51.925  0.00  0.00    +0.000 HD
ENDBRANCH  22  33
ENDBRANCH   3  24
TORSDOF 5
