
     RDKit          3D

 29 30  0  0  0  0  0  0  0  0999 V2000
   37.3676   30.2219   51.3270 C   0  0  0  0  0  0  0  0  0  0  0  0
   38.0236   30.6897   50.1629 C   0  0  0  0  0  0  0  0  0  0  0  0
   37.4793   30.2990   48.9276 C   0  0  0  0  0  0  0  0  0  0  0  0
   36.3782   29.5117   48.9024 N   0  0  0  0  0  0  0  0  0  0  0  0
   35.7878   29.0909   50.0418 C   0  0  0  0  0  0  0  0  0  0  0  0
   36.2888   29.4504   51.2453 N   0  0  0  0  0  0  0  0  0  0  0  0
   38.1726   30.7934   47.7140 C   0  0  0  0  0  0  0  0  0  0  0  0
   37.7587   30.5027   52.3023 H   0  0  0  0  0  0  0  0  0  0  0  0
   38.8855   31.3061   50.2767 H   0  0  0  0  0  0  0  0  0  0  0  0
   34.9066   28.4606   49.9182 H   0  0  0  0  0  0  0  0  0  0  0  0
   37.3710   30.9197   46.9550 H   0  0  0  0  0  0  0  0  0  0  0  0
   38.6070   31.7885   47.8618 H   0  0  0  0  0  0  0  0  0  0  0  0
   39.2539   29.8901   47.2106 C   0  0  0  0  0  0  0  0  0  0  0  0
   40.4441   30.7883   46.8892 C   0  0  0  0  0  0  0  0  0  0  0  0
   41.2955   30.1959   45.7982 C   0  0  0  0  0  0  0  0  0  0  0  0
   40.5027   30.2503   44.5088 C   0  0  0  0  0  0  0  0  0  0  0  0
   39.0686   29.8375   44.7108 C   0  0  0  0  0  0  0  0  0  0  0  0
   38.8690   29.0781   46.0047 C   0  0  0  0  0  0  0  0  0  0  0  0
   39.5840   29.2191   48.0261 H   0  0  0  0  0  0  0  0  0  0  0  0
   41.0673   30.9065   47.8196 H   0  0  0  0  0  0  0  0  0  0  0  0
   40.1081   31.7843   46.5874 H   0  0  0  0  0  0  0  0  0  0  0  0
   41.5399   29.1437   46.0221 H   0  0  0  0  0  0  0  0  0  0  0  0
   42.1697   30.8348   45.6547 H   0  0  0  0  0  0  0  0  0  0  0  0
   40.5358   31.3083   44.1285 H   0  0  0  0  0  0  0  0  0  0  0  0
   41.0457   29.6451   43.7543 H   0  0  0  0  0  0  0  0  0  0  0  0
   38.7837   29.1539   43.8861 H   0  0  0  0  0  0  0  0  0  0  0  0
   38.4249   30.7382   44.6919 H   0  0  0  0  0  0  0  0  0  0  0  0
   39.5119   28.1763   45.9374 H   0  0  0  0  0  0  0  0  0  0  0  0
   37.8225   28.7395   46.0196 H   0  0  0  0  0  0  0  0  0  0  0  0
  2  1  2  0
  3  2  1  0
  4  3  2  0
  4  5  1  0
  5  6  2  0
  6  1  1  0
  7  3  1  0
  1  8  1  0
  2  9  1  0
  5 10  1  0
  7 11  1  0
  7 12  1  0
 13 14  1  0
 14 15  1  0
 15 16  1  0
 16 17  1  0
 17 18  1  0
 18 13  1  0
 13 19  1  0
 14 20  1  0
 14 21  1  0
 15 22  1  0
 15 23  1  0
 16 24  1  0
 16 25  1  0
 17 26  1  0
 17 27  1  0
 18 28  1  0
 18 29  1  0
  7 13  1  0
M  ISO  5   8  14   9  14  10  14  11   8  12   8
M  END
>  <DihAtoms>  (1) 
2,6,12,13

>  <DihDeg>  (1) 
179.99874439345106

$$$$
