
 OpenBabel03272506383D

 34 36  0  0  1  0  0  0  0  0999 V2000
   34.3830   29.2410   50.0810 O   0  0  0  0  0  0  0  0  0  0  0  0
   34.2330   29.3550   48.8580 C   0  0  0  0  0  0  0  0  0  0  0  0
   35.0570   30.2460   48.0690 C   0  0  2  0  0  0  0  0  0  0  0  0
   34.6130   29.8570   46.6170 C   0  0  0  0  0  0  0  0  0  0  0  0
   33.1990   29.3840   46.8310 C   0  0  0  0  0  0  0  0  0  0  0  0
   33.2550   28.6420   48.0830 N   0  0  0  0  0  0  0  0  0  0  0  0
   34.8210   31.3180   48.1870 H   0  0  0  0  0  0  0  0  0  0  0  0
   34.7110   30.7110   45.9430 H   0  0  0  0  0  0  0  0  0  0  0  0
   35.2140   28.9840   46.3370 H   0  0  0  0  0  0  0  0  0  0  0  0
   32.8400   28.7580   45.9980 H   0  0  0  0  0  0  0  0  0  0  0  0
   32.5390   30.2530   47.0230 H   0  0  0  0  0  0  0  0  0  0  0  0
   32.4870   27.4550   48.4330 C   0  0  0  0  0  0  0  0  0  0  0  0
   32.7730   27.0660   49.4330 H   0  0  0  0  0  0  0  0  0  0  0  0
   32.7100   26.6960   47.6690 H   0  0  0  0  0  0  0  0  0  0  0  0
   31.0160   27.7310   48.3720 C   0  0  0  0  0  3  0  0  0  0  0  0
   30.3570   26.5120   47.7140 C   0  0  0  0  0  2  0  0  0  0  0  0
   28.9220   26.7500   47.3800 C   0  0  0  0  0  2  0  0  0  0  0  0
   28.3970   27.8950   48.2060 C   0  0  0  0  0  2  0  0  0  0  0  0
   28.8740   27.7360   49.6420 C   0  0  0  0  0  2  0  0  0  0  0  0
   30.3740   27.8590   49.7380 C   0  0  0  0  0  2  0  0  0  0  0  0
   36.4530   29.9620   48.1230 O   0  0  0  0  0  0  0  0  0  0  0  0
   37.3270   31.0420   48.2350 C   0  0  0  0  0  0  0  0  0  0  0  0
   37.4980   31.5740   49.5010 C   0  0  0  0  0  0  0  0  0  0  0  0
   38.3610   32.6510   49.6470 C   0  0  0  0  0  0  0  0  0  0  0  0
   38.9970   33.1340   48.5460 N   0  0  0  0  0  0  0  0  0  0  0  0
   38.8200   32.6090   47.3250 C   0  0  0  0  0  0  0  0  0  0  0  0
   37.9920   31.5750   47.1880 N   0  0  0  0  0  0  0  0  0  0  0  0
   40.3350   32.1770   45.5510 C   0  0  0  0  0  0  0  0  0  0  0  0
   40.5260   30.9760   45.8700 O   0  0  0  0  0  0  0  0  0  0  0  0
   39.4990   33.1400   46.1890 N   0  0  0  0  0  0  0  0  0  0  0  0
   37.0260   31.2370   50.4010 H   0  0  0  0  0  0  0  0  0  0  0  0
   38.5300   33.0990   50.6030 H   0  0  0  0  0  0  0  0  0  0  0  0
   40.9500   32.3330   44.6730 H   0  0  0  0  0  0  0  0  0  0  0  0
   39.4770   34.0940   45.7650 H   0  0  0  0  0  0  0  0  0  0  0  0
  2  1  2  0  0  0  0
  3 21  1  0  0  0  0
  3  7  1  1  0  0  0
  3  2  1  0  0  0  0
  4  5  1  0  0  0  0
  4  3  1  0  0  0  0
  5 11  1  0  0  0  0
  5  6  1  0  0  0  0
  6 12  1  0  0  0  0
  6  2  1  0  0  0  0
  8  4  1  0  0  0  0
  9  4  1  0  0  0  0
 10  5  1  0  0  0  0
 12 13  1  0  0  0  0
 14 12  1  0  0  0  0
 15 12  1  0  0  0  0
 15 20  1  0  0  0  0
 16 15  1  0  0  0  0
 17 16  1  0  0  0  0
 17 18  1  0  0  0  0
 18 19  1  0  0  0  0
 19 20  1  0  0  0  0
 21 22  1  0  0  0  0
 22 23  1  0  0  0  0
 23 24  2  0  0  0  0
 23 31  1  0  0  0  0
 24 32  1  0  0  0  0
 25 24  1  0  0  0  0
 26 25  2  0  0  0  0
 27 26  1  0  0  0  0
 27 22  2  0  0  0  0
 28 29  2  0  0  0  0
 28 30  1  0  0  0  0
 30 26  1  0  0  0  0
 33 28  1  0  0  0  0
 34 30  1  0  0  0  0
M  END
>  <minimizedAffinity>
-6.20919228

>  <minimizedRMSD>
1.40186226

$$$$
