REMARK  Name = 
REMARK  8 active torsions:
REMARK  status: ('A' for Active; 'I' for Inactive)
REMARK    1  A    between atoms: P_2  and  O_3
REMARK    2  A    between atoms: P_2  and  O_4
REMARK    3  A    between atoms: P_2  and  O_12
REMARK    4  A    between atoms: O_4  and  C_5
REMARK    5  A    between atoms: C_5  and  C_6
REMARK    6  A    between atoms: O_12  and  C_14
REMARK    7  A    between atoms: C_13  and  O_18
REMARK    8  A    between atoms: O_18  and  C_31
REMARK                            x       y       z     vdW  Elec       q    Type
REMARK                         _______ _______ _______ _____ _____    ______ ____
ROOT
ATOM      1  O   UNL     1      36.883  31.648  48.741  0.00  0.00    +0.000 OA
ENDROOT
BRANCH   1   3
ATOM      2  C   UNL     1      38.850  32.471  47.811  0.00  0.00    +0.000 C 
ATOM      3  C   UNL     1      38.247  31.459  48.765  0.00  0.00    +0.000 C 
ATOM      4  C   UNL     1      38.823  32.018  50.074  0.00  0.00    +0.000 C 
ATOM      5  O   UNL     1      38.476  33.353  49.961  0.00  0.00    +0.000 OA
ATOM      6  C   UNL     1      38.685  33.731  48.652  0.00  0.00    +0.000 C 
ATOM      7  H   UNL     1      39.926  32.299  47.641  0.00  0.00    +0.000 HD
ATOM      8  H   UNL     1      38.577  30.431  48.590  0.00  0.00    +0.000 HD
ATOM      9  H   UNL     1      39.904  31.851  50.056  0.00  0.00    +0.000 HD
ATOM     10  H   UNL     1      38.287  31.509  50.901  0.00  0.00    +0.000 HD
ATOM     11  H   UNL     1      39.539  34.413  48.512  0.00  0.00    +0.000 HD
ATOM     12  H   UNL     1      37.783  34.321  48.345  0.00  0.00    +0.000 HD
BRANCH   2  13
ATOM     13  O   UNL     1      38.079  32.498  46.661  0.00  0.00    +0.000 OA
BRANCH  13  14
ATOM     14  C   UNL     1      38.921  32.290  45.575  0.00  0.00    +0.000 C 
ATOM     15  C   UNL     1      38.244  31.668  44.403  0.00  0.00    +0.000 C 
ATOM     16  C   UNL     1      39.299  31.065  43.497  0.00  0.00    +0.000 C 
ATOM     17  C   UNL     1      40.519  31.924  43.493  0.00  0.00    +0.000 C 
ATOM     18  C   UNL     1      40.220  33.379  43.782  0.00  0.00    +0.000 C 
ATOM     19  C   UNL     1      39.543  33.605  45.099  0.00  0.00    +0.000 C 
ENDBRANCH  13  14
ENDBRANCH   2  13
ENDBRANCH   1   3
BRANCH   1  21
ATOM     20  O   UNL     1      36.035  29.942  46.971  0.00  0.00    +0.000 OA
ATOM     21  P   UNL     1      36.027  30.230  48.442  0.00  0.00    +0.000 P 
BRANCH  21  22
ATOM     22  O   UNL     1      36.802  28.914  49.239  0.00  0.00    +0.000 OA
ATOM     23  H   UNL     1      37.489  29.271  49.872  0.00  0.00    +0.000 HD
ENDBRANCH  21  22
BRANCH  21  24
ATOM     24  O   UNL     1      34.439  30.370  49.020  0.00  0.00    +0.000 OA
BRANCH  24  25
ATOM     25  C   UNL     1      34.178  29.235  49.770  0.00  0.00    +0.000 C 
ATOM     26  H   UNL     1      33.670  29.497  50.743  0.00  0.00    +0.000 HD
ATOM     27  H   UNL     1      35.089  28.682  50.088  0.00  0.00    +0.000 HD
BRANCH  25  28
ATOM     28  C   UNL     1      33.317  28.258  49.069  0.00  0.00    +0.000 A 
ATOM     29  C   UNL     1      33.943  27.380  48.215  0.00  0.00    +0.000 A 
ATOM     30  C   UNL     1      33.186  26.431  47.522  0.00  0.00    +0.000 A 
ATOM     31  N   UNL     1      31.841  26.439  47.744  0.00  0.00    +0.000 NA
ATOM     32  C   UNL     1      31.249  27.309  48.585  0.00  0.00    +0.000 A 
ATOM     33  N   UNL     1      31.986  28.223  49.251  0.00  0.00    +0.000 NA
ATOM     34  H   UNL     1      34.991  27.299  47.979  0.00  0.00    +0.000 HD
ATOM     35  H   UNL     1      33.600  25.704  46.831  0.00  0.00    +0.000 HD
ATOM     36  H   UNL     1      30.168  27.254  48.711  0.00  0.00    +0.000 HD
ENDBRANCH  25  28
ENDBRANCH  24  25
ENDBRANCH  21  24
ENDBRANCH   1  21
TORSDOF 8
