
 OpenBabel03272508573D

 37 40  0  0  1  0  0  0  0  0999 V2000
   38.3530   31.9070   44.4930 C   0  0  0  0  0  0  0  0  0  0  0  0
   37.2530   32.4600   44.4030 O   0  0  0  0  0  0  0  0  0  0  0  0
   38.9240   31.6260   45.7970 N   0  0  0  0  0  0  0  0  0  0  0  0
   39.8970   31.3580   45.9580 H   0  0  0  0  0  0  0  0  0  0  0  0
   39.1280   31.5110   43.3030 C   0  0  0  0  0  0  0  0  0  0  0  0
   40.1150   30.5640   43.4500 C   0  0  0  0  0  0  0  0  0  0  0  0
   40.8330   30.2090   42.3150 C   0  0  0  0  0  0  0  0  0  0  0  0
   40.5210   30.8130   41.1330 C   0  0  0  0  0  0  0  0  0  0  0  0
   39.5340   31.7620   40.9760 C   0  0  0  0  0  0  0  0  0  0  0  0
   38.8530   32.0850   42.1070 N   0  0  0  0  0  0  0  0  0  0  0  0
   40.3460   30.0940   44.4040 H   0  0  0  0  0  0  0  0  0  0  0  0
   41.5990   29.4680   42.4560 H   0  0  0  0  0  0  0  0  0  0  0  0
   41.1400   30.4550   40.3320 H   0  0  0  0  0  0  0  0  0  0  0  0
   39.1900   32.3900   39.6900 C   0  0  2  0  0  3  0  0  0  0  0  0
   38.6930   33.5760   39.7530 O   0  0  0  0  0  1  0  0  0  0  0  0
   39.3040   31.9040   38.2900 C   0  0  0  0  0  3  0  0  0  0  0  0
   38.1690   32.3910   37.4890 C   0  0  0  0  0  2  0  0  0  0  0  0
   38.6250   32.5530   36.0320 C   0  0  0  0  0  2  0  0  0  0  0  0
   39.5610   33.7590   36.0770 C   0  0  0  0  0  2  0  0  0  0  0  0
   40.7780   33.4610   36.9130 C   0  0  0  0  0  2  0  0  0  0  0  0
   40.6680   32.2080   37.7150 C   0  0  0  0  0  2  0  0  0  0  0  0
   38.4360   31.0960   48.1790 C   0  0  2  0  0  0  0  0  0  0  0  0
   38.6840   32.5590   48.1030 C   0  0  0  0  0  0  0  0  0  0  0  0
   38.0700   31.7290   46.9540 C   0  0  1  0  0  0  0  0  0  0  0  0
   39.3620   30.4930   48.2680 H   0  0  0  0  0  0  0  0  0  0  0  0
   39.7010   32.9230   47.9780 H   0  0  0  0  0  0  0  0  0  0  0  0
   38.0250   33.1940   48.7100 H   0  0  0  0  0  0  0  0  0  0  0  0
   37.0010   32.0020   46.7840 H   0  0  0  0  0  0  0  0  0  0  0  0
   35.0680   30.2360   49.5030 C   0  0  0  0  0  0  0  0  0  0  0  0
   35.4000   29.5450   50.7200 C   0  0  0  0  0  0  0  0  0  0  0  0
   36.7990   29.4020   51.0560 C   0  0  0  0  0  0  0  0  0  0  0  0
   37.7590   29.9200   50.2200 N   0  0  0  0  0  0  0  0  0  0  0  0
   37.3490   30.5620   49.0830 C   0  0  0  0  0  0  0  0  0  0  0  0
   36.0260   30.7380   48.6950 N   0  0  0  0  0  0  0  0  0  0  0  0
   34.0300   30.3270   49.2780 H   0  0  0  0  0  0  0  0  0  0  0  0
   34.6580   29.1440   51.3670 H   0  0  0  0  0  0  0  0  0  0  0  0
   37.0480   28.8900   51.9570 H   0  0  0  0  0  0  0  0  0  0  0  0
  1  3  1  0  0  0  0
  2  1  2  0  0  0  0
  3  4  1  0  0  0  0
  3 24  1  0  0  0  0
  5  6  1  0  0  0  0
  5  1  1  0  0  0  0
  6 11  1  0  0  0  0
  7 12  1  0  0  0  0
  7  6  2  0  0  0  0
  8  7  1  0  0  0  0
  9  8  2  0  0  0  0
  9 10  1  0  0  0  0
 10  5  2  0  0  0  0
 13  8  1  0  0  0  0
 14 15  1  1  0  0  0
 14  9  1  0  0  0  0
 16 14  1  0  0  0  0
 17 16  1  0  0  0  0
 18 19  1  0  0  0  0
 18 17  1  0  0  0  0
 19 20  1  0  0  0  0
 20 21  1  0  0  0  0
 21 16  1  0  0  0  0
 22 25  1  6  0  0  0
 22 33  1  0  0  0  0
 23 22  1  0  0  0  0
 23 27  1  0  0  0  0
 24 28  1  6  0  0  0
 24 23  1  0  0  0  0
 24 22  1  0  0  0  0
 26 23  1  0  0  0  0
 29 30  1  0  0  0  0
 30 31  2  0  0  0  0
 30 36  1  0  0  0  0
 31 37  1  0  0  0  0
 32 31  1  0  0  0  0
 33 32  2  0  0  0  0
 34 33  1  0  0  0  0
 34 29  2  0  0  0  0
 35 29  1  0  0  0  0
M  END
>  <minimizedAffinity>
-4.98596573

>  <minimizedRMSD>
0.380459189

$$$$
