
 OpenBabel03272504223D

 36 38  0  0  1  0  0  0  0  0999 V2000
   36.8190   31.5950   48.7380 O   0  0  0  0  0  0  0  0  0  0  0  0
   38.7860   32.4340   47.8230 C   0  0  2  0  0  0  0  0  0  0  0  0
   38.1810   31.3910   48.7420 C   0  0  1  0  0  0  0  0  0  0  0  0
   38.7740   31.8930   50.0670 C   0  0  0  0  0  0  0  0  0  0  0  0
   38.4390   33.2340   50.0090 O   0  0  0  0  0  0  0  0  0  0  0  0
   38.6420   33.6610   48.7140 C   0  0  0  0  0  0  0  0  0  0  0  0
   39.8590   32.2580   47.6370 H   0  0  0  0  0  0  0  0  0  0  0  0
   38.4990   30.3670   48.5240 H   0  0  0  0  0  0  0  0  0  0  0  0
   39.8530   31.7160   50.0330 H   0  0  0  0  0  0  0  0  0  0  0  0
   38.2390   31.3570   50.8780 H   0  0  0  0  0  0  0  0  0  0  0  0
   39.5010   34.3400   48.5940 H   0  0  0  0  0  0  0  0  0  0  0  0
   37.7430   34.2720   48.4380 H   0  0  0  0  0  0  0  0  0  0  0  0
   38.0060   32.5130   46.6820 O   0  0  0  0  0  0  0  0  0  0  0  0
   38.6560   31.8190   45.6690 C   0  0  0  0  0  3  0  0  0  0  0  0
   38.1430   32.1310   44.3050 C   0  0  0  0  0  2  0  0  0  0  0  0
   38.5610   31.0190   43.3640 C   0  0  0  0  0  2  0  0  0  0  0  0
   39.9170   30.5210   43.7330 C   0  0  0  0  0  2  0  0  0  0  0  0
   40.7680   31.5690   44.4180 C   0  0  0  0  0  2  0  0  0  0  0  0
   40.1580   32.1150   45.6710 C   0  0  0  0  0  2  0  0  0  0  0  0
   35.8830   29.8740   47.0270 O   0  0  0  0  0  0  0  0  0  0  0  0
   35.9420   30.1790   48.4930 P   0  0  1  0  0  0  0  0  0  0  0  0
   36.7450   28.8670   49.2700 O   0  0  0  0  0  0  0  0  0  0  0  0
   37.4620   29.2270   49.8670 H   0  0  0  0  0  0  0  0  0  0  0  0
   34.3830   30.3350   49.1410 O   0  0  0  0  0  0  0  0  0  0  0  0
   34.1190   29.1730   49.8480 C   0  0  0  0  0  0  0  0  0  0  0  0
   33.6060   29.4000   50.8280 H   0  0  0  0  0  0  0  0  0  0  0  0
   35.0280   28.6090   50.1500 H   0  0  0  0  0  0  0  0  0  0  0  0
   33.2610   28.2220   49.1090 C   0  0  0  0  0  0  0  0  0  0  0  0
   33.8960   27.3400   48.2650 C   0  0  0  0  0  0  0  0  0  0  0  0
   33.1430   26.4150   47.5380 C   0  0  0  0  0  0  0  0  0  0  0  0
   31.7920   26.4490   47.7160 N   0  0  0  0  0  0  0  0  0  0  0  0
   31.1910   27.3220   48.5480 C   0  0  0  0  0  0  0  0  0  0  0  0
   31.9240   28.2130   49.2470 N   0  0  0  0  0  0  0  0  0  0  0  0
   34.9490   27.2400   48.0630 H   0  0  0  0  0  0  0  0  0  0  0  0
   33.5640   25.6870   46.8520 H   0  0  0  0  0  0  0  0  0  0  0  0
   30.1050   27.2880   48.6380 H   0  0  0  0  0  0  0  0  0  0  0  0
  1  3  1  0  0  0  0
  2  7  1  6  0  0  0
  2  6  1  0  0  0  0
  2  3  1  0  0  0  0
  3  8  1  6  0  0  0
  3  4  1  0  0  0  0
  4 10  1  0  0  0  0
  5  4  1  0  0  0  0
  6  5  1  0  0  0  0
  9  4  1  0  0  0  0
 11  6  1  0  0  0  0
 12  6  1  0  0  0  0
 13  2  1  0  0  0  0
 14 19  1  0  0  0  0
 14 13  1  0  0  0  0
 15 14  1  0  0  0  0
 16 17  1  0  0  0  0
 16 15  1  0  0  0  0
 17 18  1  0  0  0  0
 18 19  1  0  0  0  0
 21 20  2  6  0  0  0
 21  1  1  0  0  0  0
 21 24  1  0  0  0  0
 21 22  1  0  0  0  0
 22 23  1  0  0  0  0
 24 25  1  0  0  0  0
 25 27  1  0  0  0  0
 25 26  1  0  0  0  0
 28 33  1  0  0  0  0
 28 25  1  0  0  0  0
 29 28  2  0  0  0  0
 30 31  2  0  0  0  0
 30 29  1  0  0  0  0
 31 32  1  0  0  0  0
 32 36  1  0  0  0  0
 32 33  2  0  0  0  0
 34 29  1  0  0  0  0
 35 30  1  0  0  0  0
M  END
>  <minimizedAffinity>
-4.7817359

>  <minimizedRMSD>
0.563831389

$$$$
