
     RDKit          3D

 44 47  0  0  0  0  0  0  0  0999 V2000
   37.3093   29.3307   51.0263 Br  0  0  0  0  0  0  0  0  0  0  0  0
   35.9592   29.3264   49.6781 C   0  0  0  0  0  0  0  0  0  0  0  0
   35.9988   30.2618   48.6346 C   0  0  0  0  0  0  0  0  0  0  0  0
   34.9859   30.1982   47.6929 C   0  0  0  0  0  0  0  0  0  0  0  0
   33.9626   29.2623   47.7514 C   0  0  0  0  0  0  0  0  0  0  0  0
   33.9613   28.3724   48.7807 C   0  0  0  0  0  0  0  0  0  0  0  0
   34.9571   28.4155   49.7288 C   0  0  0  0  0  0  0  0  0  0  0  0
   37.9908   33.1923   49.4627 C   0  0  0  0  0  0  0  0  0  0  0  0
   39.0222   33.1768   48.4836 C   0  0  0  0  0  0  0  0  0  0  0  0
   39.0085   32.1516   47.5547 C   0  0  0  0  0  0  0  0  0  0  0  0
   38.0187   31.2063   47.6125 N   0  0  0  0  0  0  0  0  0  0  0  0
   37.0590   31.2511   48.5514 C   0  0  0  0  0  0  0  0  0  0  0  0
   37.0517   32.2481   49.4740 N   0  0  0  0  0  0  0  0  0  0  0  0
   32.9035   29.2004   46.7616 C   0  0  0  0  0  0  0  0  0  0  0  0
   32.2640   28.0350   46.3711 C   0  0  0  0  0  0  0  0  0  0  0  0
   31.2493   28.0297   45.4129 C   0  0  0  0  0  0  0  0  0  0  0  0
   30.8660   29.1733   44.8406 N   0  0  0  0  0  0  0  0  0  0  0  0
   31.4884   30.3129   45.2196 C   0  0  0  0  0  0  0  0  0  0  0  0
   32.4586   30.3034   46.1385 N   0  0  0  0  0  0  0  0  0  0  0  0
   34.9573   30.8891   46.8641 H   0  0  0  0  0  0  0  0  0  0  0  0
   33.1679   27.6369   48.8374 H   0  0  0  0  0  0  0  0  0  0  0  0
   34.9038   27.6789   50.5285 H   0  0  0  0  0  0  0  0  0  0  0  0
   37.9210   33.9510   50.2248 H   0  0  0  0  0  0  0  0  0  0  0  0
   39.7191   33.9800   48.5693 H   0  0  0  0  0  0  0  0  0  0  0  0
   39.7872   32.1563   46.8306 H   0  0  0  0  0  0  0  0  0  0  0  0
   32.5708   27.1023   46.8324 H   0  0  0  0  0  0  0  0  0  0  0  0
   30.8059   27.0594   45.1719 H   0  0  0  0  0  0  0  0  0  0  0  0
   31.0548   31.5747   44.5780 C   0  0  0  0  0  0  0  0  0  0  0  0
   32.1864   32.5752   44.4742 C   0  0  0  0  0  0  0  0  0  0  0  0
   31.9383   33.6147   43.4254 C   0  0  0  0  0  0  0  0  0  0  0  0
   30.4717   33.8454   43.1571 C   0  0  0  0  0  0  0  0  0  0  0  0
   29.6991   32.6084   42.8367 C   0  0  0  0  0  0  0  0  0  0  0  0
   30.5454   31.3746   43.1622 C   0  0  0  0  0  0  0  0  0  0  0  0
   30.2364   32.0439   45.1540 H   0  0  0  0  0  0  0  0  0  0  0  0
   32.3750   33.0328   45.4860 H   0  0  0  0  0  0  0  0  0  0  0  0
   33.1278   32.0404   44.2072 H   0  0  0  0  0  0  0  0  0  0  0  0
   32.4527   33.4587   42.4772 H   0  0  0  0  0  0  0  0  0  0  0  0
   32.3195   34.5875   43.8532 H   0  0  0  0  0  0  0  0  0  0  0  0
   29.9985   34.4364   43.9936 H   0  0  0  0  0  0  0  0  0  0  0  0
   30.4213   34.5044   42.2590 H   0  0  0  0  0  0  0  0  0  0  0  0
   29.2961   32.5814   41.8043 H   0  0  0  0  0  0  0  0  0  0  0  0
   28.8325   32.5486   43.5392 H   0  0  0  0  0  0  0  0  0  0  0  0
   29.9649   30.4539   43.0424 H   0  0  0  0  0  0  0  0  0  0  0  0
   31.3986   31.3351   42.4538 H   0  0  0  0  0  0  0  0  0  0  0  0
  2  7  2  0
  2  1  1  0
  3  2  1  0
  4  5  1  0
  4  3  2  0
  5  6  2  0
  6  7  1  0
  8 13  2  0
  9  8  1  0
 10 11  1  0
 10  9  2  0
 11 12  2  0
 12  3  1  0
 12 13  1  0
 14  5  1  0
 15 14  2  0
 16 15  1  0
 17 18  1  0
 17 16  2  0
 18 19  2  0
 19 14  1  0
  4 20  1  0
  6 21  1  0
  7 22  1  0
  8 23  1  0
  9 24  1  0
 10 25  1  0
 15 26  1  0
 16 27  1  0
 28 29  1  0
 29 30  1  0
 30 31  1  0
 31 32  1  0
 32 33  1  0
 33 28  1  0
 28 34  1  0
 29 35  1  0
 29 36  1  0
 30 37  1  0
 30 38  1  0
 31 39  1  0
 31 40  1  0
 32 41  1  0
 32 42  1  0
 33 43  1  0
 33 44  1  0
 18 28  1  0
M  ISO  8  20  14  21  14  22  14  23  14  24  14  25  14  26  14  27  14
M  END
>  <DihAtoms>  (1) 
16,17,27,28

>  <DihDeg>  (1) 
-59.489399609192205

$$$$
