
 OpenBabel03272507343D

 33 36  0  0  1  0  0  0  0  0999 V2000
   35.7640   29.1420   49.8150 C   0  0  0  0  0  0  0  0  0  0  0  0
   34.6450   29.5870   50.4790 C   0  0  0  0  0  0  0  0  0  0  0  0
   33.5340   28.9470   49.9070 C   0  0  0  0  0  0  0  0  0  0  0  0
   34.0580   28.1430   48.9190 C   0  0  0  0  0  0  0  0  0  0  0  0
   35.3660   28.2900   48.9010 O   0  0  0  0  0  0  0  0  0  0  0  0
   34.5360   30.2940   51.2980 H   0  0  0  0  0  0  0  0  0  0  0  0
   32.4900   29.0270   50.1440 H   0  0  0  0  0  0  0  0  0  0  0  0
   37.1000   29.6030   50.1530 C   0  0  0  0  0  0  0  0  0  0  0  0
   37.6680   29.1390   51.1530 O   0  0  0  0  0  0  0  0  0  0  0  0
   37.6870   30.5860   49.2880 C   0  0  0  0  0  0  0  0  0  0  0  0
   38.0170   31.8060   49.8460 C   0  0  0  0  0  0  0  0  0  0  0  0
   38.5890   32.7860   49.0350 C   0  0  0  0  0  0  0  0  0  0  0  0
   38.7970   32.4860   47.7040 N   0  0  0  0  0  0  0  0  0  0  0  0
   38.4640   31.2930   47.2000 C   0  0  0  0  0  0  0  0  0  0  0  0
   37.9150   30.3490   47.9770 N   0  0  0  0  0  0  0  0  0  0  0  0
   37.8690   32.0820   50.8940 H   0  0  0  0  0  0  0  0  0  0  0  0
   38.8710   33.7540   49.3930 H   0  0  0  0  0  0  0  0  0  0  0  0
   38.6820   31.1880   46.1370 H   0  0  0  0  0  0  0  0  0  0  0  0
   33.2940   27.2650   48.0320 C   0  0  0  0  0  0  0  0  0  0  0  0
   32.0270   27.2210   48.1760 O   0  0  0  0  0  0  0  0  0  0  0  0
   33.9950   26.4360   46.9940 C   0  0  1  0  0  0  0  0  0  0  0  0
   33.7970   24.9020   47.3270 C   0  0  0  0  0  0  0  0  0  0  0  0
   33.2270   25.5580   46.1260 C   0  0  2  0  0  0  0  0  0  0  0  0
   35.0860   26.6390   46.9830 H   0  0  0  0  0  0  0  0  0  0  0  0
   33.1360   24.6510   48.1550 H   0  0  0  0  0  0  0  0  0  0  0  0
   34.6890   24.2820   47.2720 H   0  0  0  0  0  0  0  0  0  0  0  0
   32.1110   25.7410   46.1820 H   0  0  0  0  0  0  0  0  0  0  0  0
   33.6830   25.0240   44.8250 C   0  0  0  0  0  3  0  0  0  0  0  0
   33.7270   25.9750   43.6710 C   0  0  0  0  0  2  0  0  0  0  0  0
   35.0580   26.6290   43.4550 C   0  0  0  0  0  2  0  0  0  0  0  0
   36.1630   25.6340   43.1930 C   0  0  0  0  0  2  0  0  0  0  0  0
   35.8550   24.2760   43.7750 C   0  0  0  0  0  2  0  0  0  0  0  0
   35.0700   24.4470   45.0340 C   0  0  0  0  0  2  0  0  0  0  0  0
  1  8  1  0  0  0  0
  1  2  2  0  0  0  0
  2  6  1  0  0  0  0
  3  7  1  0  0  0  0
  3  2  1  0  0  0  0
  4  3  2  0  0  0  0
  5  4  1  0  0  0  0
  5  1  1  0  0  0  0
  8  9  2  0  0  0  0
 10 11  1  0  0  0  0
 10  8  1  0  0  0  0
 11 16  1  0  0  0  0
 12 17  1  0  0  0  0
 12 11  2  0  0  0  0
 13 12  1  0  0  0  0
 14 13  2  0  0  0  0
 14 15  1  0  0  0  0
 15 10  2  0  0  0  0
 18 14  1  0  0  0  0
 19 20  2  0  0  0  0
 19  4  1  0  0  0  0
 21 24  1  6  0  0  0
 21 22  1  0  0  0  0
 21 19  1  0  0  0  0
 22 25  1  0  0  0  0
 23 27  1  1  0  0  0
 23 21  1  0  0  0  0
 23 22  1  0  0  0  0
 26 22  1  0  0  0  0
 28 33  1  0  0  0  0
 28 23  1  0  0  0  0
 29 28  1  0  0  0  0
 30 29  1  0  0  0  0
 31 30  1  0  0  0  0
 31 32  1  0  0  0  0
 32 33  1  0  0  0  0
M  END
>  <minimizedAffinity>
-5.21312571

>  <minimizedRMSD>
0.704966962

$$$$
