
     RDKit          3D

 50 53  0  0  0  0  0  0  0  0999 V2000
   32.1651   28.5262   47.4265 C   0  0  2  0  0  0  0  0  0  0  0  0
   33.4059   28.3662   48.2541 C   0  0  1  0  0  0  0  0  0  0  0  0
   33.8025   27.0654   48.1702 O   0  0  0  0  0  0  0  0  0  0  0  0
   33.1119   26.4427   47.1359 C   0  0  0  0  0  0  0  0  0  0  0  0
   32.5067   27.5227   46.2787 C   0  0  1  0  0  0  0  0  0  0  0  0
   32.0909   29.8275   46.8874 O   0  0  0  0  0  0  0  0  0  0  0  0
   34.7148   29.4128   47.4999 S   0  0  0  0  0  0  0  0  0  0  0  0
   37.1380   29.2868   50.6317 C   0  0  0  0  0  0  0  0  0  0  0  0
   37.6372   30.5863   50.7532 C   0  0  0  0  0  0  0  0  0  0  0  0
   37.2086   31.5385   49.8313 C   0  0  0  0  0  0  0  0  0  0  0  0
   36.3279   31.1618   48.8596 N   0  0  0  0  0  0  0  0  0  0  0  0
   35.8698   29.8937   48.7781 C   0  0  0  0  0  0  0  0  0  0  0  0
   36.2667   28.9405   49.6599 N   0  0  0  0  0  0  0  0  0  0  0  0
   31.3644   27.0395   45.6898 O   0  0  0  0  0  0  0  0  0  0  0  0
   29.8843   29.1114   44.2101 Cl  0  0  0  0  0  0  0  0  0  0  0  0
   29.3360   28.1227   45.5434 C   0  0  0  0  0  0  0  0  0  0  0  0
   30.1238   27.1725   46.1499 C   0  0  0  0  0  0  0  0  0  0  0  0
   29.5663   26.4248   47.1898 C   0  0  0  0  0  0  0  0  0  0  0  0
   28.2638   26.6408   47.5894 C   0  0  0  0  0  0  0  0  0  0  0  0
   27.4645   27.5944   46.9853 C   0  0  0  0  0  0  0  0  0  0  0  0
   28.0226   28.3309   45.9567 C   0  0  0  0  0  0  0  0  0  0  0  0
   31.2369   28.2028   47.8850 H   0  0  0  0  0  0  0  0  0  0  0  0
   33.2004   28.7147   49.2873 H   0  0  0  0  0  0  0  0  0  0  0  0
   32.4335   25.7293   47.5726 H   0  0  0  0  0  0  0  0  0  0  0  0
   33.8738   25.8835   46.5254 H   0  0  0  0  0  0  0  0  0  0  0  0
   33.2169   28.0373   45.6390 H   0  0  0  0  0  0  0  0  0  0  0  0
   32.7542   29.8839   46.1628 H   0  0  0  0  0  0  0  0  0  0  0  0
   37.4956   28.5945   51.3605 H   0  0  0  0  0  0  0  0  0  0  0  0
   38.3400   30.8394   51.5475 H   0  0  0  0  0  0  0  0  0  0  0  0
   37.5802   32.5480   49.9050 H   0  0  0  0  0  0  0  0  0  0  0  0
   30.1090   25.6586   47.7164 H   0  0  0  0  0  0  0  0  0  0  0  0
   27.7931   26.0864   48.3880 H   0  0  0  0  0  0  0  0  0  0  0  0
   26.4451   27.7532   47.3085 H   0  0  0  0  0  0  0  0  0  0  0  0
   27.1675   29.3578   45.3037 C   0  0  0  0  0  0  0  0  0  0  0  0
   27.9501   30.5230   44.7703 C   0  0  0  0  0  0  0  0  0  0  0  0
   27.1212   31.8084   44.7981 C   0  0  0  0  0  0  0  0  0  0  0  0
   25.6767   31.5569   44.4667 C   0  0  0  0  0  0  0  0  0  0  0  0
   25.0876   30.6914   45.5597 C   0  0  0  0  0  0  0  0  0  0  0  0
   26.1523   29.9038   46.2771 C   0  0  0  0  0  0  0  0  0  0  0  0
   26.5952   28.8628   44.4805 H   0  0  0  0  0  0  0  0  0  0  0  0
   28.1900   30.3218   43.7060 H   0  0  0  0  0  0  0  0  0  0  0  0
   28.8544   30.7495   45.3619 H   0  0  0  0  0  0  0  0  0  0  0  0
   27.5461   32.4634   44.0072 H   0  0  0  0  0  0  0  0  0  0  0  0
   27.2638   32.3349   45.7477 H   0  0  0  0  0  0  0  0  0  0  0  0
   25.6177   31.0704   43.4807 H   0  0  0  0  0  0  0  0  0  0  0  0
   25.1965   32.5462   44.3817 H   0  0  0  0  0  0  0  0  0  0  0  0
   24.6350   31.3877   46.3103 H   0  0  0  0  0  0  0  0  0  0  0  0
   24.2564   30.0599   45.1860 H   0  0  0  0  0  0  0  0  0  0  0  0
   25.7016   29.1531   46.9258 H   0  0  0  0  0  0  0  0  0  0  0  0
   26.6917   30.6591   46.9147 H   0  0  0  0  0  0  0  0  0  0  0  0
  1  2  1  0
  3  2  1  0
  4  3  1  0
  5  4  1  0
  5  1  1  0
  6  1  1  0
  7  2  1  0
  7 12  1  0
  8  9  2  0
 10  9  1  0
 11 10  2  0
 12 11  1  0
 12 13  2  0
 13  8  1  0
 14 17  1  0
 14  5  1  0
 15 16  1  0
 16 21  2  0
 16 17  1  0
 17 18  2  0
 18 19  1  0
 20 19  2  0
 21 20  1  0
  1 22  1  1
  2 23  1  1
  4 24  1  0
  4 25  1  0
  5 26  1  6
  6 27  1  0
  8 28  1  0
  9 29  1  0
 10 30  1  0
 18 31  1  0
 19 32  1  0
 20 33  1  0
 34 35  1  0
 35 36  1  0
 36 37  1  0
 37 38  1  0
 38 39  1  0
 39 34  1  0
 34 40  1  0
 35 41  1  0
 35 42  1  0
 36 43  1  0
 36 44  1  0
 37 45  1  0
 37 46  1  0
 38 47  1  0
 38 48  1  0
 39 49  1  0
 39 50  1  0
 21 34  1  0
M  ISO  8  22  13  23  13  24  13  25  13  26  13  27   3  28  14  29  14
M  ISO  4  30  14  31  14  32  14  33  14
M  END
>  <DihAtoms>  (1) 
15,20,33,34

>  <DihDeg>  (1) 
-89.97766188966965

$$$$
