
 OpenBabel03272506483D

 39 42  0  0  1  0  0  0  0  0999 V2000
   32.3480   28.5310   47.4180 C   0  0  2  0  0  0  0  0  0  0  0  0
   33.5590   28.4380   48.2990 C   0  0  1  0  0  0  0  0  0  0  0  0
   33.9900   27.1450   48.2870 O   0  0  0  0  0  0  0  0  0  0  0  0
   33.3540   26.4620   47.2560 C   0  0  0  0  0  0  0  0  0  0  0  0
   32.7580   27.4890   46.3300 C   0  0  1  0  0  0  0  0  0  0  0  0
   31.4110   28.2050   47.8550 H   0  0  0  0  0  0  0  0  0  0  0  0
   33.3050   28.8260   49.3070 H   0  0  0  0  0  0  0  0  0  0  0  0
   32.6760   25.7510   47.6970 H   0  0  0  0  0  0  0  0  0  0  0  0
   34.1520   25.8970   46.6990 H   0  0  0  0  0  0  0  0  0  0  0  0
   33.4800   27.9930   45.6950 H   0  0  0  0  0  0  0  0  0  0  0  0
   32.2640   29.8070   46.8200 O   0  0  0  0  0  0  0  0  0  0  0  0
   32.9540   29.8480   46.1200 H   0  0  0  0  0  0  0  0  0  0  0  0
   34.8720   29.4840   47.5500 S   0  0  0  0  0  0  0  0  0  0  0  0
   37.3260   29.3070   50.6540 C   0  0  0  0  0  0  0  0  0  0  0  0
   37.8140   30.6080   50.8020 C   0  0  0  0  0  0  0  0  0  0  0  0
   37.3680   31.5770   49.9070 C   0  0  0  0  0  0  0  0  0  0  0  0
   36.4810   31.2160   48.9360 N   0  0  0  0  0  0  0  0  0  0  0  0
   36.0340   29.9460   48.8280 C   0  0  0  0  0  0  0  0  0  0  0  0
   36.4490   28.9760   49.6830 N   0  0  0  0  0  0  0  0  0  0  0  0
   37.6980   28.6020   51.3630 H   0  0  0  0  0  0  0  0  0  0  0  0
   38.5220   30.8490   51.5950 H   0  0  0  0  0  0  0  0  0  0  0  0
   37.7300   32.5890   50.0020 H   0  0  0  0  0  0  0  0  0  0  0  0
   31.6500   26.9530   45.7200 O   0  0  0  0  0  0  0  0  0  0  0  0
   30.5590   29.0560   43.9710 Cl  0  0  0  0  0  0  0  0  0  0  0  0
   29.7650   28.1980   45.2700 C   0  0  0  0  0  0  0  0  0  0  0  0
   30.3820   27.2190   46.0150 C   0  0  0  0  0  0  0  0  0  0  0  0
   29.6350   26.5850   47.0100 C   0  0  0  0  0  0  0  0  0  0  0  0
   28.3210   26.9360   47.2330 C   0  0  0  0  0  0  0  0  0  0  0  0
   27.6930   27.9180   46.4900 C   0  0  0  0  0  0  0  0  0  0  0  0
   28.4370   28.5430   45.5060 C   0  0  0  0  0  0  0  0  0  0  0  0
   30.0370   25.8060   47.6350 H   0  0  0  0  0  0  0  0  0  0  0  0
   27.7070   26.4710   47.9920 H   0  0  0  0  0  0  0  0  0  0  0  0
   26.6600   28.1840   46.6760 H   0  0  0  0  0  0  0  0  0  0  0  0
   27.7660   29.6010   44.7040 C   0  0  0  0  0  3  0  0  0  0  0  0
   27.6640   30.9130   45.4280 C   0  0  0  0  0  2  0  0  0  0  0  0
   26.4240   31.6940   44.9880 C   0  0  0  0  0  2  0  0  0  0  0  0
   26.1440   31.5320   43.5210 C   0  0  0  0  0  2  0  0  0  0  0  0
   25.7980   30.0800   43.2660 C   0  0  0  0  0  2  0  0  0  0  0  0
   26.3650   29.1810   44.3320 C   0  0  0  0  0  2  0  0  0  0  0  0
  1  6  1  1  0  0  0
  1  2  1  0  0  0  0
  2  7  1  1  0  0  0
  3  2  1  0  0  0  0
  4  8  1  0  0  0  0
  4  3  1  0  0  0  0
  5 10  1  6  0  0  0
  5  4  1  0  0  0  0
  5  1  1  0  0  0  0
  9  4  1  0  0  0  0
 11  1  1  0  0  0  0
 12 11  1  0  0  0  0
 13  2  1  0  0  0  0
 13 18  1  0  0  0  0
 14 15  1  0  0  0  0
 14 20  1  0  0  0  0
 15 21  1  0  0  0  0
 16 22  1  0  0  0  0
 16 15  2  0  0  0  0
 17 16  1  0  0  0  0
 18 17  2  0  0  0  0
 18 19  1  0  0  0  0
 19 14  2  0  0  0  0
 23 26  1  0  0  0  0
 23  5  1  0  0  0  0
 24 25  1  0  0  0  0
 25 30  2  0  0  0  0
 25 26  1  0  0  0  0
 26 27  2  0  0  0  0
 27 28  1  0  0  0  0
 27 31  1  0  0  0  0
 28 32  1  0  0  0  0
 29 33  1  0  0  0  0
 29 28  2  0  0  0  0
 30 29  1  0  0  0  0
 34 35  1  0  0  0  0
 34 30  1  0  0  0  0
 36 35  1  0  0  0  0
 37 36  1  0  0  0  0
 38 37  1  0  0  0  0
 38 39  1  0  0  0  0
 39 34  1  0  0  0  0
M  END
>  <minimizedAffinity>
-5.17122793

>  <minimizedRMSD>
0.612207055

$$$$
