
 OpenBabel03272503273D

 27 29  0  0  1  0  0  0  0  0999 V2000
   38.3480   23.0490   34.5890 N   0  0  0  0  0  0  0  0  0  0  0  0
   37.9370   21.8700   33.8720 C   0  0  0  0  0  0  0  0  0  0  0  0
   37.3160   22.4440   32.6220 C   0  0  2  0  0  0  0  0  0  0  0  0
   37.2430   23.9400   32.8310 C   0  0  0  0  0  0  0  0  0  0  0  0
   38.5610   24.0980   33.5960 C   0  0  0  0  0  0  0  0  0  0  0  0
   38.7770   21.1760   33.6630 H   0  0  0  0  0  0  0  0  0  0  0  0
   37.1890   21.2700   34.4190 H   0  0  0  0  0  0  0  0  0  0  0  0
   38.0510   22.2900   31.7990 H   0  0  0  0  0  0  0  0  0  0  0  0
   36.4470   24.2460   33.5160 H   0  0  0  0  0  0  0  0  0  0  0  0
   37.2820   24.5070   31.8930 H   0  0  0  0  0  0  0  0  0  0  0  0
   38.6600   25.0930   34.0340 H   0  0  0  0  0  0  0  0  0  0  0  0
   39.3500   23.7700   32.9200 H   0  0  0  0  0  0  0  0  0  0  0  0
   38.5260   23.2040   35.9990 C   0  0  0  0  0  0  0  0  0  0  0  0
   39.7080   22.6720   36.5270 C   0  0  0  0  0  0  0  0  0  0  0  0
   39.9320   22.7960   37.8980 C   0  0  0  0  0  0  0  0  0  0  0  0
   38.9810   23.4290   38.6450 N   0  0  0  0  0  0  0  0  0  0  0  0
   37.8520   23.9280   38.0910 C   0  0  0  0  0  0  0  0  0  0  0  0
   37.6200   23.8140   36.7550 N   0  0  0  0  0  0  0  0  0  0  0  0
   40.4750   22.1720   35.9830 H   0  0  0  0  0  0  0  0  0  0  0  0
   40.8170   22.4140   38.3870 H   0  0  0  0  0  0  0  0  0  0  0  0
   37.1150   24.4300   38.7350 H   0  0  0  0  0  0  0  0  0  0  0  0
   35.9660   21.8700   32.3010 C   0  0  0  0  0  3  0  0  0  0  0  0
   35.5950   20.7010   33.1460 C   0  0  0  0  0  2  0  0  0  0  0  0
   34.8450   19.6310   32.3420 C   0  0  0  0  0  2  0  0  0  0  0  0
   35.7640   18.9670   31.3470 C   0  0  0  0  0  2  0  0  0  0  0  0
   36.7570   20.0120   30.8710 C   0  0  0  0  0  2  0  0  0  0  0  0
   36.0560   21.3540   30.8650 C   0  0  0  0  0  2  0  0  0  0  0  0
  1 13  1  0  0  0  0
  2  7  1  0  0  0  0
  2  1  1  0  0  0  0
  3  8  1  6  0  0  0
  3  4  1  0  0  0  0
  3  2  1  0  0  0  0
  4  9  1  0  0  0  0
  4  5  1  0  0  0  0
  5 11  1  0  0  0  0
  5  1  1  0  0  0  0
  6  2  1  0  0  0  0
 10  4  1  0  0  0  0
 12  5  1  0  0  0  0
 13 14  2  0  0  0  0
 13 18  1  0  0  0  0
 14 15  1  0  0  0  0
 15 20  1  0  0  0  0
 15 16  2  0  0  0  0
 17 16  1  0  0  0  0
 17 21  1  0  0  0  0
 18 17  2  0  0  0  0
 19 14  1  0  0  0  0
 22  3  1  0  0  0  0
 22 23  1  0  0  0  0
 24 23  1  0  0  0  0
 25 24  1  0  0  0  0
 26 25  1  0  0  0  0
 27 26  1  0  0  0  0
 27 22  1  0  0  0  0
M  END
>  <minimizedAffinity>
-4.9054904

$$$$

 OpenBabel03272503273D

 27 29  0  0  1  0  0  0  0  0999 V2000
   37.4000   24.7230   32.6400 N   0  0  0  0  0  0  0  0  0  0  0  0
   37.4510   23.2850   32.6130 C   0  0  0  0  0  0  0  0  0  0  0  0
   36.3260   22.9330   31.6700 C   0  0  2  0  0  0  0  0  0  0  0  0
   35.5850   24.2210   31.3930 C   0  0  0  0  0  0  0  0  0  0  0  0
   36.8020   25.1520   31.3790 C   0  0  0  0  0  0  0  0  0  0  0  0
   38.4350   22.8930   32.2840 H   0  0  0  0  0  0  0  0  0  0  0  0
   37.2680   22.8260   33.6010 H   0  0  0  0  0  0  0  0  0  0  0  0
   36.7970   22.6410   30.7040 H   0  0  0  0  0  0  0  0  0  0  0  0
   34.9520   24.5470   32.2230 H   0  0  0  0  0  0  0  0  0  0  0  0
   35.0930   24.2290   30.4120 H   0  0  0  0  0  0  0  0  0  0  0  0
   36.5090   26.2030   31.3760 H   0  0  0  0  0  0  0  0  0  0  0  0
   37.4410   24.8090   30.5670 H   0  0  0  0  0  0  0  0  0  0  0  0
   37.8400   25.5990   33.6810 C   0  0  0  0  0  0  0  0  0  0  0  0
   37.0170   26.7020   33.9390 C   0  0  0  0  0  0  0  0  0  0  0  0
   37.3990   27.5900   34.9450 C   0  0  0  0  0  0  0  0  0  0  0  0
   38.5570   27.3290   35.6190 N   0  0  0  0  0  0  0  0  0  0  0  0
   39.3220   26.2500   35.3350 C   0  0  0  0  0  0  0  0  0  0  0  0
   38.9620   25.3760   34.3560 N   0  0  0  0  0  0  0  0  0  0  0  0
   36.1070   26.9430   33.4390 H   0  0  0  0  0  0  0  0  0  0  0  0
   36.8230   28.4640   35.2070 H   0  0  0  0  0  0  0  0  0  0  0  0
   40.2470   26.0830   35.9060 H   0  0  0  0  0  0  0  0  0  0  0  0
   35.4030   21.8730   32.2020 C   0  0  0  0  0  3  0  0  0  0  0  0
   35.9670   21.1060   33.3470 C   0  0  0  0  0  2  0  0  0  0  0  0
   35.5900   19.6210   33.2790 C   0  0  0  0  0  2  0  0  0  0  0  0
   36.2900   18.9430   32.1270 C   0  0  0  0  0  2  0  0  0  0  0  0
   36.4170   19.9580   31.0060 C   0  0  0  0  0  2  0  0  0  0  0  0
   35.2100   20.8710   31.0640 C   0  0  0  0  0  2  0  0  0  0  0  0
  1 13  1  0  0  0  0
  2  1  1  0  0  0  0
  2  7  1  0  0  0  0
  3  8  1  6  0  0  0
  3 22  1  0  0  0  0
  3  2  1  0  0  0  0
  4  3  1  0  0  0  0
  4  9  1  0  0  0  0
  5  4  1  0  0  0  0
  5  1  1  0  0  0  0
  6  2  1  0  0  0  0
 10  4  1  0  0  0  0
 11  5  1  0  0  0  0
 12  5  1  0  0  0  0
 13 14  2  0  0  0  0
 13 18  1  0  0  0  0
 14 15  1  0  0  0  0
 15 20  1  0  0  0  0
 15 16  2  0  0  0  0
 17 16  1  0  0  0  0
 17 21  1  0  0  0  0
 18 17  2  0  0  0  0
 19 14  1  0  0  0  0
 22 23  1  0  0  0  0
 24 23  1  0  0  0  0
 25 24  1  0  0  0  0
 26 27  1  0  0  0  0
 26 25  1  0  0  0  0
 27 22  1  0  0  0  0
M  END
>  <minimizedAffinity>
-4.81521988

$$$$

 OpenBabel03272503273D

 27 29  0  0  1  0  0  0  0  0999 V2000
   38.6380   26.1750   34.7510 N   0  0  0  0  0  0  0  0  0  0  0  0
   39.0220   26.3670   33.3770 C   0  0  0  0  0  0  0  0  0  0  0  0
   37.9510   27.2970   32.8620 C   0  0  2  0  0  0  0  0  0  0  0  0
   36.9120   27.3970   33.9560 C   0  0  0  0  0  0  0  0  0  0  0  0
   37.8740   27.3540   35.1480 C   0  0  0  0  0  0  0  0  0  0  0  0
   40.0470   26.7780   33.2680 H   0  0  0  0  0  0  0  0  0  0  0  0
   39.0180   25.4300   32.7910 H   0  0  0  0  0  0  0  0  0  0  0  0
   38.4130   28.3090   32.7900 H   0  0  0  0  0  0  0  0  0  0  0  0
   36.2770   26.5100   34.0360 H   0  0  0  0  0  0  0  0  0  0  0  0
   36.3680   28.3500   33.9440 H   0  0  0  0  0  0  0  0  0  0  0  0
   37.3430   27.2270   36.0930 H   0  0  0  0  0  0  0  0  0  0  0  0
   38.5200   28.2260   35.0520 H   0  0  0  0  0  0  0  0  0  0  0  0
   38.9280   25.0610   35.5980 C   0  0  0  0  0  0  0  0  0  0  0  0
   38.0380   24.8530   36.6590 C   0  0  0  0  0  0  0  0  0  0  0  0
   38.2750   23.7790   37.5170 C   0  0  0  0  0  0  0  0  0  0  0  0
   39.3640   22.9930   37.2710 N   0  0  0  0  0  0  0  0  0  0  0  0
   40.1980   23.2330   36.2320 C   0  0  0  0  0  0  0  0  0  0  0  0
   39.9790   24.2770   35.3870 N   0  0  0  0  0  0  0  0  0  0  0  0
   37.1780   25.4390   36.8880 H   0  0  0  0  0  0  0  0  0  0  0  0
   37.6390   23.5480   38.3590 H   0  0  0  0  0  0  0  0  0  0  0  0
   41.0620   22.5710   36.0750 H   0  0  0  0  0  0  0  0  0  0  0  0
   37.3390   26.8520   31.5640 C   0  0  0  0  0  3  0  0  0  0  0  0
   35.8510   26.8370   31.5780 C   0  0  0  0  0  2  0  0  0  0  0  0
   35.2850   25.6410   30.8010 C   0  0  0  0  0  2  0  0  0  0  0  0
   35.5770   24.3480   31.5230 C   0  0  0  0  0  2  0  0  0  0  0  0
   36.9190   24.5020   32.2150 C   0  0  0  0  0  2  0  0  0  0  0  0
   37.7840   25.4050   31.3600 C   0  0  0  0  0  2  0  0  0  0  0  0
  1  5  1  0  0  0  0
  1 13  1  0  0  0  0
  2  1  1  0  0  0  0
  3  8  1  6  0  0  0
  3  2  1  0  0  0  0
  3  4  1  0  0  0  0
  4  9  1  0  0  0  0
  4  5  1  0  0  0  0
  5 11  1  0  0  0  0
  6  2  1  0  0  0  0
  7  2  1  0  0  0  0
 10  4  1  0  0  0  0
 12  5  1  0  0  0  0
 13 14  1  0  0  0  0
 14 19  1  0  0  0  0
 14 15  2  0  0  0  0
 15 20  1  0  0  0  0
 16 15  1  0  0  0  0
 17 16  2  0  0  0  0
 18 13  2  0  0  0  0
 18 17  1  0  0  0  0
 21 17  1  0  0  0  0
 22 23  1  0  0  0  0
 22  3  1  0  0  0  0
 24 25  1  0  0  0  0
 24 23  1  0  0  0  0
 25 26  1  0  0  0  0
 27 22  1  0  0  0  0
 27 26  1  0  0  0  0
M  END
>  <minimizedAffinity>
-4.69770908

$$$$

 OpenBabel03272503273D

 27 29  0  0  1  0  0  0  0  0999 V2000
   36.3200   28.3310   33.6540 N   0  0  0  0  0  0  0  0  0  0  0  0
   35.4240   29.0340   34.5350 C   0  0  0  0  0  0  0  0  0  0  0  0
   35.0410   30.2440   33.7180 C   0  0  2  0  0  0  0  0  0  0  0  0
   35.9300   30.2290   32.4950 C   0  0  0  0  0  0  0  0  0  0  0  0
   35.9630   28.7120   32.2910 C   0  0  0  0  0  0  0  0  0  0  0  0
   34.5510   28.4210   34.8430 H   0  0  0  0  0  0  0  0  0  0  0  0
   35.9040   29.3540   35.4760 H   0  0  0  0  0  0  0  0  0  0  0  0
   34.0080   30.0650   33.3430 H   0  0  0  0  0  0  0  0  0  0  0  0
   36.9590   30.5390   32.7000 H   0  0  0  0  0  0  0  0  0  0  0  0
   35.4700   30.7170   31.6260 H   0  0  0  0  0  0  0  0  0  0  0  0
   36.7100   28.4170   31.5520 H   0  0  0  0  0  0  0  0  0  0  0  0
   34.9340   28.4030   32.1110 H   0  0  0  0  0  0  0  0  0  0  0  0
   37.3690   27.4260   34.0070 C   0  0  0  0  0  0  0  0  0  0  0  0
   37.9290   27.6060   35.2770 C   0  0  0  0  0  0  0  0  0  0  0  0
   38.9570   26.7490   35.6720 C   0  0  0  0  0  0  0  0  0  0  0  0
   39.3570   25.7840   34.7930 N   0  0  0  0  0  0  0  0  0  0  0  0
   38.7860   25.6480   33.5740 C   0  0  0  0  0  0  0  0  0  0  0  0
   37.7830   26.4760   33.1750 N   0  0  0  0  0  0  0  0  0  0  0  0
   37.6490   28.3430   35.9940 H   0  0  0  0  0  0  0  0  0  0  0  0
   39.4440   26.8190   36.6340 H   0  0  0  0  0  0  0  0  0  0  0  0
   39.1430   24.8540   32.9000 H   0  0  0  0  0  0  0  0  0  0  0  0
   35.1630   31.5400   34.4680 C   0  0  0  0  0  3  0  0  0  0  0  0
   35.7300   31.3900   35.8370 C   0  0  0  0  0  2  0  0  0  0  0  0
   35.0490   32.3270   36.8430 C   0  0  0  0  0  2  0  0  0  0  0  0
   33.6230   31.9000   37.0910 C   0  0  0  0  0  2  0  0  0  0  0  0
   33.0860   31.3190   35.7950 C   0  0  0  0  0  2  0  0  0  0  0  0
   33.7370   32.0610   34.6460 C   0  0  0  0  0  2  0  0  0  0  0  0
  1 13  1  0  0  0  0
  1  2  1  0  0  0  0
  2  6  1  0  0  0  0
  2  7  1  0  0  0  0
  3  8  1  6  0  0  0
  3 22  1  0  0  0  0
  3  2  1  0  0  0  0
  4  9  1  0  0  0  0
  4  3  1  0  0  0  0
  5  4  1  0  0  0  0
  5  1  1  0  0  0  0
 10  4  1  0  0  0  0
 11  5  1  0  0  0  0
 12  5  1  0  0  0  0
 13 14  1  0  0  0  0
 14 15  2  0  0  0  0
 14 19  1  0  0  0  0
 15 20  1  0  0  0  0
 16 15  1  0  0  0  0
 17 16  2  0  0  0  0
 18 17  1  0  0  0  0
 18 13  2  0  0  0  0
 21 17  1  0  0  0  0
 22 27  1  0  0  0  0
 22 23  1  0  0  0  0
 23 24  1  0  0  0  0
 24 25  1  0  0  0  0
 26 25  1  0  0  0  0
 27 26  1  0  0  0  0
M  END
>  <minimizedAffinity>
-4.69302416

$$$$

 OpenBabel03272503273D

 27 29  0  0  1  0  0  0  0  0999 V2000
   37.9840   26.3490   33.5320 N   0  0  0  0  0  0  0  0  0  0  0  0
   38.5680   25.9170   34.7740 C   0  0  0  0  0  0  0  0  0  0  0  0
   38.6390   24.4200   34.6020 C   0  0  2  0  0  0  0  0  0  0  0  0
   37.8850   24.1020   33.3300 C   0  0  0  0  0  0  0  0  0  0  0  0
   38.3120   25.3370   32.5320 C   0  0  0  0  0  0  0  0  0  0  0  0
   39.5570   26.3810   34.9710 H   0  0  0  0  0  0  0  0  0  0  0  0
   37.9480   26.1640   35.6540 H   0  0  0  0  0  0  0  0  0  0  0  0
   39.7040   24.1700   34.3920 H   0  0  0  0  0  0  0  0  0  0  0  0
   36.7990   24.1620   33.4410 H   0  0  0  0  0  0  0  0  0  0  0  0
   38.2450   23.1910   32.8360 H   0  0  0  0  0  0  0  0  0  0  0  0
   37.7400   25.4420   31.6090 H   0  0  0  0  0  0  0  0  0  0  0  0
   39.3960   25.2870   32.4440 H   0  0  0  0  0  0  0  0  0  0  0  0
   37.2220   27.5330   33.2830 C   0  0  0  0  0  0  0  0  0  0  0  0
   36.5260   28.0530   34.3810 C   0  0  0  0  0  0  0  0  0  0  0  0
   35.7670   29.2090   34.1940 C   0  0  0  0  0  0  0  0  0  0  0  0
   35.7470   29.7630   32.9470 N   0  0  0  0  0  0  0  0  0  0  0  0
   36.4350   29.2250   31.9140 C   0  0  0  0  0  0  0  0  0  0  0  0
   37.1800   28.0990   32.0820 N   0  0  0  0  0  0  0  0  0  0  0  0
   36.5140   27.6540   35.3690 H   0  0  0  0  0  0  0  0  0  0  0  0
   35.2010   29.6750   34.9870 H   0  0  0  0  0  0  0  0  0  0  0  0
   36.3880   29.7100   30.9270 H   0  0  0  0  0  0  0  0  0  0  0  0
   38.0900   23.6520   35.7710 C   0  0  0  0  0  3  0  0  0  0  0  0
   38.2510   24.3510   37.0750 C   0  0  0  0  0  2  0  0  0  0  0  0
   38.5920   23.3740   38.2080 C   0  0  0  0  0  2  0  0  0  0  0  0
   39.9810   22.8120   38.0280 C   0  0  0  0  0  2  0  0  0  0  0  0
   40.2370   22.6880   36.5370 C   0  0  0  0  0  2  0  0  0  0  0  0
   38.9180   22.3710   35.8620 C   0  0  0  0  0  2  0  0  0  0  0  0
  1  2  1  0  0  0  0
  2  6  1  0  0  0  0
  2  7  1  0  0  0  0
  3  8  1  6  0  0  0
  3  2  1  0  0  0  0
  3 22  1  0  0  0  0
  4  9  1  0  0  0  0
  4  3  1  0  0  0  0
  5  4  1  0  0  0  0
  5  1  1  0  0  0  0
 10  4  1  0  0  0  0
 11  5  1  0  0  0  0
 12  5  1  0  0  0  0
 13  1  1  0  0  0  0
 13 14  1  0  0  0  0
 14 19  1  0  0  0  0
 15 14  2  0  0  0  0
 15 20  1  0  0  0  0
 16 15  1  0  0  0  0
 17 18  1  0  0  0  0
 17 16  2  0  0  0  0
 18 13  2  0  0  0  0
 21 17  1  0  0  0  0
 22 27  1  0  0  0  0
 22 23  1  0  0  0  0
 23 24  1  0  0  0  0
 25 24  1  0  0  0  0
 26 25  1  0  0  0  0
 27 26  1  0  0  0  0
M  END
>  <minimizedAffinity>
-4.67669201

$$$$

 OpenBabel03272503273D

 27 29  0  0  1  0  0  0  0  0999 V2000
   38.6980   26.1470   35.1740 N   0  0  0  0  0  0  0  0  0  0  0  0
   38.9240   26.4560   33.7870 C   0  0  0  0  0  0  0  0  0  0  0  0
   37.8970   27.5280   33.5160 C   0  0  2  0  0  0  0  0  0  0  0  0
   37.0190   27.5960   34.7450 C   0  0  0  0  0  0  0  0  0  0  0  0
   38.1130   27.3370   35.7850 C   0  0  0  0  0  0  0  0  0  0  0  0
   39.9640   26.7850   33.5800 H   0  0  0  0  0  0  0  0  0  0  0  0
   38.7520   25.5940   33.1170 H   0  0  0  0  0  0  0  0  0  0  0  0
   38.4460   28.4970   33.4820 H   0  0  0  0  0  0  0  0  0  0  0  0
   36.3130   26.7640   34.8220 H   0  0  0  0  0  0  0  0  0  0  0  0
   36.5780   28.5880   34.9020 H   0  0  0  0  0  0  0  0  0  0  0  0
   37.6960   27.1510   36.7760 H   0  0  0  0  0  0  0  0  0  0  0  0
   38.8280   28.1530   35.6900 H   0  0  0  0  0  0  0  0  0  0  0  0
   38.9780   24.9240   35.8600 C   0  0  0  0  0  0  0  0  0  0  0  0
   38.1180   24.6060   36.9180 C   0  0  0  0  0  0  0  0  0  0  0  0
   38.3460   23.4230   37.6210 C   0  0  0  0  0  0  0  0  0  0  0  0
   39.3990   22.6450   37.2350 N   0  0  0  0  0  0  0  0  0  0  0  0
   40.2050   22.9920   36.2060 C   0  0  0  0  0  0  0  0  0  0  0  0
   39.9950   24.1430   35.5110 N   0  0  0  0  0  0  0  0  0  0  0  0
   37.2860   25.1830   37.2510 H   0  0  0  0  0  0  0  0  0  0  0  0
   37.7300   23.1040   38.4490 H   0  0  0  0  0  0  0  0  0  0  0  0
   41.0410   22.3310   35.9330 H   0  0  0  0  0  0  0  0  0  0  0  0
   37.0850   27.2850   32.2750 C   0  0  0  0  0  3  0  0  0  0  0  0
   37.8080   27.6060   31.0140 C   0  0  0  0  0  2  0  0  0  0  0  0
   36.8820   28.2500   29.9730 C   0  0  0  0  0  2  0  0  0  0  0  0
   36.4690   29.6340   30.4090 C   0  0  0  0  0  2  0  0  0  0  0  0
   36.3620   29.6260   31.9230 C   0  0  0  0  0  2  0  0  0  0  0  0
   35.9000   28.2470   32.3500 C   0  0  0  0  0  2  0  0  0  0  0  0
  1  5  1  0  0  0  0
  1 13  1  0  0  0  0
  2  1  1  0  0  0  0
  3  8  1  6  0  0  0
  3  2  1  0  0  0  0
  3  4  1  0  0  0  0
  4  9  1  0  0  0  0
  4 10  1  0  0  0  0
  4  5  1  0  0  0  0
  5 11  1  0  0  0  0
  6  2  1  0  0  0  0
  7  2  1  0  0  0  0
 12  5  1  0  0  0  0
 13 14  1  0  0  0  0
 14 19  1  0  0  0  0
 14 15  2  0  0  0  0
 15 20  1  0  0  0  0
 16 15  1  0  0  0  0
 17 16  2  0  0  0  0
 18 13  2  0  0  0  0
 18 17  1  0  0  0  0
 21 17  1  0  0  0  0
 22 27  1  0  0  0  0
 22  3  1  0  0  0  0
 23 22  1  0  0  0  0
 24 25  1  0  0  0  0
 24 23  1  0  0  0  0
 25 26  1  0  0  0  0
 26 27  1  0  0  0  0
M  END
>  <minimizedAffinity>
-4.66943884

$$$$

 OpenBabel03272503273D

 27 29  0  0  1  0  0  0  0  0999 V2000
   34.5750   29.3250   33.4230 N   0  0  0  0  0  0  0  0  0  0  0  0
   35.6940   29.1890   34.3180 C   0  0  0  0  0  0  0  0  0  0  0  0
   36.6480   28.3290   33.5260 C   0  0  2  0  0  0  0  0  0  0  0  0
   35.8890   27.8700   32.3010 C   0  0  0  0  0  0  0  0  0  0  0  0
   35.0910   29.1570   32.0680 C   0  0  0  0  0  0  0  0  0  0  0  0
   36.1310   30.1650   34.6160 H   0  0  0  0  0  0  0  0  0  0  0  0
   35.4330   28.6840   35.2650 H   0  0  0  0  0  0  0  0  0  0  0  0
   37.4510   29.0030   33.1490 H   0  0  0  0  0  0  0  0  0  0  0  0
   35.1580   27.0840   32.5100 H   0  0  0  0  0  0  0  0  0  0  0  0
   36.5420   27.6710   31.4420 H   0  0  0  0  0  0  0  0  0  0  0  0
   34.3060   29.0200   31.3220 H   0  0  0  0  0  0  0  0  0  0  0  0
   35.8220   29.9430   31.8840 H   0  0  0  0  0  0  0  0  0  0  0  0
   33.2080   29.5770   33.7570 C   0  0  0  0  0  0  0  0  0  0  0  0
   32.9660   29.9820   35.0750 C   0  0  0  0  0  0  0  0  0  0  0  0
   31.6480   30.2410   35.4540 C   0  0  0  0  0  0  0  0  0  0  0  0
   30.6710   30.0820   34.5140 N   0  0  0  0  0  0  0  0  0  0  0  0
   30.9520   29.6880   33.2510 C   0  0  0  0  0  0  0  0  0  0  0  0
   32.2320   29.4320   32.8670 N   0  0  0  0  0  0  0  0  0  0  0  0
   33.6960   30.1190   35.8390 H   0  0  0  0  0  0  0  0  0  0  0  0
   31.3740   30.5570   36.4500 H   0  0  0  0  0  0  0  0  0  0  0  0
   30.1300   29.5740   32.5290 H   0  0  0  0  0  0  0  0  0  0  0  0
   37.1940   27.1630   34.3000 C   0  0  0  0  0  3  0  0  0  0  0  0
   38.0330   27.5580   35.4640 C   0  0  0  0  0  2  0  0  0  0  0  0
   39.2360   26.6220   35.6440 C   0  0  0  0  0  2  0  0  0  0  0  0
   40.2270   26.8030   34.5200 C   0  0  0  0  0  2  0  0  0  0  0  0
   39.4410   27.1360   33.2650 C   0  0  0  0  0  2  0  0  0  0  0  0
   38.1130   26.4110   33.3390 C   0  0  0  0  0  2  0  0  0  0  0  0
  1 13  1  0  0  0  0
  1  2  1  0  0  0  0
  2  6  1  0  0  0  0
  2  7  1  0  0  0  0
  3  8  1  6  0  0  0
  3 22  1  0  0  0  0
  3  2  1  0  0  0  0
  4  9  1  0  0  0  0
  4  3  1  0  0  0  0
  5  4  1  0  0  0  0
  5  1  1  0  0  0  0
 10  4  1  0  0  0  0
 11  5  1  0  0  0  0
 12  5  1  0  0  0  0
 13 14  1  0  0  0  0
 14 15  2  0  0  0  0
 14 19  1  0  0  0  0
 15 20  1  0  0  0  0
 16 15  1  0  0  0  0
 17 16  2  0  0  0  0
 18 17  1  0  0  0  0
 18 13  2  0  0  0  0
 21 17  1  0  0  0  0
 22 23  1  0  0  0  0
 23 24  1  0  0  0  0
 25 24  1  0  0  0  0
 26 27  1  0  0  0  0
 26 25  1  0  0  0  0
 27 22  1  0  0  0  0
M  END
>  <minimizedAffinity>
-4.63720703

$$$$

 OpenBabel03272503273D

 27 29  0  0  1  0  0  0  0  0999 V2000
   38.7750   24.4620   34.5850 N   0  0  0  0  0  0  0  0  0  0  0  0
   39.2630   23.7850   33.4130 C   0  0  0  0  0  0  0  0  0  0  0  0
   38.3710   24.3280   32.3230 C   0  0  2  0  0  0  0  0  0  0  0  0
   37.2940   25.1320   33.0170 C   0  0  0  0  0  0  0  0  0  0  0  0
   38.1670   25.7100   34.1350 C   0  0  0  0  0  0  0  0  0  0  0  0
   40.3420   23.9680   33.2250 H   0  0  0  0  0  0  0  0  0  0  0  0
   39.1580   22.6870   33.4700 H   0  0  0  0  0  0  0  0  0  0  0  0
   38.9770   25.0660   31.7500 H   0  0  0  0  0  0  0  0  0  0  0  0
   36.5340   24.5140   33.5030 H   0  0  0  0  0  0  0  0  0  0  0  0
   36.8960   25.9420   32.3930 H   0  0  0  0  0  0  0  0  0  0  0  0
   37.5690   26.2010   34.9040 H   0  0  0  0  0  0  0  0  0  0  0  0
   38.9380   26.3050   33.6470 H   0  0  0  0  0  0  0  0  0  0  0  0
   38.8500   24.0280   35.9460 C   0  0  0  0  0  0  0  0  0  0  0  0
   37.8590   24.5270   36.8010 C   0  0  0  0  0  0  0  0  0  0  0  0
   37.8860   24.1360   38.1390 C   0  0  0  0  0  0  0  0  0  0  0  0
   38.8800   23.2880   38.5370 N   0  0  0  0  0  0  0  0  0  0  0  0
   39.8170   22.8320   37.6750 C   0  0  0  0  0  0  0  0  0  0  0  0
   39.8040   23.2050   36.3660 N   0  0  0  0  0  0  0  0  0  0  0  0
   37.0670   25.1880   36.5340 H   0  0  0  0  0  0  0  0  0  0  0  0
   37.1610   24.4730   38.8650 H   0  0  0  0  0  0  0  0  0  0  0  0
   40.5980   22.1500   38.0430 H   0  0  0  0  0  0  0  0  0  0  0  0
   37.7790   23.2650   31.4430 C   0  0  0  0  0  3  0  0  0  0  0  0
   36.3100   23.4040   31.2400 C   0  0  0  0  0  2  0  0  0  0  0  0
   35.6050   22.0410   31.2180 C   0  0  0  0  0  2  0  0  0  0  0  0
   35.6320   21.4030   32.5840 C   0  0  0  0  0  2  0  0  0  0  0  0
   36.9340   21.8050   33.2540 C   0  0  0  0  0  2  0  0  0  0  0  0
   37.9900   21.9410   32.1760 C   0  0  0  0  0  2  0  0  0  0  0  0
  1 13  1  0  0  0  0
  2  7  1  0  0  0  0
  2  1  1  0  0  0  0
  3  8  1  6  0  0  0
  3  4  1  0  0  0  0
  3  2  1  0  0  0  0
  4  9  1  0  0  0  0
  4  5  1  0  0  0  0
  5  1  1  0  0  0  0
  5 11  1  0  0  0  0
  6  2  1  0  0  0  0
 10  4  1  0  0  0  0
 12  5  1  0  0  0  0
 13 18  2  0  0  0  0
 13 14  1  0  0  0  0
 14 15  2  0  0  0  0
 15 16  1  0  0  0  0
 15 20  1  0  0  0  0
 17 21  1  0  0  0  0
 17 16  2  0  0  0  0
 18 17  1  0  0  0  0
 19 14  1  0  0  0  0
 22 27  1  0  0  0  0
 22  3  1  0  0  0  0
 23 22  1  0  0  0  0
 24 23  1  0  0  0  0
 24 25  1  0  0  0  0
 25 26  1  0  0  0  0
 27 26  1  0  0  0  0
M  END
>  <minimizedAffinity>
-4.6362052

$$$$

 OpenBabel03272503273D

 27 29  0  0  1  0  0  0  0  0999 V2000
   38.8800   24.5380   34.7120 N   0  0  0  0  0  0  0  0  0  0  0  0
   37.7940   25.2390   34.0800 C   0  0  0  0  0  0  0  0  0  0  0  0
   38.4920   26.0180   32.9930 C   0  0  2  0  0  0  0  0  0  0  0  0
   39.9750   25.8470   33.2330 C   0  0  0  0  0  0  0  0  0  0  0  0
   39.9330   24.3930   33.7110 C   0  0  0  0  0  0  0  0  0  0  0  0
   37.0070   24.5590   33.6930 H   0  0  0  0  0  0  0  0  0  0  0  0
   37.2710   25.9330   34.7620 H   0  0  0  0  0  0  0  0  0  0  0  0
   38.2780   25.4930   32.0340 H   0  0  0  0  0  0  0  0  0  0  0  0
   40.3520   26.4400   34.0710 H   0  0  0  0  0  0  0  0  0  0  0  0
   40.5690   25.9250   32.3140 H   0  0  0  0  0  0  0  0  0  0  0  0
   40.8880   24.0760   34.1320 H   0  0  0  0  0  0  0  0  0  0  0  0
   39.5350   23.8090   32.8820 H   0  0  0  0  0  0  0  0  0  0  0  0
   38.9540   24.0590   36.0570 C   0  0  0  0  0  0  0  0  0  0  0  0
   37.9870   24.5590   36.9370 C   0  0  0  0  0  0  0  0  0  0  0  0
   38.0130   24.1240   38.2620 C   0  0  0  0  0  0  0  0  0  0  0  0
   38.9840   23.2340   38.6220 N   0  0  0  0  0  0  0  0  0  0  0  0
   39.8990   22.7780   37.7370 C   0  0  0  0  0  0  0  0  0  0  0  0
   39.8860   23.1930   36.4420 N   0  0  0  0  0  0  0  0  0  0  0  0
   37.2130   25.2510   36.6990 H   0  0  0  0  0  0  0  0  0  0  0  0
   37.3040   24.4600   39.0050 H   0  0  0  0  0  0  0  0  0  0  0  0
   40.6620   22.0610   38.0760 H   0  0  0  0  0  0  0  0  0  0  0  0
   38.1080   27.4700   32.9500 C   0  0  0  0  0  3  0  0  0  0  0  0
   36.9630   27.8130   33.8390 C   0  0  0  0  0  2  0  0  0  0  0  0
   36.0300   28.8470   33.1950 C   0  0  0  0  0  2  0  0  0  0  0  0
   35.2940   28.2450   32.0230 C   0  0  0  0  0  2  0  0  0  0  0  0
   36.2210   27.2390   31.3660 C   0  0  0  0  0  2  0  0  0  0  0  0
   37.6410   27.7420   31.5210 C   0  0  0  0  0  2  0  0  0  0  0  0
  1 13  1  0  0  0  0
  2  1  1  0  0  0  0
  2  7  1  0  0  0  0
  3  8  1  6  0  0  0
  3  4  1  0  0  0  0
  3  2  1  0  0  0  0
  4  5  1  0  0  0  0
  4  9  1  0  0  0  0
  5 11  1  0  0  0  0
  5  1  1  0  0  0  0
  6  2  1  0  0  0  0
 10  4  1  0  0  0  0
 12  5  1  0  0  0  0
 13 18  2  0  0  0  0
 13 14  1  0  0  0  0
 14 15  2  0  0  0  0
 15 16  1  0  0  0  0
 15 20  1  0  0  0  0
 17 21  1  0  0  0  0
 17 16  2  0  0  0  0
 18 17  1  0  0  0  0
 19 14  1  0  0  0  0
 22  3  1  0  0  0  0
 22 23  1  0  0  0  0
 24 23  1  0  0  0  0
 25 24  1  0  0  0  0
 26 27  1  0  0  0  0
 26 25  1  0  0  0  0
 27 22  1  0  0  0  0
M  END
>  <minimizedAffinity>
-4.62036943

$$$$
