REMARK  Name = 
REMARK  4 active torsions:
REMARK  status: ('A' for Active; 'I' for Inactive)
REMARK    1  A    between atoms: C_3  and  C_12
REMARK    2  A    between atoms: C_7  and  S_14
REMARK    3  A    between atoms: S_14  and  C_17
REMARK    4  A    between atoms: C_21  and  C_31
REMARK                            x       y       z     vdW  Elec       q    Type
REMARK                         _______ _______ _______ _____ _____    ______ ____
ROOT
ATOM      1 CL   UNL     1      36.387  30.906  45.696  0.00  0.00    +0.000 Cl
ATOM      2  C   UNL     1      36.676  30.757  47.408  0.00  0.00    +0.000 A 
ATOM      3  C   UNL     1      37.941  31.081  47.863  0.00  0.00    +0.000 A 
ATOM      4  C   UNL     1      38.183  30.965  49.227  0.00  0.00    +0.000 A 
ATOM      5  C   UNL     1      37.176  30.542  50.065  0.00  0.00    +0.000 A 
ATOM      6  C   UNL     1      35.933  30.236  49.531  0.00  0.00    +0.000 A 
ATOM      7  C   UNL     1      35.626  30.327  48.198  0.00  0.00    +0.000 A 
ATOM      8  H   UNL     1      39.168  31.214  49.605  0.00  0.00    +0.000 HD
ATOM      9  H   UNL     1      37.326  30.440  51.130  0.00  0.00    +0.000 HD
ATOM     10  H   UNL     1      35.166  29.905  50.227  0.00  0.00    +0.000 HD
ENDROOT
BRANCH   3  15
ATOM     11  C   UNL     1      40.200  33.306  46.081  0.00  0.00    +0.000 A 
ATOM     12  C   UNL     1      40.914  32.466  45.215  0.00  0.00    +0.000 A 
ATOM     13  C   UNL     1      40.598  31.096  45.257  0.00  0.00    +0.000 A 
ATOM     14  N   UNL     1      39.630  30.672  46.125  0.00  0.00    +0.000 NA
ATOM     15  C   UNL     1      38.986  31.530  46.925  0.00  0.00    +0.000 A 
ATOM     16  N   UNL     1      39.260  32.835  46.912  0.00  0.00    +0.000 NA
ATOM     17  H   UNL     1      40.493  34.344  45.997  0.00  0.00    +0.000 HD
ATOM     18  H   UNL     1      41.681  32.851  44.538  0.00  0.00    +0.000 HD
ATOM     19  H   UNL     1      41.100  30.402  44.629  0.00  0.00    +0.000 HD
ENDBRANCH   3  15
BRANCH   7  20
ATOM     20  S   UNL     1      34.050  29.941  47.509  0.00  0.00    +0.000 S 
BRANCH  20  23
ATOM     21 CL   UNL     1      33.755  29.174  44.471  0.00  0.00    +0.000 Cl
ATOM     22  C   UNL     1      33.782  27.947  45.717  0.00  0.00    +0.000 A 
ATOM     23  C   UNL     1      33.909  28.205  47.090  0.00  0.00    +0.000 A 
ATOM     24  C   UNL     1      33.917  27.159  47.973  0.00  0.00    +0.000 A 
ATOM     25  C   UNL     1      33.802  25.865  47.536  0.00  0.00    +0.000 A 
ATOM     26  C   UNL     1      33.674  25.570  46.185  0.00  0.00    +0.000 A 
ATOM     27  C   UNL     1      33.667  26.618  45.308  0.00  0.00    +0.000 A 
ATOM     28  H   UNL     1      34.022  27.481  49.010  0.00  0.00    +0.000 HD
ATOM     29  H   UNL     1      33.814  25.086  48.260  0.00  0.00    +0.000 HD
ATOM     30  H   UNL     1      33.587  24.530  45.900  0.00  0.00    +0.000 HD
BRANCH  27  31
ATOM     31  C   UNL     1      33.529  26.302  43.861  0.00  0.00    +0.000 C 
ATOM     32  C   UNL     1      33.177  27.505  43.045  0.00  0.00    +0.000 C 
ATOM     33  C   UNL     1      33.160  27.150  41.593  0.00  0.00    +0.000 C 
ATOM     34  C   UNL     1      33.410  25.681  41.343  0.00  0.00    +0.000 C 
ATOM     35  C   UNL     1      32.561  24.782  42.184  0.00  0.00    +0.000 C 
ATOM     36  C   UNL     1      32.503  25.218  43.631  0.00  0.00    +0.000 C 
ENDBRANCH  27  31
ENDBRANCH  20  23
ENDBRANCH   7  20
TORSDOF 4
