
 OpenBabel03272508123D

 31 33  0  0  0  0  0  0  0  0999 V2000
   36.6430   29.4140   44.0720 Cl  0  0  0  0  0  0  0  0  0  0  0  0
   38.2870   29.8130   43.5140 C   0  0  0  0  0  0  0  0  0  0  0  0
   39.2940   30.3100   44.3440 C   0  0  0  0  0  0  0  0  0  0  0  0
   40.5160   30.5710   43.7680 C   0  0  0  0  0  0  0  0  0  0  0  0
   40.7380   30.3530   42.4300 C   0  0  0  0  0  0  0  0  0  0  0  0
   39.7610   29.8660   41.6020 C   0  0  0  0  0  0  0  0  0  0  0  0
   38.5430   29.5990   42.1470 C   0  0  0  0  0  0  0  0  0  0  0  0
   41.2470   30.9540   44.4690 H   0  0  0  0  0  0  0  0  0  0  0  0
   41.7180   30.5770   42.0280 H   0  0  0  0  0  0  0  0  0  0  0  0
   39.9460   29.6970   40.5420 H   0  0  0  0  0  0  0  0  0  0  0  0
   37.4580   29.0660   41.2600 C   0  0  0  0  0  3  0  0  0  0  0  0
   36.4210   30.1740   41.2020 C   0  0  0  0  0  2  0  0  0  0  0  0
   35.2380   29.6860   40.4290 C   0  0  0  0  0  2  0  0  0  0  0  0
   35.5170   28.4040   39.6820 C   0  0  0  0  0  2  0  0  0  0  0  0
   35.9670   27.2940   40.6080 C   0  0  0  0  0  2  0  0  0  0  0  0
   36.8370   27.8050   41.7460 C   0  0  0  0  0  2  0  0  0  0  0  0
   38.8800   30.4580   45.6380 O   0  0  0  0  0  0  0  0  0  0  0  0
   39.4430   32.5130   47.1020 O   0  0  0  0  0  0  0  0  0  0  0  0
   38.3010   31.8400   46.4110 P   0  0  1  0  0  0  0  0  0  0  0  0
   37.7160   32.8470   45.1670 O   0  0  0  0  0  0  0  0  0  0  0  0
   37.4870   32.3530   44.3490 H   0  0  0  0  0  0  0  0  0  0  0  0
   37.0240   31.4140   47.4390 O   0  0  0  0  0  0  0  0  0  0  0  0
   37.6160   30.5300   50.9820 C   0  0  0  0  0  0  0  0  0  0  0  0
   37.7030   31.2960   49.8180 C   0  0  0  0  0  0  0  0  0  0  0  0
   37.0730   30.8440   48.6610 C   0  0  0  0  0  0  0  0  0  0  0  0
   36.3930   29.6520   48.7370 N   0  0  0  0  0  0  0  0  0  0  0  0
   36.3320   28.9420   49.8800 C   0  0  0  0  0  0  0  0  0  0  0  0
   36.9420   29.3830   50.9930 N   0  0  0  0  0  0  0  0  0  0  0  0
   38.1380   30.9550   51.8430 H   0  0  0  0  0  0  0  0  0  0  0  0
   38.2110   32.2320   49.6770 H   0  0  0  0  0  0  0  0  0  0  0  0
   35.7780   27.9910   49.9040 H   0  0  0  0  0  0  0  0  0  0  0  0
  2  1  1  0  0  0  0
  2  3  1  0  0  0  0
  3 17  1  0  0  0  0
  4  3  2  0  0  0  0
  4  8  1  0  0  0  0
  5  4  1  0  0  0  0
  6  7  1  0  0  0  0
  6  5  2  0  0  0  0
  7  2  2  0  0  0  0
  9  5  1  0  0  0  0
 10  6  1  0  0  0  0
 11 16  1  0  0  0  0
 11  7  1  0  0  0  0
 12 11  1  0  0  0  0
 13 12  1  0  0  0  0
 14 13  1  0  0  0  0
 14 15  1  0  0  0  0
 15 16  1  0  0  0  0
 17 19  1  0  0  0  0
 19 18  2  1  0  0  0
 19 22  1  0  0  0  0
 20 19  1  0  0  0  0
 21 20  1  0  0  0  0
 22 25  1  0  0  0  0
 23 28  1  0  0  0  0
 23 29  1  0  0  0  0
 24 23  2  0  0  0  0
 25 26  2  0  0  0  0
 25 24  1  0  0  0  0
 26 27  1  0  0  0  0
 27 31  1  0  0  0  0
 27 28  2  0  0  0  0
 30 24  1  0  0  0  0
M  END
>  <minimizedAffinity>
-4.83107758

>  <minimizedRMSD>
0.0765540227

$$$$
