
 OpenBabel03272508053D

 32 35  0  0  0  0  0  0  0  0999 V2000
   38.8870   30.8840   45.7750 C   0  0  0  0  0  0  0  0  0  0  0  0
   40.1180   31.4420   46.0660 C   0  0  0  0  0  0  0  0  0  0  0  0
   40.9500   31.4190   44.9410 C   0  0  0  0  0  0  0  0  0  0  0  0
   40.1750   30.8410   44.0090 N   0  0  0  0  0  0  0  0  0  0  0  0
   38.9740   30.5270   44.4900 N   0  0  0  0  0  0  0  0  0  0  0  0
   40.4410   31.8560   47.0270 H   0  0  0  0  0  0  0  0  0  0  0  0
   41.9550   31.7570   44.7890 H   0  0  0  0  0  0  0  0  0  0  0  0
   37.7710   30.7360   46.6900 C   0  0  0  0  0  0  0  0  0  0  0  0
   37.9890   30.9560   48.0650 C   0  0  0  0  0  0  0  0  0  0  0  0
   36.9070   30.8110   48.9270 C   0  0  0  0  0  0  0  0  0  0  0  0
   35.6970   30.4640   48.3910 N   0  0  0  0  0  0  0  0  0  0  0  0
   35.5110   30.2580   47.0650 C   0  0  0  0  0  0  0  0  0  0  0  0
   36.5580   30.3980   46.2250 N   0  0  0  0  0  0  0  0  0  0  0  0
   38.9570   31.2290   48.4590 H   0  0  0  0  0  0  0  0  0  0  0  0
   34.5290   29.9870   46.7100 H   0  0  0  0  0  0  0  0  0  0  0  0
   37.1050   31.0360   50.3810 C   0  0  0  0  0  0  0  0  0  0  0  0
   36.5930   32.2830   50.6420 F   0  0  0  0  0  0  0  0  0  0  0  0
   36.4340   30.0990   51.1670 F   0  0  0  0  0  0  0  0  0  0  0  0
   38.4560   31.0430   50.7200 F   0  0  0  0  0  0  0  0  0  0  0  0
   40.4950   30.5420   42.6080 C   0  0  0  0  0  0  0  0  0  0  0  0
   40.0170   31.3380   41.5550 C   0  0  0  0  0  0  0  0  0  0  0  0
   40.3270   31.0260   40.2920 C   0  0  0  0  0  0  0  0  0  0  0  0
   41.1430   29.8830   40.0300 C   0  0  0  0  0  0  0  0  0  0  0  0
   41.4590   29.2510   41.7570 S   0  0  0  0  0  0  0  0  0  0  0  0
   39.3920   32.2160   41.7310 H   0  0  0  0  0  0  0  0  0  0  0  0
   40.0480   31.5230   39.3740 H   0  0  0  0  0  0  0  0  0  0  0  0
   41.6620   29.2610   38.8770 C   0  0  0  0  0  3  0  0  0  0  0  0
   42.1360   27.8910   39.2390 C   0  0  0  0  0  2  0  0  0  0  0  0
   41.1780   26.8170   38.7220 C   0  0  0  0  0  2  0  0  0  0  0  0
   41.3010   26.8720   37.1940 C   0  0  0  0  0  2  0  0  0  0  0  0
   40.9600   28.2540   36.6870 C   0  0  0  0  0  2  0  0  0  0  0  0
   40.6030   29.2040   37.7990 C   0  0  0  0  0  2  0  0  0  0  0  0
  1  2  1  0  0  0  0
  1  8  1  0  0  0  0
  2  6  1  0  0  0  0
  3  2  2  0  0  0  0
  4  5  1  0  0  0  0
  4  3  1  0  0  0  0
  5  1  2  0  0  0  0
  7  3  1  0  0  0  0
  8  9  1  0  0  0  0
  9 14  1  0  0  0  0
  9 10  2  0  0  0  0
 10 16  1  0  0  0  0
 11 10  1  0  0  0  0
 12 11  2  0  0  0  0
 13  8  2  0  0  0  0
 13 12  1  0  0  0  0
 15 12  1  0  0  0  0
 16 17  1  0  0  0  0
 16 19  1  0  0  0  0
 16 18  1  0  0  0  0
 20  4  1  0  0  0  0
 21 25  1  0  0  0  0
 21 20  2  0  0  0  0
 22 21  1  0  0  0  0
 23 22  2  0  0  0  0
 23 24  1  0  0  0  0
 24 20  1  0  0  0  0
 26 22  1  0  0  0  0
 27 28  1  0  0  0  0
 27 23  1  0  0  0  0
 29 28  1  0  0  0  0
 30 29  1  0  0  0  0
 31 30  1  0  0  0  0
 31 32  1  0  0  0  0
 32 27  1  0  0  0  0
M  END
>  <minimizedAffinity>
-6.07224083

>  <minimizedRMSD>
0.223553374

$$$$
