
 OpenBabel03272503523D

 25 27  0  0  0  0  0  0  0  0999 V2000
   33.5760   30.4890   35.6640 C   0  0  0  0  0  0  0  0  0  0  0  0
   33.2450   31.4150   36.6490 C   0  0  0  0  0  0  0  0  0  0  0  0
   34.1660   32.3930   37.0510 C   0  0  0  0  0  0  0  0  0  0  0  0
   35.4030   32.3940   36.4310 C   0  0  0  0  0  0  0  0  0  0  0  0
   35.7470   31.4900   35.4600 C   0  0  0  0  0  0  0  0  0  0  0  0
   34.8100   30.5190   35.0710 C   0  0  0  0  0  0  0  0  0  0  0  0
   32.2560   31.3990   37.1310 H   0  0  0  0  0  0  0  0  0  0  0  0
   33.8350   33.0710   37.8160 H   0  0  0  0  0  0  0  0  0  0  0  0
   36.0350   33.1990   36.8250 H   0  0  0  0  0  0  0  0  0  0  0  0
   36.7370   31.6300   35.0850 H   0  0  0  0  0  0  0  0  0  0  0  0
   30.9690   28.4500   33.8450 C   0  0  0  0  0  0  0  0  0  0  0  0
   31.9650   29.4260   34.0550 C   0  0  0  0  0  0  0  0  0  0  0  0
   32.5420   29.5330   35.3320 C   0  0  0  0  0  0  0  0  0  0  0  0
   32.1020   28.6920   36.2740 N   0  0  0  0  0  0  0  0  0  0  0  0
   31.1500   27.7600   36.0680 C   0  0  0  0  0  0  0  0  0  0  0  0
   30.5920   27.6460   34.8610 N   0  0  0  0  0  0  0  0  0  0  0  0
   30.6090   28.4750   32.8210 H   0  0  0  0  0  0  0  0  0  0  0  0
   32.3290   30.1090   33.3100 H   0  0  0  0  0  0  0  0  0  0  0  0
   30.8170   27.0900   36.8630 H   0  0  0  0  0  0  0  0  0  0  0  0
   35.2590   29.5960   34.0310 C   0  0  0  0  0  3  0  0  0  0  0  0
   35.7970   30.2690   32.7830 C   0  0  0  0  0  2  0  0  0  0  0  0
   35.8300   29.1660   31.7220 C   0  0  0  0  0  2  0  0  0  0  0  0
   36.9260   28.2280   32.0990 C   0  0  0  0  0  2  0  0  0  0  0  0
   36.6670   27.6450   33.4670 C   0  0  0  0  0  2  0  0  0  0  0  0
   36.4140   28.7110   34.5060 C   0  0  0  0  0  2  0  0  0  0  0  0
  1  2  1  0  0  0  0
  2  3  2  0  0  0  0
  2  7  1  0  0  0  0
  3  8  1  0  0  0  0
  4  9  1  0  0  0  0
  4  3  1  0  0  0  0
  5  4  2  0  0  0  0
  6  5  1  0  0  0  0
  6  1  2  0  0  0  0
 10  5  1  0  0  0  0
 11 12  2  0  0  0  0
 11 16  1  0  0  0  0
 12 13  1  0  0  0  0
 13  1  1  0  0  0  0
 13 14  2  0  0  0  0
 15 14  1  0  0  0  0
 15 19  1  0  0  0  0
 16 15  2  0  0  0  0
 17 11  1  0  0  0  0
 18 12  1  0  0  0  0
 20 25  1  0  0  0  0
 20  6  1  0  0  0  0
 21 20  1  0  0  0  0
 22 23  1  0  0  0  0
 22 21  1  0  0  0  0
 23 24  1  0  0  0  0
 24 25  1  0  0  0  0
M  END
>  <minimizedAffinity>
-5.26593876

$$$$

 OpenBabel03272503523D

 25 27  0  0  0  0  0  0  0  0999 V2000
   35.0040   30.6460   35.0840 C   0  0  0  0  0  0  0  0  0  0  0  0
   35.8560   31.6940   35.4200 C   0  0  0  0  0  0  0  0  0  0  0  0
   35.4750   32.6490   36.3740 C   0  0  0  0  0  0  0  0  0  0  0  0
   34.2300   32.5010   36.9580 C   0  0  0  0  0  0  0  0  0  0  0  0
   33.3770   31.4760   36.6400 C   0  0  0  0  0  0  0  0  0  0  0  0
   33.7780   30.5310   35.6820 C   0  0  0  0  0  0  0  0  0  0  0  0
   36.8430   31.7950   34.9450 H   0  0  0  0  0  0  0  0  0  0  0  0
   36.1870   33.4270   36.5780 H   0  0  0  0  0  0  0  0  0  0  0  0
   34.0420   33.3020   37.6840 H   0  0  0  0  0  0  0  0  0  0  0  0
   32.4580   31.5080   37.1820 H   0  0  0  0  0  0  0  0  0  0  0  0
   35.8620   28.9320   31.8310 C   0  0  0  0  0  0  0  0  0  0  0  0
   35.3150   29.8900   32.7090 C   0  0  0  0  0  0  0  0  0  0  0  0
   35.5110   29.7240   34.0900 C   0  0  0  0  0  0  0  0  0  0  0  0
   36.2100   28.6550   34.4850 N   0  0  0  0  0  0  0  0  0  0  0  0
   36.7310   27.7420   33.6420 C   0  0  0  0  0  0  0  0  0  0  0  0
   36.5550   27.8840   32.3270 N   0  0  0  0  0  0  0  0  0  0  0  0
   35.6390   29.1770   30.7970 H   0  0  0  0  0  0  0  0  0  0  0  0
   34.7510   30.7530   32.4080 H   0  0  0  0  0  0  0  0  0  0  0  0
   37.2980   26.8810   34.0030 H   0  0  0  0  0  0  0  0  0  0  0  0
   32.8090   29.4720   35.4040 C   0  0  0  0  0  3  0  0  0  0  0  0
   31.8910   29.1390   36.5630 C   0  0  0  0  0  2  0  0  0  0  0  0
   31.2610   27.7930   36.1950 C   0  0  0  0  0  2  0  0  0  0  0  0
   30.3120   28.0450   35.0730 C   0  0  0  0  0  2  0  0  0  0  0  0
   31.0440   28.6320   33.8910 C   0  0  0  0  0  2  0  0  0  0  0  0
   31.8560   29.8490   34.2670 C   0  0  0  0  0  2  0  0  0  0  0  0
  1  2  2  0  0  0  0
  1  6  1  0  0  0  0
  2  3  1  0  0  0  0
  3  8  1  0  0  0  0
  3  4  2  0  0  0  0
  4  9  1  0  0  0  0
  5  4  1  0  0  0  0
  5 10  1  0  0  0  0
  6  5  2  0  0  0  0
  7  2  1  0  0  0  0
 11 16  2  0  0  0  0
 11 12  1  0  0  0  0
 12 13  2  0  0  0  0
 13 14  1  0  0  0  0
 13  1  1  0  0  0  0
 15 19  1  0  0  0  0
 15 14  2  0  0  0  0
 16 15  1  0  0  0  0
 17 11  1  0  0  0  0
 18 12  1  0  0  0  0
 20  6  1  0  0  0  0
 20 21  1  0  0  0  0
 22 21  1  0  0  0  0
 23 22  1  0  0  0  0
 24 25  1  0  0  0  0
 24 23  1  0  0  0  0
 25 20  1  0  0  0  0
M  END
>  <minimizedAffinity>
-5.03518152

$$$$

 OpenBabel03272503523D

 25 27  0  0  0  0  0  0  0  0999 V2000
   36.1010   26.3160   31.6190 C   0  0  0  0  0  0  0  0  0  0  0  0
   35.1790   25.5480   30.9130 C   0  0  0  0  0  0  0  0  0  0  0  0
   35.2140   24.1480   30.9780 C   0  0  0  0  0  0  0  0  0  0  0  0
   36.1930   23.5730   31.7680 C   0  0  0  0  0  0  0  0  0  0  0  0
   37.1090   24.3120   32.4710 C   0  0  0  0  0  0  0  0  0  0  0  0
   37.0570   25.7130   32.3910 C   0  0  0  0  0  0  0  0  0  0  0  0
   34.4070   26.0240   30.2890 H   0  0  0  0  0  0  0  0  0  0  0  0
   34.4680   23.6280   30.4050 H   0  0  0  0  0  0  0  0  0  0  0  0
   36.1210   22.4790   31.7430 H   0  0  0  0  0  0  0  0  0  0  0  0
   37.7940   23.7140   33.0290 H   0  0  0  0  0  0  0  0  0  0  0  0
   36.4130   29.8890   30.4360 C   0  0  0  0  0  0  0  0  0  0  0  0
   36.6310   28.4970   30.4890 C   0  0  0  0  0  0  0  0  0  0  0  0
   35.9620   27.7490   31.4730 C   0  0  0  0  0  0  0  0  0  0  0  0
   35.1530   28.4160   32.3030 N   0  0  0  0  0  0  0  0  0  0  0  0
   34.9480   29.7470   32.2480 C   0  0  0  0  0  0  0  0  0  0  0  0
   35.5760   30.4720   31.3200 N   0  0  0  0  0  0  0  0  0  0  0  0
   36.9880   30.3430   29.6340 H   0  0  0  0  0  0  0  0  0  0  0  0
   37.2770   27.9460   29.8300 H   0  0  0  0  0  0  0  0  0  0  0  0
   34.2780   30.2560   32.9440 H   0  0  0  0  0  0  0  0  0  0  0  0
   38.0700   26.4230   33.1700 C   0  0  0  0  0  3  0  0  0  0  0  0
   38.1690   25.9860   34.6180 C   0  0  0  0  0  2  0  0  0  0  0  0
   38.9740   27.0890   35.3100 C   0  0  0  0  0  2  0  0  0  0  0  0
   40.3800   26.9750   34.8260 C   0  0  0  0  0  2  0  0  0  0  0  0
   40.4310   27.1380   33.3260 C   0  0  0  0  0  2  0  0  0  0  0  0
   39.4800   26.2040   32.6160 C   0  0  0  0  0  2  0  0  0  0  0  0
  1  6  1  0  0  0  0
  2  3  1  0  0  0  0
  2  1  2  0  0  0  0
  3  4  2  0  0  0  0
  4  5  1  0  0  0  0
  5 10  1  0  0  0  0
  6  5  2  0  0  0  0
  6 20  1  0  0  0  0
  7  2  1  0  0  0  0
  8  3  1  0  0  0  0
  9  4  1  0  0  0  0
 11 12  2  0  0  0  0
 11 16  1  0  0  0  0
 12 13  1  0  0  0  0
 13  1  1  0  0  0  0
 13 14  2  0  0  0  0
 15 14  1  0  0  0  0
 15 19  1  0  0  0  0
 16 15  2  0  0  0  0
 17 11  1  0  0  0  0
 18 12  1  0  0  0  0
 20 21  1  0  0  0  0
 21 22  1  0  0  0  0
 23 22  1  0  0  0  0
 24 23  1  0  0  0  0
 25 20  1  0  0  0  0
 25 24  1  0  0  0  0
M  END
>  <minimizedAffinity>
-5.01306915

$$$$

 OpenBabel03272503523D

 25 27  0  0  0  0  0  0  0  0999 V2000
   39.9750   23.4630   36.5060 C   0  0  0  0  0  0  0  0  0  0  0  0
   39.7470   22.8630   37.7410 C   0  0  0  0  0  0  0  0  0  0  0  0
   38.6780   23.2760   38.5510 C   0  0  0  0  0  0  0  0  0  0  0  0
   37.8730   24.2920   38.0700 C   0  0  0  0  0  0  0  0  0  0  0  0
   38.0820   24.8950   36.8570 C   0  0  0  0  0  0  0  0  0  0  0  0
   39.1580   24.4670   36.0620 C   0  0  0  0  0  0  0  0  0  0  0  0
   40.3980   22.0560   38.1070 H   0  0  0  0  0  0  0  0  0  0  0  0
   38.5690   22.7640   39.4890 H   0  0  0  0  0  0  0  0  0  0  0  0
   37.0750   24.5280   38.7850 H   0  0  0  0  0  0  0  0  0  0  0  0
   37.3700   25.6590   36.6370 H   0  0  0  0  0  0  0  0  0  0  0  0
   43.4430   22.8480   35.1420 C   0  0  0  0  0  0  0  0  0  0  0  0
   42.4170   23.4310   35.9150 C   0  0  0  0  0  0  0  0  0  0  0  0
   41.1050   22.9490   35.7620 C   0  0  0  0  0  0  0  0  0  0  0  0
   40.9160   21.9600   34.8840 N   0  0  0  0  0  0  0  0  0  0  0  0
   41.9000   21.4070   34.1470 C   0  0  0  0  0  0  0  0  0  0  0  0
   43.1510   21.8520   34.2800 N   0  0  0  0  0  0  0  0  0  0  0  0
   44.4020   23.3100   35.3550 H   0  0  0  0  0  0  0  0  0  0  0  0
   42.5530   24.2260   36.6250 H   0  0  0  0  0  0  0  0  0  0  0  0
   41.7050   20.5980   33.4390 H   0  0  0  0  0  0  0  0  0  0  0  0
   39.3080   25.1630   34.7850 C   0  0  0  0  0  3  0  0  0  0  0  0
   38.0040   25.4400   34.0630 C   0  0  0  0  0  2  0  0  0  0  0  0
   38.4130   25.7970   32.6320 C   0  0  0  0  0  2  0  0  0  0  0  0
   39.0630   27.1380   32.6820 C   0  0  0  0  0  2  0  0  0  0  0  0
   40.2700   27.0990   33.5880 C   0  0  0  0  0  2  0  0  0  0  0  0
   39.9440   26.5450   34.9540 C   0  0  0  0  0  2  0  0  0  0  0  0
  1  2  1  0  0  0  0
  2  7  1  0  0  0  0
  2  3  2  0  0  0  0
  3  8  1  0  0  0  0
  4  3  1  0  0  0  0
  4  9  1  0  0  0  0
  5  4  2  0  0  0  0
  6  1  2  0  0  0  0
  6  5  1  0  0  0  0
 10  5  1  0  0  0  0
 11 17  1  0  0  0  0
 11 12  1  0  0  0  0
 12 18  1  0  0  0  0
 13 12  2  0  0  0  0
 13  1  1  0  0  0  0
 14 13  1  0  0  0  0
 15 16  1  0  0  0  0
 15 14  2  0  0  0  0
 16 11  2  0  0  0  0
 19 15  1  0  0  0  0
 20 25  1  0  0  0  0
 20  6  1  0  0  0  0
 21 20  1  0  0  0  0
 22 23  1  0  0  0  0
 22 21  1  0  0  0  0
 23 24  1  0  0  0  0
 24 25  1  0  0  0  0
M  END
>  <minimizedAffinity>
-4.93495607

$$$$

 OpenBabel03272503523D

 25 27  0  0  0  0  0  0  0  0999 V2000
   37.3710   23.6740   32.7850 C   0  0  0  0  0  0  0  0  0  0  0  0
   37.3980   25.0570   32.6320 C   0  0  0  0  0  0  0  0  0  0  0  0
   36.5130   25.6990   31.7540 C   0  0  0  0  0  0  0  0  0  0  0  0
   35.6210   24.9020   31.0580 C   0  0  0  0  0  0  0  0  0  0  0  0
   35.5790   23.5390   31.1950 C   0  0  0  0  0  0  0  0  0  0  0  0
   36.4750   22.9170   32.0790 C   0  0  0  0  0  0  0  0  0  0  0  0
   38.1150   25.6750   33.1940 H   0  0  0  0  0  0  0  0  0  0  0  0
   36.5960   26.7680   31.6920 H   0  0  0  0  0  0  0  0  0  0  0  0
   34.9820   25.5110   30.4060 H   0  0  0  0  0  0  0  0  0  0  0  0
   34.8330   23.0770   30.5880 H   0  0  0  0  0  0  0  0  0  0  0  0
   40.4890   22.2410   34.3600 C   0  0  0  0  0  0  0  0  0  0  0  0
   39.6360   22.7520   33.3610 C   0  0  0  0  0  0  0  0  0  0  0  0
   38.3310   23.1310   33.7210 C   0  0  0  0  0  0  0  0  0  0  0  0
   37.9830   22.9790   35.0030 N   0  0  0  0  0  0  0  0  0  0  0  0
   38.8020   22.4900   35.9540 C   0  0  0  0  0  0  0  0  0  0  0  0
   40.0440   22.1260   35.6290 N   0  0  0  0  0  0  0  0  0  0  0  0
   41.4630   21.9890   33.9500 H   0  0  0  0  0  0  0  0  0  0  0  0
   39.9010   22.8800   32.3280 H   0  0  0  0  0  0  0  0  0  0  0  0
   38.4800   22.3810   36.9930 H   0  0  0  0  0  0  0  0  0  0  0  0
   36.3620   21.4620   32.1650 C   0  0  0  0  0  3  0  0  0  0  0  0
   35.2770   20.9700   33.1030 C   0  0  0  0  0  2  0  0  0  0  0  0
   35.5940   19.4900   33.3310 C   0  0  0  0  0  2  0  0  0  0  0  0
   35.2910   18.7740   32.0580 C   0  0  0  0  0  2  0  0  0  0  0  0
   36.1290   19.3320   30.9340 C   0  0  0  0  0  2  0  0  0  0  0  0
   36.0060   20.8320   30.8160 C   0  0  0  0  0  2  0  0  0  0  0  0
  1 13  1  0  0  0  0
  2  1  1  0  0  0  0
  2  7  1  0  0  0  0
  3  2  2  0  0  0  0
  4  5  2  0  0  0  0
  4  3  1  0  0  0  0
  5  6  1  0  0  0  0
  6 20  1  0  0  0  0
  6  1  2  0  0  0  0
  8  3  1  0  0  0  0
  9  4  1  0  0  0  0
 10  5  1  0  0  0  0
 11 16  1  0  0  0  0
 12 13  1  0  0  0  0
 12 11  2  0  0  0  0
 13 14  2  0  0  0  0
 14 15  1  0  0  0  0
 15 19  1  0  0  0  0
 16 15  2  0  0  0  0
 17 11  1  0  0  0  0
 18 12  1  0  0  0  0
 20 21  1  0  0  0  0
 21 22  1  0  0  0  0
 23 22  1  0  0  0  0
 24 23  1  0  0  0  0
 25 24  1  0  0  0  0
 25 20  1  0  0  0  0
M  END
>  <minimizedAffinity>
-4.929708

$$$$

 OpenBabel03272503523D

 25 27  0  0  0  0  0  0  0  0999 V2000
   37.0520   28.0250   32.7740 C   0  0  0  0  0  0  0  0  0  0  0  0
   37.6670   27.6480   31.5840 C   0  0  0  0  0  0  0  0  0  0  0  0
   37.3560   28.2950   30.3800 C   0  0  0  0  0  0  0  0  0  0  0  0
   36.4230   29.3150   30.4300 C   0  0  0  0  0  0  0  0  0  0  0  0
   35.8060   29.7010   31.5920 C   0  0  0  0  0  0  0  0  0  0  0  0
   36.1320   29.0390   32.7860 C   0  0  0  0  0  0  0  0  0  0  0  0
   38.4080   26.8340   31.5640 H   0  0  0  0  0  0  0  0  0  0  0  0
   37.8740   27.9460   29.5050 H   0  0  0  0  0  0  0  0  0  0  0  0
   36.2620   29.7450   29.4330 H   0  0  0  0  0  0  0  0  0  0  0  0
   35.1140   30.5020   31.4560 H   0  0  0  0  0  0  0  0  0  0  0  0
   38.3010   27.0710   36.2070 C   0  0  0  0  0  0  0  0  0  0  0  0
   37.9430   27.8930   35.1190 C   0  0  0  0  0  0  0  0  0  0  0  0
   37.4570   27.2850   33.9490 C   0  0  0  0  0  0  0  0  0  0  0  0
   37.3660   25.9510   33.9460 N   0  0  0  0  0  0  0  0  0  0  0  0
   37.7100   25.1690   34.9890 C   0  0  0  0  0  0  0  0  0  0  0  0
   38.1730   25.7310   36.1070 N   0  0  0  0  0  0  0  0  0  0  0  0
   38.6590   27.6640   37.0430 H   0  0  0  0  0  0  0  0  0  0  0  0
   38.0110   28.9650   35.1060 H   0  0  0  0  0  0  0  0  0  0  0  0
   37.6200   24.0810   34.9480 H   0  0  0  0  0  0  0  0  0  0  0  0
   35.4280   29.5130   33.9760 C   0  0  0  0  0  3  0  0  0  0  0  0
   35.7000   30.9620   34.3320 C   0  0  0  0  0  2  0  0  0  0  0  0
   35.2010   31.1170   35.7710 C   0  0  0  0  0  2  0  0  0  0  0  0
   33.7120   31.0520   35.7280 C   0  0  0  0  0  2  0  0  0  0  0  0
   33.2620   29.7340   35.1460 C   0  0  0  0  0  2  0  0  0  0  0  0
   33.9080   29.4460   33.8120 C   0  0  0  0  0  2  0  0  0  0  0  0
  1  6  1  0  0  0  0
  1 13  1  0  0  0  0
  2  1  2  0  0  0  0
  3  4  2  0  0  0  0
  3  2  1  0  0  0  0
  4  5  1  0  0  0  0
  5  6  2  0  0  0  0
  6 20  1  0  0  0  0
  7  2  1  0  0  0  0
  8  3  1  0  0  0  0
  9  4  1  0  0  0  0
 10  5  1  0  0  0  0
 11 17  1  0  0  0  0
 12 11  2  0  0  0  0
 13 12  1  0  0  0  0
 14 13  2  0  0  0  0
 14 15  1  0  0  0  0
 15 16  2  0  0  0  0
 16 11  1  0  0  0  0
 18 12  1  0  0  0  0
 19 15  1  0  0  0  0
 20 21  1  0  0  0  0
 21 22  1  0  0  0  0
 23 22  1  0  0  0  0
 24 23  1  0  0  0  0
 25 20  1  0  0  0  0
 25 24  1  0  0  0  0
M  END
>  <minimizedAffinity>
-4.8816452

$$$$

 OpenBabel03272503523D

 25 27  0  0  0  0  0  0  0  0999 V2000
   38.7700   25.3490   32.9120 C   0  0  0  0  0  0  0  0  0  0  0  0
   39.1980   26.2490   31.9400 C   0  0  0  0  0  0  0  0  0  0  0  0
   40.1780   27.2090   32.2330 C   0  0  0  0  0  0  0  0  0  0  0  0
   40.6920   27.2180   33.5170 C   0  0  0  0  0  0  0  0  0  0  0  0
   40.2840   26.3410   34.4880 C   0  0  0  0  0  0  0  0  0  0  0  0
   39.3010   25.3890   34.1730 C   0  0  0  0  0  0  0  0  0  0  0  0
   38.7770   26.2260   30.9230 H   0  0  0  0  0  0  0  0  0  0  0  0
   40.4540   27.8650   31.4290 H   0  0  0  0  0  0  0  0  0  0  0  0
   41.4470   28.0070   33.6280 H   0  0  0  0  0  0  0  0  0  0  0  0
   40.7810   26.4840   35.4220 H   0  0  0  0  0  0  0  0  0  0  0  0
   36.8580   22.1880   32.1320 C   0  0  0  0  0  0  0  0  0  0  0  0
   37.9160   23.0120   32.5670 C   0  0  0  0  0  0  0  0  0  0  0  0
   37.7580   24.4060   32.4880 C   0  0  0  0  0  0  0  0  0  0  0  0
   36.6010   24.8630   32.0000 N   0  0  0  0  0  0  0  0  0  0  0  0
   35.5920   24.0710   31.5850 C   0  0  0  0  0  0  0  0  0  0  0  0
   35.7260   22.7450   31.6530 N   0  0  0  0  0  0  0  0  0  0  0  0
   37.1100   21.1370   32.2460 H   0  0  0  0  0  0  0  0  0  0  0  0
   38.8520   22.6600   32.9620 H   0  0  0  0  0  0  0  0  0  0  0  0
   34.6600   24.4830   31.1910 H   0  0  0  0  0  0  0  0  0  0  0  0
   38.9240   24.4940   35.2660 C   0  0  0  0  0  3  0  0  0  0  0  0
   40.0890   23.7810   35.9250 C   0  0  0  0  0  2  0  0  0  0  0  0
   39.4520   22.6470   36.7330 C   0  0  0  0  0  2  0  0  0  0  0  0
   38.7430   23.2740   37.8850 C   0  0  0  0  0  2  0  0  0  0  0  0
   37.6880   24.2330   37.3910 C   0  0  0  0  0  2  0  0  0  0  0  0
   38.2440   25.2430   36.4150 C   0  0  0  0  0  2  0  0  0  0  0  0
  1  6  1  0  0  0  0
  2  3  1  0  0  0  0
  2  1  2  0  0  0  0
  3  4  2  0  0  0  0
  4  9  1  0  0  0  0
  4  5  1  0  0  0  0
  5 10  1  0  0  0  0
  6  5  2  0  0  0  0
  6 20  1  0  0  0  0
  7  2  1  0  0  0  0
  8  3  1  0  0  0  0
 11 17  1  0  0  0  0
 11 12  1  0  0  0  0
 12 18  1  0  0  0  0
 13 12  2  0  0  0  0
 13  1  1  0  0  0  0
 14 13  1  0  0  0  0
 15 16  1  0  0  0  0
 15 14  2  0  0  0  0
 16 11  2  0  0  0  0
 19 15  1  0  0  0  0
 20 21  1  0  0  0  0
 20 25  1  0  0  0  0
 21 22  1  0  0  0  0
 22 23  1  0  0  0  0
 24 23  1  0  0  0  0
 25 24  1  0  0  0  0
M  END
>  <minimizedAffinity>
-4.87787485

$$$$

 OpenBabel03272503523D

 25 27  0  0  0  0  0  0  0  0999 V2000
   39.3600   24.0520   36.0040 C   0  0  0  0  0  0  0  0  0  0  0  0
   38.2090   24.5940   36.5680 C   0  0  0  0  0  0  0  0  0  0  0  0
   37.8380   24.2780   37.8830 C   0  0  0  0  0  0  0  0  0  0  0  0
   38.6610   23.4150   38.5850 C   0  0  0  0  0  0  0  0  0  0  0  0
   39.7980   22.8710   38.0470 C   0  0  0  0  0  0  0  0  0  0  0  0
   40.1500   23.2000   36.7280 C   0  0  0  0  0  0  0  0  0  0  0  0
   37.5670   25.2790   35.9940 H   0  0  0  0  0  0  0  0  0  0  0  0
   36.9370   24.7370   38.2450 H   0  0  0  0  0  0  0  0  0  0  0  0
   38.2720   23.2430   39.5960 H   0  0  0  0  0  0  0  0  0  0  0  0
   40.3170   22.2270   38.7210 H   0  0  0  0  0  0  0  0  0  0  0  0
   40.6130   25.8790   32.9470 C   0  0  0  0  0  0  0  0  0  0  0  0
   40.3990   25.5880   34.3090 C   0  0  0  0  0  0  0  0  0  0  0  0
   39.6380   24.4550   34.6430 C   0  0  0  0  0  0  0  0  0  0  0  0
   39.1620   23.7200   33.6320 N   0  0  0  0  0  0  0  0  0  0  0  0
   39.3690   24.0030   32.3310 C   0  0  0  0  0  0  0  0  0  0  0  0
   40.0890   25.0750   31.9980 N   0  0  0  0  0  0  0  0  0  0  0  0
   41.2130   26.7770   32.8290 H   0  0  0  0  0  0  0  0  0  0  0  0
   40.7750   26.1680   35.1330 H   0  0  0  0  0  0  0  0  0  0  0  0
   38.9630   23.3770   31.5330 H   0  0  0  0  0  0  0  0  0  0  0  0
   41.3760   22.5760   36.2340 C   0  0  0  0  0  3  0  0  0  0  0  0
   42.6240   23.4200   36.4040 C   0  0  0  0  0  2  0  0  0  0  0  0
   43.6700   22.7690   35.4950 C   0  0  0  0  0  2  0  0  0  0  0  0
   44.0510   21.4720   36.1230 C   0  0  0  0  0  2  0  0  0  0  0  0
   42.8390   20.5830   36.2640 C   0  0  0  0  0  2  0  0  0  0  0  0
   41.7000   21.2760   36.9740 C   0  0  0  0  0  2  0  0  0  0  0  0
  1  2  2  0  0  0  0
  1  6  1  0  0  0  0
  2  3  1  0  0  0  0
  3  8  1  0  0  0  0
  3  4  2  0  0  0  0
  4  9  1  0  0  0  0
  5  4  1  0  0  0  0
  5 10  1  0  0  0  0
  6  5  2  0  0  0  0
  7  2  1  0  0  0  0
 11 12  1  0  0  0  0
 12 13  2  0  0  0  0
 12 18  1  0  0  0  0
 13  1  1  0  0  0  0
 14 13  1  0  0  0  0
 15 14  2  0  0  0  0
 16 15  1  0  0  0  0
 16 11  2  0  0  0  0
 17 11  1  0  0  0  0
 19 15  1  0  0  0  0
 20 21  1  0  0  0  0
 20  6  1  0  0  0  0
 20 25  1  0  0  0  0
 22 23  1  0  0  0  0
 22 21  1  0  0  0  0
 23 24  1  0  0  0  0
 24 25  1  0  0  0  0
M  END
>  <minimizedAffinity>
-4.75984669

$$$$

 OpenBabel03272503523D

 25 27  0  0  0  0  0  0  0  0999 V2000
   37.4730   25.5070   33.2760 C   0  0  0  0  0  0  0  0  0  0  0  0
   37.0090   26.6150   32.5730 C   0  0  0  0  0  0  0  0  0  0  0  0
   36.7820   27.8350   33.2270 C   0  0  0  0  0  0  0  0  0  0  0  0
   37.0380   27.8840   34.5850 C   0  0  0  0  0  0  0  0  0  0  0  0
   37.4950   26.8040   35.2950 C   0  0  0  0  0  0  0  0  0  0  0  0
   37.7150   25.5920   34.6210 C   0  0  0  0  0  0  0  0  0  0  0  0
   36.8110   26.5570   31.4920 H   0  0  0  0  0  0  0  0  0  0  0  0
   36.4250   28.6420   32.6140 H   0  0  0  0  0  0  0  0  0  0  0  0
   36.8260   28.8830   34.9850 H   0  0  0  0  0  0  0  0  0  0  0  0
   37.6410   27.0120   36.3310 H   0  0  0  0  0  0  0  0  0  0  0  0
   38.9830   22.7530   31.1800 C   0  0  0  0  0  0  0  0  0  0  0  0
   38.9040   23.9510   31.9180 C   0  0  0  0  0  0  0  0  0  0  0  0
   37.6710   24.3080   32.4910 C   0  0  0  0  0  0  0  0  0  0  0  0
   36.6430   23.4760   32.2950 N   0  0  0  0  0  0  0  0  0  0  0  0
   36.7230   22.3320   31.5880 C   0  0  0  0  0  0  0  0  0  0  0  0
   37.8860   21.9790   31.0370 N   0  0  0  0  0  0  0  0  0  0  0  0
   39.9860   22.5980   30.7930 H   0  0  0  0  0  0  0  0  0  0  0  0
   39.7210   24.6300   32.0850 H   0  0  0  0  0  0  0  0  0  0  0  0
   35.8600   21.6770   31.4500 H   0  0  0  0  0  0  0  0  0  0  0  0
   38.2010   24.4930   35.4530 C   0  0  0  0  0  3  0  0  0  0  0  0
   39.7110   24.3740   35.5180 C   0  0  0  0  0  2  0  0  0  0  0  0
   39.9740   22.9780   36.0890 C   0  0  0  0  0  2  0  0  0  0  0  0
   39.5750   23.0090   37.5250 C   0  0  0  0  0  2  0  0  0  0  0  0
   38.1150   23.3720   37.6540 C   0  0  0  0  0  2  0  0  0  0  0  0
   37.7740   24.6440   36.9140 C   0  0  0  0  0  2  0  0  0  0  0  0
  1  6  1  0  0  0  0
  2  3  1  0  0  0  0
  2  1  2  0  0  0  0
  3  4  2  0  0  0  0
  4  9  1  0  0  0  0
  4  5  1  0  0  0  0
  5 10  1  0  0  0  0
  6  5  2  0  0  0  0
  6 20  1  0  0  0  0
  7  2  1  0  0  0  0
  8  3  1  0  0  0  0
 11 12  1  0  0  0  0
 12 18  1  0  0  0  0
 12 13  2  0  0  0  0
 13  1  1  0  0  0  0
 14 13  1  0  0  0  0
 15 14  2  0  0  0  0
 16 11  2  0  0  0  0
 16 15  1  0  0  0  0
 17 11  1  0  0  0  0
 19 15  1  0  0  0  0
 20 21  1  0  0  0  0
 20 25  1  0  0  0  0
 21 22  1  0  0  0  0
 22 23  1  0  0  0  0
 23 24  1  0  0  0  0
 25 24  1  0  0  0  0
M  END
>  <minimizedAffinity>
-4.75866842

$$$$
