
     RDKit          3D

 26 27  0  0  0  0  0  0  0  0999 V2000
   37.2972   30.1832   51.4148 C   0  0  0  0  0  0  0  0  0  0  0  0
   38.0729   30.6835   50.3456 C   0  0  0  0  0  0  0  0  0  0  0  0
   37.6746   30.3405   49.0448 C   0  0  0  0  0  0  0  0  0  0  0  0
   36.5724   29.5516   48.8894 N   0  0  0  0  0  0  0  0  0  0  0  0
   35.8579   29.0936   49.9341 C   0  0  0  0  0  0  0  0  0  0  0  0
   36.2191   29.4086   51.1993 N   0  0  0  0  0  0  0  0  0  0  0  0
   37.6262   30.4629   52.4108 H   0  0  0  0  0  0  0  0  0  0  0  0
   38.9312   31.3007   50.5261 H   0  0  0  0  0  0  0  0  0  0  0  0
   35.0020   28.4765   49.7183 H   0  0  0  0  0  0  0  0  0  0  0  0
   38.4527   30.8396   47.9105 C   0  0  0  0  0  0  0  0  0  0  0  0
   37.6738   31.2844   46.7247 C   0  0  0  0  0  0  0  0  0  0  0  0
   38.6582   31.3891   45.5755 C   0  0  0  0  0  0  0  0  0  0  0  0
   39.9371   32.0079   45.9998 C   0  0  0  0  0  0  0  0  0  0  0  0
   39.9215   32.7715   47.2806 C   0  0  0  0  0  0  0  0  0  0  0  0
   39.1934   32.0893   48.4043 C   0  0  0  0  0  0  0  0  0  0  0  0
   39.2825   30.1455   47.6117 H   0  0  0  0  0  0  0  0  0  0  0  0
   37.1854   32.2510   46.8674 H   0  0  0  0  0  0  0  0  0  0  0  0
   36.9216   30.5501   46.3749 H   0  0  0  0  0  0  0  0  0  0  0  0
   38.1936   31.8673   44.6879 H   0  0  0  0  0  0  0  0  0  0  0  0
   38.8735   30.3347   45.2542 H   0  0  0  0  0  0  0  0  0  0  0  0
   40.8027   31.2888   45.9912 H   0  0  0  0  0  0  0  0  0  0  0  0
   40.2018   32.7630   45.2056 H   0  0  0  0  0  0  0  0  0  0  0  0
   40.9985   32.8509   47.6147 H   0  0  0  0  0  0  0  0  0  0  0  0
   39.5858   33.8258   47.1973 H   0  0  0  0  0  0  0  0  0  0  0  0
   39.8493   31.7919   49.2452 H   0  0  0  0  0  0  0  0  0  0  0  0
   38.4022   32.7543   48.8208 H   0  0  0  0  0  0  0  0  0  0  0  0
  2  1  2  0
  3  2  1  0
  4  3  2  0
  4  5  1  0
  5  6  2  0
  6  1  1  0
  1  7  1  0
  2  8  1  0
  5  9  1  0
 10 11  1  0
 11 12  1  0
 12 13  1  0
 13 14  1  0
 14 15  1  0
 15 10  1  0
 10 16  1  0
 11 17  1  0
 11 18  1  0
 12 19  1  0
 12 20  1  0
 13 21  1  0
 13 22  1  0
 14 23  1  0
 14 24  1  0
 15 25  1  0
 15 26  1  0
  3 10  1  0
M  ISO  3   7  14   8  14   9  14
M  END
>  <DihAtoms>  (1) 
1,2,9,10

>  <DihDeg>  (1) 
-49.97841113850576

$$$$
