
 OpenBabel03272508133D

 31 33  0  0  0  0  0  0  0  0999 V2000
   38.4110   22.5840   33.5040 Cl  0  0  0  0  0  0  0  0  0  0  0  0
   37.2210   23.5280   32.5720 C   0  0  0  0  0  0  0  0  0  0  0  0
   37.2240   24.9210   32.4870 C   0  0  0  0  0  0  0  0  0  0  0  0
   36.2400   25.5100   31.7280 C   0  0  0  0  0  0  0  0  0  0  0  0
   35.2910   24.7600   31.0780 C   0  0  0  0  0  0  0  0  0  0  0  0
   35.2730   23.3900   31.1510 C   0  0  0  0  0  0  0  0  0  0  0  0
   36.2360   22.7840   31.8960 C   0  0  0  0  0  0  0  0  0  0  0  0
   36.3040   26.5910   31.7070 H   0  0  0  0  0  0  0  0  0  0  0  0
   34.5380   25.2740   30.4950 H   0  0  0  0  0  0  0  0  0  0  0  0
   34.5170   22.8030   30.6330 H   0  0  0  0  0  0  0  0  0  0  0  0
   36.2370   21.2870   31.9910 C   0  0  0  0  0  3  0  0  0  0  0  0
   36.7270   20.8100   30.6340 C   0  0  0  0  0  2  0  0  0  0  0  0
   36.6510   19.3180   30.5920 C   0  0  0  0  0  2  0  0  0  0  0  0
   36.4240   18.7070   31.9530 C   0  0  0  0  0  2  0  0  0  0  0  0
   35.1600   19.2260   32.6050 C   0  0  0  0  0  2  0  0  0  0  0  0
   34.9080   20.6930   32.2950 C   0  0  0  0  0  2  0  0  0  0  0  0
   38.2440   25.4860   33.1990 O   0  0  0  0  0  0  0  0  0  0  0  0
   39.5110   27.0490   34.8240 O   0  0  0  0  0  0  0  0  0  0  0  0
   38.1620   26.4540   34.5790 P   0  0  1  0  0  0  0  0  0  0  0  0
   37.0530   27.6920   34.2010 O   0  0  0  0  0  0  0  0  0  0  0  0
   36.4340   27.4460   33.4790 H   0  0  0  0  0  0  0  0  0  0  0  0
   37.5640   25.5370   35.8710 O   0  0  0  0  0  0  0  0  0  0  0  0
   38.7590   23.3460   38.6020 C   0  0  0  0  0  0  0  0  0  0  0  0
   37.9340   24.2800   37.9730 C   0  0  0  0  0  0  0  0  0  0  0  0
   38.2170   24.6630   36.6640 C   0  0  0  0  0  0  0  0  0  0  0  0
   39.3110   24.0880   36.0620 N   0  0  0  0  0  0  0  0  0  0  0  0
   40.0830   23.1890   36.7030 C   0  0  0  0  0  0  0  0  0  0  0  0
   39.8040   22.8240   37.9650 N   0  0  0  0  0  0  0  0  0  0  0  0
   38.4670   23.1020   39.6260 H   0  0  0  0  0  0  0  0  0  0  0  0
   37.0670   24.7730   38.3720 H   0  0  0  0  0  0  0  0  0  0  0  0
   40.9510   22.7490   36.1880 H   0  0  0  0  0  0  0  0  0  0  0  0
  2  1  1  0  0  0  0
  3  2  1  0  0  0  0
  3 17  1  0  0  0  0
  4  3  2  0  0  0  0
  5  6  2  0  0  0  0
  5  4  1  0  0  0  0
  6  7  1  0  0  0  0
  7 11  1  0  0  0  0
  7  2  2  0  0  0  0
  8  4  1  0  0  0  0
  9  5  1  0  0  0  0
 10  6  1  0  0  0  0
 11 16  1  0  0  0  0
 12 11  1  0  0  0  0
 13 12  1  0  0  0  0
 13 14  1  0  0  0  0
 14 15  1  0  0  0  0
 16 15  1  0  0  0  0
 17 19  1  0  0  0  0
 19 18  2  1  0  0  0
 19 22  1  0  0  0  0
 20 19  1  0  0  0  0
 21 20  1  0  0  0  0
 22 25  1  0  0  0  0
 23 29  1  0  0  0  0
 24 30  1  0  0  0  0
 24 23  1  0  0  0  0
 25 24  2  0  0  0  0
 26 25  1  0  0  0  0
 26 27  2  0  0  0  0
 27 28  1  0  0  0  0
 28 23  2  0  0  0  0
 31 27  1  0  0  0  0
M  END
>  <minimizedAffinity>
-6.10796404

$$$$

 OpenBabel03272508133D

 31 33  0  0  0  0  0  0  0  0999 V2000
   36.3470   27.7420   34.7600 Cl  0  0  0  0  0  0  0  0  0  0  0  0
   36.2230   28.4590   33.1340 C   0  0  0  0  0  0  0  0  0  0  0  0
   36.4490   27.7530   31.9510 C   0  0  0  0  0  0  0  0  0  0  0  0
   36.3150   28.4430   30.7680 C   0  0  0  0  0  0  0  0  0  0  0  0
   35.9720   29.7730   30.7500 C   0  0  0  0  0  0  0  0  0  0  0  0
   35.7470   30.4810   31.9020 C   0  0  0  0  0  0  0  0  0  0  0  0
   35.8730   29.8200   33.0850 C   0  0  0  0  0  0  0  0  0  0  0  0
   36.5050   27.8340   29.8930 H   0  0  0  0  0  0  0  0  0  0  0  0
   35.8810   30.2680   29.7920 H   0  0  0  0  0  0  0  0  0  0  0  0
   35.4760   31.5350   31.8780 H   0  0  0  0  0  0  0  0  0  0  0  0
   35.6320   30.5740   34.3590 C   0  0  0  0  0  3  0  0  0  0  0  0
   34.1390   30.4410   34.6140 C   0  0  0  0  0  2  0  0  0  0  0  0
   33.7810   31.2630   35.8100 C   0  0  0  0  0  2  0  0  0  0  0  0
   34.9900   31.7200   36.5880 C   0  0  0  0  0  2  0  0  0  0  0  0
   35.9460   32.5240   35.7330 C   0  0  0  0  0  2  0  0  0  0  0  0
   36.0180   32.0090   34.3030 C   0  0  0  0  0  2  0  0  0  0  0  0
   36.7780   26.4460   32.1760 O   0  0  0  0  0  0  0  0  0  0  0  0
   35.0420   25.3270   30.6200 O   0  0  0  0  0  0  0  0  0  0  0  0
   36.3630   25.0810   31.2760 P   0  0  1  0  0  0  0  0  0  0  0  0
   37.5710   24.9360   30.0830 O   0  0  0  0  0  0  0  0  0  0  0  0
   38.4100   25.3850   30.3300 H   0  0  0  0  0  0  0  0  0  0  0  0
   36.3940   23.7170   32.2790 O   0  0  0  0  0  0  0  0  0  0  0  0
   35.0960   20.2700   31.9360 C   0  0  0  0  0  0  0  0  0  0  0  0
   35.1410   21.5840   32.4050 C   0  0  0  0  0  0  0  0  0  0  0  0
   36.1590   22.4270   31.9640 C   0  0  0  0  0  0  0  0  0  0  0  0
   37.0720   21.9030   31.0800 N   0  0  0  0  0  0  0  0  0  0  0  0
   36.9950   20.6280   30.6520 C   0  0  0  0  0  0  0  0  0  0  0  0
   36.0110   19.8220   31.0810 N   0  0  0  0  0  0  0  0  0  0  0  0
   34.2670   19.6780   32.3310 H   0  0  0  0  0  0  0  0  0  0  0  0
   34.4700   22.0670   33.0910 H   0  0  0  0  0  0  0  0  0  0  0  0
   37.7440   20.2430   29.9440 H   0  0  0  0  0  0  0  0  0  0  0  0
  2  1  1  0  0  0  0
  3 17  1  0  0  0  0
  3  2  2  0  0  0  0
  4  3  1  0  0  0  0
  5  4  2  0  0  0  0
  5  6  1  0  0  0  0
  6  7  2  0  0  0  0
  7  2  1  0  0  0  0
  7 11  1  0  0  0  0
  8  4  1  0  0  0  0
  9  5  1  0  0  0  0
 10  6  1  0  0  0  0
 11 12  1  0  0  0  0
 12 13  1  0  0  0  0
 13 14  1  0  0  0  0
 15 14  1  0  0  0  0
 16 11  1  0  0  0  0
 16 15  1  0  0  0  0
 19 18  2  6  0  0  0
 19 17  1  0  0  0  0
 19 22  1  0  0  0  0
 20 21  1  0  0  0  0
 20 19  1  0  0  0  0
 23 29  1  0  0  0  0
 23 24  1  0  0  0  0
 24 30  1  0  0  0  0
 25 22  1  0  0  0  0
 25 24  2  0  0  0  0
 26 25  1  0  0  0  0
 27 26  2  0  0  0  0
 27 28  1  0  0  0  0
 28 23  2  0  0  0  0
 31 27  1  0  0  0  0
M  END
>  <minimizedAffinity>
-5.77511072

$$$$

 OpenBabel03272508133D

 31 33  0  0  0  0  0  0  0  0999 V2000
   40.4380   23.9070   34.2010 Cl  0  0  0  0  0  0  0  0  0  0  0  0
   39.6320   23.8560   35.7890 C   0  0  0  0  0  0  0  0  0  0  0  0
   38.4510   24.5390   36.0860 C   0  0  0  0  0  0  0  0  0  0  0  0
   37.9470   24.4040   37.3590 C   0  0  0  0  0  0  0  0  0  0  0  0
   38.5780   23.6280   38.3010 C   0  0  0  0  0  0  0  0  0  0  0  0
   39.7390   22.9520   38.0250 C   0  0  0  0  0  0  0  0  0  0  0  0
   40.2580   23.0700   36.7730 C   0  0  0  0  0  0  0  0  0  0  0  0
   37.0310   24.9590   37.5180 H   0  0  0  0  0  0  0  0  0  0  0  0
   38.1390   23.5570   39.2870 H   0  0  0  0  0  0  0  0  0  0  0  0
   40.2330   22.3400   38.7780 H   0  0  0  0  0  0  0  0  0  0  0  0
   41.5260   22.3390   36.4480 C   0  0  0  0  0  3  0  0  0  0  0  0
   41.5400   21.1440   37.3870 C   0  0  0  0  0  2  0  0  0  0  0  0
   42.8330   20.4140   37.2170 C   0  0  0  0  0  2  0  0  0  0  0  0
   43.5970   20.8560   35.9920 C   0  0  0  0  0  2  0  0  0  0  0  0
   43.8930   22.3400   36.0120 C   0  0  0  0  0  2  0  0  0  0  0  0
   42.7610   23.1490   36.6290 C   0  0  0  0  0  2  0  0  0  0  0  0
   37.9780   25.2530   35.0220 O   0  0  0  0  0  0  0  0  0  0  0  0
   36.5390   27.3990   34.9170 O   0  0  0  0  0  0  0  0  0  0  0  0
   37.9520   26.9250   34.7970 P   0  0  1  0  0  0  0  0  0  0  0  0
   38.8790   27.5700   36.0740 O   0  0  0  0  0  0  0  0  0  0  0  0
   39.5140   26.9230   36.4530 H   0  0  0  0  0  0  0  0  0  0  0  0
   38.6870   27.3030   33.3200 O   0  0  0  0  0  0  0  0  0  0  0  0
   41.8540   26.6580   31.5180 C   0  0  0  0  0  0  0  0  0  0  0  0
   40.4740   26.8010   31.6790 C   0  0  0  0  0  0  0  0  0  0  0  0
   39.9680   27.1180   32.9370 C   0  0  0  0  0  0  0  0  0  0  0  0
   40.8730   27.2730   33.9610 N   0  0  0  0  0  0  0  0  0  0  0  0
   42.1970   27.1260   33.7650 C   0  0  0  0  0  0  0  0  0  0  0  0
   42.6790   26.8210   32.5490 N   0  0  0  0  0  0  0  0  0  0  0  0
   42.1660   26.4100   30.5010 H   0  0  0  0  0  0  0  0  0  0  0  0
   39.7060   26.6980   30.9360 H   0  0  0  0  0  0  0  0  0  0  0  0
   42.8920   27.2570   34.6080 H   0  0  0  0  0  0  0  0  0  0  0  0
  1  2  1  0  0  0  0
  2  3  2  0  0  0  0
  2  7  1  0  0  0  0
  3  4  1  0  0  0  0
  4  8  1  0  0  0  0
  4  5  2  0  0  0  0
  5  9  1  0  0  0  0
  6  5  1  0  0  0  0
  6 10  1  0  0  0  0
  7  6  2  0  0  0  0
 11 16  1  0  0  0  0
 11  7  1  0  0  0  0
 11 12  1  0  0  0  0
 13 12  1  0  0  0  0
 14 15  1  0  0  0  0
 14 13  1  0  0  0  0
 15 16  1  0  0  0  0
 17  3  1  0  0  0  0
 19 18  2  1  0  0  0
 19 17  1  0  0  0  0
 19 20  1  0  0  0  0
 20 21  1  0  0  0  0
 22 19  1  0  0  0  0
 23 24  2  0  0  0  0
 23 28  1  0  0  0  0
 24 25  1  0  0  0  0
 25 22  1  0  0  0  0
 25 26  2  0  0  0  0
 27 26  1  0  0  0  0
 27 31  1  0  0  0  0
 28 27  2  0  0  0  0
 29 23  1  0  0  0  0
 30 24  1  0  0  0  0
M  END
>  <minimizedAffinity>
-5.73632908

$$$$

 OpenBabel03272508133D

 31 33  0  0  0  0  0  0  0  0999 V2000
   38.1510   27.0620   36.1280 Cl  0  0  0  0  0  0  0  0  0  0  0  0
   37.7470   26.1410   34.6570 C   0  0  0  0  0  0  0  0  0  0  0  0
   37.1560   26.7020   33.5230 C   0  0  0  0  0  0  0  0  0  0  0  0
   36.9040   25.8640   32.4620 C   0  0  0  0  0  0  0  0  0  0  0  0
   37.2190   24.5280   32.5140 C   0  0  0  0  0  0  0  0  0  0  0  0
   37.7990   23.9610   33.6190 C   0  0  0  0  0  0  0  0  0  0  0  0
   38.0590   24.7700   34.6830 C   0  0  0  0  0  0  0  0  0  0  0  0
   36.4470   26.3660   31.6190 H   0  0  0  0  0  0  0  0  0  0  0  0
   36.9980   23.9130   31.6510 H   0  0  0  0  0  0  0  0  0  0  0  0
   38.0450   22.9010   33.6520 H   0  0  0  0  0  0  0  0  0  0  0  0
   38.6930   24.1720   35.9030 C   0  0  0  0  0  3  0  0  0  0  0  0
   39.5010   22.9930   35.3870 C   0  0  0  0  0  2  0  0  0  0  0  0
   40.0800   22.2600   36.5520 C   0  0  0  0  0  2  0  0  0  0  0  0
   39.9750   23.0360   37.8420 C   0  0  0  0  0  2  0  0  0  0  0  0
   38.5430   23.3940   38.1750 C   0  0  0  0  0  2  0  0  0  0  0  0
   37.7230   23.7180   36.9350 C   0  0  0  0  0  2  0  0  0  0  0  0
   36.9210   28.0410   33.6640 O   0  0  0  0  0  0  0  0  0  0  0  0
   36.8000   29.0910   31.3050 O   0  0  0  0  0  0  0  0  0  0  0  0
   36.0990   29.0850   32.6250 P   0  0  1  0  0  0  0  0  0  0  0  0
   34.5440   28.4120   32.4400 O   0  0  0  0  0  0  0  0  0  0  0  0
   34.2920   27.8190   33.1810 H   0  0  0  0  0  0  0  0  0  0  0  0
   35.9710   30.6100   33.3490 O   0  0  0  0  0  0  0  0  0  0  0  0
   35.0700   31.8910   36.7010 C   0  0  0  0  0  0  0  0  0  0  0  0
   35.8890   31.6510   35.5960 C   0  0  0  0  0  0  0  0  0  0  0  0
   35.3710   30.9520   34.5080 C   0  0  0  0  0  0  0  0  0  0  0  0
   34.0640   30.5330   34.5920 N   0  0  0  0  0  0  0  0  0  0  0  0
   33.3060   30.7860   35.6770 C   0  0  0  0  0  0  0  0  0  0  0  0
   33.8120   31.4600   36.7220 N   0  0  0  0  0  0  0  0  0  0  0  0
   35.5540   32.4460   37.5090 H   0  0  0  0  0  0  0  0  0  0  0  0
   36.9130   31.9410   35.4530 H   0  0  0  0  0  0  0  0  0  0  0  0
   32.2630   30.4360   35.7080 H   0  0  0  0  0  0  0  0  0  0  0  0
  2  7  1  0  0  0  0
  2  1  1  0  0  0  0
  3 17  1  0  0  0  0
  3  2  2  0  0  0  0
  4  5  2  0  0  0  0
  4  3  1  0  0  0  0
  5  6  1  0  0  0  0
  6 10  1  0  0  0  0
  6  7  2  0  0  0  0
  7 11  1  0  0  0  0
  8  4  1  0  0  0  0
  9  5  1  0  0  0  0
 11 16  1  0  0  0  0
 12 11  1  0  0  0  0
 12 13  1  0  0  0  0
 13 14  1  0  0  0  0
 14 15  1  0  0  0  0
 16 15  1  0  0  0  0
 19 18  2  6  0  0  0
 19 22  1  0  0  0  0
 19 17  1  0  0  0  0
 20 19  1  0  0  0  0
 20 21  1  0  0  0  0
 22 25  1  0  0  0  0
 23 28  1  0  0  0  0
 23 29  1  0  0  0  0
 24 23  2  0  0  0  0
 25 26  2  0  0  0  0
 25 24  1  0  0  0  0
 26 27  1  0  0  0  0
 27 31  1  0  0  0  0
 27 28  2  0  0  0  0
 30 24  1  0  0  0  0
M  END
>  <minimizedAffinity>
-5.59097385

$$$$

 OpenBabel03272508133D

 31 33  0  0  0  0  0  0  0  0999 V2000
   37.8750   22.8730   34.2580 Cl  0  0  0  0  0  0  0  0  0  0  0  0
   38.5540   24.5160   34.1430 C   0  0  0  0  0  0  0  0  0  0  0  0
   37.9360   25.5700   33.4670 C   0  0  0  0  0  0  0  0  0  0  0  0
   38.5820   26.7840   33.4650 C   0  0  0  0  0  0  0  0  0  0  0  0
   39.7870   26.9550   34.1020 C   0  0  0  0  0  0  0  0  0  0  0  0
   40.4080   25.9310   34.7700 C   0  0  0  0  0  0  0  0  0  0  0  0
   39.7880   24.7190   34.7860 C   0  0  0  0  0  0  0  0  0  0  0  0
   38.0470   27.5540   32.9240 H   0  0  0  0  0  0  0  0  0  0  0  0
   40.2540   27.9310   34.0690 H   0  0  0  0  0  0  0  0  0  0  0  0
   41.3630   26.0750   35.2720 H   0  0  0  0  0  0  0  0  0  0  0  0
   40.4470   23.5840   35.5110 C   0  0  0  0  0  3  0  0  0  0  0  0
   39.7530   23.5270   36.8610 C   0  0  0  0  0  2  0  0  0  0  0  0
   40.4260   22.4920   37.7050 C   0  0  0  0  0  2  0  0  0  0  0  0
   41.3570   21.6080   36.9120 C   0  0  0  0  0  2  0  0  0  0  0  0
   42.4290   22.4060   36.1990 C   0  0  0  0  0  2  0  0  0  0  0  0
   41.9140   23.7450   35.6930 C   0  0  0  0  0  2  0  0  0  0  0  0
   36.7480   25.2030   32.9000 O   0  0  0  0  0  0  0  0  0  0  0  0
   35.6070   26.2810   30.8450 O   0  0  0  0  0  0  0  0  0  0  0  0
   36.3570   25.0570   31.2660 P   0  0  1  0  0  0  0  0  0  0  0  0
   37.8490   24.9930   30.4440 O   0  0  0  0  0  0  0  0  0  0  0  0
   38.5900   24.6970   31.0170 H   0  0  0  0  0  0  0  0  0  0  0  0
   35.5140   23.6100   31.0190 O   0  0  0  0  0  0  0  0  0  0  0  0
   35.6310   20.2390   32.5400 C   0  0  0  0  0  0  0  0  0  0  0  0
   35.1000   21.4950   32.2420 C   0  0  0  0  0  0  0  0  0  0  0  0
   35.8280   22.3640   31.4320 C   0  0  0  0  0  0  0  0  0  0  0  0
   37.0450   21.9240   30.9690 N   0  0  0  0  0  0  0  0  0  0  0  0
   37.5230   20.7030   31.2790 C   0  0  0  0  0  0  0  0  0  0  0  0
   36.8160   19.8700   32.0610 N   0  0  0  0  0  0  0  0  0  0  0  0
   34.9960   19.6210   33.1790 H   0  0  0  0  0  0  0  0  0  0  0  0
   34.1630   21.9120   32.5620 H   0  0  0  0  0  0  0  0  0  0  0  0
   38.5020   20.3840   30.8910 H   0  0  0  0  0  0  0  0  0  0  0  0
  2  1  1  0  0  0  0
  2  7  1  0  0  0  0
  3  2  2  0  0  0  0
  4  3  1  0  0  0  0
  4  5  2  0  0  0  0
  5  6  1  0  0  0  0
  6  7  2  0  0  0  0
  6 10  1  0  0  0  0
  7 11  1  0  0  0  0
  8  4  1  0  0  0  0
  9  5  1  0  0  0  0
 11 16  1  0  0  0  0
 11 12  1  0  0  0  0
 12 13  1  0  0  0  0
 14 13  1  0  0  0  0
 15 14  1  0  0  0  0
 16 15  1  0  0  0  0
 17  3  1  0  0  0  0
 19 18  2  6  0  0  0
 19 17  1  0  0  0  0
 20 21  1  0  0  0  0
 20 19  1  0  0  0  0
 22 19  1  0  0  0  0
 22 25  1  0  0  0  0
 23 29  1  0  0  0  0
 24 23  1  0  0  0  0
 24 30  1  0  0  0  0
 25 24  2  0  0  0  0
 26 27  2  0  0  0  0
 26 25  1  0  0  0  0
 27 28  1  0  0  0  0
 28 23  2  0  0  0  0
 31 27  1  0  0  0  0
M  END
>  <minimizedAffinity>
-5.50988626

$$$$

 OpenBabel03272508133D

 31 33  0  0  0  0  0  0  0  0999 V2000
   36.1820   25.2690   31.9100 Cl  0  0  0  0  0  0  0  0  0  0  0  0
   37.5120   25.6410   33.0360 C   0  0  0  0  0  0  0  0  0  0  0  0
   38.5470   24.7550   33.3410 C   0  0  0  0  0  0  0  0  0  0  0  0
   39.5050   25.1840   34.2300 C   0  0  0  0  0  0  0  0  0  0  0  0
   39.4470   26.4340   34.7970 C   0  0  0  0  0  0  0  0  0  0  0  0
   38.4370   27.3150   34.5100 C   0  0  0  0  0  0  0  0  0  0  0  0
   37.4770   26.9140   33.6330 C   0  0  0  0  0  0  0  0  0  0  0  0
   40.2760   24.4480   34.4190 H   0  0  0  0  0  0  0  0  0  0  0  0
   40.2260   26.7210   35.4920 H   0  0  0  0  0  0  0  0  0  0  0  0
   38.3980   28.3040   34.9650 H   0  0  0  0  0  0  0  0  0  0  0  0
   36.3620   27.8610   33.3030 C   0  0  0  0  0  3  0  0  0  0  0  0
   36.8580   28.6420   32.0970 C   0  0  0  0  0  2  0  0  0  0  0  0
   35.8550   29.6990   31.7630 C   0  0  0  0  0  2  0  0  0  0  0  0
   34.5410   29.5040   32.4790 C   0  0  0  0  0  2  0  0  0  0  0  0
   34.7120   29.4750   33.9830 C   0  0  0  0  0  2  0  0  0  0  0  0
   36.0040   28.7920   34.4060 C   0  0  0  0  0  2  0  0  0  0  0  0
   38.4310   23.5660   32.6780 O   0  0  0  0  0  0  0  0  0  0  0  0
   37.2140   21.3070   32.3590 O   0  0  0  0  0  0  0  0  0  0  0  0
   38.1170   22.0320   33.3050 P   0  0  1  0  0  0  0  0  0  0  0  0
   39.6280   21.2460   33.3650 O   0  0  0  0  0  0  0  0  0  0  0  0
   40.3850   21.8710   33.3880 H   0  0  0  0  0  0  0  0  0  0  0  0
   37.4970   22.1830   34.8740 O   0  0  0  0  0  0  0  0  0  0  0  0
   38.5270   23.4610   38.1900 C   0  0  0  0  0  0  0  0  0  0  0  0
   37.6700   23.2300   37.1120 C   0  0  0  0  0  0  0  0  0  0  0  0
   38.1410   22.5200   36.0110 C   0  0  0  0  0  0  0  0  0  0  0  0
   39.4440   22.0820   36.0530 N   0  0  0  0  0  0  0  0  0  0  0  0
   40.2400   22.3250   37.1120 C   0  0  0  0  0  0  0  0  0  0  0  0
   39.7790   23.0110   38.1710 N   0  0  0  0  0  0  0  0  0  0  0  0
   38.0780   24.0250   39.0110 H   0  0  0  0  0  0  0  0  0  0  0  0
   36.6460   23.5360   37.0020 H   0  0  0  0  0  0  0  0  0  0  0  0
   41.2780   21.9600   37.1100 H   0  0  0  0  0  0  0  0  0  0  0  0
  1  2  1  0  0  0  0
  2  3  2  0  0  0  0
  2  7  1  0  0  0  0
  3  4  1  0  0  0  0
  4  8  1  0  0  0  0
  4  5  2  0  0  0  0
  5  9  1  0  0  0  0
  6  5  1  0  0  0  0
  6 10  1  0  0  0  0
  7  6  2  0  0  0  0
 11  7  1  0  0  0  0
 11 16  1  0  0  0  0
 12 11  1  0  0  0  0
 13 12  1  0  0  0  0
 13 14  1  0  0  0  0
 14 15  1  0  0  0  0
 15 16  1  0  0  0  0
 17 19  1  0  0  0  0
 17  3  1  0  0  0  0
 19 18  2  6  0  0  0
 19 20  1  0  0  0  0
 19 22  1  0  0  0  0
 20 21  1  0  0  0  0
 22 25  1  0  0  0  0
 23 29  1  0  0  0  0
 24 23  2  0  0  0  0
 25 26  2  0  0  0  0
 25 24  1  0  0  0  0
 26 27  1  0  0  0  0
 27 28  2  0  0  0  0
 28 23  1  0  0  0  0
 30 24  1  0  0  0  0
 31 27  1  0  0  0  0
M  END
>  <minimizedAffinity>
-5.45897818

$$$$

 OpenBabel03272508133D

 31 33  0  0  0  0  0  0  0  0999 V2000
   36.7130   28.0050   34.8160 Cl  0  0  0  0  0  0  0  0  0  0  0  0
   36.4480   28.6870   33.1920 C   0  0  0  0  0  0  0  0  0  0  0  0
   37.0230   28.1750   32.0270 C   0  0  0  0  0  0  0  0  0  0  0  0
   36.7250   28.8090   30.8440 C   0  0  0  0  0  0  0  0  0  0  0  0
   35.8950   29.9030   30.8060 C   0  0  0  0  0  0  0  0  0  0  0  0
   35.3230   30.4200   31.9410 C   0  0  0  0  0  0  0  0  0  0  0  0
   35.6020   29.8100   33.1240 C   0  0  0  0  0  0  0  0  0  0  0  0
   37.2040   28.3590   29.9830 H   0  0  0  0  0  0  0  0  0  0  0  0
   35.6950   30.3650   29.8490 H   0  0  0  0  0  0  0  0  0  0  0  0
   34.6670   31.2870   31.9020 H   0  0  0  0  0  0  0  0  0  0  0  0
   34.9880   30.3560   34.3780 C   0  0  0  0  0  3  0  0  0  0  0  0
   33.6310   30.8880   33.9480 C   0  0  0  0  0  2  0  0  0  0  0  0
   32.9860   31.5610   35.1160 C   0  0  0  0  0  2  0  0  0  0  0  0
   33.6840   31.2640   36.4210 C   0  0  0  0  0  2  0  0  0  0  0  0
   35.1430   31.6680   36.3890 C   0  0  0  0  0  2  0  0  0  0  0  0
   35.7800   31.4340   35.0270 C   0  0  0  0  0  2  0  0  0  0  0  0
   37.8140   27.0880   32.2690 O   0  0  0  0  0  0  0  0  0  0  0  0
   36.0300   25.2220   32.1300 O   0  0  0  0  0  0  0  0  0  0  0  0
   37.4970   25.4600   31.9640 P   0  0  1  0  0  0  0  0  0  0  0  0
   37.9320   25.2080   30.3350 O   0  0  0  0  0  0  0  0  0  0  0  0
   38.5770   25.8710   30.0040 H   0  0  0  0  0  0  0  0  0  0  0  0
   38.4720   24.5010   32.9630 O   0  0  0  0  0  0  0  0  0  0  0  0
   38.0690   24.3440   36.6370 C   0  0  0  0  0  0  0  0  0  0  0  0
   38.3030   24.9380   35.3960 C   0  0  0  0  0  0  0  0  0  0  0  0
   38.2770   24.1460   34.2500 C   0  0  0  0  0  0  0  0  0  0  0  0
   38.0190   22.8060   34.4150 N   0  0  0  0  0  0  0  0  0  0  0  0
   37.7980   22.2710   35.6310 C   0  0  0  0  0  0  0  0  0  0  0  0
   37.8250   23.0400   36.7320 N   0  0  0  0  0  0  0  0  0  0  0  0
   38.1080   25.0350   37.4830 H   0  0  0  0  0  0  0  0  0  0  0  0
   38.5110   25.9700   35.1830 H   0  0  0  0  0  0  0  0  0  0  0  0
   37.5940   21.1930   35.7250 H   0  0  0  0  0  0  0  0  0  0  0  0
  2  1  1  0  0  0  0
  3 17  1  0  0  0  0
  3  2  2  0  0  0  0
  4  3  1  0  0  0  0
  5  4  2  0  0  0  0
  5  6  1  0  0  0  0
  6  7  2  0  0  0  0
  7  2  1  0  0  0  0
  7 11  1  0  0  0  0
  8  4  1  0  0  0  0
  9  5  1  0  0  0  0
 10  6  1  0  0  0  0
 11 16  1  0  0  0  0
 12 11  1  0  0  0  0
 12 13  1  0  0  0  0
 13 14  1  0  0  0  0
 15 14  1  0  0  0  0
 16 15  1  0  0  0  0
 19 18  2  1  0  0  0
 19 17  1  0  0  0  0
 19 22  1  0  0  0  0
 20 19  1  0  0  0  0
 21 20  1  0  0  0  0
 22 25  1  0  0  0  0
 23 28  1  0  0  0  0
 23 29  1  0  0  0  0
 24 23  2  0  0  0  0
 25 26  2  0  0  0  0
 25 24  1  0  0  0  0
 26 27  1  0  0  0  0
 27 31  1  0  0  0  0
 27 28  2  0  0  0  0
 30 24  1  0  0  0  0
M  END
>  <minimizedAffinity>
-5.41015244

$$$$

 OpenBabel03272508133D

 31 33  0  0  0  0  0  0  0  0999 V2000
   37.3560   27.7700   35.2530 Cl  0  0  0  0  0  0  0  0  0  0  0  0
   37.2200   27.8870   33.4800 C   0  0  0  0  0  0  0  0  0  0  0  0
   38.0890   27.2550   32.5880 C   0  0  0  0  0  0  0  0  0  0  0  0
   37.8570   27.4380   31.2450 C   0  0  0  0  0  0  0  0  0  0  0  0
   36.8140   28.2110   30.7960 C   0  0  0  0  0  0  0  0  0  0  0  0
   35.9530   28.8390   31.6590 C   0  0  0  0  0  0  0  0  0  0  0  0
   36.1610   28.6730   32.9930 C   0  0  0  0  0  0  0  0  0  0  0  0
   38.5680   26.9200   30.6130 H   0  0  0  0  0  0  0  0  0  0  0  0
   36.6780   28.3230   29.7290 H   0  0  0  0  0  0  0  0  0  0  0  0
   35.1290   29.4510   31.2950 H   0  0  0  0  0  0  0  0  0  0  0  0
   35.2310   29.3500   33.9560 C   0  0  0  0  0  3  0  0  0  0  0  0
   33.8720   29.3130   33.2780 C   0  0  0  0  0  2  0  0  0  0  0  0
   32.8950   30.0720   34.1160 C   0  0  0  0  0  2  0  0  0  0  0  0
   33.4240   30.3800   35.4960 C   0  0  0  0  0  2  0  0  0  0  0  0
   34.7160   31.1670   35.4460 C   0  0  0  0  0  2  0  0  0  0  0  0
   35.6040   30.7520   34.2830 C   0  0  0  0  0  2  0  0  0  0  0  0
   39.0590   26.5330   33.2250 O   0  0  0  0  0  0  0  0  0  0  0  0
   39.0000   24.2320   32.0480 O   0  0  0  0  0  0  0  0  0  0  0  0
   39.1950   24.8610   33.3900 P   0  0  1  0  0  0  0  0  0  0  0  0
   40.7910   24.5830   33.9220 O   0  0  0  0  0  0  0  0  0  0  0  0
   41.1900   25.3660   34.3600 H   0  0  0  0  0  0  0  0  0  0  0  0
   38.1060   24.3240   34.5710 O   0  0  0  0  0  0  0  0  0  0  0  0
   38.0680   23.9860   38.2560 C   0  0  0  0  0  0  0  0  0  0  0  0
   37.6380   24.4250   37.0020 C   0  0  0  0  0  0  0  0  0  0  0  0
   38.3390   24.0260   35.8670 C   0  0  0  0  0  0  0  0  0  0  0  0
   39.4300   23.2100   36.0530 N   0  0  0  0  0  0  0  0  0  0  0  0
   39.8130   22.8080   37.2810 C   0  0  0  0  0  0  0  0  0  0  0  0
   39.1320   23.1970   38.3710 N   0  0  0  0  0  0  0  0  0  0  0  0
   37.4620   24.3440   39.0910 H   0  0  0  0  0  0  0  0  0  0  0  0
   36.8010   25.0590   36.7720 H   0  0  0  0  0  0  0  0  0  0  0  0
   40.6920   22.1550   37.3920 H   0  0  0  0  0  0  0  0  0  0  0  0
  2  1  1  0  0  0  0
  3 17  1  0  0  0  0
  3  2  2  0  0  0  0
  4  3  1  0  0  0  0
  5  4  2  0  0  0  0
  5  6  1  0  0  0  0
  6  7  2  0  0  0  0
  7  2  1  0  0  0  0
  7 11  1  0  0  0  0
  8  4  1  0  0  0  0
  9  5  1  0  0  0  0
 10  6  1  0  0  0  0
 11 16  1  0  0  0  0
 12 11  1  0  0  0  0
 12 13  1  0  0  0  0
 13 14  1  0  0  0  0
 15 14  1  0  0  0  0
 16 15  1  0  0  0  0
 17 19  1  0  0  0  0
 19 18  2  6  0  0  0
 19 20  1  0  0  0  0
 19 22  1  0  0  0  0
 20 21  1  0  0  0  0
 22 25  1  0  0  0  0
 23 28  1  0  0  0  0
 23 29  1  0  0  0  0
 24 23  2  0  0  0  0
 25 26  2  0  0  0  0
 25 24  1  0  0  0  0
 26 27  1  0  0  0  0
 27 31  1  0  0  0  0
 27 28  2  0  0  0  0
 30 24  1  0  0  0  0
M  END
>  <minimizedAffinity>
-5.36534834

$$$$

 OpenBabel03272508133D

 31 33  0  0  0  0  0  0  0  0999 V2000
   36.5570   27.8770   34.9110 Cl  0  0  0  0  0  0  0  0  0  0  0  0
   36.2980   28.5380   33.2770 C   0  0  0  0  0  0  0  0  0  0  0  0
   36.5450   27.8280   32.1000 C   0  0  0  0  0  0  0  0  0  0  0  0
   36.2970   28.4710   30.9100 C   0  0  0  0  0  0  0  0  0  0  0  0
   35.8260   29.7620   30.8780 C   0  0  0  0  0  0  0  0  0  0  0  0
   35.5800   30.4730   32.0240 C   0  0  0  0  0  0  0  0  0  0  0  0
   35.8170   29.8580   33.2140 C   0  0  0  0  0  0  0  0  0  0  0  0
   36.5100   27.8620   30.0410 H   0  0  0  0  0  0  0  0  0  0  0  0
   35.6490   30.2220   29.9150 H   0  0  0  0  0  0  0  0  0  0  0  0
   35.2070   31.4960   31.9900 H   0  0  0  0  0  0  0  0  0  0  0  0
   35.5550   30.6160   34.4810 C   0  0  0  0  0  3  0  0  0  0  0  0
   34.0590   30.4860   34.7120 C   0  0  0  0  0  2  0  0  0  0  0  0
   33.6810   31.3120   35.8980 C   0  0  0  0  0  2  0  0  0  0  0  0
   34.8770   31.7720   36.6950 C   0  0  0  0  0  2  0  0  0  0  0  0
   35.8480   32.5710   35.8530 C   0  0  0  0  0  2  0  0  0  0  0  0
   35.9430   32.0510   34.4270 C   0  0  0  0  0  2  0  0  0  0  0  0
   37.0070   26.5640   32.3380 O   0  0  0  0  0  0  0  0  0  0  0  0
   39.0900   26.1500   30.8630 O   0  0  0  0  0  0  0  0  0  0  0  0
   38.5900   25.9850   32.2620 P   0  0  1  0  0  0  0  0  0  0  0  0
   39.4910   26.9840   33.3090 O   0  0  0  0  0  0  0  0  0  0  0  0
   38.9380   27.4240   33.9910 H   0  0  0  0  0  0  0  0  0  0  0  0
   38.6320   24.3910   32.8300 O   0  0  0  0  0  0  0  0  0  0  0  0
   37.7480   22.3650   35.7980 C   0  0  0  0  0  0  0  0  0  0  0  0
   38.0240   22.6200   34.4530 C   0  0  0  0  0  0  0  0  0  0  0  0
   38.3340   23.9200   34.0590 C   0  0  0  0  0  0  0  0  0  0  0  0
   38.3490   24.8880   35.0350 N   0  0  0  0  0  0  0  0  0  0  0  0
   38.0770   24.6010   36.3230 C   0  0  0  0  0  0  0  0  0  0  0  0
   37.7790   23.3460   36.6960 N   0  0  0  0  0  0  0  0  0  0  0  0
   37.5160   21.3210   36.0200 H   0  0  0  0  0  0  0  0  0  0  0  0
   38.0330   21.9250   33.6340 H   0  0  0  0  0  0  0  0  0  0  0  0
   38.0980   25.4020   37.0770 H   0  0  0  0  0  0  0  0  0  0  0  0
  2  1  1  0  0  0  0
  3 17  1  0  0  0  0
  3  2  2  0  0  0  0
  4  3  1  0  0  0  0
  5  4  2  0  0  0  0
  5  6  1  0  0  0  0
  6  7  2  0  0  0  0
  7  2  1  0  0  0  0
  7 11  1  0  0  0  0
  8  4  1  0  0  0  0
  9  5  1  0  0  0  0
 10  6  1  0  0  0  0
 11 12  1  0  0  0  0
 12 13  1  0  0  0  0
 13 14  1  0  0  0  0
 15 14  1  0  0  0  0
 16 11  1  0  0  0  0
 16 15  1  0  0  0  0
 19 18  2  6  0  0  0
 19 17  1  0  0  0  0
 19 22  1  0  0  0  0
 19 20  1  0  0  0  0
 20 21  1  0  0  0  0
 22 25  1  0  0  0  0
 23 29  1  0  0  0  0
 23 28  1  0  0  0  0
 24 23  2  0  0  0  0
 25 24  1  0  0  0  0
 25 26  2  0  0  0  0
 26 27  1  0  0  0  0
 27 28  2  0  0  0  0
 27 31  1  0  0  0  0
 30 24  1  0  0  0  0
M  END
>  <minimizedAffinity>
-5.27321196

$$$$
