
 OpenBabel03272507113D

 24 26  0  0  0  0  0  0  0  0999 V2000
   37.1970   26.3880   33.7220 C   0  0  0  0  0  0  0  0  0  0  0  0
   37.3870   27.4820   34.5050 C   0  0  0  0  0  0  0  0  0  0  0  0
   38.0380   27.0640   35.6650 C   0  0  0  0  0  0  0  0  0  0  0  0
   38.2070   25.6860   35.4980 C   0  0  0  0  0  0  0  0  0  0  0  0
   37.7000   25.3400   34.3480 O   0  0  0  0  0  0  0  0  0  0  0  0
   37.1430   28.5450   34.4070 H   0  0  0  0  0  0  0  0  0  0  0  0
   38.3970   27.5540   36.5710 H   0  0  0  0  0  0  0  0  0  0  0  0
   38.8060   24.6280   36.3180 C   0  0  0  0  0  3  0  0  0  0  0  0
   38.7900   23.2800   35.6120 C   0  0  0  0  0  2  0  0  0  0  0  0
   39.6950   22.3710   36.4170 C   0  0  0  0  0  2  0  0  0  0  0  0
   39.8690   22.7880   37.8390 C   0  0  0  0  0  2  0  0  0  0  0  0
   38.6270   23.3790   38.4700 C   0  0  0  0  0  2  0  0  0  0  0  0
   38.0000   24.4350   37.5840 C   0  0  0  0  0  2  0  0  0  0  0  0
   36.5420   26.4580   32.4250 C   0  0  0  0  0  0  0  0  0  0  0  0
   36.1210   25.3990   31.9090 O   0  0  0  0  0  0  0  0  0  0  0  0
   36.4190   27.7710   31.8110 C   0  0  0  0  0  0  0  0  0  0  0  0
   37.4340   28.1440   30.9370 C   0  0  0  0  0  0  0  0  0  0  0  0
   37.3560   29.3900   30.3280 C   0  0  0  0  0  0  0  0  0  0  0  0
   36.2710   30.1800   30.6360 N   0  0  0  0  0  0  0  0  0  0  0  0
   35.3130   29.7910   31.4800 C   0  0  0  0  0  0  0  0  0  0  0  0
   35.3930   28.5890   32.0640 N   0  0  0  0  0  0  0  0  0  0  0  0
   38.2700   27.4600   30.7400 H   0  0  0  0  0  0  0  0  0  0  0  0
   38.1170   29.7200   29.6450 H   0  0  0  0  0  0  0  0  0  0  0  0
   34.4780   30.4640   31.6810 H   0  0  0  0  0  0  0  0  0  0  0  0
  1  5  1  0  0  0  0
  1  2  2  0  0  0  0
  2  3  1  0  0  0  0
  3  7  1  0  0  0  0
  4  3  2  0  0  0  0
  4  8  1  0  0  0  0
  5  4  1  0  0  0  0
  6  2  1  0  0  0  0
  8 13  1  0  0  0  0
  9  8  1  0  0  0  0
  9 10  1  0  0  0  0
 10 11  1  0  0  0  0
 11 12  1  0  0  0  0
 13 12  1  0  0  0  0
 14  1  1  0  0  0  0
 15 14  2  0  0  0  0
 16 21  1  0  0  0  0
 16 14  1  0  0  0  0
 17 16  2  0  0  0  0
 18 19  2  0  0  0  0
 18 17  1  0  0  0  0
 19 20  1  0  0  0  0
 20 24  1  0  0  0  0
 20 21  2  0  0  0  0
 22 17  1  0  0  0  0
 23 18  1  0  0  0  0
M  END
>  <minimizedAffinity>
-5.3487258

$$$$

 OpenBabel03272507113D

 24 26  0  0  0  0  0  0  0  0999 V2000
   36.8310   25.9110   31.5030 C   0  0  0  0  0  0  0  0  0  0  0  0
   35.5390   26.1790   31.1750 C   0  0  0  0  0  0  0  0  0  0  0  0
   34.8990   24.9610   30.9460 C   0  0  0  0  0  0  0  0  0  0  0  0
   35.8890   23.9970   31.1600 C   0  0  0  0  0  0  0  0  0  0  0  0
   36.9980   24.6010   31.4830 O   0  0  0  0  0  0  0  0  0  0  0  0
   34.9530   27.0970   31.0650 H   0  0  0  0  0  0  0  0  0  0  0  0
   33.8910   24.6570   30.6650 H   0  0  0  0  0  0  0  0  0  0  0  0
   35.9120   22.5320   31.0940 C   0  0  0  0  0  3  0  0  0  0  0  0
   35.2440   21.8960   32.3050 C   0  0  0  0  0  2  0  0  0  0  0  0
   35.0630   20.4310   31.9660 C   0  0  0  0  0  2  0  0  0  0  0  0
   36.0040   19.9260   30.9230 C   0  0  0  0  0  2  0  0  0  0  0  0
   37.3910   20.5260   30.9950 C   0  0  0  0  0  2  0  0  0  0  0  0
   37.3410   22.0350   31.1090 C   0  0  0  0  0  2  0  0  0  0  0  0
   37.7930   26.9570   31.8080 C   0  0  0  0  0  0  0  0  0  0  0  0
   38.1470   27.7320   30.8920 O   0  0  0  0  0  0  0  0  0  0  0  0
   38.2840   27.0330   33.1750 C   0  0  0  0  0  0  0  0  0  0  0  0
   37.3630   27.4120   34.1450 C   0  0  0  0  0  0  0  0  0  0  0  0
   37.7890   27.4980   35.4640 C   0  0  0  0  0  0  0  0  0  0  0  0
   39.1090   27.2000   35.7240 N   0  0  0  0  0  0  0  0  0  0  0  0
   39.9680   26.8380   34.7690 C   0  0  0  0  0  0  0  0  0  0  0  0
   39.5500   26.7580   33.5000 N   0  0  0  0  0  0  0  0  0  0  0  0
   36.3250   27.6360   33.8620 H   0  0  0  0  0  0  0  0  0  0  0  0
   37.1120   27.7860   36.2470 H   0  0  0  0  0  0  0  0  0  0  0  0
   41.0000   26.6140   35.0410 H   0  0  0  0  0  0  0  0  0  0  0  0
  1 14  1  0  0  0  0
  2  1  2  0  0  0  0
  3  4  2  0  0  0  0
  3  2  1  0  0  0  0
  4  5  1  0  0  0  0
  5  1  1  0  0  0  0
  6  2  1  0  0  0  0
  7  3  1  0  0  0  0
  8 13  1  0  0  0  0
  8  4  1  0  0  0  0
  8  9  1  0  0  0  0
 10  9  1  0  0  0  0
 11 12  1  0  0  0  0
 11 10  1  0  0  0  0
 12 13  1  0  0  0  0
 14 16  1  0  0  0  0
 15 14  2  0  0  0  0
 16 21  2  0  0  0  0
 16 17  1  0  0  0  0
 17 18  2  0  0  0  0
 18 19  1  0  0  0  0
 18 23  1  0  0  0  0
 20 24  1  0  0  0  0
 20 19  2  0  0  0  0
 21 20  1  0  0  0  0
 22 17  1  0  0  0  0
M  END
>  <minimizedAffinity>
-5.26606274

$$$$

 OpenBabel03272507113D

 24 26  0  0  0  0  0  0  0  0999 V2000
   38.0570   25.3640   35.8920 C   0  0  0  0  0  0  0  0  0  0  0  0
   38.3800   26.5760   36.4150 C   0  0  0  0  0  0  0  0  0  0  0  0
   38.1610   27.5350   35.4260 C   0  0  0  0  0  0  0  0  0  0  0  0
   37.7000   26.8070   34.3250 C   0  0  0  0  0  0  0  0  0  0  0  0
   37.6570   25.5450   34.6480 O   0  0  0  0  0  0  0  0  0  0  0  0
   38.7510   26.9150   37.3870 H   0  0  0  0  0  0  0  0  0  0  0  0
   38.2690   28.6180   35.3600 H   0  0  0  0  0  0  0  0  0  0  0  0
   37.2840   27.1720   32.9670 C   0  0  0  0  0  3  0  0  0  0  0  0
   38.4740   27.4860   32.0710 C   0  0  0  0  0  2  0  0  0  0  0  0
   37.9360   27.5400   30.6570 C   0  0  0  0  0  2  0  0  0  0  0  0
   36.4750   27.8340   30.5720 C   0  0  0  0  0  2  0  0  0  0  0  0
   35.9750   28.8100   31.6150 C   0  0  0  0  0  2  0  0  0  0  0  0
   36.4550   28.4380   33.0020 C   0  0  0  0  0  2  0  0  0  0  0  0
   38.1660   24.1300   36.6540 C   0  0  0  0  0  0  0  0  0  0  0  0
   37.2470   23.8340   37.4490 O   0  0  0  0  0  0  0  0  0  0  0  0
   39.3510   23.3150   36.4380 C   0  0  0  0  0  0  0  0  0  0  0  0
   39.9090   22.7190   37.5630 C   0  0  0  0  0  0  0  0  0  0  0  0
   41.0420   21.9320   37.4020 C   0  0  0  0  0  0  0  0  0  0  0  0
   41.5430   21.7960   36.1260 N   0  0  0  0  0  0  0  0  0  0  0  0
   40.9840   22.3830   35.0660 C   0  0  0  0  0  0  0  0  0  0  0  0
   39.8910   23.1400   35.2280 N   0  0  0  0  0  0  0  0  0  0  0  0
   39.4530   22.8730   38.5510 H   0  0  0  0  0  0  0  0  0  0  0  0
   41.5060   21.4510   38.2430 H   0  0  0  0  0  0  0  0  0  0  0  0
   41.4290   22.2350   34.0820 H   0  0  0  0  0  0  0  0  0  0  0  0
  1  2  2  0  0  0  0
  1 14  1  0  0  0  0
  2  6  1  0  0  0  0
  3  2  1  0  0  0  0
  4  5  1  0  0  0  0
  4  3  2  0  0  0  0
  5  1  1  0  0  0  0
  7  3  1  0  0  0  0
  8 13  1  0  0  0  0
  8  4  1  0  0  0  0
  9  8  1  0  0  0  0
 10  9  1  0  0  0  0
 11 10  1  0  0  0  0
 11 12  1  0  0  0  0
 12 13  1  0  0  0  0
 14 15  2  0  0  0  0
 16 14  1  0  0  0  0
 16 17  1  0  0  0  0
 17 22  1  0  0  0  0
 18 17  2  0  0  0  0
 18 23  1  0  0  0  0
 19 18  1  0  0  0  0
 20 21  1  0  0  0  0
 20 19  2  0  0  0  0
 21 16  2  0  0  0  0
 24 20  1  0  0  0  0
M  END
>  <minimizedAffinity>
-5.21799183

$$$$

 OpenBabel03272507113D

 24 26  0  0  0  0  0  0  0  0999 V2000
   37.9370   24.1090   33.7000 C   0  0  0  0  0  0  0  0  0  0  0  0
   37.3190   24.7030   32.6460 C   0  0  0  0  0  0  0  0  0  0  0  0
   36.7230   23.6990   31.8840 C   0  0  0  0  0  0  0  0  0  0  0  0
   37.0350   22.5140   32.5570 C   0  0  0  0  0  0  0  0  0  0  0  0
   37.7440   22.8070   33.6110 O   0  0  0  0  0  0  0  0  0  0  0  0
   37.2080   25.7390   32.3080 H   0  0  0  0  0  0  0  0  0  0  0  0
   36.1310   23.6690   30.9690 H   0  0  0  0  0  0  0  0  0  0  0  0
   36.7340   21.0990   32.3170 C   0  0  0  0  0  3  0  0  0  0  0  0
   36.1430   20.8690   30.9330 C   0  0  0  0  0  2  0  0  0  0  0  0
   36.1720   19.3720   30.7050 C   0  0  0  0  0  2  0  0  0  0  0  0
   36.2040   18.5650   31.9600 C   0  0  0  0  0  2  0  0  0  0  0  0
   35.3900   19.1470   33.0940 C   0  0  0  0  0  2  0  0  0  0  0  0
   35.6830   20.6190   33.2940 C   0  0  0  0  0  2  0  0  0  0  0  0
   38.6640   24.8660   34.7070 C   0  0  0  0  0  0  0  0  0  0  0  0
   39.1210   25.9890   34.3990 O   0  0  0  0  0  0  0  0  0  0  0  0
   38.8130   24.2570   36.0190 C   0  0  0  0  0  0  0  0  0  0  0  0
   37.9030   24.6530   36.9940 C   0  0  0  0  0  0  0  0  0  0  0  0
   38.0080   24.0970   38.2620 C   0  0  0  0  0  0  0  0  0  0  0  0
   39.0180   23.1840   38.4720 N   0  0  0  0  0  0  0  0  0  0  0  0
   39.8760   22.8250   37.5140 C   0  0  0  0  0  0  0  0  0  0  0  0
   39.7690   23.3650   36.2940 N   0  0  0  0  0  0  0  0  0  0  0  0
   37.1230   25.3880   36.7520 H   0  0  0  0  0  0  0  0  0  0  0  0
   37.3260   24.3720   39.0450 H   0  0  0  0  0  0  0  0  0  0  0  0
   40.6530   22.0960   37.7450 H   0  0  0  0  0  0  0  0  0  0  0  0
  1 14  1  0  0  0  0
  2  1  2  0  0  0  0
  3  4  2  0  0  0  0
  3  2  1  0  0  0  0
  4  5  1  0  0  0  0
  5  1  1  0  0  0  0
  6  2  1  0  0  0  0
  7  3  1  0  0  0  0
  8  4  1  0  0  0  0
  8 13  1  0  0  0  0
  9  8  1  0  0  0  0
 10  9  1  0  0  0  0
 10 11  1  0  0  0  0
 11 12  1  0  0  0  0
 12 13  1  0  0  0  0
 14 16  1  0  0  0  0
 15 14  2  0  0  0  0
 16 21  2  0  0  0  0
 16 17  1  0  0  0  0
 17 18  2  0  0  0  0
 18 19  1  0  0  0  0
 18 23  1  0  0  0  0
 20 24  1  0  0  0  0
 20 19  2  0  0  0  0
 21 20  1  0  0  0  0
 22 17  1  0  0  0  0
M  END
>  <minimizedAffinity>
-5.20211792

$$$$

 OpenBabel03272507113D

 24 26  0  0  0  0  0  0  0  0999 V2000
   37.8580   26.7410   33.8640 C   0  0  0  0  0  0  0  0  0  0  0  0
   37.7440   27.6960   34.8240 C   0  0  0  0  0  0  0  0  0  0  0  0
   38.1610   27.1350   36.0310 C   0  0  0  0  0  0  0  0  0  0  0  0
   38.5150   25.8220   35.7050 C   0  0  0  0  0  0  0  0  0  0  0  0
   38.3200   25.6410   34.4300 O   0  0  0  0  0  0  0  0  0  0  0  0
   37.4120   28.7400   34.8290 H   0  0  0  0  0  0  0  0  0  0  0  0
   38.2520   27.4880   37.0580 H   0  0  0  0  0  0  0  0  0  0  0  0
   39.0290   24.6870   36.4790 C   0  0  0  0  0  3  0  0  0  0  0  0
   38.9910   23.3900   35.6820 C   0  0  0  0  0  2  0  0  0  0  0  0
   39.8170   22.3900   36.4640 C   0  0  0  0  0  2  0  0  0  0  0  0
   39.9380   22.7040   37.9180 C   0  0  0  0  0  2  0  0  0  0  0  0
   38.6930   23.3080   38.5300 C   0  0  0  0  0  2  0  0  0  0  0  0
   38.1540   24.4470   37.6900 C   0  0  0  0  0  2  0  0  0  0  0  0
   37.5060   26.9830   32.4740 C   0  0  0  0  0  0  0  0  0  0  0  0
   37.9350   28.0200   31.9200 O   0  0  0  0  0  0  0  0  0  0  0  0
   36.6700   25.9930   31.8160 C   0  0  0  0  0  0  0  0  0  0  0  0
   37.2220   24.7270   31.6480 C   0  0  0  0  0  0  0  0  0  0  0  0
   36.4580   23.7500   31.0230 C   0  0  0  0  0  0  0  0  0  0  0  0
   35.1940   24.1040   30.6060 N   0  0  0  0  0  0  0  0  0  0  0  0
   34.6930   25.3290   30.7820 C   0  0  0  0  0  0  0  0  0  0  0  0
   35.4350   26.2660   31.3850 N   0  0  0  0  0  0  0  0  0  0  0  0
   38.2390   24.5190   32.0070 H   0  0  0  0  0  0  0  0  0  0  0  0
   36.8440   22.7580   30.8730 H   0  0  0  0  0  0  0  0  0  0  0  0
   33.6840   25.5440   30.4300 H   0  0  0  0  0  0  0  0  0  0  0  0
  1  5  1  0  0  0  0
  1  2  2  0  0  0  0
  2  6  1  0  0  0  0
  2  3  1  0  0  0  0
  3  7  1  0  0  0  0
  4  3  2  0  0  0  0
  4  8  1  0  0  0  0
  5  4  1  0  0  0  0
  8 13  1  0  0  0  0
  9 10  1  0  0  0  0
  9  8  1  0  0  0  0
 10 11  1  0  0  0  0
 11 12  1  0  0  0  0
 13 12  1  0  0  0  0
 14  1  1  0  0  0  0
 15 14  2  0  0  0  0
 16 14  1  0  0  0  0
 17 16  1  0  0  0  0
 17 22  1  0  0  0  0
 18 17  2  0  0  0  0
 19 20  2  0  0  0  0
 19 18  1  0  0  0  0
 20 21  1  0  0  0  0
 21 16  2  0  0  0  0
 23 18  1  0  0  0  0
 24 20  1  0  0  0  0
M  END
>  <minimizedAffinity>
-5.11048985

$$$$

 OpenBabel03272507113D

 24 26  0  0  0  0  0  0  0  0999 V2000
   37.8980   25.7400   34.8020 C   0  0  0  0  0  0  0  0  0  0  0  0
   38.4500   26.5930   35.7040 C   0  0  0  0  0  0  0  0  0  0  0  0
   37.8510   27.8400   35.5280 C   0  0  0  0  0  0  0  0  0  0  0  0
   36.9370   27.6490   34.4880 C   0  0  0  0  0  0  0  0  0  0  0  0
   37.0020   26.4080   34.0980 O   0  0  0  0  0  0  0  0  0  0  0  0
   39.2160   26.4950   36.4800 H   0  0  0  0  0  0  0  0  0  0  0  0
   37.9510   28.8200   35.9960 H   0  0  0  0  0  0  0  0  0  0  0  0
   35.9840   28.5250   33.7990 C   0  0  0  0  0  3  0  0  0  0  0  0
   36.4690   28.9150   32.4090 C   0  0  0  0  0  2  0  0  0  0  0  0
   35.2830   29.5440   31.7090 C   0  0  0  0  0  2  0  0  0  0  0  0
   34.2520   30.0990   32.6350 C   0  0  0  0  0  2  0  0  0  0  0  0
   34.8180   30.7280   33.8900 C   0  0  0  0  0  2  0  0  0  0  0  0
   35.8330   29.8250   34.5580 C   0  0  0  0  0  2  0  0  0  0  0  0
   38.2920   24.3440   34.7040 C   0  0  0  0  0  0  0  0  0  0  0  0
   38.0040   23.7120   33.6620 O   0  0  0  0  0  0  0  0  0  0  0  0
   39.0010   23.7700   35.8360 C   0  0  0  0  0  0  0  0  0  0  0  0
   40.3300   23.4190   35.6230 C   0  0  0  0  0  0  0  0  0  0  0  0
   41.0450   22.8680   36.6780 C   0  0  0  0  0  0  0  0  0  0  0  0
   40.3830   22.7020   37.8740 N   0  0  0  0  0  0  0  0  0  0  0  0
   39.1060   23.0490   38.0460 C   0  0  0  0  0  0  0  0  0  0  0  0
   38.4220   23.5800   37.0250 N   0  0  0  0  0  0  0  0  0  0  0  0
   40.7910   23.5820   34.6390 H   0  0  0  0  0  0  0  0  0  0  0  0
   42.0740   22.5830   36.5590 H   0  0  0  0  0  0  0  0  0  0  0  0
   38.6400   22.8920   39.0190 H   0  0  0  0  0  0  0  0  0  0  0  0
  1  2  2  0  0  0  0
  2  6  1  0  0  0  0
  3  2  1  0  0  0  0
  3  7  1  0  0  0  0
  4  3  2  0  0  0  0
  5  4  1  0  0  0  0
  5  1  1  0  0  0  0
  8  4  1  0  0  0  0
  8 13  1  0  0  0  0
  9  8  1  0  0  0  0
 10  9  1  0  0  0  0
 10 11  1  0  0  0  0
 11 12  1  0  0  0  0
 12 13  1  0  0  0  0
 14  1  1  0  0  0  0
 14 16  1  0  0  0  0
 15 14  2  0  0  0  0
 16 21  1  0  0  0  0
 17 16  2  0  0  0  0
 17 18  1  0  0  0  0
 18 19  2  0  0  0  0
 19 20  1  0  0  0  0
 20 24  1  0  0  0  0
 21 20  2  0  0  0  0
 22 17  1  0  0  0  0
 23 18  1  0  0  0  0
M  END
>  <minimizedAffinity>
-5.02968168

$$$$

 OpenBabel03272507113D

 24 26  0  0  0  0  0  0  0  0999 V2000
   36.5760   25.8630   31.8020 C   0  0  0  0  0  0  0  0  0  0  0  0
   35.3880   26.1110   31.1900 C   0  0  0  0  0  0  0  0  0  0  0  0
   34.8420   24.8850   30.8130 C   0  0  0  0  0  0  0  0  0  0  0  0
   35.7770   23.9370   31.2400 C   0  0  0  0  0  0  0  0  0  0  0  0
   36.7700   24.5570   31.8120 O   0  0  0  0  0  0  0  0  0  0  0  0
   34.8230   27.0190   30.9550 H   0  0  0  0  0  0  0  0  0  0  0  0
   33.9310   24.5650   30.3060 H   0  0  0  0  0  0  0  0  0  0  0  0
   35.8450   22.4730   31.1710 C   0  0  0  0  0  3  0  0  0  0  0  0
   35.1760   21.8140   32.3690 C   0  0  0  0  0  2  0  0  0  0  0  0
   35.0450   20.3450   32.0240 C   0  0  0  0  0  2  0  0  0  0  0  0
   36.0170   19.8710   30.9950 C   0  0  0  0  0  2  0  0  0  0  0  0
   37.3840   20.5120   31.0900 C   0  0  0  0  0  2  0  0  0  0  0  0
   37.2870   22.0190   31.2080 C   0  0  0  0  0  2  0  0  0  0  0  0
   37.4210   26.9240   32.3270 C   0  0  0  0  0  0  0  0  0  0  0  0
   38.6470   26.7060   32.4500 O   0  0  0  0  0  0  0  0  0  0  0  0
   36.7760   28.1790   32.6760 C   0  0  0  0  0  0  0  0  0  0  0  0
   36.2910   28.2880   33.9750 C   0  0  0  0  0  0  0  0  0  0  0  0
   35.6670   29.4700   34.3510 C   0  0  0  0  0  0  0  0  0  0  0  0
   35.5690   30.4640   33.4030 N   0  0  0  0  0  0  0  0  0  0  0  0
   36.0450   30.3280   32.1630 C   0  0  0  0  0  0  0  0  0  0  0  0
   36.6460   29.1860   31.8070 N   0  0  0  0  0  0  0  0  0  0  0  0
   36.4060   27.4510   34.6770 H   0  0  0  0  0  0  0  0  0  0  0  0
   35.2780   29.5990   35.3440 H   0  0  0  0  0  0  0  0  0  0  0  0
   35.9360   31.1540   31.4600 H   0  0  0  0  0  0  0  0  0  0  0  0
  1  5  1  0  0  0  0
  1 14  1  0  0  0  0
  2  1  2  0  0  0  0
  3  2  1  0  0  0  0
  3  4  2  0  0  0  0
  4  5  1  0  0  0  0
  6  2  1  0  0  0  0
  7  3  1  0  0  0  0
  8 13  1  0  0  0  0
  8  4  1  0  0  0  0
  8  9  1  0  0  0  0
 10  9  1  0  0  0  0
 11 12  1  0  0  0  0
 11 10  1  0  0  0  0
 12 13  1  0  0  0  0
 14 15  2  0  0  0  0
 14 16  1  0  0  0  0
 16 17  1  0  0  0  0
 17 18  2  0  0  0  0
 17 22  1  0  0  0  0
 18 23  1  0  0  0  0
 19 18  1  0  0  0  0
 20 19  2  0  0  0  0
 21 20  1  0  0  0  0
 21 16  2  0  0  0  0
 24 20  1  0  0  0  0
M  END
>  <minimizedAffinity>
-5.01834679

$$$$

 OpenBabel03272507113D

 24 26  0  0  0  0  0  0  0  0999 V2000
   37.2890   25.9610   33.3200 C   0  0  0  0  0  0  0  0  0  0  0  0
   37.1740   27.0760   34.0890 C   0  0  0  0  0  0  0  0  0  0  0  0
   37.6920   26.7770   35.3480 C   0  0  0  0  0  0  0  0  0  0  0  0
   38.1050   25.4450   35.2520 C   0  0  0  0  0  0  0  0  0  0  0  0
   37.8480   25.0140   34.0500 O   0  0  0  0  0  0  0  0  0  0  0  0
   36.7810   28.0840   33.9200 H   0  0  0  0  0  0  0  0  0  0  0  0
   37.8210   27.3240   36.2820 H   0  0  0  0  0  0  0  0  0  0  0  0
   38.7300   24.5040   36.1890 C   0  0  0  0  0  3  0  0  0  0  0  0
   38.8770   23.1130   35.5870 C   0  0  0  0  0  2  0  0  0  0  0  0
   39.7940   22.3460   36.5170 C   0  0  0  0  0  2  0  0  0  0  0  0
   39.8300   22.8760   37.9120 C   0  0  0  0  0  2  0  0  0  0  0  0
   38.5010   23.3980   38.4130 C   0  0  0  0  0  2  0  0  0  0  0  0
   37.8530   24.3300   37.4100 C   0  0  0  0  0  2  0  0  0  0  0  0
   36.8440   25.9160   31.9360 C   0  0  0  0  0  0  0  0  0  0  0  0
   35.6520   26.1980   31.6820 O   0  0  0  0  0  0  0  0  0  0  0  0
   37.8260   25.5420   30.9320 C   0  0  0  0  0  0  0  0  0  0  0  0
   37.8690   24.1990   30.5750 C   0  0  0  0  0  0  0  0  0  0  0  0
   38.7930   23.7970   29.6190 C   0  0  0  0  0  0  0  0  0  0  0  0
   39.6140   24.7660   29.0850 N   0  0  0  0  0  0  0  0  0  0  0  0
   39.5470   26.0490   29.4500 C   0  0  0  0  0  0  0  0  0  0  0  0
   38.6540   26.4280   30.3720 N   0  0  0  0  0  0  0  0  0  0  0  0
   37.1820   23.4820   31.0450 H   0  0  0  0  0  0  0  0  0  0  0  0
   38.8610   22.7700   29.3120 H   0  0  0  0  0  0  0  0  0  0  0  0
   40.2260   26.7660   28.9880 H   0  0  0  0  0  0  0  0  0  0  0  0
  1  5  1  0  0  0  0
  1  2  2  0  0  0  0
  2  3  1  0  0  0  0
  3  7  1  0  0  0  0
  4  3  2  0  0  0  0
  4  8  1  0  0  0  0
  5  4  1  0  0  0  0
  6  2  1  0  0  0  0
  8 13  1  0  0  0  0
  9  8  1  0  0  0  0
  9 10  1  0  0  0  0
 10 11  1  0  0  0  0
 11 12  1  0  0  0  0
 13 12  1  0  0  0  0
 14  1  1  0  0  0  0
 15 14  2  0  0  0  0
 16 14  1  0  0  0  0
 17 16  1  0  0  0  0
 17 22  1  0  0  0  0
 18 17  2  0  0  0  0
 19 20  2  0  0  0  0
 19 18  1  0  0  0  0
 20 21  1  0  0  0  0
 21 16  2  0  0  0  0
 23 18  1  0  0  0  0
 24 20  1  0  0  0  0
M  END
>  <minimizedAffinity>
-5.01069736

$$$$

 OpenBabel03272507113D

 24 26  0  0  0  0  0  0  0  0999 V2000
   37.5350   25.2770   33.0780 C   0  0  0  0  0  0  0  0  0  0  0  0
   38.0240   26.5210   33.3220 C   0  0  0  0  0  0  0  0  0  0  0  0
   38.6050   26.5070   34.5900 C   0  0  0  0  0  0  0  0  0  0  0  0
   38.4200   25.1990   35.0470 C   0  0  0  0  0  0  0  0  0  0  0  0
   37.7910   24.5200   34.1290 O   0  0  0  0  0  0  0  0  0  0  0  0
   38.0460   27.4590   32.7570 H   0  0  0  0  0  0  0  0  0  0  0  0
   39.1150   27.2390   35.2160 H   0  0  0  0  0  0  0  0  0  0  0  0
   38.7780   24.4940   36.2830 C   0  0  0  0  0  3  0  0  0  0  0  0
   39.4930   23.1800   36.0040 C   0  0  0  0  0  2  0  0  0  0  0  0
   40.0670   22.7220   37.3290 C   0  0  0  0  0  2  0  0  0  0  0  0
   39.3680   23.2830   38.5220 C   0  0  0  0  0  2  0  0  0  0  0  0
   37.8720   23.4350   38.3520 C   0  0  0  0  0  2  0  0  0  0  0  0
   37.5260   24.1230   37.0480 C   0  0  0  0  0  2  0  0  0  0  0  0
   36.8580   24.9320   31.8380 C   0  0  0  0  0  0  0  0  0  0  0  0
   36.3190   25.8460   31.1760 O   0  0  0  0  0  0  0  0  0  0  0  0
   36.8540   23.5310   31.4490 C   0  0  0  0  0  0  0  0  0  0  0  0
   35.6360   22.8660   31.5340 C   0  0  0  0  0  0  0  0  0  0  0  0
   35.5870   21.5270   31.1720 C   0  0  0  0  0  0  0  0  0  0  0  0
   36.7600   20.9410   30.7500 N   0  0  0  0  0  0  0  0  0  0  0  0
   37.9140   21.6080   30.6790 C   0  0  0  0  0  0  0  0  0  0  0  0
   37.9540   22.8990   31.0300 N   0  0  0  0  0  0  0  0  0  0  0  0
   34.7400   23.4000   31.8810 H   0  0  0  0  0  0  0  0  0  0  0  0
   34.6670   20.9730   31.2210 H   0  0  0  0  0  0  0  0  0  0  0  0
   38.8080   21.0850   30.3360 H   0  0  0  0  0  0  0  0  0  0  0  0
  1  2  2  0  0  0  0
  1  5  1  0  0  0  0
  2  3  1  0  0  0  0
  3  4  2  0  0  0  0
  3  7  1  0  0  0  0
  4  8  1  0  0  0  0
  5  4  1  0  0  0  0
  6  2  1  0  0  0  0
  8 13  1  0  0  0  0
  9  8  1  0  0  0  0
  9 10  1  0  0  0  0
 10 11  1  0  0  0  0
 12 11  1  0  0  0  0
 13 12  1  0  0  0  0
 14  1  1  0  0  0  0
 15 14  2  0  0  0  0
 16 17  1  0  0  0  0
 16 14  1  0  0  0  0
 17 22  1  0  0  0  0
 18 23  1  0  0  0  0
 18 17  2  0  0  0  0
 19 18  1  0  0  0  0
 20 19  2  0  0  0  0
 20 21  1  0  0  0  0
 21 16  2  0  0  0  0
 24 20  1  0  0  0  0
M  END
>  <minimizedAffinity>
-4.9951458

$$$$
