
 OpenBabel03262523133D

 26 28  0  0  0  0  0  0  0  0999 V2000
   34.9930   29.1880   48.3820 C   0  0  0  0  0  0  0  0  0  0  0  0
   34.4900   28.0620   48.9630 C   0  0  0  0  0  0  0  0  0  0  0  0
   33.4340   27.4840   48.3100 C   0  0  0  0  0  0  0  0  0  0  0  0
   32.8980   27.9820   47.1480 C   0  0  0  0  0  0  0  0  0  0  0  0
   33.4730   29.1270   46.6310 C   0  0  0  0  0  0  0  0  0  0  0  0
   34.5120   29.7270   47.2410 N   0  0  0  0  0  0  0  0  0  0  0  0
   34.8610   27.6150   49.8760 H   0  0  0  0  0  0  0  0  0  0  0  0
   32.9390   26.5760   48.6720 H   0  0  0  0  0  0  0  0  0  0  0  0
   32.0780   27.5550   46.6170 H   0  0  0  0  0  0  0  0  0  0  0  0
   37.5920   30.1540   50.8050 C   0  0  0  0  0  0  0  0  0  0  0  0
   38.2480   31.2030   50.1310 C   0  0  0  0  0  0  0  0  0  0  0  0
   37.7960   31.5660   48.8580 C   0  0  0  0  0  0  0  0  0  0  0  0
   36.7480   30.8740   48.3670 N   0  0  0  0  0  0  0  0  0  0  0  0
   36.1220   29.8730   49.0090 C   0  0  0  0  0  0  0  0  0  0  0  0
   36.5610   29.5320   50.2270 N   0  0  0  0  0  0  0  0  0  0  0  0
   39.0690   31.6870   50.6080 H   0  0  0  0  0  0  0  0  0  0  0  0
   38.2700   32.3570   48.3170 H   0  0  0  0  0  0  0  0  0  0  0  0
   37.9830   29.7150   52.1020 N   0  0  0  0  0  0  0  0  0  0  0  0
   38.9680   29.3480   52.2380 H   0  0  0  0  0  0  0  0  0  0  0  0
   37.2950   29.7590   52.9090 H   0  0  0  0  0  0  0  0  0  0  0  0
   32.9810   29.7730   45.3650 C   0  0  0  0  0  0  0  0  0  0  0  0
   32.2420   31.0280   45.8390 C   0  0  0  0  0  0  0  0  0  0  0  0
   31.6400   31.7670   44.6650 C   0  0  0  0  0  0  0  0  0  0  0  0
   32.6610   32.0670   43.5990 C   0  0  0  0  0  0  0  0  0  0  0  0
   33.6250   30.9590   43.3350 C   0  0  0  0  0  0  0  0  0  0  0  0
   34.1580   30.2780   44.5620 C   0  0  0  0  0  0  0  0  0  0  0  0
  1  2  1  0  0  0  0
  1 14  1  0  0  0  0
  2  7  1  0  0  0  0
  3  8  1  0  0  0  0
  3  2  2  0  0  0  0
  4  3  1  0  0  0  0
  5  4  2  0  0  0  0
  5  6  1  0  0  0  0
  6  1  2  0  0  0  0
  9  4  1  0  0  0  0
 10 18  1  0  0  0  0
 11 16  1  0  0  0  0
 11 10  2  0  0  0  0
 12 11  1  0  0  0  0
 13 12  2  0  0  0  0
 13 14  1  0  0  0  0
 14 15  2  0  0  0  0
 15 10  1  0  0  0  0
 17 12  1  0  0  0  0
 18 19  1  0  0  0  0
 18 20  1  0  0  0  0
 21 22  1  0  0  0  0
 21  5  1  0  0  0  0
 23 22  1  0  0  0  0
 24 23  1  0  0  0  0
 25 24  1  0  0  0  0
 25 26  1  0  0  0  0
 26 21  1  0  0  0  0
M  END
>  <minimizedAffinity>
-5.46317482

>  <minimizedRMSD>
0.453463405

$$$$
