
 OpenBabel03272505133D

 36 39  0  0  0  0  0  0  0  0999 V2000
   36.4200   30.8980   45.7110 Cl  0  0  0  0  0  0  0  0  0  0  0  0
   36.7010   30.7910   47.4280 C   0  0  0  0  0  0  0  0  0  0  0  0
   37.9620   31.1330   47.8810 C   0  0  0  0  0  0  0  0  0  0  0  0
   38.1980   31.0500   49.2490 C   0  0  0  0  0  0  0  0  0  0  0  0
   37.1890   30.6420   50.0910 C   0  0  0  0  0  0  0  0  0  0  0  0
   35.9500   30.3160   49.5590 C   0  0  0  0  0  0  0  0  0  0  0  0
   35.6490   30.3740   48.2230 C   0  0  0  0  0  0  0  0  0  0  0  0
   39.1790   31.3140   49.6250 H   0  0  0  0  0  0  0  0  0  0  0  0
   37.3340   30.5660   51.1590 H   0  0  0  0  0  0  0  0  0  0  0  0
   35.1820   29.9970   50.2590 H   0  0  0  0  0  0  0  0  0  0  0  0
   40.2320   33.3250   46.0740 C   0  0  0  0  0  0  0  0  0  0  0  0
   40.9410   32.4720   45.2170 C   0  0  0  0  0  0  0  0  0  0  0  0
   40.6180   31.1040   45.2740 C   0  0  0  0  0  0  0  0  0  0  0  0
   39.6480   30.6950   46.1470 N   0  0  0  0  0  0  0  0  0  0  0  0
   39.0090   31.5660   46.9380 C   0  0  0  0  0  0  0  0  0  0  0  0
   39.2900   32.8690   46.9100 N   0  0  0  0  0  0  0  0  0  0  0  0
   40.5310   34.3610   45.9780 H   0  0  0  0  0  0  0  0  0  0  0  0
   41.7100   32.8450   44.5360 H   0  0  0  0  0  0  0  0  0  0  0  0
   41.1160   30.4000   44.6540 H   0  0  0  0  0  0  0  0  0  0  0  0
   34.0790   29.9630   47.5350 S   0  0  0  0  0  0  0  0  0  0  0  0
   33.8960   29.1410   44.5030 Cl  0  0  0  0  0  0  0  0  0  0  0  0
   33.8790   27.9370   45.7700 C   0  0  0  0  0  0  0  0  0  0  0  0
   33.9550   28.2190   47.1420 C   0  0  0  0  0  0  0  0  0  0  0  0
   33.9320   27.1890   48.0430 C   0  0  0  0  0  0  0  0  0  0  0  0
   33.8350   25.8870   47.6260 C   0  0  0  0  0  0  0  0  0  0  0  0
   33.7570   25.5680   46.2760 C   0  0  0  0  0  0  0  0  0  0  0  0
   33.7810   26.6000   45.3810 C   0  0  0  0  0  0  0  0  0  0  0  0
   33.9990   27.5300   49.0780 H   0  0  0  0  0  0  0  0  0  0  0  0
   33.8210   25.1210   48.3630 H   0  0  0  0  0  0  0  0  0  0  0  0
   33.6810   24.5230   46.0070 H   0  0  0  0  0  0  0  0  0  0  0  0
   33.6960   26.2590   43.9360 C   0  0  0  0  0  3  0  0  0  0  0  0
   32.6910   25.1860   43.6610 C   0  0  0  0  0  2  0  0  0  0  0  0
   32.5730   24.9630   42.1870 C   0  0  0  0  0  2  0  0  0  0  0  0
   33.5430   25.7980   41.3860 C   0  0  0  0  0  2  0  0  0  0  0  0
   34.9500   25.7210   41.8870 C   0  0  0  0  0  2  0  0  0  0  0  0
   35.0410   25.8410   43.3910 C   0  0  0  0  0  2  0  0  0  0  0  0
  1  2  1  0  0  0  0
  2  3  2  0  0  0  0
  2  7  1  0  0  0  0
  3  4  1  0  0  0  0
  4  8  1  0  0  0  0
  4  5  2  0  0  0  0
  5  9  1  0  0  0  0
  6  5  1  0  0  0  0
  6 10  1  0  0  0  0
  7  6  2  0  0  0  0
 11 16  1  0  0  0  0
 12 13  1  0  0  0  0
 12 11  2  0  0  0  0
 13 14  2  0  0  0  0
 14 15  1  0  0  0  0
 15  3  1  0  0  0  0
 16 15  2  0  0  0  0
 17 11  1  0  0  0  0
 18 12  1  0  0  0  0
 19 13  1  0  0  0  0
 20  7  1  0  0  0  0
 21 22  1  0  0  0  0
 22 23  1  0  0  0  0
 23 20  1  0  0  0  0
 23 24  2  0  0  0  0
 24 28  1  0  0  0  0
 25 24  1  0  0  0  0
 25 29  1  0  0  0  0
 26 25  2  0  0  0  0
 27 22  2  0  0  0  0
 27 26  1  0  0  0  0
 30 26  1  0  0  0  0
 31 27  1  0  0  0  0
 32 31  1  0  0  0  0
 33 32  1  0  0  0  0
 34 35  1  0  0  0  0
 34 33  1  0  0  0  0
 35 36  1  0  0  0  0
 36 31  1  0  0  0  0
M  END
>  <minimizedAffinity>
-5.71077681

>  <minimizedRMSD>
0.476007551

$$$$
