
     RDKit          3D

 43 45  0  0  0  0  0  0  0  0999 V2000
   33.2817   27.2751   48.0016 C   0  0  0  0  0  0  0  0  0  0  0  0
   33.7068   26.2103   47.0447 C   0  0  0  0  0  0  0  0  0  0  0  0
   33.9249   24.8976   47.3762 C   0  0  0  0  0  0  0  0  0  0  0  0
   34.3166   23.9873   46.4170 C   0  0  0  0  0  0  0  0  0  0  0  0
   34.5005   24.3864   45.0786 C   0  0  0  0  0  0  0  0  0  0  0  0
   34.2846   25.6927   44.7428 C   0  0  0  0  0  0  0  0  0  0  0  0
   33.8913   26.5916   45.7223 C   0  0  0  0  0  0  0  0  0  0  0  0
   34.6789   28.3967   49.7446 C   0  0  0  0  0  0  0  0  0  0  0  0
   34.4186   28.0691   48.5064 C   0  0  0  0  0  0  0  0  0  0  0  0
   37.3699   30.2271   51.4195 C   0  0  0  0  0  0  0  0  0  0  0  0
   38.1200   30.6955   50.3221 C   0  0  0  0  0  0  0  0  0  0  0  0
   37.6750   30.3646   49.0256 C   0  0  0  0  0  0  0  0  0  0  0  0
   36.5522   29.6156   48.9138 N   0  0  0  0  0  0  0  0  0  0  0  0
   35.8587   29.1841   49.9862 C   0  0  0  0  0  0  0  0  0  0  0  0
   36.2853   29.5014   51.2276 N   0  0  0  0  0  0  0  0  0  0  0  0
   32.6011   27.9678   47.4451 H   0  0  0  0  0  0  0  0  0  0  0  0
   32.6848   26.8000   48.8087 H   0  0  0  0  0  0  0  0  0  0  0  0
   33.7707   24.6367   48.4196 H   0  0  0  0  0  0  0  0  0  0  0  0
   34.4705   22.9794   46.7387 H   0  0  0  0  0  0  0  0  0  0  0  0
   34.8052   23.5902   44.4266 H   0  0  0  0  0  0  0  0  0  0  0  0
   34.4317   25.9774   43.7093 H   0  0  0  0  0  0  0  0  0  0  0  0
   33.7361   27.6195   45.3857 H   0  0  0  0  0  0  0  0  0  0  0  0
   34.0697   28.1168   50.5953 H   0  0  0  0  0  0  0  0  0  0  0  0
   35.0225   28.3447   47.6486 H   0  0  0  0  0  0  0  0  0  0  0  0
   37.7366   30.4973   52.3971 H   0  0  0  0  0  0  0  0  0  0  0  0
   39.0043   31.2841   50.3716 H   0  0  0  0  0  0  0  0  0  0  0  0
   38.3443   30.7749   47.7636 C   0  0  0  0  0  0  0  0  0  0  0  0
   37.8258   30.0046   46.5726 C   0  0  0  0  0  0  0  0  0  0  0  0
   38.5005   30.6401   45.3524 C   0  0  0  0  0  0  0  0  0  0  0  0
   37.9284   32.0074   45.0698 C   0  0  0  0  0  0  0  0  0  0  0  0
   37.1861   32.4624   46.2961 C   0  0  0  0  0  0  0  0  0  0  0  0
   38.1237   32.2554   47.4785 C   0  0  0  0  0  0  0  0  0  0  0  0
   39.4253   30.6420   47.7927 H   0  0  0  0  0  0  0  0  0  0  0  0
   36.7418   29.9635   46.4816 H   0  0  0  0  0  0  0  0  0  0  0  0
   38.2549   28.9691   46.6281 H   0  0  0  0  0  0  0  0  0  0  0  0
   38.2895   29.9901   44.4858 H   0  0  0  0  0  0  0  0  0  0  0  0
   39.5733   30.7425   45.5940 H   0  0  0  0  0  0  0  0  0  0  0  0
   37.2773   32.0329   44.1948 H   0  0  0  0  0  0  0  0  0  0  0  0
   38.7474   32.7661   44.9134 H   0  0  0  0  0  0  0  0  0  0  0  0
   36.9616   33.5468   46.2703 H   0  0  0  0  0  0  0  0  0  0  0  0
   36.2411   31.9411   46.4908 H   0  0  0  0  0  0  0  0  0  0  0  0
   39.0593   32.8204   47.3412 H   0  0  0  0  0  0  0  0  0  0  0  0
   37.6075   32.6779   48.3637 H   0  0  0  0  0  0  0  0  0  0  0  0
  1  9  1  0
  2  3  2  0
  2  1  1  0
  4  3  1  0
  5  4  2  0
  6  5  1  0
  6  7  2  0
  7  2  1  0
  8 14  1  0
  9  8  2  0
 11 10  2  0
 12 11  1  0
 13 12  2  0
 13 14  1  0
 14 15  2  0
 15 10  1  0
  1 16  1  0
  1 17  1  0
  3 18  1  0
  4 19  1  0
  5 20  1  0
  6 21  1  0
  7 22  1  0
  8 23  1  0
  9 24  1  0
 10 25  1  0
 11 26  1  0
 27 28  1  0
 28 29  1  0
 29 30  1  0
 30 31  1  0
 31 32  1  0
 32 27  1  0
 27 33  1  0
 28 34  1  0
 28 35  1  0
 29 36  1  0
 29 37  1  0
 30 38  1  0
 30 39  1  0
 31 40  1  0
 31 41  1  0
 32 42  1  0
 32 43  1  0
 12 27  1  0
M  ISO  8  16   8  17   8  18  14  19  14  20  14  21  14  22  14  25  14
M  ISO  1  26  14
M  END
>  <DihAtoms>  (1) 
10,11,26,27

>  <DihDeg>  (1) 
121.47074931757105

$$$$
