
     RDKit          3D

 43 46  0  0  0  0  0  0  0  0999 V2000
   38.9122   30.8911   45.7643 C   0  0  0  0  0  0  0  0  0  0  0  0
   40.1109   31.5260   46.0291 C   0  0  0  0  0  0  0  0  0  0  0  0
   40.9562   31.4711   44.9141 C   0  0  0  0  0  0  0  0  0  0  0  0
   40.2204   30.7974   44.0164 N   0  0  0  0  0  0  0  0  0  0  0  0
   39.0300   30.4573   44.5058 N   0  0  0  0  0  0  0  0  0  0  0  0
   37.7941   30.7485   46.6777 C   0  0  0  0  0  0  0  0  0  0  0  0
   38.0102   30.9708   48.0532 C   0  0  0  0  0  0  0  0  0  0  0  0
   36.9256   30.8306   48.9133 C   0  0  0  0  0  0  0  0  0  0  0  0
   35.7164   30.4863   48.3757 N   0  0  0  0  0  0  0  0  0  0  0  0
   35.5319   30.2775   47.0499 C   0  0  0  0  0  0  0  0  0  0  0  0
   36.5807   30.4122   46.2117 N   0  0  0  0  0  0  0  0  0  0  0  0
   37.1223   31.0582   50.3665 C   0  0  0  0  0  0  0  0  0  0  0  0
   36.5956   32.2991   50.6278 F   0  0  0  0  0  0  0  0  0  0  0  0
   36.4632   30.1139   51.1543 F   0  0  0  0  0  0  0  0  0  0  0  0
   38.4734   31.0821   50.7049 F   0  0  0  0  0  0  0  0  0  0  0  0
   40.5701   30.4245   42.6398 C   0  0  0  0  0  0  0  0  0  0  0  0
   40.1867   31.2103   41.5408 C   0  0  0  0  0  0  0  0  0  0  0  0
   40.5207   30.8302   40.3025 C   0  0  0  0  0  0  0  0  0  0  0  0
   41.2664   29.6260   40.1138 C   0  0  0  0  0  0  0  0  0  0  0  0
   41.4740   29.0398   41.8727 S   0  0  0  0  0  0  0  0  0  0  0  0
   40.4029   32.0164   46.9630 H   0  0  0  0  0  0  0  0  0  0  0  0
   41.9451   31.8470   44.7493 H   0  0  0  0  0  0  0  0  0  0  0  0
   38.9779   31.2419   48.4481 H   0  0  0  0  0  0  0  0  0  0  0  0
   34.5496   30.0079   46.6941 H   0  0  0  0  0  0  0  0  0  0  0  0
   39.6172   32.1344   41.6613 H   0  0  0  0  0  0  0  0  0  0  0  0
   40.3097   31.3088   39.3585 H   0  0  0  0  0  0  0  0  0  0  0  0
   41.7833   28.9267   39.0054 C   0  0  0  0  0  0  0  0  0  0  0  0
   40.7309   28.8502   37.9488 C   0  0  0  0  0  0  0  0  0  0  0  0
   41.0338   29.8062   36.7931 C   0  0  0  0  0  0  0  0  0  0  0  0
   42.2905   29.2403   36.1224 C   0  0  0  0  0  0  0  0  0  0  0  0
   43.4235   29.1475   37.1171 C   0  0  0  0  0  0  0  0  0  0  0  0
   43.0243   29.6201   38.4893 C   0  0  0  0  0  0  0  0  0  0  0  0
   42.0698   27.8946   39.2935 H   0  0  0  0  0  0  0  0  0  0  0  0
   39.7044   29.0070   38.3348 H   0  0  0  0  0  0  0  0  0  0  0  0
   40.7274   27.8423   37.4845 H   0  0  0  0  0  0  0  0  0  0  0  0
   41.2431   30.8202   37.1345 H   0  0  0  0  0  0  0  0  0  0  0  0
   40.2396   29.7265   36.0398 H   0  0  0  0  0  0  0  0  0  0  0  0
   42.0377   28.1996   35.8311 H   0  0  0  0  0  0  0  0  0  0  0  0
   42.5618   29.7745   35.2089 H   0  0  0  0  0  0  0  0  0  0  0  0
   43.8709   28.1425   37.1921 H   0  0  0  0  0  0  0  0  0  0  0  0
   44.2203   29.8322   36.7547 H   0  0  0  0  0  0  0  0  0  0  0  0
   43.8549   29.3714   39.1819 H   0  0  0  0  0  0  0  0  0  0  0  0
   42.9151   30.7233   38.5032 H   0  0  0  0  0  0  0  0  0  0  0  0
  1  2  1  0
  1  6  1  0
  3  2  2  0
  4  5  1  0
  4  3  1  0
  5  1  2  0
  6  7  2  0
  7  8  1  0
  8 12  1  0
  9  8  2  0
 10  9  1  0
 11  6  1  0
 11 10  2  0
 12 13  1  0
 12 15  1  0
 12 14  1  0
 16  4  1  0
 17 16  2  0
 18 17  1  0
 19 18  2  0
 19 20  1  0
 20 16  1  0
  2 21  1  0
  3 22  1  0
  7 23  1  0
 10 24  1  0
 17 25  1  0
 18 26  1  0
 27 28  1  0
 28 29  1  0
 29 30  1  0
 30 31  1  0
 31 32  1  0
 32 27  1  0
 27 33  1  0
 28 34  1  0
 28 35  1  0
 29 36  1  0
 29 37  1  0
 30 38  1  0
 30 39  1  0
 31 40  1  0
 31 41  1  0
 32 42  1  0
 32 43  1  0
 19 27  1  0
M  ISO  6  21  14  22  14  23  14  24  14  25  14  26  14
M  END
>  <DihAtoms>  (1) 
17,18,26,27

>  <DihDeg>  (1) 
-60.797298162519944

$$$$
