
 OpenBabel03272508123D

 31 33  0  0  0  0  0  0  0  0999 V2000
   36.6440   29.4540   44.0230 Cl  0  0  0  0  0  0  0  0  0  0  0  0
   38.3040   29.8320   43.4970 C   0  0  0  0  0  0  0  0  0  0  0  0
   39.3030   30.3070   44.3500 C   0  0  0  0  0  0  0  0  0  0  0  0
   40.5390   30.5540   43.7980 C   0  0  0  0  0  0  0  0  0  0  0  0
   40.7830   30.3420   42.4630 C   0  0  0  0  0  0  0  0  0  0  0  0
   39.8130   29.8770   41.6130 C   0  0  0  0  0  0  0  0  0  0  0  0
   38.5820   29.6250   42.1340 C   0  0  0  0  0  0  0  0  0  0  0  0
   41.2630   30.9190   44.5160 H   0  0  0  0  0  0  0  0  0  0  0  0
   41.7730   30.5540   42.0810 H   0  0  0  0  0  0  0  0  0  0  0  0
   40.0150   29.7130   40.5550 H   0  0  0  0  0  0  0  0  0  0  0  0
   37.5050   29.1160   41.2230 C   0  0  0  0  0  3  0  0  0  0  0  0
   37.8460   27.6510   40.9960 C   0  0  0  0  0  2  0  0  0  0  0  0
   36.8870   27.0840   40.0000 C   0  0  0  0  0  2  0  0  0  0  0  0
   35.7040   27.9860   39.7470 C   0  0  0  0  0  2  0  0  0  0  0  0
   36.1300   29.3570   39.2650 C   0  0  0  0  0  2  0  0  0  0  0  0
   37.4170   29.8290   39.9220 C   0  0  0  0  0  2  0  0  0  0  0  0
   38.8680   30.4510   45.6370 O   0  0  0  0  0  0  0  0  0  0  0  0
   39.4440   32.5050   47.0980 O   0  0  0  0  0  0  0  0  0  0  0  0
   38.2970   31.8360   46.4110 P   0  0  1  0  0  0  0  0  0  0  0  0
   37.7120   32.8450   45.1680 O   0  0  0  0  0  0  0  0  0  0  0  0
   37.4780   32.3510   44.3510 H   0  0  0  0  0  0  0  0  0  0  0  0
   37.0220   31.4160   47.4430 O   0  0  0  0  0  0  0  0  0  0  0  0
   37.6170   30.5270   50.9850 C   0  0  0  0  0  0  0  0  0  0  0  0
   37.7030   31.2950   49.8220 C   0  0  0  0  0  0  0  0  0  0  0  0
   37.0720   30.8450   48.6650 C   0  0  0  0  0  0  0  0  0  0  0  0
   36.3930   29.6520   48.7400 N   0  0  0  0  0  0  0  0  0  0  0  0
   36.3340   28.9400   49.8820 C   0  0  0  0  0  0  0  0  0  0  0  0
   36.9440   29.3800   50.9940 N   0  0  0  0  0  0  0  0  0  0  0  0
   38.1390   30.9520   51.8460 H   0  0  0  0  0  0  0  0  0  0  0  0
   38.2100   32.2320   49.6810 H   0  0  0  0  0  0  0  0  0  0  0  0
   35.7810   27.9890   49.9050 H   0  0  0  0  0  0  0  0  0  0  0  0
  2  1  1  0  0  0  0
  2  3  1  0  0  0  0
  3 17  1  0  0  0  0
  4  3  2  0  0  0  0
  4  8  1  0  0  0  0
  5  4  1  0  0  0  0
  6  7  1  0  0  0  0
  6  5  2  0  0  0  0
  7  2  2  0  0  0  0
  9  5  1  0  0  0  0
 10  6  1  0  0  0  0
 11  7  1  0  0  0  0
 12 11  1  0  0  0  0
 13 12  1  0  0  0  0
 14 13  1  0  0  0  0
 15 14  1  0  0  0  0
 15 16  1  0  0  0  0
 16 11  1  0  0  0  0
 17 19  1  0  0  0  0
 19 18  2  1  0  0  0
 19 22  1  0  0  0  0
 20 19  1  0  0  0  0
 21 20  1  0  0  0  0
 22 25  1  0  0  0  0
 23 28  1  0  0  0  0
 23 29  1  0  0  0  0
 24 23  2  0  0  0  0
 25 26  2  0  0  0  0
 25 24  1  0  0  0  0
 26 27  1  0  0  0  0
 27 31  1  0  0  0  0
 27 28  2  0  0  0  0
 30 24  1  0  0  0  0
M  END
>  <minimizedAffinity>
-4.82647705

>  <minimizedRMSD>
0.817275405

$$$$
