
 OpenBabel03272508303D

 29 31  0  0  1  0  0  0  0  0999 V2000
   38.0870   31.1550   47.4710 N   0  0  0  0  0  0  0  0  0  0  0  0
   38.7070   32.0000   48.4890 C   0  0  0  0  0  0  0  0  0  0  0  0
   38.4870   31.4970   49.8660 C   0  0  0  0  0  0  0  0  0  0  0  0
   38.1580   30.1080   49.8680 N   0  0  0  0  0  0  0  0  0  0  0  0
   36.8420   29.9900   49.2210 C   0  0  0  0  0  0  0  0  0  0  0  0
   37.1140   30.1320   47.7560 C   0  0  1  0  0  0  0  0  0  0  0  0
   39.8000   31.9790   48.2920 H   0  0  0  0  0  0  0  0  0  0  0  0
   38.3840   33.0630   48.3420 H   0  0  0  0  0  0  0  0  0  0  0  0
   39.3950   31.6370   50.4830 H   0  0  0  0  0  0  0  0  0  0  0  0
   37.6740   32.0350   50.3860 H   0  0  0  0  0  0  0  0  0  0  0  0
   38.8640   29.4970   49.3980 H   0  0  0  0  0  0  0  0  0  0  0  0
   36.4950   28.9550   49.4590 H   0  0  0  0  0  0  0  0  0  0  0  0
   36.2150   30.7780   49.6440 H   0  0  0  0  0  0  0  0  0  0  0  0
   37.5410   29.1590   47.4190 H   0  0  0  0  0  0  0  0  0  0  0  0
   39.2240   30.4030   45.3990 C   0  0  0  0  0  0  0  0  0  0  0  0
   38.4590   31.3430   46.1000 C   0  0  0  0  0  0  0  0  0  0  0  0
   38.0660   32.4840   45.4100 C   0  0  0  0  0  0  0  0  0  0  0  0
   38.4520   32.6170   44.0890 N   0  0  0  0  0  0  0  0  0  0  0  0
   39.1830   31.6820   43.4750 C   0  0  0  0  0  0  0  0  0  0  0  0
   39.5850   30.5550   44.1170 N   0  0  0  0  0  0  0  0  0  0  0  0
   39.5450   29.4910   45.9270 H   0  0  0  0  0  0  0  0  0  0  0  0
   37.4710   33.2580   45.8860 H   0  0  0  0  0  0  0  0  0  0  0  0
   39.4950   31.7650   42.4440 H   0  0  0  0  0  0  0  0  0  0  0  0
   35.8240   30.3640   46.9900 C   0  0  2  0  0  0  0  0  0  0  0  0
   34.6250   30.2360   47.8730 C   0  0  0  0  0  0  0  0  0  0  0  0
   33.4350   30.5740   46.9670 C   0  0  0  0  0  0  0  0  0  0  0  0
   33.2490   29.3680   46.0930 C   0  0  0  0  0  0  0  0  0  0  0  0
   34.5090   28.7780   45.5520 C   0  0  0  0  0  0  0  0  0  0  0  0
   35.7480   29.5690   45.7340 C   0  0  0  0  0  0  0  0  0  0  0  0
  1  6  1  0  0  0  0
  1  2  1  0  0  0  0
  2  3  1  0  0  0  0
  3  4  1  0  0  0  0
  3 10  1  0  0  0  0
  3  9  1  0  0  0  0
  5 12  1  0  0  0  0
  5 13  1  0  0  0  0
  5  4  1  0  0  0  0
  6 14  1  6  0  0  0
  6  5  1  0  0  0  0
  7  2  1  0  0  0  0
  8  2  1  0  0  0  0
 11  4  1  0  0  0  0
 15 21  1  0  0  0  0
 15 16  1  0  0  0  0
 16  1  1  0  0  0  0
 17 22  1  0  0  0  0
 17 16  2  0  0  0  0
 18 17  1  0  0  0  0
 19 18  2  0  0  0  0
 19 20  1  0  0  0  0
 20 15  2  0  0  0  0
 23 19  1  0  0  0  0
 24 29  1  6  0  0  0
 24  6  1  0  0  0  0
 24 25  1  0  0  0  0
 26 25  1  0  0  0  0
 27 26  1  0  0  0  0
 28 29  1  0  0  0  0
 28 27  2  0  0  0  0
M  END
>  <minimizedAffinity>
-4.52986956

>  <minimizedRMSD>
5.82222939

$$$$
