
 OpenBabel03272506493D

 39 42  0  0  1  0  0  0  0  0999 V2000
   37.1640   25.0490   30.8530 C   0  0  2  0  0  0  0  0  0  0  0  0
   37.3340   23.5880   31.1470 C   0  0  1  0  0  0  0  0  0  0  0  0
   38.2080   23.4660   32.1850 O   0  0  0  0  0  0  0  0  0  0  0  0
   38.3880   24.7100   32.7790 C   0  0  0  0  0  0  0  0  0  0  0  0
   37.2710   25.6040   32.3090 C   0  0  1  0  0  0  0  0  0  0  0  0
   37.9460   25.5130   30.2620 H   0  0  0  0  0  0  0  0  0  0  0  0
   37.6490   23.0660   30.2200 H   0  0  0  0  0  0  0  0  0  0  0  0
   39.3940   25.0350   32.5690 H   0  0  0  0  0  0  0  0  0  0  0  0
   38.2860   24.5600   33.8890 H   0  0  0  0  0  0  0  0  0  0  0  0
   36.3110   25.4020   32.7740 H   0  0  0  0  0  0  0  0  0  0  0  0
   35.8690   25.3100   30.3590 O   0  0  0  0  0  0  0  0  0  0  0  0
   35.2460   25.2440   31.1180 H   0  0  0  0  0  0  0  0  0  0  0  0
   35.7030   22.9390   31.6940 S   0  0  0  0  0  0  0  0  0  0  0  0
   35.4110   19.2000   32.9730 C   0  0  0  0  0  0  0  0  0  0  0  0
   35.9130   18.4230   31.9270 C   0  0  0  0  0  0  0  0  0  0  0  0
   36.3580   19.0780   30.7810 C   0  0  0  0  0  0  0  0  0  0  0  0
   36.2860   20.4390   30.7340 N   0  0  0  0  0  0  0  0  0  0  0  0
   35.7930   21.1540   31.7680 C   0  0  0  0  0  0  0  0  0  0  0  0
   35.3500   20.5470   32.8990 N   0  0  0  0  0  0  0  0  0  0  0  0
   35.0820   18.6520   33.8270 H   0  0  0  0  0  0  0  0  0  0  0  0
   35.9510   17.3360   32.0110 H   0  0  0  0  0  0  0  0  0  0  0  0
   36.7500   18.4980   29.9610 H   0  0  0  0  0  0  0  0  0  0  0  0
   37.7090   26.9060   32.3090 O   0  0  0  0  0  0  0  0  0  0  0  0
   36.8680   27.8410   34.9720 Cl  0  0  0  0  0  0  0  0  0  0  0  0
   36.4820   28.5170   33.4080 C   0  0  0  0  0  0  0  0  0  0  0  0
   36.9490   27.9930   32.2240 C   0  0  0  0  0  0  0  0  0  0  0  0
   36.5930   28.6370   31.0370 C   0  0  0  0  0  0  0  0  0  0  0  0
   35.7990   29.7640   31.0600 C   0  0  0  0  0  0  0  0  0  0  0  0
   35.3260   30.2980   32.2440 C   0  0  0  0  0  0  0  0  0  0  0  0
   35.6800   29.6550   33.4160 C   0  0  0  0  0  0  0  0  0  0  0  0
   36.9170   28.2980   30.0680 H   0  0  0  0  0  0  0  0  0  0  0  0
   35.5010   30.2930   30.1660 H   0  0  0  0  0  0  0  0  0  0  0  0
   34.7030   31.1820   32.2480 H   0  0  0  0  0  0  0  0  0  0  0  0
   35.1740   30.2250   34.6930 C   0  0  0  0  0  3  0  0  0  0  0  0
   33.6760   30.3240   34.7420 C   0  0  0  0  0  2  0  0  0  0  0  0
   33.2230   31.4970   35.6130 C   0  0  0  0  0  2  0  0  0  0  0  0
   34.1060   31.6810   36.8150 C   0  0  0  0  0  2  0  0  0  0  0  0
   35.4870   32.0680   36.3300 C   0  0  0  0  0  2  0  0  0  0  0  0
   35.7240   31.6130   34.9130 C   0  0  0  0  0  2  0  0  0  0  0  0
  1  6  1  6  0  0  0
  1  2  1  0  0  0  0
  1  5  1  0  0  0  0
  2  7  1  6  0  0  0
  2 13  1  0  0  0  0
  2  3  1  0  0  0  0
  3  4  1  0  0  0  0
  4  9  1  0  0  0  0
  5 10  1  1  0  0  0
  5  4  1  0  0  0  0
  8  4  1  0  0  0  0
 11  1  1  0  0  0  0
 11 12  1  0  0  0  0
 13 18  1  0  0  0  0
 14 20  1  0  0  0  0
 15 21  1  0  0  0  0
 15 14  2  0  0  0  0
 16 15  1  0  0  0  0
 17 16  2  0  0  0  0
 17 18  1  0  0  0  0
 18 19  2  0  0  0  0
 19 14  1  0  0  0  0
 22 16  1  0  0  0  0
 23  5  1  0  0  0  0
 25 30  1  0  0  0  0
 25 24  1  0  0  0  0
 26 23  1  0  0  0  0
 26 25  2  0  0  0  0
 27 28  2  0  0  0  0
 27 26  1  0  0  0  0
 28 29  1  0  0  0  0
 29 33  1  0  0  0  0
 29 30  2  0  0  0  0
 30 34  1  0  0  0  0
 31 27  1  0  0  0  0
 32 28  1  0  0  0  0
 34 35  1  0  0  0  0
 34 39  1  0  0  0  0
 35 36  1  0  0  0  0
 36 37  1  0  0  0  0
 38 37  1  0  0  0  0
 39 38  1  0  0  0  0
M  END
>  <minimizedAffinity>
-6.15509224

$$$$

 OpenBabel03272506493D

 39 42  0  0  1  0  0  0  0  0999 V2000
   38.5990   24.3270   32.4410 C   0  0  2  0  0  0  0  0  0  0  0  0
   39.2400   23.1970   33.1910 C   0  0  1  0  0  0  0  0  0  0  0  0
   40.2340   23.7150   33.9660 O   0  0  0  0  0  0  0  0  0  0  0  0
   40.1020   25.0990   34.0120 C   0  0  0  0  0  0  0  0  0  0  0  0
   38.7160   25.4390   33.5310 C   0  0  1  0  0  0  0  0  0  0  0  0
   39.1220   24.6730   31.5560 H   0  0  0  0  0  0  0  0  0  0  0  0
   39.5790   22.4270   32.4670 H   0  0  0  0  0  0  0  0  0  0  0  0
   40.9270   25.5290   33.4690 H   0  0  0  0  0  0  0  0  0  0  0  0
   40.1910   25.3980   35.0930 H   0  0  0  0  0  0  0  0  0  0  0  0
   37.9290   25.2330   34.2500 H   0  0  0  0  0  0  0  0  0  0  0  0
   37.2340   24.0590   32.2070 O   0  0  0  0  0  0  0  0  0  0  0  0
   36.7620   24.1700   33.0630 H   0  0  0  0  0  0  0  0  0  0  0  0
   37.9660   22.4760   34.3030 S   0  0  0  0  0  0  0  0  0  0  0  0
   37.8760   23.9100   37.9960 C   0  0  0  0  0  0  0  0  0  0  0  0
   39.0480   23.4390   38.5930 C   0  0  0  0  0  0  0  0  0  0  0  0
   39.8980   22.6480   37.8250 C   0  0  0  0  0  0  0  0  0  0  0  0
   39.5520   22.3710   36.5350 N   0  0  0  0  0  0  0  0  0  0  0  0
   38.4090   22.8460   35.9960 C   0  0  0  0  0  0  0  0  0  0  0  0
   37.5560   23.6200   36.7160 N   0  0  0  0  0  0  0  0  0  0  0  0
   37.2580   24.5110   38.6240 H   0  0  0  0  0  0  0  0  0  0  0  0
   39.2820   23.6870   39.6280 H   0  0  0  0  0  0  0  0  0  0  0  0
   40.8100   22.2730   38.2650 H   0  0  0  0  0  0  0  0  0  0  0  0
   38.7340   26.6890   32.9600 O   0  0  0  0  0  0  0  0  0  0  0  0
   37.6060   27.9850   35.3510 Cl  0  0  0  0  0  0  0  0  0  0  0  0
   37.0520   28.0790   33.6970 C   0  0  0  0  0  0  0  0  0  0  0  0
   37.6750   27.4310   32.6550 C   0  0  0  0  0  0  0  0  0  0  0  0
   37.1540   27.6030   31.3710 C   0  0  0  0  0  0  0  0  0  0  0  0
   36.0490   28.4010   31.1630 C   0  0  0  0  0  0  0  0  0  0  0  0
   35.4160   29.0560   32.2030 C   0  0  0  0  0  0  0  0  0  0  0  0
   35.9360   28.8810   33.4720 C   0  0  0  0  0  0  0  0  0  0  0  0
   37.5820   27.1380   30.4990 H   0  0  0  0  0  0  0  0  0  0  0  0
   35.6140   28.5620   30.1860 H   0  0  0  0  0  0  0  0  0  0  0  0
   34.5490   29.6780   32.0250 H   0  0  0  0  0  0  0  0  0  0  0  0
   35.2590   29.5820   34.5960 C   0  0  0  0  0  3  0  0  0  0  0  0
   33.7640   29.6130   34.4550 C   0  0  0  0  0  2  0  0  0  0  0  0
   33.1690   30.8640   35.1060 C   0  0  0  0  0  2  0  0  0  0  0  0
   33.8920   31.2420   36.3680 C   0  0  0  0  0  2  0  0  0  0  0  0
   35.3090   31.6300   36.0010 C   0  0  0  0  0  2  0  0  0  0  0  0
   35.7320   31.0120   34.6940 C   0  0  0  0  0  2  0  0  0  0  0  0
  1  6  1  6  0  0  0
  1  2  1  0  0  0  0
  1  5  1  0  0  0  0
  2  7  1  6  0  0  0
  2  3  1  0  0  0  0
  2 13  1  0  0  0  0
  3  4  1  0  0  0  0
  4  9  1  0  0  0  0
  5  4  1  0  0  0  0
  5 10  1  1  0  0  0
  8  4  1  0  0  0  0
 11  1  1  0  0  0  0
 11 12  1  0  0  0  0
 13 18  1  0  0  0  0
 14 15  1  0  0  0  0
 14 20  1  0  0  0  0
 15 21  1  0  0  0  0
 16 22  1  0  0  0  0
 16 15  2  0  0  0  0
 17 16  1  0  0  0  0
 18 17  2  0  0  0  0
 18 19  1  0  0  0  0
 19 14  2  0  0  0  0
 23  5  1  0  0  0  0
 25 24  1  0  0  0  0
 26 23  1  0  0  0  0
 26 25  2  0  0  0  0
 27 26  1  0  0  0  0
 28 27  2  0  0  0  0
 28 29  1  0  0  0  0
 29 30  2  0  0  0  0
 30 25  1  0  0  0  0
 30 34  1  0  0  0  0
 31 27  1  0  0  0  0
 32 28  1  0  0  0  0
 33 29  1  0  0  0  0
 34 39  1  0  0  0  0
 35 34  1  0  0  0  0
 35 36  1  0  0  0  0
 36 37  1  0  0  0  0
 38 37  1  0  0  0  0
 39 38  1  0  0  0  0
M  END
>  <minimizedAffinity>
-6.01633549

$$$$

 OpenBabel03272506493D

 39 42  0  0  1  0  0  0  0  0999 V2000
   36.0080   29.3750   33.3510 C   0  0  2  0  0  0  0  0  0  0  0  0
   35.0300   30.1460   32.5140 C   0  0  1  0  0  0  0  0  0  0  0  0
   35.3050   29.8930   31.2040 O   0  0  0  0  0  0  0  0  0  0  0  0
   36.1710   28.8070   31.1210 C   0  0  0  0  0  0  0  0  0  0  0  0
   36.1480   28.1050   32.4530 C   0  0  1  0  0  0  0  0  0  0  0  0
   36.9930   29.8130   33.4630 H   0  0  0  0  0  0  0  0  0  0  0  0
   35.0820   31.2190   32.7930 H   0  0  0  0  0  0  0  0  0  0  0  0
   37.1250   29.1690   30.7760 H   0  0  0  0  0  0  0  0  0  0  0  0
   35.7490   28.1130   30.3420 H   0  0  0  0  0  0  0  0  0  0  0  0
   35.2540   27.5160   32.6330 H   0  0  0  0  0  0  0  0  0  0  0  0
   35.4250   29.0020   34.5810 O   0  0  0  0  0  0  0  0  0  0  0  0
   34.7900   28.2750   34.3960 H   0  0  0  0  0  0  0  0  0  0  0  0
   33.3510   29.4950   32.8820 S   0  0  0  0  0  0  0  0  0  0  0  0
   31.8870   29.4490   36.5630 C   0  0  0  0  0  0  0  0  0  0  0  0
   32.1710   30.7150   37.0790 C   0  0  0  0  0  0  0  0  0  0  0  0
   32.8420   31.6180   36.2580 C   0  0  0  0  0  0  0  0  0  0  0  0
   33.1870   31.2290   34.9970 N   0  0  0  0  0  0  0  0  0  0  0  0
   32.8930   29.9940   34.5370 C   0  0  0  0  0  0  0  0  0  0  0  0
   32.2410   29.0880   35.3110 N   0  0  0  0  0  0  0  0  0  0  0  0
   31.3730   28.7930   37.2300 H   0  0  0  0  0  0  0  0  0  0  0  0
   31.8750   30.9800   38.0940 H   0  0  0  0  0  0  0  0  0  0  0  0
   33.0720   32.6030   36.6350 H   0  0  0  0  0  0  0  0  0  0  0  0
   37.3590   27.4890   32.6560 O   0  0  0  0  0  0  0  0  0  0  0  0
   38.2210   27.2560   35.4610 Cl  0  0  0  0  0  0  0  0  0  0  0  0
   37.9680   25.9840   34.2900 C   0  0  0  0  0  0  0  0  0  0  0  0
   37.5490   26.2200   33.0000 C   0  0  0  0  0  0  0  0  0  0  0  0
   37.3570   25.1190   32.1620 C   0  0  0  0  0  0  0  0  0  0  0  0
   37.5820   23.8390   32.6230 C   0  0  0  0  0  0  0  0  0  0  0  0
   38.0030   23.5930   33.9160 C   0  0  0  0  0  0  0  0  0  0  0  0
   38.1930   24.6860   34.7410 C   0  0  0  0  0  0  0  0  0  0  0  0
   37.0270   25.2120   31.1420 H   0  0  0  0  0  0  0  0  0  0  0  0
   37.4450   22.9600   32.0090 H   0  0  0  0  0  0  0  0  0  0  0  0
   38.1760   22.5830   34.2640 H   0  0  0  0  0  0  0  0  0  0  0  0
   38.6460   24.4270   36.1330 C   0  0  0  0  0  3  0  0  0  0  0  0
   39.8480   23.5290   36.2050 C   0  0  0  0  0  2  0  0  0  0  0  0
   39.8510   22.7050   37.4940 C   0  0  0  0  0  2  0  0  0  0  0  0
   39.3300   23.4890   38.6660 C   0  0  0  0  0  2  0  0  0  0  0  0
   37.8720   23.8050   38.4100 C   0  0  0  0  0  2  0  0  0  0  0  0
   37.5480   23.7770   36.9390 C   0  0  0  0  0  2  0  0  0  0  0  0
  1  6  1  1  0  0  0
  1 11  1  0  0  0  0
  2  7  1  1  0  0  0
  2 13  1  0  0  0  0
  2  1  1  0  0  0  0
  3  2  1  0  0  0  0
  4  3  1  0  0  0  0
  4  5  1  0  0  0  0
  5 10  1  1  0  0  0
  5 23  1  0  0  0  0
  5  1  1  0  0  0  0
  8  4  1  0  0  0  0
  9  4  1  0  0  0  0
 12 11  1  0  0  0  0
 13 18  1  0  0  0  0
 14 15  1  0  0  0  0
 14 20  1  0  0  0  0
 15 21  1  0  0  0  0
 16 22  1  0  0  0  0
 16 15  2  0  0  0  0
 17 16  1  0  0  0  0
 18 17  2  0  0  0  0
 18 19  1  0  0  0  0
 19 14  2  0  0  0  0
 23 26  1  0  0  0  0
 25 30  1  0  0  0  0
 25 24  1  0  0  0  0
 26 25  2  0  0  0  0
 27 28  2  0  0  0  0
 27 26  1  0  0  0  0
 28 29  1  0  0  0  0
 29 33  1  0  0  0  0
 29 30  2  0  0  0  0
 30 34  1  0  0  0  0
 31 27  1  0  0  0  0
 32 28  1  0  0  0  0
 34 35  1  0  0  0  0
 34 39  1  0  0  0  0
 35 36  1  0  0  0  0
 36 37  1  0  0  0  0
 38 37  1  0  0  0  0
 39 38  1  0  0  0  0
M  END
>  <minimizedAffinity>
-6.00323391

$$$$

 OpenBabel03272506493D

 39 42  0  0  1  0  0  0  0  0999 V2000
   37.0370   28.2010   33.1560 C   0  0  2  0  0  0  0  0  0  0  0  0
   36.1310   29.2250   32.5390 C   0  0  1  0  0  0  0  0  0  0  0  0
   35.9830   28.9170   31.2200 O   0  0  0  0  0  0  0  0  0  0  0  0
   36.4640   27.6310   30.9950 C   0  0  0  0  0  0  0  0  0  0  0  0
   36.5870   26.9520   32.3330 C   0  0  1  0  0  0  0  0  0  0  0  0
   38.1000   28.3410   32.9940 H   0  0  0  0  0  0  0  0  0  0  0  0
   36.5460   30.2370   32.7280 H   0  0  0  0  0  0  0  0  0  0  0  0
   37.3610   27.7120   30.4040 H   0  0  0  0  0  0  0  0  0  0  0  0
   35.6840   27.0930   30.3890 H   0  0  0  0  0  0  0  0  0  0  0  0
   35.6420   26.6390   32.7650 H   0  0  0  0  0  0  0  0  0  0  0  0
   36.7070   27.9970   34.5120 O   0  0  0  0  0  0  0  0  0  0  0  0
   35.8700   27.4810   34.5360 H   0  0  0  0  0  0  0  0  0  0  0  0
   34.4880   29.0730   33.3490 S   0  0  0  0  0  0  0  0  0  0  0  0
   35.5570   31.6740   36.1400 C   0  0  0  0  0  0  0  0  0  0  0  0
   34.3910   31.9160   36.8710 C   0  0  0  0  0  0  0  0  0  0  0  0
   33.2300   31.2510   36.4860 C   0  0  0  0  0  0  0  0  0  0  0  0
   33.2830   30.3990   35.4230 N   0  0  0  0  0  0  0  0  0  0  0  0
   34.4310   30.1930   34.7420 C   0  0  0  0  0  0  0  0  0  0  0  0
   35.5810   30.8250   35.0900 N   0  0  0  0  0  0  0  0  0  0  0  0
   36.4190   32.2070   36.4740 H   0  0  0  0  0  0  0  0  0  0  0  0
   34.3980   32.6070   37.7150 H   0  0  0  0  0  0  0  0  0  0  0  0
   32.3170   31.4220   37.0360 H   0  0  0  0  0  0  0  0  0  0  0  0
   37.5910   26.0160   32.2700 O   0  0  0  0  0  0  0  0  0  0  0  0
   37.8510   23.5210   33.8120 Cl  0  0  0  0  0  0  0  0  0  0  0  0
   38.9320   24.8930   33.7690 C   0  0  0  0  0  0  0  0  0  0  0  0
   38.7060   26.0070   32.9930 C   0  0  0  0  0  0  0  0  0  0  0  0
   39.6570   27.0300   33.0220 C   0  0  0  0  0  0  0  0  0  0  0  0
   40.7850   26.9180   33.8070 C   0  0  0  0  0  0  0  0  0  0  0  0
   41.0200   25.8030   34.5900 C   0  0  0  0  0  0  0  0  0  0  0  0
   40.0750   24.7940   34.5580 C   0  0  0  0  0  0  0  0  0  0  0  0
   39.5620   27.9320   32.4430 H   0  0  0  0  0  0  0  0  0  0  0  0
   41.5450   27.6840   33.8590 H   0  0  0  0  0  0  0  0  0  0  0  0
   41.9090   25.7290   35.2020 H   0  0  0  0  0  0  0  0  0  0  0  0
   40.3230   23.5920   35.3990 C   0  0  0  0  0  3  0  0  0  0  0  0
   39.4850   23.5620   36.6450 C   0  0  0  0  0  2  0  0  0  0  0  0
   40.2040   22.8320   37.7810 C   0  0  0  0  0  2  0  0  0  0  0  0
   40.9950   21.6550   37.2850 C   0  0  0  0  0  2  0  0  0  0  0  0
   42.1030   22.1750   36.3940 C   0  0  0  0  0  2  0  0  0  0  0  0
   41.7690   23.5290   35.8260 C   0  0  0  0  0  2  0  0  0  0  0  0
  1  6  1  6  0  0  0
  1 11  1  0  0  0  0
  2  7  1  1  0  0  0
  2  1  1  0  0  0  0
  2 13  1  0  0  0  0
  3  2  1  0  0  0  0
  4  3  1  0  0  0  0
  4  5  1  0  0  0  0
  5 10  1  1  0  0  0
  5  1  1  0  0  0  0
  8  4  1  0  0  0  0
  9  4  1  0  0  0  0
 11 12  1  0  0  0  0
 13 18  1  0  0  0  0
 14 20  1  0  0  0  0
 14 15  1  0  0  0  0
 15 21  1  0  0  0  0
 16 15  2  0  0  0  0
 16 22  1  0  0  0  0
 17 16  1  0  0  0  0
 18 19  1  0  0  0  0
 18 17  2  0  0  0  0
 19 14  2  0  0  0  0
 23  5  1  0  0  0  0
 23 26  1  0  0  0  0
 25 24  1  0  0  0  0
 25 30  1  0  0  0  0
 26 27  1  0  0  0  0
 26 25  2  0  0  0  0
 27 28  2  0  0  0  0
 28 32  1  0  0  0  0
 28 29  1  0  0  0  0
 29 33  1  0  0  0  0
 30 29  2  0  0  0  0
 30 34  1  0  0  0  0
 31 27  1  0  0  0  0
 34 39  1  0  0  0  0
 34 35  1  0  0  0  0
 35 36  1  0  0  0  0
 37 36  1  0  0  0  0
 38 37  1  0  0  0  0
 39 38  1  0  0  0  0
M  END
>  <minimizedAffinity>
-5.78213549

$$$$

 OpenBabel03272506493D

 39 42  0  0  1  0  0  0  0  0999 V2000
   38.3480   24.7530   33.1400 C   0  0  2  0  0  0  0  0  0  0  0  0
   39.8020   24.4370   32.9520 C   0  0  1  0  0  0  0  0  0  0  0  0
   40.2370   25.0980   31.8430 O   0  0  0  0  0  0  0  0  0  0  0  0
   39.2830   26.0400   31.4700 C   0  0  0  0  0  0  0  0  0  0  0  0
   38.3530   26.2320   32.6380 C   0  0  1  0  0  0  0  0  0  0  0  0
   37.6520   24.1940   32.5230 H   0  0  0  0  0  0  0  0  0  0  0  0
   39.9320   23.3360   32.9070 H   0  0  0  0  0  0  0  0  0  0  0  0
   38.8420   25.7150   30.5420 H   0  0  0  0  0  0  0  0  0  0  0  0
   39.8330   27.0040   31.2860 H   0  0  0  0  0  0  0  0  0  0  0  0
   38.7700   26.8180   33.4510 H   0  0  0  0  0  0  0  0  0  0  0  0
   38.0080   24.7360   34.5090 O   0  0  0  0  0  0  0  0  0  0  0  0
   38.3840   25.5490   34.9150 H   0  0  0  0  0  0  0  0  0  0  0  0
   40.7070   25.1040   34.4060 S   0  0  0  0  0  0  0  0  0  0  0  0
   40.2620   22.3180   37.1880 C   0  0  0  0  0  0  0  0  0  0  0  0
   41.5130   21.7050   37.2860 C   0  0  0  0  0  0  0  0  0  0  0  0
   42.5340   22.1690   36.4600 C   0  0  0  0  0  0  0  0  0  0  0  0
   42.2680   23.1940   35.6000 N   0  0  0  0  0  0  0  0  0  0  0  0
   41.0430   23.7600   35.5370 C   0  0  0  0  0  0  0  0  0  0  0  0
   40.0260   23.3320   36.3280 N   0  0  0  0  0  0  0  0  0  0  0  0
   39.5140   21.9270   37.8410 H   0  0  0  0  0  0  0  0  0  0  0  0
   41.6770   20.8880   37.9890 H   0  0  0  0  0  0  0  0  0  0  0  0
   43.5090   21.7110   36.5180 H   0  0  0  0  0  0  0  0  0  0  0  0
   37.1150   26.5970   32.1700 O   0  0  0  0  0  0  0  0  0  0  0  0
   36.5760   27.6640   34.8610 Cl  0  0  0  0  0  0  0  0  0  0  0  0
   36.3220   28.4340   33.3130 C   0  0  0  0  0  0  0  0  0  0  0  0
   36.6270   27.8320   32.1130 C   0  0  0  0  0  0  0  0  0  0  0  0
   36.4040   28.5580   30.9410 C   0  0  0  0  0  0  0  0  0  0  0  0
   35.8940   29.8380   30.9940 C   0  0  0  0  0  0  0  0  0  0  0  0
   35.5860   30.4510   32.1950 C   0  0  0  0  0  0  0  0  0  0  0  0
   35.8080   29.7270   33.3520 C   0  0  0  0  0  0  0  0  0  0  0  0
   36.6180   28.1660   29.9610 H   0  0  0  0  0  0  0  0  0  0  0  0
   35.7070   30.4350   30.1130 H   0  0  0  0  0  0  0  0  0  0  0  0
   35.1860   31.4560   32.2210 H   0  0  0  0  0  0  0  0  0  0  0  0
   35.4770   30.3810   34.6460 C   0  0  0  0  0  3  0  0  0  0  0  0
   34.0180   30.2990   34.9920 C   0  0  0  0  0  2  0  0  0  0  0  0
   33.5740   31.5040   35.8230 C   0  0  0  0  0  2  0  0  0  0  0  0
   34.6340   31.9400   36.7950 C   0  0  0  0  0  2  0  0  0  0  0  0
   35.8260   32.4330   36.0020 C   0  0  0  0  0  2  0  0  0  0  0  0
   35.8520   31.8420   34.6160 C   0  0  0  0  0  2  0  0  0  0  0  0
  1  6  1  6  0  0  0
  1 11  1  0  0  0  0
  2  7  1  6  0  0  0
  2  1  1  0  0  0  0
  2 13  1  0  0  0  0
  3  2  1  0  0  0  0
  4  3  1  0  0  0  0
  4  5  1  0  0  0  0
  5  1  1  0  0  0  0
  5 10  1  1  0  0  0
  8  4  1  0  0  0  0
  9  4  1  0  0  0  0
 11 12  1  0  0  0  0
 13 18  1  0  0  0  0
 14 15  1  0  0  0  0
 14 20  1  0  0  0  0
 15 21  1  0  0  0  0
 16 22  1  0  0  0  0
 16 15  2  0  0  0  0
 17 16  1  0  0  0  0
 18 17  2  0  0  0  0
 18 19  1  0  0  0  0
 19 14  2  0  0  0  0
 23  5  1  0  0  0  0
 25 30  1  0  0  0  0
 25 24  1  0  0  0  0
 26 23  1  0  0  0  0
 26 25  2  0  0  0  0
 27 28  2  0  0  0  0
 27 26  1  0  0  0  0
 28 29  1  0  0  0  0
 29 33  1  0  0  0  0
 29 30  2  0  0  0  0
 30 34  1  0  0  0  0
 31 27  1  0  0  0  0
 32 28  1  0  0  0  0
 34 35  1  0  0  0  0
 35 36  1  0  0  0  0
 36 37  1  0  0  0  0
 38 37  1  0  0  0  0
 39 34  1  0  0  0  0
 39 38  1  0  0  0  0
M  END
>  <minimizedAffinity>
-5.76258039

$$$$

 OpenBabel03272506493D

 39 42  0  0  1  0  0  0  0  0999 V2000
   37.0140   28.2320   33.0570 C   0  0  2  0  0  0  0  0  0  0  0  0
   36.0680   29.2620   32.5130 C   0  0  1  0  0  0  0  0  0  0  0  0
   35.8080   28.9490   31.2120 O   0  0  0  0  0  0  0  0  0  0  0  0
   36.2570   27.6580   30.9550 C   0  0  0  0  0  0  0  0  0  0  0  0
   36.4870   26.9830   32.2810 C   0  0  1  0  0  0  0  0  0  0  0  0
   38.0610   28.3620   32.8060 H   0  0  0  0  0  0  0  0  0  0  0  0
   36.5070   30.2700   32.6610 H   0  0  0  0  0  0  0  0  0  0  0  0
   37.1020   27.7280   30.2900 H   0  0  0  0  0  0  0  0  0  0  0  0
   35.4240   27.1240   30.4190 H   0  0  0  0  0  0  0  0  0  0  0  0
   35.5780   26.6800   32.7920 H   0  0  0  0  0  0  0  0  0  0  0  0
   36.7970   28.0370   34.4370 O   0  0  0  0  0  0  0  0  0  0  0  0
   35.9610   27.5280   34.5340 H   0  0  0  0  0  0  0  0  0  0  0  0
   34.4980   29.1280   33.4590 S   0  0  0  0  0  0  0  0  0  0  0  0
   35.7830   31.7810   36.1050 C   0  0  0  0  0  0  0  0  0  0  0  0
   34.6600   32.0930   36.8760 C   0  0  0  0  0  0  0  0  0  0  0  0
   33.4590   31.4590   36.5660 C   0  0  0  0  0  0  0  0  0  0  0  0
   33.4340   30.5690   35.5320 N   0  0  0  0  0  0  0  0  0  0  0  0
   34.5440   30.2970   34.8120 C   0  0  0  0  0  0  0  0  0  0  0  0
   35.7300   30.8970   35.0870 N   0  0  0  0  0  0  0  0  0  0  0  0
   36.6770   32.2930   36.3820 H   0  0  0  0  0  0  0  0  0  0  0  0
   34.7290   32.8120   37.6930 H   0  0  0  0  0  0  0  0  0  0  0  0
   32.5790   31.6830   37.1470 H   0  0  0  0  0  0  0  0  0  0  0  0
   37.4730   26.0390   32.1390 O   0  0  0  0  0  0  0  0  0  0  0  0
   36.2540   23.7320   30.7740 Cl  0  0  0  0  0  0  0  0  0  0  0  0
   37.0640   23.7790   32.3210 C   0  0  0  0  0  0  0  0  0  0  0  0
   37.6080   24.9260   32.8530 C   0  0  0  0  0  0  0  0  0  0  0  0
   38.2550   24.8330   34.0880 C   0  0  0  0  0  0  0  0  0  0  0  0
   38.3410   23.6250   34.7460 C   0  0  0  0  0  0  0  0  0  0  0  0
   37.7980   22.4680   34.2200 C   0  0  0  0  0  0  0  0  0  0  0  0
   37.1580   22.5650   32.9980 C   0  0  0  0  0  0  0  0  0  0  0  0
   38.7110   25.6790   34.5730 H   0  0  0  0  0  0  0  0  0  0  0  0
   38.8320   23.5090   35.7020 H   0  0  0  0  0  0  0  0  0  0  0  0
   37.8730   21.5260   34.7480 H   0  0  0  0  0  0  0  0  0  0  0  0
   36.5720   21.3230   32.4270 C   0  0  0  0  0  3  0  0  0  0  0  0
   35.5180   20.7110   33.3060 C   0  0  0  0  0  2  0  0  0  0  0  0
   35.4700   19.1910   33.1410 C   0  0  0  0  0  2  0  0  0  0  0  0
   35.7120   18.7700   31.7180 C   0  0  0  0  0  2  0  0  0  0  0  0
   37.1270   19.1570   31.3470 C   0  0  0  0  0  2  0  0  0  0  0  0
   37.6400   20.2800   32.2100 C   0  0  0  0  0  2  0  0  0  0  0  0
  1  6  1  6  0  0  0
  1 11  1  0  0  0  0
  2  7  1  1  0  0  0
  2  1  1  0  0  0  0
  2 13  1  0  0  0  0
  3  2  1  0  0  0  0
  4  3  1  0  0  0  0
  4  5  1  0  0  0  0
  5 10  1  1  0  0  0
  5  1  1  0  0  0  0
  8  4  1  0  0  0  0
  9  4  1  0  0  0  0
 11 12  1  0  0  0  0
 13 18  1  0  0  0  0
 14 20  1  0  0  0  0
 14 15  1  0  0  0  0
 15 21  1  0  0  0  0
 16 15  2  0  0  0  0
 16 22  1  0  0  0  0
 17 16  1  0  0  0  0
 18 19  1  0  0  0  0
 18 17  2  0  0  0  0
 19 14  2  0  0  0  0
 23  5  1  0  0  0  0
 23 26  1  0  0  0  0
 24 25  1  0  0  0  0
 25 26  2  0  0  0  0
 25 30  1  0  0  0  0
 26 27  1  0  0  0  0
 27 31  1  0  0  0  0
 27 28  2  0  0  0  0
 28 32  1  0  0  0  0
 29 28  1  0  0  0  0
 29 33  1  0  0  0  0
 30 29  2  0  0  0  0
 34 30  1  0  0  0  0
 34 35  1  0  0  0  0
 36 35  1  0  0  0  0
 37 36  1  0  0  0  0
 38 37  1  0  0  0  0
 38 39  1  0  0  0  0
 39 34  1  0  0  0  0
M  END
>  <minimizedAffinity>
-5.67616987

$$$$

 OpenBabel03272506493D

 39 42  0  0  1  0  0  0  0  0999 V2000
   36.8750   24.5690   32.4960 C   0  0  2  0  0  0  0  0  0  0  0  0
   35.8390   23.6660   31.8940 C   0  0  1  0  0  0  0  0  0  0  0  0
   35.0600   24.4140   31.0630 O   0  0  0  0  0  0  0  0  0  0  0  0
   35.6750   25.6410   30.8440 C   0  0  0  0  0  0  0  0  0  0  0  0
   37.1120   25.5140   31.2760 C   0  0  1  0  0  0  0  0  0  0  0  0
   36.5510   25.1800   33.3320 H   0  0  0  0  0  0  0  0  0  0  0  0
   35.2820   23.1590   32.7090 H   0  0  0  0  0  0  0  0  0  0  0  0
   35.0840   26.3990   31.3300 H   0  0  0  0  0  0  0  0  0  0  0  0
   35.6490   25.8250   29.7340 H   0  0  0  0  0  0  0  0  0  0  0  0
   37.7380   24.9560   30.5870 H   0  0  0  0  0  0  0  0  0  0  0  0
   38.0640   23.8560   32.7590 O   0  0  0  0  0  0  0  0  0  0  0  0
   38.5040   23.6900   31.8960 H   0  0  0  0  0  0  0  0  0  0  0  0
   36.7190   22.4110   30.8790 S   0  0  0  0  0  0  0  0  0  0  0  0
   35.4510   19.4830   33.2270 C   0  0  0  0  0  0  0  0  0  0  0  0
   35.6850   18.3130   32.5010 C   0  0  0  0  0  0  0  0  0  0  0  0
   36.2560   18.4330   31.2370 C   0  0  0  0  0  0  0  0  0  0  0  0
   36.5600   19.6780   30.7690 N   0  0  0  0  0  0  0  0  0  0  0  0
   36.3160   20.7850   31.5030 C   0  0  0  0  0  0  0  0  0  0  0  0
   35.7610   20.7040   32.7400 N   0  0  0  0  0  0  0  0  0  0  0  0
   35.0120   19.3390   34.1890 H   0  0  0  0  0  0  0  0  0  0  0  0
   35.4250   17.3400   32.9180 H   0  0  0  0  0  0  0  0  0  0  0  0
   36.4470   17.5430   30.6570 H   0  0  0  0  0  0  0  0  0  0  0  0
   37.5670   26.7430   31.6860 O   0  0  0  0  0  0  0  0  0  0  0  0
   35.5980   28.9330   31.7070 Cl  0  0  0  0  0  0  0  0  0  0  0  0
   36.5500   28.3110   33.0330 C   0  0  0  0  0  0  0  0  0  0  0  0
   37.4370   27.2670   32.9010 C   0  0  0  0  0  0  0  0  0  0  0  0
   38.1220   26.8400   34.0400 C   0  0  0  0  0  0  0  0  0  0  0  0
   37.9110   27.4530   35.2570 C   0  0  0  0  0  0  0  0  0  0  0  0
   37.0220   28.5030   35.4000 C   0  0  0  0  0  0  0  0  0  0  0  0
   36.3470   28.9210   34.2680 C   0  0  0  0  0  0  0  0  0  0  0  0
   38.8290   26.0290   34.0270 H   0  0  0  0  0  0  0  0  0  0  0  0
   38.4190   27.1550   36.1630 H   0  0  0  0  0  0  0  0  0  0  0  0
   36.8660   28.9750   36.3610 H   0  0  0  0  0  0  0  0  0  0  0  0
   35.3900   30.0510   34.4160 C   0  0  0  0  0  3  0  0  0  0  0  0
   35.7970   31.0330   35.4770 C   0  0  0  0  0  2  0  0  0  0  0  0
   34.5770   31.6950   36.1200 C   0  0  0  0  0  2  0  0  0  0  0  0
   33.4860   31.9580   35.1200 C   0  0  0  0  0  2  0  0  0  0  0  0
   32.9810   30.6240   34.6130 C   0  0  0  0  0  2  0  0  0  0  0  0
   34.0160   29.5410   34.7770 C   0  0  0  0  0  2  0  0  0  0  0  0
  1 11  1  0  0  0  0
  1  6  1  1  0  0  0
  2  1  1  0  0  0  0
  2  7  1  1  0  0  0
  3  2  1  0  0  0  0
  4  3  1  0  0  0  0
  4  5  1  0  0  0  0
  4  8  1  0  0  0  0
  5 10  1  6  0  0  0
  5 23  1  0  0  0  0
  5  1  1  0  0  0  0
  9  4  1  0  0  0  0
 12 11  1  0  0  0  0
 13 18  1  0  0  0  0
 13  2  1  0  0  0  0
 14 20  1  0  0  0  0
 15 21  1  0  0  0  0
 15 14  2  0  0  0  0
 16 15  1  0  0  0  0
 17 16  2  0  0  0  0
 17 18  1  0  0  0  0
 18 19  2  0  0  0  0
 19 14  1  0  0  0  0
 22 16  1  0  0  0  0
 23 26  1  0  0  0  0
 24 25  1  0  0  0  0
 25 30  1  0  0  0  0
 26 25  2  0  0  0  0
 26 27  1  0  0  0  0
 27 28  2  0  0  0  0
 28 29  1  0  0  0  0
 28 32  1  0  0  0  0
 29 33  1  0  0  0  0
 30 34  1  0  0  0  0
 30 29  2  0  0  0  0
 31 27  1  0  0  0  0
 34 39  1  0  0  0  0
 34 35  1  0  0  0  0
 35 36  1  0  0  0  0
 37 36  1  0  0  0  0
 38 39  1  0  0  0  0
 38 37  1  0  0  0  0
M  END
>  <minimizedAffinity>
-5.55195999

$$$$

 OpenBabel03272506493D

 39 42  0  0  1  0  0  0  0  0999 V2000
   36.2860   27.0740   31.4240 C   0  0  2  0  0  0  0  0  0  0  0  0
   35.7540   28.2170   32.2370 C   0  0  1  0  0  0  0  0  0  0  0  0
   36.4490   28.2600   33.4080 O   0  0  0  0  0  0  0  0  0  0  0  0
   37.5710   27.4460   33.3030 C   0  0  0  0  0  0  0  0  0  0  0  0
   37.7890   27.1580   31.8410 C   0  0  1  0  0  0  0  0  0  0  0  0
   35.9220   26.0870   31.6880 H   0  0  0  0  0  0  0  0  0  0  0  0
   34.6580   28.0950   32.3610 H   0  0  0  0  0  0  0  0  0  0  0  0
   37.4270   26.5980   33.9520 H   0  0  0  0  0  0  0  0  0  0  0  0
   38.4450   28.0430   33.6860 H   0  0  0  0  0  0  0  0  0  0  0  0
   38.2060   27.9870   31.2790 H   0  0  0  0  0  0  0  0  0  0  0  0
   36.1790   27.3520   30.0450 O   0  0  0  0  0  0  0  0  0  0  0  0
   36.8690   28.0170   29.8250 H   0  0  0  0  0  0  0  0  0  0  0  0
   36.0990   29.7660   31.3100 S   0  0  0  0  0  0  0  0  0  0  0  0
   36.4060   33.3130   33.0490 C   0  0  0  0  0  0  0  0  0  0  0  0
   35.4210   33.3140   34.0380 C   0  0  0  0  0  0  0  0  0  0  0  0
   34.6300   32.1760   34.1740 C   0  0  0  0  0  0  0  0  0  0  0  0
   34.8530   31.1190   33.3410 N   0  0  0  0  0  0  0  0  0  0  0  0
   35.8170   31.1580   32.3960 C   0  0  0  0  0  0  0  0  0  0  0  0
   36.6050   32.2520   32.2360 N   0  0  0  0  0  0  0  0  0  0  0  0
   36.9850   34.2070   32.9840 H   0  0  0  0  0  0  0  0  0  0  0  0
   35.2800   34.1840   34.6810 H   0  0  0  0  0  0  0  0  0  0  0  0
   33.8630   32.1540   34.9320 H   0  0  0  0  0  0  0  0  0  0  0  0
   38.4050   25.9370   31.7120 O   0  0  0  0  0  0  0  0  0  0  0  0
   36.5500   23.9090   30.6550 Cl  0  0  0  0  0  0  0  0  0  0  0  0
   37.4380   23.8950   32.1600 C   0  0  0  0  0  0  0  0  0  0  0  0
   38.2910   24.9050   32.5410 C   0  0  0  0  0  0  0  0  0  0  0  0
   38.9660   24.7690   33.7570 C   0  0  0  0  0  0  0  0  0  0  0  0
   38.7770   23.6520   34.5430 C   0  0  0  0  0  0  0  0  0  0  0  0
   37.9220   22.6320   34.1680 C   0  0  0  0  0  0  0  0  0  0  0  0
   37.2560   22.7730   32.9650 C   0  0  0  0  0  0  0  0  0  0  0  0
   39.6540   25.5070   34.1290 H   0  0  0  0  0  0  0  0  0  0  0  0
   39.2790   23.5060   35.4890 H   0  0  0  0  0  0  0  0  0  0  0  0
   37.7830   21.7620   34.7950 H   0  0  0  0  0  0  0  0  0  0  0  0
   36.3340   21.6790   32.5560 C   0  0  0  0  0  3  0  0  0  0  0  0
   35.7710   20.9180   33.7220 C   0  0  0  0  0  2  0  0  0  0  0  0
   35.4820   19.4620   33.3480 C   0  0  0  0  0  2  0  0  0  0  0  0
   34.9640   19.3320   31.9430 C   0  0  0  0  0  2  0  0  0  0  0  0
   36.0610   19.7660   30.9950 C   0  0  0  0  0  2  0  0  0  0  0  0
   37.0450   20.6860   31.6700 C   0  0  0  0  0  2  0  0  0  0  0  0
  1  6  1  1  0  0  0
  1  5  1  0  0  0  0
  1  2  1  0  0  0  0
  2  7  1  1  0  0  0
  2  3  1  0  0  0  0
  4  3  1  0  0  0  0
  4  9  1  0  0  0  0
  4  8  1  0  0  0  0
  5 10  1  6  0  0  0
  5  4  1  0  0  0  0
 11  1  1  0  0  0  0
 12 11  1  0  0  0  0
 13  2  1  0  0  0  0
 13 18  1  0  0  0  0
 14 15  1  0  0  0  0
 15 16  2  0  0  0  0
 15 21  1  0  0  0  0
 16 22  1  0  0  0  0
 17 16  1  0  0  0  0
 18 17  2  0  0  0  0
 19 18  1  0  0  0  0
 19 14  2  0  0  0  0
 20 14  1  0  0  0  0
 23  5  1  0  0  0  0
 23 26  1  0  0  0  0
 24 25  1  0  0  0  0
 25 26  2  0  0  0  0
 25 30  1  0  0  0  0
 26 27  1  0  0  0  0
 27 31  1  0  0  0  0
 27 28  2  0  0  0  0
 28 32  1  0  0  0  0
 29 28  1  0  0  0  0
 29 33  1  0  0  0  0
 30 29  2  0  0  0  0
 34 30  1  0  0  0  0
 34 35  1  0  0  0  0
 36 35  1  0  0  0  0
 37 36  1  0  0  0  0
 38 39  1  0  0  0  0
 38 37  1  0  0  0  0
 39 34  1  0  0  0  0
M  END
>  <minimizedAffinity>
-5.52778673

$$$$

 OpenBabel03272506493D

 39 42  0  0  1  0  0  0  0  0999 V2000
   37.2170   25.8010   33.2870 C   0  0  2  0  0  0  0  0  0  0  0  0
   38.3700   24.8950   32.9720 C   0  0  1  0  0  0  0  0  0  0  0  0
   38.7000   25.0730   31.6620 O   0  0  0  0  0  0  0  0  0  0  0  0
   38.0670   26.2150   31.1840 C   0  0  0  0  0  0  0  0  0  0  0  0
   37.6000   27.0090   32.3750 C   0  0  1  0  0  0  0  0  0  0  0  0
   36.2360   25.4520   32.9830 H   0  0  0  0  0  0  0  0  0  0  0  0
   38.0950   23.8530   33.2370 H   0  0  0  0  0  0  0  0  0  0  0  0
   37.3150   25.9060   30.4770 H   0  0  0  0  0  0  0  0  0  0  0  0
   38.8470   26.8140   30.6360 H   0  0  0  0  0  0  0  0  0  0  0  0
   38.3910   27.5360   32.8990 H   0  0  0  0  0  0  0  0  0  0  0  0
   37.2630   26.2150   34.6360 O   0  0  0  0  0  0  0  0  0  0  0  0
   37.9880   26.8740   34.7160 H   0  0  0  0  0  0  0  0  0  0  0  0
   39.7960   25.4340   33.9990 S   0  0  0  0  0  0  0  0  0  0  0  0
   41.2880   22.8680   36.6230 C   0  0  0  0  0  0  0  0  0  0  0  0
   40.2390   22.6100   37.5090 C   0  0  0  0  0  0  0  0  0  0  0  0
   39.0240   23.2530   37.2870 C   0  0  0  0  0  0  0  0  0  0  0  0
   38.9140   24.1000   36.2230 N   0  0  0  0  0  0  0  0  0  0  0  0
   39.9530   24.3220   35.3900 C   0  0  0  0  0  0  0  0  0  0  0  0
   41.1520   23.7120   35.5780 N   0  0  0  0  0  0  0  0  0  0  0  0
   42.1970   22.3520   36.8350 H   0  0  0  0  0  0  0  0  0  0  0  0
   40.3750   21.9240   38.3460 H   0  0  0  0  0  0  0  0  0  0  0  0
   38.1990   23.0690   37.9570 H   0  0  0  0  0  0  0  0  0  0  0  0
   36.4870   27.7330   32.0220 O   0  0  0  0  0  0  0  0  0  0  0  0
   35.1510   28.7470   34.4420 Cl  0  0  0  0  0  0  0  0  0  0  0  0
   35.7620   29.6490   33.0760 C   0  0  0  0  0  0  0  0  0  0  0  0
   36.3840   29.0580   32.0000 C   0  0  0  0  0  0  0  0  0  0  0  0
   36.8550   29.8860   30.9780 C   0  0  0  0  0  0  0  0  0  0  0  0
   36.6970   31.2530   31.0550 C   0  0  0  0  0  0  0  0  0  0  0  0
   36.0740   31.8560   32.1320 C   0  0  0  0  0  0  0  0  0  0  0  0
   35.6090   31.0310   33.1400 C   0  0  0  0  0  0  0  0  0  0  0  0
   37.3560   29.5080   30.1040 H   0  0  0  0  0  0  0  0  0  0  0  0
   37.0460   31.9310   30.2890 H   0  0  0  0  0  0  0  0  0  0  0  0
   35.9570   32.9310   32.1790 H   0  0  0  0  0  0  0  0  0  0  0  0
   34.9380   31.6740   34.3010 C   0  0  0  0  0  3  0  0  0  0  0  0
   34.3430   33.0130   33.9700 C   0  0  0  0  0  2  0  0  0  0  0  0
   34.3410   33.9380   35.1880 C   0  0  0  0  0  2  0  0  0  0  0  0
   34.0530   33.1940   36.4620 C   0  0  0  0  0  2  0  0  0  0  0  0
   35.1910   32.2270   36.7090 C   0  0  0  0  0  2  0  0  0  0  0  0
   35.9140   31.8820   35.4330 C   0  0  0  0  0  2  0  0  0  0  0  0
  1  6  1  6  0  0  0
  1 11  1  0  0  0  0
  2  7  1  1  0  0  0
  2  1  1  0  0  0  0
  2 13  1  0  0  0  0
  3  2  1  0  0  0  0
  4  3  1  0  0  0  0
  4  5  1  0  0  0  0
  5 10  1  1  0  0  0
  5  1  1  0  0  0  0
  8  4  1  0  0  0  0
  9  4  1  0  0  0  0
 11 12  1  0  0  0  0
 13 18  1  0  0  0  0
 14 20  1  0  0  0  0
 14 15  1  0  0  0  0
 15 21  1  0  0  0  0
 16 15  2  0  0  0  0
 16 22  1  0  0  0  0
 17 16  1  0  0  0  0
 18 19  1  0  0  0  0
 18 17  2  0  0  0  0
 19 14  2  0  0  0  0
 23  5  1  0  0  0  0
 25 30  1  0  0  0  0
 25 24  1  0  0  0  0
 26 23  1  0  0  0  0
 26 25  2  0  0  0  0
 27 28  2  0  0  0  0
 27 26  1  0  0  0  0
 28 29  1  0  0  0  0
 29 33  1  0  0  0  0
 29 30  2  0  0  0  0
 30 34  1  0  0  0  0
 31 27  1  0  0  0  0
 32 28  1  0  0  0  0
 34 39  1  0  0  0  0
 35 34  1  0  0  0  0
 35 36  1  0  0  0  0
 36 37  1  0  0  0  0
 37 38  1  0  0  0  0
 39 38  1  0  0  0  0
M  END
>  <minimizedAffinity>
-5.46896553

$$$$
