
 OpenBabel03262523103D

 17 18  0  0  0  0  0  0  0  0999 V2000
   39.7160   22.8370   37.5800 C   0  0  0  0  0  0  0  0  0  0  0  0
   38.7640   23.1840   38.5780 C   0  0  0  0  0  0  0  0  0  0  0  0
   37.9120   24.2680   38.3050 C   0  0  0  0  0  0  0  0  0  0  0  0
   38.0590   24.9070   37.1080 N   0  0  0  0  0  0  0  0  0  0  0  0
   38.9710   24.5480   36.1920 C   0  0  0  0  0  0  0  0  0  0  0  0
   39.7860   23.5200   36.4390 N   0  0  0  0  0  0  0  0  0  0  0  0
   38.7370   22.6170   39.4770 H   0  0  0  0  0  0  0  0  0  0  0  0
   37.1860   24.5490   39.0420 H   0  0  0  0  0  0  0  0  0  0  0  0
   39.0110   25.3460   34.9220 C   0  0  0  0  0  3  0  0  0  0  0  0
   37.7850   25.1530   34.0950 C   0  0  0  0  0  2  0  0  0  0  0  0
   37.3600   26.3810   33.3320 C   0  0  0  0  0  2  0  0  0  0  0  0
   37.1750   27.6020   34.1830 C   0  0  0  0  0  2  0  0  0  0  0  0
   37.9640   27.5540   35.4710 C   0  0  0  0  0  2  0  0  0  0  0  0
   39.2410   26.7910   35.3010 C   0  0  0  0  0  2  0  0  0  0  0  0
   40.6240   21.7460   37.7740 N   0  0  0  0  0  0  0  0  0  0  0  0
   40.3970   20.8090   38.1700 H   0  0  0  0  0  0  0  0  0  0  0  0
   41.6170   21.9130   37.4880 H   0  0  0  0  0  0  0  0  0  0  0  0
  1 15  1  0  0  0  0
  1  2  1  0  0  0  0
  2  7  1  0  0  0  0
  3  2  2  0  0  0  0
  3  8  1  0  0  0  0
  4  3  1  0  0  0  0
  5  6  1  0  0  0  0
  5  4  2  0  0  0  0
  6  1  2  0  0  0  0
  9 14  1  0  0  0  0
  9  5  1  0  0  0  0
 10  9  1  0  0  0  0
 11 10  1  0  0  0  0
 11 12  1  0  0  0  0
 12 13  1  0  0  0  0
 14 13  1  0  0  0  0
 15 16  1  0  0  0  0
 17 15  1  0  0  0  0
M  END
>  <minimizedAffinity>
-5.09322309

$$$$

 OpenBabel03262523103D

 17 18  0  0  0  0  0  0  0  0999 V2000
   39.4140   23.0240   37.6120 C   0  0  0  0  0  0  0  0  0  0  0  0
   40.6880   22.4030   37.4920 C   0  0  0  0  0  0  0  0  0  0  0  0
   41.4800   22.7660   36.3890 C   0  0  0  0  0  0  0  0  0  0  0  0
   40.9720   23.6840   35.5160 N   0  0  0  0  0  0  0  0  0  0  0  0
   39.7640   24.2480   35.6640 C   0  0  0  0  0  0  0  0  0  0  0  0
   39.0030   23.9120   36.7080 N   0  0  0  0  0  0  0  0  0  0  0  0
   40.9840   21.6990   38.2320 H   0  0  0  0  0  0  0  0  0  0  0  0
   42.4440   22.3110   36.2770 H   0  0  0  0  0  0  0  0  0  0  0  0
   39.3440   25.2420   34.6220 C   0  0  0  0  0  3  0  0  0  0  0  0
   37.8900   25.1510   34.3090 C   0  0  0  0  0  2  0  0  0  0  0  0
   37.2500   26.4730   33.9750 C   0  0  0  0  0  2  0  0  0  0  0  0
   37.4490   27.5350   35.0160 C   0  0  0  0  0  2  0  0  0  0  0  0
   38.6690   27.3010   35.8770 C   0  0  0  0  0  2  0  0  0  0  0  0
   39.7550   26.6120   35.1100 C   0  0  0  0  0  2  0  0  0  0  0  0
   38.5420   22.7130   38.7040 N   0  0  0  0  0  0  0  0  0  0  0  0
   38.8100   22.6100   39.7060 H   0  0  0  0  0  0  0  0  0  0  0  0
   37.5320   22.5760   38.4650 H   0  0  0  0  0  0  0  0  0  0  0  0
  1 15  1  0  0  0  0
  2  1  1  0  0  0  0
  2  7  1  0  0  0  0
  3  2  2  0  0  0  0
  4  5  2  0  0  0  0
  4  3  1  0  0  0  0
  5  6  1  0  0  0  0
  6  1  2  0  0  0  0
  8  3  1  0  0  0  0
  9 14  1  0  0  0  0
  9  5  1  0  0  0  0
 10  9  1  0  0  0  0
 11 10  1  0  0  0  0
 11 12  1  0  0  0  0
 12 13  1  0  0  0  0
 14 13  1  0  0  0  0
 15 16  1  0  0  0  0
 17 15  1  0  0  0  0
M  END
>  <minimizedAffinity>
-4.88484383

$$$$

 OpenBabel03262523103D

 17 18  0  0  0  0  0  0  0  0999 V2000
   35.7240   21.1320   36.2860 C   0  0  0  0  0  0  0  0  0  0  0  0
   35.6160   20.7010   34.9350 C   0  0  0  0  0  0  0  0  0  0  0  0
   36.5870   21.1650   34.0320 C   0  0  0  0  0  0  0  0  0  0  0  0
   37.5610   21.9910   34.5130 N   0  0  0  0  0  0  0  0  0  0  0  0
   37.6290   22.3750   35.7970 C   0  0  0  0  0  0  0  0  0  0  0  0
   36.7120   21.9410   36.6650 N   0  0  0  0  0  0  0  0  0  0  0  0
   34.8140   20.0550   34.6680 H   0  0  0  0  0  0  0  0  0  0  0  0
   36.5270   20.8540   33.0070 H   0  0  0  0  0  0  0  0  0  0  0  0
   38.7580   23.2860   36.1760 C   0  0  0  0  0  3  0  0  0  0  0  0
   39.6140   23.6420   35.0080 C   0  0  0  0  0  2  0  0  0  0  0  0
   40.1800   25.0370   35.0640 C   0  0  0  0  0  2  0  0  0  0  0  0
   39.1500   26.1130   35.2480 C   0  0  0  0  0  2  0  0  0  0  0  0
   37.8800   25.6140   35.8990 C   0  0  0  0  0  2  0  0  0  0  0  0
   38.1580   24.4960   36.8540 C   0  0  0  0  0  2  0  0  0  0  0  0
   34.7770   20.7080   37.2740 N   0  0  0  0  0  0  0  0  0  0  0  0
   34.3960   19.7460   37.3990 H   0  0  0  0  0  0  0  0  0  0  0  0
   34.4360   21.4450   37.9340 H   0  0  0  0  0  0  0  0  0  0  0  0
  1  6  1  0  0  0  0
  1 15  1  0  0  0  0
  2  1  2  0  0  0  0
  3  4  2  0  0  0  0
  3  2  1  0  0  0  0
  4  5  1  0  0  0  0
  5  9  1  0  0  0  0
  5  6  2  0  0  0  0
  7  2  1  0  0  0  0
  8  3  1  0  0  0  0
  9 14  1  0  0  0  0
 10 11  1  0  0  0  0
 10  9  1  0  0  0  0
 11 12  1  0  0  0  0
 12 13  1  0  0  0  0
 13 14  1  0  0  0  0
 15 16  1  0  0  0  0
 15 17  1  0  0  0  0
M  END
>  <minimizedAffinity>
-4.65228033

$$$$

 OpenBabel03262523103D

 17 18  0  0  0  0  0  0  0  0999 V2000
   39.8220   22.7630   37.5300 C   0  0  0  0  0  0  0  0  0  0  0  0
   38.7920   23.2730   38.3680 C   0  0  0  0  0  0  0  0  0  0  0  0
   38.0170   24.3310   37.8630 C   0  0  0  0  0  0  0  0  0  0  0  0
   38.3070   24.7910   36.6110 N   0  0  0  0  0  0  0  0  0  0  0  0
   39.2890   24.2820   35.8520 C   0  0  0  0  0  0  0  0  0  0  0  0
   40.0320   23.2770   36.3200 N   0  0  0  0  0  0  0  0  0  0  0  0
   38.6530   22.8380   39.3280 H   0  0  0  0  0  0  0  0  0  0  0  0
   37.2340   24.7330   38.4750 H   0  0  0  0  0  0  0  0  0  0  0  0
   39.4870   24.8930   34.4960 C   0  0  0  0  0  3  0  0  0  0  0  0
   39.0450   26.3160   34.4470 C   0  0  0  0  0  2  0  0  0  0  0  0
   39.8710   27.1840   33.5340 C   0  0  0  0  0  2  0  0  0  0  0  0
   41.3440   27.1500   33.8180 C   0  0  0  0  0  2  0  0  0  0  0  0
   41.7840   25.8890   34.5250 C   0  0  0  0  0  2  0  0  0  0  0  0
   40.9420   24.7170   34.1270 C   0  0  0  0  0  2  0  0  0  0  0  0
   40.6600   21.6850   37.9650 N   0  0  0  0  0  0  0  0  0  0  0  0
   40.3570   20.8200   38.4600 H   0  0  0  0  0  0  0  0  0  0  0  0
   41.6820   21.7840   37.7630 H   0  0  0  0  0  0  0  0  0  0  0  0
  1 15  1  0  0  0  0
  1  2  1  0  0  0  0
  2  7  1  0  0  0  0
  3  2  2  0  0  0  0
  3  8  1  0  0  0  0
  4  3  1  0  0  0  0
  5  6  1  0  0  0  0
  5  4  2  0  0  0  0
  6  1  2  0  0  0  0
  9  5  1  0  0  0  0
 10  9  1  0  0  0  0
 11 12  1  0  0  0  0
 11 10  1  0  0  0  0
 12 13  1  0  0  0  0
 14  9  1  0  0  0  0
 14 13  1  0  0  0  0
 15 16  1  0  0  0  0
 17 15  1  0  0  0  0
M  END
>  <minimizedAffinity>
-4.57054663

$$$$

 OpenBabel03262523103D

 17 18  0  0  0  0  0  0  0  0999 V2000
   35.4400   25.0780   31.0100 C   0  0  0  0  0  0  0  0  0  0  0  0
   35.8690   23.7390   31.2220 C   0  0  0  0  0  0  0  0  0  0  0  0
   36.8490   23.5250   32.2060 C   0  0  0  0  0  0  0  0  0  0  0  0
   37.3170   24.6120   32.8840 N   0  0  0  0  0  0  0  0  0  0  0  0
   36.8870   25.8620   32.6540 C   0  0  0  0  0  0  0  0  0  0  0  0
   35.9560   26.0780   31.7220 N   0  0  0  0  0  0  0  0  0  0  0  0
   35.4350   22.9660   30.6350 H   0  0  0  0  0  0  0  0  0  0  0  0
   37.1880   22.5240   32.3840 H   0  0  0  0  0  0  0  0  0  0  0  0
   37.4960   26.9550   33.4810 C   0  0  0  0  0  3  0  0  0  0  0  0
   37.6110   26.5780   34.9190 C   0  0  0  0  0  2  0  0  0  0  0  0
   38.8230   27.1480   35.6090 C   0  0  0  0  0  2  0  0  0  0  0  0
   40.1220   26.8350   34.9280 C   0  0  0  0  0  2  0  0  0  0  0  0
   39.9650   26.5350   33.4550 C   0  0  0  0  0  2  0  0  0  0  0  0
   38.8280   27.3060   32.8590 C   0  0  0  0  0  2  0  0  0  0  0  0
   34.4450   25.3880   30.0270 N   0  0  0  0  0  0  0  0  0  0  0  0
   33.5620   24.8640   29.8470 H   0  0  0  0  0  0  0  0  0  0  0  0
   34.6300   26.2270   29.4300 H   0  0  0  0  0  0  0  0  0  0  0  0
  1  2  2  0  0  0  0
  1  6  1  0  0  0  0
  2  3  1  0  0  0  0
  3  8  1  0  0  0  0
  3  4  2  0  0  0  0
  5  4  1  0  0  0  0
  5  9  1  0  0  0  0
  6  5  2  0  0  0  0
  7  2  1  0  0  0  0
  9 10  1  0  0  0  0
 10 11  1  0  0  0  0
 12 11  1  0  0  0  0
 13 12  1  0  0  0  0
 14 13  1  0  0  0  0
 14  9  1  0  0  0  0
 15  1  1  0  0  0  0
 16 15  1  0  0  0  0
 17 15  1  0  0  0  0
M  END
>  <minimizedAffinity>
-4.49784422

$$$$

 OpenBabel03262523103D

 17 18  0  0  0  0  0  0  0  0999 V2000
   35.7430   21.0960   36.1690 C   0  0  0  0  0  0  0  0  0  0  0  0
   35.5670   20.7210   34.8080 C   0  0  0  0  0  0  0  0  0  0  0  0
   36.5290   21.1710   33.8880 C   0  0  0  0  0  0  0  0  0  0  0  0
   37.5580   21.9320   34.3640 N   0  0  0  0  0  0  0  0  0  0  0  0
   37.6880   22.2650   35.6560 C   0  0  0  0  0  0  0  0  0  0  0  0
   36.7810   21.8430   36.5410 N   0  0  0  0  0  0  0  0  0  0  0  0
   34.7270   20.1250   34.5480 H   0  0  0  0  0  0  0  0  0  0  0  0
   36.4190   20.9020   32.8560 H   0  0  0  0  0  0  0  0  0  0  0  0
   38.8730   23.1060   36.0270 C   0  0  0  0  0  3  0  0  0  0  0  0
   39.3980   22.7760   37.3830 C   0  0  0  0  0  2  0  0  0  0  0  0
   40.8930   22.9090   37.5110 C   0  0  0  0  0  2  0  0  0  0  0  0
   41.6710   22.1270   36.4940 C   0  0  0  0  0  2  0  0  0  0  0  0
   40.8830   21.8390   35.2370 C   0  0  0  0  0  2  0  0  0  0  0  0
   39.9090   22.9360   34.9390 C   0  0  0  0  0  2  0  0  0  0  0  0
   34.8100   20.6820   37.1750 N   0  0  0  0  0  0  0  0  0  0  0  0
   34.3860   19.7360   37.2800 H   0  0  0  0  0  0  0  0  0  0  0  0
   34.5280   21.4100   37.8720 H   0  0  0  0  0  0  0  0  0  0  0  0
  1  6  1  0  0  0  0
  1 15  1  0  0  0  0
  2  1  2  0  0  0  0
  3  4  2  0  0  0  0
  3  2  1  0  0  0  0
  4  5  1  0  0  0  0
  5  9  1  0  0  0  0
  5  6  2  0  0  0  0
  7  2  1  0  0  0  0
  8  3  1  0  0  0  0
  9 10  1  0  0  0  0
 10 11  1  0  0  0  0
 12 11  1  0  0  0  0
 13 12  1  0  0  0  0
 14 13  1  0  0  0  0
 14  9  1  0  0  0  0
 15 16  1  0  0  0  0
 15 17  1  0  0  0  0
M  END
>  <minimizedAffinity>
-4.27044201

$$$$

 OpenBabel03262523103D

 17 18  0  0  0  0  0  0  0  0999 V2000
   36.1920   27.5510   31.7420 C   0  0  0  0  0  0  0  0  0  0  0  0
   35.5800   28.7800   32.1150 C   0  0  0  0  0  0  0  0  0  0  0  0
   35.6850   29.1690   33.4610 C   0  0  0  0  0  0  0  0  0  0  0  0
   36.3610   28.3430   34.3110 N   0  0  0  0  0  0  0  0  0  0  0  0
   36.9250   27.1900   33.9200 C   0  0  0  0  0  0  0  0  0  0  0  0
   36.8330   26.8090   32.6440 N   0  0  0  0  0  0  0  0  0  0  0  0
   35.0770   29.3460   31.3680 H   0  0  0  0  0  0  0  0  0  0  0  0
   35.2320   30.0910   33.7660 H   0  0  0  0  0  0  0  0  0  0  0  0
   37.6360   26.3890   34.9700 C   0  0  0  0  0  3  0  0  0  0  0  0
   38.0480   25.0450   34.4740 C   0  0  0  0  0  2  0  0  0  0  0  0
   39.3470   24.5480   35.0540 C   0  0  0  0  0  2  0  0  0  0  0  0
   40.4990   25.4930   34.8850 C   0  0  0  0  0  2  0  0  0  0  0  0
   40.0670   26.9310   34.7100 C   0  0  0  0  0  2  0  0  0  0  0  0
   38.8030   27.2170   35.4590 C   0  0  0  0  0  2  0  0  0  0  0  0
   36.1340   27.0780   30.3910 N   0  0  0  0  0  0  0  0  0  0  0  0
   36.2750   27.6420   29.5270 H   0  0  0  0  0  0  0  0  0  0  0  0
   35.9280   26.0590   30.2660 H   0  0  0  0  0  0  0  0  0  0  0  0
  1  2  2  0  0  0  0
  1  6  1  0  0  0  0
  2  3  1  0  0  0  0
  3  8  1  0  0  0  0
  3  4  2  0  0  0  0
  5  4  1  0  0  0  0
  5  9  1  0  0  0  0
  6  5  2  0  0  0  0
  7  2  1  0  0  0  0
  9 14  1  0  0  0  0
 10  9  1  0  0  0  0
 10 11  1  0  0  0  0
 12 11  1  0  0  0  0
 13 12  1  0  0  0  0
 13 14  1  0  0  0  0
 15  1  1  0  0  0  0
 16 15  1  0  0  0  0
 17 15  1  0  0  0  0
M  END
>  <minimizedAffinity>
-4.25928831

$$$$

 OpenBabel03262523103D

 17 18  0  0  0  0  0  0  0  0999 V2000
   36.2460   27.9800   31.6970 C   0  0  0  0  0  0  0  0  0  0  0  0
   36.9360   27.1630   32.6340 C   0  0  0  0  0  0  0  0  0  0  0  0
   36.8370   27.5150   33.9910 C   0  0  0  0  0  0  0  0  0  0  0  0
   36.0900   28.6110   34.3100 N   0  0  0  0  0  0  0  0  0  0  0  0
   35.4530   29.3580   33.3960 C   0  0  0  0  0  0  0  0  0  0  0  0
   35.5390   29.0330   32.1030 N   0  0  0  0  0  0  0  0  0  0  0  0
   37.4910   26.3300   32.2740 H   0  0  0  0  0  0  0  0  0  0  0  0
   37.3490   26.9140   34.7160 H   0  0  0  0  0  0  0  0  0  0  0  0
   34.6690   30.5330   33.9010 C   0  0  0  0  0  3  0  0  0  0  0  0
   33.7820   30.1700   35.0430 C   0  0  0  0  0  2  0  0  0  0  0  0
   33.6180   31.2650   36.0640 C   0  0  0  0  0  2  0  0  0  0  0  0
   34.9100   31.7950   36.6130 C   0  0  0  0  0  2  0  0  0  0  0  0
   36.0820   31.5790   35.6840 C   0  0  0  0  0  2  0  0  0  0  0  0
   35.6580   31.6220   34.2490 C   0  0  0  0  0  2  0  0  0  0  0  0
   36.2920   27.6940   30.2940 N   0  0  0  0  0  0  0  0  0  0  0  0
   36.2060   26.7580   29.8450 H   0  0  0  0  0  0  0  0  0  0  0  0
   36.4280   28.5150   29.6590 H   0  0  0  0  0  0  0  0  0  0  0  0
  1  6  2  0  0  0  0
  1  2  1  0  0  0  0
  2  3  2  0  0  0  0
  3  4  1  0  0  0  0
  3  8  1  0  0  0  0
  5  9  1  0  0  0  0
  5  4  2  0  0  0  0
  6  5  1  0  0  0  0
  7  2  1  0  0  0  0
  9 14  1  0  0  0  0
  9 10  1  0  0  0  0
 10 11  1  0  0  0  0
 11 12  1  0  0  0  0
 13 12  1  0  0  0  0
 14 13  1  0  0  0  0
 15  1  1  0  0  0  0
 16 15  1  0  0  0  0
 17 15  1  0  0  0  0
M  END
>  <minimizedAffinity>
-4.22147655

$$$$

 OpenBabel03262523103D

 17 18  0  0  0  0  0  0  0  0999 V2000
   36.1540   24.9060   31.3500 C   0  0  0  0  0  0  0  0  0  0  0  0
   35.7510   23.5440   31.2670 C   0  0  0  0  0  0  0  0  0  0  0  0
   36.4030   22.6280   32.1100 C   0  0  0  0  0  0  0  0  0  0  0  0
   37.3710   23.1070   32.9430 N   0  0  0  0  0  0  0  0  0  0  0  0
   37.7240   24.4000   32.9910 C   0  0  0  0  0  0  0  0  0  0  0  0
   37.1120   25.2810   32.1960 N   0  0  0  0  0  0  0  0  0  0  0  0
   34.9830   23.2800   30.5810 H   0  0  0  0  0  0  0  0  0  0  0  0
   36.1160   21.5950   32.0660 H   0  0  0  0  0  0  0  0  0  0  0  0
   38.8060   24.7760   33.9590 C   0  0  0  0  0  3  0  0  0  0  0  0
   39.4980   26.0380   33.5710 C   0  0  0  0  0  2  0  0  0  0  0  0
   39.9460   26.8770   34.7400 C   0  0  0  0  0  2  0  0  0  0  0  0
   38.8550   27.2100   35.7130 C   0  0  0  0  0  2  0  0  0  0  0  0
   37.7090   26.2250   35.6810 C   0  0  0  0  0  2  0  0  0  0  0  0
   38.1810   24.8480   35.3330 C   0  0  0  0  0  2  0  0  0  0  0  0
   35.5430   25.9070   30.5280 N   0  0  0  0  0  0  0  0  0  0  0  0
   34.5260   26.0110   30.3240 H   0  0  0  0  0  0  0  0  0  0  0  0
   36.1900   26.6030   30.0890 H   0  0  0  0  0  0  0  0  0  0  0  0
  1  6  1  0  0  0  0
  2  1  2  0  0  0  0
  2  3  1  0  0  0  0
  3  4  2  0  0  0  0
  4  5  1  0  0  0  0
  5  9  1  0  0  0  0
  6  5  2  0  0  0  0
  7  2  1  0  0  0  0
  8  3  1  0  0  0  0
  9 14  1  0  0  0  0
 10  9  1  0  0  0  0
 10 11  1  0  0  0  0
 11 12  1  0  0  0  0
 13 12  1  0  0  0  0
 14 13  1  0  0  0  0
 15  1  1  0  0  0  0
 16 15  1  0  0  0  0
 17 15  1  0  0  0  0
M  END
>  <minimizedAffinity>
-4.19349813

$$$$
