
 OpenBabel03272505123D

 36 39  0  0  0  0  0  0  0  0999 V2000
   36.4170   30.8950   45.7070 Cl  0  0  0  0  0  0  0  0  0  0  0  0
   36.6940   30.7840   47.4240 C   0  0  0  0  0  0  0  0  0  0  0  0
   37.9530   31.1270   47.8820 C   0  0  0  0  0  0  0  0  0  0  0  0
   38.1850   31.0410   49.2500 C   0  0  0  0  0  0  0  0  0  0  0  0
   37.1750   30.6280   50.0890 C   0  0  0  0  0  0  0  0  0  0  0  0
   35.9380   30.3020   49.5520 C   0  0  0  0  0  0  0  0  0  0  0  0
   35.6410   30.3630   48.2150 C   0  0  0  0  0  0  0  0  0  0  0  0
   39.1660   31.3050   49.6300 H   0  0  0  0  0  0  0  0  0  0  0  0
   37.3170   30.5500   51.1570 H   0  0  0  0  0  0  0  0  0  0  0  0
   35.1680   29.9800   50.2490 H   0  0  0  0  0  0  0  0  0  0  0  0
   40.2270   33.3270   46.0880 C   0  0  0  0  0  0  0  0  0  0  0  0
   40.9380   32.4770   45.2290 C   0  0  0  0  0  0  0  0  0  0  0  0
   40.6150   31.1090   45.2800 C   0  0  0  0  0  0  0  0  0  0  0  0
   39.6430   30.6970   46.1500 N   0  0  0  0  0  0  0  0  0  0  0  0
   39.0020   31.5640   46.9420 C   0  0  0  0  0  0  0  0  0  0  0  0
   39.2830   32.8670   46.9210 N   0  0  0  0  0  0  0  0  0  0  0  0
   40.5260   34.3630   45.9970 H   0  0  0  0  0  0  0  0  0  0  0  0
   41.7080   32.8540   44.5510 H   0  0  0  0  0  0  0  0  0  0  0  0
   41.1140   30.4080   44.6580 H   0  0  0  0  0  0  0  0  0  0  0  0
   34.0730   29.9520   47.5220 S   0  0  0  0  0  0  0  0  0  0  0  0
   34.0040   29.1430   44.4810 Cl  0  0  0  0  0  0  0  0  0  0  0  0
   33.9310   27.9340   45.7430 C   0  0  0  0  0  0  0  0  0  0  0  0
   33.9560   28.2100   47.1180 C   0  0  0  0  0  0  0  0  0  0  0  0
   33.8920   27.1770   48.0130 C   0  0  0  0  0  0  0  0  0  0  0  0
   33.8040   25.8770   47.5870 C   0  0  0  0  0  0  0  0  0  0  0  0
   33.7770   25.5640   46.2340 C   0  0  0  0  0  0  0  0  0  0  0  0
   33.8410   26.5990   45.3450 C   0  0  0  0  0  0  0  0  0  0  0  0
   33.9200   27.5130   49.0510 H   0  0  0  0  0  0  0  0  0  0  0  0
   33.7580   25.1090   48.3200 H   0  0  0  0  0  0  0  0  0  0  0  0
   33.7060   24.5200   45.9580 H   0  0  0  0  0  0  0  0  0  0  0  0
   33.8100   26.2640   43.8960 C   0  0  0  0  0  3  0  0  0  0  0  0
   32.8080   25.2000   43.5780 C   0  0  0  0  0  2  0  0  0  0  0  0
   32.7460   24.9840   42.1000 C   0  0  0  0  0  2  0  0  0  0  0  0
   33.7550   25.8120   41.3400 C   0  0  0  0  0  2  0  0  0  0  0  0
   35.1390   25.7200   41.8960 C   0  0  0  0  0  2  0  0  0  0  0  0
   35.1720   25.8350   43.4030 C   0  0  0  0  0  2  0  0  0  0  0  0
  1  2  1  0  0  0  0
  2  3  2  0  0  0  0
  2  7  1  0  0  0  0
  3  4  1  0  0  0  0
  4  8  1  0  0  0  0
  4  5  2  0  0  0  0
  5  9  1  0  0  0  0
  6  5  1  0  0  0  0
  6 10  1  0  0  0  0
  7  6  2  0  0  0  0
 11 16  1  0  0  0  0
 12 13  1  0  0  0  0
 12 11  2  0  0  0  0
 13 14  2  0  0  0  0
 14 15  1  0  0  0  0
 15  3  1  0  0  0  0
 16 15  2  0  0  0  0
 17 11  1  0  0  0  0
 18 12  1  0  0  0  0
 19 13  1  0  0  0  0
 20  7  1  0  0  0  0
 21 22  1  0  0  0  0
 22 23  1  0  0  0  0
 23 20  1  0  0  0  0
 23 24  2  0  0  0  0
 24 28  1  0  0  0  0
 25 24  1  0  0  0  0
 25 29  1  0  0  0  0
 26 25  2  0  0  0  0
 27 22  2  0  0  0  0
 27 26  1  0  0  0  0
 30 26  1  0  0  0  0
 31 27  1  0  0  0  0
 32 31  1  0  0  0  0
 33 32  1  0  0  0  0
 34 35  1  0  0  0  0
 34 33  1  0  0  0  0
 35 36  1  0  0  0  0
 36 31  1  0  0  0  0
M  END
>  <minimizedAffinity>
-5.7471633

>  <minimizedRMSD>
0.212850347

$$$$
