
 OpenBabel03272508053D

 32 35  0  0  0  0  0  0  0  0999 V2000
   38.8760   30.8850   45.7980 C   0  0  0  0  0  0  0  0  0  0  0  0
   40.0620   31.5410   46.0720 C   0  0  0  0  0  0  0  0  0  0  0  0
   40.9210   31.4920   44.9680 C   0  0  0  0  0  0  0  0  0  0  0  0
   40.2060   30.8000   44.0660 N   0  0  0  0  0  0  0  0  0  0  0  0
   39.0160   30.4450   44.5450 N   0  0  0  0  0  0  0  0  0  0  0  0
   40.3350   32.0420   47.0060 H   0  0  0  0  0  0  0  0  0  0  0  0
   41.9050   31.8820   44.8120 H   0  0  0  0  0  0  0  0  0  0  0  0
   37.7500   30.7310   46.7000 C   0  0  0  0  0  0  0  0  0  0  0  0
   37.9530   30.9360   48.0790 C   0  0  0  0  0  0  0  0  0  0  0  0
   36.8610   30.7860   48.9280 C   0  0  0  0  0  0  0  0  0  0  0  0
   35.6560   30.4480   48.3750 N   0  0  0  0  0  0  0  0  0  0  0  0
   35.4840   30.2570   47.0450 C   0  0  0  0  0  0  0  0  0  0  0  0
   36.5410   30.4020   46.2180 N   0  0  0  0  0  0  0  0  0  0  0  0
   38.9180   31.2020   48.4870 H   0  0  0  0  0  0  0  0  0  0  0  0
   34.5050   29.9930   46.6760 H   0  0  0  0  0  0  0  0  0  0  0  0
   37.0440   30.9940   50.3860 C   0  0  0  0  0  0  0  0  0  0  0  0
   36.5550   32.2490   50.6510 F   0  0  0  0  0  0  0  0  0  0  0  0
   36.3430   30.0650   51.1550 F   0  0  0  0  0  0  0  0  0  0  0  0
   38.3900   30.9700   50.7430 F   0  0  0  0  0  0  0  0  0  0  0  0
   40.5780   30.4230   42.6970 C   0  0  0  0  0  0  0  0  0  0  0  0
   40.2070   31.2020   41.5890 C   0  0  0  0  0  0  0  0  0  0  0  0
   40.5610   30.8180   40.3580 C   0  0  0  0  0  0  0  0  0  0  0  0
   41.3150   29.6180   40.1850 C   0  0  0  0  0  0  0  0  0  0  0  0
   41.5010   29.0410   41.9500 S   0  0  0  0  0  0  0  0  0  0  0  0
   39.6300   32.1230   41.6970 H   0  0  0  0  0  0  0  0  0  0  0  0
   40.3610   31.2920   39.4080 H   0  0  0  0  0  0  0  0  0  0  0  0
   41.8530   28.9170   39.0870 C   0  0  0  0  0  3  0  0  0  0  0  0
   40.8020   28.0150   38.5290 C   0  0  0  0  0  2  0  0  0  0  0  0
   40.2470   28.5580   37.2100 C   0  0  0  0  0  2  0  0  0  0  0  0
   41.4080   28.4550   36.2140 C   0  0  0  0  0  2  0  0  0  0  0  0
   42.6020   29.2350   36.7120 C   0  0  0  0  0  2  0  0  0  0  0  0
   42.3470   29.8910   38.0420 C   0  0  0  0  0  2  0  0  0  0  0  0
  1  2  1  0  0  0  0
  1  8  1  0  0  0  0
  2  6  1  0  0  0  0
  3  2  2  0  0  0  0
  4  5  1  0  0  0  0
  4  3  1  0  0  0  0
  5  1  2  0  0  0  0
  7  3  1  0  0  0  0
  8  9  1  0  0  0  0
  9 14  1  0  0  0  0
  9 10  2  0  0  0  0
 10 16  1  0  0  0  0
 11 10  1  0  0  0  0
 12 11  2  0  0  0  0
 13  8  2  0  0  0  0
 13 12  1  0  0  0  0
 15 12  1  0  0  0  0
 16 17  1  0  0  0  0
 16 19  1  0  0  0  0
 16 18  1  0  0  0  0
 20  4  1  0  0  0  0
 21 25  1  0  0  0  0
 21 20  2  0  0  0  0
 22 21  1  0  0  0  0
 23 22  2  0  0  0  0
 23 24  1  0  0  0  0
 24 20  1  0  0  0  0
 26 22  1  0  0  0  0
 27 23  1  0  0  0  0
 28 27  1  0  0  0  0
 29 28  1  0  0  0  0
 30 31  1  0  0  0  0
 30 29  1  0  0  0  0
 31 32  1  0  0  0  0
 32 27  1  0  0  0  0
M  END
>  <minimizedAffinity>
-6.14895344

>  <minimizedRMSD>
0.118461303

$$$$
