
 OpenBabel03272500193D

 31 33  0  0  0  0  0  0  0  0999 V2000
   36.0050   31.1350   49.7490 C   0  0  0  0  0  0  0  0  0  0  0  0
   36.9750   31.5470   48.8180 C   0  0  0  0  0  0  0  0  0  0  0  0
   36.9270   31.0240   47.5350 C   0  0  0  0  0  0  0  0  0  0  0  0
   35.9500   30.1360   47.2170 N   0  0  0  0  0  0  0  0  0  0  0  0
   35.0380   29.7570   48.1170 C   0  0  0  0  0  0  0  0  0  0  0  0
   35.0480   30.2430   49.3790 N   0  0  0  0  0  0  0  0  0  0  0  0
   36.0100   31.5200   50.7590 H   0  0  0  0  0  0  0  0  0  0  0  0
   32.8240   30.8400   46.3600 Cl  0  0  0  0  0  0  0  0  0  0  0  0
   32.9410   29.1750   46.9070 C   0  0  0  0  0  0  0  0  0  0  0  0
   34.0050   28.7920   47.7130 C   0  0  0  0  0  0  0  0  0  0  0  0
   34.1480   27.4730   48.1780 C   0  0  0  0  0  0  0  0  0  0  0  0
   33.1660   26.5650   47.7920 C   0  0  0  0  0  0  0  0  0  0  0  0
   32.1040   26.9250   46.9940 C   0  0  0  0  0  0  0  0  0  0  0  0
   30.9310   25.7040   46.5710 Cl  0  0  0  0  0  0  0  0  0  0  0  0
   32.0080   28.2350   46.5610 C   0  0  0  0  0  0  0  0  0  0  0  0
   34.9740   27.1690   48.8060 H   0  0  0  0  0  0  0  0  0  0  0  0
   33.2760   25.5520   48.1500 H   0  0  0  0  0  0  0  0  0  0  0  0
   30.8650   28.6440   45.6980 C   0  0  0  0  0  0  0  0  0  0  0  0
   29.9430   27.6000   45.5920 F   0  0  0  0  0  0  0  0  0  0  0  0
   31.2680   29.0470   44.4520 F   0  0  0  0  0  0  0  0  0  0  0  0
   30.1870   29.7020   46.2880 F   0  0  0  0  0  0  0  0  0  0  0  0
   37.8970   31.3900   46.5150 C   0  0  0  0  0  0  0  0  0  0  0  0
   39.0800   30.4630   46.3900 C   0  0  0  0  0  0  0  0  0  0  0  0
   40.1740   31.2440   45.6460 C   0  0  0  0  0  0  0  0  0  0  0  0
   39.5120   32.1260   44.6070 C   0  0  0  0  0  0  0  0  0  0  0  0
   38.2120   31.5310   44.0890 C   0  0  0  0  0  0  0  0  0  0  0  0
   37.1730   31.3660   45.1680 C   0  0  0  0  0  0  0  0  0  0  0  0
   38.0110   32.5280   49.2330 C   0  0  0  0  0  0  0  0  0  0  0  0
   38.6350   33.1270   48.1430 F   0  0  0  0  0  0  0  0  0  0  0  0
   37.4130   33.5290   49.9820 F   0  0  0  0  0  0  0  0  0  0  0  0
   38.9920   31.9620   50.0280 F   0  0  0  0  0  0  0  0  0  0  0  0
  1  7  1  0  0  0  0
  2 28  1  0  0  0  0
  2  1  2  0  0  0  0
  3  2  1  0  0  0  0
  4  3  2  0  0  0  0
  4  5  1  0  0  0  0
  5  6  2  0  0  0  0
  6  1  1  0  0  0  0
  8  9  1  0  0  0  0
  9 10  1  0  0  0  0
 10  5  1  0  0  0  0
 10 11  2  0  0  0  0
 11 16  1  0  0  0  0
 12 17  1  0  0  0  0
 12 11  1  0  0  0  0
 13 12  2  0  0  0  0
 14 13  1  0  0  0  0
 15  9  2  0  0  0  0
 15 13  1  0  0  0  0
 18 21  1  0  0  0  0
 18 15  1  0  0  0  0
 19 18  1  0  0  0  0
 20 18  1  0  0  0  0
 22  3  1  0  0  0  0
 23 22  1  0  0  0  0
 24 23  1  0  0  0  0
 25 24  1  0  0  0  0
 26 25  1  0  0  0  0
 26 27  1  0  0  0  0
 27 22  1  0  0  0  0
 28 30  1  0  0  0  0
 28 31  1  0  0  0  0
 29 28  1  0  0  0  0
M  END
>  <minimizedAffinity>
-6.55157423

>  <minimizedRMSD>
1.56976962

$$$$
