
 OpenBabel03262522383D

 24 26  0  0  0  0  0  0  0  0999 V2000
   40.0310   22.8410   36.8690 C   0  0  0  0  0  0  0  0  0  0  0  0
   39.5600   22.8530   38.1580 C   0  0  0  0  0  0  0  0  0  0  0  0
   38.5580   23.6650   38.6130 C   0  0  0  0  0  0  0  0  0  0  0  0
   37.9560   24.5510   37.7330 C   0  0  0  0  0  0  0  0  0  0  0  0
   38.4360   24.5350   36.4300 C   0  0  0  0  0  0  0  0  0  0  0  0
   39.4180   23.7240   36.0290 N   0  0  0  0  0  0  0  0  0  0  0  0
   39.9920   22.1850   38.8810 H   0  0  0  0  0  0  0  0  0  0  0  0
   38.2300   23.6270   39.6430 H   0  0  0  0  0  0  0  0  0  0  0  0
   37.1570   25.2130   38.0560 H   0  0  0  0  0  0  0  0  0  0  0  0
   42.9030   20.4180   36.7010 C   0  0  0  0  0  0  0  0  0  0  0  0
   41.9040   21.2230   37.2640 C   0  0  0  0  0  0  0  0  0  0  0  0
   41.0930   21.9760   36.4010 C   0  0  0  0  0  0  0  0  0  0  0  0
   41.3120   21.8910   35.0680 N   0  0  0  0  0  0  0  0  0  0  0  0
   42.2910   21.0990   34.5460 C   0  0  0  0  0  0  0  0  0  0  0  0
   43.0740   20.3750   35.3580 N   0  0  0  0  0  0  0  0  0  0  0  0
   43.5250   19.8400   37.3690 H   0  0  0  0  0  0  0  0  0  0  0  0
   41.7270   21.2920   38.3350 H   0  0  0  0  0  0  0  0  0  0  0  0
   42.3930   21.0950   33.4630 H   0  0  0  0  0  0  0  0  0  0  0  0
   37.7800   25.4910   35.5020 C   0  0  0  0  0  3  0  0  0  0  0  0
   38.1330   25.2270   34.0570 C   0  0  0  0  0  2  0  0  0  0  0  0
   37.1380   26.0460   33.2260 C   0  0  0  0  0  2  0  0  0  0  0  0
   37.2630   27.5080   33.5350 C   0  0  0  0  0  2  0  0  0  0  0  0
   37.3240   27.8450   34.9840 C   0  0  0  0  0  2  0  0  0  0  0  0
   38.1380   26.9210   35.8330 C   0  0  0  0  0  2  0  0  0  0  0  0
  1  2  1  0  0  0  0
  2  3  2  0  0  0  0
  2  7  1  0  0  0  0
  3  8  1  0  0  0  0
  4  9  1  0  0  0  0
  4  3  1  0  0  0  0
  5  4  2  0  0  0  0
  6  5  1  0  0  0  0
  6  1  2  0  0  0  0
 10 11  1  0  0  0  0
 10 16  1  0  0  0  0
 11 17  1  0  0  0  0
 12  1  1  0  0  0  0
 12 11  2  0  0  0  0
 13 12  1  0  0  0  0
 14 13  2  0  0  0  0
 14 15  1  0  0  0  0
 15 10  2  0  0  0  0
 18 14  1  0  0  0  0
 19 24  1  0  0  0  0
 19  5  1  0  0  0  0
 20 19  1  0  0  0  0
 21 22  1  0  0  0  0
 21 20  1  0  0  0  0
 22 23  1  0  0  0  0
 23 24  1  0  0  0  0
M  END
>  <minimizedAffinity>
-5.36132908

$$$$

 OpenBabel03262522383D

 24 26  0  0  0  0  0  0  0  0999 V2000
   37.0610   25.5100   32.6010 C   0  0  0  0  0  0  0  0  0  0  0  0
   36.2270   26.3370   31.8890 C   0  0  0  0  0  0  0  0  0  0  0  0
   35.2660   25.9090   31.0160 C   0  0  0  0  0  0  0  0  0  0  0  0
   35.0970   24.5480   30.8120 C   0  0  0  0  0  0  0  0  0  0  0  0
   35.9430   23.7160   31.5350 C   0  0  0  0  0  0  0  0  0  0  0  0
   36.8690   24.1780   32.3780 N   0  0  0  0  0  0  0  0  0  0  0  0
   36.3160   27.4010   32.0110 H   0  0  0  0  0  0  0  0  0  0  0  0
   34.6380   26.6130   30.4850 H   0  0  0  0  0  0  0  0  0  0  0  0
   34.3440   24.1690   30.1270 H   0  0  0  0  0  0  0  0  0  0  0  0
   38.8370   27.0920   35.5130 C   0  0  0  0  0  0  0  0  0  0  0  0
   37.7750   26.6900   34.6930 C   0  0  0  0  0  0  0  0  0  0  0  0
   38.0750   25.9760   33.5220 C   0  0  0  0  0  0  0  0  0  0  0  0
   39.3710   25.7120   33.2390 N   0  0  0  0  0  0  0  0  0  0  0  0
   40.3870   26.1150   34.0540 C   0  0  0  0  0  0  0  0  0  0  0  0
   40.1160   26.7970   35.1750 N   0  0  0  0  0  0  0  0  0  0  0  0
   38.6030   27.6410   36.4140 H   0  0  0  0  0  0  0  0  0  0  0  0
   36.7340   26.9020   34.9210 H   0  0  0  0  0  0  0  0  0  0  0  0
   41.3960   25.8570   33.7450 H   0  0  0  0  0  0  0  0  0  0  0  0
   35.7470   22.2620   31.3040 C   0  0  0  0  0  3  0  0  0  0  0  0
   35.1480   21.5620   32.5010 C   0  0  0  0  0  2  0  0  0  0  0  0
   34.6980   20.1850   32.0010 C   0  0  0  0  0  2  0  0  0  0  0  0
   35.8650   19.4050   31.4720 C   0  0  0  0  0  2  0  0  0  0  0  0
   36.7680   20.1590   30.5600 C   0  0  0  0  0  2  0  0  0  0  0  0
   37.0460   21.5770   30.9460 C   0  0  0  0  0  2  0  0  0  0  0  0
  1 12  1  0  0  0  0
  2  7  1  0  0  0  0
  2  1  2  0  0  0  0
  3  2  1  0  0  0  0
  4  3  2  0  0  0  0
  4  5  1  0  0  0  0
  5  6  2  0  0  0  0
  6  1  1  0  0  0  0
  8  3  1  0  0  0  0
  9  4  1  0  0  0  0
 10 16  1  0  0  0  0
 11 17  1  0  0  0  0
 11 10  2  0  0  0  0
 12 11  1  0  0  0  0
 13 12  2  0  0  0  0
 13 14  1  0  0  0  0
 14 15  2  0  0  0  0
 15 10  1  0  0  0  0
 18 14  1  0  0  0  0
 19  5  1  0  0  0  0
 19 20  1  0  0  0  0
 21 20  1  0  0  0  0
 22 21  1  0  0  0  0
 23 24  1  0  0  0  0
 23 22  1  0  0  0  0
 24 19  1  0  0  0  0
M  END
>  <minimizedAffinity>
-5.26650047

$$$$

 OpenBabel03262522383D

 24 26  0  0  0  0  0  0  0  0999 V2000
   38.3280   24.7700   36.0030 C   0  0  0  0  0  0  0  0  0  0  0  0
   37.8080   24.5940   37.2610 C   0  0  0  0  0  0  0  0  0  0  0  0
   38.3180   23.7410   38.2010 C   0  0  0  0  0  0  0  0  0  0  0  0
   39.4390   22.9870   37.8920 C   0  0  0  0  0  0  0  0  0  0  0  0
   39.9620   23.1700   36.6170 C   0  0  0  0  0  0  0  0  0  0  0  0
   39.4310   24.0140   35.7300 N   0  0  0  0  0  0  0  0  0  0  0  0
   36.9390   25.1540   37.5520 H   0  0  0  0  0  0  0  0  0  0  0  0
   37.8620   23.6470   39.1780 H   0  0  0  0  0  0  0  0  0  0  0  0
   39.8740   22.2990   38.6120 H   0  0  0  0  0  0  0  0  0  0  0  0
   36.9080   27.7930   34.2740 C   0  0  0  0  0  0  0  0  0  0  0  0
   37.4320   27.0050   35.3070 C   0  0  0  0  0  0  0  0  0  0  0  0
   37.7790   25.6750   35.0170 C   0  0  0  0  0  0  0  0  0  0  0  0
   37.5920   25.2180   33.7570 N   0  0  0  0  0  0  0  0  0  0  0  0
   37.0800   26.0060   32.7700 C   0  0  0  0  0  0  0  0  0  0  0  0
   36.7430   27.2770   33.0320 N   0  0  0  0  0  0  0  0  0  0  0  0
   36.6410   28.8150   34.5010 H   0  0  0  0  0  0  0  0  0  0  0  0
   37.5820   27.3720   36.3190 H   0  0  0  0  0  0  0  0  0  0  0  0
   36.9660   25.5520   31.7890 H   0  0  0  0  0  0  0  0  0  0  0  0
   41.1630   22.3540   36.3040 C   0  0  0  0  0  3  0  0  0  0  0  0
   41.5630   21.4520   37.4470 C   0  0  0  0  0  2  0  0  0  0  0  0
   42.5710   20.4560   36.8620 C   0  0  0  0  0  2  0  0  0  0  0  0
   43.7710   21.1710   36.3180 C   0  0  0  0  0  2  0  0  0  0  0  0
   43.4700   22.3570   35.4700 C   0  0  0  0  0  2  0  0  0  0  0  0
   42.3440   23.2230   35.9390 C   0  0  0  0  0  2  0  0  0  0  0  0
  1  2  1  0  0  0  0
  2  7  1  0  0  0  0
  2  3  2  0  0  0  0
  3  8  1  0  0  0  0
  4  3  1  0  0  0  0
  4  9  1  0  0  0  0
  5  4  2  0  0  0  0
  6  1  2  0  0  0  0
  6  5  1  0  0  0  0
 10 16  1  0  0  0  0
 10 11  1  0  0  0  0
 11 17  1  0  0  0  0
 12 11  2  0  0  0  0
 12  1  1  0  0  0  0
 13 12  1  0  0  0  0
 14 15  1  0  0  0  0
 14 13  2  0  0  0  0
 15 10  2  0  0  0  0
 18 14  1  0  0  0  0
 19  5  1  0  0  0  0
 19 20  1  0  0  0  0
 21 20  1  0  0  0  0
 22 21  1  0  0  0  0
 23 24  1  0  0  0  0
 23 22  1  0  0  0  0
 24 19  1  0  0  0  0
M  END
>  <minimizedAffinity>
-5.2584796

$$$$

 OpenBabel03262522383D

 24 26  0  0  0  0  0  0  0  0999 V2000
   35.9920   23.4950   31.6230 C   0  0  0  0  0  0  0  0  0  0  0  0
   35.1930   24.2990   30.8480 C   0  0  0  0  0  0  0  0  0  0  0  0
   35.1960   25.6650   30.8840 C   0  0  0  0  0  0  0  0  0  0  0  0
   36.0550   26.3160   31.7560 C   0  0  0  0  0  0  0  0  0  0  0  0
   36.8610   25.4990   32.5380 C   0  0  0  0  0  0  0  0  0  0  0  0
   36.8260   24.1660   32.4700 N   0  0  0  0  0  0  0  0  0  0  0  0
   34.5080   23.8450   30.1550 H   0  0  0  0  0  0  0  0  0  0  0  0
   34.5400   26.2440   30.2460 H   0  0  0  0  0  0  0  0  0  0  0  0
   36.0860   27.4010   31.8140 H   0  0  0  0  0  0  0  0  0  0  0  0
   35.0840   19.8770   32.0990 C   0  0  0  0  0  0  0  0  0  0  0  0
   34.9990   21.2710   32.2110 C   0  0  0  0  0  0  0  0  0  0  0  0
   35.9790   22.0490   31.5760 C   0  0  0  0  0  0  0  0  0  0  0  0
   36.9580   21.4190   30.8860 N   0  0  0  0  0  0  0  0  0  0  0  0
   37.0180   20.0610   30.7920 C   0  0  0  0  0  0  0  0  0  0  0  0
   36.0900   19.3050   31.3940 N   0  0  0  0  0  0  0  0  0  0  0  0
   34.3280   19.2810   32.5900 H   0  0  0  0  0  0  0  0  0  0  0  0
   34.2120   21.7770   32.7650 H   0  0  0  0  0  0  0  0  0  0  0  0
   37.8420   19.6450   30.2170 H   0  0  0  0  0  0  0  0  0  0  0  0
   37.7750   26.2130   33.4650 C   0  0  0  0  0  3  0  0  0  0  0  0
   38.8830   25.3250   33.9820 C   0  0  0  0  0  2  0  0  0  0  0  0
   39.9070   26.2660   34.6270 C   0  0  0  0  0  2  0  0  0  0  0  0
   39.2870   27.0350   35.7550 C   0  0  0  0  0  2  0  0  0  0  0  0
   37.9580   27.6360   35.4550 C   0  0  0  0  0  2  0  0  0  0  0  0
   37.0280   26.7890   34.6460 C   0  0  0  0  0  2  0  0  0  0  0  0
  1  6  1  0  0  0  0
  2  3  1  0  0  0  0
  2  1  2  0  0  0  0
  3  4  2  0  0  0  0
  4  9  1  0  0  0  0
  4  5  1  0  0  0  0
  5 19  1  0  0  0  0
  6  5  2  0  0  0  0
  7  2  1  0  0  0  0
  8  3  1  0  0  0  0
 10 11  1  0  0  0  0
 10 16  1  0  0  0  0
 11 17  1  0  0  0  0
 12  1  1  0  0  0  0
 12 11  2  0  0  0  0
 13 12  1  0  0  0  0
 14 13  2  0  0  0  0
 14 15  1  0  0  0  0
 15 10  2  0  0  0  0
 18 14  1  0  0  0  0
 19 20  1  0  0  0  0
 19 24  1  0  0  0  0
 20 21  1  0  0  0  0
 21 22  1  0  0  0  0
 23 22  1  0  0  0  0
 24 23  1  0  0  0  0
M  END
>  <minimizedAffinity>
-5.21289968

$$$$

 OpenBabel03262522383D

 24 26  0  0  0  0  0  0  0  0999 V2000
   36.7090   27.8810   33.6960 C   0  0  0  0  0  0  0  0  0  0  0  0
   36.6650   28.1490   32.3500 C   0  0  0  0  0  0  0  0  0  0  0  0
   36.0960   29.2630   31.7970 C   0  0  0  0  0  0  0  0  0  0  0  0
   35.5130   30.2070   32.6280 C   0  0  0  0  0  0  0  0  0  0  0  0
   35.5600   29.9310   33.9880 C   0  0  0  0  0  0  0  0  0  0  0  0
   36.1270   28.8290   34.4860 N   0  0  0  0  0  0  0  0  0  0  0  0
   37.1030   27.4500   31.6610 H   0  0  0  0  0  0  0  0  0  0  0  0
   36.0940   29.4180   30.7260 H   0  0  0  0  0  0  0  0  0  0  0  0
   35.0510   31.1050   32.2260 H   0  0  0  0  0  0  0  0  0  0  0  0
   38.3390   25.4390   36.0460 C   0  0  0  0  0  0  0  0  0  0  0  0
   37.7690   26.6370   35.5960 C   0  0  0  0  0  0  0  0  0  0  0  0
   37.3150   26.6980   34.2690 C   0  0  0  0  0  0  0  0  0  0  0  0
   37.4480   25.6020   33.4870 N   0  0  0  0  0  0  0  0  0  0  0  0
   38.0070   24.4480   33.9500 C   0  0  0  0  0  0  0  0  0  0  0  0
   38.4460   24.3740   35.2150 N   0  0  0  0  0  0  0  0  0  0  0  0
   38.6870   25.3950   37.0680 H   0  0  0  0  0  0  0  0  0  0  0  0
   37.6600   27.5180   36.2230 H   0  0  0  0  0  0  0  0  0  0  0  0
   38.0730   23.6190   33.2500 H   0  0  0  0  0  0  0  0  0  0  0  0
   34.9310   30.9530   34.8630 C   0  0  0  0  0  3  0  0  0  0  0  0
   35.8340   31.3770   35.9980 C   0  0  0  0  0  2  0  0  0  0  0  0
   35.2030   32.6450   36.5850 C   0  0  0  0  0  2  0  0  0  0  0  0
   33.8210   32.3630   37.0960 C   0  0  0  0  0  2  0  0  0  0  0  0
   32.9550   31.5770   36.1750 C   0  0  0  0  0  2  0  0  0  0  0  0
   33.6270   30.4590   35.4450 C   0  0  0  0  0  2  0  0  0  0  0  0
  1 12  1  0  0  0  0
  1  6  1  0  0  0  0
  2  1  2  0  0  0  0
  3  2  1  0  0  0  0
  3  4  2  0  0  0  0
  4  5  1  0  0  0  0
  5  6  2  0  0  0  0
  5 19  1  0  0  0  0
  7  2  1  0  0  0  0
  8  3  1  0  0  0  0
  9  4  1  0  0  0  0
 10 16  1  0  0  0  0
 11 10  1  0  0  0  0
 11 17  1  0  0  0  0
 12 11  2  0  0  0  0
 13 14  2  0  0  0  0
 13 12  1  0  0  0  0
 14 15  1  0  0  0  0
 15 10  2  0  0  0  0
 18 14  1  0  0  0  0
 19 24  1  0  0  0  0
 19 20  1  0  0  0  0
 20 21  1  0  0  0  0
 21 22  1  0  0  0  0
 23 22  1  0  0  0  0
 24 23  1  0  0  0  0
M  END
>  <minimizedAffinity>
-5.19537401

$$$$

 OpenBabel03262522383D

 24 26  0  0  0  0  0  0  0  0999 V2000
   38.3550   24.5700   34.7000 C   0  0  0  0  0  0  0  0  0  0  0  0
   38.8100   23.9430   33.5650 C   0  0  0  0  0  0  0  0  0  0  0  0
   38.5830   24.3820   32.2900 C   0  0  0  0  0  0  0  0  0  0  0  0
   37.8450   25.5390   32.0950 C   0  0  0  0  0  0  0  0  0  0  0  0
   37.3870   26.1690   33.2460 C   0  0  0  0  0  0  0  0  0  0  0  0
   37.6320   25.7050   34.4740 N   0  0  0  0  0  0  0  0  0  0  0  0
   39.3880   23.0420   33.6610 H   0  0  0  0  0  0  0  0  0  0  0  0
   38.9700   23.8420   31.4350 H   0  0  0  0  0  0  0  0  0  0  0  0
   37.6430   25.9190   31.0970 H   0  0  0  0  0  0  0  0  0  0  0  0
   39.8050   22.8360   37.7040 C   0  0  0  0  0  0  0  0  0  0  0  0
   39.6600   23.2320   36.3690 C   0  0  0  0  0  0  0  0  0  0  0  0
   38.6020   24.0950   36.0440 C   0  0  0  0  0  0  0  0  0  0  0  0
   37.7720   24.5030   37.0320 N   0  0  0  0  0  0  0  0  0  0  0  0
   37.9360   24.1020   38.3250 C   0  0  0  0  0  0  0  0  0  0  0  0
   38.9410   23.2780   38.6500 N   0  0  0  0  0  0  0  0  0  0  0  0
   40.6210   22.1720   37.9510 H   0  0  0  0  0  0  0  0  0  0  0  0
   40.3270   22.9050   35.5750 H   0  0  0  0  0  0  0  0  0  0  0  0
   37.2200   24.4810   39.0500 H   0  0  0  0  0  0  0  0  0  0  0  0
   36.5980   27.4060   33.0180 C   0  0  0  0  0  3  0  0  0  0  0  0
   37.1940   28.2800   31.9380 C   0  0  0  0  0  2  0  0  0  0  0  0
   36.1130   29.3100   31.5890 C   0  0  0  0  0  2  0  0  0  0  0  0
   35.7560   30.1340   32.7890 C   0  0  0  0  0  2  0  0  0  0  0  0
   35.5310   29.3630   34.0420 C   0  0  0  0  0  2  0  0  0  0  0  0
   36.4690   28.2230   34.2820 C   0  0  0  0  0  2  0  0  0  0  0  0
  1 12  1  0  0  0  0
  2  7  1  0  0  0  0
  2  1  2  0  0  0  0
  3  2  1  0  0  0  0
  4  3  2  0  0  0  0
  4  5  1  0  0  0  0
  5  6  2  0  0  0  0
  6  1  1  0  0  0  0
  8  3  1  0  0  0  0
  9  4  1  0  0  0  0
 10 16  1  0  0  0  0
 10 15  1  0  0  0  0
 11 10  2  0  0  0  0
 12 11  1  0  0  0  0
 12 13  2  0  0  0  0
 13 14  1  0  0  0  0
 14 15  2  0  0  0  0
 14 18  1  0  0  0  0
 17 11  1  0  0  0  0
 19  5  1  0  0  0  0
 19 24  1  0  0  0  0
 20 19  1  0  0  0  0
 21 20  1  0  0  0  0
 21 22  1  0  0  0  0
 22 23  1  0  0  0  0
 23 24  1  0  0  0  0
M  END
>  <minimizedAffinity>
-5.13096809

$$$$

 OpenBabel03262522383D

 24 26  0  0  0  0  0  0  0  0999 V2000
   36.1740   28.5260   32.1340 C   0  0  0  0  0  0  0  0  0  0  0  0
   36.6080   29.3720   31.1430 C   0  0  0  0  0  0  0  0  0  0  0  0
   36.5100   30.7350   31.1850 C   0  0  0  0  0  0  0  0  0  0  0  0
   35.9370   31.3370   32.2940 C   0  0  0  0  0  0  0  0  0  0  0  0
   35.5000   30.4770   33.2940 C   0  0  0  0  0  0  0  0  0  0  0  0
   35.6150   29.1490   33.2110 N   0  0  0  0  0  0  0  0  0  0  0  0
   37.0600   28.9570   30.2610 H   0  0  0  0  0  0  0  0  0  0  0  0
   36.8730   31.3480   30.3700 H   0  0  0  0  0  0  0  0  0  0  0  0
   35.8420   32.4170   32.3650 H   0  0  0  0  0  0  0  0  0  0  0  0
   35.7110   24.9070   31.2260 C   0  0  0  0  0  0  0  0  0  0  0  0
   35.5250   26.2940   31.1970 C   0  0  0  0  0  0  0  0  0  0  0  0
   36.2820   27.0850   32.0760 C   0  0  0  0  0  0  0  0  0  0  0  0
   37.1540   26.4720   32.9100 N   0  0  0  0  0  0  0  0  0  0  0  0
   37.3170   25.1180   32.9180 C   0  0  0  0  0  0  0  0  0  0  0  0
   36.6000   24.3510   32.0850 N   0  0  0  0  0  0  0  0  0  0  0  0
   35.1270   24.3020   30.5480 H   0  0  0  0  0  0  0  0  0  0  0  0
   34.8250   26.7880   30.5270 H   0  0  0  0  0  0  0  0  0  0  0  0
   38.0400   24.7150   33.6230 H   0  0  0  0  0  0  0  0  0  0  0  0
   34.8880   31.1390   34.4750 C   0  0  0  0  0  3  0  0  0  0  0  0
   35.8680   31.3130   35.6120 C   0  0  0  0  0  2  0  0  0  0  0  0
   35.2070   32.2910   36.5900 C   0  0  0  0  0  2  0  0  0  0  0  0
   33.9100   31.7370   37.1000 C   0  0  0  0  0  2  0  0  0  0  0  0
   33.0150   31.1620   36.0580 C   0  0  0  0  0  2  0  0  0  0  0  0
   33.6910   30.3710   34.9840 C   0  0  0  0  0  2  0  0  0  0  0  0
  1  6  1  0  0  0  0
  2  3  1  0  0  0  0
  2  1  2  0  0  0  0
  3  4  2  0  0  0  0
  4  9  1  0  0  0  0
  4  5  1  0  0  0  0
  5 19  1  0  0  0  0
  6  5  2  0  0  0  0
  7  2  1  0  0  0  0
  8  3  1  0  0  0  0
 10 15  1  0  0  0  0
 11 10  2  0  0  0  0
 11 12  1  0  0  0  0
 12  1  1  0  0  0  0
 12 13  2  0  0  0  0
 13 14  1  0  0  0  0
 14 18  1  0  0  0  0
 15 14  2  0  0  0  0
 16 10  1  0  0  0  0
 17 11  1  0  0  0  0
 19 24  1  0  0  0  0
 19 20  1  0  0  0  0
 20 21  1  0  0  0  0
 21 22  1  0  0  0  0
 23 22  1  0  0  0  0
 24 23  1  0  0  0  0
M  END
>  <minimizedAffinity>
-5.06797552

$$$$

 OpenBabel03262522383D

 24 26  0  0  0  0  0  0  0  0999 V2000
   37.3640   25.5070   32.8080 C   0  0  0  0  0  0  0  0  0  0  0  0
   37.3500   24.3420   32.0810 C   0  0  0  0  0  0  0  0  0  0  0  0
   37.7220   23.1190   32.5650 C   0  0  0  0  0  0  0  0  0  0  0  0
   38.1510   23.0140   33.8800 C   0  0  0  0  0  0  0  0  0  0  0  0
   38.1630   24.1950   34.6110 C   0  0  0  0  0  0  0  0  0  0  0  0
   37.7900   25.3700   34.0970 N   0  0  0  0  0  0  0  0  0  0  0  0
   37.0260   24.3680   31.0570 H   0  0  0  0  0  0  0  0  0  0  0  0
   37.6880   22.2350   31.9410 H   0  0  0  0  0  0  0  0  0  0  0  0
   38.4550   22.0590   34.3010 H   0  0  0  0  0  0  0  0  0  0  0  0
   36.1780   29.0610   32.4840 C   0  0  0  0  0  0  0  0  0  0  0  0
   36.5380   27.8550   33.0990 C   0  0  0  0  0  0  0  0  0  0  0  0
   36.9680   26.7960   32.2840 C   0  0  0  0  0  0  0  0  0  0  0  0
   37.0150   26.9880   30.9450 N   0  0  0  0  0  0  0  0  0  0  0  0
   36.6590   28.1720   30.3720 C   0  0  0  0  0  0  0  0  0  0  0  0
   36.2460   29.1920   31.1370 N   0  0  0  0  0  0  0  0  0  0  0  0
   35.8480   29.8730   33.1150 H   0  0  0  0  0  0  0  0  0  0  0  0
   36.5010   27.7000   34.1750 H   0  0  0  0  0  0  0  0  0  0  0  0
   36.7290   28.2330   29.2880 H   0  0  0  0  0  0  0  0  0  0  0  0
   38.6240   24.0640   36.0160 C   0  0  0  0  0  3  0  0  0  0  0  0
   39.2070   22.7010   36.3080 C   0  0  0  0  0  2  0  0  0  0  0  0
   39.9320   22.8350   37.6520 C   0  0  0  0  0  2  0  0  0  0  0  0
   38.9750   23.2350   38.7350 C   0  0  0  0  0  2  0  0  0  0  0  0
   38.0560   24.3520   38.3850 C   0  0  0  0  0  2  0  0  0  0  0  0
   37.5040   24.3290   36.9950 C   0  0  0  0  0  2  0  0  0  0  0  0
  1  6  1  0  0  0  0
  2  3  1  0  0  0  0
  2  1  2  0  0  0  0
  3  4  2  0  0  0  0
  4  9  1  0  0  0  0
  4  5  1  0  0  0  0
  5 19  1  0  0  0  0
  6  5  2  0  0  0  0
  7  2  1  0  0  0  0
  8  3  1  0  0  0  0
 10 11  1  0  0  0  0
 10 16  1  0  0  0  0
 11 17  1  0  0  0  0
 12  1  1  0  0  0  0
 12 11  2  0  0  0  0
 13 12  1  0  0  0  0
 14 13  2  0  0  0  0
 14 15  1  0  0  0  0
 15 10  2  0  0  0  0
 18 14  1  0  0  0  0
 19 20  1  0  0  0  0
 19 24  1  0  0  0  0
 20 21  1  0  0  0  0
 21 22  1  0  0  0  0
 23 22  1  0  0  0  0
 24 23  1  0  0  0  0
M  END
>  <minimizedAffinity>
-5.06328821

$$$$

 OpenBabel03262522383D

 24 26  0  0  0  0  0  0  0  0999 V2000
   36.0660   28.1700   32.2630 C   0  0  0  0  0  0  0  0  0  0  0  0
   36.3570   29.1190   31.3140 C   0  0  0  0  0  0  0  0  0  0  0  0
   36.2070   30.4660   31.4890 C   0  0  0  0  0  0  0  0  0  0  0  0
   35.7270   30.9410   32.7000 C   0  0  0  0  0  0  0  0  0  0  0  0
   35.4340   29.9780   33.6570 C   0  0  0  0  0  0  0  0  0  0  0  0
   35.5960   28.6690   33.4430 N   0  0  0  0  0  0  0  0  0  0  0  0
   36.7320   28.8040   30.3570 H   0  0  0  0  0  0  0  0  0  0  0  0
   36.4550   31.1650   30.7000 H   0  0  0  0  0  0  0  0  0  0  0  0
   35.5940   32.0050   32.8770 H   0  0  0  0  0  0  0  0  0  0  0  0
   35.7330   24.6400   31.0120 C   0  0  0  0  0  0  0  0  0  0  0  0
   35.4930   26.0160   31.1190 C   0  0  0  0  0  0  0  0  0  0  0  0
   36.2290   26.7460   32.0650 C   0  0  0  0  0  0  0  0  0  0  0  0
   37.1330   26.0910   32.8290 N   0  0  0  0  0  0  0  0  0  0  0  0
   37.3480   24.7500   32.7050 C   0  0  0  0  0  0  0  0  0  0  0  0
   36.6530   24.0390   31.8060 N   0  0  0  0  0  0  0  0  0  0  0  0
   35.1660   24.0810   30.2830 H   0  0  0  0  0  0  0  0  0  0  0  0
   34.7670   26.5430   30.5050 H   0  0  0  0  0  0  0  0  0  0  0  0
   38.0950   24.3100   33.3610 H   0  0  0  0  0  0  0  0  0  0  0  0
   34.9220   30.5040   34.9480 C   0  0  0  0  0  3  0  0  0  0  0  0
   33.4370   30.7810   34.9100 C   0  0  0  0  0  2  0  0  0  0  0  0
   33.0100   30.9790   36.3690 C   0  0  0  0  0  2  0  0  0  0  0  0
   33.7410   32.1350   36.9840 C   0  0  0  0  0  2  0  0  0  0  0  0
   35.2070   32.1630   36.7310 C   0  0  0  0  0  2  0  0  0  0  0  0
   35.6380   31.7710   35.3540 C   0  0  0  0  0  2  0  0  0  0  0  0
  1  6  1  0  0  0  0
  2  3  1  0  0  0  0
  2  1  2  0  0  0  0
  3  4  2  0  0  0  0
  4  9  1  0  0  0  0
  4  5  1  0  0  0  0
  5 19  1  0  0  0  0
  6  5  2  0  0  0  0
  7  2  1  0  0  0  0
  8  3  1  0  0  0  0
 10 11  2  0  0  0  0
 10 15  1  0  0  0  0
 11 12  1  0  0  0  0
 12  1  1  0  0  0  0
 12 13  2  0  0  0  0
 14 13  1  0  0  0  0
 14 18  1  0  0  0  0
 15 14  2  0  0  0  0
 16 10  1  0  0  0  0
 17 11  1  0  0  0  0
 19 24  1  0  0  0  0
 20 19  1  0  0  0  0
 20 21  1  0  0  0  0
 21 22  1  0  0  0  0
 23 22  1  0  0  0  0
 24 23  1  0  0  0  0
M  END
>  <minimizedAffinity>
-5.05898666

$$$$
