
 OpenBabel03272503523D

 25 27  0  0  0  0  0  0  0  0999 V2000
   38.4020   32.2740   48.7690 C   0  0  0  0  0  0  0  0  0  0  0  0
   38.7780   33.2840   49.6500 C   0  0  0  0  0  0  0  0  0  0  0  0
   39.6250   34.3210   49.2310 C   0  0  0  0  0  0  0  0  0  0  0  0
   40.0620   34.2930   47.9190 C   0  0  0  0  0  0  0  0  0  0  0  0
   39.7030   33.3070   47.0370 C   0  0  0  0  0  0  0  0  0  0  0  0
   38.8550   32.2780   47.4770 C   0  0  0  0  0  0  0  0  0  0  0  0
   38.4200   33.2900   50.6900 H   0  0  0  0  0  0  0  0  0  0  0  0
   39.8680   35.0620   49.9700 H   0  0  0  0  0  0  0  0  0  0  0  0
   40.7140   35.1500   47.7080 H   0  0  0  0  0  0  0  0  0  0  0  0
   40.1270   33.4350   46.0660 H   0  0  0  0  0  0  0  0  0  0  0  0
   37.0230   29.2790   50.6100 C   0  0  0  0  0  0  0  0  0  0  0  0
   37.9710   30.2020   50.1240 C   0  0  0  0  0  0  0  0  0  0  0  0
   37.5240   31.2630   49.3170 C   0  0  0  0  0  0  0  0  0  0  0  0
   36.2140   31.3250   49.0610 N   0  0  0  0  0  0  0  0  0  0  0  0
   35.3110   30.4400   49.5280 C   0  0  0  0  0  0  0  0  0  0  0  0
   35.7190   29.4270   50.2950 N   0  0  0  0  0  0  0  0  0  0  0  0
   37.4990   28.5140   51.2170 H   0  0  0  0  0  0  0  0  0  0  0  0
   39.0270   30.1660   50.3210 H   0  0  0  0  0  0  0  0  0  0  0  0
   34.2470   30.5250   49.2960 H   0  0  0  0  0  0  0  0  0  0  0  0
   38.5230   31.2680   46.4740 C   0  0  0  0  0  0  0  0  0  0  0  0
   37.4130   31.6690   45.5220 C   0  0  0  0  0  0  0  0  0  0  0  0
   36.9800   30.3650   44.8480 C   0  0  0  0  0  0  0  0  0  0  0  0
   38.0820   29.9580   43.9290 C   0  0  0  0  0  0  0  0  0  0  0  0
   39.3620   29.7590   44.7050 C   0  0  0  0  0  0  0  0  0  0  0  0
   39.7080   30.9570   45.5570 C   0  0  0  0  0  0  0  0  0  0  0  0
  1 13  1  0  0  0  0
  1  2  1  0  0  0  0
  2  7  1  0  0  0  0
  3  2  2  0  0  0  0
  3  8  1  0  0  0  0
  4  3  1  0  0  0  0
  5  6  1  0  0  0  0
  5  4  2  0  0  0  0
  6  1  2  0  0  0  0
  9  4  1  0  0  0  0
 10  5  1  0  0  0  0
 11 17  1  0  0  0  0
 12 18  1  0  0  0  0
 12 11  2  0  0  0  0
 13 12  1  0  0  0  0
 14 13  2  0  0  0  0
 14 15  1  0  0  0  0
 15 16  2  0  0  0  0
 16 11  1  0  0  0  0
 19 15  1  0  0  0  0
 20  6  1  0  0  0  0
 21 20  1  0  0  0  0
 22 21  1  0  0  0  0
 23 24  1  0  0  0  0
 23 22  1  0  0  0  0
 24 25  1  0  0  0  0
 25 20  1  0  0  0  0
M  END
>  <minimizedAffinity>
-6.0744462

>  <minimizedRMSD>
1.96677256

$$$$
