
 OpenBabel03272506563D

 17 18  0  0  0  0  0  0  0  0999 V2000
   40.7710   22.5820   35.9450 C   0  0  0  0  0  0  0  0  0  0  0  0
   40.6040   22.1690   37.2870 C   0  0  0  0  0  0  0  0  0  0  0  0
   39.5930   22.8130   38.0240 C   0  0  0  0  0  0  0  0  0  0  0  0
   38.8510   23.7720   37.4230 N   0  0  0  0  0  0  0  0  0  0  0  0
   39.0420   24.1340   36.1470 C   0  0  0  0  0  0  0  0  0  0  0  0
   40.0050   23.5420   35.3940 N   0  0  0  0  0  0  0  0  0  0  0  0
   41.5300   22.1250   35.3270 H   0  0  0  0  0  0  0  0  0  0  0  0
   39.4750   22.4900   39.0460 H   0  0  0  0  0  0  0  0  0  0  0  0
   38.1720   25.1820   35.6190 C   0  0  0  0  0  3  0  0  0  0  0  0
   38.1590   26.4530   36.3920 C   0  0  0  0  0  2  0  0  0  0  0  0
   38.1750   27.6180   35.4170 C   0  0  0  0  0  2  0  0  0  0  0  0
   37.1410   27.4520   34.3300 C   0  0  0  0  0  2  0  0  0  0  0  0
   37.2340   26.1300   33.6090 C   0  0  0  0  0  2  0  0  0  0  0  0
   38.4820   25.4490   34.1470 C   0  0  0  0  0  2  0  0  0  0  0  0
   41.4410   21.1450   37.8290 N   0  0  0  0  0  0  0  0  0  0  0  0
   41.6560   21.2140   38.8480 H   0  0  0  0  0  0  0  0  0  0  0  0
   41.7850   20.4000   37.1840 H   0  0  0  0  0  0  0  0  0  0  0  0
  1  2  1  0  0  0  0
  2 15  1  0  0  0  0
  2  3  2  0  0  0  0
  3  8  1  0  0  0  0
  4  3  1  0  0  0  0
  5  4  2  0  0  0  0
  6  1  2  0  0  0  0
  6  5  1  0  0  0  0
  7  1  1  0  0  0  0
  9  5  1  0  0  0  0
  9 10  1  0  0  0  0
 11 10  1  0  0  0  0
 12 11  1  0  0  0  0
 13 14  1  0  0  0  0
 13 12  1  0  0  0  0
 14  9  1  0  0  0  0
 15 16  1  0  0  0  0
 17 15  1  0  0  0  0
M  END
>  <minimizedAffinity>
-4.41034174

$$$$

 OpenBabel03272506563D

 17 18  0  0  0  0  0  0  0  0999 V2000
   37.8660   24.3330   37.5010 C   0  0  0  0  0  0  0  0  0  0  0  0
   38.6540   23.2600   37.9750 C   0  0  0  0  0  0  0  0  0  0  0  0
   39.7900   22.9260   37.2160 C   0  0  0  0  0  0  0  0  0  0  0  0
   40.0630   23.6340   36.0960 N   0  0  0  0  0  0  0  0  0  0  0  0
   39.2890   24.6470   35.6800 C   0  0  0  0  0  0  0  0  0  0  0  0
   38.1820   25.0070   36.3780 N   0  0  0  0  0  0  0  0  0  0  0  0
   36.9810   24.6380   38.0400 H   0  0  0  0  0  0  0  0  0  0  0  0
   40.3830   22.1050   37.5880 H   0  0  0  0  0  0  0  0  0  0  0  0
   39.6960   25.3300   34.4540 C   0  0  0  0  0  3  0  0  0  0  0  0
   38.6700   25.3780   33.3770 C   0  0  0  0  0  2  0  0  0  0  0  0
   38.6850   26.7600   32.7480 C   0  0  0  0  0  2  0  0  0  0  0  0
   40.0860   27.1990   32.3970 C   0  0  0  0  0  2  0  0  0  0  0  0
   41.0510   27.1100   33.5530 C   0  0  0  0  0  2  0  0  0  0  0  0
   40.2150   26.7320   34.7660 C   0  0  0  0  0  2  0  0  0  0  0  0
   38.2800   22.5740   39.1730 N   0  0  0  0  0  0  0  0  0  0  0  0
   38.5230   21.5600   39.2210 H   0  0  0  0  0  0  0  0  0  0  0  0
   37.7910   23.1180   39.9180 H   0  0  0  0  0  0  0  0  0  0  0  0
  1  2  1  0  0  0  0
  1  7  1  0  0  0  0
  2 15  1  0  0  0  0
  3  8  1  0  0  0  0
  3  2  2  0  0  0  0
  4  3  1  0  0  0  0
  5  4  2  0  0  0  0
  5  6  1  0  0  0  0
  6  1  2  0  0  0  0
  9 14  1  0  0  0  0
  9  5  1  0  0  0  0
 10  9  1  0  0  0  0
 11 10  1  0  0  0  0
 12 11  1  0  0  0  0
 12 13  1  0  0  0  0
 13 14  1  0  0  0  0
 15 16  1  0  0  0  0
 15 17  1  0  0  0  0
M  END
>  <minimizedAffinity>
-4.32730961

$$$$

 OpenBabel03272506563D

 17 18  0  0  0  0  0  0  0  0999 V2000
   38.9810   23.1340   37.3300 C   0  0  0  0  0  0  0  0  0  0  0  0
   40.2730   22.6300   37.0580 C   0  0  0  0  0  0  0  0  0  0  0  0
   40.9740   23.2280   35.9950 C   0  0  0  0  0  0  0  0  0  0  0  0
   40.3860   24.2320   35.3040 N   0  0  0  0  0  0  0  0  0  0  0  0
   39.1570   24.6820   35.5950 C   0  0  0  0  0  0  0  0  0  0  0  0
   38.4410   24.1370   36.6120 N   0  0  0  0  0  0  0  0  0  0  0  0
   38.3930   22.7170   38.1350 H   0  0  0  0  0  0  0  0  0  0  0  0
   41.9580   22.8350   35.7970 H   0  0  0  0  0  0  0  0  0  0  0  0
   38.6390   25.7720   34.7710 C   0  0  0  0  0  3  0  0  0  0  0  0
   38.4530   25.4530   33.3300 C   0  0  0  0  0  2  0  0  0  0  0  0
   37.1400   26.0540   32.8610 C   0  0  0  0  0  2  0  0  0  0  0  0
   37.0050   27.4980   33.2790 C   0  0  0  0  0  2  0  0  0  0  0  0
   37.2150   27.7180   34.7570 C   0  0  0  0  0  2  0  0  0  0  0  0
   37.3510   26.3330   35.3690 C   0  0  0  0  0  2  0  0  0  0  0  0
   40.8060   21.5640   37.8480 N   0  0  0  0  0  0  0  0  0  0  0  0
   41.4550   20.9070   37.3630 H   0  0  0  0  0  0  0  0  0  0  0  0
   40.5170   21.5050   38.8500 H   0  0  0  0  0  0  0  0  0  0  0  0
  1  7  1  0  0  0  0
  2  1  1  0  0  0  0
  2 15  1  0  0  0  0
  3  2  2  0  0  0  0
  4  5  2  0  0  0  0
  4  3  1  0  0  0  0
  5  6  1  0  0  0  0
  6  1  2  0  0  0  0
  8  3  1  0  0  0  0
  9 14  1  0  0  0  0
  9  5  1  0  0  0  0
 10  9  1  0  0  0  0
 11 12  1  0  0  0  0
 11 10  1  0  0  0  0
 12 13  1  0  0  0  0
 13 14  1  0  0  0  0
 15 17  1  0  0  0  0
 16 15  1  0  0  0  0
M  END
>  <minimizedAffinity>
-4.24983358

$$$$

 OpenBabel03272506563D

 17 18  0  0  0  0  0  0  0  0999 V2000
   39.0080   23.1560   37.4090 C   0  0  0  0  0  0  0  0  0  0  0  0
   40.2820   22.6180   37.1160 C   0  0  0  0  0  0  0  0  0  0  0  0
   40.9720   23.1840   36.0280 C   0  0  0  0  0  0  0  0  0  0  0  0
   40.3930   24.1900   35.3360 N   0  0  0  0  0  0  0  0  0  0  0  0
   39.1810   24.6730   35.6460 C   0  0  0  0  0  0  0  0  0  0  0  0
   38.4760   24.1600   36.6860 N   0  0  0  0  0  0  0  0  0  0  0  0
   38.4280   22.7640   38.2320 H   0  0  0  0  0  0  0  0  0  0  0  0
   41.9430   22.7640   35.8160 H   0  0  0  0  0  0  0  0  0  0  0  0
   38.6700   25.7620   34.8170 C   0  0  0  0  0  3  0  0  0  0  0  0
   39.6790   26.7680   34.3880 C   0  0  0  0  0  2  0  0  0  0  0  0
   39.4280   27.1230   32.9330 C   0  0  0  0  0  2  0  0  0  0  0  0
   37.9740   27.4410   32.6790 C   0  0  0  0  0  2  0  0  0  0  0  0
   37.0320   26.3630   33.1530 C   0  0  0  0  0  2  0  0  0  0  0  0
   37.9120   25.2110   33.6110 C   0  0  0  0  0  2  0  0  0  0  0  0
   40.8070   21.5510   37.9110 N   0  0  0  0  0  0  0  0  0  0  0  0
   41.4300   20.8720   37.4220 H   0  0  0  0  0  0  0  0  0  0  0  0
   40.5390   21.5130   38.9200 H   0  0  0  0  0  0  0  0  0  0  0  0
  1  7  1  0  0  0  0
  2  1  1  0  0  0  0
  2 15  1  0  0  0  0
  3  2  2  0  0  0  0
  4  5  2  0  0  0  0
  4  3  1  0  0  0  0
  5  6  1  0  0  0  0
  6  1  2  0  0  0  0
  8  3  1  0  0  0  0
  9  5  1  0  0  0  0
 10  9  1  0  0  0  0
 11 10  1  0  0  0  0
 12 11  1  0  0  0  0
 12 13  1  0  0  0  0
 13 14  1  0  0  0  0
 14  9  1  0  0  0  0
 15 17  1  0  0  0  0
 16 15  1  0  0  0  0
M  END
>  <minimizedAffinity>
-4.23829842

$$$$

 OpenBabel03272506563D

 17 18  0  0  0  0  0  0  0  0999 V2000
   36.5020   27.9860   32.3500 C   0  0  0  0  0  0  0  0  0  0  0  0
   36.1710   28.6640   31.1550 C   0  0  0  0  0  0  0  0  0  0  0  0
   35.4780   29.8820   31.2910 C   0  0  0  0  0  0  0  0  0  0  0  0
   35.1730   30.3290   32.5310 N   0  0  0  0  0  0  0  0  0  0  0  0
   35.5060   29.6540   33.6400 C   0  0  0  0  0  0  0  0  0  0  0  0
   36.1740   28.4750   33.5610 N   0  0  0  0  0  0  0  0  0  0  0  0
   37.0340   27.0460   32.3130 H   0  0  0  0  0  0  0  0  0  0  0  0
   35.2320   30.3890   30.3720 H   0  0  0  0  0  0  0  0  0  0  0  0
   35.1170   30.2480   34.9170 C   0  0  0  0  0  3  0  0  0  0  0  0
   36.1790   31.0220   35.6140 C   0  0  0  0  0  2  0  0  0  0  0  0
   35.5660   32.2880   36.1870 C   0  0  0  0  0  2  0  0  0  0  0  0
   34.2980   31.9980   36.9530 C   0  0  0  0  0  2  0  0  0  0  0  0
   33.2870   31.2050   36.1630 C   0  0  0  0  0  2  0  0  0  0  0  0
   33.8530   31.0910   34.7560 C   0  0  0  0  0  2  0  0  0  0  0  0
   36.5400   28.1070   29.8920 N   0  0  0  0  0  0  0  0  0  0  0  0
   35.8990   28.3060   29.0920 H   0  0  0  0  0  0  0  0  0  0  0  0
   37.4150   27.5400   29.8420 H   0  0  0  0  0  0  0  0  0  0  0  0
  1  6  1  0  0  0  0
  2  3  1  0  0  0  0
  2  1  2  0  0  0  0
  3  4  2  0  0  0  0
  4  5  1  0  0  0  0
  5  9  1  0  0  0  0
  6  5  2  0  0  0  0
  7  1  1  0  0  0  0
  8  3  1  0  0  0  0
  9 10  1  0  0  0  0
 10 11  1  0  0  0  0
 11 12  1  0  0  0  0
 13 12  1  0  0  0  0
 14  9  1  0  0  0  0
 14 13  1  0  0  0  0
 15  2  1  0  0  0  0
 16 15  1  0  0  0  0
 17 15  1  0  0  0  0
M  END
>  <minimizedAffinity>
-4.22626781

$$$$

 OpenBabel03272506563D

 17 18  0  0  0  0  0  0  0  0999 V2000
   37.0210   26.3340   33.0300 C   0  0  0  0  0  0  0  0  0  0  0  0
   36.8460   25.3430   32.0370 C   0  0  0  0  0  0  0  0  0  0  0  0
   37.2840   24.0440   32.3570 C   0  0  0  0  0  0  0  0  0  0  0  0
   37.8380   23.8180   33.5700 N   0  0  0  0  0  0  0  0  0  0  0  0
   37.9860   24.7870   34.4840 C   0  0  0  0  0  0  0  0  0  0  0  0
   37.5790   26.0560   34.2240 N   0  0  0  0  0  0  0  0  0  0  0  0
   36.7050   27.3500   32.8450 H   0  0  0  0  0  0  0  0  0  0  0  0
   37.1450   23.2980   31.5910 H   0  0  0  0  0  0  0  0  0  0  0  0
   38.6000   24.4090   35.7560 C   0  0  0  0  0  3  0  0  0  0  0  0
   37.9920   25.0230   36.9670 C   0  0  0  0  0  2  0  0  0  0  0  0
   37.8950   23.9670   38.0540 C   0  0  0  0  0  2  0  0  0  0  0  0
   39.1960   23.2220   38.2280 C   0  0  0  0  0  2  0  0  0  0  0  0
   39.7320   22.6410   36.9430 C   0  0  0  0  0  2  0  0  0  0  0  0
   38.6590   22.8890   35.8940 C   0  0  0  0  0  2  0  0  0  0  0  0
   36.2490   25.6840   30.7840 N   0  0  0  0  0  0  0  0  0  0  0  0
   36.5750   25.1450   29.9530 H   0  0  0  0  0  0  0  0  0  0  0  0
   35.5310   26.4430   30.7730 H   0  0  0  0  0  0  0  0  0  0  0  0
  1  6  1  0  0  0  0
  2  3  1  0  0  0  0
  2  1  2  0  0  0  0
  3  4  2  0  0  0  0
  4  5  1  0  0  0  0
  5  9  1  0  0  0  0
  6  5  2  0  0  0  0
  7  1  1  0  0  0  0
  8  3  1  0  0  0  0
  9 14  1  0  0  0  0
  9 10  1  0  0  0  0
 10 11  1  0  0  0  0
 11 12  1  0  0  0  0
 13 12  1  0  0  0  0
 14 13  1  0  0  0  0
 15  2  1  0  0  0  0
 16 15  1  0  0  0  0
 17 15  1  0  0  0  0
M  END
>  <minimizedAffinity>
-4.21940327

$$$$

 OpenBabel03272506563D

 17 18  0  0  0  0  0  0  0  0999 V2000
   39.5330   22.9990   36.7980 C   0  0  0  0  0  0  0  0  0  0  0  0
   38.6210   23.3630   37.8140 C   0  0  0  0  0  0  0  0  0  0  0  0
   37.7720   24.4520   37.5410 C   0  0  0  0  0  0  0  0  0  0  0  0
   37.8710   25.0780   36.3460 N   0  0  0  0  0  0  0  0  0  0  0  0
   38.7510   24.7000   35.4080 C   0  0  0  0  0  0  0  0  0  0  0  0
   39.5920   23.6560   35.6240 N   0  0  0  0  0  0  0  0  0  0  0  0
   40.2110   22.1720   36.9470 H   0  0  0  0  0  0  0  0  0  0  0  0
   37.0810   24.7200   38.3250 H   0  0  0  0  0  0  0  0  0  0  0  0
   38.7560   25.4610   34.1600 C   0  0  0  0  0  3  0  0  0  0  0  0
   37.4150   25.7730   33.5960 C   0  0  0  0  0  2  0  0  0  0  0  0
   37.4180   27.2040   33.0890 C   0  0  0  0  0  2  0  0  0  0  0  0
   38.6230   27.4880   32.2240 C   0  0  0  0  0  2  0  0  0  0  0  0
   39.9320   27.1340   32.8830 C   0  0  0  0  0  2  0  0  0  0  0  0
   39.5870   26.7340   34.3090 C   0  0  0  0  0  2  0  0  0  0  0  0
   38.5950   22.6360   39.0450 N   0  0  0  0  0  0  0  0  0  0  0  0
   38.3330   23.1770   39.8980 H   0  0  0  0  0  0  0  0  0  0  0  0
   38.8360   21.6200   39.0200 H   0  0  0  0  0  0  0  0  0  0  0  0
  1  7  1  0  0  0  0
  1  2  1  0  0  0  0
  2 15  1  0  0  0  0
  3  2  2  0  0  0  0
  3  8  1  0  0  0  0
  4  3  1  0  0  0  0
  5  6  1  0  0  0  0
  5  4  2  0  0  0  0
  6  1  2  0  0  0  0
  9 14  1  0  0  0  0
  9  5  1  0  0  0  0
 10  9  1  0  0  0  0
 11 10  1  0  0  0  0
 12 13  1  0  0  0  0
 12 11  1  0  0  0  0
 13 14  1  0  0  0  0
 15 16  1  0  0  0  0
 17 15  1  0  0  0  0
M  END
>  <minimizedAffinity>
-4.21461153

$$$$

 OpenBabel03272506563D

 17 18  0  0  0  0  0  0  0  0999 V2000
   35.0130   25.2170   30.8790 C   0  0  0  0  0  0  0  0  0  0  0  0
   36.2350   25.9260   30.8240 C   0  0  0  0  0  0  0  0  0  0  0  0
   37.3930   25.2200   31.1990 C   0  0  0  0  0  0  0  0  0  0  0  0
   37.2780   23.9280   31.5850 N   0  0  0  0  0  0  0  0  0  0  0  0
   36.0990   23.2920   31.6230 C   0  0  0  0  0  0  0  0  0  0  0  0
   34.9540   23.9300   31.2710 N   0  0  0  0  0  0  0  0  0  0  0  0
   34.0890   25.7030   30.6030 H   0  0  0  0  0  0  0  0  0  0  0  0
   38.3180   25.7720   31.1530 H   0  0  0  0  0  0  0  0  0  0  0  0
   36.1140   21.8970   32.0580 C   0  0  0  0  0  3  0  0  0  0  0  0
   36.7140   21.6500   33.3980 C   0  0  0  0  0  2  0  0  0  0  0  0
   35.8580   20.6370   34.1370 C   0  0  0  0  0  2  0  0  0  0  0  0
   35.5470   19.4340   33.2790 C   0  0  0  0  0  2  0  0  0  0  0  0
   34.9470   19.7890   31.9420 C   0  0  0  0  0  2  0  0  0  0  0  0
   34.7140   21.2920   31.9750 C   0  0  0  0  0  2  0  0  0  0  0  0
   36.2500   27.2920   30.4020 N   0  0  0  0  0  0  0  0  0  0  0  0
   36.9810   27.9010   30.8280 H   0  0  0  0  0  0  0  0  0  0  0  0
   35.5370   27.5970   29.7020 H   0  0  0  0  0  0  0  0  0  0  0  0
  1  6  1  0  0  0  0
  2  1  2  0  0  0  0
  2  3  1  0  0  0  0
  3  4  2  0  0  0  0
  4  5  1  0  0  0  0
  5  9  1  0  0  0  0
  6  5  2  0  0  0  0
  7  1  1  0  0  0  0
  8  3  1  0  0  0  0
  9 10  1  0  0  0  0
 10 11  1  0  0  0  0
 12 11  1  0  0  0  0
 13 14  1  0  0  0  0
 13 12  1  0  0  0  0
 14  9  1  0  0  0  0
 15  2  1  0  0  0  0
 15 16  1  0  0  0  0
 17 15  1  0  0  0  0
M  END
>  <minimizedAffinity>
-4.18772364

$$$$

 OpenBabel03272506563D

 17 18  0  0  0  0  0  0  0  0999 V2000
   38.7780   24.0260   32.1390 C   0  0  0  0  0  0  0  0  0  0  0  0
   37.7860   24.9850   31.8310 C   0  0  0  0  0  0  0  0  0  0  0  0
   37.2150   25.6730   32.9180 C   0  0  0  0  0  0  0  0  0  0  0  0
   37.6360   25.3880   34.1710 N   0  0  0  0  0  0  0  0  0  0  0  0
   38.5810   24.4700   34.4200 C   0  0  0  0  0  0  0  0  0  0  0  0
   39.1620   23.7790   33.4050 N   0  0  0  0  0  0  0  0  0  0  0  0
   39.2540   23.4640   31.3490 H   0  0  0  0  0  0  0  0  0  0  0  0
   36.4590   26.4020   32.6700 H   0  0  0  0  0  0  0  0  0  0  0  0
   38.9460   24.2580   35.8190 C   0  0  0  0  0  3  0  0  0  0  0  0
   38.0720   24.9320   36.8170 C   0  0  0  0  0  2  0  0  0  0  0  0
   37.8180   23.9760   37.9690 C   0  0  0  0  0  2  0  0  0  0  0  0
   39.0980   23.3510   38.4700 C   0  0  0  0  0  2  0  0  0  0  0  0
   39.9130   22.6980   37.3820 C   0  0  0  0  0  2  0  0  0  0  0  0
   39.0620   22.7660   36.1240 C   0  0  0  0  0  2  0  0  0  0  0  0
   37.4100   25.2130   30.4710 N   0  0  0  0  0  0  0  0  0  0  0  0
   36.4180   25.4920   30.3050 H   0  0  0  0  0  0  0  0  0  0  0  0
   38.1380   25.0880   29.7330 H   0  0  0  0  0  0  0  0  0  0  0  0
  1  6  1  0  0  0  0
  2  1  2  0  0  0  0
  2  3  1  0  0  0  0
  3  4  2  0  0  0  0
  4  5  1  0  0  0  0
  5  9  1  0  0  0  0
  6  5  2  0  0  0  0
  7  1  1  0  0  0  0
  8  3  1  0  0  0  0
  9 14  1  0  0  0  0
  9 10  1  0  0  0  0
 10 11  1  0  0  0  0
 11 12  1  0  0  0  0
 13 12  1  0  0  0  0
 14 13  1  0  0  0  0
 15  2  1  0  0  0  0
 16 15  1  0  0  0  0
 17 15  1  0  0  0  0
M  END
>  <minimizedAffinity>
-4.09423923

$$$$
