
 OpenBabel03272500283D

 31 33  0  0  0  0  0  0  0  0999 V2000
   38.0460   26.3870   32.7350 C   0  0  0  0  0  0  0  0  0  0  0  0
   39.0850   25.9540   32.6180 H   0  0  0  0  0  0  0  0  0  0  0  0
   38.1010   27.3050   32.0770 H   0  0  0  0  0  0  0  0  0  0  0  0
   37.0930   25.4950   32.1550 C   0  0  0  0  0  0  0  0  0  0  0  0
   35.9970   25.9850   31.5210 C   0  0  0  0  0  0  0  0  0  0  0  0
   35.0280   25.1650   30.9360 C   0  0  0  0  0  0  0  0  0  0  0  0
   35.2900   23.7980   31.0630 N   0  0  0  0  0  0  0  0  0  0  0  0
   36.3780   23.3310   31.6930 C   0  0  0  0  0  0  0  0  0  0  0  0
   37.2640   24.1960   32.2300 N   0  0  0  0  0  0  0  0  0  0  0  0
   35.7300   27.0240   31.3830 H   0  0  0  0  0  0  0  0  0  0  0  0
   34.1480   25.4960   30.4270 H   0  0  0  0  0  0  0  0  0  0  0  0
   36.5760   21.8530   31.7810 C   0  0  0  0  0  3  0  0  0  0  0  0
   36.9680   21.4600   33.1680 C   0  0  0  0  0  2  0  0  0  0  0  0
   35.8510   20.8500   33.9750 C   0  0  0  0  0  2  0  0  0  0  0  0
   35.4610   19.5910   33.1890 C   0  0  0  0  0  2  0  0  0  0  0  0
   34.6990   20.1550   31.9970 C   0  0  0  0  0  2  0  0  0  0  0  0
   35.4790   21.0740   31.1460 C   0  0  0  0  0  2  0  0  0  0  0  0
   37.9350   26.8120   34.1320 C   0  0  0  0  0  0  0  0  0  0  0  0
   38.5700   27.7230   34.3420 H   0  0  0  0  0  0  0  0  0  0  0  0
   36.9030   27.1580   34.3480 H   0  0  0  0  0  0  0  0  0  0  0  0
   38.3180   25.7940   35.1350 C   0  0  0  0  0  0  0  0  0  0  0  0
   39.4000   24.9590   34.9110 C   0  0  0  0  0  0  0  0  0  0  0  0
   39.5090   24.1320   35.9980 C   0  0  0  0  0  0  0  0  0  0  0  0
   38.5340   24.4550   36.8410 N   0  0  0  0  0  0  0  0  0  0  0  0
   37.8430   25.4390   36.3130 N   0  0  0  0  0  0  0  0  0  0  0  0
   40.0910   24.8990   34.0610 H   0  0  0  0  0  0  0  0  0  0  0  0
   40.2540   23.3390   36.1690 H   0  0  0  0  0  0  0  0  0  0  0  0
   38.2380   23.8520   38.1420 C   0  0  0  0  0  0  0  0  0  0  0  0
   39.3660   23.2940   38.6780 F   0  0  0  0  0  0  0  0  0  0  0  0
   37.2510   22.8970   38.0580 F   0  0  0  0  0  0  0  0  0  0  0  0
   37.8120   24.8300   39.0440 F   0  0  0  0  0  0  0  0  0  0  0  0
  1 18  1  0  0  0  0
  2  1  1  0  0  0  0
  3  1  1  0  0  0  0
  4  9  1  0  0  0  0
  4  1  1  0  0  0  0
  5  4  2  0  0  0  0
  6  7  2  0  0  0  0
  6  5  1  0  0  0  0
  7  8  1  0  0  0  0
  8 12  1  0  0  0  0
  8  9  2  0  0  0  0
 10  5  1  0  0  0  0
 11  6  1  0  0  0  0
 12 13  1  0  0  0  0
 13 14  1  0  0  0  0
 15 14  1  0  0  0  0
 16 15  1  0  0  0  0
 17 12  1  0  0  0  0
 17 16  1  0  0  0  0
 18 19  1  0  0  0  0
 18 20  1  0  0  0  0
 18 21  1  0  0  0  0
 21 25  2  0  0  0  0
 22 21  1  0  0  0  0
 22 23  2  0  0  0  0
 23 27  1  0  0  0  0
 23 24  1  0  0  0  0
 24 28  1  0  0  0  0
 25 24  1  0  0  0  0
 26 22  1  0  0  0  0
 28 29  1  0  0  0  0
 28 31  1  0  0  0  0
 30 28  1  0  0  0  0
M  END
>  <minimizedAffinity>
-6.30413342

$$$$

 OpenBabel03272500283D

 31 33  0  0  0  0  0  0  0  0999 V2000
   37.2570   22.0840   32.4230 C   0  0  0  0  0  0  0  0  0  0  0  0
   36.8500   21.3750   31.6400 H   0  0  0  0  0  0  0  0  0  0  0  0
   38.3670   22.0550   32.2080 H   0  0  0  0  0  0  0  0  0  0  0  0
   36.7980   23.4090   32.1470 C   0  0  0  0  0  0  0  0  0  0  0  0
   35.7910   23.6120   31.2600 C   0  0  0  0  0  0  0  0  0  0  0  0
   35.2980   24.8820   30.9470 C   0  0  0  0  0  0  0  0  0  0  0  0
   35.9370   25.9220   31.6290 N   0  0  0  0  0  0  0  0  0  0  0  0
   36.9320   25.7030   32.5030 C   0  0  0  0  0  0  0  0  0  0  0  0
   37.3440   24.4410   32.7450 N   0  0  0  0  0  0  0  0  0  0  0  0
   35.2510   22.8610   30.6990 H   0  0  0  0  0  0  0  0  0  0  0  0
   34.5110   25.0990   30.2580 H   0  0  0  0  0  0  0  0  0  0  0  0
   37.5550   26.8760   33.1850 C   0  0  0  0  0  3  0  0  0  0  0  0
   36.9120   27.1100   34.5130 C   0  0  0  0  0  2  0  0  0  0  0  0
   37.7290   26.6330   35.6860 C   0  0  0  0  0  2  0  0  0  0  0  0
   39.0230   27.4550   35.6040 C   0  0  0  0  0  2  0  0  0  0  0  0
   39.7630   26.8130   34.4390 C   0  0  0  0  0  2  0  0  0  0  0  0
   39.0420   26.8540   33.1520 C   0  0  0  0  0  2  0  0  0  0  0  0
   37.0080   21.4490   33.7180 C   0  0  0  0  0  0  0  0  0  0  0  0
   35.9120   21.4780   33.9930 H   0  0  0  0  0  0  0  0  0  0  0  0
   37.2350   20.3640   33.6640 H   0  0  0  0  0  0  0  0  0  0  0  0
   37.7420   22.0350   34.8610 C   0  0  0  0  0  0  0  0  0  0  0  0
   39.1100   22.2380   34.7890 C   0  0  0  0  0  0  0  0  0  0  0  0
   39.5050   22.7850   35.9810 C   0  0  0  0  0  0  0  0  0  0  0  0
   38.4210   22.9070   36.7400 N   0  0  0  0  0  0  0  0  0  0  0  0
   37.3900   22.4590   36.0600 N   0  0  0  0  0  0  0  0  0  0  0  0
   39.8190   22.0320   33.9780 H   0  0  0  0  0  0  0  0  0  0  0  0
   40.5220   23.0790   36.2830 H   0  0  0  0  0  0  0  0  0  0  0  0
   38.3350   23.4400   38.1010 C   0  0  0  0  0  0  0  0  0  0  0  0
   37.3500   22.8010   38.8030 F   0  0  0  0  0  0  0  0  0  0  0  0
   38.0980   24.7950   38.1130 F   0  0  0  0  0  0  0  0  0  0  0  0
   39.5280   23.2080   38.7900 F   0  0  0  0  0  0  0  0  0  0  0  0
  1 18  1  0  0  0  0
  2  1  1  0  0  0  0
  3  1  1  0  0  0  0
  4  1  1  0  0  0  0
  4  9  1  0  0  0  0
  5  4  2  0  0  0  0
  6  5  1  0  0  0  0
  6  7  2  0  0  0  0
  7  8  1  0  0  0  0
  8  9  2  0  0  0  0
  8 12  1  0  0  0  0
 10  5  1  0  0  0  0
 11  6  1  0  0  0  0
 12 13  1  0  0  0  0
 13 14  1  0  0  0  0
 15 14  1  0  0  0  0
 16 15  1  0  0  0  0
 17 12  1  0  0  0  0
 17 16  1  0  0  0  0
 18 19  1  0  0  0  0
 18 21  1  0  0  0  0
 20 18  1  0  0  0  0
 21 25  2  0  0  0  0
 22 21  1  0  0  0  0
 22 23  2  0  0  0  0
 23 27  1  0  0  0  0
 23 24  1  0  0  0  0
 24 28  1  0  0  0  0
 25 24  1  0  0  0  0
 26 22  1  0  0  0  0
 28 30  1  0  0  0  0
 28 31  1  0  0  0  0
 28 29  1  0  0  0  0
M  END
>  <minimizedAffinity>
-6.17965269

$$$$

 OpenBabel03272500283D

 31 33  0  0  0  0  0  0  0  0999 V2000
   37.8240   22.9110   32.5210 C   0  0  0  0  0  0  0  0  0  0  0  0
   37.8580   22.1740   31.6630 H   0  0  0  0  0  0  0  0  0  0  0  0
   38.9000   23.2530   32.5770 H   0  0  0  0  0  0  0  0  0  0  0  0
   37.0300   24.0380   32.1470 C   0  0  0  0  0  0  0  0  0  0  0  0
   35.9250   23.8700   31.3770 C   0  0  0  0  0  0  0  0  0  0  0  0
   35.1080   24.9310   30.9770 C   0  0  0  0  0  0  0  0  0  0  0  0
   35.5340   26.1800   31.4390 N   0  0  0  0  0  0  0  0  0  0  0  0
   36.6300   26.3280   32.1990 C   0  0  0  0  0  0  0  0  0  0  0  0
   37.3600   25.2460   32.5400 N   0  0  0  0  0  0  0  0  0  0  0  0
   35.5350   22.9400   30.9860 H   0  0  0  0  0  0  0  0  0  0  0  0
   34.2300   24.8560   30.3730 H   0  0  0  0  0  0  0  0  0  0  0  0
   37.0090   27.7020   32.6480 C   0  0  0  0  0  3  0  0  0  0  0  0
   36.6890   28.7040   31.5870 C   0  0  0  0  0  2  0  0  0  0  0  0
   35.4430   29.5070   31.8540 C   0  0  0  0  0  2  0  0  0  0  0  0
   35.7420   30.2450   33.1660 C   0  0  0  0  0  2  0  0  0  0  0  0
   35.6230   29.1450   34.2120 C   0  0  0  0  0  2  0  0  0  0  0  0
   36.5550   28.0160   34.0290 C   0  0  0  0  0  2  0  0  0  0  0  0
   37.5130   22.1280   33.7190 C   0  0  0  0  0  0  0  0  0  0  0  0
   36.3980   22.0490   33.8880 H   0  0  0  0  0  0  0  0  0  0  0  0
   37.8320   21.0740   33.5830 H   0  0  0  0  0  0  0  0  0  0  0  0
   38.0910   22.6450   34.9790 C   0  0  0  0  0  0  0  0  0  0  0  0
   39.4060   23.0800   35.0230 C   0  0  0  0  0  0  0  0  0  0  0  0
   39.6560   23.4940   36.3050 C   0  0  0  0  0  0  0  0  0  0  0  0
   38.5400   23.3160   37.0040 N   0  0  0  0  0  0  0  0  0  0  0  0
   37.6280   22.8140   36.2030 N   0  0  0  0  0  0  0  0  0  0  0  0
   40.1690   23.1210   34.2370 H   0  0  0  0  0  0  0  0  0  0  0  0
   40.5950   23.9020   36.7100 H   0  0  0  0  0  0  0  0  0  0  0  0
   38.3130   23.6110   38.4200 C   0  0  0  0  0  0  0  0  0  0  0  0
   39.4740   23.4730   39.1290 F   0  0  0  0  0  0  0  0  0  0  0  0
   37.3440   22.8020   38.9690 F   0  0  0  0  0  0  0  0  0  0  0  0
   37.9050   24.9370   38.5800 F   0  0  0  0  0  0  0  0  0  0  0  0
  1  3  1  0  0  0  0
  1 18  1  0  0  0  0
  2  1  1  0  0  0  0
  4  1  1  0  0  0  0
  4  9  1  0  0  0  0
  5  4  2  0  0  0  0
  6  5  1  0  0  0  0
  6  7  2  0  0  0  0
  7  8  1  0  0  0  0
  8  9  2  0  0  0  0
  8 12  1  0  0  0  0
 10  5  1  0  0  0  0
 11  6  1  0  0  0  0
 12 17  1  0  0  0  0
 13 14  1  0  0  0  0
 13 12  1  0  0  0  0
 14 15  1  0  0  0  0
 15 16  1  0  0  0  0
 17 16  1  0  0  0  0
 18 19  1  0  0  0  0
 18 21  1  0  0  0  0
 20 18  1  0  0  0  0
 21 22  1  0  0  0  0
 21 25  2  0  0  0  0
 22 23  2  0  0  0  0
 23 27  1  0  0  0  0
 23 24  1  0  0  0  0
 24 28  1  0  0  0  0
 25 24  1  0  0  0  0
 26 22  1  0  0  0  0
 28 31  1  0  0  0  0
 28 30  1  0  0  0  0
 28 29  1  0  0  0  0
M  END
>  <minimizedAffinity>
-6.08126307

$$$$

 OpenBabel03272500283D

 31 33  0  0  0  0  0  0  0  0999 V2000
   37.1920   26.8380   33.2700 C   0  0  0  0  0  0  0  0  0  0  0  0
   36.3110   26.2470   33.6650 H   0  0  0  0  0  0  0  0  0  0  0  0
   37.6050   26.1410   32.4820 H   0  0  0  0  0  0  0  0  0  0  0  0
   36.7170   28.0100   32.6060 C   0  0  0  0  0  0  0  0  0  0  0  0
   36.7650   28.0940   31.2520 C   0  0  0  0  0  0  0  0  0  0  0  0
   36.3180   29.2130   30.5430 C   0  0  0  0  0  0  0  0  0  0  0  0
   35.8200   30.2360   31.3550 N   0  0  0  0  0  0  0  0  0  0  0  0
   35.7800   30.1370   32.6930 C   0  0  0  0  0  0  0  0  0  0  0  0
   36.2330   29.0170   33.2940 N   0  0  0  0  0  0  0  0  0  0  0  0
   37.1330   27.3470   30.5620 H   0  0  0  0  0  0  0  0  0  0  0  0
   36.3330   29.3330   29.4810 H   0  0  0  0  0  0  0  0  0  0  0  0
   35.2300   31.2810   33.4800 C   0  0  0  0  0  3  0  0  0  0  0  0
   35.0050   30.8770   34.9000 C   0  0  0  0  0  2  0  0  0  0  0  0
   36.0540   31.3790   35.8580 C   0  0  0  0  0  2  0  0  0  0  0  0
   35.9620   32.9080   35.7510 C   0  0  0  0  0  2  0  0  0  0  0  0
   36.6160   33.1960   34.4070 C   0  0  0  0  0  2  0  0  0  0  0  0
   35.9590   32.5570   33.2510 C   0  0  0  0  0  2  0  0  0  0  0  0
   38.1510   26.9270   34.3730 C   0  0  0  0  0  0  0  0  0  0  0  0
   39.2060   27.0810   33.9970 H   0  0  0  0  0  0  0  0  0  0  0  0
   37.9560   27.8350   34.9800 H   0  0  0  0  0  0  0  0  0  0  0  0
   38.1940   25.7510   35.2700 C   0  0  0  0  0  0  0  0  0  0  0  0
   38.2580   24.4700   34.7480 C   0  0  0  0  0  0  0  0  0  0  0  0
   38.2830   23.6000   35.8050 C   0  0  0  0  0  0  0  0  0  0  0  0
   38.2360   24.3250   36.9170 N   0  0  0  0  0  0  0  0  0  0  0  0
   38.1830   25.5930   36.5800 N   0  0  0  0  0  0  0  0  0  0  0  0
   38.2870   24.1250   33.7070 H   0  0  0  0  0  0  0  0  0  0  0  0
   38.3330   22.5000   35.7710 H   0  0  0  0  0  0  0  0  0  0  0  0
   38.2380   23.8460   38.3010 C   0  0  0  0  0  0  0  0  0  0  0  0
   39.4580   23.3160   38.6210 F   0  0  0  0  0  0  0  0  0  0  0  0
   37.2590   22.9040   38.5250 F   0  0  0  0  0  0  0  0  0  0  0  0
   38.0220   24.9070   39.1830 F   0  0  0  0  0  0  0  0  0  0  0  0
  1  2  1  0  0  0  0
  1 18  1  0  0  0  0
  3  1  1  0  0  0  0
  4  1  1  0  0  0  0
  4  9  1  0  0  0  0
  5  4  2  0  0  0  0
  6  5  1  0  0  0  0
  6  7  2  0  0  0  0
  7  8  1  0  0  0  0
  8  9  2  0  0  0  0
  8 12  1  0  0  0  0
 10  5  1  0  0  0  0
 11  6  1  0  0  0  0
 12 13  1  0  0  0  0
 13 14  1  0  0  0  0
 15 14  1  0  0  0  0
 16 15  1  0  0  0  0
 17 12  1  0  0  0  0
 17 16  1  0  0  0  0
 18 20  1  0  0  0  0
 18 21  1  0  0  0  0
 19 18  1  0  0  0  0
 21 25  2  0  0  0  0
 22 21  1  0  0  0  0
 22 23  2  0  0  0  0
 23 24  1  0  0  0  0
 24 28  1  0  0  0  0
 25 24  1  0  0  0  0
 26 22  1  0  0  0  0
 27 23  1  0  0  0  0
 28 30  1  0  0  0  0
 28 29  1  0  0  0  0
 28 31  1  0  0  0  0
M  END
>  <minimizedAffinity>
-6.07357693

$$$$

 OpenBabel03272500283D

 31 33  0  0  0  0  0  0  0  0999 V2000
   36.8050   27.4190   33.8360 C   0  0  0  0  0  0  0  0  0  0  0  0
   36.1370   26.5550   34.1360 H   0  0  0  0  0  0  0  0  0  0  0  0
   37.0140   27.1830   32.7500 H   0  0  0  0  0  0  0  0  0  0  0  0
   36.0560   28.6340   33.8790 C   0  0  0  0  0  0  0  0  0  0  0  0
   35.1390   28.9060   32.9150 C   0  0  0  0  0  0  0  0  0  0  0  0
   34.3760   30.0770   32.9000 C   0  0  0  0  0  0  0  0  0  0  0  0
   34.6440   30.9420   33.9660 N   0  0  0  0  0  0  0  0  0  0  0  0
   35.5540   30.6570   34.9100 C   0  0  0  0  0  0  0  0  0  0  0  0
   36.2450   29.5000   34.8460 N   0  0  0  0  0  0  0  0  0  0  0  0
   34.8790   28.2880   32.0670 H   0  0  0  0  0  0  0  0  0  0  0  0
   33.6440   30.3420   32.1680 H   0  0  0  0  0  0  0  0  0  0  0  0
   35.7720   31.6410   36.0130 C   0  0  0  0  0  3  0  0  0  0  0  0
   36.4880   32.8480   35.5000 C   0  0  0  0  0  2  0  0  0  0  0  0
   35.6010   34.0470   35.2880 C   0  0  0  0  0  2  0  0  0  0  0  0
   35.0380   34.3530   36.6830 C   0  0  0  0  0  2  0  0  0  0  0  0
   34.0100   33.2480   36.8860 C   0  0  0  0  0  2  0  0  0  0  0  0
   34.5590   31.8790   36.8380 C   0  0  0  0  0  2  0  0  0  0  0  0
   38.0430   27.2630   34.6010 C   0  0  0  0  0  0  0  0  0  0  0  0
   38.9530   27.2810   33.9310 H   0  0  0  0  0  0  0  0  0  0  0  0
   38.1950   28.1360   35.2690 H   0  0  0  0  0  0  0  0  0  0  0  0
   38.1390   26.0240   35.4040 C   0  0  0  0  0  0  0  0  0  0  0  0
   38.2300   24.7890   34.7840 C   0  0  0  0  0  0  0  0  0  0  0  0
   38.3020   23.8410   35.7700 C   0  0  0  0  0  0  0  0  0  0  0  0
   38.2580   24.4780   36.9350 N   0  0  0  0  0  0  0  0  0  0  0  0
   38.1610   25.7660   36.6980 N   0  0  0  0  0  0  0  0  0  0  0  0
   38.2470   24.5260   33.7190 H   0  0  0  0  0  0  0  0  0  0  0  0
   38.3840   22.7500   35.6500 H   0  0  0  0  0  0  0  0  0  0  0  0
   38.3030   23.8940   38.2770 C   0  0  0  0  0  0  0  0  0  0  0  0
   38.1210   24.8620   39.2260 F   0  0  0  0  0  0  0  0  0  0  0  0
   39.4890   23.2380   38.5180 F   0  0  0  0  0  0  0  0  0  0  0  0
   37.2650   22.9750   38.4430 F   0  0  0  0  0  0  0  0  0  0  0  0
  1  4  1  0  0  0  0
  1  2  1  0  0  0  0
  1 18  1  0  0  0  0
  3  1  1  0  0  0  0
  4  9  1  0  0  0  0
  5  4  2  0  0  0  0
  6  5  1  0  0  0  0
  6  7  2  0  0  0  0
  7  8  1  0  0  0  0
  8 12  1  0  0  0  0
  9  8  2  0  0  0  0
 10  5  1  0  0  0  0
 11  6  1  0  0  0  0
 12 17  1  0  0  0  0
 13 12  1  0  0  0  0
 14 13  1  0  0  0  0
 14 15  1  0  0  0  0
 15 16  1  0  0  0  0
 17 16  1  0  0  0  0
 18 20  1  0  0  0  0
 18 21  1  0  0  0  0
 19 18  1  0  0  0  0
 21 25  2  0  0  0  0
 22 21  1  0  0  0  0
 22 23  2  0  0  0  0
 23 24  1  0  0  0  0
 24 28  1  0  0  0  0
 25 24  1  0  0  0  0
 26 22  1  0  0  0  0
 27 23  1  0  0  0  0
 28 31  1  0  0  0  0
 28 30  1  0  0  0  0
 28 29  1  0  0  0  0
M  END
>  <minimizedAffinity>
-6.04278231

$$$$

 OpenBabel03272500283D

 31 33  0  0  0  0  0  0  0  0999 V2000
   37.0820   27.5710   34.6100 C   0  0  0  0  0  0  0  0  0  0  0  0
   38.0370   28.1200   34.8660 H   0  0  0  0  0  0  0  0  0  0  0  0
   36.6080   27.4400   35.6280 H   0  0  0  0  0  0  0  0  0  0  0  0
   36.2330   28.4270   33.8440 C   0  0  0  0  0  0  0  0  0  0  0  0
   36.3990   28.5290   32.5000 C   0  0  0  0  0  0  0  0  0  0  0  0
   35.6030   29.3490   31.6960 C   0  0  0  0  0  0  0  0  0  0  0  0
   34.6220   30.0540   32.4000 N   0  0  0  0  0  0  0  0  0  0  0  0
   34.4720   29.9410   33.7290 C   0  0  0  0  0  0  0  0  0  0  0  0
   35.2870   29.1230   34.4280 N   0  0  0  0  0  0  0  0  0  0  0  0
   37.1300   28.0160   31.8910 H   0  0  0  0  0  0  0  0  0  0  0  0
   35.6900   29.4670   30.6370 H   0  0  0  0  0  0  0  0  0  0  0  0
   33.3960   30.7330   34.3970 C   0  0  0  0  0  3  0  0  0  0  0  0
   32.2390   29.8540   34.7430 C   0  0  0  0  0  2  0  0  0  0  0  0
   32.1670   29.4750   36.2000 C   0  0  0  0  0  2  0  0  0  0  0  0
   32.0140   30.8160   36.9310 C   0  0  0  0  0  2  0  0  0  0  0  0
   33.4110   31.4150   36.8430 C   0  0  0  0  0  2  0  0  0  0  0  0
   33.9050   31.6290   35.4700 C   0  0  0  0  0  2  0  0  0  0  0  0
   37.4890   26.2570   34.1060 C   0  0  0  0  0  0  0  0  0  0  0  0
   36.6720   25.7750   33.4920 H   0  0  0  0  0  0  0  0  0  0  0  0
   38.3270   26.3650   33.3860 H   0  0  0  0  0  0  0  0  0  0  0  0
   37.8720   25.2730   35.1420 C   0  0  0  0  0  0  0  0  0  0  0  0
   38.4760   24.0780   34.7880 C   0  0  0  0  0  0  0  0  0  0  0  0
   38.7090   23.3810   35.9440 C   0  0  0  0  0  0  0  0  0  0  0  0
   38.2640   24.1240   36.9520 N   0  0  0  0  0  0  0  0  0  0  0  0
   37.7730   25.2370   36.4570 N   0  0  0  0  0  0  0  0  0  0  0  0
   38.7520   23.6840   33.8030 H   0  0  0  0  0  0  0  0  0  0  0  0
   39.1760   22.3890   36.0500 H   0  0  0  0  0  0  0  0  0  0  0  0
   38.2910   23.8040   38.3800 C   0  0  0  0  0  0  0  0  0  0  0  0
   39.5190   23.3210   38.7390 F   0  0  0  0  0  0  0  0  0  0  0  0
   37.3220   22.8890   38.7250 F   0  0  0  0  0  0  0  0  0  0  0  0
   38.0800   24.9570   39.1400 F   0  0  0  0  0  0  0  0  0  0  0  0
  1  2  1  0  0  0  0
  1  3  1  0  0  0  0
  4  9  1  0  0  0  0
  4  1  1  0  0  0  0
  5  4  2  0  0  0  0
  6  7  2  0  0  0  0
  6  5  1  0  0  0  0
  7  8  1  0  0  0  0
  8 12  1  0  0  0  0
  8  9  2  0  0  0  0
 10  5  1  0  0  0  0
 11  6  1  0  0  0  0
 12 13  1  0  0  0  0
 12 17  1  0  0  0  0
 13 14  1  0  0  0  0
 14 15  1  0  0  0  0
 16 15  1  0  0  0  0
 17 16  1  0  0  0  0
 18  1  1  0  0  0  0
 18 21  1  0  0  0  0
 19 18  1  0  0  0  0
 20 18  1  0  0  0  0
 21 25  2  0  0  0  0
 22 21  1  0  0  0  0
 22 23  2  0  0  0  0
 23 27  1  0  0  0  0
 23 24  1  0  0  0  0
 24 28  1  0  0  0  0
 25 24  1  0  0  0  0
 26 22  1  0  0  0  0
 28 30  1  0  0  0  0
 28 29  1  0  0  0  0
 28 31  1  0  0  0  0
M  END
>  <minimizedAffinity>
-5.92595959

$$$$

 OpenBabel03272500283D

 31 33  0  0  0  0  0  0  0  0999 V2000
   36.8300   27.6450   34.6710 C   0  0  0  0  0  0  0  0  0  0  0  0
   36.4480   28.6640   34.9800 H   0  0  0  0  0  0  0  0  0  0  0  0
   36.0670   26.9580   35.1460 H   0  0  0  0  0  0  0  0  0  0  0  0
   36.7170   27.5050   33.2540 C   0  0  0  0  0  0  0  0  0  0  0  0
   36.6620   28.6050   32.4620 C   0  0  0  0  0  0  0  0  0  0  0  0
   36.5500   28.5350   31.0700 C   0  0  0  0  0  0  0  0  0  0  0  0
   36.4990   27.2300   30.5710 N   0  0  0  0  0  0  0  0  0  0  0  0
   36.5530   26.1530   31.3690 C   0  0  0  0  0  0  0  0  0  0  0  0
   36.6620   26.3150   32.7040 N   0  0  0  0  0  0  0  0  0  0  0  0
   36.6980   29.6400   32.7750 H   0  0  0  0  0  0  0  0  0  0  0  0
   36.5030   29.3670   30.4000 H   0  0  0  0  0  0  0  0  0  0  0  0
   36.4920   24.7970   30.7460 C   0  0  0  0  0  3  0  0  0  0  0  0
   37.8690   24.2610   30.5240 C   0  0  0  0  0  2  0  0  0  0  0  0
   38.2970   23.2260   31.5310 C   0  0  0  0  0  2  0  0  0  0  0  0
   37.2820   22.0870   31.3570 C   0  0  0  0  0  2  0  0  0  0  0  0
   36.0260   22.6450   32.0120 C   0  0  0  0  0  2  0  0  0  0  0  0
   35.5160   23.8900   31.4060 C   0  0  0  0  0  2  0  0  0  0  0  0
   38.1150   27.4670   35.3510 C   0  0  0  0  0  0  0  0  0  0  0  0
   38.9840   27.7010   34.6680 H   0  0  0  0  0  0  0  0  0  0  0  0
   38.2210   28.2070   36.1710 H   0  0  0  0  0  0  0  0  0  0  0  0
   38.3610   26.1130   35.8940 C   0  0  0  0  0  0  0  0  0  0  0  0
   38.8130   25.0960   35.0690 C   0  0  0  0  0  0  0  0  0  0  0  0
   38.9460   23.9730   35.8410 C   0  0  0  0  0  0  0  0  0  0  0  0
   38.5890   24.2980   37.0790 N   0  0  0  0  0  0  0  0  0  0  0  0
   38.2470   25.5660   37.0890 N   0  0  0  0  0  0  0  0  0  0  0  0
   39.0460   25.0990   33.9970 H   0  0  0  0  0  0  0  0  0  0  0  0
   39.2830   22.9730   35.5240 H   0  0  0  0  0  0  0  0  0  0  0  0
   38.5630   23.4340   38.2600 C   0  0  0  0  0  0  0  0  0  0  0  0
   39.5190   22.4610   38.1620 F   0  0  0  0  0  0  0  0  0  0  0  0
   37.3320   22.8470   38.4460 F   0  0  0  0  0  0  0  0  0  0  0  0
   38.8630   24.1710   39.4080 F   0  0  0  0  0  0  0  0  0  0  0  0
  1  2  1  0  0  0  0
  1  3  1  0  0  0  0
  1 18  1  0  0  0  0
  4  1  1  0  0  0  0
  5 10  1  0  0  0  0
  5  4  2  0  0  0  0
  6  5  1  0  0  0  0
  7  6  2  0  0  0  0
  7  8  1  0  0  0  0
  8  9  2  0  0  0  0
  9  4  1  0  0  0  0
 11  6  1  0  0  0  0
 12  8  1  0  0  0  0
 12 17  1  0  0  0  0
 13 12  1  0  0  0  0
 13 14  1  0  0  0  0
 15 14  1  0  0  0  0
 15 16  1  0  0  0  0
 17 16  1  0  0  0  0
 18 21  1  0  0  0  0
 18 20  1  0  0  0  0
 19 18  1  0  0  0  0
 21 25  2  0  0  0  0
 22 23  2  0  0  0  0
 22 21  1  0  0  0  0
 23 24  1  0  0  0  0
 24 25  1  0  0  0  0
 24 28  1  0  0  0  0
 26 22  1  0  0  0  0
 27 23  1  0  0  0  0
 28 30  1  0  0  0  0
 28 31  1  0  0  0  0
 29 28  1  0  0  0  0
M  END
>  <minimizedAffinity>
-5.8448987

$$$$

 OpenBabel03272500283D

 31 33  0  0  0  0  0  0  0  0999 V2000
   37.1320   25.9630   32.0700 C   0  0  0  0  0  0  0  0  0  0  0  0
   36.7920   26.6780   31.2610 H   0  0  0  0  0  0  0  0  0  0  0  0
   36.2060   25.8830   32.7130 H   0  0  0  0  0  0  0  0  0  0  0  0
   37.3730   24.6770   31.4950 C   0  0  0  0  0  0  0  0  0  0  0  0
   38.4940   24.4560   30.7630 C   0  0  0  0  0  0  0  0  0  0  0  0
   38.7860   23.2220   30.1740 C   0  0  0  0  0  0  0  0  0  0  0  0
   37.8190   22.2400   30.4070 N   0  0  0  0  0  0  0  0  0  0  0  0
   36.7160   22.4760   31.1320 C   0  0  0  0  0  0  0  0  0  0  0  0
   36.5150   23.6990   31.6660 N   0  0  0  0  0  0  0  0  0  0  0  0
   39.2830   25.1620   30.5440 H   0  0  0  0  0  0  0  0  0  0  0  0
   39.6510   22.9940   29.5890 H   0  0  0  0  0  0  0  0  0  0  0  0
   35.7370   21.3650   31.3280 C   0  0  0  0  0  3  0  0  0  0  0  0
   36.2600   20.0980   30.7350 C   0  0  0  0  0  2  0  0  0  0  0  0
   36.8030   19.1220   31.7470 C   0  0  0  0  0  2  0  0  0  0  0  0
   35.5990   18.7970   32.6420 C   0  0  0  0  0  2  0  0  0  0  0  0
   35.4500   20.0550   33.4850 C   0  0  0  0  0  2  0  0  0  0  0  0
   35.2030   21.2890   32.7140 C   0  0  0  0  0  2  0  0  0  0  0  0
   38.1730   26.6630   32.8240 C   0  0  0  0  0  0  0  0  0  0  0  0
   39.2050   26.4320   32.4250 H   0  0  0  0  0  0  0  0  0  0  0  0
   38.0790   27.7600   32.6820 H   0  0  0  0  0  0  0  0  0  0  0  0
   38.2090   26.3700   34.2740 C   0  0  0  0  0  0  0  0  0  0  0  0
   38.4320   27.3840   35.1910 C   0  0  0  0  0  0  0  0  0  0  0  0
   38.4120   26.8180   36.4380 C   0  0  0  0  0  0  0  0  0  0  0  0
   38.1860   25.5190   36.2800 N   0  0  0  0  0  0  0  0  0  0  0  0
   38.0700   25.2750   34.9940 N   0  0  0  0  0  0  0  0  0  0  0  0
   38.6010   28.4570   35.0390 H   0  0  0  0  0  0  0  0  0  0  0  0
   38.5530   27.3200   37.4080 H   0  0  0  0  0  0  0  0  0  0  0  0
   38.0790   24.4950   37.3210 C   0  0  0  0  0  0  0  0  0  0  0  0
   36.9730   23.7170   37.1140 F   0  0  0  0  0  0  0  0  0  0  0  0
   38.0220   25.0410   38.5820 F   0  0  0  0  0  0  0  0  0  0  0  0
   39.1810   23.6380   37.2750 F   0  0  0  0  0  0  0  0  0  0  0  0
  1  3  1  0  0  0  0
  1 18  1  0  0  0  0
  2  1  1  0  0  0  0
  4  9  1  0  0  0  0
  4  1  1  0  0  0  0
  5  4  2  0  0  0  0
  6  7  2  0  0  0  0
  6  5  1  0  0  0  0
  7  8  1  0  0  0  0
  8 12  1  0  0  0  0
  8  9  2  0  0  0  0
 10  5  1  0  0  0  0
 11  6  1  0  0  0  0
 12 17  1  0  0  0  0
 13 12  1  0  0  0  0
 13 14  1  0  0  0  0
 14 15  1  0  0  0  0
 15 16  1  0  0  0  0
 17 16  1  0  0  0  0
 18 21  1  0  0  0  0
 19 18  1  0  0  0  0
 20 18  1  0  0  0  0
 21 25  2  0  0  0  0
 21 22  1  0  0  0  0
 22 23  2  0  0  0  0
 23 27  1  0  0  0  0
 24 23  1  0  0  0  0
 24 28  1  0  0  0  0
 25 24  1  0  0  0  0
 26 22  1  0  0  0  0
 28 30  1  0  0  0  0
 29 28  1  0  0  0  0
 31 28  1  0  0  0  0
M  END
>  <minimizedAffinity>
-5.69929981

$$$$

 OpenBabel03272500283D

 31 33  0  0  0  0  0  0  0  0999 V2000
   36.1480   26.7160   31.0960 C   0  0  0  0  0  0  0  0  0  0  0  0
   35.8660   27.5180   30.3500 H   0  0  0  0  0  0  0  0  0  0  0  0
   37.1590   26.3860   30.7130 H   0  0  0  0  0  0  0  0  0  0  0  0
   36.3450   27.3110   32.3800 C   0  0  0  0  0  0  0  0  0  0  0  0
   35.6620   28.4320   32.7250 C   0  0  0  0  0  0  0  0  0  0  0  0
   35.8110   29.0620   33.9640 C   0  0  0  0  0  0  0  0  0  0  0  0
   36.7270   28.4330   34.8130 N   0  0  0  0  0  0  0  0  0  0  0  0
   37.3940   27.3250   34.4560 C   0  0  0  0  0  0  0  0  0  0  0  0
   37.1860   26.7830   33.2370 N   0  0  0  0  0  0  0  0  0  0  0  0
   34.9410   28.9700   32.1250 H   0  0  0  0  0  0  0  0  0  0  0  0
   35.3010   29.9440   34.2860 H   0  0  0  0  0  0  0  0  0  0  0  0
   38.3520   26.7220   35.4290 C   0  0  0  0  0  3  0  0  0  0  0  0
   37.8500   25.3970   35.9040 C   0  0  0  0  0  2  0  0  0  0  0  0
   38.5350   24.2150   35.2680 C   0  0  0  0  0  2  0  0  0  0  0  0
   40.0070   24.3670   35.6740 C   0  0  0  0  0  2  0  0  0  0  0  0
   40.4900   25.5080   34.7890 C   0  0  0  0  0  2  0  0  0  0  0  0
   39.7670   26.7810   34.9750 C   0  0  0  0  0  2  0  0  0  0  0  0
   35.1900   25.6250   30.9050 C   0  0  0  0  0  0  0  0  0  0  0  0
   34.3130   25.7110   31.6120 H   0  0  0  0  0  0  0  0  0  0  0  0
   34.7220   25.6960   29.9010 H   0  0  0  0  0  0  0  0  0  0  0  0
   35.7390   24.2630   31.0810 C   0  0  0  0  0  0  0  0  0  0  0  0
   37.0670   23.9970   30.7910 C   0  0  0  0  0  0  0  0  0  0  0  0
   37.2830   22.6690   31.0460 C   0  0  0  0  0  0  0  0  0  0  0  0
   36.1340   22.1550   31.4720 N   0  0  0  0  0  0  0  0  0  0  0  0
   35.2350   23.1130   31.4860 N   0  0  0  0  0  0  0  0  0  0  0  0
   37.8630   24.6580   30.4240 H   0  0  0  0  0  0  0  0  0  0  0  0
   38.2220   22.1040   30.9310 H   0  0  0  0  0  0  0  0  0  0  0  0
   35.8630   20.7720   31.8690 C   0  0  0  0  0  0  0  0  0  0  0  0
   34.6000   20.6610   32.3820 F   0  0  0  0  0  0  0  0  0  0  0  0
   36.7730   20.3100   32.7930 F   0  0  0  0  0  0  0  0  0  0  0  0
   35.9160   19.9290   30.7580 F   0  0  0  0  0  0  0  0  0  0  0  0
  1  4  1  0  0  0  0
  2  1  1  0  0  0  0
  3  1  1  0  0  0  0
  4  5  2  0  0  0  0
  4  9  1  0  0  0  0
  5  6  1  0  0  0  0
  6 11  1  0  0  0  0
  6  7  2  0  0  0  0
  8  7  1  0  0  0  0
  8 12  1  0  0  0  0
  9  8  2  0  0  0  0
 10  5  1  0  0  0  0
 12 13  1  0  0  0  0
 14 15  1  0  0  0  0
 14 13  1  0  0  0  0
 16 17  1  0  0  0  0
 16 15  1  0  0  0  0
 17 12  1  0  0  0  0
 18 21  1  0  0  0  0
 18  1  1  0  0  0  0
 18 19  1  0  0  0  0
 20 18  1  0  0  0  0
 21 25  2  0  0  0  0
 22 23  2  0  0  0  0
 22 21  1  0  0  0  0
 23 24  1  0  0  0  0
 24 25  1  0  0  0  0
 24 28  1  0  0  0  0
 26 22  1  0  0  0  0
 27 23  1  0  0  0  0
 28 29  1  0  0  0  0
 28 30  1  0  0  0  0
 31 28  1  0  0  0  0
M  END
>  <minimizedAffinity>
-5.55348301

$$$$
