
 OpenBabel03272508053D

 32 35  0  0  0  0  0  0  0  0999 V2000
   38.9100   30.8640   45.7300 C   0  0  0  0  0  0  0  0  0  0  0  0
   40.1260   31.4710   45.9830 C   0  0  0  0  0  0  0  0  0  0  0  0
   40.9540   31.4070   44.8550 C   0  0  0  0  0  0  0  0  0  0  0  0
   40.1900   30.7560   43.9630 N   0  0  0  0  0  0  0  0  0  0  0  0
   39.0000   30.4380   44.4670 N   0  0  0  0  0  0  0  0  0  0  0  0
   40.4420   31.9460   46.9160 H   0  0  0  0  0  0  0  0  0  0  0  0
   41.9480   31.7630   44.6790 H   0  0  0  0  0  0  0  0  0  0  0  0
   37.8030   30.7370   46.6600 C   0  0  0  0  0  0  0  0  0  0  0  0
   38.0340   30.9840   48.0280 C   0  0  0  0  0  0  0  0  0  0  0  0
   36.9600   30.8600   48.9030 C   0  0  0  0  0  0  0  0  0  0  0  0
   35.7440   30.5060   48.3860 N   0  0  0  0  0  0  0  0  0  0  0  0
   35.5450   30.2730   47.0660 C   0  0  0  0  0  0  0  0  0  0  0  0
   36.5840   30.3930   46.2130 N   0  0  0  0  0  0  0  0  0  0  0  0
   39.0070   31.2620   48.4070 H   0  0  0  0  0  0  0  0  0  0  0  0
   34.5590   29.9980   46.7260 H   0  0  0  0  0  0  0  0  0  0  0  0
   37.1730   31.1120   50.3500 C   0  0  0  0  0  0  0  0  0  0  0  0
   36.6640   32.3640   50.5920 F   0  0  0  0  0  0  0  0  0  0  0  0
   36.5110   30.1910   51.1610 F   0  0  0  0  0  0  0  0  0  0  0  0
   38.5270   31.1270   50.6750 F   0  0  0  0  0  0  0  0  0  0  0  0
   40.5120   30.3880   42.5790 C   0  0  0  0  0  0  0  0  0  0  0  0
   40.1910   31.2240   41.4970 C   0  0  0  0  0  0  0  0  0  0  0  0
   40.4960   30.8460   40.2510 C   0  0  0  0  0  0  0  0  0  0  0  0
   41.1480   29.5930   40.0360 C   0  0  0  0  0  0  0  0  0  0  0  0
   41.3090   28.9560   41.7810 S   0  0  0  0  0  0  0  0  0  0  0  0
   39.6930   32.1860   41.6370 H   0  0  0  0  0  0  0  0  0  0  0  0
   40.3230   31.3600   39.3170 H   0  0  0  0  0  0  0  0  0  0  0  0
   41.6110   28.8810   38.9110 C   0  0  0  0  0  3  0  0  0  0  0  0
   41.2980   29.6650   37.6800 C   0  0  0  0  0  2  0  0  0  0  0  0
   42.5560   30.3160   37.1010 C   0  0  0  0  0  2  0  0  0  0  0  0
   43.4190   29.1510   36.6040 C   0  0  0  0  0  2  0  0  0  0  0  0
   43.7220   28.1980   37.7350 C   0  0  0  0  0  2  0  0  0  0  0  0
   43.0970   28.6300   39.0350 C   0  0  0  0  0  2  0  0  0  0  0  0
  1  2  1  0  0  0  0
  1  8  1  0  0  0  0
  2  6  1  0  0  0  0
  3  2  2  0  0  0  0
  4  5  1  0  0  0  0
  4  3  1  0  0  0  0
  5  1  2  0  0  0  0
  7  3  1  0  0  0  0
  8  9  1  0  0  0  0
  9 14  1  0  0  0  0
  9 10  2  0  0  0  0
 10 16  1  0  0  0  0
 11 10  1  0  0  0  0
 12 11  2  0  0  0  0
 13  8  2  0  0  0  0
 13 12  1  0  0  0  0
 15 12  1  0  0  0  0
 16 17  1  0  0  0  0
 16 19  1  0  0  0  0
 16 18  1  0  0  0  0
 20  4  1  0  0  0  0
 21 25  1  0  0  0  0
 21 20  2  0  0  0  0
 22 21  1  0  0  0  0
 23 22  2  0  0  0  0
 23 24  1  0  0  0  0
 24 20  1  0  0  0  0
 26 22  1  0  0  0  0
 27 32  1  0  0  0  0
 27 23  1  0  0  0  0
 28 27  1  0  0  0  0
 29 28  1  0  0  0  0
 30 29  1  0  0  0  0
 30 31  1  0  0  0  0
 31 32  1  0  0  0  0
M  END
>  <minimizedAffinity>
-6.23738384

>  <minimizedRMSD>
0.127626911

$$$$
