
 OpenBabel03272508123D

 31 33  0  0  0  0  0  0  0  0999 V2000
   36.6480   29.4530   44.0180 Cl  0  0  0  0  0  0  0  0  0  0  0  0
   38.3070   29.8330   43.4930 C   0  0  0  0  0  0  0  0  0  0  0  0
   39.3060   30.3090   44.3460 C   0  0  0  0  0  0  0  0  0  0  0  0
   40.5410   30.5590   43.7950 C   0  0  0  0  0  0  0  0  0  0  0  0
   40.7850   30.3490   42.4590 C   0  0  0  0  0  0  0  0  0  0  0  0
   39.8160   29.8830   41.6080 C   0  0  0  0  0  0  0  0  0  0  0  0
   38.5850   29.6290   42.1300 C   0  0  0  0  0  0  0  0  0  0  0  0
   41.2650   30.9240   44.5120 H   0  0  0  0  0  0  0  0  0  0  0  0
   41.7740   30.5630   42.0760 H   0  0  0  0  0  0  0  0  0  0  0  0
   40.0180   29.7210   40.5510 H   0  0  0  0  0  0  0  0  0  0  0  0
   37.5090   29.1180   41.2180 C   0  0  0  0  0  3  0  0  0  0  0  0
   37.8490   27.6540   40.9950 C   0  0  0  0  0  2  0  0  0  0  0  0
   36.8900   27.0840   40.0000 C   0  0  0  0  0  2  0  0  0  0  0  0
   35.7090   27.9880   39.7430 C   0  0  0  0  0  2  0  0  0  0  0  0
   36.1360   29.3570   39.2570 C   0  0  0  0  0  2  0  0  0  0  0  0
   37.4230   29.8300   39.9160 C   0  0  0  0  0  2  0  0  0  0  0  0
   38.8700   30.4510   45.6330 O   0  0  0  0  0  0  0  0  0  0  0  0
   39.4420   32.5040   47.0970 O   0  0  0  0  0  0  0  0  0  0  0  0
   38.2960   31.8340   46.4090 P   0  0  1  0  0  0  0  0  0  0  0  0
   37.7110   32.8440   45.1660 O   0  0  0  0  0  0  0  0  0  0  0  0
   37.4790   32.3510   44.3490 H   0  0  0  0  0  0  0  0  0  0  0  0
   37.0210   31.4110   47.4390 O   0  0  0  0  0  0  0  0  0  0  0  0
   37.6180   30.5290   50.9830 C   0  0  0  0  0  0  0  0  0  0  0  0
   37.7030   31.2950   49.8180 C   0  0  0  0  0  0  0  0  0  0  0  0
   37.0710   30.8420   48.6620 C   0  0  0  0  0  0  0  0  0  0  0  0
   36.3920   29.6500   48.7390 N   0  0  0  0  0  0  0  0  0  0  0  0
   36.3330   28.9400   49.8830 C   0  0  0  0  0  0  0  0  0  0  0  0
   36.9440   29.3820   50.9940 N   0  0  0  0  0  0  0  0  0  0  0  0
   38.1400   30.9550   51.8420 H   0  0  0  0  0  0  0  0  0  0  0  0
   38.2100   32.2300   49.6750 H   0  0  0  0  0  0  0  0  0  0  0  0
   35.7790   27.9890   49.9080 H   0  0  0  0  0  0  0  0  0  0  0  0
  2  1  1  0  0  0  0
  2  3  1  0  0  0  0
  3 17  1  0  0  0  0
  4  3  2  0  0  0  0
  4  8  1  0  0  0  0
  5  4  1  0  0  0  0
  6  7  1  0  0  0  0
  6  5  2  0  0  0  0
  7  2  2  0  0  0  0
  9  5  1  0  0  0  0
 10  6  1  0  0  0  0
 11  7  1  0  0  0  0
 12 11  1  0  0  0  0
 13 12  1  0  0  0  0
 14 13  1  0  0  0  0
 15 14  1  0  0  0  0
 15 16  1  0  0  0  0
 16 11  1  0  0  0  0
 17 19  1  0  0  0  0
 19 18  2  1  0  0  0
 19 22  1  0  0  0  0
 20 19  1  0  0  0  0
 21 20  1  0  0  0  0
 22 25  1  0  0  0  0
 23 28  1  0  0  0  0
 23 29  1  0  0  0  0
 24 23  2  0  0  0  0
 25 26  2  0  0  0  0
 25 24  1  0  0  0  0
 26 27  1  0  0  0  0
 27 31  1  0  0  0  0
 27 28  2  0  0  0  0
 30 24  1  0  0  0  0
M  END
>  <minimizedAffinity>
-4.83104515

>  <minimizedRMSD>
0.295667499

$$$$
