REMARK  Name = 
REMARK  2 active torsions:
REMARK  status: ('A' for Active; 'I' for Inactive)
REMARK    1  A    between atoms: C_2  and  C_14
REMARK    2  A    between atoms: C_12  and  C_23
REMARK                            x       y       z     vdW  Elec       q    Type
REMARK                         _______ _______ _______ _____ _____    ______ ____
ROOT
ATOM      1  C   UNL     1      34.617  28.146  48.922  0.00  0.00    +0.000 A 
ATOM      2  C   UNL     1      34.973  29.456  48.603  0.00  0.00    +0.000 A 
ATOM      3  C   UNL     1      34.220  30.179  47.717  0.00  0.00    +0.000 A 
ATOM      4  C   UNL     1      33.100  29.640  47.120  0.00  0.00    +0.000 A 
ATOM      5  N   UNL     1      32.208  30.139  46.230  0.00  0.00    +0.000 N 
ATOM      6  C   UNL     1      31.333  29.099  46.039  0.00  0.00    +0.000 A 
ATOM      7  N   UNL     1      31.680  28.032  46.776  0.00  0.00    +0.000 NA
ATOM      8  C   UNL     1      32.782  28.348  47.459  0.00  0.00    +0.000 A 
ATOM      9  C   UNL     1      33.496  27.570  48.340  0.00  0.00    +0.000 A 
ATOM     10  H   UNL     1      35.181  27.533  49.617  0.00  0.00    +0.000 HD
ATOM     11  H   UNL     1      34.536  31.206  47.495  0.00  0.00    +0.000 HD
ATOM     12  H   UNL     1      32.191  31.084  45.796  0.00  0.00    +0.000 HD
ATOM     13  H   UNL     1      30.500  29.225  45.360  0.00  0.00    +0.000 HD
ATOM     14  H   UNL     1      33.201  26.556  48.572  0.00  0.00    +0.000 HD
ENDROOT
BRANCH   2  19
ATOM     15  C   UNL     1      37.524  30.367  51.092  0.00  0.00    +0.000 A 
ATOM     16  C   UNL     1      38.415  31.160  50.334  0.00  0.00    +0.000 A 
ATOM     17  C   UNL     1      38.107  31.362  48.960  0.00  0.00    +0.000 A 
ATOM     18  N   UNL     1      36.975  30.782  48.460  0.00  0.00    +0.000 NA
ATOM     19  C   UNL     1      36.149  30.029  49.227  0.00  0.00    +0.000 A 
ATOM     20  N   UNL     1      36.429  29.833  50.515  0.00  0.00    +0.000 NA
ATOM     21  H   UNL     1      37.782  30.231  52.127  0.00  0.00    +0.000 HD
ATOM     22  H   UNL     1      39.305  31.621  50.712  0.00  0.00    +0.000 HD
BRANCH  17  23
ATOM     23  C   UNL     1      38.997  32.183  48.102  0.00  0.00    +0.000 C 
ATOM     24  C   UNL     1      38.888  33.652  48.321  0.00  0.00    +0.000 C 
ATOM     25  C   UNL     1      39.531  34.360  47.147  0.00  0.00    +0.000 C 
ATOM     26  C   UNL     1      40.541  33.478  46.444  0.00  0.00    +0.000 C 
ATOM     27  C   UNL     1      39.859  32.255  45.850  0.00  0.00    +0.000 C 
ATOM     28  C   UNL     1      38.617  31.898  46.652  0.00  0.00    +0.000 C 
ENDBRANCH  17  23
ENDBRANCH   2  19
TORSDOF 2
