
 OpenBabel03272504143D

 28 30  0  0  0  0  0  0  0  0999 V2000
   38.3530   30.5490   46.6620 Cl  0  0  0  0  0  0  0  0  0  0  0  0
   36.8750   30.5050   45.6730 C   0  0  0  0  0  0  0  0  0  0  0  0
   35.6500   30.1430   46.1830 C   0  0  0  0  0  0  0  0  0  0  0  0
   34.6180   30.1570   45.3090 C   0  0  0  0  0  0  0  0  0  0  0  0
   34.7600   30.5110   43.9900 C   0  0  0  0  0  0  0  0  0  0  0  0
   35.9900   30.8760   43.4740 C   0  0  0  0  0  0  0  0  0  0  0  0
   37.0620   30.8660   44.3550 C   0  0  0  0  0  0  0  0  0  0  0  0
   33.6280   29.8790   45.6650 H   0  0  0  0  0  0  0  0  0  0  0  0
   33.9050   30.5030   43.3490 H   0  0  0  0  0  0  0  0  0  0  0  0
   36.0760   31.1490   42.4320 H   0  0  0  0  0  0  0  0  0  0  0  0
   36.2890   29.9920   49.8790 C   0  0  0  0  0  0  0  0  0  0  0  0
   36.3830   30.3590   48.5320 C   0  0  0  0  0  0  0  0  0  0  0  0
   35.5740   29.7840   47.5750 C   0  0  0  0  0  0  0  0  0  0  0  0
   34.6890   28.8470   48.0340 N   0  0  0  0  0  0  0  0  0  0  0  0
   34.5930   28.4930   49.3170 C   0  0  0  0  0  0  0  0  0  0  0  0
   35.3950   29.0700   50.2290 N   0  0  0  0  0  0  0  0  0  0  0  0
   37.1230   31.1190   48.2610 H   0  0  0  0  0  0  0  0  0  0  0  0
   33.8740   27.7440   49.6270 H   0  0  0  0  0  0  0  0  0  0  0  0
   37.1910   30.6490   50.8710 C   0  0  0  0  0  0  0  0  0  0  0  0
   36.9610   30.1000   52.1170 F   0  0  0  0  0  0  0  0  0  0  0  0
   38.4710   30.4980   50.4270 F   0  0  0  0  0  0  0  0  0  0  0  0
   36.8530   31.9940   50.9110 F   0  0  0  0  0  0  0  0  0  0  0  0
   38.4040   31.2630   43.7980 C   0  0  0  0  0  0  0  0  0  0  0  0
   38.6360   32.7390   43.8730 C   0  0  0  0  0  0  0  0  0  0  0  0
   39.3950   33.1780   45.1150 C   0  0  0  0  0  0  0  0  0  0  0  0
   40.7620   32.5190   44.9210 C   0  0  0  0  0  0  0  0  0  0  0  0
   40.4900   31.0560   45.2240 C   0  0  0  0  0  0  0  0  0  0  0  0
   39.5190   30.4160   44.3010 C   0  0  0  0  0  0  0  0  0  0  0  0
  2  3  1  0  0  0  0
  2  1  1  0  0  0  0
  3 13  1  0  0  0  0
  4  8  1  0  0  0  0
  4  3  2  0  0  0  0
  5  4  1  0  0  0  0
  6  5  2  0  0  0  0
  6  7  1  0  0  0  0
  7  2  2  0  0  0  0
  9  5  1  0  0  0  0
 10  6  1  0  0  0  0
 11 16  1  0  0  0  0
 11 19  1  0  0  0  0
 12 11  2  0  0  0  0
 13 14  2  0  0  0  0
 13 12  1  0  0  0  0
 14 15  1  0  0  0  0
 15 18  1  0  0  0  0
 15 16  2  0  0  0  0
 17 12  1  0  0  0  0
 19 22  1  0  0  0  0
 19 20  1  0  0  0  0
 21 19  1  0  0  0  0
 23 24  1  0  0  0  0
 23 28  1  0  0  0  0
 23  7  1  0  0  0  0
 24 25  1  0  0  0  0
 26 25  1  0  0  0  0
 26 27  1  0  0  0  0
 28 27  1  0  0  0  0
M  END
>  <minimizedAffinity>
-6.60790968

>  <minimizedRMSD>
3.75517559

$$$$
