
     RDKit          3D

 36 38  0  0  0  0  0  0  0  0999 V2000
   38.0098   33.1081   49.4730 C   0  0  0  0  0  0  0  0  0  0  0  0
   38.9672   33.2141   48.4684 C   0  0  0  0  0  0  0  0  0  0  0  0
   38.9451   32.2247   47.4700 C   0  0  0  0  0  0  0  0  0  0  0  0
   38.0169   31.2384   47.5293 N   0  0  0  0  0  0  0  0  0  0  0  0
   37.0988   31.1716   48.5286 C   0  0  0  0  0  0  0  0  0  0  0  0
   37.1256   32.1176   49.4767 N   0  0  0  0  0  0  0  0  0  0  0  0
   36.0908   30.1278   48.6176 C   0  0  0  0  0  0  0  0  0  0  0  0
   35.2835   29.9663   47.5038 C   0  0  0  0  0  0  0  0  0  0  0  0
   34.2954   28.9821   47.5060 C   0  0  0  0  0  0  0  0  0  0  0  0
   34.1489   28.1954   48.6187 C   0  0  0  0  0  0  0  0  0  0  0  0
   34.9623   28.3571   49.7430 C   0  0  0  0  0  0  0  0  0  0  0  0
   35.9409   29.3330   49.7390 C   0  0  0  0  0  0  0  0  0  0  0  0
   38.0694   33.8980   50.2213 H   0  0  0  0  0  0  0  0  0  0  0  0
   39.7339   33.9413   48.3290 H   0  0  0  0  0  0  0  0  0  0  0  0
   39.6097   32.1504   46.6195 H   0  0  0  0  0  0  0  0  0  0  0  0
   35.3575   30.5583   46.6041 H   0  0  0  0  0  0  0  0  0  0  0  0
   33.6587   28.8479   46.6392 H   0  0  0  0  0  0  0  0  0  0  0  0
   33.3660   27.4465   48.5664 H   0  0  0  0  0  0  0  0  0  0  0  0
   34.7395   27.6852   50.5287 H   0  0  0  0  0  0  0  0  0  0  0  0
   36.7813   29.4945   50.9411 C   0  0  0  0  0  0  0  0  0  0  0  0
   38.1881   29.8870   50.6475 C   0  0  0  0  0  0  0  0  0  0  0  0
   38.9433   29.8316   51.9809 C   0  0  0  0  0  0  0  0  0  0  0  0
   38.3974   30.9949   52.7834 C   0  0  0  0  0  0  0  0  0  0  0  0
   36.9743   30.7263   53.1183 C   0  0  0  0  0  0  0  0  0  0  0  0
   36.0994   30.3882   51.9395 C   0  0  0  0  0  0  0  0  0  0  0  0
   36.8399   28.4739   51.4265 H   0  0  0  0  0  0  0  0  0  0  0  0
   38.6109   29.2369   49.8886 H   0  0  0  0  0  0  0  0  0  0  0  0
   38.2698   30.9783   50.3745 H   0  0  0  0  0  0  0  0  0  0  0  0
   40.0298   29.9799   51.7501 H   0  0  0  0  0  0  0  0  0  0  0  0
   38.7451   28.8962   52.5169 H   0  0  0  0  0  0  0  0  0  0  0  0
   38.5588   31.9542   52.2500 H   0  0  0  0  0  0  0  0  0  0  0  0
   38.9521   31.0869   53.7316 H   0  0  0  0  0  0  0  0  0  0  0  0
   36.9456   29.9512   53.9087 H   0  0  0  0  0  0  0  0  0  0  0  0
   36.5413   31.6811   53.5348 H   0  0  0  0  0  0  0  0  0  0  0  0
   35.2297   29.8207   52.3346 H   0  0  0  0  0  0  0  0  0  0  0  0
   35.7211   31.2860   51.4537 H   0  0  0  0  0  0  0  0  0  0  0  0
  1  6  2  0
  2  1  1  0
  3  4  1  0
  3  2  2  0
  4  5  2  0
  5  7  1  0
  5  6  1  0
  7 12  1  0
  8  7  2  0
  9  8  1  0
  9 10  2  0
 10 11  1  0
 12 11  2  0
  1 13  1  0
  2 14  1  0
  3 15  1  0
  8 16  1  0
  9 17  1  0
 10 18  1  0
 11 19  1  0
 20 21  1  0
 21 22  1  0
 22 23  1  0
 23 24  1  0
 24 25  1  0
 25 20  1  0
 20 26  1  0
 21 27  1  0
 21 28  1  0
 22 29  1  0
 22 30  1  0
 23 31  1  0
 23 32  1  0
 24 33  1  0
 24 34  1  0
 25 35  1  0
 25 36  1  0
 12 20  1  0
M  ISO  7  13  14  14  14  15  14  16  14  17  14  18  14  19  14
M  END
>  <DihAtoms>  (1) 
6,11,19,20

>  <DihDeg>  (1) 
99.92789822332723

$$$$
