
     RDKit          3D

 29 30  0  0  0  0  0  0  0  0999 V2000
   38.3055   31.2329   50.1255 C   0  0  0  0  0  0  0  0  0  0  0  0
   38.2906   31.6102   48.7735 C   0  0  0  0  0  0  0  0  0  0  0  0
   37.2087   31.2311   47.9999 C   0  0  0  0  0  0  0  0  0  0  0  0
   36.2029   30.5060   48.5876 N   0  0  0  0  0  0  0  0  0  0  0  0
   36.2600   30.1652   49.8940 C   0  0  0  0  0  0  0  0  0  0  0  0
   37.3039   30.5300   50.6443 N   0  0  0  0  0  0  0  0  0  0  0  0
   35.1329   29.3831   50.4466 C   0  0  0  0  0  0  0  0  0  0  0  0
   35.2641   29.1288   51.8044 F   0  0  0  0  0  0  0  0  0  0  0  0
   33.9279   30.0594   50.2938 F   0  0  0  0  0  0  0  0  0  0  0  0
   34.9525   28.1652   49.8345 F   0  0  0  0  0  0  0  0  0  0  0  0
   39.1093   31.4846   50.8049 H   0  0  0  0  0  0  0  0  0  0  0  0
   39.1416   32.1670   48.4755 H   0  0  0  0  0  0  0  0  0  0  0  0
   37.2077   31.6291   46.6019 C   0  0  0  0  0  0  0  0  0  0  0  0
   37.6947   30.6460   45.6067 C   0  0  0  0  0  0  0  0  0  0  0  0
   36.5883   30.0855   44.7353 C   0  0  0  0  0  0  0  0  0  0  0  0
   36.0117   31.2429   43.9466 C   0  0  0  0  0  0  0  0  0  0  0  0
   35.7755   32.4602   44.8010 C   0  0  0  0  0  0  0  0  0  0  0  0
   35.7626   31.9902   46.2304 C   0  0  0  0  0  0  0  0  0  0  0  0
   37.7810   32.6017   46.5514 H   0  0  0  0  0  0  0  0  0  0  0  0
   38.3622   31.1942   44.8890 H   0  0  0  0  0  0  0  0  0  0  0  0
   38.3417   29.8502   46.0188 H   0  0  0  0  0  0  0  0  0  0  0  0
   35.8155   29.5393   45.3029 H   0  0  0  0  0  0  0  0  0  0  0  0
   37.0863   29.4045   43.9847 H   0  0  0  0  0  0  0  0  0  0  0  0
   35.0611   30.9559   43.4457 H   0  0  0  0  0  0  0  0  0  0  0  0
   36.7256   31.4911   43.1333 H   0  0  0  0  0  0  0  0  0  0  0  0
   34.7997   32.9278   44.5733 H   0  0  0  0  0  0  0  0  0  0  0  0
   36.6348   33.1557   44.6902 H   0  0  0  0  0  0  0  0  0  0  0  0
   35.4266   32.8347   46.8800 H   0  0  0  0  0  0  0  0  0  0  0  0
   35.0901   31.1371   46.3436 H   0  0  0  0  0  0  0  0  0  0  0  0
  1  6  2  0
  2  1  1  0
  3  4  1  0
  3  2  2  0
  4  5  2  0
  5  7  1  0
  5  6  1  0
  7  8  1  0
  9  7  1  0
 10  7  1  0
  1 11  1  0
  2 12  1  0
 13 14  1  0
 14 15  1  0
 15 16  1  0
 16 17  1  0
 17 18  1  0
 18 13  1  0
 13 19  1  0
 14 20  1  0
 14 21  1  0
 15 22  1  0
 15 23  1  0
 16 24  1  0
 16 25  1  0
 17 26  1  0
 17 27  1  0
 18 28  1  0
 18 29  1  0
  3 13  1  0
M  ISO  2  11  14  12  14
M  END
>  <DihAtoms>  (1) 
3,2,12,13

>  <DihDeg>  (1) 
126.24945347459172

$$$$
