REMARK  Name = 
REMARK  3 active torsions:
REMARK  status: ('A' for Active; 'I' for Inactive)
REMARK    1  A    between atoms: C_3  and  C_12
REMARK    2  A    between atoms: C_5  and  C_14
REMARK    3  A    between atoms: C_18  and  C_28
REMARK                            x       y       z     vdW  Elec       q    Type
REMARK                         _______ _______ _______ _____ _____    ______ ____
ROOT
ATOM      1 BR   UNL     1      37.309  29.331  51.026  0.00  0.00    +0.000 Br
ATOM      2  C   UNL     1      35.959  29.326  49.678  0.00  0.00    +0.000 A 
ATOM      3  C   UNL     1      35.999  30.262  48.635  0.00  0.00    +0.000 A 
ATOM      4  C   UNL     1      34.986  30.198  47.693  0.00  0.00    +0.000 A 
ATOM      5  C   UNL     1      33.963  29.262  47.751  0.00  0.00    +0.000 A 
ATOM      6  C   UNL     1      33.961  28.372  48.781  0.00  0.00    +0.000 A 
ATOM      7  C   UNL     1      34.957  28.416  49.729  0.00  0.00    +0.000 A 
ATOM      8  H   UNL     1      34.957  30.889  46.864  0.00  0.00    +0.000 HD
ATOM      9  H   UNL     1      33.168  27.637  48.837  0.00  0.00    +0.000 HD
ATOM     10  H   UNL     1      34.904  27.679  50.529  0.00  0.00    +0.000 HD
ENDROOT
BRANCH   3  15
ATOM     11  C   UNL     1      37.991  33.192  49.463  0.00  0.00    +0.000 A 
ATOM     12  C   UNL     1      39.022  33.177  48.484  0.00  0.00    +0.000 A 
ATOM     13  C   UNL     1      39.008  32.152  47.555  0.00  0.00    +0.000 A 
ATOM     14  N   UNL     1      38.019  31.206  47.612  0.00  0.00    +0.000 NA
ATOM     15  C   UNL     1      37.059  31.251  48.551  0.00  0.00    +0.000 A 
ATOM     16  N   UNL     1      37.052  32.248  49.474  0.00  0.00    +0.000 NA
ATOM     17  H   UNL     1      37.921  33.951  50.225  0.00  0.00    +0.000 HD
ATOM     18  H   UNL     1      39.719  33.980  48.569  0.00  0.00    +0.000 HD
ATOM     19  H   UNL     1      39.787  32.156  46.831  0.00  0.00    +0.000 HD
ENDBRANCH   3  15
BRANCH   5  20
ATOM     20  C   UNL     1      32.904  29.200  46.762  0.00  0.00    +0.000 A 
ATOM     21  C   UNL     1      32.264  28.035  46.371  0.00  0.00    +0.000 A 
ATOM     22  C   UNL     1      31.249  28.030  45.413  0.00  0.00    +0.000 A 
ATOM     23  N   UNL     1      30.866  29.173  44.841  0.00  0.00    +0.000 NA
ATOM     24  C   UNL     1      31.488  30.313  45.220  0.00  0.00    +0.000 A 
ATOM     25  N   UNL     1      32.459  30.303  46.139  0.00  0.00    +0.000 NA
ATOM     26  H   UNL     1      32.571  27.102  46.832  0.00  0.00    +0.000 HD
ATOM     27  H   UNL     1      30.806  27.059  45.172  0.00  0.00    +0.000 HD
BRANCH  24  28
ATOM     28  C   UNL     1      31.055  31.575  44.578  0.00  0.00    +0.000 C 
ATOM     29  C   UNL     1      30.544  32.578  45.590  0.00  0.00    +0.000 C 
ATOM     30  C   UNL     1      30.573  33.982  45.071  0.00  0.00    +0.000 C 
ATOM     31  C   UNL     1      30.485  34.058  43.566  0.00  0.00    +0.000 C 
ATOM     32  C   UNL     1      31.496  33.230  42.844  0.00  0.00    +0.000 C 
ATOM     33  C   UNL     1      32.175  32.273  43.829  0.00  0.00    +0.000 C 
ENDBRANCH  24  28
ENDBRANCH   5  20
TORSDOF 3
