
     RDKit          3D

 26 27  0  0  0  0  0  0  0  0999 V2000
   37.2972   30.1832   51.4148 C   0  0  0  0  0  0  0  0  0  0  0  0
   38.0729   30.6835   50.3456 C   0  0  0  0  0  0  0  0  0  0  0  0
   37.6746   30.3405   49.0448 C   0  0  0  0  0  0  0  0  0  0  0  0
   36.5724   29.5516   48.8894 N   0  0  0  0  0  0  0  0  0  0  0  0
   35.8579   29.0936   49.9341 C   0  0  0  0  0  0  0  0  0  0  0  0
   36.2191   29.4086   51.1993 N   0  0  0  0  0  0  0  0  0  0  0  0
   37.6262   30.4629   52.4108 H   0  0  0  0  0  0  0  0  0  0  0  0
   38.9312   31.3007   50.5261 H   0  0  0  0  0  0  0  0  0  0  0  0
   35.0020   28.4765   49.7183 H   0  0  0  0  0  0  0  0  0  0  0  0
   38.4527   30.8396   47.9105 C   0  0  0  0  0  0  0  0  0  0  0  0
   37.9621   32.0925   47.2780 C   0  0  0  0  0  0  0  0  0  0  0  0
   38.6642   32.2039   45.9381 C   0  0  0  0  0  0  0  0  0  0  0  0
   40.0976   31.8372   46.0347 C   0  0  0  0  0  0  0  0  0  0  0  0
   40.6986   31.8301   47.3995 C   0  0  0  0  0  0  0  0  0  0  0  0
   39.8486   31.1753   48.4517 C   0  0  0  0  0  0  0  0  0  0  0  0
   38.6548   30.0498   47.1391 H   0  0  0  0  0  0  0  0  0  0  0  0
   38.1746   32.9860   47.8694 H   0  0  0  0  0  0  0  0  0  0  0  0
   36.8842   32.0793   47.0221 H   0  0  0  0  0  0  0  0  0  0  0  0
   38.4778   33.1909   45.4652 H   0  0  0  0  0  0  0  0  0  0  0  0
   38.1615   31.4615   45.2617 H   0  0  0  0  0  0  0  0  0  0  0  0
   40.3479   30.8796   45.4992 H   0  0  0  0  0  0  0  0  0  0  0  0
   40.6650   32.6260   45.4630 H   0  0  0  0  0  0  0  0  0  0  0  0
   41.6373   31.2043   47.3284 H   0  0  0  0  0  0  0  0  0  0  0  0
   41.0573   32.8155   47.7622 H   0  0  0  0  0  0  0  0  0  0  0  0
   40.2892   30.2489   48.8681 H   0  0  0  0  0  0  0  0  0  0  0  0
   39.6737   31.8710   49.3044 H   0  0  0  0  0  0  0  0  0  0  0  0
  2  1  2  0
  3  2  1  0
  4  3  2  0
  4  5  1  0
  5  6  2  0
  6  1  1  0
  1  7  1  0
  2  8  1  0
  5  9  1  0
 10 11  1  0
 11 12  1  0
 12 13  1  0
 13 14  1  0
 14 15  1  0
 15 10  1  0
 10 16  1  0
 11 17  1  0
 11 18  1  0
 12 19  1  0
 12 20  1  0
 13 21  1  0
 13 22  1  0
 14 23  1  0
 14 24  1  0
 15 25  1  0
 15 26  1  0
  3 10  1  0
M  ISO  3   7  14   8  14   9  14
M  END
>  <DihAtoms>  (1) 
1,2,9,10

>  <DihDeg>  (1) 
-49.97841113850576

$$$$
