REMARK  Name = 
REMARK  1 active torsions:
REMARK  status: ('A' for Active; 'I' for Inactive)
REMARK    1  A    between atoms: C_3  and  C_10
REMARK                            x       y       z     vdW  Elec       q    Type
REMARK                         _______ _______ _______ _____ _____    ______ ____
ROOT
ATOM      1  C   UNL     1      37.297  30.183  51.415  0.00  0.00    +0.000 A 
ATOM      2  C   UNL     1      38.073  30.683  50.346  0.00  0.00    +0.000 A 
ATOM      3  C   UNL     1      37.675  30.340  49.045  0.00  0.00    +0.000 A 
ATOM      4  N   UNL     1      36.572  29.552  48.889  0.00  0.00    +0.000 NA
ATOM      5  C   UNL     1      35.858  29.094  49.934  0.00  0.00    +0.000 A 
ATOM      6  N   UNL     1      36.219  29.409  51.199  0.00  0.00    +0.000 NA
ATOM      7  H   UNL     1      37.626  30.463  52.411  0.00  0.00    +0.000 HD
ATOM      8  H   UNL     1      38.931  31.301  50.526  0.00  0.00    +0.000 HD
ATOM      9  H   UNL     1      35.002  28.477  49.718  0.00  0.00    +0.000 HD
ENDROOT
BRANCH   3  10
ATOM     10  C   UNL     1      38.453  30.840  47.910  0.00  0.00    +0.000 C 
ATOM     11  C   UNL     1      39.036  32.199  48.062  0.00  0.00    +0.000 C 
ATOM     12  C   UNL     1      39.452  32.647  46.674  0.00  0.00    +0.000 C 
ATOM     13  C   UNL     1      40.100  31.553  45.912  0.00  0.00    +0.000 C 
ATOM     14  C   UNL     1      40.602  30.391  46.700  0.00  0.00    +0.000 C 
ATOM     15  C   UNL     1      39.652  29.896  47.754  0.00  0.00    +0.000 C 
ENDBRANCH   3  10
TORSDOF 1
