
 OpenBabel03272510333D

 25 27  0  0  0  0  0  0  0  0999 V2000
   36.5880   30.5830   46.0190 C   0  0  0  0  0  0  0  0  0  0  0  0
   35.7640   30.5690   44.9040 C   0  0  0  0  0  0  0  0  0  0  0  0
   34.4500   30.1200   45.0240 C   0  0  0  0  0  0  0  0  0  0  0  0
   34.0040   29.7010   46.2510 C   0  0  0  0  0  0  0  0  0  0  0  0
   34.8320   29.7150   47.3760 C   0  0  0  0  0  0  0  0  0  0  0  0
   36.1350   30.1600   47.2550 C   0  0  0  0  0  0  0  0  0  0  0  0
   36.0670   30.8870   43.9180 H   0  0  0  0  0  0  0  0  0  0  0  0
   33.7990   30.1050   44.1580 H   0  0  0  0  0  0  0  0  0  0  0  0
   32.9750   29.3630   46.2870 H   0  0  0  0  0  0  0  0  0  0  0  0
   34.3590   29.3680   48.2560 H   0  0  0  0  0  0  0  0  0  0  0  0
   39.3780   32.9010   45.6490 C   0  0  0  0  0  0  0  0  0  0  0  0
   40.4830   32.0900   45.4050 C   0  0  0  0  0  0  0  0  0  0  0  0
   40.2520   30.7050   45.3690 C   0  0  0  0  0  0  0  0  0  0  0  0
   38.9960   30.2320   45.5690 N   0  0  0  0  0  0  0  0  0  0  0  0
   37.9440   31.0600   45.8040 C   0  0  0  0  0  0  0  0  0  0  0  0
   38.1720   32.3790   45.8370 N   0  0  0  0  0  0  0  0  0  0  0  0
   39.6090   33.9650   45.6670 H   0  0  0  0  0  0  0  0  0  0  0  0
   41.5010   32.3560   45.2380 H   0  0  0  0  0  0  0  0  0  0  0  0
   40.9880   29.9310   45.1950 H   0  0  0  0  0  0  0  0  0  0  0  0
   36.9890   30.1770   48.4580 C   0  0  0  0  0  3  0  0  0  0  0  0
   37.1340   31.5220   49.0790 C   0  0  0  0  0  2  0  0  0  0  0  0
   38.1820   31.3790   50.1890 C   0  0  0  0  0  2  0  0  0  0  0  0
   37.5010   30.5530   51.2610 C   0  0  0  0  0  2  0  0  0  0  0  0
   37.2790   29.1780   50.7410 C   0  0  0  0  0  2  0  0  0  0  0  0
   36.5540   29.1090   49.4220 C   0  0  0  0  0  2  0  0  0  0  0  0
  1  6  1  0  0  0  0
  2  3  1  0  0  0  0
  2  1  2  0  0  0  0
  3  4  2  0  0  0  0
  4  9  1  0  0  0  0
  4  5  1  0  0  0  0
  5 10  1  0  0  0  0
  6  5  2  0  0  0  0
  6 20  1  0  0  0  0
  7  2  1  0  0  0  0
  8  3  1  0  0  0  0
 11 17  1  0  0  0  0
 11 16  1  0  0  0  0
 12 11  2  0  0  0  0
 13 12  1  0  0  0  0
 13 14  2  0  0  0  0
 14 15  1  0  0  0  0
 15 16  2  0  0  0  0
 15  1  1  0  0  0  0
 18 12  1  0  0  0  0
 19 13  1  0  0  0  0
 20 21  1  0  0  0  0
 20 25  1  0  0  0  0
 21 22  1  0  0  0  0
 22 23  1  0  0  0  0
 24 23  1  0  0  0  0
 25 24  1  0  0  0  0
M  END
>  <minimizedAffinity>
-6.08292675

>  <minimizedRMSD>
3.04161048

$$$$
