
 OpenBabel03262520183D

 15 16  0  0  0  0  0  0  0  0999 V2000
   37.4240   30.2150   51.3770 C   0  0  0  0  0  0  0  0  0  0  0  0
   37.8650   30.8770   50.2100 C   0  0  0  0  0  0  0  0  0  0  0  0
   37.0880   30.7260   49.0520 C   0  0  0  0  0  0  0  0  0  0  0  0
   35.9620   29.9580   49.1190 N   0  0  0  0  0  0  0  0  0  0  0  0
   35.5750   29.3430   50.2520 C   0  0  0  0  0  0  0  0  0  0  0  0
   36.3050   29.4700   51.3830 N   0  0  0  0  0  0  0  0  0  0  0  0
   38.0430   30.3480   52.2590 H   0  0  0  0  0  0  0  0  0  0  0  0
   38.7580   31.4710   50.2130 H   0  0  0  0  0  0  0  0  0  0  0  0
   34.6730   28.7550   50.2140 H   0  0  0  0  0  0  0  0  0  0  0  0
   37.5100   31.3980   47.8210 C   0  0  0  0  0  3  0  0  0  0  0  0
   38.9740   31.4320   47.5630 C   0  0  0  0  0  2  0  0  0  0  0  0
   39.1970   32.4710   46.4810 C   0  0  0  0  0  2  0  0  0  0  0  0
   38.1740   32.3830   45.4120 C   0  0  0  0  0  2  0  0  0  0  0  0
   37.3930   31.1140   45.3330 C   0  0  0  0  0  2  0  0  0  0  0  0
   36.9090   30.5970   46.6580 C   0  0  0  0  0  2  0  0  0  0  0  0
  1  6  1  0  0  0  0
  1  7  1  0  0  0  0
  2  8  1  0  0  0  0
  2  1  2  0  0  0  0
  3  4  2  0  0  0  0
  3  2  1  0  0  0  0
  4  5  1  0  0  0  0
  5  6  2  0  0  0  0
  9  5  1  0  0  0  0
 10  3  1  0  0  0  0
 11 10  1  0  0  0  0
 12 11  1  0  0  0  0
 13 12  1  0  0  0  0
 14 13  1  0  0  0  0
 14 15  1  0  0  0  0
 15 10  1  0  0  0  0
M  END
>  <minimizedAffinity>
-4.55997276

>  <minimizedRMSD>
1.08737457

$$$$
