
 OpenBabel03272508323D

 42 46  0  0  1  0  0  0  0  0999 V2000
   38.0850   31.5380   44.8370 N   0  0  0  0  0  0  0  0  0  0  0  0
   38.1880   32.5480   43.8040 C   0  0  0  0  0  0  0  0  0  0  0  0
   39.5340   33.1710   43.7260 C   0  0  0  0  0  0  0  0  0  0  0  0
   40.5290   32.2750   44.2680 N   0  0  0  0  0  0  0  0  0  0  0  0
   40.2890   32.1930   45.7050 C   0  0  0  0  0  0  0  0  0  0  0  0
   39.1080   31.2910   45.8720 C   0  0  1  0  0  0  0  0  0  0  0  0
   37.4420   33.3330   44.0460 H   0  0  0  0  0  0  0  0  0  0  0  0
   37.8590   32.1440   42.8030 H   0  0  0  0  0  0  0  0  0  0  0  0
   39.5950   34.1410   44.2820 H   0  0  0  0  0  0  0  0  0  0  0  0
   39.8000   33.3910   42.6910 H   0  0  0  0  0  0  0  0  0  0  0  0
   40.3650   31.3360   43.8790 H   0  0  0  0  0  0  0  0  0  0  0  0
   40.1020   33.2290   46.0510 H   0  0  0  0  0  0  0  0  0  0  0  0
   41.1880   31.7320   46.1520 H   0  0  0  0  0  0  0  0  0  0  0  0
   39.4250   30.2410   45.6730 H   0  0  0  0  0  0  0  0  0  0  0  0
   38.3810   32.5050   47.9740 C   0  0  0  0  0  0  0  0  0  0  0  0
   38.5430   31.3320   47.2360 C   0  0  0  0  0  0  0  0  0  0  0  0
   38.1310   30.1210   47.7570 C   0  0  0  0  0  0  0  0  0  0  0  0
   37.5580   30.1230   49.0080 C   0  0  0  0  0  0  0  0  0  0  0  0
   37.4020   31.3210   49.7450 C   0  0  0  0  0  0  0  0  0  0  0  0
   37.8190   32.5600   49.2340 C   0  0  0  0  0  0  0  0  0  0  0  0
   36.7990   31.0400   50.9900 O   0  0  0  0  0  0  0  0  0  0  0  0
   36.2330   29.7610   50.8650 C   0  0  0  0  0  0  0  0  0  0  0  0
   37.0200   29.1440   49.8460 O   0  0  0  0  0  0  0  0  0  0  0  0
   38.7110   33.4420   47.5560 H   0  0  0  0  0  0  0  0  0  0  0  0
   38.2070   29.1060   47.4520 H   0  0  0  0  0  0  0  0  0  0  0  0
   37.7020   33.4690   49.7920 H   0  0  0  0  0  0  0  0  0  0  0  0
   36.2230   29.1780   51.7910 H   0  0  0  0  0  0  0  0  0  0  0  0
   35.2070   29.9090   50.4190 H   0  0  0  0  0  0  0  0  0  0  0  0
   36.7990   29.6220   43.9840 C   0  0  0  0  0  0  0  0  0  0  0  0
   36.9200   30.7130   44.8690 C   0  0  0  0  0  0  0  0  0  0  0  0
   35.8930   30.9290   45.7570 C   0  0  0  0  0  0  0  0  0  0  0  0
   34.8200   30.0750   45.7310 N   0  0  0  0  0  0  0  0  0  0  0  0
   34.7350   29.0480   44.8810 C   0  0  0  0  0  0  0  0  0  0  0  0
   35.7220   28.8110   44.0000 N   0  0  0  0  0  0  0  0  0  0  0  0
   37.6470   29.4970   43.2960 H   0  0  0  0  0  0  0  0  0  0  0  0
   35.9250   31.7450   46.4560 H   0  0  0  0  0  0  0  0  0  0  0  0
   33.5470   28.1260   44.8740 C   0  0  0  0  0  0  0  0  0  0  0  0
   33.8200   26.7940   44.2890 C   0  0  0  0  0  0  0  0  0  0  0  0
   34.3780   25.7540   45.1930 C   0  0  0  0  0  0  0  0  0  0  0  0
   33.6550   25.7160   46.5310 C   0  0  0  0  0  0  0  0  0  0  0  0
   33.8140   27.1230   47.1100 C   0  0  0  0  0  0  0  0  0  0  0  0
   33.0070   28.0520   46.2570 C   0  0  0  0  0  0  0  0  0  0  0  0
  1 30  1  0  0  0  0
  1  6  1  0  0  0  0
  2  7  1  0  0  0  0
  2  1  1  0  0  0  0
  3  2  1  0  0  0  0
  3  4  1  0  0  0  0
  3  9  1  0  0  0  0
  4  5  1  0  0  0  0
  5  6  1  0  0  0  0
  5 12  1  0  0  0  0
  5 13  1  0  0  0  0
  6 14  1  6  0  0  0
  6 16  1  0  0  0  0
  8  2  1  0  0  0  0
 10  3  1  0  0  0  0
 11  4  1  0  0  0  0
 15 20  1  0  0  0  0
 16 17  1  0  0  0  0
 16 15  2  0  0  0  0
 17 18  2  0  0  0  0
 18 19  1  0  0  0  0
 18 23  1  0  0  0  0
 19 21  1  0  0  0  0
 20 19  2  0  0  0  0
 20 26  1  0  0  0  0
 22 21  1  0  0  0  0
 22 27  1  0  0  0  0
 23 22  1  0  0  0  0
 24 15  1  0  0  0  0
 25 17  1  0  0  0  0
 28 22  1  0  0  0  0
 29 34  2  0  0  0  0
 29 30  1  0  0  0  0
 30 31  2  0  0  0  0
 31 36  1  0  0  0  0
 32 31  1  0  0  0  0
 33 32  2  0  0  0  0
 34 33  1  0  0  0  0
 35 29  1  0  0  0  0
 37 33  1  0  0  0  0
 37 42  1  0  0  0  0
 38 37  1  0  0  0  0
 38 39  1  0  0  0  0
 39 40  1  0  0  0  0
 40 41  1  0  0  0  0
 42 41  1  0  0  0  0
M  END
>  <minimizedAffinity>
-5.47290277

>  <minimizedRMSD>
5.19060612

$$$$
