
 OpenBabel03262522483D

 22 24  0  0  0  0  0  0  0  0999 V2000
   36.0430   30.1990   48.5910 C   0  0  0  0  0  0  0  0  0  0  0  0
   35.8880   29.1830   49.4450 C   0  0  0  0  0  0  0  0  0  0  0  0
   34.8430   28.3160   49.3250 C   0  0  0  0  0  0  0  0  0  0  0  0
   33.9860   28.5630   48.2880 C   0  0  0  0  0  0  0  0  0  0  0  0
   34.7060   30.0500   47.4980 S   0  0  0  0  0  0  0  0  0  0  0  0
   36.6290   29.0550   50.2550 H   0  0  0  0  0  0  0  0  0  0  0  0
   34.6240   27.4680   49.9550 H   0  0  0  0  0  0  0  0  0  0  0  0
   38.0090   33.1230   49.5190 C   0  0  0  0  0  0  0  0  0  0  0  0
   38.9790   33.1830   48.4820 C   0  0  0  0  0  0  0  0  0  0  0  0
   38.9410   32.2070   47.4690 C   0  0  0  0  0  0  0  0  0  0  0  0
   37.9700   31.2510   47.5380 N   0  0  0  0  0  0  0  0  0  0  0  0
   37.0770   31.2330   48.5340 C   0  0  0  0  0  0  0  0  0  0  0  0
   37.0760   32.1450   49.5210 N   0  0  0  0  0  0  0  0  0  0  0  0
   37.9890   33.8420   50.3200 H   0  0  0  0  0  0  0  0  0  0  0  0
   39.6960   33.9720   48.5220 H   0  0  0  0  0  0  0  0  0  0  0  0
   39.6780   32.2510   46.6810 H   0  0  0  0  0  0  0  0  0  0  0  0
   32.7550   27.8470   47.8500 C   0  0  0  0  0  0  0  0  0  0  0  0
   32.1100   28.5700   46.7160 C   0  0  0  0  0  0  0  0  0  0  0  0
   30.6030   28.5060   46.7680 C   0  0  0  0  0  0  0  0  0  0  0  0
   30.1540   27.1600   47.2900 C   0  0  0  0  0  0  0  0  0  0  0  0
   30.6910   26.8210   48.6430 C   0  0  0  0  0  0  0  0  0  0  0  0
   31.8170   27.7700   49.0090 C   0  0  0  0  0  0  0  0  0  0  0  0
  1  2  2  0  0  0  0
  2  6  1  0  0  0  0
  3  2  1  0  0  0  0
  3  7  1  0  0  0  0
  4  3  2  0  0  0  0
  5  4  1  0  0  0  0
  5  1  1  0  0  0  0
  8 13  1  0  0  0  0
  8 14  1  0  0  0  0
  9 15  1  0  0  0  0
  9  8  2  0  0  0  0
 10 11  2  0  0  0  0
 10  9  1  0  0  0  0
 11 12  1  0  0  0  0
 12  1  1  0  0  0  0
 12 13  2  0  0  0  0
 16 10  1  0  0  0  0
 17  4  1  0  0  0  0
 17 22  1  0  0  0  0
 18 19  1  0  0  0  0
 18 17  1  0  0  0  0
 19 20  1  0  0  0  0
 20 21  1  0  0  0  0
 21 22  1  0  0  0  0
M  END
>  <minimizedAffinity>
-5.36949682

>  <minimizedRMSD>
0.252550244

$$$$
