
 OpenBabel03272509563D

 40 43  0  0  0  0  0  0  0  0999 V2000
   37.2410   26.8130   34.2340 O   0  0  0  0  0  0  0  0  0  0  0  0
   36.2440   29.4130   31.9390 C   0  0  0  0  0  0  0  0  0  0  0  0
   35.5800   30.2900   32.8300 C   0  0  0  0  0  0  0  0  0  0  0  0
   35.5180   29.9270   34.1650 C   0  0  0  0  0  0  0  0  0  0  0  0
   36.1100   28.7450   34.5040 N   0  0  0  0  0  0  0  0  0  0  0  0
   36.7330   27.9340   33.6450 C   0  0  0  0  0  0  0  0  0  0  0  0
   36.7940   28.2840   32.3450 N   0  0  0  0  0  0  0  0  0  0  0  0
   36.2870   29.7060   30.9020 H   0  0  0  0  0  0  0  0  0  0  0  0
   35.1240   31.2060   32.5550 H   0  0  0  0  0  0  0  0  0  0  0  0
   36.7270   31.8470   35.9610 F   0  0  0  0  0  0  0  0  0  0  0  0
   35.4210   31.5900   36.0660 C   0  0  0  0  0  0  0  0  0  0  0  0
   34.8850   30.6900   35.2150 C   0  0  0  0  0  0  0  0  0  0  0  0
   33.5120   30.4910   35.4050 C   0  0  0  0  0  0  0  0  0  0  0  0
   32.8000   31.1590   36.3710 C   0  0  0  0  0  0  0  0  0  0  0  0
   33.4010   32.0630   37.2070 C   0  0  0  0  0  0  0  0  0  0  0  0
   34.7380   32.2720   37.0400 C   0  0  0  0  0  0  0  0  0  0  0  0
   32.9370   29.8000   34.8000 H   0  0  0  0  0  0  0  0  0  0  0  0
   31.7310   30.9940   36.5080 H   0  0  0  0  0  0  0  0  0  0  0  0
   32.8120   32.5730   37.9580 H   0  0  0  0  0  0  0  0  0  0  0  0
   35.2360   32.9820   37.6880 H   0  0  0  0  0  0  0  0  0  0  0  0
   38.3630   26.9410   35.0950 C   0  0  0  0  0  0  0  0  0  0  0  0
   38.0200   27.1640   36.1230 H   0  0  0  0  0  0  0  0  0  0  0  0
   38.9390   27.8330   34.7580 H   0  0  0  0  0  0  0  0  0  0  0  0
   39.2530   25.7370   34.9890 C   0  0  0  0  0  0  0  0  0  0  0  0
   40.1600   25.8050   35.5970 H   0  0  0  0  0  0  0  0  0  0  0  0
   39.5590   25.6390   33.9050 H   0  0  0  0  0  0  0  0  0  0  0  0
   38.5400   24.4690   35.3010 C   0  0  0  0  0  0  0  0  0  0  0  0
   38.1630   24.2530   36.6270 C   0  0  0  0  0  0  0  0  0  0  0  0
   37.5000   23.1190   37.0200 C   0  0  0  0  0  0  0  0  0  0  0  0
   37.2080   22.2000   36.1230 N   0  0  0  0  0  0  0  0  0  0  0  0
   37.5780   22.4130   34.8190 C   0  0  0  0  0  0  0  0  0  0  0  0
   38.2300   23.5170   34.3990 N   0  0  0  0  0  0  0  0  0  0  0  0
   38.3880   24.9930   37.3950 H   0  0  0  0  0  0  0  0  0  0  0  0
   37.2290   22.9930   38.0540 H   0  0  0  0  0  0  0  0  0  0  0  0
   37.2640   21.3960   33.7790 C   0  0  0  0  0  3  0  0  0  0  0  0
   37.3470   22.0920   32.4370 C   0  0  0  0  0  2  0  0  0  0  0  0
   35.9490   22.5080   32.0410 C   0  0  0  0  0  2  0  0  0  0  0  0
   35.2170   21.2360   31.6590 C   0  0  0  0  0  2  0  0  0  0  0  0
   35.3370   20.2100   32.7400 C   0  0  0  0  0  2  0  0  0  0  0  0
   35.9310   20.7340   34.0240 C   0  0  0  0  0  2  0  0  0  0  0  0
  1 21  1  0  0  0  0
  2  7  2  0  0  0  0
  2  3  1  0  0  0  0
  3  4  2  0  0  0  0
  4  5  1  0  0  0  0
  4 12  1  0  0  0  0
  6  1  1  0  0  0  0
  6  5  2  0  0  0  0
  7  6  1  0  0  0  0
  8  2  1  0  0  0  0
  9  3  1  0  0  0  0
 10 11  1  0  0  0  0
 11 16  1  0  0  0  0
 12 13  1  0  0  0  0
 12 11  2  0  0  0  0
 13 14  2  0  0  0  0
 14 18  1  0  0  0  0
 14 15  1  0  0  0  0
 15 19  1  0  0  0  0
 16 15  2  0  0  0  0
 16 20  1  0  0  0  0
 17 13  1  0  0  0  0
 21 22  1  0  0  0  0
 23 21  1  0  0  0  0
 24 21  1  0  0  0  0
 24 27  1  0  0  0  0
 24 25  1  0  0  0  0
 26 24  1  0  0  0  0
 27 28  1  0  0  0  0
 28 29  2  0  0  0  0
 28 33  1  0  0  0  0
 29 34  1  0  0  0  0
 30 29  1  0  0  0  0
 31 30  2  0  0  0  0
 32 31  1  0  0  0  0
 32 27  2  0  0  0  0
 35 40  1  0  0  0  0
 35 31  1  0  0  0  0
 36 35  1  0  0  0  0
 37 36  1  0  0  0  0
 38 37  1  0  0  0  0
 38 39  1  0  0  0  0
 39 40  1  0  0  0  0
M  END
>  <minimizedAffinity>
-6.72175026

$$$$

 OpenBabel03272509563D

 40 43  0  0  0  0  0  0  0  0999 V2000
   36.5730   27.2790   32.7300 O   0  0  0  0  0  0  0  0  0  0  0  0
   36.3450   30.6590   31.4870 C   0  0  0  0  0  0  0  0  0  0  0  0
   35.7480   31.2950   32.6030 C   0  0  0  0  0  0  0  0  0  0  0  0
   35.4620   30.5150   33.7100 C   0  0  0  0  0  0  0  0  0  0  0  0
   35.7850   29.1920   33.6270 N   0  0  0  0  0  0  0  0  0  0  0  0
   36.3500   28.6150   32.5630 C   0  0  0  0  0  0  0  0  0  0  0  0
   36.6300   29.3700   31.4820 N   0  0  0  0  0  0  0  0  0  0  0  0
   36.5640   31.2760   30.6290 H   0  0  0  0  0  0  0  0  0  0  0  0
   35.5010   32.3230   32.6560 H   0  0  0  0  0  0  0  0  0  0  0  0
   36.6800   32.0580   35.8350 F   0  0  0  0  0  0  0  0  0  0  0  0
   35.3970   31.7040   35.9400 C   0  0  0  0  0  0  0  0  0  0  0  0
   34.8550   30.9850   34.9340 C   0  0  0  0  0  0  0  0  0  0  0  0
   33.5080   30.6650   35.1380 C   0  0  0  0  0  0  0  0  0  0  0  0
   32.8220   31.0560   36.2630 C   0  0  0  0  0  0  0  0  0  0  0  0
   33.4270   31.7860   37.2520 C   0  0  0  0  0  0  0  0  0  0  0  0
   34.7400   32.1100   37.0740 C   0  0  0  0  0  0  0  0  0  0  0  0
   32.9330   30.0920   34.4210 H   0  0  0  0  0  0  0  0  0  0  0  0
   31.7730   30.7990   36.4090 H   0  0  0  0  0  0  0  0  0  0  0  0
   32.8600   32.0800   38.1260 H   0  0  0  0  0  0  0  0  0  0  0  0
   35.2400   32.6860   37.8410 H   0  0  0  0  0  0  0  0  0  0  0  0
   36.1450   26.3820   31.7150 C   0  0  0  0  0  0  0  0  0  0  0  0
   35.7730   26.9550   30.8450 H   0  0  0  0  0  0  0  0  0  0  0  0
   35.2710   25.8200   32.1170 H   0  0  0  0  0  0  0  0  0  0  0  0
   37.2280   25.3970   31.3870 C   0  0  0  0  0  0  0  0  0  0  0  0
   38.1840   25.8630   31.1290 H   0  0  0  0  0  0  0  0  0  0  0  0
   36.8760   24.7930   30.4980 H   0  0  0  0  0  0  0  0  0  0  0  0
   37.4390   24.3970   32.4690 C   0  0  0  0  0  0  0  0  0  0  0  0
   36.9590   23.1050   32.2530 C   0  0  0  0  0  0  0  0  0  0  0  0
   37.1030   22.1090   33.1850 C   0  0  0  0  0  0  0  0  0  0  0  0
   37.7110   22.3750   34.3230 N   0  0  0  0  0  0  0  0  0  0  0  0
   38.1820   23.6470   34.5350 C   0  0  0  0  0  0  0  0  0  0  0  0
   38.0580   24.6470   33.6390 N   0  0  0  0  0  0  0  0  0  0  0  0
   36.4520   22.8500   31.3220 H   0  0  0  0  0  0  0  0  0  0  0  0
   36.7180   21.1260   32.9770 H   0  0  0  0  0  0  0  0  0  0  0  0
   38.8740   23.9820   35.8090 C   0  0  0  0  0  3  0  0  0  0  0  0
   40.3560   23.7780   35.5760 C   0  0  0  0  0  2  0  0  0  0  0  0
   40.7210   22.4000   36.0770 C   0  0  0  0  0  2  0  0  0  0  0  0
   40.6760   22.4690   37.5910 C   0  0  0  0  0  2  0  0  0  0  0  0
   39.3740   23.0360   38.0580 C   0  0  0  0  0  2  0  0  0  0  0  0
   38.3390   23.1800   36.9680 C   0  0  0  0  0  2  0  0  0  0  0  0
  2  3  1  0  0  0  0
  3  9  1  0  0  0  0
  3  4  2  0  0  0  0
  4 12  1  0  0  0  0
  5  4  1  0  0  0  0
  6  1  1  0  0  0  0
  6  5  2  0  0  0  0
  7  2  2  0  0  0  0
  7  6  1  0  0  0  0
  8  2  1  0  0  0  0
 10 11  1  0  0  0  0
 11 16  1  0  0  0  0
 12 13  1  0  0  0  0
 12 11  2  0  0  0  0
 13 14  2  0  0  0  0
 14 18  1  0  0  0  0
 14 15  1  0  0  0  0
 15 19  1  0  0  0  0
 16 15  2  0  0  0  0
 16 20  1  0  0  0  0
 17 13  1  0  0  0  0
 21 23  1  0  0  0  0
 21  1  1  0  0  0  0
 22 21  1  0  0  0  0
 24 21  1  0  0  0  0
 24 27  1  0  0  0  0
 25 24  1  0  0  0  0
 26 24  1  0  0  0  0
 27 32  1  0  0  0  0
 28 27  2  0  0  0  0
 28 29  1  0  0  0  0
 29 30  2  0  0  0  0
 30 31  1  0  0  0  0
 31 35  1  0  0  0  0
 32 31  2  0  0  0  0
 33 28  1  0  0  0  0
 34 29  1  0  0  0  0
 35 40  1  0  0  0  0
 36 35  1  0  0  0  0
 36 37  1  0  0  0  0
 37 38  1  0  0  0  0
 38 39  1  0  0  0  0
 40 39  1  0  0  0  0
M  END
>  <minimizedAffinity>
-6.37095404

$$$$

 OpenBabel03272509563D

 40 43  0  0  0  0  0  0  0  0999 V2000
   36.3660   21.2210   32.4100 O   0  0  0  0  0  0  0  0  0  0  0  0
   39.9600   21.2660   32.7240 C   0  0  0  0  0  0  0  0  0  0  0  0
   40.0890   21.8000   34.0290 C   0  0  0  0  0  0  0  0  0  0  0  0
   38.9270   22.1110   34.7150 C   0  0  0  0  0  0  0  0  0  0  0  0
   37.7510   21.8710   34.0660 N   0  0  0  0  0  0  0  0  0  0  0  0
   37.6550   21.3650   32.8340 C   0  0  0  0  0  0  0  0  0  0  0  0
   38.7830   21.0610   32.1630 N   0  0  0  0  0  0  0  0  0  0  0  0
   40.8720   21.0270   32.1990 H   0  0  0  0  0  0  0  0  0  0  0  0
   41.0080   21.9830   34.5240 H   0  0  0  0  0  0  0  0  0  0  0  0
   40.8260   21.8020   36.8760 F   0  0  0  0  0  0  0  0  0  0  0  0
   39.7290   22.5360   37.0740 C   0  0  0  0  0  0  0  0  0  0  0  0
   38.8610   22.6630   36.0480 C   0  0  0  0  0  0  0  0  0  0  0  0
   37.7450   23.4500   36.3550 C   0  0  0  0  0  0  0  0  0  0  0  0
   37.5710   24.0290   37.5890 C   0  0  0  0  0  0  0  0  0  0  0  0
   38.4890   23.8640   38.5920 C   0  0  0  0  0  0  0  0  0  0  0  0
   39.5840   23.1000   38.3160 C   0  0  0  0  0  0  0  0  0  0  0  0
   36.9580   23.6460   35.6360 H   0  0  0  0  0  0  0  0  0  0  0  0
   36.6960   24.6400   37.8140 H   0  0  0  0  0  0  0  0  0  0  0  0
   38.3230   24.3330   39.5540 H   0  0  0  0  0  0  0  0  0  0  0  0
   40.3240   22.9560   39.0930 H   0  0  0  0  0  0  0  0  0  0  0  0
   35.9680   21.8540   31.2020 C   0  0  0  0  0  0  0  0  0  0  0  0
   35.1900   21.2470   30.7020 H   0  0  0  0  0  0  0  0  0  0  0  0
   36.8500   21.8540   30.5220 H   0  0  0  0  0  0  0  0  0  0  0  0
   35.5710   23.2790   31.4570 C   0  0  0  0  0  0  0  0  0  0  0  0
   35.0260   23.4230   32.3940 H   0  0  0  0  0  0  0  0  0  0  0  0
   34.9010   23.5990   30.6040 H   0  0  0  0  0  0  0  0  0  0  0  0
   36.7280   24.2130   31.4050 C   0  0  0  0  0  0  0  0  0  0  0  0
   37.6600   24.0260   30.3840 C   0  0  0  0  0  0  0  0  0  0  0  0
   38.7610   24.8320   30.2460 C   0  0  0  0  0  0  0  0  0  0  0  0
   38.9510   25.8150   31.1020 N   0  0  0  0  0  0  0  0  0  0  0  0
   38.0340   25.9980   32.1070 C   0  0  0  0  0  0  0  0  0  0  0  0
   36.9410   25.2250   32.2690 N   0  0  0  0  0  0  0  0  0  0  0  0
   37.5330   23.2230   29.6570 H   0  0  0  0  0  0  0  0  0  0  0  0
   39.4550   24.6530   29.4430 H   0  0  0  0  0  0  0  0  0  0  0  0
   38.2170   27.0990   33.0920 C   0  0  0  0  0  3  0  0  0  0  0  0
   39.6220   26.9730   33.6410 C   0  0  0  0  0  2  0  0  0  0  0  0
   39.5470   26.2100   34.9430 C   0  0  0  0  0  2  0  0  0  0  0  0
   38.9270   27.1530   35.9560 C   0  0  0  0  0  2  0  0  0  0  0  0
   37.6490   27.7270   35.4330 C   0  0  0  0  0  2  0  0  0  0  0  0
   37.1570   27.0780   34.1630 C   0  0  0  0  0  2  0  0  0  0  0  0
  1  6  1  0  0  0  0
  2  3  1  0  0  0  0
  3  9  1  0  0  0  0
  3  4  2  0  0  0  0
  4 12  1  0  0  0  0
  5  4  1  0  0  0  0
  6  5  2  0  0  0  0
  7  2  2  0  0  0  0
  7  6  1  0  0  0  0
  8  2  1  0  0  0  0
 10 11  1  0  0  0  0
 11 16  1  0  0  0  0
 12 13  1  0  0  0  0
 12 11  2  0  0  0  0
 13 14  2  0  0  0  0
 14 18  1  0  0  0  0
 14 15  1  0  0  0  0
 15 19  1  0  0  0  0
 16 15  2  0  0  0  0
 16 20  1  0  0  0  0
 17 13  1  0  0  0  0
 21 24  1  0  0  0  0
 21  1  1  0  0  0  0
 22 21  1  0  0  0  0
 23 21  1  0  0  0  0
 24 25  1  0  0  0  0
 26 24  1  0  0  0  0
 27 24  1  0  0  0  0
 27 32  1  0  0  0  0
 28 27  2  0  0  0  0
 29 28  1  0  0  0  0
 29 30  2  0  0  0  0
 30 31  1  0  0  0  0
 31 32  2  0  0  0  0
 31 35  1  0  0  0  0
 33 28  1  0  0  0  0
 34 29  1  0  0  0  0
 35 36  1  0  0  0  0
 35 40  1  0  0  0  0
 36 37  1  0  0  0  0
 37 38  1  0  0  0  0
 39 38  1  0  0  0  0
 40 39  1  0  0  0  0
M  END
>  <minimizedAffinity>
-6.32287455

$$$$

 OpenBabel03272509563D

 40 43  0  0  0  0  0  0  0  0999 V2000
   37.0540   21.5360   34.6630 O   0  0  0  0  0  0  0  0  0  0  0  0
   37.7090   23.2530   37.7680 C   0  0  0  0  0  0  0  0  0  0  0  0
   39.1190   23.3690   37.6950 C   0  0  0  0  0  0  0  0  0  0  0  0
   39.7510   22.8470   36.5800 C   0  0  0  0  0  0  0  0  0  0  0  0
   38.9510   22.2620   35.6420 N   0  0  0  0  0  0  0  0  0  0  0  0
   37.6220   22.1650   35.7320 C   0  0  0  0  0  0  0  0  0  0  0  0
   37.0030   22.6720   36.8160 N   0  0  0  0  0  0  0  0  0  0  0  0
   37.2270   23.6640   38.6410 H   0  0  0  0  0  0  0  0  0  0  0  0
   39.7290   23.8260   38.4300 H   0  0  0  0  0  0  0  0  0  0  0  0
   41.7800   21.0720   37.6320 F   0  0  0  0  0  0  0  0  0  0  0  0
   42.1420   22.0590   36.8080 C   0  0  0  0  0  0  0  0  0  0  0  0
   41.1740   22.8710   36.3330 C   0  0  0  0  0  0  0  0  0  0  0  0
   41.6530   23.8720   35.4800 C   0  0  0  0  0  0  0  0  0  0  0  0
   42.9860   23.9960   35.1690 C   0  0  0  0  0  0  0  0  0  0  0  0
   43.9230   23.1400   35.6840 C   0  0  0  0  0  0  0  0  0  0  0  0
   43.4790   22.1570   36.5180 C   0  0  0  0  0  0  0  0  0  0  0  0
   41.0000   24.6010   35.0170 H   0  0  0  0  0  0  0  0  0  0  0  0
   43.3450   24.7810   34.5030 H   0  0  0  0  0  0  0  0  0  0  0  0
   44.9660   23.2640   35.4200 H   0  0  0  0  0  0  0  0  0  0  0  0
   44.2000   21.4680   36.9370 H   0  0  0  0  0  0  0  0  0  0  0  0
   37.6990   21.6160   33.4000 C   0  0  0  0  0  0  0  0  0  0  0  0
   38.2670   20.6850   33.2130 H   0  0  0  0  0  0  0  0  0  0  0  0
   38.4510   22.4350   33.4630 H   0  0  0  0  0  0  0  0  0  0  0  0
   36.7130   21.9640   32.3220 C   0  0  0  0  0  0  0  0  0  0  0  0
   35.7360   21.4890   32.4500 H   0  0  0  0  0  0  0  0  0  0  0  0
   37.1510   21.6160   31.3400 H   0  0  0  0  0  0  0  0  0  0  0  0
   36.5340   23.4320   32.1630 C   0  0  0  0  0  0  0  0  0  0  0  0
   35.6310   23.8680   31.1940 C   0  0  0  0  0  0  0  0  0  0  0  0
   35.3910   25.1990   30.9680 C   0  0  0  0  0  0  0  0  0  0  0  0
   36.0320   26.1000   31.6840 N   0  0  0  0  0  0  0  0  0  0  0  0
   36.9210   25.6710   32.6380 C   0  0  0  0  0  0  0  0  0  0  0  0
   37.1780   24.3700   32.8850 N   0  0  0  0  0  0  0  0  0  0  0  0
   35.0830   23.1510   30.5830 H   0  0  0  0  0  0  0  0  0  0  0  0
   34.6860   25.4920   30.2090 H   0  0  0  0  0  0  0  0  0  0  0  0
   37.6620   26.6610   33.4660 C   0  0  0  0  0  3  0  0  0  0  0  0
   38.6550   27.3480   32.5530 C   0  0  0  0  0  2  0  0  0  0  0  0
   39.9880   26.6530   32.7090 C   0  0  0  0  0  2  0  0  0  0  0  0
   40.5230   27.0550   34.0690 C   0  0  0  0  0  2  0  0  0  0  0  0
   39.5040   26.8090   35.1340 C   0  0  0  0  0  2  0  0  0  0  0  0
   38.3050   26.0190   34.6690 C   0  0  0  0  0  2  0  0  0  0  0  0
  1  6  1  0  0  0  0
  2  8  1  0  0  0  0
  3  2  1  0  0  0  0
  3  9  1  0  0  0  0
  4  3  2  0  0  0  0
  5  6  2  0  0  0  0
  5  4  1  0  0  0  0
  6  7  1  0  0  0  0
  7  2  2  0  0  0  0
 11 10  1  0  0  0  0
 12  4  1  0  0  0  0
 12 11  2  0  0  0  0
 13 12  1  0  0  0  0
 14 13  2  0  0  0  0
 14 15  1  0  0  0  0
 15 16  2  0  0  0  0
 16 11  1  0  0  0  0
 16 20  1  0  0  0  0
 17 13  1  0  0  0  0
 18 14  1  0  0  0  0
 19 15  1  0  0  0  0
 21 23  1  0  0  0  0
 21  1  1  0  0  0  0
 22 21  1  0  0  0  0
 24 25  1  0  0  0  0
 24 21  1  0  0  0  0
 26 24  1  0  0  0  0
 27 24  1  0  0  0  0
 27 32  1  0  0  0  0
 28 27  2  0  0  0  0
 29 28  1  0  0  0  0
 29 30  2  0  0  0  0
 30 31  1  0  0  0  0
 31 32  2  0  0  0  0
 31 35  1  0  0  0  0
 33 28  1  0  0  0  0
 34 29  1  0  0  0  0
 35 40  1  0  0  0  0
 36 37  1  0  0  0  0
 36 35  1  0  0  0  0
 37 38  1  0  0  0  0
 38 39  1  0  0  0  0
 40 39  1  0  0  0  0
M  END
>  <minimizedAffinity>
-6.31313467

$$$$

 OpenBabel03272509563D

 40 43  0  0  0  0  0  0  0  0999 V2000
   35.8660   26.7070   31.8040 O   0  0  0  0  0  0  0  0  0  0  0  0
   38.4550   24.6640   30.3400 C   0  0  0  0  0  0  0  0  0  0  0  0
   38.0260   23.3810   30.7580 C   0  0  0  0  0  0  0  0  0  0  0  0
   36.8720   23.3050   31.5180 C   0  0  0  0  0  0  0  0  0  0  0  0
   36.2460   24.4840   31.7990 N   0  0  0  0  0  0  0  0  0  0  0  0
   36.6690   25.6830   31.3920 C   0  0  0  0  0  0  0  0  0  0  0  0
   37.7920   25.7630   30.6520 N   0  0  0  0  0  0  0  0  0  0  0  0
   39.3550   24.7120   29.7470 H   0  0  0  0  0  0  0  0  0  0  0  0
   38.5210   22.4720   30.5340 H   0  0  0  0  0  0  0  0  0  0  0  0
   37.2240   22.1150   34.1330 F   0  0  0  0  0  0  0  0  0  0  0  0
   36.4300   21.5120   33.2450 C   0  0  0  0  0  0  0  0  0  0  0  0
   36.2850   22.0900   32.0330 C   0  0  0  0  0  0  0  0  0  0  0  0
   35.4350   21.3820   31.1760 C   0  0  0  0  0  0  0  0  0  0  0  0
   34.8180   20.2130   31.5520 C   0  0  0  0  0  0  0  0  0  0  0  0
   35.0050   19.6750   32.7980 C   0  0  0  0  0  0  0  0  0  0  0  0
   35.8290   20.3480   33.6510 C   0  0  0  0  0  0  0  0  0  0  0  0
   35.2170   21.7170   30.1690 H   0  0  0  0  0  0  0  0  0  0  0  0
   34.1580   19.6730   30.8730 H   0  0  0  0  0  0  0  0  0  0  0  0
   34.5040   18.7530   33.0640 H   0  0  0  0  0  0  0  0  0  0  0  0
   35.9920   19.9420   34.6410 H   0  0  0  0  0  0  0  0  0  0  0  0
   36.4700   27.8980   32.2880 C   0  0  0  0  0  0  0  0  0  0  0  0
   35.8770   28.7740   31.9660 H   0  0  0  0  0  0  0  0  0  0  0  0
   37.4630   27.9910   31.7900 H   0  0  0  0  0  0  0  0  0  0  0  0
   36.6930   27.8150   33.7700 C   0  0  0  0  0  0  0  0  0  0  0  0
   35.8120   27.4880   34.3300 H   0  0  0  0  0  0  0  0  0  0  0  0
   36.9760   28.8500   34.1270 H   0  0  0  0  0  0  0  0  0  0  0  0
   37.8550   26.9560   34.1270 C   0  0  0  0  0  0  0  0  0  0  0  0
   39.1130   27.3600   33.6800 C   0  0  0  0  0  0  0  0  0  0  0  0
   40.2490   26.6410   33.9550 C   0  0  0  0  0  0  0  0  0  0  0  0
   40.1540   25.5330   34.6620 N   0  0  0  0  0  0  0  0  0  0  0  0
   38.9160   25.1370   35.1010 C   0  0  0  0  0  0  0  0  0  0  0  0
   37.7810   25.8200   34.8480 N   0  0  0  0  0  0  0  0  0  0  0  0
   39.2280   28.2720   33.0940 H   0  0  0  0  0  0  0  0  0  0  0  0
   41.2000   26.9890   33.5910 H   0  0  0  0  0  0  0  0  0  0  0  0
   38.7730   23.8900   35.9010 C   0  0  0  0  0  3  0  0  0  0  0  0
   37.6060   24.0990   36.8430 C   0  0  0  0  0  2  0  0  0  0  0  0
   38.1590   24.5480   38.1760 C   0  0  0  0  0  2  0  0  0  0  0  0
   38.8150   23.3320   38.7990 C   0  0  0  0  0  2  0  0  0  0  0  0
   39.7790   22.7020   37.8440 C   0  0  0  0  0  2  0  0  0  0  0  0
   40.0530   23.5280   36.6110 C   0  0  0  0  0  2  0  0  0  0  0  0
  1 21  1  0  0  0  0
  2  7  2  0  0  0  0
  2  3  1  0  0  0  0
  3  4  2  0  0  0  0
  4  5  1  0  0  0  0
  4 12  1  0  0  0  0
  6  5  2  0  0  0  0
  6  1  1  0  0  0  0
  7  6  1  0  0  0  0
  8  2  1  0  0  0  0
  9  3  1  0  0  0  0
 11 16  1  0  0  0  0
 11 10  1  0  0  0  0
 12 11  2  0  0  0  0
 13 14  2  0  0  0  0
 13 12  1  0  0  0  0
 14 15  1  0  0  0  0
 15 19  1  0  0  0  0
 15 16  2  0  0  0  0
 16 20  1  0  0  0  0
 17 13  1  0  0  0  0
 18 14  1  0  0  0  0
 21 24  1  0  0  0  0
 22 21  1  0  0  0  0
 23 21  1  0  0  0  0
 24 27  1  0  0  0  0
 24 26  1  0  0  0  0
 24 25  1  0  0  0  0
 27 32  1  0  0  0  0
 28 29  1  0  0  0  0
 28 27  2  0  0  0  0
 29 30  2  0  0  0  0
 30 31  1  0  0  0  0
 31 35  1  0  0  0  0
 32 31  2  0  0  0  0
 33 28  1  0  0  0  0
 34 29  1  0  0  0  0
 35 40  1  0  0  0  0
 35 36  1  0  0  0  0
 36 37  1  0  0  0  0
 37 38  1  0  0  0  0
 39 38  1  0  0  0  0
 40 39  1  0  0  0  0
M  END
>  <minimizedAffinity>
-6.20617008

$$$$

 OpenBabel03272509563D

 40 43  0  0  0  0  0  0  0  0999 V2000
   36.3860   27.8910   31.8110 O   0  0  0  0  0  0  0  0  0  0  0  0
   36.5400   31.4600   31.3040 C   0  0  0  0  0  0  0  0  0  0  0  0
   35.9580   31.9090   32.5140 C   0  0  0  0  0  0  0  0  0  0  0  0
   35.5490   30.9510   33.4260 C   0  0  0  0  0  0  0  0  0  0  0  0
   35.7470   29.6480   33.0730 N   0  0  0  0  0  0  0  0  0  0  0  0
   36.3010   29.2480   31.9250 C   0  0  0  0  0  0  0  0  0  0  0  0
   36.6990   30.1770   31.0350 N   0  0  0  0  0  0  0  0  0  0  0  0
   36.8560   32.2150   30.6010 H   0  0  0  0  0  0  0  0  0  0  0  0
   35.8090   32.9240   32.7770 H   0  0  0  0  0  0  0  0  0  0  0  0
   36.7470   32.1600   35.7660 F   0  0  0  0  0  0  0  0  0  0  0  0
   35.4690   31.7780   35.8130 C   0  0  0  0  0  0  0  0  0  0  0  0
   34.9370   31.2170   34.7060 C   0  0  0  0  0  0  0  0  0  0  0  0
   33.5940   30.8520   34.8560 C   0  0  0  0  0  0  0  0  0  0  0  0
   32.9030   31.0550   36.0270 C   0  0  0  0  0  0  0  0  0  0  0  0
   33.4990   31.6300   37.1180 C   0  0  0  0  0  0  0  0  0  0  0  0
   34.8080   31.9940   36.9950 C   0  0  0  0  0  0  0  0  0  0  0  0
   33.0260   30.3900   34.0580 H   0  0  0  0  0  0  0  0  0  0  0  0
   31.8580   30.7650   36.1290 H   0  0  0  0  0  0  0  0  0  0  0  0
   32.9280   31.7770   38.0260 H   0  0  0  0  0  0  0  0  0  0  0  0
   35.3000   32.4510   37.8430 H   0  0  0  0  0  0  0  0  0  0  0  0
   37.4560   27.2170   32.4580 C   0  0  0  0  0  0  0  0  0  0  0  0
   37.9540   27.9040   33.1680 H   0  0  0  0  0  0  0  0  0  0  0  0
   38.2110   26.9690   31.6780 H   0  0  0  0  0  0  0  0  0  0  0  0
   36.9780   25.9340   33.0740 C   0  0  0  0  0  0  0  0  0  0  0  0
   35.9190   25.9450   33.3490 H   0  0  0  0  0  0  0  0  0  0  0  0
   37.5860   25.7630   34.0120 H   0  0  0  0  0  0  0  0  0  0  0  0
   37.2560   24.7490   32.2170 C   0  0  0  0  0  0  0  0  0  0  0  0
   38.4490   24.7460   31.4940 C   0  0  0  0  0  0  0  0  0  0  0  0
   38.8020   23.7030   30.6760 C   0  0  0  0  0  0  0  0  0  0  0  0
   37.9920   22.6700   30.5650 N   0  0  0  0  0  0  0  0  0  0  0  0
   36.8190   22.6740   31.2760 C   0  0  0  0  0  0  0  0  0  0  0  0
   36.4440   23.6820   32.0890 N   0  0  0  0  0  0  0  0  0  0  0  0
   39.1430   25.5840   31.5630 H   0  0  0  0  0  0  0  0  0  0  0  0
   39.7320   23.7410   30.1360 H   0  0  0  0  0  0  0  0  0  0  0  0
   35.8810   21.5230   31.1750 C   0  0  0  0  0  3  0  0  0  0  0  0
   35.1050   21.4660   32.4730 C   0  0  0  0  0  2  0  0  0  0  0  0
   35.7820   20.4620   33.3770 C   0  0  0  0  0  2  0  0  0  0  0  0
   35.4770   19.0940   32.8010 C   0  0  0  0  0  2  0  0  0  0  0  0
   35.8260   19.0390   31.3480 C   0  0  0  0  0  2  0  0  0  0  0  0
   36.6010   20.2370   30.8560 C   0  0  0  0  0  2  0  0  0  0  0  0
  1  6  1  0  0  0  0
  1 21  1  0  0  0  0
  2  3  1  0  0  0  0
  3  9  1  0  0  0  0
  3  4  2  0  0  0  0
  4 12  1  0  0  0  0
  5  4  1  0  0  0  0
  6  5  2  0  0  0  0
  7  2  2  0  0  0  0
  7  6  1  0  0  0  0
  8  2  1  0  0  0  0
 10 11  1  0  0  0  0
 11 16  1  0  0  0  0
 12 13  1  0  0  0  0
 12 11  2  0  0  0  0
 13 14  2  0  0  0  0
 14 18  1  0  0  0  0
 14 15  1  0  0  0  0
 15 19  1  0  0  0  0
 16 15  2  0  0  0  0
 16 20  1  0  0  0  0
 17 13  1  0  0  0  0
 21 24  1  0  0  0  0
 21 22  1  0  0  0  0
 23 21  1  0  0  0  0
 24 25  1  0  0  0  0
 24 26  1  0  0  0  0
 27 24  1  0  0  0  0
 28 33  1  0  0  0  0
 28 27  2  0  0  0  0
 29 28  1  0  0  0  0
 30 29  2  0  0  0  0
 30 31  1  0  0  0  0
 31 32  2  0  0  0  0
 32 27  1  0  0  0  0
 34 29  1  0  0  0  0
 35 31  1  0  0  0  0
 35 36  1  0  0  0  0
 36 37  1  0  0  0  0
 38 37  1  0  0  0  0
 39 38  1  0  0  0  0
 40 35  1  0  0  0  0
 40 39  1  0  0  0  0
M  END
>  <minimizedAffinity>
-6.20338535

$$$$

 OpenBabel03272509563D

 40 43  0  0  0  0  0  0  0  0999 V2000
   35.9080   22.5450   31.2050 O   0  0  0  0  0  0  0  0  0  0  0  0
   34.9480   25.9990   30.7920 C   0  0  0  0  0  0  0  0  0  0  0  0
   35.8310   26.6140   31.7120 C   0  0  0  0  0  0  0  0  0  0  0  0
   36.6990   25.7970   32.4150 C   0  0  0  0  0  0  0  0  0  0  0  0
   36.6260   24.4600   32.1560 N   0  0  0  0  0  0  0  0  0  0  0  0
   35.7840   23.9020   31.2810 C   0  0  0  0  0  0  0  0  0  0  0  0
   34.9370   24.6930   30.5950 N   0  0  0  0  0  0  0  0  0  0  0  0
   34.2760   26.6440   30.2480 H   0  0  0  0  0  0  0  0  0  0  0  0
   35.8790   27.6540   31.9050 H   0  0  0  0  0  0  0  0  0  0  0  0
   39.5790   25.9190   32.1570 F   0  0  0  0  0  0  0  0  0  0  0  0
   39.0110   26.3100   33.3000 C   0  0  0  0  0  0  0  0  0  0  0  0
   37.6660   26.2430   33.3920 C   0  0  0  0  0  0  0  0  0  0  0  0
   37.1680   26.6750   34.6260 C   0  0  0  0  0  0  0  0  0  0  0  0
   37.9890   27.1220   35.6340 C   0  0  0  0  0  0  0  0  0  0  0  0
   39.3500   27.1670   35.4810 C   0  0  0  0  0  0  0  0  0  0  0  0
   39.8570   26.7500   34.2860 C   0  0  0  0  0  0  0  0  0  0  0  0
   36.1090   26.6820   34.8550 H   0  0  0  0  0  0  0  0  0  0  0  0
   37.5870   27.4550   36.5910 H   0  0  0  0  0  0  0  0  0  0  0  0
   39.9690   27.5240   36.2940 H   0  0  0  0  0  0  0  0  0  0  0  0
   40.9290   26.7770   34.1410 H   0  0  0  0  0  0  0  0  0  0  0  0
   35.2870   21.7450   32.2010 C   0  0  0  0  0  0  0  0  0  0  0  0
   34.3140   21.3740   31.8270 H   0  0  0  0  0  0  0  0  0  0  0  0
   35.0580   22.4090   33.0650 H   0  0  0  0  0  0  0  0  0  0  0  0
   36.2190   20.6660   32.6710 C   0  0  0  0  0  0  0  0  0  0  0  0
   36.4080   19.8910   31.9220 H   0  0  0  0  0  0  0  0  0  0  0  0
   35.7420   20.1780   33.5720 H   0  0  0  0  0  0  0  0  0  0  0  0
   37.5140   21.2050   33.1670 C   0  0  0  0  0  0  0  0  0  0  0  0
   38.6790   20.7430   32.5530 C   0  0  0  0  0  0  0  0  0  0  0  0
   39.9230   21.1770   32.9330 C   0  0  0  0  0  0  0  0  0  0  0  0
   40.0290   22.0560   33.9090 N   0  0  0  0  0  0  0  0  0  0  0  0
   38.8830   22.5090   34.5120 C   0  0  0  0  0  0  0  0  0  0  0  0
   37.6450   22.1040   34.1620 N   0  0  0  0  0  0  0  0  0  0  0  0
   38.6290   20.0170   31.7420 H   0  0  0  0  0  0  0  0  0  0  0  0
   40.7960   20.7950   32.4320 H   0  0  0  0  0  0  0  0  0  0  0  0
   38.9650   23.5020   35.6180 C   0  0  0  0  0  3  0  0  0  0  0  0
   40.3000   23.2970   36.3000 C   0  0  0  0  0  2  0  0  0  0  0  0
   40.0770   22.4090   37.5030 C   0  0  0  0  0  2  0  0  0  0  0  0
   39.3560   23.2570   38.5320 C   0  0  0  0  0  2  0  0  0  0  0  0
   38.1480   23.9030   37.9350 C   0  0  0  0  0  2  0  0  0  0  0  0
   37.7930   23.3940   36.5600 C   0  0  0  0  0  2  0  0  0  0  0  0
  1  6  1  0  0  0  0
  1 21  1  0  0  0  0
  2  3  1  0  0  0  0
  3  9  1  0  0  0  0
  3  4  2  0  0  0  0
  4 12  1  0  0  0  0
  5  4  1  0  0  0  0
  6  5  2  0  0  0  0
  7  2  2  0  0  0  0
  7  6  1  0  0  0  0
  8  2  1  0  0  0  0
 10 11  1  0  0  0  0
 11 12  2  0  0  0  0
 11 16  1  0  0  0  0
 12 13  1  0  0  0  0
 13 17  1  0  0  0  0
 13 14  2  0  0  0  0
 14 18  1  0  0  0  0
 15 14  1  0  0  0  0
 15 19  1  0  0  0  0
 16 15  2  0  0  0  0
 20 16  1  0  0  0  0
 21 24  1  0  0  0  0
 21 23  1  0  0  0  0
 22 21  1  0  0  0  0
 24 27  1  0  0  0  0
 24 26  1  0  0  0  0
 25 24  1  0  0  0  0
 27 32  1  0  0  0  0
 28 29  1  0  0  0  0
 28 27  2  0  0  0  0
 29 30  2  0  0  0  0
 30 31  1  0  0  0  0
 31 35  1  0  0  0  0
 32 31  2  0  0  0  0
 33 28  1  0  0  0  0
 34 29  1  0  0  0  0
 35 36  1  0  0  0  0
 35 40  1  0  0  0  0
 36 37  1  0  0  0  0
 37 38  1  0  0  0  0
 39 38  1  0  0  0  0
 40 39  1  0  0  0  0
M  END
>  <minimizedAffinity>
-6.1510005

$$$$

 OpenBabel03272509563D

 40 43  0  0  0  0  0  0  0  0999 V2000
   35.9320   28.5400   31.3050 O   0  0  0  0  0  0  0  0  0  0  0  0
   33.4580   29.7380   33.6420 C   0  0  0  0  0  0  0  0  0  0  0  0
   34.0990   30.9130   34.1030 C   0  0  0  0  0  0  0  0  0  0  0  0
   35.3440   31.2150   33.5780 C   0  0  0  0  0  0  0  0  0  0  0  0
   35.8450   30.3450   32.6540 N   0  0  0  0  0  0  0  0  0  0  0  0
   35.2200   29.2420   32.2330 C   0  0  0  0  0  0  0  0  0  0  0  0
   34.0090   28.9440   32.7420 N   0  0  0  0  0  0  0  0  0  0  0  0
   32.4880   29.5130   34.0560 H   0  0  0  0  0  0  0  0  0  0  0  0
   33.7000   31.5820   34.8210 H   0  0  0  0  0  0  0  0  0  0  0  0
   36.0960   32.1400   36.2150 F   0  0  0  0  0  0  0  0  0  0  0  0
   36.5120   32.8190   35.1440 C   0  0  0  0  0  0  0  0  0  0  0  0
   36.1460   32.3640   33.9270 C   0  0  0  0  0  0  0  0  0  0  0  0
   36.6320   33.1440   32.8700 C   0  0  0  0  0  0  0  0  0  0  0  0
   37.4050   34.2610   33.0760 C   0  0  0  0  0  0  0  0  0  0  0  0
   37.7440   34.6730   34.3380 C   0  0  0  0  0  0  0  0  0  0  0  0
   37.2820   33.9290   35.3830 C   0  0  0  0  0  0  0  0  0  0  0  0
   36.4250   32.9090   31.8330 H   0  0  0  0  0  0  0  0  0  0  0  0
   37.7760   34.8590   32.2440 H   0  0  0  0  0  0  0  0  0  0  0  0
   38.3550   35.5580   34.4670 H   0  0  0  0  0  0  0  0  0  0  0  0
   37.5360   34.2350   36.3890 H   0  0  0  0  0  0  0  0  0  0  0  0
   36.4570   27.2690   31.6630 C   0  0  0  0  0  0  0  0  0  0  0  0
   36.7040   27.2590   32.7410 H   0  0  0  0  0  0  0  0  0  0  0  0
   37.4210   27.1440   31.1190 H   0  0  0  0  0  0  0  0  0  0  0  0
   35.5280   26.1720   31.2330 C   0  0  0  0  0  0  0  0  0  0  0  0
   35.0220   26.3710   30.2830 H   0  0  0  0  0  0  0  0  0  0  0  0
   34.7420   26.0610   32.0370 H   0  0  0  0  0  0  0  0  0  0  0  0
   36.2010   24.8460   31.1690 C   0  0  0  0  0  0  0  0  0  0  0  0
   37.5940   24.8350   31.0880 C   0  0  0  0  0  0  0  0  0  0  0  0
   38.3110   23.6680   31.0260 C   0  0  0  0  0  0  0  0  0  0  0  0
   37.6700   22.5170   31.0410 N   0  0  0  0  0  0  0  0  0  0  0  0
   36.3000   22.5280   31.1200 C   0  0  0  0  0  0  0  0  0  0  0  0
   35.5660   23.6570   31.1830 N   0  0  0  0  0  0  0  0  0  0  0  0
   38.1560   25.7690   31.0740 H   0  0  0  0  0  0  0  0  0  0  0  0
   39.3850   23.7050   30.9650 H   0  0  0  0  0  0  0  0  0  0  0  0
   35.5440   21.2460   31.1400 C   0  0  0  0  0  3  0  0  0  0  0  0
   34.8030   21.1880   32.4580 C   0  0  0  0  0  2  0  0  0  0  0  0
   35.6350   20.3770   33.4250 C   0  0  0  0  0  2  0  0  0  0  0  0
   35.5300   18.9340   32.9740 C   0  0  0  0  0  2  0  0  0  0  0  0
   35.8630   18.8070   31.5220 C   0  0  0  0  0  2  0  0  0  0  0  0
   36.4440   20.0590   30.9110 C   0  0  0  0  0  2  0  0  0  0  0  0
  1 21  1  0  0  0  0
  1  6  1  0  0  0  0
  2  8  1  0  0  0  0
  2  3  1  0  0  0  0
  3  9  1  0  0  0  0
  4 12  1  0  0  0  0
  4  3  2  0  0  0  0
  5  4  1  0  0  0  0
  6  5  2  0  0  0  0
  6  7  1  0  0  0  0
  7  2  2  0  0  0  0
 11 16  1  0  0  0  0
 11 10  1  0  0  0  0
 12 11  2  0  0  0  0
 13 14  2  0  0  0  0
 13 12  1  0  0  0  0
 14 15  1  0  0  0  0
 15 19  1  0  0  0  0
 15 16  2  0  0  0  0
 16 20  1  0  0  0  0
 17 13  1  0  0  0  0
 18 14  1  0  0  0  0
 21 22  1  0  0  0  0
 23 21  1  0  0  0  0
 24 21  1  0  0  0  0
 24 26  1  0  0  0  0
 25 24  1  0  0  0  0
 27 32  1  0  0  0  0
 27 24  1  0  0  0  0
 28 27  2  0  0  0  0
 29 30  2  0  0  0  0
 29 28  1  0  0  0  0
 30 31  1  0  0  0  0
 31 35  1  0  0  0  0
 31 32  2  0  0  0  0
 33 28  1  0  0  0  0
 34 29  1  0  0  0  0
 35 36  1  0  0  0  0
 36 37  1  0  0  0  0
 38 37  1  0  0  0  0
 39 38  1  0  0  0  0
 40 35  1  0  0  0  0
 40 39  1  0  0  0  0
M  END
>  <minimizedAffinity>
-6.15091896

$$$$

 OpenBabel03272509563D

 40 43  0  0  0  0  0  0  0  0999 V2000
   37.6860   26.6840   32.6150 O   0  0  0  0  0  0  0  0  0  0  0  0
   37.4940   23.0880   32.3950 C   0  0  0  0  0  0  0  0  0  0  0  0
   37.8400   22.7390   33.7220 C   0  0  0  0  0  0  0  0  0  0  0  0
   38.1180   23.7670   34.6070 C   0  0  0  0  0  0  0  0  0  0  0  0
   38.0320   25.0370   34.1150 N   0  0  0  0  0  0  0  0  0  0  0  0
   37.7010   25.3420   32.8570 C   0  0  0  0  0  0  0  0  0  0  0  0
   37.4300   24.3440   31.9930 N   0  0  0  0  0  0  0  0  0  0  0  0
   37.2780   22.2790   31.7140 H   0  0  0  0  0  0  0  0  0  0  0  0
   37.9040   21.7490   34.0930 H   0  0  0  0  0  0  0  0  0  0  0  0
   40.3430   22.2760   35.7020 F   0  0  0  0  0  0  0  0  0  0  0  0
   39.5180   22.9170   36.5330 C   0  0  0  0  0  0  0  0  0  0  0  0
   38.4880   23.6050   35.9930 C   0  0  0  0  0  0  0  0  0  0  0  0
   37.6820   24.2400   36.9440 C   0  0  0  0  0  0  0  0  0  0  0  0
   37.9340   24.1590   38.2930 C   0  0  0  0  0  0  0  0  0  0  0  0
   38.9960   23.4450   38.7810 C   0  0  0  0  0  0  0  0  0  0  0  0
   39.7950   22.8160   37.8720 C   0  0  0  0  0  0  0  0  0  0  0  0
   36.8170   24.8310   36.6700 H   0  0  0  0  0  0  0  0  0  0  0  0
   37.2970   24.6600   39.0230 H   0  0  0  0  0  0  0  0  0  0  0  0
   39.1670   23.4000   39.8490 H   0  0  0  0  0  0  0  0  0  0  0  0
   40.6410   22.2460   38.2330 H   0  0  0  0  0  0  0  0  0  0  0  0
   37.2080   27.1480   31.3600 C   0  0  0  0  0  0  0  0  0  0  0  0
   37.2430   26.3250   30.6220 H   0  0  0  0  0  0  0  0  0  0  0  0
   37.9210   27.9240   31.0000 H   0  0  0  0  0  0  0  0  0  0  0  0
   35.8560   27.7840   31.5100 C   0  0  0  0  0  0  0  0  0  0  0  0
   35.2530   27.3510   32.3130 H   0  0  0  0  0  0  0  0  0  0  0  0
   35.3050   27.6390   30.5340 H   0  0  0  0  0  0  0  0  0  0  0  0
   35.9360   29.2600   31.6880 C   0  0  0  0  0  0  0  0  0  0  0  0
   36.7090   29.9760   30.7750 C   0  0  0  0  0  0  0  0  0  0  0  0
   36.8480   31.3390   30.8480 C   0  0  0  0  0  0  0  0  0  0  0  0
   36.2340   31.9970   31.8100 N   0  0  0  0  0  0  0  0  0  0  0  0
   35.4730   31.2920   32.7080 C   0  0  0  0  0  0  0  0  0  0  0  0
   35.3160   29.9530   32.6630 N   0  0  0  0  0  0  0  0  0  0  0  0
   37.2300   29.4640   29.9660 H   0  0  0  0  0  0  0  0  0  0  0  0
   37.4540   31.8520   30.1230 H   0  0  0  0  0  0  0  0  0  0  0  0
   34.7660   32.0040   33.8070 C   0  0  0  0  0  3  0  0  0  0  0  0
   35.8220   32.7160   34.6260 C   0  0  0  0  0  2  0  0  0  0  0  0
   36.1660   31.8380   35.8070 C   0  0  0  0  0  2  0  0  0  0  0  0
   34.9800   31.9040   36.7490 C   0  0  0  0  0  2  0  0  0  0  0  0
   33.7090   31.5950   36.0250 C   0  0  0  0  0  2  0  0  0  0  0  0
   33.9110   31.0690   34.6240 C   0  0  0  0  0  2  0  0  0  0  0  0
  1  6  1  0  0  0  0
  2  3  1  0  0  0  0
  3  9  1  0  0  0  0
  3  4  2  0  0  0  0
  4 12  1  0  0  0  0
  5  4  1  0  0  0  0
  6  5  2  0  0  0  0
  7  2  2  0  0  0  0
  7  6  1  0  0  0  0
  8  2  1  0  0  0  0
 10 11  1  0  0  0  0
 11 16  1  0  0  0  0
 12 11  2  0  0  0  0
 12 13  1  0  0  0  0
 13 14  2  0  0  0  0
 14 15  1  0  0  0  0
 14 18  1  0  0  0  0
 15 19  1  0  0  0  0
 16 20  1  0  0  0  0
 16 15  2  0  0  0  0
 17 13  1  0  0  0  0
 21 24  1  0  0  0  0
 21  1  1  0  0  0  0
 22 21  1  0  0  0  0
 23 21  1  0  0  0  0
 24 27  1  0  0  0  0
 24 25  1  0  0  0  0
 26 24  1  0  0  0  0
 27 32  1  0  0  0  0
 28 29  1  0  0  0  0
 28 27  2  0  0  0  0
 29 30  2  0  0  0  0
 30 31  1  0  0  0  0
 31 35  1  0  0  0  0
 32 31  2  0  0  0  0
 33 28  1  0  0  0  0
 34 29  1  0  0  0  0
 35 40  1  0  0  0  0
 35 36  1  0  0  0  0
 36 37  1  0  0  0  0
 37 38  1  0  0  0  0
 39 38  1  0  0  0  0
 40 39  1  0  0  0  0
M  END
>  <minimizedAffinity>
-6.12905788

$$$$
