
     RDKit          3D

 29 30  0  0  0  0  0  0  0  0999 V2000
   38.3055   31.2329   50.1255 C   0  0  0  0  0  0  0  0  0  0  0  0
   38.2906   31.6102   48.7735 C   0  0  0  0  0  0  0  0  0  0  0  0
   37.2087   31.2311   47.9999 C   0  0  0  0  0  0  0  0  0  0  0  0
   36.2029   30.5060   48.5876 N   0  0  0  0  0  0  0  0  0  0  0  0
   36.2600   30.1652   49.8940 C   0  0  0  0  0  0  0  0  0  0  0  0
   37.3039   30.5300   50.6443 N   0  0  0  0  0  0  0  0  0  0  0  0
   35.1329   29.3831   50.4466 C   0  0  0  0  0  0  0  0  0  0  0  0
   35.2641   29.1288   51.8044 F   0  0  0  0  0  0  0  0  0  0  0  0
   33.9279   30.0594   50.2938 F   0  0  0  0  0  0  0  0  0  0  0  0
   34.9525   28.1652   49.8345 F   0  0  0  0  0  0  0  0  0  0  0  0
   39.1093   31.4846   50.8049 H   0  0  0  0  0  0  0  0  0  0  0  0
   39.1416   32.1670   48.4755 H   0  0  0  0  0  0  0  0  0  0  0  0
   37.2077   31.6291   46.6019 C   0  0  0  0  0  0  0  0  0  0  0  0
   38.5100   31.9673   45.9823 C   0  0  0  0  0  0  0  0  0  0  0  0
   38.9744   30.9341   44.9752 C   0  0  0  0  0  0  0  0  0  0  0  0
   37.9579   30.9168   43.8524 C   0  0  0  0  0  0  0  0  0  0  0  0
   36.5403   30.9127   44.3599 C   0  0  0  0  0  0  0  0  0  0  0  0
   36.5963   30.4731   45.7979 C   0  0  0  0  0  0  0  0  0  0  0  0
   36.4657   32.4773   46.5169 H   0  0  0  0  0  0  0  0  0  0  0  0
   38.3628   32.9002   45.3747 H   0  0  0  0  0  0  0  0  0  0  0  0
   39.3080   32.2374   46.6977 H   0  0  0  0  0  0  0  0  0  0  0  0
   39.1321   29.9333   45.4127 H   0  0  0  0  0  0  0  0  0  0  0  0
   39.9342   31.3296   44.5307 H   0  0  0  0  0  0  0  0  0  0  0  0
   38.1108   30.0417   43.1833 H   0  0  0  0  0  0  0  0  0  0  0  0
   38.1268   31.8173   43.2251 H   0  0  0  0  0  0  0  0  0  0  0  0
   35.9133   30.1980   43.7953 H   0  0  0  0  0  0  0  0  0  0  0  0
   36.1456   31.9513   44.3476 H   0  0  0  0  0  0  0  0  0  0  0  0
   35.5531   30.2993   46.1581 H   0  0  0  0  0  0  0  0  0  0  0  0
   37.1849   29.5580   45.8926 H   0  0  0  0  0  0  0  0  0  0  0  0
  1  6  2  0
  2  1  1  0
  3  4  1  0
  3  2  2  0
  4  5  2  0
  5  7  1  0
  5  6  1  0
  7  8  1  0
  9  7  1  0
 10  7  1  0
  1 11  1  0
  2 12  1  0
 13 14  1  0
 14 15  1  0
 15 16  1  0
 16 17  1  0
 17 18  1  0
 18 13  1  0
 13 19  1  0
 14 20  1  0
 14 21  1  0
 15 22  1  0
 15 23  1  0
 16 24  1  0
 16 25  1  0
 17 26  1  0
 17 27  1  0
 18 28  1  0
 18 29  1  0
  3 13  1  0
M  ISO  2  11  14  12  14
M  END
>  <DihAtoms>  (1) 
3,2,12,13

>  <DihDeg>  (1) 
126.24945347459172

$$$$
