
 OpenBabel03272500163D

 28 30  0  0  0  0  0  0  0  0999 V2000
   35.6700   28.6660   34.5020 Cl  0  0  0  0  0  0  0  0  0  0  0  0
   36.6390   28.4390   33.0750 C   0  0  0  0  0  0  0  0  0  0  0  0
   37.5950   27.4250   33.0370 C   0  0  0  0  0  0  0  0  0  0  0  0
   38.3890   27.2200   31.9060 C   0  0  0  0  0  0  0  0  0  0  0  0
   38.1950   28.0530   30.8230 C   0  0  0  0  0  0  0  0  0  0  0  0
   37.2440   29.0670   30.8470 C   0  0  0  0  0  0  0  0  0  0  0  0
   37.0580   30.0830   29.4330 Cl  0  0  0  0  0  0  0  0  0  0  0  0
   36.4530   29.2610   31.9980 C   0  0  0  0  0  0  0  0  0  0  0  0
   39.1200   26.4250   31.9130 H   0  0  0  0  0  0  0  0  0  0  0  0
   38.8230   27.8710   29.9610 H   0  0  0  0  0  0  0  0  0  0  0  0
   38.2190   26.2420   36.4710 C   0  0  0  0  0  0  0  0  0  0  0  0
   38.1650   24.8430   36.2890 C   0  0  0  0  0  0  0  0  0  0  0  0
   37.9210   24.3310   35.0150 C   0  0  0  0  0  0  0  0  0  0  0  0
   37.7430   25.2210   33.9950 N   0  0  0  0  0  0  0  0  0  0  0  0
   37.7960   26.5520   34.1770 C   0  0  0  0  0  0  0  0  0  0  0  0
   38.0320   27.0620   35.4010 N   0  0  0  0  0  0  0  0  0  0  0  0
   38.4090   26.6360   37.4620 H   0  0  0  0  0  0  0  0  0  0  0  0
   37.8780   23.2640   34.8700 H   0  0  0  0  0  0  0  0  0  0  0  0
   38.3760   23.9650   37.4790 C   0  0  0  0  0  0  0  0  0  0  0  0
   38.2100   24.6870   38.6640 F   0  0  0  0  0  0  0  0  0  0  0  0
   37.4250   22.9680   37.4650 F   0  0  0  0  0  0  0  0  0  0  0  0
   39.6280   23.3770   37.4920 F   0  0  0  0  0  0  0  0  0  0  0  0
   35.4750   30.3700   31.9060 C   0  0  0  0  0  3  0  0  0  0  0  0
   35.8790   31.5990   32.6900 C   0  0  0  0  0  2  0  0  0  0  0  0
   34.7140   32.4720   33.0470 C   0  0  0  0  0  2  0  0  0  0  0  0
   33.5390   32.4120   32.1490 C   0  0  0  0  0  2  0  0  0  0  0  0
   33.1920   31.0950   31.5570 C   0  0  0  0  0  2  0  0  0  0  0  0
   34.0550   29.9980   32.2120 C   0  0  0  0  0  2  0  0  0  0  0  0
  2  1  1  0  0  0  0
  3  2  1  0  0  0  0
  3 15  1  0  0  0  0
  4  9  1  0  0  0  0
  4  3  2  0  0  0  0
  5  6  2  0  0  0  0
  5  4  1  0  0  0  0
  6  8  1  0  0  0  0
  7  6  1  0  0  0  0
  8  2  2  0  0  0  0
 10  5  1  0  0  0  0
 11 17  1  0  0  0  0
 12 11  1  0  0  0  0
 12 19  1  0  0  0  0
 13 12  2  0  0  0  0
 14 15  2  0  0  0  0
 14 13  1  0  0  0  0
 15 16  1  0  0  0  0
 16 11  2  0  0  0  0
 18 13  1  0  0  0  0
 19 22  1  0  0  0  0
 19 20  1  0  0  0  0
 21 19  1  0  0  0  0
 23  8  1  0  0  0  0
 23 28  1  0  0  0  0
 23 24  1  0  0  0  0
 24 25  1  0  0  0  0
 26 25  1  0  0  0  0
 27 26  1  0  0  0  0
 27 28  1  0  0  0  0
M  END
>  <minimizedAffinity>
-5.64067602

$$$$

 OpenBabel03272500163D

 28 30  0  0  0  0  0  0  0  0999 V2000
   38.6370   26.2770   33.6910 Cl  0  0  0  0  0  0  0  0  0  0  0  0
   37.5600   25.1520   32.9160 C   0  0  0  0  0  0  0  0  0  0  0  0
   37.6810   23.7860   33.1680 C   0  0  0  0  0  0  0  0  0  0  0  0
   36.8320   22.8580   32.5590 C   0  0  0  0  0  0  0  0  0  0  0  0
   35.8660   23.3380   31.7000 C   0  0  0  0  0  0  0  0  0  0  0  0
   35.7320   24.6970   31.4400 C   0  0  0  0  0  0  0  0  0  0  0  0
   34.4810   25.2270   30.3370 Cl  0  0  0  0  0  0  0  0  0  0  0  0
   36.5990   25.6190   32.0620 C   0  0  0  0  0  0  0  0  0  0  0  0
   36.9560   21.8080   32.7790 H   0  0  0  0  0  0  0  0  0  0  0  0
   35.2220   22.5970   31.2440 H   0  0  0  0  0  0  0  0  0  0  0  0
   40.8790   22.4940   34.4660 C   0  0  0  0  0  0  0  0  0  0  0  0
   40.5760   22.3490   35.8380 C   0  0  0  0  0  0  0  0  0  0  0  0
   39.3020   22.6890   36.2930 C   0  0  0  0  0  0  0  0  0  0  0  0
   38.4010   23.1520   35.3770 N   0  0  0  0  0  0  0  0  0  0  0  0
   38.6980   23.2870   34.0720 C   0  0  0  0  0  0  0  0  0  0  0  0
   39.9240   22.9620   33.6180 N   0  0  0  0  0  0  0  0  0  0  0  0
   41.8690   22.2290   34.1170 H   0  0  0  0  0  0  0  0  0  0  0  0
   39.0640   22.5810   37.3390 H   0  0  0  0  0  0  0  0  0  0  0  0
   41.6410   21.8320   36.7490 C   0  0  0  0  0  0  0  0  0  0  0  0
   42.6540   22.7800   36.9160 F   0  0  0  0  0  0  0  0  0  0  0  0
   41.0850   21.5980   37.9880 F   0  0  0  0  0  0  0  0  0  0  0  0
   42.2080   20.6560   36.2930 F   0  0  0  0  0  0  0  0  0  0  0  0
   36.3610   27.0380   31.7100 C   0  0  0  0  0  3  0  0  0  0  0  0
   37.3400   27.5800   30.6920 C   0  0  0  0  0  2  0  0  0  0  0  0
   37.4610   29.0740   30.7380 C   0  0  0  0  0  2  0  0  0  0  0  0
   36.2830   29.8210   31.2330 C   0  0  0  0  0  2  0  0  0  0  0  0
   35.4950   29.2110   32.3340 C   0  0  0  0  0  2  0  0  0  0  0  0
   36.2430   27.9750   32.8740 C   0  0  0  0  0  2  0  0  0  0  0  0
  2  3  1  0  0  0  0
  2  1  1  0  0  0  0
  3 15  1  0  0  0  0
  4  9  1  0  0  0  0
  4  3  2  0  0  0  0
  5  4  1  0  0  0  0
  6  5  2  0  0  0  0
  6  8  1  0  0  0  0
  7  6  1  0  0  0  0
  8  2  2  0  0  0  0
 10  5  1  0  0  0  0
 11 12  1  0  0  0  0
 12 13  2  0  0  0  0
 12 19  1  0  0  0  0
 13 18  1  0  0  0  0
 14 13  1  0  0  0  0
 15 14  2  0  0  0  0
 16 15  1  0  0  0  0
 16 11  2  0  0  0  0
 17 11  1  0  0  0  0
 19 20  1  0  0  0  0
 19 21  1  0  0  0  0
 22 19  1  0  0  0  0
 23  8  1  0  0  0  0
 23 28  1  0  0  0  0
 24 25  1  0  0  0  0
 24 23  1  0  0  0  0
 25 26  1  0  0  0  0
 26 27  1  0  0  0  0
 27 28  1  0  0  0  0
M  END
>  <minimizedAffinity>
-5.64022541

$$$$

 OpenBabel03272500163D

 28 30  0  0  0  0  0  0  0  0999 V2000
   35.2010   28.7480   34.4450 Cl  0  0  0  0  0  0  0  0  0  0  0  0
   35.7820   29.6350   33.0660 C   0  0  0  0  0  0  0  0  0  0  0  0
   36.2850   28.9510   31.9600 C   0  0  0  0  0  0  0  0  0  0  0  0
   36.7600   29.6370   30.8390 C   0  0  0  0  0  0  0  0  0  0  0  0
   36.7140   31.0150   30.8600 C   0  0  0  0  0  0  0  0  0  0  0  0
   36.2150   31.7100   31.9560 C   0  0  0  0  0  0  0  0  0  0  0  0
   36.1900   33.4600   31.9060 Cl  0  0  0  0  0  0  0  0  0  0  0  0
   35.7410   31.0020   33.0790 C   0  0  0  0  0  0  0  0  0  0  0  0
   37.1430   29.0740   30.0010 H   0  0  0  0  0  0  0  0  0  0  0  0
   37.0880   31.5200   29.9780 H   0  0  0  0  0  0  0  0  0  0  0  0
   37.3110   25.4750   32.6260 C   0  0  0  0  0  0  0  0  0  0  0  0
   36.3610   24.7620   31.8640 C   0  0  0  0  0  0  0  0  0  0  0  0
   35.3970   25.4670   31.1440 C   0  0  0  0  0  0  0  0  0  0  0  0
   35.4220   26.8310   31.2130 N   0  0  0  0  0  0  0  0  0  0  0  0
   36.3310   27.5030   31.9420 C   0  0  0  0  0  0  0  0  0  0  0  0
   37.2680   26.8350   32.6420 N   0  0  0  0  0  0  0  0  0  0  0  0
   38.0580   24.9240   33.1840 H   0  0  0  0  0  0  0  0  0  0  0  0
   34.6690   24.9280   30.5590 H   0  0  0  0  0  0  0  0  0  0  0  0
   36.4290   23.2700   31.8610 C   0  0  0  0  0  0  0  0  0  0  0  0
   37.1360   22.8030   32.9730 F   0  0  0  0  0  0  0  0  0  0  0  0
   35.1480   22.7690   31.9450 F   0  0  0  0  0  0  0  0  0  0  0  0
   37.0230   22.7660   30.7180 F   0  0  0  0  0  0  0  0  0  0  0  0
   35.2320   31.8490   34.1840 C   0  0  0  0  0  3  0  0  0  0  0  0
   35.9580   31.6330   35.4930 C   0  0  0  0  0  2  0  0  0  0  0  0
   35.1440   32.0410   36.6840 C   0  0  0  0  0  2  0  0  0  0  0  0
   34.1260   33.0930   36.4650 C   0  0  0  0  0  2  0  0  0  0  0  0
   33.4030   33.0900   35.1690 C   0  0  0  0  0  2  0  0  0  0  0  0
   33.7480   31.8020   34.3940 C   0  0  0  0  0  2  0  0  0  0  0  0
  2  8  1  0  0  0  0
  2  1  1  0  0  0  0
  3  2  2  0  0  0  0
  4  5  2  0  0  0  0
  4  3  1  0  0  0  0
  5  6  1  0  0  0  0
  6  8  2  0  0  0  0
  7  6  1  0  0  0  0
  8 23  1  0  0  0  0
  9  4  1  0  0  0  0
 10  5  1  0  0  0  0
 11 16  1  0  0  0  0
 11 17  1  0  0  0  0
 12 11  2  0  0  0  0
 13 14  2  0  0  0  0
 13 12  1  0  0  0  0
 14 15  1  0  0  0  0
 15  3  1  0  0  0  0
 15 16  2  0  0  0  0
 18 13  1  0  0  0  0
 19 12  1  0  0  0  0
 19 21  1  0  0  0  0
 19 20  1  0  0  0  0
 22 19  1  0  0  0  0
 23 28  1  0  0  0  0
 23 24  1  0  0  0  0
 24 25  1  0  0  0  0
 26 25  1  0  0  0  0
 27 26  1  0  0  0  0
 28 27  1  0  0  0  0
M  END
>  <minimizedAffinity>
-5.61326265

$$$$

 OpenBabel03272500163D

 28 30  0  0  0  0  0  0  0  0999 V2000
   38.7650   27.0160   34.6880 Cl  0  0  0  0  0  0  0  0  0  0  0  0
   38.2540   25.5310   33.9400 C   0  0  0  0  0  0  0  0  0  0  0  0
   37.8800   25.5210   32.5970 C   0  0  0  0  0  0  0  0  0  0  0  0
   37.4640   24.3440   31.9690 C   0  0  0  0  0  0  0  0  0  0  0  0
   37.4360   23.1880   32.7220 C   0  0  0  0  0  0  0  0  0  0  0  0
   37.8070   23.1830   34.0620 C   0  0  0  0  0  0  0  0  0  0  0  0
   37.7440   21.6760   34.9500 Cl  0  0  0  0  0  0  0  0  0  0  0  0
   38.2230   24.3810   34.6800 C   0  0  0  0  0  0  0  0  0  0  0  0
   37.1820   24.3750   30.9280 H   0  0  0  0  0  0  0  0  0  0  0  0
   37.1100   22.2920   32.2100 H   0  0  0  0  0  0  0  0  0  0  0  0
   39.0200   28.1910   30.3270 C   0  0  0  0  0  0  0  0  0  0  0  0
   37.9040   29.0550   30.3440 C   0  0  0  0  0  0  0  0  0  0  0  0
   36.7950   28.7190   31.1200 C   0  0  0  0  0  0  0  0  0  0  0  0
   36.8440   27.5550   31.8320 N   0  0  0  0  0  0  0  0  0  0  0  0
   37.9120   26.7370   31.8100 C   0  0  0  0  0  0  0  0  0  0  0  0
   38.9900   27.0490   31.0660 N   0  0  0  0  0  0  0  0  0  0  0  0
   39.8790   28.4550   29.7230 H   0  0  0  0  0  0  0  0  0  0  0  0
   35.9390   29.3760   31.1370 H   0  0  0  0  0  0  0  0  0  0  0  0
   37.9600   30.3030   29.5250 C   0  0  0  0  0  0  0  0  0  0  0  0
   37.4520   31.3900   30.2420 F   0  0  0  0  0  0  0  0  0  0  0  0
   39.2780   30.5800   29.2340 F   0  0  0  0  0  0  0  0  0  0  0  0
   37.2620   30.1930   28.3370 F   0  0  0  0  0  0  0  0  0  0  0  0
   38.5950   24.2520   36.1080 C   0  0  0  0  0  3  0  0  0  0  0  0
   39.8020   23.3710   36.3410 C   0  0  0  0  0  2  0  0  0  0  0  0
   39.8540   22.8080   37.7290 C   0  0  0  0  0  2  0  0  0  0  0  0
   39.1840   23.5940   38.7910 C   0  0  0  0  0  2  0  0  0  0  0  0
   37.9280   24.3000   38.4350 C   0  0  0  0  0  2  0  0  0  0  0  0
   37.4760   23.8610   37.0270 C   0  0  0  0  0  2  0  0  0  0  0  0
  2  8  1  0  0  0  0
  2  1  1  0  0  0  0
  3  2  2  0  0  0  0
  4  3  1  0  0  0  0
  4  5  2  0  0  0  0
  5  6  1  0  0  0  0
  6  8  2  0  0  0  0
  6  7  1  0  0  0  0
  8 23  1  0  0  0  0
  9  4  1  0  0  0  0
 10  5  1  0  0  0  0
 11 12  2  0  0  0  0
 11 16  1  0  0  0  0
 12 13  1  0  0  0  0
 13 18  1  0  0  0  0
 13 14  2  0  0  0  0
 15 14  1  0  0  0  0
 15  3  1  0  0  0  0
 16 15  2  0  0  0  0
 17 11  1  0  0  0  0
 19 20  1  0  0  0  0
 19 12  1  0  0  0  0
 21 19  1  0  0  0  0
 22 19  1  0  0  0  0
 23 24  1  0  0  0  0
 23 28  1  0  0  0  0
 24 25  1  0  0  0  0
 25 26  1  0  0  0  0
 27 26  1  0  0  0  0
 28 27  1  0  0  0  0
M  END
>  <minimizedAffinity>
-5.51273012

$$$$

 OpenBabel03272500163D

 28 30  0  0  0  0  0  0  0  0999 V2000
   36.7930   27.6250   34.5630 Cl  0  0  0  0  0  0  0  0  0  0  0  0
   36.6880   28.4000   33.0080 C   0  0  0  0  0  0  0  0  0  0  0  0
   35.8290   29.4840   32.8280 C   0  0  0  0  0  0  0  0  0  0  0  0
   35.7230   30.1250   31.5910 C   0  0  0  0  0  0  0  0  0  0  0  0
   36.4970   29.6520   30.5520 C   0  0  0  0  0  0  0  0  0  0  0  0
   37.3580   28.5740   30.7180 C   0  0  0  0  0  0  0  0  0  0  0  0
   38.3080   28.0330   29.3510 Cl  0  0  0  0  0  0  0  0  0  0  0  0
   37.4520   27.9370   31.9730 C   0  0  0  0  0  0  0  0  0  0  0  0
   35.0470   30.9610   31.4880 H   0  0  0  0  0  0  0  0  0  0  0  0
   36.3950   30.1680   29.6060 H   0  0  0  0  0  0  0  0  0  0  0  0
   33.0310   29.9290   35.1840 C   0  0  0  0  0  0  0  0  0  0  0  0
   33.5350   30.9560   36.0120 C   0  0  0  0  0  0  0  0  0  0  0  0
   34.8050   31.4740   35.7570 C   0  0  0  0  0  0  0  0  0  0  0  0
   35.5060   30.9540   34.7060 N   0  0  0  0  0  0  0  0  0  0  0  0
   35.0180   29.9770   33.9230 C   0  0  0  0  0  0  0  0  0  0  0  0
   33.7930   29.4670   34.1560 N   0  0  0  0  0  0  0  0  0  0  0  0
   32.0450   29.5290   35.3850 H   0  0  0  0  0  0  0  0  0  0  0  0
   35.1960   32.2580   36.3860 H   0  0  0  0  0  0  0  0  0  0  0  0
   32.6800   31.4480   37.1330 C   0  0  0  0  0  0  0  0  0  0  0  0
   32.4740   30.4390   38.0790 F   0  0  0  0  0  0  0  0  0  0  0  0
   33.3340   32.4820   37.7660 F   0  0  0  0  0  0  0  0  0  0  0  0
   31.4480   31.9060   36.7020 F   0  0  0  0  0  0  0  0  0  0  0  0
   38.4030   26.8020   32.0300 C   0  0  0  0  0  3  0  0  0  0  0  0
   37.7420   25.4760   32.3370 C   0  0  0  0  0  2  0  0  0  0  0  0
   38.6910   24.4730   32.9180 C   0  0  0  0  0  2  0  0  0  0  0  0
   40.1200   24.6220   32.5580 C   0  0  0  0  0  2  0  0  0  0  0  0
   40.6530   26.0010   32.4210 C   0  0  0  0  0  2  0  0  0  0  0  0
   39.5950   27.0100   32.9140 C   0  0  0  0  0  2  0  0  0  0  0  0
  2  1  1  0  0  0  0
  3  2  1  0  0  0  0
  3 15  1  0  0  0  0
  4  3  2  0  0  0  0
  5  6  2  0  0  0  0
  5  4  1  0  0  0  0
  6  8  1  0  0  0  0
  7  6  1  0  0  0  0
  8 23  1  0  0  0  0
  8  2  2  0  0  0  0
  9  4  1  0  0  0  0
 10  5  1  0  0  0  0
 11 17  1  0  0  0  0
 11 12  1  0  0  0  0
 12 19  1  0  0  0  0
 13 12  2  0  0  0  0
 13 18  1  0  0  0  0
 14 13  1  0  0  0  0
 15 16  1  0  0  0  0
 15 14  2  0  0  0  0
 16 11  2  0  0  0  0
 19 21  1  0  0  0  0
 19 20  1  0  0  0  0
 22 19  1  0  0  0  0
 23 24  1  0  0  0  0
 23 28  1  0  0  0  0
 24 25  1  0  0  0  0
 26 25  1  0  0  0  0
 27 26  1  0  0  0  0
 27 28  1  0  0  0  0
M  END
>  <minimizedAffinity>
-5.47085667

$$$$

 OpenBabel03272500163D

 28 30  0  0  0  0  0  0  0  0999 V2000
   38.9010   26.8880   33.5530 Cl  0  0  0  0  0  0  0  0  0  0  0  0
   37.9090   25.6170   32.8990 C   0  0  0  0  0  0  0  0  0  0  0  0
   38.2260   24.2840   33.1570 C   0  0  0  0  0  0  0  0  0  0  0  0
   37.4490   23.2420   32.6440 C   0  0  0  0  0  0  0  0  0  0  0  0
   36.3540   23.5750   31.8740 C   0  0  0  0  0  0  0  0  0  0  0  0
   36.0250   24.9000   31.6090 C   0  0  0  0  0  0  0  0  0  0  0  0
   34.6200   25.2400   30.6230 Cl  0  0  0  0  0  0  0  0  0  0  0  0
   36.8220   25.9390   32.1340 C   0  0  0  0  0  0  0  0  0  0  0  0
   37.7260   22.2220   32.8640 H   0  0  0  0  0  0  0  0  0  0  0  0
   35.7710   22.7480   31.4900 H   0  0  0  0  0  0  0  0  0  0  0  0
   40.3330   23.4230   36.0550 C   0  0  0  0  0  0  0  0  0  0  0  0
   41.5970   23.2890   35.4400 C   0  0  0  0  0  0  0  0  0  0  0  0
   41.7100   23.4920   34.0650 C   0  0  0  0  0  0  0  0  0  0  0  0
   40.5770   23.8140   33.3730 N   0  0  0  0  0  0  0  0  0  0  0  0
   39.3770   23.9400   33.9670 C   0  0  0  0  0  0  0  0  0  0  0  0
   39.2520   23.7470   35.2940 N   0  0  0  0  0  0  0  0  0  0  0  0
   40.2490   23.2640   37.1230 H   0  0  0  0  0  0  0  0  0  0  0  0
   42.6730   23.3920   33.5890 H   0  0  0  0  0  0  0  0  0  0  0  0
   42.7690   22.9340   36.2960 C   0  0  0  0  0  0  0  0  0  0  0  0
   42.4290   21.9350   37.2130 F   0  0  0  0  0  0  0  0  0  0  0  0
   43.7690   22.4340   35.4910 F   0  0  0  0  0  0  0  0  0  0  0  0
   43.2680   24.0200   36.9930 F   0  0  0  0  0  0  0  0  0  0  0  0
   36.3730   27.3070   31.7870 C   0  0  0  0  0  3  0  0  0  0  0  0
   37.2280   27.9730   30.7310 C   0  0  0  0  0  2  0  0  0  0  0  0
   37.1390   29.4690   30.7680 C   0  0  0  0  0  2  0  0  0  0  0  0
   35.8870   30.0480   31.3060 C   0  0  0  0  0  2  0  0  0  0  0  0
   35.2340   29.3410   32.4370 C   0  0  0  0  0  2  0  0  0  0  0  0
   36.1680   28.2280   32.9520 C   0  0  0  0  0  2  0  0  0  0  0  0
  2  3  1  0  0  0  0
  2  1  1  0  0  0  0
  3 15  1  0  0  0  0
  4  9  1  0  0  0  0
  4  3  2  0  0  0  0
  5  4  1  0  0  0  0
  6  5  2  0  0  0  0
  6  8  1  0  0  0  0
  7  6  1  0  0  0  0
  8  2  2  0  0  0  0
 10  5  1  0  0  0  0
 11 17  1  0  0  0  0
 12 11  1  0  0  0  0
 12 19  1  0  0  0  0
 13 12  2  0  0  0  0
 14 15  2  0  0  0  0
 14 13  1  0  0  0  0
 15 16  1  0  0  0  0
 16 11  2  0  0  0  0
 18 13  1  0  0  0  0
 19 22  1  0  0  0  0
 19 20  1  0  0  0  0
 21 19  1  0  0  0  0
 23  8  1  0  0  0  0
 23 28  1  0  0  0  0
 24 25  1  0  0  0  0
 24 23  1  0  0  0  0
 25 26  1  0  0  0  0
 26 27  1  0  0  0  0
 27 28  1  0  0  0  0
M  END
>  <minimizedAffinity>
-5.40013599

$$$$

 OpenBabel03272500163D

 28 30  0  0  0  0  0  0  0  0999 V2000
   36.5060   27.8630   33.8640 Cl  0  0  0  0  0  0  0  0  0  0  0  0
   36.4420   28.8910   32.4630 C   0  0  0  0  0  0  0  0  0  0  0  0
   35.6950   30.0680   32.4970 C   0  0  0  0  0  0  0  0  0  0  0  0
   35.6230   30.9130   31.3870 C   0  0  0  0  0  0  0  0  0  0  0  0
   36.3180   30.5470   30.2530 C   0  0  0  0  0  0  0  0  0  0  0  0
   37.0670   29.3770   30.2050 C   0  0  0  0  0  0  0  0  0  0  0  0
   37.9200   28.9810   28.7290 Cl  0  0  0  0  0  0  0  0  0  0  0  0
   37.1270   28.5350   31.3350 C   0  0  0  0  0  0  0  0  0  0  0  0
   35.0340   31.8160   31.4510 H   0  0  0  0  0  0  0  0  0  0  0  0
   36.2440   31.2200   29.4090 H   0  0  0  0  0  0  0  0  0  0  0  0
   34.8690   31.5550   35.7660 C   0  0  0  0  0  0  0  0  0  0  0  0
   33.5310   31.1350   35.9250 C   0  0  0  0  0  0  0  0  0  0  0  0
   32.9380   30.3610   34.9280 C   0  0  0  0  0  0  0  0  0  0  0  0
   33.6920   30.0450   33.8340 N   0  0  0  0  0  0  0  0  0  0  0  0
   34.9670   30.4490   33.6910 C   0  0  0  0  0  0  0  0  0  0  0  0
   35.5530   31.1970   34.6460 N   0  0  0  0  0  0  0  0  0  0  0  0
   35.3260   32.1570   36.5430 H   0  0  0  0  0  0  0  0  0  0  0  0
   31.9160   30.0360   35.0430 H   0  0  0  0  0  0  0  0  0  0  0  0
   32.8020   31.5400   37.1640 C   0  0  0  0  0  0  0  0  0  0  0  0
   32.5910   30.4380   37.9980 F   0  0  0  0  0  0  0  0  0  0  0  0
   33.5790   32.4410   37.8590 F   0  0  0  0  0  0  0  0  0  0  0  0
   31.5800   32.1290   36.8950 F   0  0  0  0  0  0  0  0  0  0  0  0
   37.9570   27.3190   31.1650 C   0  0  0  0  0  3  0  0  0  0  0  0
   37.1570   26.0350   31.1840 C   0  0  0  0  0  2  0  0  0  0  0  0
   37.9820   24.8400   31.5560 C   0  0  0  0  0  2  0  0  0  0  0  0
   39.4290   24.9100   31.2500 C   0  0  0  0  0  2  0  0  0  0  0  0
   40.1010   26.2240   31.4070 C   0  0  0  0  0  2  0  0  0  0  0  0
   39.1350   27.2150   32.0860 C   0  0  0  0  0  2  0  0  0  0  0  0
  2  3  1  0  0  0  0
  2  1  1  0  0  0  0
  3 15  1  0  0  0  0
  4  9  1  0  0  0  0
  4  3  2  0  0  0  0
  5  4  1  0  0  0  0
  6  5  2  0  0  0  0
  6  8  1  0  0  0  0
  7  6  1  0  0  0  0
  8  2  2  0  0  0  0
 10  5  1  0  0  0  0
 11 12  1  0  0  0  0
 11 17  1  0  0  0  0
 12 19  1  0  0  0  0
 13 18  1  0  0  0  0
 13 12  2  0  0  0  0
 14 13  1  0  0  0  0
 15 14  2  0  0  0  0
 15 16  1  0  0  0  0
 16 11  2  0  0  0  0
 19 21  1  0  0  0  0
 19 20  1  0  0  0  0
 22 19  1  0  0  0  0
 23 24  1  0  0  0  0
 23  8  1  0  0  0  0
 23 28  1  0  0  0  0
 24 25  1  0  0  0  0
 26 27  1  0  0  0  0
 26 25  1  0  0  0  0
 27 28  1  0  0  0  0
M  END
>  <minimizedAffinity>
-5.37549353

$$$$

 OpenBabel03272500163D

 28 30  0  0  0  0  0  0  0  0999 V2000
   37.4580   27.9040   35.6160 Cl  0  0  0  0  0  0  0  0  0  0  0  0
   37.2150   27.9860   33.8950 C   0  0  0  0  0  0  0  0  0  0  0  0
   36.2150   28.8050   33.3720 C   0  0  0  0  0  0  0  0  0  0  0  0
   35.9960   28.8900   31.9950 C   0  0  0  0  0  0  0  0  0  0  0  0
   36.8020   28.1370   31.1670 C   0  0  0  0  0  0  0  0  0  0  0  0
   37.8030   27.3170   31.6740 C   0  0  0  0  0  0  0  0  0  0  0  0
   38.7850   26.3930   30.5580 Cl  0  0  0  0  0  0  0  0  0  0  0  0
   38.0100   27.2420   33.0680 C   0  0  0  0  0  0  0  0  0  0  0  0
   35.2120   29.5350   31.6260 H   0  0  0  0  0  0  0  0  0  0  0  0
   36.6100   28.2240   30.1050 H   0  0  0  0  0  0  0  0  0  0  0  0
   35.0820   31.3780   35.7530 C   0  0  0  0  0  0  0  0  0  0  0  0
   33.7160   31.0460   35.8820 C   0  0  0  0  0  0  0  0  0  0  0  0
   33.2090   29.9630   35.1640 C   0  0  0  0  0  0  0  0  0  0  0  0
   34.0700   29.2710   34.3620 N   0  0  0  0  0  0  0  0  0  0  0  0
   35.3710   29.5940   34.2460 C   0  0  0  0  0  0  0  0  0  0  0  0
   35.8750   30.6370   34.9330 N   0  0  0  0  0  0  0  0  0  0  0  0
   35.4720   32.2200   36.3130 H   0  0  0  0  0  0  0  0  0  0  0  0
   32.1660   29.7040   35.2570 H   0  0  0  0  0  0  0  0  0  0  0  0
   32.8660   31.8740   36.7890 C   0  0  0  0  0  0  0  0  0  0  0  0
   33.6550   32.5720   37.7080 F   0  0  0  0  0  0  0  0  0  0  0  0
   32.1900   32.8060   36.0320 F   0  0  0  0  0  0  0  0  0  0  0  0
   31.9400   31.1200   37.4860 F   0  0  0  0  0  0  0  0  0  0  0  0
   39.1040   26.3370   33.4900 C   0  0  0  0  0  3  0  0  0  0  0  0
   38.6200   25.1060   34.2230 C   0  0  0  0  0  2  0  0  0  0  0  0
   39.6730   24.4960   35.0970 C   0  0  0  0  0  2  0  0  0  0  0  0
   41.0810   24.7220   34.6980 C   0  0  0  0  0  2  0  0  0  0  0  0
   41.4250   26.0410   34.1100 C   0  0  0  0  0  2  0  0  0  0  0  0
   40.2190   26.9920   34.2480 C   0  0  0  0  0  2  0  0  0  0  0  0
  2  1  1  0  0  0  0
  3  2  1  0  0  0  0
  3 15  1  0  0  0  0
  4  3  2  0  0  0  0
  5  6  2  0  0  0  0
  5  4  1  0  0  0  0
  6  8  1  0  0  0  0
  7  6  1  0  0  0  0
  8 23  1  0  0  0  0
  8  2  2  0  0  0  0
  9  4  1  0  0  0  0
 10  5  1  0  0  0  0
 11 12  1  0  0  0  0
 11 17  1  0  0  0  0
 12 19  1  0  0  0  0
 13 18  1  0  0  0  0
 13 12  2  0  0  0  0
 14 13  1  0  0  0  0
 15 14  2  0  0  0  0
 15 16  1  0  0  0  0
 16 11  2  0  0  0  0
 19 22  1  0  0  0  0
 19 20  1  0  0  0  0
 21 19  1  0  0  0  0
 23 24  1  0  0  0  0
 23 28  1  0  0  0  0
 24 25  1  0  0  0  0
 26 25  1  0  0  0  0
 27 28  1  0  0  0  0
 27 26  1  0  0  0  0
M  END
>  <minimizedAffinity>
-5.37179375

$$$$

 OpenBabel03272500163D

 28 30  0  0  0  0  0  0  0  0999 V2000
   36.0420   25.8890   31.7680 Cl  0  0  0  0  0  0  0  0  0  0  0  0
   37.7370   25.7860   31.3870 C   0  0  0  0  0  0  0  0  0  0  0  0
   38.3920   24.5570   31.4530 C   0  0  0  0  0  0  0  0  0  0  0  0
   39.7520   24.4440   31.1540 C   0  0  0  0  0  0  0  0  0  0  0  0
   40.4280   25.5900   30.7880 C   0  0  0  0  0  0  0  0  0  0  0  0
   39.7880   26.8210   30.7170 C   0  0  0  0  0  0  0  0  0  0  0  0
   40.7150   28.2290   30.2450 Cl  0  0  0  0  0  0  0  0  0  0  0  0
   38.4140   26.9170   31.0240 C   0  0  0  0  0  0  0  0  0  0  0  0
   40.2260   23.4760   31.2160 H   0  0  0  0  0  0  0  0  0  0  0  0
   41.4800   25.4720   30.5620 H   0  0  0  0  0  0  0  0  0  0  0  0
   37.1470   21.7100   33.4330 C   0  0  0  0  0  0  0  0  0  0  0  0
   36.2950   21.0820   32.4990 C   0  0  0  0  0  0  0  0  0  0  0  0
   36.1600   21.6310   31.2240 C   0  0  0  0  0  0  0  0  0  0  0  0
   36.8680   22.7650   30.9410 N   0  0  0  0  0  0  0  0  0  0  0  0
   37.6770   23.3560   31.8370 C   0  0  0  0  0  0  0  0  0  0  0  0
   37.8180   22.8370   33.0720 N   0  0  0  0  0  0  0  0  0  0  0  0
   37.2490   21.2800   34.4220 H   0  0  0  0  0  0  0  0  0  0  0  0
   35.5110   21.1560   30.5060 H   0  0  0  0  0  0  0  0  0  0  0  0
   35.5700   19.8450   32.9190 C   0  0  0  0  0  0  0  0  0  0  0  0
   36.3200   18.7040   32.6160 F   0  0  0  0  0  0  0  0  0  0  0  0
   35.3990   19.8770   34.2860 F   0  0  0  0  0  0  0  0  0  0  0  0
   34.3280   19.7270   32.3230 F   0  0  0  0  0  0  0  0  0  0  0  0
   37.8420   28.2790   30.9120 C   0  0  0  0  0  3  0  0  0  0  0  0
   36.9800   28.6700   32.0920 C   0  0  0  0  0  2  0  0  0  0  0  0
   35.9980   29.7540   31.7620 C   0  0  0  0  0  2  0  0  0  0  0  0
   36.3690   30.6770   30.6650 C   0  0  0  0  0  2  0  0  0  0  0  0
   37.1040   30.1080   29.5080 C   0  0  0  0  0  2  0  0  0  0  0  0
   37.1300   28.5700   29.6250 C   0  0  0  0  0  2  0  0  0  0  0  0
  2  3  1  0  0  0  0
  2  1  1  0  0  0  0
  3 15  1  0  0  0  0
  4  9  1  0  0  0  0
  4  3  2  0  0  0  0
  5  4  1  0  0  0  0
  6  5  2  0  0  0  0
  6  8  1  0  0  0  0
  7  6  1  0  0  0  0
  8  2  2  0  0  0  0
 10  5  1  0  0  0  0
 11 17  1  0  0  0  0
 12 19  1  0  0  0  0
 12 11  2  0  0  0  0
 13 12  1  0  0  0  0
 14 13  2  0  0  0  0
 14 15  1  0  0  0  0
 15 16  2  0  0  0  0
 16 11  1  0  0  0  0
 18 13  1  0  0  0  0
 19 21  1  0  0  0  0
 20 19  1  0  0  0  0
 22 19  1  0  0  0  0
 23  8  1  0  0  0  0
 23 24  1  0  0  0  0
 25 24  1  0  0  0  0
 26 25  1  0  0  0  0
 27 28  1  0  0  0  0
 27 26  1  0  0  0  0
 28 23  1  0  0  0  0
M  END
>  <minimizedAffinity>
-5.2825222

$$$$
