
     RDKit          3D

 26 27  0  0  0  0  0  0  0  0999 V2000
   37.2972   30.1832   51.4148 C   0  0  0  0  0  0  0  0  0  0  0  0
   38.0729   30.6835   50.3456 C   0  0  0  0  0  0  0  0  0  0  0  0
   37.6746   30.3405   49.0448 C   0  0  0  0  0  0  0  0  0  0  0  0
   36.5724   29.5516   48.8894 N   0  0  0  0  0  0  0  0  0  0  0  0
   35.8579   29.0936   49.9341 C   0  0  0  0  0  0  0  0  0  0  0  0
   36.2191   29.4086   51.1993 N   0  0  0  0  0  0  0  0  0  0  0  0
   37.6262   30.4629   52.4108 H   0  0  0  0  0  0  0  0  0  0  0  0
   38.9312   31.3007   50.5261 H   0  0  0  0  0  0  0  0  0  0  0  0
   35.0020   28.4765   49.7183 H   0  0  0  0  0  0  0  0  0  0  0  0
   38.4527   30.8396   47.9105 C   0  0  0  0  0  0  0  0  0  0  0  0
   39.3143   32.0221   48.1747 C   0  0  0  0  0  0  0  0  0  0  0  0
   39.7095   32.5800   46.8207 C   0  0  0  0  0  0  0  0  0  0  0  0
   40.0593   31.5043   45.8620 C   0  0  0  0  0  0  0  0  0  0  0  0
   40.3672   30.1642   46.4392 C   0  0  0  0  0  0  0  0  0  0  0  0
   39.4160   29.7138   47.5118 C   0  0  0  0  0  0  0  0  0  0  0  0
   37.8314   30.9903   46.9880 H   0  0  0  0  0  0  0  0  0  0  0  0
   40.2171   31.7802   48.7400 H   0  0  0  0  0  0  0  0  0  0  0  0
   38.7917   32.8613   48.6746 H   0  0  0  0  0  0  0  0  0  0  0  0
   40.4825   33.3707   46.9195 H   0  0  0  0  0  0  0  0  0  0  0  0
   38.8022   33.1127   46.4277 H   0  0  0  0  0  0  0  0  0  0  0  0
   39.3180   31.4002   45.0218 H   0  0  0  0  0  0  0  0  0  0  0  0
   41.0080   31.8336   45.3497 H   0  0  0  0  0  0  0  0  0  0  0  0
   40.2525   29.4220   45.5943 H   0  0  0  0  0  0  0  0  0  0  0  0
   41.4142   30.0265   46.7798 H   0  0  0  0  0  0  0  0  0  0  0  0
   38.8142   28.8281   47.2310 H   0  0  0  0  0  0  0  0  0  0  0  0
   39.9689   29.4563   48.4444 H   0  0  0  0  0  0  0  0  0  0  0  0
  2  1  2  0
  3  2  1  0
  4  3  2  0
  4  5  1  0
  5  6  2  0
  6  1  1  0
  1  7  1  0
  2  8  1  0
  5  9  1  0
 10 11  1  0
 11 12  1  0
 12 13  1  0
 13 14  1  0
 14 15  1  0
 15 10  1  0
 10 16  1  0
 11 17  1  0
 11 18  1  0
 12 19  1  0
 12 20  1  0
 13 21  1  0
 13 22  1  0
 14 23  1  0
 14 24  1  0
 15 25  1  0
 15 26  1  0
  3 10  1  0
M  ISO  3   7  14   8  14   9  14
M  END
>  <DihAtoms>  (1) 
1,2,9,10

>  <DihDeg>  (1) 
-49.97841113850576

$$$$
