
 OpenBabel03272505133D

 36 39  0  0  0  0  0  0  0  0999 V2000
   36.4150   30.9000   45.7090 Cl  0  0  0  0  0  0  0  0  0  0  0  0
   36.6950   30.7820   47.4240 C   0  0  0  0  0  0  0  0  0  0  0  0
   37.9560   31.1210   47.8800 C   0  0  0  0  0  0  0  0  0  0  0  0
   38.1910   31.0300   49.2470 C   0  0  0  0  0  0  0  0  0  0  0  0
   37.1820   30.6160   50.0870 C   0  0  0  0  0  0  0  0  0  0  0  0
   35.9440   30.2940   49.5520 C   0  0  0  0  0  0  0  0  0  0  0  0
   35.6430   30.3600   48.2160 C   0  0  0  0  0  0  0  0  0  0  0  0
   39.1730   31.2900   49.6260 H   0  0  0  0  0  0  0  0  0  0  0  0
   37.3270   30.5330   51.1550 H   0  0  0  0  0  0  0  0  0  0  0  0
   35.1750   29.9710   50.2500 H   0  0  0  0  0  0  0  0  0  0  0  0
   40.2230   33.3250   46.0830 C   0  0  0  0  0  0  0  0  0  0  0  0
   40.9370   32.4760   45.2250 C   0  0  0  0  0  0  0  0  0  0  0  0
   40.6170   31.1070   45.2790 C   0  0  0  0  0  0  0  0  0  0  0  0
   39.6470   30.6930   46.1490 N   0  0  0  0  0  0  0  0  0  0  0  0
   39.0040   31.5590   46.9400 C   0  0  0  0  0  0  0  0  0  0  0  0
   39.2800   32.8630   46.9160 N   0  0  0  0  0  0  0  0  0  0  0  0
   40.5180   34.3610   45.9900 H   0  0  0  0  0  0  0  0  0  0  0  0
   41.7060   32.8530   44.5460 H   0  0  0  0  0  0  0  0  0  0  0  0
   41.1190   30.4060   44.6580 H   0  0  0  0  0  0  0  0  0  0  0  0
   34.0730   29.9540   47.5260 S   0  0  0  0  0  0  0  0  0  0  0  0
   33.9400   29.1630   44.4820 Cl  0  0  0  0  0  0  0  0  0  0  0  0
   33.8990   27.9460   45.7370 C   0  0  0  0  0  0  0  0  0  0  0  0
   33.9530   28.2150   47.1130 C   0  0  0  0  0  0  0  0  0  0  0  0
   33.9120   27.1750   48.0030 C   0  0  0  0  0  0  0  0  0  0  0  0
   33.8190   25.8780   47.5710 C   0  0  0  0  0  0  0  0  0  0  0  0
   33.7630   25.5730   46.2170 C   0  0  0  0  0  0  0  0  0  0  0  0
   33.8040   26.6140   45.3330 C   0  0  0  0  0  0  0  0  0  0  0  0
   33.9620   27.5050   49.0420 H   0  0  0  0  0  0  0  0  0  0  0  0
   33.7910   25.1050   48.3000 H   0  0  0  0  0  0  0  0  0  0  0  0
   33.6900   24.5310   45.9360 H   0  0  0  0  0  0  0  0  0  0  0  0
   33.7430   26.2870   43.8830 C   0  0  0  0  0  3  0  0  0  0  0  0
   34.9740   26.7180   43.1490 C   0  0  0  0  0  2  0  0  0  0  0  0
   34.9030   26.2680   41.7250 C   0  0  0  0  0  2  0  0  0  0  0  0
   33.5970   25.5880   41.3870 C   0  0  0  0  0  2  0  0  0  0  0  0
   32.3940   26.3600   41.8260 C   0  0  0  0  0  2  0  0  0  0  0  0
   32.5270   26.9000   43.2320 C   0  0  0  0  0  2  0  0  0  0  0  0
  1  2  1  0  0  0  0
  2  3  2  0  0  0  0
  2  7  1  0  0  0  0
  3  4  1  0  0  0  0
  4  8  1  0  0  0  0
  4  5  2  0  0  0  0
  5  9  1  0  0  0  0
  6  5  1  0  0  0  0
  6 10  1  0  0  0  0
  7  6  2  0  0  0  0
 11 16  1  0  0  0  0
 12 13  1  0  0  0  0
 12 11  2  0  0  0  0
 13 14  2  0  0  0  0
 14 15  1  0  0  0  0
 15  3  1  0  0  0  0
 16 15  2  0  0  0  0
 17 11  1  0  0  0  0
 18 12  1  0  0  0  0
 19 13  1  0  0  0  0
 20  7  1  0  0  0  0
 21 22  1  0  0  0  0
 22 23  1  0  0  0  0
 23 20  1  0  0  0  0
 23 24  2  0  0  0  0
 24 28  1  0  0  0  0
 25 24  1  0  0  0  0
 25 29  1  0  0  0  0
 26 25  2  0  0  0  0
 27 22  2  0  0  0  0
 27 26  1  0  0  0  0
 30 26  1  0  0  0  0
 31 27  1  0  0  0  0
 32 31  1  0  0  0  0
 33 32  1  0  0  0  0
 34 33  1  0  0  0  0
 34 35  1  0  0  0  0
 35 36  1  0  0  0  0
 36 31  1  0  0  0  0
M  END
>  <minimizedAffinity>
-5.7130475

>  <minimizedRMSD>
0.163216174

$$$$
