
     RDKit          3D

 29 30  0  0  0  0  0  0  0  0999 V2000
   38.3055   31.2329   50.1255 C   0  0  0  0  0  0  0  0  0  0  0  0
   38.2906   31.6102   48.7735 C   0  0  0  0  0  0  0  0  0  0  0  0
   37.2087   31.2311   47.9999 C   0  0  0  0  0  0  0  0  0  0  0  0
   36.2029   30.5060   48.5876 N   0  0  0  0  0  0  0  0  0  0  0  0
   36.2600   30.1652   49.8940 C   0  0  0  0  0  0  0  0  0  0  0  0
   37.3039   30.5300   50.6443 N   0  0  0  0  0  0  0  0  0  0  0  0
   35.1329   29.3831   50.4466 C   0  0  0  0  0  0  0  0  0  0  0  0
   35.2641   29.1288   51.8044 F   0  0  0  0  0  0  0  0  0  0  0  0
   33.9279   30.0594   50.2938 F   0  0  0  0  0  0  0  0  0  0  0  0
   34.9525   28.1652   49.8345 F   0  0  0  0  0  0  0  0  0  0  0  0
   39.1093   31.4846   50.8049 H   0  0  0  0  0  0  0  0  0  0  0  0
   39.1416   32.1670   48.4755 H   0  0  0  0  0  0  0  0  0  0  0  0
   37.2077   31.6291   46.6019 C   0  0  0  0  0  0  0  0  0  0  0  0
   36.3961   30.8254   45.6587 C   0  0  0  0  0  0  0  0  0  0  0  0
   35.1692   31.5600   45.1561 C   0  0  0  0  0  0  0  0  0  0  0  0
   35.6575   32.7659   44.3804 C   0  0  0  0  0  0  0  0  0  0  0  0
   36.7561   33.5049   45.0977 C   0  0  0  0  0  0  0  0  0  0  0  0
   36.6976   33.0756   46.5387 C   0  0  0  0  0  0  0  0  0  0  0  0
   38.2924   31.6810   46.2889 H   0  0  0  0  0  0  0  0  0  0  0  0
   37.0160   30.6582   44.7374 H   0  0  0  0  0  0  0  0  0  0  0  0
   36.1547   29.8047   46.0074 H   0  0  0  0  0  0  0  0  0  0  0  0
   34.4626   31.8359   45.9577 H   0  0  0  0  0  0  0  0  0  0  0  0
   34.6728   30.8776   44.4058 H   0  0  0  0  0  0  0  0  0  0  0  0
   34.8243   33.4692   44.1614 H   0  0  0  0  0  0  0  0  0  0  0  0
   36.0281   32.4112   43.3957 H   0  0  0  0  0  0  0  0  0  0  0  0
   36.6036   34.5990   45.0478 H   0  0  0  0  0  0  0  0  0  0  0  0
   37.7387   33.1775   44.6956 H   0  0  0  0  0  0  0  0  0  0  0  0
   37.3873   33.7243   47.1319 H   0  0  0  0  0  0  0  0  0  0  0  0
   35.6778   33.1626   46.9198 H   0  0  0  0  0  0  0  0  0  0  0  0
  1  6  2  0
  2  1  1  0
  3  4  1  0
  3  2  2  0
  4  5  2  0
  5  7  1  0
  5  6  1  0
  7  8  1  0
  9  7  1  0
 10  7  1  0
  1 11  1  0
  2 12  1  0
 13 14  1  0
 14 15  1  0
 15 16  1  0
 16 17  1  0
 17 18  1  0
 18 13  1  0
 13 19  1  0
 14 20  1  0
 14 21  1  0
 15 22  1  0
 15 23  1  0
 16 24  1  0
 16 25  1  0
 17 26  1  0
 17 27  1  0
 18 28  1  0
 18 29  1  0
  3 13  1  0
M  ISO  2  11  14  12  14
M  END
>  <DihAtoms>  (1) 
3,2,12,13

>  <DihDeg>  (1) 
126.24945347459172

$$$$
