REMARK  Name = 
REMARK  4 active torsions:
REMARK  status: ('A' for Active; 'I' for Inactive)
REMARK    1  A    between atoms: C_2  and  C_12
REMARK    2  A    between atoms: C_6  and  O_16
REMARK    3  A    between atoms: O_16  and  C_18
REMARK    4  A    between atoms: C_22  and  C_37
REMARK                            x       y       z     vdW  Elec       q    Type
REMARK                         _______ _______ _______ _____ _____    ______ ____
ROOT
ATOM      1  C   UNL     1      36.241  30.184  46.867  0.00  0.00    +0.000 A 
ATOM      2  C   UNL     1      37.081  30.770  47.811  0.00  0.00    +0.000 A 
ATOM      3  C   UNL     1      38.064  31.689  47.440  0.00  0.00    +0.000 A 
ATOM      4  C   UNL     1      38.148  31.977  46.084  0.00  0.00    +0.000 A 
ATOM      5  N   UNL     1      39.024  32.836  45.479  0.00  0.00    +0.000 N 
ATOM      6  C   UNL     1      38.740  32.791  44.165  0.00  0.00    +0.000 A 
ATOM      7  N   UNL     1      37.748  31.960  43.934  0.00  0.00    +0.000 NA
ATOM      8  C   UNL     1      37.339  31.421  45.114  0.00  0.00    +0.000 A 
ATOM      9  C   UNL     1      36.363  30.504  45.520  0.00  0.00    +0.000 A 
ATOM     10  H   UNL     1      35.489  29.482  47.147  0.00  0.00    +0.000 HD
ATOM     11  H   UNL     1      38.698  32.128  48.180  0.00  0.00    +0.000 HD
ATOM     12  H   UNL     1      39.758  33.403  45.958  0.00  0.00    +0.000 HD
ATOM     13  H   UNL     1      35.739  30.078  44.757  0.00  0.00    +0.000 HD
ENDROOT
BRANCH   2  16
ATOM     14  C   UNL     1      37.498  30.137  51.477  0.00  0.00    +0.000 A 
ATOM     15  C   UNL     1      37.814  30.588  50.213  0.00  0.00    +0.000 A 
ATOM     16  C   UNL     1      36.891  30.365  49.196  0.00  0.00    +0.000 A 
ATOM     17  N   UNL     1      35.739  29.718  49.519  0.00  0.00    +0.000 NA
ATOM     18  C   UNL     1      35.447  29.285  50.759  0.00  0.00    +0.000 A 
ATOM     19  N   UNL     1      36.333  29.501  51.725  0.00  0.00    +0.000 NA
ATOM     20  H   UNL     1      38.239  30.326  52.250  0.00  0.00    +0.000 HD
ATOM     21  H   UNL     1      38.722  31.097  49.965  0.00  0.00    +0.000 HD
ATOM     22  H   UNL     1      34.521  28.779  50.960  0.00  0.00    +0.000 HD
ENDBRANCH   2  16
BRANCH   6  23
ATOM     23  O   UNL     1      39.456  33.562  43.236  0.00  0.00    +0.000 OA
BRANCH  23  25
ATOM     24  N   UNL     1      39.559  31.850  41.728  0.00  0.00    +0.000 NA
ATOM     25  C   UNL     1      39.203  33.279  41.864  0.00  0.00    +0.000 C 
ATOM     26  C   UNL     1      37.796  33.442  41.518  0.00  0.00    +0.000 C 
ATOM     27  O   UNL     1      37.630  33.126  40.157  0.00  0.00    +0.000 OA
ATOM     28  C   UNL     1      38.069  31.888  39.789  0.00  0.00    +0.000 C 
ATOM     29  C   UNL     1      39.443  31.563  40.315  0.00  0.00    +0.000 C 
ATOM     30  H   UNL     1      40.572  31.815  41.989  0.00  0.00    +0.000 HD
ATOM     31  H   UNL     1      39.823  33.894  41.193  0.00  0.00    +0.000 HD
ATOM     32  H   UNL     1      36.985  32.966  41.994  0.00  0.00    +0.000 HD
ATOM     33  H   UNL     1      37.577  34.554  41.544  0.00  0.00    +0.000 HD
ATOM     34  H   UNL     1      38.116  31.880  38.682  0.00  0.00    +0.000 HD
ATOM     35  H   UNL     1      37.354  31.068  40.058  0.00  0.00    +0.000 HD
ATOM     36  H   UNL     1      40.212  32.163  39.801  0.00  0.00    +0.000 HD
BRANCH  29  37
ATOM     37  C   UNL     1      39.688  30.076  40.137  0.00  0.00    +0.000 C 
ATOM     38  C   UNL     1      39.262  29.279  41.341  0.00  0.00    +0.000 C 
ATOM     39  C   UNL     1      38.299  28.164  41.021  0.00  0.00    +0.000 C 
ATOM     40  C   UNL     1      38.823  27.233  39.954  0.00  0.00    +0.000 C 
ATOM     41  C   UNL     1      39.340  28.066  38.804  0.00  0.00    +0.000 C 
ATOM     42  C   UNL     1      38.943  29.521  38.954  0.00  0.00    +0.000 C 
ENDBRANCH  29  37
ENDBRANCH  23  25
ENDBRANCH   6  23
TORSDOF 4
