
 OpenBabel03272505133D

 36 39  0  0  0  0  0  0  0  0999 V2000
   36.4170   30.8970   45.7090 Cl  0  0  0  0  0  0  0  0  0  0  0  0
   36.6950   30.7860   47.4260 C   0  0  0  0  0  0  0  0  0  0  0  0
   37.9540   31.1280   47.8830 C   0  0  0  0  0  0  0  0  0  0  0  0
   38.1870   31.0420   49.2510 C   0  0  0  0  0  0  0  0  0  0  0  0
   37.1770   30.6300   50.0900 C   0  0  0  0  0  0  0  0  0  0  0  0
   35.9400   30.3040   49.5540 C   0  0  0  0  0  0  0  0  0  0  0  0
   35.6420   30.3650   48.2170 C   0  0  0  0  0  0  0  0  0  0  0  0
   39.1670   31.3060   49.6310 H   0  0  0  0  0  0  0  0  0  0  0  0
   37.3200   30.5510   51.1580 H   0  0  0  0  0  0  0  0  0  0  0  0
   35.1700   29.9820   50.2510 H   0  0  0  0  0  0  0  0  0  0  0  0
   40.2280   33.3280   46.0890 C   0  0  0  0  0  0  0  0  0  0  0  0
   40.9380   32.4780   45.2290 C   0  0  0  0  0  0  0  0  0  0  0  0
   40.6140   31.1100   45.2800 C   0  0  0  0  0  0  0  0  0  0  0  0
   39.6420   30.6970   46.1500 N   0  0  0  0  0  0  0  0  0  0  0  0
   39.0030   31.5640   46.9430 C   0  0  0  0  0  0  0  0  0  0  0  0
   39.2840   32.8680   46.9220 N   0  0  0  0  0  0  0  0  0  0  0  0
   40.5270   34.3630   45.9980 H   0  0  0  0  0  0  0  0  0  0  0  0
   41.7080   32.8540   44.5510 H   0  0  0  0  0  0  0  0  0  0  0  0
   41.1130   30.4090   44.6570 H   0  0  0  0  0  0  0  0  0  0  0  0
   34.0740   29.9540   47.5250 S   0  0  0  0  0  0  0  0  0  0  0  0
   34.0060   29.1470   44.4840 Cl  0  0  0  0  0  0  0  0  0  0  0  0
   33.9330   27.9370   45.7440 C   0  0  0  0  0  0  0  0  0  0  0  0
   33.9560   28.2130   47.1190 C   0  0  0  0  0  0  0  0  0  0  0  0
   33.8920   27.1780   48.0140 C   0  0  0  0  0  0  0  0  0  0  0  0
   33.8040   25.8790   47.5860 C   0  0  0  0  0  0  0  0  0  0  0  0
   33.7780   25.5670   46.2330 C   0  0  0  0  0  0  0  0  0  0  0  0
   33.8420   26.6030   45.3450 C   0  0  0  0  0  0  0  0  0  0  0  0
   33.9200   27.5140   49.0520 H   0  0  0  0  0  0  0  0  0  0  0  0
   33.7580   25.1100   48.3190 H   0  0  0  0  0  0  0  0  0  0  0  0
   33.7080   24.5230   45.9560 H   0  0  0  0  0  0  0  0  0  0  0  0
   33.8130   26.2680   43.8960 C   0  0  0  0  0  3  0  0  0  0  0  0
   32.8110   25.2050   43.5760 C   0  0  0  0  0  2  0  0  0  0  0  0
   32.7500   24.9900   42.0980 C   0  0  0  0  0  2  0  0  0  0  0  0
   33.7570   25.8220   41.3390 C   0  0  0  0  0  2  0  0  0  0  0  0
   35.1420   25.7310   41.8950 C   0  0  0  0  0  2  0  0  0  0  0  0
   35.1760   25.8430   43.4030 C   0  0  0  0  0  2  0  0  0  0  0  0
  1  2  1  0  0  0  0
  2  3  2  0  0  0  0
  2  7  1  0  0  0  0
  3  4  1  0  0  0  0
  4  8  1  0  0  0  0
  4  5  2  0  0  0  0
  5  9  1  0  0  0  0
  6  5  1  0  0  0  0
  6 10  1  0  0  0  0
  7  6  2  0  0  0  0
 11 16  1  0  0  0  0
 12 13  1  0  0  0  0
 12 11  2  0  0  0  0
 13 14  2  0  0  0  0
 14 15  1  0  0  0  0
 15  3  1  0  0  0  0
 16 15  2  0  0  0  0
 17 11  1  0  0  0  0
 18 12  1  0  0  0  0
 19 13  1  0  0  0  0
 20  7  1  0  0  0  0
 21 22  1  0  0  0  0
 22 23  1  0  0  0  0
 23 20  1  0  0  0  0
 23 24  2  0  0  0  0
 24 28  1  0  0  0  0
 25 24  1  0  0  0  0
 25 29  1  0  0  0  0
 26 25  2  0  0  0  0
 27 22  2  0  0  0  0
 27 26  1  0  0  0  0
 30 26  1  0  0  0  0
 31 27  1  0  0  0  0
 32 31  1  0  0  0  0
 33 32  1  0  0  0  0
 34 35  1  0  0  0  0
 34 33  1  0  0  0  0
 35 36  1  0  0  0  0
 36 31  1  0  0  0  0
M  END
>  <minimizedAffinity>
-5.74721861

>  <minimizedRMSD>
0.989390612

$$$$
