
 OpenBabel03272502593D

 31 33  0  0  1  0  0  0  0  0999 V2000
   35.8910   29.6200   48.8000 N   0  0  0  0  0  0  0  0  0  0  0  0
   36.5710   28.8530   49.8220 C   0  0  0  0  0  0  0  0  0  0  0  0
   37.0560   29.5730   51.0040 C   0  0  0  0  0  0  0  0  0  0  0  0
   37.3840   31.0080   50.8700 C   0  0  0  0  0  0  0  0  0  0  0  0
   36.6800   31.6870   49.7280 C   0  0  0  0  0  0  0  0  0  0  0  0
   36.6940   30.7730   48.4970 C   0  0  1  0  0  0  0  0  0  0  0  0
   37.4410   28.3780   49.3060 H   0  0  0  0  0  0  0  0  0  0  0  0
   35.9170   28.0000   50.1140 H   0  0  0  0  0  0  0  0  0  0  0  0
   36.3210   29.4550   51.8370 H   0  0  0  0  0  0  0  0  0  0  0  0
   37.9780   29.0520   51.3960 H   0  0  0  0  0  0  0  0  0  0  0  0
   37.1640   31.6110   51.7890 H   0  0  0  0  0  0  0  0  0  0  0  0
   38.4760   31.1330   50.6770 H   0  0  0  0  0  0  0  0  0  0  0  0
   37.1670   32.6530   49.4780 H   0  0  0  0  0  0  0  0  0  0  0  0
   35.5950   31.8080   49.9810 H   0  0  0  0  0  0  0  0  0  0  0  0
   36.2980   31.3960   47.6810 H   0  0  0  0  0  0  0  0  0  0  0  0
   34.6330   29.2700   48.2030 C   0  0  0  0  0  0  0  0  0  0  0  0
   34.1280   29.8680   47.0530 C   0  0  0  0  0  0  0  0  0  0  0  0
   32.8880   29.4250   46.5860 C   0  0  0  0  0  0  0  0  0  0  0  0
   32.2480   28.4420   47.2770 N   0  0  0  0  0  0  0  0  0  0  0  0
   32.7790   27.9010   48.3800 C   0  0  0  0  0  0  0  0  0  0  0  0
   33.9660   28.3120   48.8410 N   0  0  0  0  0  0  0  0  0  0  0  0
   34.7130   30.6320   46.5860 H   0  0  0  0  0  0  0  0  0  0  0  0
   32.4930   29.8870   45.6930 H   0  0  0  0  0  0  0  0  0  0  0  0
   32.2100   27.1100   48.8920 H   0  0  0  0  0  0  0  0  0  0  0  0
   38.0340   30.4350   48.3090 O   0  0  0  0  0  0  0  0  0  0  0  0
   38.5060   31.0550   47.1760 C   0  0  0  0  0  0  0  0  0  0  0  0
   37.4850   31.0820   46.0590 C   0  0  0  0  0  0  0  0  0  0  0  0
   37.8060   32.2040   45.1320 C   0  0  0  0  0  0  0  0  0  0  0  0
   39.2750   32.5040   44.9880 C   0  0  0  0  0  0  0  0  0  0  0  0
   39.9530   32.7880   46.2950 C   0  0  0  0  0  0  0  0  0  0  0  0
   38.9250   32.5010   47.3970 C   0  0  0  0  0  0  0  0  0  0  0  0
  1  2  1  0  0  0  0
  2  8  1  0  0  0  0
  2  3  1  0  0  0  0
  3 10  1  0  0  0  0
  3  9  1  0  0  0  0
  4  3  1  0  0  0  0
  4 11  1  0  0  0  0
  5 14  1  0  0  0  0
  5  4  1  0  0  0  0
  6 15  1  6  0  0  0
  6  1  1  0  0  0  0
  6  5  1  0  0  0  0
  7  2  1  0  0  0  0
 12  4  1  0  0  0  0
 13  5  1  0  0  0  0
 16  1  1  0  0  0  0
 16 21  1  0  0  0  0
 17 16  2  0  0  0  0
 18 17  1  0  0  0  0
 18 19  2  0  0  0  0
 19 20  1  0  0  0  0
 20 21  2  0  0  0  0
 20 24  1  0  0  0  0
 22 17  1  0  0  0  0
 23 18  1  0  0  0  0
 25  6  1  0  0  0  0
 26 31  1  0  0  0  0
 26 25  1  0  0  0  0
 27 26  1  0  0  0  0
 28 27  1  0  0  0  0
 29 28  1  0  0  0  0
 29 30  1  0  0  0  0
 30 31  1  0  0  0  0
M  END
>  <minimizedAffinity>
-5.95509338

>  <minimizedRMSD>
0.527797222

$$$$
