REMARK  Name = 
REMARK  2 active torsions:
REMARK  status: ('A' for Active; 'I' for Inactive)
REMARK    1  A    between atoms: C_3  and  C_13
REMARK    2  A    between atoms: C_5  and  C_7
REMARK                            x       y       z     vdW  Elec       q    Type
REMARK                         _______ _______ _______ _____ _____    ______ ____
ROOT
ATOM      1  C   UNL     1      38.306  31.233  50.126  0.00  0.00    +0.000 A 
ATOM      2  C   UNL     1      38.291  31.610  48.773  0.00  0.00    +0.000 A 
ATOM      3  C   UNL     1      37.209  31.231  48.000  0.00  0.00    +0.000 A 
ATOM      4  N   UNL     1      36.203  30.506  48.588  0.00  0.00    +0.000 NA
ATOM      5  C   UNL     1      36.260  30.165  49.894  0.00  0.00    +0.000 A 
ATOM      6  N   UNL     1      37.304  30.530  50.644  0.00  0.00    +0.000 NA
ATOM      7  H   UNL     1      39.109  31.485  50.805  0.00  0.00    +0.000 HD
ATOM      8  H   UNL     1      39.142  32.167  48.475  0.00  0.00    +0.000 HD
ENDROOT
BRANCH   3   9
ATOM      9  C   UNL     1      37.208  31.629  46.602  0.00  0.00    +0.000 C 
ATOM     10  C   UNL     1      38.510  31.967  45.982  0.00  0.00    +0.000 C 
ATOM     11  C   UNL     1      38.974  30.934  44.975  0.00  0.00    +0.000 C 
ATOM     12  C   UNL     1      37.958  30.917  43.852  0.00  0.00    +0.000 C 
ATOM     13  C   UNL     1      36.540  30.913  44.360  0.00  0.00    +0.000 C 
ATOM     14  C   UNL     1      36.596  30.473  45.798  0.00  0.00    +0.000 C 
ENDBRANCH   3   9
BRANCH   5  15
ATOM     15  C   UNL     1      35.133  29.383  50.447  0.00  0.00    +0.000 C 
ATOM     16  F   UNL     1      35.264  29.129  51.804  0.00  0.00    +0.000 F 
ATOM     17  F   UNL     1      33.928  30.059  50.294  0.00  0.00    +0.000 F 
ATOM     18  F   UNL     1      34.953  28.165  49.834  0.00  0.00    +0.000 F 
ENDBRANCH   5  15
TORSDOF 2
