
 OpenBabel03272510273D

 42 46  0  0  1  0  0  0  0  0999 V2000
   35.9750   30.1240   46.9190 C   0  0  0  0  0  0  0  0  0  0  0  0
   36.9020   30.7110   47.7760 C   0  0  0  0  0  0  0  0  0  0  0  0
   37.8680   31.6020   47.3040 C   0  0  0  0  0  0  0  0  0  0  0  0
   37.8430   31.8600   45.9390 C   0  0  0  0  0  0  0  0  0  0  0  0
   38.6820   32.6880   45.2440 N   0  0  0  0  0  0  0  0  0  0  0  0
   38.2880   32.6220   43.9600 C   0  0  0  0  0  0  0  0  0  0  0  0
   37.2640   31.8070   43.8310 N   0  0  0  0  0  0  0  0  0  0  0  0
   36.9450   31.3010   45.0530 C   0  0  0  0  0  0  0  0  0  0  0  0
   35.9900   30.4130   45.5590 C   0  0  0  0  0  0  0  0  0  0  0  0
   35.2360   29.4430   47.2760 H   0  0  0  0  0  0  0  0  0  0  0  0
   38.5700   32.0420   47.9780 H   0  0  0  0  0  0  0  0  0  0  0  0
   39.4640   33.2490   45.6480 H   0  0  0  0  0  0  0  0  0  0  0  0
   35.2960   29.9850   44.8610 H   0  0  0  0  0  0  0  0  0  0  0  0
   37.5910   30.1930   51.4190 C   0  0  0  0  0  0  0  0  0  0  0  0
   37.8040   30.6190   50.1250 C   0  0  0  0  0  0  0  0  0  0  0  0
   36.8210   30.3390   49.1810 C   0  0  0  0  0  0  0  0  0  0  0  0
   35.7160   29.6650   49.5990 N   0  0  0  0  0  0  0  0  0  0  0  0
   35.5250   29.2580   50.8670 C   0  0  0  0  0  0  0  0  0  0  0  0
   36.4680   29.5280   51.7630 N   0  0  0  0  0  0  0  0  0  0  0  0
   38.3770   30.4260   52.1330 H   0  0  0  0  0  0  0  0  0  0  0  0
   38.6760   31.1490   49.8010 H   0  0  0  0  0  0  0  0  0  0  0  0
   34.6320   28.7290   51.1450 H   0  0  0  0  0  0  0  0  0  0  0  0
   38.9380   33.3580   42.9580 O   0  0  0  0  0  0  0  0  0  0  0  0
   39.5780   31.2160   42.4900 N   0  0  0  0  0  0  0  0  0  0  0  0
   39.6080   32.5960   41.9590 C   0  0  1  0  0  0  0  0  0  0  0  0
   38.9030   32.6180   40.6830 C   0  0  0  0  0  0  0  0  0  0  0  0
   39.6180   31.8300   39.7630 O   0  0  0  0  0  0  0  0  0  0  0  0
   39.8500   30.5440   40.1550 C   0  0  0  0  0  0  0  0  0  0  0  0
   40.3700   30.4360   41.5650 C   0  0  2  0  0  0  0  0  0  0  0  0
   40.0980   31.2810   43.3960 H   0  0  0  0  0  0  0  0  0  0  0  0
   40.6480   32.9280   41.8140 H   0  0  0  0  0  0  0  0  0  0  0  0
   37.8970   32.3450   40.5300 H   0  0  0  0  0  0  0  0  0  0  0  0
   39.0210   33.6640   40.2600 H   0  0  0  0  0  0  0  0  0  0  0  0
   40.6230   30.1350   39.4740 H   0  0  0  0  0  0  0  0  0  0  0  0
   38.9610   29.8750   40.0240 H   0  0  0  0  0  0  0  0  0  0  0  0
   41.4040   30.8110   41.6320 H   0  0  0  0  0  0  0  0  0  0  0  0
   40.2750   28.9860   42.0040 C   0  0  0  0  0  3  0  0  0  0  0  0
   39.4160   28.8170   43.2270 C   0  0  0  0  0  2  0  0  0  0  0  0
   38.3010   27.8160   43.0530 C   0  0  0  0  0  2  0  0  0  0  0  0
   38.7980   26.4690   42.5900 C   0  0  0  0  0  2  0  0  0  0  0  0
   39.7410   26.6800   41.4280 C   0  0  0  0  0  2  0  0  0  0  0  0
   39.6910   28.1110   40.9290 C   0  0  0  0  0  2  0  0  0  0  0  0
  1 10  1  0  0  0  0
  1  2  1  0  0  0  0
  2 16  1  0  0  0  0
  3  2  2  0  0  0  0
  3 11  1  0  0  0  0
  4  3  1  0  0  0  0
  5 12  1  0  0  0  0
  5  4  1  0  0  0  0
  6  5  1  0  0  0  0
  7  6  2  0  0  0  0
  7  8  1  0  0  0  0
  8  9  1  0  0  0  0
  8  4  2  0  0  0  0
  9  1  2  0  0  0  0
 13  9  1  0  0  0  0
 14 19  1  0  0  0  0
 14 20  1  0  0  0  0
 15 14  2  0  0  0  0
 16 17  2  0  0  0  0
 16 15  1  0  0  0  0
 17 18  1  0  0  0  0
 18 22  1  0  0  0  0
 18 19  2  0  0  0  0
 21 15  1  0  0  0  0
 23  6  1  0  0  0  0
 24 30  1  0  0  0  0
 25 31  1  6  0  0  0
 25 24  1  0  0  0  0
 25 23  1  0  0  0  0
 26 25  1  0  0  0  0
 27 28  1  0  0  0  0
 27 26  1  0  0  0  0
 28 29  1  0  0  0  0
 29 36  1  1  0  0  0
 29 37  1  0  0  0  0
 29 24  1  0  0  0  0
 32 26  1  0  0  0  0
 33 26  1  0  0  0  0
 34 28  1  0  0  0  0
 35 28  1  0  0  0  0
 37 38  1  0  0  0  0
 39 38  1  0  0  0  0
 40 39  1  0  0  0  0
 41 40  1  0  0  0  0
 42 41  1  0  0  0  0
 42 37  1  0  0  0  0
M  END
>  <minimizedAffinity>
-6.01363659

>  <minimizedRMSD>
1.31211877

$$$$
