
     RDKit          3D

 29 30  0  0  0  0  0  0  0  0999 V2000
   38.3055   31.2329   50.1255 C   0  0  0  0  0  0  0  0  0  0  0  0
   38.2906   31.6102   48.7735 C   0  0  0  0  0  0  0  0  0  0  0  0
   37.2087   31.2311   47.9999 C   0  0  0  0  0  0  0  0  0  0  0  0
   36.2029   30.5060   48.5876 N   0  0  0  0  0  0  0  0  0  0  0  0
   36.2600   30.1652   49.8940 C   0  0  0  0  0  0  0  0  0  0  0  0
   37.3039   30.5300   50.6443 N   0  0  0  0  0  0  0  0  0  0  0  0
   35.1329   29.3831   50.4466 C   0  0  0  0  0  0  0  0  0  0  0  0
   35.2641   29.1288   51.8044 F   0  0  0  0  0  0  0  0  0  0  0  0
   33.9279   30.0594   50.2938 F   0  0  0  0  0  0  0  0  0  0  0  0
   34.9525   28.1652   49.8345 F   0  0  0  0  0  0  0  0  0  0  0  0
   39.1093   31.4846   50.8049 H   0  0  0  0  0  0  0  0  0  0  0  0
   39.1416   32.1670   48.4755 H   0  0  0  0  0  0  0  0  0  0  0  0
   37.2077   31.6291   46.6019 C   0  0  0  0  0  0  0  0  0  0  0  0
   37.9934   30.8073   45.6524 C   0  0  0  0  0  0  0  0  0  0  0  0
   37.1259   29.9971   44.7097 C   0  0  0  0  0  0  0  0  0  0  0  0
   36.3367   30.9817   43.8720 C   0  0  0  0  0  0  0  0  0  0  0  0
   35.7450   32.0939   44.6968 C   0  0  0  0  0  0  0  0  0  0  0  0
   35.7483   31.6225   46.1257 C   0  0  0  0  0  0  0  0  0  0  0  0
   37.5229   32.7142   46.5836 H   0  0  0  0  0  0  0  0  0  0  0  0
   38.5525   31.5110   44.9791 H   0  0  0  0  0  0  0  0  0  0  0  0
   38.7872   30.1938   46.1163 H   0  0  0  0  0  0  0  0  0  0  0  0
   36.4752   29.2705   45.2259 H   0  0  0  0  0  0  0  0  0  0  0  0
   37.8297   29.4684   44.0023 H   0  0  0  0  0  0  0  0  0  0  0  0
   35.5254   30.4717   43.3075 H   0  0  0  0  0  0  0  0  0  0  0  0
   37.0221   31.4072   43.1092 H   0  0  0  0  0  0  0  0  0  0  0  0
   34.7022   32.3060   44.3963 H   0  0  0  0  0  0  0  0  0  0  0  0
   36.4097   32.9825   44.6410 H   0  0  0  0  0  0  0  0  0  0  0  0
   35.1675   32.3508   46.7424 H   0  0  0  0  0  0  0  0  0  0  0  0
   35.3030   30.6279   46.1985 H   0  0  0  0  0  0  0  0  0  0  0  0
  1  6  2  0
  2  1  1  0
  3  4  1  0
  3  2  2  0
  4  5  2  0
  5  7  1  0
  5  6  1  0
  7  8  1  0
  9  7  1  0
 10  7  1  0
  1 11  1  0
  2 12  1  0
 13 14  1  0
 14 15  1  0
 15 16  1  0
 16 17  1  0
 17 18  1  0
 18 13  1  0
 13 19  1  0
 14 20  1  0
 14 21  1  0
 15 22  1  0
 15 23  1  0
 16 24  1  0
 16 25  1  0
 17 26  1  0
 17 27  1  0
 18 28  1  0
 18 29  1  0
  3 13  1  0
M  ISO  2  11  14  12  14
M  END
>  <DihAtoms>  (1) 
3,2,12,13

>  <DihDeg>  (1) 
126.24945347459172

$$$$
