REMARK  Name = 
REMARK  2 active torsions:
REMARK  status: ('A' for Active; 'I' for Inactive)
REMARK    1  A    between atoms: C_2  and  C_12
REMARK    2  A    between atoms: C_6  and  C_23
REMARK                            x       y       z     vdW  Elec       q    Type
REMARK                         _______ _______ _______ _____ _____    ______ ____
ROOT
ATOM      1  C   UNL     1      37.062  30.710  46.774  0.00  0.00    +0.000 A 
ATOM      2  C   UNL     1      37.703  31.140  47.919  0.00  0.00    +0.000 A 
ATOM      3  C   UNL     1      38.711  32.062  47.831  0.00  0.00    +0.000 A 
ATOM      4  C   UNL     1      39.064  32.545  46.572  0.00  0.00    +0.000 A 
ATOM      5  N   UNL     1      40.024  33.453  46.253  0.00  0.00    +0.000 N 
ATOM      6  C   UNL     1      39.985  33.590  44.922  0.00  0.00    +0.000 A 
ATOM      7  N   UNL     1      39.040  32.806  44.387  0.00  0.00    +0.000 NA
ATOM      8  C   UNL     1      38.441  32.134  45.397  0.00  0.00    +0.000 A 
ATOM      9  C   UNL     1      37.423  31.198  45.520  0.00  0.00    +0.000 A 
ATOM     10  H   UNL     1      36.261  29.986  46.771  0.00  0.00    +0.000 HD
ATOM     11  H   UNL     1      39.224  32.411  48.717  0.00  0.00    +0.000 HD
ATOM     12  H   UNL     1      40.666  33.953  46.879  0.00  0.00    +0.000 HD
ATOM     13  H   UNL     1      36.928  30.868  44.617  0.00  0.00    +0.000 HD
ENDROOT
BRANCH   2  16
ATOM     14  C   UNL     1      37.390  30.156  51.535  0.00  0.00    +0.000 A 
ATOM     15  C   UNL     1      37.911  30.748  50.385  0.00  0.00    +0.000 A 
ATOM     16  C   UNL     1      37.258  30.575  49.180  0.00  0.00    +0.000 A 
ATOM     17  N   UNL     1      36.122  29.822  49.184  0.00  0.00    +0.000 NA
ATOM     18  C   UNL     1      35.624  29.251  50.306  0.00  0.00    +0.000 A 
ATOM     19  N   UNL     1      36.254  29.419  51.468  0.00  0.00    +0.000 NA
ATOM     20  H   UNL     1      37.936  30.322  52.441  0.00  0.00    +0.000 HD
ATOM     21  H   UNL     1      38.812  31.340  50.405  0.00  0.00    +0.000 HD
ATOM     22  H   UNL     1      34.725  28.665  50.266  0.00  0.00    +0.000 HD
ENDBRANCH   2  16
BRANCH   6  23
ATOM     23  C   UNL     1      40.832  34.469  44.054  0.00  0.00    +0.000 C 
ATOM     24  C   UNL     1      41.107  35.717  44.841  0.00  0.00    +0.000 C 
ATOM     25  C   UNL     1      39.995  36.700  44.592  0.00  0.00    +0.000 C 
ATOM     26  C   UNL     1      40.173  37.127  43.146  0.00  0.00    +0.000 C 
ATOM     27  C   UNL     1      39.994  35.995  42.188  0.00  0.00    +0.000 C 
ATOM     28  C   UNL     1      40.257  34.641  42.705  0.00  0.00    +0.000 C 
ENDBRANCH   6  23
TORSDOF 2
