
 OpenBabel03272507333D

 33 36  0  0  1  0  0  0  0  0999 V2000
   35.8350   29.1410   49.8090 C   0  0  0  0  0  0  0  0  0  0  0  0
   34.8070   29.6370   50.5770 C   0  0  0  0  0  0  0  0  0  0  0  0
   33.6120   29.0920   50.0830 C   0  0  0  0  0  0  0  0  0  0  0  0
   33.9960   28.2880   49.0320 C   0  0  0  0  0  0  0  0  0  0  0  0
   35.3050   28.3490   48.9080 O   0  0  0  0  0  0  0  0  0  0  0  0
   34.8160   30.3210   51.4220 H   0  0  0  0  0  0  0  0  0  0  0  0
   32.5990   29.2330   50.4090 H   0  0  0  0  0  0  0  0  0  0  0  0
   37.2220   29.5000   50.0450 C   0  0  0  0  0  0  0  0  0  0  0  0
   37.8630   28.9050   50.9250 O   0  0  0  0  0  0  0  0  0  0  0  0
   37.7730   30.5430   49.2280 C   0  0  0  0  0  0  0  0  0  0  0  0
   38.1130   31.7270   49.8530 C   0  0  0  0  0  0  0  0  0  0  0  0
   38.6490   32.7630   49.0890 C   0  0  0  0  0  0  0  0  0  0  0  0
   38.8160   32.5530   47.7350 N   0  0  0  0  0  0  0  0  0  0  0  0
   38.4750   31.3910   47.1660 C   0  0  0  0  0  0  0  0  0  0  0  0
   37.9590   30.3940   47.8970 N   0  0  0  0  0  0  0  0  0  0  0  0
   37.9970   31.9340   50.9210 H   0  0  0  0  0  0  0  0  0  0  0  0
   38.9360   33.7090   49.5000 H   0  0  0  0  0  0  0  0  0  0  0  0
   38.6590   31.3570   46.0920 H   0  0  0  0  0  0  0  0  0  0  0  0
   33.1030   27.4940   48.1890 C   0  0  0  0  0  0  0  0  0  0  0  0
   31.8730   27.4170   48.5210 O   0  0  0  0  0  0  0  0  0  0  0  0
   33.6330   26.7860   46.9750 C   0  0  1  0  0  0  0  0  0  0  0  0
   33.8500   25.2560   47.3140 C   0  0  0  0  0  0  0  0  0  0  0  0
   32.8440   25.7420   46.3400 C   0  0  2  0  0  0  0  0  0  0  0  0
   34.6120   27.2010   46.6590 H   0  0  0  0  0  0  0  0  0  0  0  0
   33.5150   24.9070   48.2890 H   0  0  0  0  0  0  0  0  0  0  0  0
   34.7960   24.8240   46.9940 H   0  0  0  0  0  0  0  0  0  0  0  0
   31.7760   25.7010   46.7150 H   0  0  0  0  0  0  0  0  0  0  0  0
   33.0120   25.2650   44.9510 C   0  0  0  0  0  3  0  0  0  0  0  0
   33.8850   24.0690   44.7370 C   0  0  0  0  0  2  0  0  0  0  0  0
   33.1530   22.7620   44.7120 C   0  0  0  0  0  2  0  0  0  0  0  0
   32.1130   22.6950   43.6180 C   0  0  0  0  0  2  0  0  0  0  0  0
   31.6260   24.0650   43.2130 C   0  0  0  0  0  2  0  0  0  0  0  0
   31.6290   24.9600   44.4080 C   0  0  0  0  0  2  0  0  0  0  0  0
  1  8  1  0  0  0  0
  1  2  2  0  0  0  0
  2  6  1  0  0  0  0
  3  7  1  0  0  0  0
  3  2  1  0  0  0  0
  4  3  2  0  0  0  0
  5  4  1  0  0  0  0
  5  1  1  0  0  0  0
  8  9  2  0  0  0  0
 10 11  1  0  0  0  0
 10  8  1  0  0  0  0
 11 16  1  0  0  0  0
 12 17  1  0  0  0  0
 12 11  2  0  0  0  0
 13 12  1  0  0  0  0
 14 13  2  0  0  0  0
 14 15  1  0  0  0  0
 15 10  2  0  0  0  0
 18 14  1  0  0  0  0
 19 20  2  0  0  0  0
 19  4  1  0  0  0  0
 21 24  1  6  0  0  0
 21 22  1  0  0  0  0
 21 19  1  0  0  0  0
 22 25  1  0  0  0  0
 23 27  1  1  0  0  0
 23 21  1  0  0  0  0
 23 22  1  0  0  0  0
 26 22  1  0  0  0  0
 28 23  1  0  0  0  0
 29 28  1  0  0  0  0
 30 29  1  0  0  0  0
 31 30  1  0  0  0  0
 32 31  1  0  0  0  0
 32 33  1  0  0  0  0
 33 28  1  0  0  0  0
M  END
>  <minimizedAffinity>
-4.88747692

>  <minimizedRMSD>
0.0676446557

$$$$
