
 OpenBabel03272505463D

 22 24  0  0  0  0  0  0  0  0999 V2000
   38.4070   26.0270   35.1150 C   0  0  0  0  0  0  0  0  0  0  0  0
   38.5900   27.2120   35.9170 C   0  0  0  0  0  0  0  0  0  0  0  0
   39.7390   26.7540   35.0860 C   0  0  0  0  0  0  0  0  0  0  0  0
   38.0540   28.1420   35.5640 H   0  0  0  0  0  0  0  0  0  0  0  0
   38.7460   27.2010   37.0020 H   0  0  0  0  0  0  0  0  0  0  0  0
   39.9700   27.2730   34.1420 H   0  0  0  0  0  0  0  0  0  0  0  0
   40.6060   26.2520   35.5200 H   0  0  0  0  0  0  0  0  0  0  0  0
   36.3090   27.1810   32.3110 C   0  0  0  0  0  0  0  0  0  0  0  0
   36.0940   26.0390   31.5380 C   0  0  0  0  0  0  0  0  0  0  0  0
   36.6930   24.8580   31.9930 C   0  0  0  0  0  0  0  0  0  0  0  0
   37.4290   24.9040   33.1340 N   0  0  0  0  0  0  0  0  0  0  0  0
   37.6130   26.0320   33.8540 C   0  0  0  0  0  0  0  0  0  0  0  0
   37.0460   27.1700   33.4300 N   0  0  0  0  0  0  0  0  0  0  0  0
   35.8700   28.1470   32.0170 H   0  0  0  0  0  0  0  0  0  0  0  0
   35.5020   26.0800   30.6500 H   0  0  0  0  0  0  0  0  0  0  0  0
   36.5670   23.9370   31.4410 H   0  0  0  0  0  0  0  0  0  0  0  0
   38.4510   24.6670   35.8230 C   0  0  0  0  0  3  0  0  0  0  0  0
   38.0400   24.7870   37.2620 C   0  0  0  0  0  2  0  0  0  0  0  0
   38.2240   23.4650   37.9310 C   0  0  0  0  0  2  0  0  0  0  0  0
   39.6110   22.9190   37.7710 C   0  0  0  0  0  2  0  0  0  0  0  0
   39.8560   22.7050   36.2920 C   0  0  0  0  0  2  0  0  0  0  0  0
   39.8290   24.0710   35.6490 C   0  0  0  0  0  2  0  0  0  0  0  0
  1 17  1  0  0  0  0
  1  2  1  0  0  0  0
  2  5  1  0  0  0  0
  3  1  1  0  0  0  0
  3  7  1  0  0  0  0
  3  2  1  0  0  0  0
  4  2  1  0  0  0  0
  6  3  1  0  0  0  0
  8 13  1  0  0  0  0
  9 10  1  0  0  0  0
  9  8  2  0  0  0  0
 10 11  2  0  0  0  0
 11 12  1  0  0  0  0
 12  1  1  0  0  0  0
 13 12  2  0  0  0  0
 14  8  1  0  0  0  0
 15  9  1  0  0  0  0
 16 10  1  0  0  0  0
 17 18  1  0  0  0  0
 18 19  1  0  0  0  0
 20 19  1  0  0  0  0
 21 20  1  0  0  0  0
 22 17  1  0  0  0  0
 22 21  1  0  0  0  0
M  END
>  <minimizedAffinity>
-4.91828156

$$$$

 OpenBabel03272505463D

 22 24  0  0  0  0  0  0  0  0999 V2000
   38.0770   27.2520   31.4920 C   0  0  0  0  0  0  0  0  0  0  0  0
   39.0400   27.8330   30.5900 C   0  0  0  0  0  0  0  0  0  0  0  0
   37.7920   28.6000   30.8560 C   0  0  0  0  0  0  0  0  0  0  0  0
   39.9870   28.2340   31.0600 H   0  0  0  0  0  0  0  0  0  0  0  0
   39.1900   27.5020   29.5560 H   0  0  0  0  0  0  0  0  0  0  0  0
   37.8160   29.4590   31.5460 H   0  0  0  0  0  0  0  0  0  0  0  0
   36.9810   28.6620   30.1280 H   0  0  0  0  0  0  0  0  0  0  0  0
   37.4170   27.5350   35.1090 C   0  0  0  0  0  0  0  0  0  0  0  0
   38.6440   27.2590   35.7150 C   0  0  0  0  0  0  0  0  0  0  0  0
   39.7090   26.9640   34.8550 C   0  0  0  0  0  0  0  0  0  0  0  0
   39.4790   26.9650   33.5160 N   0  0  0  0  0  0  0  0  0  0  0  0
   38.2740   27.2360   32.9690 C   0  0  0  0  0  0  0  0  0  0  0  0
   37.2450   27.5210   33.7800 N   0  0  0  0  0  0  0  0  0  0  0  0
   36.5330   27.7760   35.7200 H   0  0  0  0  0  0  0  0  0  0  0  0
   38.7480   27.2780   36.7770 H   0  0  0  0  0  0  0  0  0  0  0  0
   40.6870   26.7400   35.2580 H   0  0  0  0  0  0  0  0  0  0  0  0
   37.1960   26.1120   30.9660 C   0  0  0  0  0  3  0  0  0  0  0  0
   35.7580   26.3110   31.3480 C   0  0  0  0  0  2  0  0  0  0  0  0
   34.9730   25.1150   30.9230 C   0  0  0  0  0  2  0  0  0  0  0  0
   35.5370   23.8290   31.4510 C   0  0  0  0  0  2  0  0  0  0  0  0
   36.9320   23.6690   30.8830 C   0  0  0  0  0  2  0  0  0  0  0  0
   37.7610   24.7960   31.4510 C   0  0  0  0  0  2  0  0  0  0  0  0
  1 12  1  0  0  0  0
  2  3  1  0  0  0  0
  2  4  1  0  0  0  0
  2  1  1  0  0  0  0
  3  1  1  0  0  0  0
  3  6  1  0  0  0  0
  5  2  1  0  0  0  0
  7  3  1  0  0  0  0
  8  9  1  0  0  0  0
  8 14  1  0  0  0  0
  9 15  1  0  0  0  0
 10 16  1  0  0  0  0
 10  9  2  0  0  0  0
 11 10  1  0  0  0  0
 12 11  2  0  0  0  0
 12 13  1  0  0  0  0
 13  8  2  0  0  0  0
 17 18  1  0  0  0  0
 17 22  1  0  0  0  0
 17  1  1  0  0  0  0
 19 18  1  0  0  0  0
 19 20  1  0  0  0  0
 21 22  1  0  0  0  0
 21 20  1  0  0  0  0
M  END
>  <minimizedAffinity>
-4.45309114

$$$$

 OpenBabel03272505463D

 22 24  0  0  0  0  0  0  0  0999 V2000
   37.8250   27.3320   31.6410 C   0  0  0  0  0  0  0  0  0  0  0  0
   37.6030   28.4910   30.8120 C   0  0  0  0  0  0  0  0  0  0  0  0
   38.8180   27.6720   30.5450 C   0  0  0  0  0  0  0  0  0  0  0  0
   36.7670   28.4110   30.0550 H   0  0  0  0  0  0  0  0  0  0  0  0
   37.7800   29.5220   31.1380 H   0  0  0  0  0  0  0  0  0  0  0  0
   38.8300   26.9760   29.6900 H   0  0  0  0  0  0  0  0  0  0  0  0
   39.8170   27.9990   30.8420 H   0  0  0  0  0  0  0  0  0  0  0  0
   36.9900   23.7480   31.4040 C   0  0  0  0  0  0  0  0  0  0  0  0
   35.6250   23.7220   31.1160 C   0  0  0  0  0  0  0  0  0  0  0  0
   34.9870   24.9640   31.0130 C   0  0  0  0  0  0  0  0  0  0  0  0
   35.7270   26.0890   31.1970 N   0  0  0  0  0  0  0  0  0  0  0  0
   37.0480   26.0710   31.4740 C   0  0  0  0  0  0  0  0  0  0  0  0
   37.6720   24.8880   31.5760 N   0  0  0  0  0  0  0  0  0  0  0  0
   37.5600   22.8110   31.5000 H   0  0  0  0  0  0  0  0  0  0  0  0
   35.1090   22.7960   30.9840 H   0  0  0  0  0  0  0  0  0  0  0  0
   33.9300   25.0150   30.7930 H   0  0  0  0  0  0  0  0  0  0  0  0
   38.3580   27.5570   33.0620 C   0  0  0  0  0  3  0  0  0  0  0  0
   39.4960   26.6280   33.3710 C   0  0  0  0  0  2  0  0  0  0  0  0
   39.8890   26.8010   34.8000 C   0  0  0  0  0  2  0  0  0  0  0  0
   38.7360   26.6350   35.7460 C   0  0  0  0  0  2  0  0  0  0  0  0
   37.7210   27.7130   35.4310 C   0  0  0  0  0  2  0  0  0  0  0  0
   37.2110   27.4320   34.0380 C   0  0  0  0  0  2  0  0  0  0  0  0
  1 17  1  0  0  0  0
  2  5  1  0  0  0  0
  2  1  1  0  0  0  0
  3  2  1  0  0  0  0
  3  7  1  0  0  0  0
  3  1  1  0  0  0  0
  4  2  1  0  0  0  0
  6  3  1  0  0  0  0
  8 14  1  0  0  0  0
  8 13  1  0  0  0  0
  9  8  2  0  0  0  0
 10  9  1  0  0  0  0
 10 11  2  0  0  0  0
 11 12  1  0  0  0  0
 12 13  2  0  0  0  0
 12  1  1  0  0  0  0
 15  9  1  0  0  0  0
 16 10  1  0  0  0  0
 17 18  1  0  0  0  0
 17 22  1  0  0  0  0
 18 19  1  0  0  0  0
 19 20  1  0  0  0  0
 21 20  1  0  0  0  0
 22 21  1  0  0  0  0
M  END
>  <minimizedAffinity>
-4.44694328

$$$$

 OpenBabel03272505463D

 22 24  0  0  0  0  0  0  0  0999 V2000
   38.0430   26.5950   34.9830 C   0  0  0  0  0  0  0  0  0  0  0  0
   38.6870   27.3500   36.0300 C   0  0  0  0  0  0  0  0  0  0  0  0
   39.5040   26.9820   34.8410 C   0  0  0  0  0  0  0  0  0  0  0  0
   38.3890   28.4360   36.1190 H   0  0  0  0  0  0  0  0  0  0  0  0
   39.0090   26.9210   36.9860 H   0  0  0  0  0  0  0  0  0  0  0  0
   39.7160   27.7390   34.0690 H   0  0  0  0  0  0  0  0  0  0  0  0
   40.2500   26.1850   34.8720 H   0  0  0  0  0  0  0  0  0  0  0  0
   36.0870   27.2410   31.9250 C   0  0  0  0  0  0  0  0  0  0  0  0
   35.3550   28.3950   32.2100 C   0  0  0  0  0  0  0  0  0  0  0  0
   35.5390   28.9470   33.4840 C   0  0  0  0  0  0  0  0  0  0  0  0
   36.3990   28.3340   34.3380 N   0  0  0  0  0  0  0  0  0  0  0  0
   37.0890   27.2170   34.0220 C   0  0  0  0  0  0  0  0  0  0  0  0
   36.9230   26.6770   32.8060 N   0  0  0  0  0  0  0  0  0  0  0  0
   35.9970   26.7490   30.9430 H   0  0  0  0  0  0  0  0  0  0  0  0
   34.6960   28.8200   31.4860 H   0  0  0  0  0  0  0  0  0  0  0  0
   35.0010   29.8410   33.7700 H   0  0  0  0  0  0  0  0  0  0  0  0
   37.8110   25.0970   35.2160 C   0  0  0  0  0  3  0  0  0  0  0  0
   37.8550   24.7580   36.6780 C   0  0  0  0  0  2  0  0  0  0  0  0
   37.7520   23.2780   36.8360 C   0  0  0  0  0  2  0  0  0  0  0  0
   38.7830   22.5330   36.0410 C   0  0  0  0  0  2  0  0  0  0  0  0
   38.5470   22.8400   34.5760 C   0  0  0  0  0  2  0  0  0  0  0  0
   38.8120   24.3160   34.3970 C   0  0  0  0  0  2  0  0  0  0  0  0
  1 17  1  0  0  0  0
  1  2  1  0  0  0  0
  2  4  1  0  0  0  0
  2  5  1  0  0  0  0
  3  7  1  0  0  0  0
  3  1  1  0  0  0  0
  3  2  1  0  0  0  0
  6  3  1  0  0  0  0
  8  9  2  0  0  0  0
  8 13  1  0  0  0  0
  9 10  1  0  0  0  0
 10 16  1  0  0  0  0
 10 11  2  0  0  0  0
 12 11  1  0  0  0  0
 12  1  1  0  0  0  0
 13 12  2  0  0  0  0
 14  8  1  0  0  0  0
 15  9  1  0  0  0  0
 17 18  1  0  0  0  0
 18 19  1  0  0  0  0
 20 19  1  0  0  0  0
 21 20  1  0  0  0  0
 22 21  1  0  0  0  0
 22 17  1  0  0  0  0
M  END
>  <minimizedAffinity>
-4.43825483

$$$$

 OpenBabel03272505463D

 22 24  0  0  0  0  0  0  0  0999 V2000
   38.6380   26.1450   34.9210 C   0  0  0  0  0  0  0  0  0  0  0  0
   39.6250   27.1810   34.7460 C   0  0  0  0  0  0  0  0  0  0  0  0
   38.5960   27.3790   35.8030 C   0  0  0  0  0  0  0  0  0  0  0  0
   40.6710   26.9400   35.1010 H   0  0  0  0  0  0  0  0  0  0  0  0
   39.6160   27.9060   33.9230 H   0  0  0  0  0  0  0  0  0  0  0  0
   38.8590   27.2090   36.8600 H   0  0  0  0  0  0  0  0  0  0  0  0
   37.7590   28.0690   35.6790 H   0  0  0  0  0  0  0  0  0  0  0  0
   38.3010   23.1170   36.9980 C   0  0  0  0  0  0  0  0  0  0  0  0
   39.5330   22.4720   36.8840 C   0  0  0  0  0  0  0  0  0  0  0  0
   40.4870   23.0930   36.0690 C   0  0  0  0  0  0  0  0  0  0  0  0
   40.1540   24.2590   35.4550 N   0  0  0  0  0  0  0  0  0  0  0  0
   38.9480   24.8510   35.5910 C   0  0  0  0  0  0  0  0  0  0  0  0
   38.0250   24.2680   36.3690 N   0  0  0  0  0  0  0  0  0  0  0  0
   37.5010   22.6900   37.6220 H   0  0  0  0  0  0  0  0  0  0  0  0
   39.7220   21.5550   37.3980 H   0  0  0  0  0  0  0  0  0  0  0  0
   41.4620   22.6460   35.9360 H   0  0  0  0  0  0  0  0  0  0  0  0
   37.4940   26.0640   33.9020 C   0  0  0  0  0  3  0  0  0  0  0  0
   37.5980   24.8240   33.0610 C   0  0  0  0  0  2  0  0  0  0  0  0
   36.5400   24.8610   32.0090 C   0  0  0  0  0  2  0  0  0  0  0  0
   36.5750   26.1180   31.1900 C   0  0  0  0  0  2  0  0  0  0  0  0
   36.3160   27.2840   32.1220 C   0  0  0  0  0  2  0  0  0  0  0  0
   37.4790   27.3340   33.0840 C   0  0  0  0  0  2  0  0  0  0  0  0
  1 12  1  0  0  0  0
  1  3  1  0  0  0  0
  2  1  1  0  0  0  0
  2  4  1  0  0  0  0
  2  3  1  0  0  0  0
  3  6  1  0  0  0  0
  5  2  1  0  0  0  0
  7  3  1  0  0  0  0
  8 14  1  0  0  0  0
  9  8  1  0  0  0  0
  9 15  1  0  0  0  0
 10  9  2  0  0  0  0
 11 12  2  0  0  0  0
 11 10  1  0  0  0  0
 12 13  1  0  0  0  0
 13  8  2  0  0  0  0
 16 10  1  0  0  0  0
 17  1  1  0  0  0  0
 18 17  1  0  0  0  0
 19 18  1  0  0  0  0
 20 19  1  0  0  0  0
 20 21  1  0  0  0  0
 21 22  1  0  0  0  0
 22 17  1  0  0  0  0
M  END
>  <minimizedAffinity>
-4.30859709

$$$$

 OpenBabel03272505463D

 22 24  0  0  0  0  0  0  0  0999 V2000
   38.9910   25.9380   34.7940 C   0  0  0  0  0  0  0  0  0  0  0  0
   39.1000   27.2450   35.3910 C   0  0  0  0  0  0  0  0  0  0  0  0
   40.3380   26.6390   34.8280 C   0  0  0  0  0  0  0  0  0  0  0  0
   38.6480   28.1010   34.8070 H   0  0  0  0  0  0  0  0  0  0  0  0
   39.1030   27.4280   36.4720 H   0  0  0  0  0  0  0  0  0  0  0  0
   40.7150   26.9780   33.8490 H   0  0  0  0  0  0  0  0  0  0  0  0
   41.1190   26.2160   35.4620 H   0  0  0  0  0  0  0  0  0  0  0  0
   36.5140   25.7590   32.0680 C   0  0  0  0  0  0  0  0  0  0  0  0
   37.2290   25.2740   30.9720 C   0  0  0  0  0  0  0  0  0  0  0  0
   38.5890   25.0150   31.1830 C   0  0  0  0  0  0  0  0  0  0  0  0
   39.1090   25.2500   32.4150 N   0  0  0  0  0  0  0  0  0  0  0  0
   38.3820   25.7210   33.4510 C   0  0  0  0  0  0  0  0  0  0  0  0
   37.0790   25.9740   33.2640 N   0  0  0  0  0  0  0  0  0  0  0  0
   35.4400   25.9860   31.9800 H   0  0  0  0  0  0  0  0  0  0  0  0
   36.7500   25.1140   30.0320 H   0  0  0  0  0  0  0  0  0  0  0  0
   39.2010   24.6380   30.3750 H   0  0  0  0  0  0  0  0  0  0  0  0
   38.8920   24.7260   35.7290 C   0  0  0  0  0  3  0  0  0  0  0  0
   38.4550   23.4970   34.9870 C   0  0  0  0  0  2  0  0  0  0  0  0
   38.2520   22.3870   35.9630 C   0  0  0  0  0  2  0  0  0  0  0  0
   37.3140   22.7520   37.0750 C   0  0  0  0  0  2  0  0  0  0  0  0
   37.9300   23.9070   37.8380 C   0  0  0  0  0  2  0  0  0  0  0  0
   37.9810   25.0760   36.8840 C   0  0  0  0  0  2  0  0  0  0  0  0
  1  3  1  0  0  0  0
  1  2  1  0  0  0  0
  1 17  1  0  0  0  0
  2  5  1  0  0  0  0
  3  2  1  0  0  0  0
  3  7  1  0  0  0  0
  4  2  1  0  0  0  0
  6  3  1  0  0  0  0
  8 13  1  0  0  0  0
  9 10  1  0  0  0  0
  9  8  2  0  0  0  0
 10 11  2  0  0  0  0
 11 12  1  0  0  0  0
 12  1  1  0  0  0  0
 13 12  2  0  0  0  0
 14  8  1  0  0  0  0
 15  9  1  0  0  0  0
 16 10  1  0  0  0  0
 17 22  1  0  0  0  0
 18 17  1  0  0  0  0
 18 19  1  0  0  0  0
 19 20  1  0  0  0  0
 20 21  1  0  0  0  0
 22 21  1  0  0  0  0
M  END
>  <minimizedAffinity>
-4.30605173

$$$$

 OpenBabel03272505463D

 22 24  0  0  0  0  0  0  0  0999 V2000
   38.5180   23.6240   36.1420 C   0  0  0  0  0  0  0  0  0  0  0  0
   37.7230   22.4500   35.8810 C   0  0  0  0  0  0  0  0  0  0  0  0
   37.5380   23.1320   37.1910 C   0  0  0  0  0  0  0  0  0  0  0  0
   36.8870   22.5690   35.1290 H   0  0  0  0  0  0  0  0  0  0  0  0
   38.1100   21.4250   35.9220 H   0  0  0  0  0  0  0  0  0  0  0  0
   36.6590   23.7780   37.3510 H   0  0  0  0  0  0  0  0  0  0  0  0
   37.9430   22.7270   38.1200 H   0  0  0  0  0  0  0  0  0  0  0  0
   38.0720   27.2560   35.6910 C   0  0  0  0  0  0  0  0  0  0  0  0
   37.6280   27.3970   34.3750 C   0  0  0  0  0  0  0  0  0  0  0  0
   37.4920   26.2160   33.6350 C   0  0  0  0  0  0  0  0  0  0  0  0
   37.7960   25.0370   34.2370 N   0  0  0  0  0  0  0  0  0  0  0  0
   38.2230   24.9440   35.5150 C   0  0  0  0  0  0  0  0  0  0  0  0
   38.3580   26.0670   36.2350 N   0  0  0  0  0  0  0  0  0  0  0  0
   38.2030   28.1400   36.3350 H   0  0  0  0  0  0  0  0  0  0  0  0
   37.4080   28.3600   33.9690 H   0  0  0  0  0  0  0  0  0  0  0  0
   37.1530   26.2540   32.6090 H   0  0  0  0  0  0  0  0  0  0  0  0
   39.9920   23.4250   36.5180 C   0  0  0  0  0  3  0  0  0  0  0  0
   40.9050   24.0060   35.4770 C   0  0  0  0  0  2  0  0  0  0  0  0
   42.3160   23.6720   35.8290 C   0  0  0  0  0  2  0  0  0  0  0  0
   42.5350   22.2020   36.0320 C   0  0  0  0  0  2  0  0  0  0  0  0
   41.6720   21.7630   37.1970 C   0  0  0  0  0  2  0  0  0  0  0  0
   40.2370   21.9540   36.7660 C   0  0  0  0  0  2  0  0  0  0  0  0
  1 17  1  0  0  0  0
  1  3  1  0  0  0  0
  2  5  1  0  0  0  0
  2  1  1  0  0  0  0
  2  3  1  0  0  0  0
  3  6  1  0  0  0  0
  3  7  1  0  0  0  0
  4  2  1  0  0  0  0
  8 13  1  0  0  0  0
  8 14  1  0  0  0  0
  9  8  2  0  0  0  0
 10 11  2  0  0  0  0
 10  9  1  0  0  0  0
 11 12  1  0  0  0  0
 12  1  1  0  0  0  0
 12 13  2  0  0  0  0
 15  9  1  0  0  0  0
 16 10  1  0  0  0  0
 17 22  1  0  0  0  0
 18 19  1  0  0  0  0
 18 17  1  0  0  0  0
 19 20  1  0  0  0  0
 20 21  1  0  0  0  0
 22 21  1  0  0  0  0
M  END
>  <minimizedAffinity>
-4.26024961

$$$$

 OpenBabel03272505463D

 22 24  0  0  0  0  0  0  0  0999 V2000
   38.5030   23.6050   36.0850 C   0  0  0  0  0  0  0  0  0  0  0  0
   37.7300   22.4270   35.7800 C   0  0  0  0  0  0  0  0  0  0  0  0
   37.5050   23.0780   37.1010 C   0  0  0  0  0  0  0  0  0  0  0  0
   36.9100   22.5520   35.0120 H   0  0  0  0  0  0  0  0  0  0  0  0
   38.1290   21.4060   35.8080 H   0  0  0  0  0  0  0  0  0  0  0  0
   36.6140   23.7080   37.2540 H   0  0  0  0  0  0  0  0  0  0  0  0
   37.8940   22.6570   38.0300 H   0  0  0  0  0  0  0  0  0  0  0  0
   37.5550   26.2000   33.6430 C   0  0  0  0  0  0  0  0  0  0  0  0
   37.6970   27.4040   34.3340 C   0  0  0  0  0  0  0  0  0  0  0  0
   38.1190   27.3110   35.6660 C   0  0  0  0  0  0  0  0  0  0  0  0
   38.3550   26.0770   36.1840 N   0  0  0  0  0  0  0  0  0  0  0  0
   38.2050   24.9340   35.4810 C   0  0  0  0  0  0  0  0  0  0  0  0
   37.8020   25.0090   34.2040 N   0  0  0  0  0  0  0  0  0  0  0  0
   37.2280   26.1930   32.5910 H   0  0  0  0  0  0  0  0  0  0  0  0
   37.4920   28.3380   33.8580 H   0  0  0  0  0  0  0  0  0  0  0  0
   38.2480   28.2050   36.2590 H   0  0  0  0  0  0  0  0  0  0  0  0
   39.9700   23.4160   36.4910 C   0  0  0  0  0  3  0  0  0  0  0  0
   40.9000   24.0000   35.4670 C   0  0  0  0  0  2  0  0  0  0  0  0
   42.3060   23.6760   35.8480 C   0  0  0  0  0  2  0  0  0  0  0  0
   42.5300   22.2080   36.0600 C   0  0  0  0  0  2  0  0  0  0  0  0
   41.6460   21.7670   37.2090 C   0  0  0  0  0  2  0  0  0  0  0  0
   40.2190   21.9480   36.7490 C   0  0  0  0  0  2  0  0  0  0  0  0
  1 17  1  0  0  0  0
  1  3  1  0  0  0  0
  2  5  1  0  0  0  0
  2  1  1  0  0  0  0
  2  3  1  0  0  0  0
  3  6  1  0  0  0  0
  3  7  1  0  0  0  0
  4  2  1  0  0  0  0
  8 13  2  0  0  0  0
  8  9  1  0  0  0  0
  9 10  2  0  0  0  0
 10 11  1  0  0  0  0
 10 16  1  0  0  0  0
 12  1  1  0  0  0  0
 12 11  2  0  0  0  0
 13 12  1  0  0  0  0
 14  8  1  0  0  0  0
 15  9  1  0  0  0  0
 17 22  1  0  0  0  0
 18 19  1  0  0  0  0
 18 17  1  0  0  0  0
 19 20  1  0  0  0  0
 20 21  1  0  0  0  0
 22 21  1  0  0  0  0
M  END
>  <minimizedAffinity>
-4.22389507

$$$$

 OpenBabel03272505463D

 22 24  0  0  0  0  0  0  0  0999 V2000
   37.3520   27.1790   32.7450 C   0  0  0  0  0  0  0  0  0  0  0  0
   38.1170   27.2090   33.9670 C   0  0  0  0  0  0  0  0  0  0  0  0
   36.7440   27.7860   33.9970 C   0  0  0  0  0  0  0  0  0  0  0  0
   38.2580   26.2180   34.4920 H   0  0  0  0  0  0  0  0  0  0  0  0
   38.9380   27.9090   34.1610 H   0  0  0  0  0  0  0  0  0  0  0  0
   35.9200   27.2080   34.4450 H   0  0  0  0  0  0  0  0  0  0  0  0
   36.5660   28.8620   34.0100 H   0  0  0  0  0  0  0  0  0  0  0  0
   36.7380   23.6190   32.0080 C   0  0  0  0  0  0  0  0  0  0  0  0
   35.5790   23.6140   31.2300 C   0  0  0  0  0  0  0  0  0  0  0  0
   35.0020   24.8620   30.9670 C   0  0  0  0  0  0  0  0  0  0  0  0
   35.5970   25.9710   31.4780 N   0  0  0  0  0  0  0  0  0  0  0  0
   36.7190   25.9330   32.2280 C   0  0  0  0  0  0  0  0  0  0  0  0
   37.2830   24.7440   32.4880 N   0  0  0  0  0  0  0  0  0  0  0  0
   37.2490   22.6760   32.2570 H   0  0  0  0  0  0  0  0  0  0  0  0
   35.1690   22.7000   30.8620 H   0  0  0  0  0  0  0  0  0  0  0  0
   34.1030   24.9300   30.3710 H   0  0  0  0  0  0  0  0  0  0  0  0
   37.6970   28.2040   31.6570 C   0  0  0  0  0  3  0  0  0  0  0  0
   36.4580   28.8170   31.0710 C   0  0  0  0  0  2  0  0  0  0  0  0
   36.8460   29.7060   29.9370 C   0  0  0  0  0  2  0  0  0  0  0  0
   37.6840   29.0060   28.9080 C   0  0  0  0  0  2  0  0  0  0  0  0
   38.9660   28.5610   29.5810 C   0  0  0  0  0  2  0  0  0  0  0  0
   38.5740   27.5390   30.6210 C   0  0  0  0  0  2  0  0  0  0  0  0
  1  2  1  0  0  0  0
  1  3  1  0  0  0  0
  2  3  1  0  0  0  0
  2  5  1  0  0  0  0
  2  4  1  0  0  0  0
  3  7  1  0  0  0  0
  3  6  1  0  0  0  0
  8 14  1  0  0  0  0
  8 13  1  0  0  0  0
  9  8  2  0  0  0  0
 10  9  1  0  0  0  0
 10 11  2  0  0  0  0
 11 12  1  0  0  0  0
 12 13  2  0  0  0  0
 12  1  1  0  0  0  0
 15  9  1  0  0  0  0
 16 10  1  0  0  0  0
 17  1  1  0  0  0  0
 18 17  1  0  0  0  0
 19 18  1  0  0  0  0
 20 21  1  0  0  0  0
 20 19  1  0  0  0  0
 21 22  1  0  0  0  0
 22 17  1  0  0  0  0
M  END
>  <minimizedAffinity>
-4.19188404

$$$$
