
     RDKit          3D

 39 42  0  0  0  0  0  0  0  0999 V2000
   34.6169   28.1460   48.9217 C   0  0  0  0  0  0  0  0  0  0  0  0
   34.9729   29.4558   48.6032 C   0  0  0  0  0  0  0  0  0  0  0  0
   34.2203   30.1792   47.7173 C   0  0  0  0  0  0  0  0  0  0  0  0
   33.0998   29.6397   47.1200 C   0  0  0  0  0  0  0  0  0  0  0  0
   32.2083   30.1389   46.2302 N   0  0  0  0  0  0  0  0  0  0  0  0
   31.3327   29.0990   46.0395 C   0  0  0  0  0  0  0  0  0  0  0  0
   31.6804   28.0324   46.7757 N   0  0  0  0  0  0  0  0  0  0  0  0
   32.7823   28.3484   47.4589 C   0  0  0  0  0  0  0  0  0  0  0  0
   33.4957   27.5704   48.3400 C   0  0  0  0  0  0  0  0  0  0  0  0
   37.5241   30.3673   51.0916 C   0  0  0  0  0  0  0  0  0  0  0  0
   38.4154   31.1596   50.3343 C   0  0  0  0  0  0  0  0  0  0  0  0
   38.1070   31.3622   48.9600 C   0  0  0  0  0  0  0  0  0  0  0  0
   36.9749   30.7817   48.4600 N   0  0  0  0  0  0  0  0  0  0  0  0
   36.1492   30.0285   49.2274 C   0  0  0  0  0  0  0  0  0  0  0  0
   36.4291   29.8329   50.5152 N   0  0  0  0  0  0  0  0  0  0  0  0
   35.1806   27.5327   49.6171 H   0  0  0  0  0  0  0  0  0  0  0  0
   34.5364   31.2060   47.4953 H   0  0  0  0  0  0  0  0  0  0  0  0
   32.1912   31.0836   45.7957 H   0  0  0  0  0  0  0  0  0  0  0  0
   30.4997   29.2249   45.3601 H   0  0  0  0  0  0  0  0  0  0  0  0
   33.2006   26.5561   48.5721 H   0  0  0  0  0  0  0  0  0  0  0  0
   37.7817   30.2311   52.1265 H   0  0  0  0  0  0  0  0  0  0  0  0
   39.3054   31.6206   50.7115 H   0  0  0  0  0  0  0  0  0  0  0  0
   38.9969   32.1830   48.1017 C   0  0  0  0  0  0  0  0  0  0  0  0
   38.8884   33.6523   48.3214 C   0  0  0  0  0  0  0  0  0  0  0  0
   39.5309   34.3597   47.1470 C   0  0  0  0  0  0  0  0  0  0  0  0
   40.5415   33.4781   46.4442 C   0  0  0  0  0  0  0  0  0  0  0  0
   39.8591   32.2555   45.8499 C   0  0  0  0  0  0  0  0  0  0  0  0
   38.6168   31.8983   46.6519 C   0  0  0  0  0  0  0  0  0  0  0  0
   40.0395   31.8793   48.3113 H   0  0  0  0  0  0  0  0  0  0  0  0
   39.3574   33.9974   49.2661 H   0  0  0  0  0  0  0  0  0  0  0  0
   37.8016   33.9523   48.3861 H   0  0  0  0  0  0  0  0  0  0  0  0
   40.0427   35.2785   47.4554 H   0  0  0  0  0  0  0  0  0  0  0  0
   38.7467   34.5653   46.3618 H   0  0  0  0  0  0  0  0  0  0  0  0
   40.9373   34.0667   45.5908 H   0  0  0  0  0  0  0  0  0  0  0  0
   41.4019   33.2276   47.0890 H   0  0  0  0  0  0  0  0  0  0  0  0
   39.6283   32.4177   44.7834 H   0  0  0  0  0  0  0  0  0  0  0  0
   40.5355   31.3877   45.9207 H   0  0  0  0  0  0  0  0  0  0  0  0
   37.8152   32.5873   46.3827 H   0  0  0  0  0  0  0  0  0  0  0  0
   38.3172   30.8575   46.5195 H   0  0  0  0  0  0  0  0  0  0  0  0
  2  1  2  0
  2 14  1  0
  3  2  1  0
  4  8  1  0
  4  3  2  0
  5  4  1  0
  6  5  1  0
  6  7  2  0
  7  8  1  0
  8  9  2  0
  9  1  1  0
 11 10  2  0
 12 11  1  0
 13 12  2  0
 13 14  1  0
 14 15  2  0
 15 10  1  0
  1 16  1  0
  3 17  1  0
  5 18  1  0
  6 19  1  0
  9 20  1  0
 10 21  1  0
 11 22  1  0
 23 24  1  0
 24 25  1  0
 25 26  1  0
 26 27  1  0
 27 28  1  0
 28 23  1  0
 23 29  1  0
 24 30  1  0
 24 31  1  0
 25 32  1  0
 25 33  1  0
 26 34  1  0
 26 35  1  0
 27 36  1  0
 27 37  1  0
 28 38  1  0
 28 39  1  0
 12 23  1  0
M  ISO  7  16  14  17  14  18   9  19  14  20  14  21  14  22  14
M  END
>  <DihAtoms>  (1) 
10,11,22,23

>  <DihDeg>  (1) 
59.60841455581468

$$$$
