
 OpenBabel03272510273D

 42 46  0  0  1  0  0  0  0  0999 V2000
   36.2060   30.2180   47.0970 C   0  0  0  0  0  0  0  0  0  0  0  0
   37.0860   30.7430   48.0410 C   0  0  0  0  0  0  0  0  0  0  0  0
   38.1110   31.6170   47.6730 C   0  0  0  0  0  0  0  0  0  0  0  0
   38.1930   31.9250   46.3210 C   0  0  0  0  0  0  0  0  0  0  0  0
   39.1050   32.7490   45.7200 N   0  0  0  0  0  0  0  0  0  0  0  0
   38.8040   32.7420   44.4090 C   0  0  0  0  0  0  0  0  0  0  0  0
   37.7680   31.9670   44.1770 N   0  0  0  0  0  0  0  0  0  0  0  0
   37.3450   31.4290   45.3520 C   0  0  0  0  0  0  0  0  0  0  0  0
   36.3280   30.5560   45.7550 C   0  0  0  0  0  0  0  0  0  0  0  0
   35.4220   29.5510   47.3750 H   0  0  0  0  0  0  0  0  0  0  0  0
   38.7750   32.0100   48.4120 H   0  0  0  0  0  0  0  0  0  0  0  0
   39.8730   33.2690   46.1990 H   0  0  0  0  0  0  0  0  0  0  0  0
   35.6740   30.1760   44.9920 H   0  0  0  0  0  0  0  0  0  0  0  0
   37.4160   30.2030   51.7300 C   0  0  0  0  0  0  0  0  0  0  0  0
   37.7220   30.6880   50.4760 C   0  0  0  0  0  0  0  0  0  0  0  0
   36.8920   30.3240   49.4210 C   0  0  0  0  0  0  0  0  0  0  0  0
   35.8350   29.5150   49.6990 N   0  0  0  0  0  0  0  0  0  0  0  0
   35.5510   29.0510   50.9290 C   0  0  0  0  0  0  0  0  0  0  0  0
   36.3480   29.4030   51.9320 N   0  0  0  0  0  0  0  0  0  0  0  0
   38.0830   30.5060   52.5340 H   0  0  0  0  0  0  0  0  0  0  0  0
   38.5560   31.3250   50.2640 H   0  0  0  0  0  0  0  0  0  0  0  0
   34.7010   28.4150   51.0940 H   0  0  0  0  0  0  0  0  0  0  0  0
   39.5470   33.4920   43.4850 O   0  0  0  0  0  0  0  0  0  0  0  0
   40.0110   31.5400   42.3940 N   0  0  0  0  0  0  0  0  0  0  0  0
   39.6340   32.9520   42.1700 C   0  0  1  0  0  0  0  0  0  0  0  0
   38.3530   32.9870   41.4740 C   0  0  0  0  0  0  0  0  0  0  0  0
   38.5220   32.4210   40.1970 O   0  0  0  0  0  0  0  0  0  0  0  0
   39.0350   31.1570   40.1840 C   0  0  0  0  0  0  0  0  0  0  0  0
   40.2400   30.9950   41.0740 C   0  0  2  0  0  0  0  0  0  0  0  0
   40.9300   31.5980   42.8910 H   0  0  0  0  0  0  0  0  0  0  0  0
   40.3990   33.4610   41.5630 H   0  0  0  0  0  0  0  0  0  0  0  0
   37.4500   32.5700   41.8240 H   0  0  0  0  0  0  0  0  0  0  0  0
   38.1360   34.0740   41.2380 H   0  0  0  0  0  0  0  0  0  0  0  0
   39.3490   30.9490   39.1420 H   0  0  0  0  0  0  0  0  0  0  0  0
   38.2750   30.3690   40.4240 H   0  0  0  0  0  0  0  0  0  0  0  0
   41.1120   31.5240   40.6550 H   0  0  0  0  0  0  0  0  0  0  0  0
   40.5190   29.5130   41.2420 C   0  0  0  0  0  3  0  0  0  0  0  0
   39.6800   28.8930   42.3270 C   0  0  0  0  0  2  0  0  0  0  0  0
   38.8870   27.6940   41.8710 C   0  0  0  0  0  2  0  0  0  0  0  0
   39.7530   26.6360   41.2290 C   0  0  0  0  0  2  0  0  0  0  0  0
   40.6580   27.3040   40.2200 C   0  0  0  0  0  2  0  0  0  0  0  0
   40.2460   28.7430   39.9780 C   0  0  0  0  0  2  0  0  0  0  0  0
  1 10  1  0  0  0  0
  1  2  1  0  0  0  0
  2 16  1  0  0  0  0
  3  2  2  0  0  0  0
  3 11  1  0  0  0  0
  4  3  1  0  0  0  0
  5 12  1  0  0  0  0
  5  4  1  0  0  0  0
  6  5  1  0  0  0  0
  7  6  2  0  0  0  0
  7  8  1  0  0  0  0
  8  9  1  0  0  0  0
  8  4  2  0  0  0  0
  9  1  2  0  0  0  0
 13  9  1  0  0  0  0
 14 19  1  0  0  0  0
 14 20  1  0  0  0  0
 15 14  2  0  0  0  0
 16 17  2  0  0  0  0
 16 15  1  0  0  0  0
 17 18  1  0  0  0  0
 18 22  1  0  0  0  0
 18 19  2  0  0  0  0
 21 15  1  0  0  0  0
 23  6  1  0  0  0  0
 24 30  1  0  0  0  0
 25 31  1  6  0  0  0
 25 24  1  0  0  0  0
 25 23  1  0  0  0  0
 26 32  1  0  0  0  0
 26 25  1  0  0  0  0
 27 26  1  0  0  0  0
 28 27  1  0  0  0  0
 28 35  1  0  0  0  0
 28 29  1  0  0  0  0
 29 36  1  6  0  0  0
 29 37  1  0  0  0  0
 29 24  1  0  0  0  0
 33 26  1  0  0  0  0
 34 28  1  0  0  0  0
 37 38  1  0  0  0  0
 39 38  1  0  0  0  0
 40 39  1  0  0  0  0
 41 40  1  0  0  0  0
 42 41  1  0  0  0  0
 42 37  1  0  0  0  0
M  END
>  <minimizedAffinity>
-5.96504068

>  <minimizedRMSD>
1.14891386

$$$$
