
     RDKit          3D

 26 27  0  0  0  0  0  0  0  0999 V2000
   37.2972   30.1832   51.4148 C   0  0  0  0  0  0  0  0  0  0  0  0
   38.0729   30.6835   50.3456 C   0  0  0  0  0  0  0  0  0  0  0  0
   37.6746   30.3405   49.0448 C   0  0  0  0  0  0  0  0  0  0  0  0
   36.5724   29.5516   48.8894 N   0  0  0  0  0  0  0  0  0  0  0  0
   35.8579   29.0936   49.9341 C   0  0  0  0  0  0  0  0  0  0  0  0
   36.2191   29.4086   51.1993 N   0  0  0  0  0  0  0  0  0  0  0  0
   37.6262   30.4629   52.4108 H   0  0  0  0  0  0  0  0  0  0  0  0
   38.9312   31.3007   50.5261 H   0  0  0  0  0  0  0  0  0  0  0  0
   35.0020   28.4765   49.7183 H   0  0  0  0  0  0  0  0  0  0  0  0
   38.4527   30.8396   47.9105 C   0  0  0  0  0  0  0  0  0  0  0  0
   37.6968   31.5964   46.8778 C   0  0  0  0  0  0  0  0  0  0  0  0
   38.5935   31.6750   45.6569 C   0  0  0  0  0  0  0  0  0  0  0  0
   40.0006   31.9643   46.0241 C   0  0  0  0  0  0  0  0  0  0  0  0
   40.2383   32.5201   47.3874 C   0  0  0  0  0  0  0  0  0  0  0  0
   39.4704   31.8352   48.4826 C   0  0  0  0  0  0  0  0  0  0  0  0
   39.0965   30.0488   47.4416 H   0  0  0  0  0  0  0  0  0  0  0  0
   37.4308   32.6079   47.1928 H   0  0  0  0  0  0  0  0  0  0  0  0
   36.7852   31.0818   46.5152 H   0  0  0  0  0  0  0  0  0  0  0  0
   38.1732   32.3593   44.8904 H   0  0  0  0  0  0  0  0  0  0  0  0
   38.5616   30.6576   45.1824 H   0  0  0  0  0  0  0  0  0  0  0  0
   40.6957   31.0998   45.8346 H   0  0  0  0  0  0  0  0  0  0  0  0
   40.3560   32.7617   45.3108 H   0  0  0  0  0  0  0  0  0  0  0  0
   41.3302   32.3387   47.6169 H   0  0  0  0  0  0  0  0  0  0  0  0
   40.1227   33.6202   47.4752 H   0  0  0  0  0  0  0  0  0  0  0  0
   40.1111   31.2960   49.2066 H   0  0  0  0  0  0  0  0  0  0  0  0
   38.8670   32.5730   49.0599 H   0  0  0  0  0  0  0  0  0  0  0  0
  2  1  2  0
  3  2  1  0
  4  3  2  0
  4  5  1  0
  5  6  2  0
  6  1  1  0
  1  7  1  0
  2  8  1  0
  5  9  1  0
 10 11  1  0
 11 12  1  0
 12 13  1  0
 13 14  1  0
 14 15  1  0
 15 10  1  0
 10 16  1  0
 11 17  1  0
 11 18  1  0
 12 19  1  0
 12 20  1  0
 13 21  1  0
 13 22  1  0
 14 23  1  0
 14 24  1  0
 15 25  1  0
 15 26  1  0
  3 10  1  0
M  ISO  3   7  14   8  14   9  14
M  END
>  <DihAtoms>  (1) 
1,2,9,10

>  <DihDeg>  (1) 
-49.97841113850576

$$$$
