REMARK  Name = 
REMARK  5 active torsions:
REMARK  status: ('A' for Active; 'I' for Inactive)
REMARK    1  A    between atoms: C_1  and  C_6
REMARK    2  A    between atoms: C_4  and  C_14
REMARK    3  A    between atoms: C_6  and  C_8
REMARK    4  A    between atoms: C_14  and  C_16
REMARK    5  A    between atoms: C_18  and  C_28
REMARK                            x       y       z     vdW  Elec       q    Type
REMARK                         _______ _______ _______ _____ _____    ______ ____
ROOT
ATOM      1  C   UNL     1      35.824  29.136  49.799  0.00  0.00    +0.000 A 
ATOM      2  C   UNL     1      34.807  29.651  50.569  0.00  0.00    +0.000 A 
ATOM      3  C   UNL     1      33.602  29.116  50.088  0.00  0.00    +0.000 A 
ATOM      4  C   UNL     1      33.970  28.298  49.042  0.00  0.00    +0.000 A 
ATOM      5  O   UNL     1      35.279  28.342  48.909  0.00  0.00    +0.000 OA
ATOM      6  H   UNL     1      34.829  30.343  51.407  0.00  0.00    +0.000 HD
ATOM      7  H   UNL     1      32.593  29.272  50.419  0.00  0.00    +0.000 HD
ENDROOT
BRANCH   1   8
ATOM      8  C   UNL     1      37.217  29.481  50.023  0.00  0.00    +0.000 C 
ATOM      9  O   UNL     1      37.864  28.868  50.886  0.00  0.00    +0.000 OA
BRANCH   8  10
ATOM     10  C   UNL     1      37.766  30.532  49.214  0.00  0.00    +0.000 A 
ATOM     11  C   UNL     1      38.117  31.706  49.851  0.00  0.00    +0.000 A 
ATOM     12  C   UNL     1      38.652  32.749  49.096  0.00  0.00    +0.000 A 
ATOM     13  N   UNL     1      38.805  32.555  47.738  0.00  0.00    +0.000 NA
ATOM     14  C   UNL     1      38.453  31.403  47.157  0.00  0.00    +0.000 A 
ATOM     15  N   UNL     1      37.939  30.399  47.880  0.00  0.00    +0.000 NA
ATOM     16  H   UNL     1      38.012  31.899  50.923  0.00  0.00    +0.000 HD
ATOM     17  H   UNL     1      38.947  33.688  49.517  0.00  0.00    +0.000 HD
ATOM     18  H   UNL     1      38.627  31.382  46.081  0.00  0.00    +0.000 HD
ENDBRANCH   8  10
ENDBRANCH   1   8
BRANCH   4  19
ATOM     19  C   UNL     1      33.062  27.506  48.212  0.00  0.00    +0.000 C 
ATOM     20  O   UNL     1      31.837  27.433  48.562  0.00  0.00    +0.000 OA
BRANCH  19  21
ATOM     21  C   UNL     1      33.572  26.796  46.991  0.00  0.00    +0.000 C 
ATOM     22  C   UNL     1      33.787  25.265  47.326  0.00  0.00    +0.000 C 
ATOM     23  C   UNL     1      32.770  25.756  46.366  0.00  0.00    +0.000 C 
ATOM     24  H   UNL     1      34.549  27.207  46.662  0.00  0.00    +0.000 HD
ATOM     25  H   UNL     1      33.463  24.917  48.306  0.00  0.00    +0.000 HD
ATOM     26  H   UNL     1      34.726  24.829  46.993  0.00  0.00    +0.000 HD
ATOM     27  H   UNL     1      31.707  25.720  46.756  0.00  0.00    +0.000 HD
BRANCH  23  28
ATOM     28  C   UNL     1      32.916  25.279  44.975  0.00  0.00    +0.000 C 
ATOM     29  C   UNL     1      31.800  24.455  44.413  0.00  0.00    +0.000 C 
ATOM     30  C   UNL     1      30.774  25.236  43.651  0.00  0.00    +0.000 C 
ATOM     31  C   UNL     1      31.358  25.973  42.469  0.00  0.00    +0.000 C 
ATOM     32  C   UNL     1      32.829  26.259  42.649  0.00  0.00    +0.000 C 
ATOM     33  C   UNL     1      33.110  26.499  44.096  0.00  0.00    +0.000 C 
ENDBRANCH  23  28
ENDBRANCH  19  21
ENDBRANCH   4  19
TORSDOF 5
