
 OpenBabel03272508123D

 31 33  0  0  0  0  0  0  0  0999 V2000
   36.6440   29.4130   44.0790 Cl  0  0  0  0  0  0  0  0  0  0  0  0
   38.2870   29.8110   43.5180 C   0  0  0  0  0  0  0  0  0  0  0  0
   39.2940   30.3100   44.3470 C   0  0  0  0  0  0  0  0  0  0  0  0
   40.5160   30.5710   43.7700 C   0  0  0  0  0  0  0  0  0  0  0  0
   40.7370   30.3510   42.4320 C   0  0  0  0  0  0  0  0  0  0  0  0
   39.7590   29.8620   41.6050 C   0  0  0  0  0  0  0  0  0  0  0  0
   38.5420   29.5960   42.1520 C   0  0  0  0  0  0  0  0  0  0  0  0
   41.2470   30.9540   44.4690 H   0  0  0  0  0  0  0  0  0  0  0  0
   41.7160   30.5740   42.0280 H   0  0  0  0  0  0  0  0  0  0  0  0
   39.9430   29.6910   40.5450 H   0  0  0  0  0  0  0  0  0  0  0  0
   37.4570   29.0610   41.2670 C   0  0  0  0  0  3  0  0  0  0  0  0
   36.4180   30.1700   41.2070 C   0  0  0  0  0  2  0  0  0  0  0  0
   35.2360   29.6790   40.4350 C   0  0  0  0  0  2  0  0  0  0  0  0
   35.5140   28.3970   39.6900 C   0  0  0  0  0  2  0  0  0  0  0  0
   35.9650   27.2890   40.6180 C   0  0  0  0  0  2  0  0  0  0  0  0
   36.8360   27.8010   41.7550 C   0  0  0  0  0  2  0  0  0  0  0  0
   38.8820   30.4600   45.6410 O   0  0  0  0  0  0  0  0  0  0  0  0
   39.4450   32.5160   47.1030 O   0  0  0  0  0  0  0  0  0  0  0  0
   38.3030   31.8430   46.4130 P   0  0  1  0  0  0  0  0  0  0  0  0
   37.7180   32.8490   45.1670 O   0  0  0  0  0  0  0  0  0  0  0  0
   37.4890   32.3540   44.3500 H   0  0  0  0  0  0  0  0  0  0  0  0
   37.0260   31.4180   47.4410 O   0  0  0  0  0  0  0  0  0  0  0  0
   37.6170   30.5290   50.9830 C   0  0  0  0  0  0  0  0  0  0  0  0
   37.7040   31.2970   49.8200 C   0  0  0  0  0  0  0  0  0  0  0  0
   37.0740   30.8470   48.6620 C   0  0  0  0  0  0  0  0  0  0  0  0
   36.3950   29.6540   48.7360 N   0  0  0  0  0  0  0  0  0  0  0  0
   36.3340   28.9420   49.8780 C   0  0  0  0  0  0  0  0  0  0  0  0
   36.9430   29.3820   50.9910 N   0  0  0  0  0  0  0  0  0  0  0  0
   38.1370   30.9540   51.8450 H   0  0  0  0  0  0  0  0  0  0  0  0
   38.2110   32.2330   49.6810 H   0  0  0  0  0  0  0  0  0  0  0  0
   35.7810   27.9910   49.9000 H   0  0  0  0  0  0  0  0  0  0  0  0
  2  1  1  0  0  0  0
  2  3  1  0  0  0  0
  3 17  1  0  0  0  0
  4  3  2  0  0  0  0
  4  8  1  0  0  0  0
  5  4  1  0  0  0  0
  6  7  1  0  0  0  0
  6  5  2  0  0  0  0
  7  2  2  0  0  0  0
  9  5  1  0  0  0  0
 10  6  1  0  0  0  0
 11 16  1  0  0  0  0
 11  7  1  0  0  0  0
 12 11  1  0  0  0  0
 13 12  1  0  0  0  0
 14 13  1  0  0  0  0
 14 15  1  0  0  0  0
 15 16  1  0  0  0  0
 17 19  1  0  0  0  0
 19 18  2  1  0  0  0
 19 22  1  0  0  0  0
 20 19  1  0  0  0  0
 21 20  1  0  0  0  0
 22 25  1  0  0  0  0
 23 28  1  0  0  0  0
 23 29  1  0  0  0  0
 24 23  2  0  0  0  0
 25 26  2  0  0  0  0
 25 24  1  0  0  0  0
 26 27  1  0  0  0  0
 27 31  1  0  0  0  0
 27 28  2  0  0  0  0
 30 24  1  0  0  0  0
M  END
>  <minimizedAffinity>
-4.82933092

>  <minimizedRMSD>
0.389403403

$$$$
