REMARK  Name = 
REMARK  4 active torsions:
REMARK  status: ('A' for Active; 'I' for Inactive)
REMARK    1  A    between atoms: C_1  and  C_6
REMARK    2  A    between atoms: N_4  and  C_16
REMARK    3  A    between atoms: C_8  and  C_12
REMARK    4  A    between atoms: C_19  and  C_27
REMARK                            x       y       z     vdW  Elec       q    Type
REMARK                         _______ _______ _______ _____ _____    ______ ____
ROOT
ATOM      1  C   UNL     1      38.912  30.891  45.764  0.00  0.00    +0.000 A 
ATOM      2  C   UNL     1      40.111  31.526  46.029  0.00  0.00    +0.000 A 
ATOM      3  C   UNL     1      40.956  31.471  44.914  0.00  0.00    +0.000 A 
ATOM      4  N   UNL     1      40.220  30.797  44.016  0.00  0.00    +0.000 N 
ATOM      5  N   UNL     1      39.030  30.457  44.506  0.00  0.00    +0.000 NA
ATOM      6  H   UNL     1      40.403  32.016  46.963  0.00  0.00    +0.000 HD
ATOM      7  H   UNL     1      41.945  31.847  44.749  0.00  0.00    +0.000 HD
ENDROOT
BRANCH   1   8
ATOM      8  C   UNL     1      37.794  30.748  46.678  0.00  0.00    +0.000 A 
ATOM      9  C   UNL     1      38.010  30.971  48.053  0.00  0.00    +0.000 A 
ATOM     10  C   UNL     1      36.926  30.831  48.913  0.00  0.00    +0.000 A 
ATOM     11  N   UNL     1      35.716  30.486  48.376  0.00  0.00    +0.000 NA
ATOM     12  C   UNL     1      35.532  30.277  47.050  0.00  0.00    +0.000 A 
ATOM     13  N   UNL     1      36.581  30.412  46.212  0.00  0.00    +0.000 NA
ATOM     14  H   UNL     1      38.978  31.242  48.448  0.00  0.00    +0.000 HD
ATOM     15  H   UNL     1      34.550  30.008  46.694  0.00  0.00    +0.000 HD
BRANCH  10  16
ATOM     16  C   UNL     1      37.122  31.058  50.367  0.00  0.00    +0.000 C 
ATOM     17  F   UNL     1      36.596  32.299  50.628  0.00  0.00    +0.000 F 
ATOM     18  F   UNL     1      36.463  30.114  51.154  0.00  0.00    +0.000 F 
ATOM     19  F   UNL     1      38.473  31.082  50.705  0.00  0.00    +0.000 F 
ENDBRANCH  10  16
ENDBRANCH   1   8
BRANCH   4  20
ATOM     20  C   UNL     1      40.570  30.424  42.640  0.00  0.00    +0.000 A 
ATOM     21  C   UNL     1      40.187  31.210  41.541  0.00  0.00    +0.000 A 
ATOM     22  C   UNL     1      40.521  30.830  40.303  0.00  0.00    +0.000 A 
ATOM     23  C   UNL     1      41.266  29.626  40.114  0.00  0.00    +0.000 A 
ATOM     24  S   UNL     1      41.474  29.040  41.873  0.00  0.00    +0.000 S 
ATOM     25  H   UNL     1      39.617  32.134  41.661  0.00  0.00    +0.000 HD
ATOM     26  H   UNL     1      40.310  31.309  39.358  0.00  0.00    +0.000 HD
BRANCH  23  27
ATOM     27  C   UNL     1      41.783  28.927  39.005  0.00  0.00    +0.000 C 
ATOM     28  C   UNL     1      41.830  27.470  39.332  0.00  0.00    +0.000 C 
ATOM     29  C   UNL     1      40.724  26.703  38.607  0.00  0.00    +0.000 C 
ATOM     30  C   UNL     1      41.093  26.773  37.121  0.00  0.00    +0.000 C 
ATOM     31  C   UNL     1      41.199  28.211  36.671  0.00  0.00    +0.000 C 
ATOM     32  C   UNL     1      40.927  29.184  37.786  0.00  0.00    +0.000 C 
ENDBRANCH  23  27
ENDBRANCH   4  20
TORSDOF 4
