
 OpenBabel03272509513D

 30 32  0  0  0  0  0  0  0  0999 V2000
   37.1570   26.9750   34.7660 C   0  0  0  0  0  0  0  0  0  0  0  0
   36.2430   26.3900   34.9990 H   0  0  0  0  0  0  0  0  0  0  0  0
   36.8720   28.0600   34.8010 H   0  0  0  0  0  0  0  0  0  0  0  0
   38.2470   26.7800   35.7720 C   0  0  0  0  0  0  0  0  0  0  0  0
   39.1360   27.3420   35.3990 H   0  0  0  0  0  0  0  0  0  0  0  0
   37.9460   27.2300   36.7390 H   0  0  0  0  0  0  0  0  0  0  0  0
   38.5890   25.3530   35.9820 C   0  0  0  0  0  0  0  0  0  0  0  0
   37.7790   24.6320   36.8350 C   0  0  0  0  0  0  0  0  0  0  0  0
   37.9910   23.2980   37.1140 C   0  0  0  0  0  0  0  0  0  0  0  0
   39.0290   22.6880   36.5250 N   0  0  0  0  0  0  0  0  0  0  0  0
   39.8240   23.3850   35.6900 C   0  0  0  0  0  0  0  0  0  0  0  0
   39.6180   24.6860   35.4180 N   0  0  0  0  0  0  0  0  0  0  0  0
   36.9360   25.1060   37.3220 H   0  0  0  0  0  0  0  0  0  0  0  0
   37.3210   22.7730   37.7970 H   0  0  0  0  0  0  0  0  0  0  0  0
   40.6480   22.8490   35.2400 H   0  0  0  0  0  0  0  0  0  0  0  0
   37.6250   26.7140   33.4490 O   0  0  0  0  0  0  0  0  0  0  0  0
   35.2200   25.5750   30.9950 C   0  0  0  0  0  0  0  0  0  0  0  0
   35.4680   24.1950   31.0280 C   0  0  0  0  0  0  0  0  0  0  0  0
   36.4580   23.7440   31.9020 C   0  0  0  0  0  0  0  0  0  0  0  0
   37.1160   24.6840   32.6650 N   0  0  0  0  0  0  0  0  0  0  0  0
   36.8440   25.9910   32.5990 C   0  0  0  0  0  0  0  0  0  0  0  0
   35.8900   26.4210   31.7570 N   0  0  0  0  0  0  0  0  0  0  0  0
   34.4750   25.9780   30.3460 H   0  0  0  0  0  0  0  0  0  0  0  0
   34.8700   23.5800   30.3690 H   0  0  0  0  0  0  0  0  0  0  0  0
   36.7250   22.3030   31.9420 C   0  0  0  0  0  3  0  0  0  0  0  0
   37.4310   21.9330   33.2210 C   0  0  0  0  0  2  0  0  0  0  0  0
   36.5680   21.3520   34.2840 C   0  0  0  0  0  2  0  0  0  0  0  0
   35.5240   20.3860   33.8150 C   0  0  0  0  0  2  0  0  0  0  0  0
   35.7580   20.1250   32.3410 C   0  0  0  0  0  2  0  0  0  0  0  0
   35.5280   21.4710   31.6550 C   0  0  0  0  0  2  0  0  0  0  0  0
  1  3  1  0  0  0  0
  1  2  1  0  0  0  0
  1  4  1  0  0  0  0
  4  7  1  0  0  0  0
  4  6  1  0  0  0  0
  5  4  1  0  0  0  0
  7  8  1  0  0  0  0
  8  9  2  0  0  0  0
  8 13  1  0  0  0  0
  9 14  1  0  0  0  0
 10  9  1  0  0  0  0
 11 10  2  0  0  0  0
 12 11  1  0  0  0  0
 12  7  2  0  0  0  0
 15 11  1  0  0  0  0
 16  1  1  0  0  0  0
 17 18  2  0  0  0  0
 17 22  1  0  0  0  0
 18 19  1  0  0  0  0
 19 25  1  0  0  0  0
 19 20  2  0  0  0  0
 21 20  1  0  0  0  0
 21 16  1  0  0  0  0
 22 21  2  0  0  0  0
 23 17  1  0  0  0  0
 24 18  1  0  0  0  0
 25 26  1  0  0  0  0
 26 27  1  0  0  0  0
 28 27  1  0  0  0  0
 29 28  1  0  0  0  0
 30 25  1  0  0  0  0
 30 29  1  0  0  0  0
M  END
>  <minimizedAffinity>
-5.33981609

$$$$

 OpenBabel03272509513D

 30 32  0  0  0  0  0  0  0  0999 V2000
   37.2080   21.7170   33.7790 C   0  0  0  0  0  0  0  0  0  0  0  0
   36.7570   20.7430   34.0630 H   0  0  0  0  0  0  0  0  0  0  0  0
   36.6820   22.5090   34.3760 H   0  0  0  0  0  0  0  0  0  0  0  0
   38.6610   21.8090   34.1210 C   0  0  0  0  0  0  0  0  0  0  0  0
   39.0890   20.7870   33.9920 H   0  0  0  0  0  0  0  0  0  0  0  0
   39.1710   22.4810   33.4030 H   0  0  0  0  0  0  0  0  0  0  0  0
   38.8990   22.2980   35.5000 C   0  0  0  0  0  0  0  0  0  0  0  0
   37.9340   23.1150   36.0530 C   0  0  0  0  0  0  0  0  0  0  0  0
   38.0380   23.6350   37.3260 C   0  0  0  0  0  0  0  0  0  0  0  0
   39.1260   23.3260   38.0470 N   0  0  0  0  0  0  0  0  0  0  0  0
   40.0730   22.5290   37.5140 C   0  0  0  0  0  0  0  0  0  0  0  0
   39.9720   22.0220   36.2730 N   0  0  0  0  0  0  0  0  0  0  0  0
   37.0480   23.3760   35.4880 H   0  0  0  0  0  0  0  0  0  0  0  0
   37.2460   24.2760   37.7170 H   0  0  0  0  0  0  0  0  0  0  0  0
   40.9310   22.3100   38.1340 H   0  0  0  0  0  0  0  0  0  0  0  0
   36.9860   22.0170   32.4080 O   0  0  0  0  0  0  0  0  0  0  0  0
   35.2770   24.9160   31.0740 C   0  0  0  0  0  0  0  0  0  0  0  0
   36.1000   25.9380   31.5720 C   0  0  0  0  0  0  0  0  0  0  0  0
   37.1990   25.5560   32.3410 C   0  0  0  0  0  0  0  0  0  0  0  0
   37.3940   24.2090   32.5550 N   0  0  0  0  0  0  0  0  0  0  0  0
   36.5820   23.2700   32.0600 C   0  0  0  0  0  0  0  0  0  0  0  0
   35.5250   23.6420   31.3180 N   0  0  0  0  0  0  0  0  0  0  0  0
   34.4220   25.1480   30.4790 H   0  0  0  0  0  0  0  0  0  0  0  0
   35.8190   26.9510   31.3190 H   0  0  0  0  0  0  0  0  0  0  0  0
   38.0630   26.6170   32.8660 C   0  0  0  0  0  3  0  0  0  0  0  0
   37.2920   27.5130   33.8010 C   0  0  0  0  0  2  0  0  0  0  0  0
   37.4890   27.2480   35.2510 C   0  0  0  0  0  2  0  0  0  0  0  0
   38.8930   26.9290   35.6660 C   0  0  0  0  0  2  0  0  0  0  0  0
   39.7940   27.1440   34.4670 C   0  0  0  0  0  2  0  0  0  0  0  0
   39.3400   26.1130   33.4350 C   0  0  0  0  0  2  0  0  0  0  0  0
  1  2  1  0  0  0  0
  1  4  1  0  0  0  0
  1  3  1  0  0  0  0
  4  7  1  0  0  0  0
  5  4  1  0  0  0  0
  6  4  1  0  0  0  0
  7  8  2  0  0  0  0
  7 12  1  0  0  0  0
  8  9  1  0  0  0  0
  9 14  1  0  0  0  0
  9 10  2  0  0  0  0
 11 10  1  0  0  0  0
 11 15  1  0  0  0  0
 12 11  2  0  0  0  0
 13  8  1  0  0  0  0
 16  1  1  0  0  0  0
 17 22  2  0  0  0  0
 17 18  1  0  0  0  0
 18 19  2  0  0  0  0
 19 20  1  0  0  0  0
 19 25  1  0  0  0  0
 21 16  1  0  0  0  0
 21 20  2  0  0  0  0
 22 21  1  0  0  0  0
 23 17  1  0  0  0  0
 24 18  1  0  0  0  0
 25 30  1  0  0  0  0
 25 26  1  0  0  0  0
 26 27  1  0  0  0  0
 27 28  1  0  0  0  0
 29 28  1  0  0  0  0
 30 29  1  0  0  0  0
M  END
>  <minimizedAffinity>
-5.30542564

$$$$

 OpenBabel03272509513D

 30 32  0  0  0  0  0  0  0  0999 V2000
   37.7490   27.5810   35.4980 C   0  0  0  0  0  0  0  0  0  0  0  0
   37.2160   27.6430   36.4700 H   0  0  0  0  0  0  0  0  0  0  0  0
   38.1530   28.6040   35.2780 H   0  0  0  0  0  0  0  0  0  0  0  0
   38.9200   26.6500   35.5330 C   0  0  0  0  0  0  0  0  0  0  0  0
   39.4990   26.8230   34.5950 H   0  0  0  0  0  0  0  0  0  0  0  0
   39.5770   26.9100   36.3870 H   0  0  0  0  0  0  0  0  0  0  0  0
   38.5210   25.2260   35.6390 C   0  0  0  0  0  0  0  0  0  0  0  0
   38.0520   24.7940   36.8630 C   0  0  0  0  0  0  0  0  0  0  0  0
   37.6500   23.4950   37.0900 C   0  0  0  0  0  0  0  0  0  0  0  0
   37.7230   22.6250   36.0730 N   0  0  0  0  0  0  0  0  0  0  0  0
   38.1800   23.0390   34.8750 C   0  0  0  0  0  0  0  0  0  0  0  0
   38.5710   24.3060   34.6520 N   0  0  0  0  0  0  0  0  0  0  0  0
   37.9860   25.4810   37.6980 H   0  0  0  0  0  0  0  0  0  0  0  0
   37.2870   23.2040   38.0770 H   0  0  0  0  0  0  0  0  0  0  0  0
   38.2200   22.3000   34.0860 H   0  0  0  0  0  0  0  0  0  0  0  0
   36.8640   27.2480   34.4360 O   0  0  0  0  0  0  0  0  0  0  0  0
   35.4500   29.3460   31.8470 C   0  0  0  0  0  0  0  0  0  0  0  0
   35.1330   30.4870   32.5990 C   0  0  0  0  0  0  0  0  0  0  0  0
   35.4300   30.4570   33.9620 C   0  0  0  0  0  0  0  0  0  0  0  0
   36.0100   29.3130   34.4660 N   0  0  0  0  0  0  0  0  0  0  0  0
   36.2950   28.2490   33.7090 C   0  0  0  0  0  0  0  0  0  0  0  0
   36.0080   28.2820   32.3970 N   0  0  0  0  0  0  0  0  0  0  0  0
   35.2460   29.3110   30.8000 H   0  0  0  0  0  0  0  0  0  0  0  0
   34.6800   31.3090   32.0630 H   0  0  0  0  0  0  0  0  0  0  0  0
   35.1010   31.6440   34.7560 C   0  0  0  0  0  3  0  0  0  0  0  0
   33.6180   31.9110   34.7170 C   0  0  0  0  0  2  0  0  0  0  0  0
   32.8530   31.4520   35.9060 C   0  0  0  0  0  2  0  0  0  0  0  0
   33.5190   31.6720   37.2300 C   0  0  0  0  0  2  0  0  0  0  0  0
   34.7690   32.4950   36.9930 C   0  0  0  0  0  2  0  0  0  0  0  0
   35.6700   31.6140   36.1280 C   0  0  0  0  0  2  0  0  0  0  0  0
  1  4  1  0  0  0  0
  1  2  1  0  0  0  0
  3  1  1  0  0  0  0
  4  7  1  0  0  0  0
  4  6  1  0  0  0  0
  5  4  1  0  0  0  0
  7  8  1  0  0  0  0
  8  9  2  0  0  0  0
  8 13  1  0  0  0  0
  9 14  1  0  0  0  0
 10  9  1  0  0  0  0
 11 10  2  0  0  0  0
 12 11  1  0  0  0  0
 12  7  2  0  0  0  0
 15 11  1  0  0  0  0
 16  1  1  0  0  0  0
 17 22  2  0  0  0  0
 17 18  1  0  0  0  0
 18 19  2  0  0  0  0
 19 20  1  0  0  0  0
 19 25  1  0  0  0  0
 21 16  1  0  0  0  0
 21 20  2  0  0  0  0
 22 21  1  0  0  0  0
 23 17  1  0  0  0  0
 24 18  1  0  0  0  0
 25 30  1  0  0  0  0
 26 25  1  0  0  0  0
 26 27  1  0  0  0  0
 27 28  1  0  0  0  0
 29 28  1  0  0  0  0
 30 29  1  0  0  0  0
M  END
>  <minimizedAffinity>
-5.26324081

$$$$

 OpenBabel03272509513D

 30 32  0  0  0  0  0  0  0  0999 V2000
   37.0170   23.1360   31.0150 C   0  0  0  0  0  0  0  0  0  0  0  0
   37.4260   23.1180   29.9830 H   0  0  0  0  0  0  0  0  0  0  0  0
   37.8000   23.5990   31.6710 H   0  0  0  0  0  0  0  0  0  0  0  0
   35.7900   23.9810   31.1400 C   0  0  0  0  0  0  0  0  0  0  0  0
   35.3140   24.0140   30.1310 H   0  0  0  0  0  0  0  0  0  0  0  0
   35.0730   23.4980   31.8340 H   0  0  0  0  0  0  0  0  0  0  0  0
   36.0810   25.3540   31.6180 C   0  0  0  0  0  0  0  0  0  0  0  0
   36.9370   25.4770   32.6930 C   0  0  0  0  0  0  0  0  0  0  0  0
   37.2870   26.6970   33.2320 C   0  0  0  0  0  0  0  0  0  0  0  0
   36.7690   27.8030   32.6790 N   0  0  0  0  0  0  0  0  0  0  0  0
   35.9320   27.6910   31.6290 C   0  0  0  0  0  0  0  0  0  0  0  0
   35.5900   26.5010   31.1030 N   0  0  0  0  0  0  0  0  0  0  0  0
   37.3670   24.5960   33.1550 H   0  0  0  0  0  0  0  0  0  0  0  0
   37.9690   26.7400   34.0830 H   0  0  0  0  0  0  0  0  0  0  0  0
   35.5390   28.6110   31.2180 H   0  0  0  0  0  0  0  0  0  0  0  0
   36.7860   21.8230   31.5090 O   0  0  0  0  0  0  0  0  0  0  0  0
   35.8240   20.8310   34.8550 C   0  0  0  0  0  0  0  0  0  0  0  0
   36.8190   21.4810   35.6010 C   0  0  0  0  0  0  0  0  0  0  0  0
   37.7640   22.2250   34.8940 C   0  0  0  0  0  0  0  0  0  0  0  0
   37.6510   22.2660   33.5220 N   0  0  0  0  0  0  0  0  0  0  0  0
   36.6840   21.6290   32.8540 C   0  0  0  0  0  0  0  0  0  0  0  0
   35.7760   20.9150   33.5370 N   0  0  0  0  0  0  0  0  0  0  0  0
   35.0740   20.2480   35.3410 H   0  0  0  0  0  0  0  0  0  0  0  0
   36.7770   21.3570   36.6740 H   0  0  0  0  0  0  0  0  0  0  0  0
   38.8070   22.9070   35.6650 C   0  0  0  0  0  3  0  0  0  0  0  0
   38.2810   24.1970   36.2400 C   0  0  0  0  0  2  0  0  0  0  0  0
   37.8810   24.1450   37.6710 C   0  0  0  0  0  2  0  0  0  0  0  0
   38.7840   23.3540   38.5680 C   0  0  0  0  0  2  0  0  0  0  0  0
   40.0030   22.9510   37.7640 C   0  0  0  0  0  2  0  0  0  0  0  0
   39.4720   22.0320   36.6650 C   0  0  0  0  0  2  0  0  0  0  0  0
  1  4  1  0  0  0  0
  1 16  1  0  0  0  0
  1  3  1  0  0  0  0
  2  1  1  0  0  0  0
  4  7  1  0  0  0  0
  4  6  1  0  0  0  0
  5  4  1  0  0  0  0
  7  8  1  0  0  0  0
  8 13  1  0  0  0  0
  8  9  2  0  0  0  0
  9 14  1  0  0  0  0
 10  9  1  0  0  0  0
 11 10  2  0  0  0  0
 12  7  2  0  0  0  0
 12 11  1  0  0  0  0
 15 11  1  0  0  0  0
 16 21  1  0  0  0  0
 17 23  1  0  0  0  0
 17 18  1  0  0  0  0
 18 24  1  0  0  0  0
 19 18  2  0  0  0  0
 19 25  1  0  0  0  0
 20 19  1  0  0  0  0
 21 20  2  0  0  0  0
 21 22  1  0  0  0  0
 22 17  2  0  0  0  0
 25 26  1  0  0  0  0
 25 30  1  0  0  0  0
 26 27  1  0  0  0  0
 27 28  1  0  0  0  0
 29 28  1  0  0  0  0
 30 29  1  0  0  0  0
M  END
>  <minimizedAffinity>
-5.15276194

$$$$

 OpenBabel03272509513D

 30 32  0  0  0  0  0  0  0  0999 V2000
   36.2330   24.5810   31.7710 C   0  0  0  0  0  0  0  0  0  0  0  0
   35.3720   25.1530   31.3660 H   0  0  0  0  0  0  0  0  0  0  0  0
   35.9830   24.3150   32.8320 H   0  0  0  0  0  0  0  0  0  0  0  0
   36.4700   23.2940   31.0450 C   0  0  0  0  0  0  0  0  0  0  0  0
   35.8490   23.3260   30.1190 H   0  0  0  0  0  0  0  0  0  0  0  0
   37.5330   23.2310   30.7360 H   0  0  0  0  0  0  0  0  0  0  0  0
   36.1270   22.1030   31.8570 C   0  0  0  0  0  0  0  0  0  0  0  0
   35.3730   21.1220   31.2460 C   0  0  0  0  0  0  0  0  0  0  0  0
   34.9880   19.9660   31.8930 C   0  0  0  0  0  0  0  0  0  0  0  0
   35.3690   19.8000   33.1670 N   0  0  0  0  0  0  0  0  0  0  0  0
   36.1060   20.7530   33.7710 C   0  0  0  0  0  0  0  0  0  0  0  0
   36.4820   21.8800   33.1410 N   0  0  0  0  0  0  0  0  0  0  0  0
   35.0550   21.2370   30.2180 H   0  0  0  0  0  0  0  0  0  0  0  0
   34.3910   19.2210   31.3640 H   0  0  0  0  0  0  0  0  0  0  0  0
   36.3880   20.5730   34.7990 H   0  0  0  0  0  0  0  0  0  0  0  0
   37.4140   25.3700   31.8100 O   0  0  0  0  0  0  0  0  0  0  0  0
   38.9760   27.1200   34.5670 C   0  0  0  0  0  0  0  0  0  0  0  0
   38.7660   26.1920   35.5990 C   0  0  0  0  0  0  0  0  0  0  0  0
   38.0940   25.0150   35.2730 C   0  0  0  0  0  0  0  0  0  0  0  0
   37.6870   24.8500   33.9660 N   0  0  0  0  0  0  0  0  0  0  0  0
   37.9100   25.7640   33.0160 C   0  0  0  0  0  0  0  0  0  0  0  0
   38.5580   26.8960   33.3350 N   0  0  0  0  0  0  0  0  0  0  0  0
   39.4840   28.0390   34.7580 H   0  0  0  0  0  0  0  0  0  0  0  0
   39.1440   26.4620   36.5760 H   0  0  0  0  0  0  0  0  0  0  0  0
   37.8690   24.0400   36.3440 C   0  0  0  0  0  3  0  0  0  0  0  0
   38.5270   22.7260   36.0090 C   0  0  0  0  0  2  0  0  0  0  0  0
   39.8380   22.4790   36.6650 C   0  0  0  0  0  2  0  0  0  0  0  0
   39.9360   22.9080   38.0970 C   0  0  0  0  0  2  0  0  0  0  0  0
   38.5560   23.3370   38.5520 C   0  0  0  0  0  2  0  0  0  0  0  0
   38.2130   24.5550   37.6950 C   0  0  0  0  0  2  0  0  0  0  0  0
  1 16  1  0  0  0  0
  1  3  1  0  0  0  0
  2  1  1  0  0  0  0
  4  1  1  0  0  0  0
  4  7  1  0  0  0  0
  5  4  1  0  0  0  0
  6  4  1  0  0  0  0
  7 12  1  0  0  0  0
  8  7  2  0  0  0  0
  8  9  1  0  0  0  0
  9 10  2  0  0  0  0
 10 11  1  0  0  0  0
 11 15  1  0  0  0  0
 12 11  2  0  0  0  0
 13  8  1  0  0  0  0
 14  9  1  0  0  0  0
 16 21  1  0  0  0  0
 17 23  1  0  0  0  0
 17 18  1  0  0  0  0
 18 24  1  0  0  0  0
 19 18  2  0  0  0  0
 19 25  1  0  0  0  0
 20 19  1  0  0  0  0
 21 22  1  0  0  0  0
 21 20  2  0  0  0  0
 22 17  2  0  0  0  0
 25 30  1  0  0  0  0
 26 25  1  0  0  0  0
 26 27  1  0  0  0  0
 27 28  1  0  0  0  0
 28 29  1  0  0  0  0
 30 29  1  0  0  0  0
M  END
>  <minimizedAffinity>
-5.13721275

$$$$

 OpenBabel03272509513D

 30 32  0  0  0  0  0  0  0  0999 V2000
   35.8980   24.1230   31.4850 C   0  0  0  0  0  0  0  0  0  0  0  0
   34.8910   24.0160   31.0300 H   0  0  0  0  0  0  0  0  0  0  0  0
   35.7750   23.9830   32.5920 H   0  0  0  0  0  0  0  0  0  0  0  0
   36.8620   23.0780   31.0200 C   0  0  0  0  0  0  0  0  0  0  0  0
   37.0630   23.2810   29.9420 H   0  0  0  0  0  0  0  0  0  0  0  0
   37.8200   23.1840   31.5670 H   0  0  0  0  0  0  0  0  0  0  0  0
   36.3480   21.6990   31.1990 C   0  0  0  0  0  0  0  0  0  0  0  0
   35.2650   21.5350   32.0380 C   0  0  0  0  0  0  0  0  0  0  0  0
   34.6950   20.3050   32.2880 C   0  0  0  0  0  0  0  0  0  0  0  0
   35.2230   19.2310   31.6840 N   0  0  0  0  0  0  0  0  0  0  0  0
   36.2810   19.3820   30.8630 C   0  0  0  0  0  0  0  0  0  0  0  0
   36.8370   20.5820   30.6190 N   0  0  0  0  0  0  0  0  0  0  0  0
   34.8240   22.3900   32.5360 H   0  0  0  0  0  0  0  0  0  0  0  0
   33.8390   20.2300   32.9600 H   0  0  0  0  0  0  0  0  0  0  0  0
   36.6710   18.4860   30.4000 H   0  0  0  0  0  0  0  0  0  0  0  0
   36.4260   25.4280   31.2890 O   0  0  0  0  0  0  0  0  0  0  0  0
   36.5430   28.0670   33.7640 C   0  0  0  0  0  0  0  0  0  0  0  0
   37.4170   27.4910   34.6980 C   0  0  0  0  0  0  0  0  0  0  0  0
   37.9120   26.2190   34.4110 C   0  0  0  0  0  0  0  0  0  0  0  0
   37.5080   25.6250   33.2350 N   0  0  0  0  0  0  0  0  0  0  0  0
   36.6720   26.2140   32.3740 C   0  0  0  0  0  0  0  0  0  0  0  0
   36.1980   27.4390   32.6550 N   0  0  0  0  0  0  0  0  0  0  0  0
   36.1330   29.0380   33.9310 H   0  0  0  0  0  0  0  0  0  0  0  0
   37.6430   28.0800   35.5770 H   0  0  0  0  0  0  0  0  0  0  0  0
   38.8260   25.6090   35.3810 C   0  0  0  0  0  3  0  0  0  0  0  0
   38.1540   25.4680   36.7230 C   0  0  0  0  0  2  0  0  0  0  0  0
   37.6270   24.1130   37.0360 C   0  0  0  0  0  2  0  0  0  0  0  0
   38.4990   22.9670   36.6220 C   0  0  0  0  0  2  0  0  0  0  0  0
   39.8150   23.5360   36.1310 C   0  0  0  0  0  2  0  0  0  0  0  0
   39.4580   24.3560   34.8920 C   0  0  0  0  0  2  0  0  0  0  0  0
  1  3  1  0  0  0  0
  2  1  1  0  0  0  0
  4  7  1  0  0  0  0
  4  1  1  0  0  0  0
  4  6  1  0  0  0  0
  5  4  1  0  0  0  0
  7  8  1  0  0  0  0
  8  9  2  0  0  0  0
  8 13  1  0  0  0  0
  9 14  1  0  0  0  0
 10  9  1  0  0  0  0
 11 10  2  0  0  0  0
 12 11  1  0  0  0  0
 12  7  2  0  0  0  0
 15 11  1  0  0  0  0
 16  1  1  0  0  0  0
 16 21  1  0  0  0  0
 17 23  1  0  0  0  0
 17 18  1  0  0  0  0
 18 24  1  0  0  0  0
 19 18  2  0  0  0  0
 19 25  1  0  0  0  0
 20 19  1  0  0  0  0
 21 22  1  0  0  0  0
 21 20  2  0  0  0  0
 22 17  2  0  0  0  0
 25 26  1  0  0  0  0
 26 27  1  0  0  0  0
 28 27  1  0  0  0  0
 29 28  1  0  0  0  0
 30 25  1  0  0  0  0
 30 29  1  0  0  0  0
M  END
>  <minimizedAffinity>
-5.02479744

$$$$

 OpenBabel03272509513D

 30 32  0  0  0  0  0  0  0  0999 V2000
   37.7710   25.6470   34.2780 C   0  0  0  0  0  0  0  0  0  0  0  0
   36.9490   25.1850   33.6920 H   0  0  0  0  0  0  0  0  0  0  0  0
   38.6860   25.0210   34.1110 H   0  0  0  0  0  0  0  0  0  0  0  0
   38.1020   27.0330   33.8240 C   0  0  0  0  0  0  0  0  0  0  0  0
   38.7470   27.4870   34.6130 H   0  0  0  0  0  0  0  0  0  0  0  0
   38.6970   26.9860   32.8900 H   0  0  0  0  0  0  0  0  0  0  0  0
   36.8990   27.8680   33.5950 C   0  0  0  0  0  0  0  0  0  0  0  0
   36.4160   27.9350   32.3040 C   0  0  0  0  0  0  0  0  0  0  0  0
   35.3050   28.6770   31.9620 C   0  0  0  0  0  0  0  0  0  0  0  0
   34.6780   29.3570   32.9310 N   0  0  0  0  0  0  0  0  0  0  0  0
   35.1430   29.2970   34.1940 C   0  0  0  0  0  0  0  0  0  0  0  0
   36.2260   28.5730   34.5290 N   0  0  0  0  0  0  0  0  0  0  0  0
   36.9090   27.3930   31.5060 H   0  0  0  0  0  0  0  0  0  0  0  0
   34.9640   28.6960   30.9250 H   0  0  0  0  0  0  0  0  0  0  0  0
   34.6030   29.8630   34.9410 H   0  0  0  0  0  0  0  0  0  0  0  0
   37.4990   25.6180   35.6730 O   0  0  0  0  0  0  0  0  0  0  0  0
   38.5810   23.3880   38.3110 C   0  0  0  0  0  0  0  0  0  0  0  0
   39.7480   22.8660   37.7300 C   0  0  0  0  0  0  0  0  0  0  0  0
   40.0860   23.3220   36.4560 C   0  0  0  0  0  0  0  0  0  0  0  0
   39.2540   24.2470   35.8640 N   0  0  0  0  0  0  0  0  0  0  0  0
   38.1510   24.7160   36.4570 C   0  0  0  0  0  0  0  0  0  0  0  0
   37.8290   24.2750   37.6840 N   0  0  0  0  0  0  0  0  0  0  0  0
   38.2730   23.0760   39.2830 H   0  0  0  0  0  0  0  0  0  0  0  0
   40.3000   22.1460   38.3180 H   0  0  0  0  0  0  0  0  0  0  0  0
   41.3020   22.7820   35.8410 C   0  0  0  0  0  3  0  0  0  0  0  0
   42.0120   23.8500   35.0480 C   0  0  0  0  0  2  0  0  0  0  0  0
   43.1720   24.4860   35.7250 C   0  0  0  0  0  2  0  0  0  0  0  0
   44.0550   23.5610   36.5050 C   0  0  0  0  0  2  0  0  0  0  0  0
   43.5980   22.1420   36.2340 C   0  0  0  0  0  2  0  0  0  0  0  0
   42.1800   22.0620   36.7990 C   0  0  0  0  0  2  0  0  0  0  0  0
  1 16  1  0  0  0  0
  2  1  1  0  0  0  0
  3  1  1  0  0  0  0
  4  1  1  0  0  0  0
  4  5  1  0  0  0  0
  6  4  1  0  0  0  0
  7  4  1  0  0  0  0
  7 12  1  0  0  0  0
  8  7  2  0  0  0  0
  9  8  1  0  0  0  0
  9 10  2  0  0  0  0
 10 11  1  0  0  0  0
 11 12  2  0  0  0  0
 11 15  1  0  0  0  0
 13  8  1  0  0  0  0
 14  9  1  0  0  0  0
 16 21  1  0  0  0  0
 17 23  1  0  0  0  0
 18 17  1  0  0  0  0
 18 24  1  0  0  0  0
 19 18  2  0  0  0  0
 20 19  1  0  0  0  0
 20 21  2  0  0  0  0
 21 22  1  0  0  0  0
 22 17  2  0  0  0  0
 25 19  1  0  0  0  0
 25 30  1  0  0  0  0
 26 27  1  0  0  0  0
 26 25  1  0  0  0  0
 27 28  1  0  0  0  0
 29 28  1  0  0  0  0
 29 30  1  0  0  0  0
M  END
>  <minimizedAffinity>
-4.98326015

$$$$

 OpenBabel03272509513D

 30 32  0  0  0  0  0  0  0  0999 V2000
   36.6820   27.9410   34.3780 C   0  0  0  0  0  0  0  0  0  0  0  0
   37.0370   28.2040   35.3960 H   0  0  0  0  0  0  0  0  0  0  0  0
   35.9740   27.0780   34.4890 H   0  0  0  0  0  0  0  0  0  0  0  0
   35.9170   29.0480   33.7240 C   0  0  0  0  0  0  0  0  0  0  0  0
   36.6280   29.5760   33.0450 H   0  0  0  0  0  0  0  0  0  0  0  0
   35.1070   28.6240   33.0990 H   0  0  0  0  0  0  0  0  0  0  0  0
   35.3330   30.0000   34.6990 C   0  0  0  0  0  0  0  0  0  0  0  0
   33.9600   29.9920   34.8390 C   0  0  0  0  0  0  0  0  0  0  0  0
   33.2950   30.8280   35.7120 C   0  0  0  0  0  0  0  0  0  0  0  0
   34.0240   31.6780   36.4490 N   0  0  0  0  0  0  0  0  0  0  0  0
   35.3650   31.6910   36.3180 C   0  0  0  0  0  0  0  0  0  0  0  0
   36.0140   30.8760   35.4680 N   0  0  0  0  0  0  0  0  0  0  0  0
   33.3530   29.3140   34.2530 H   0  0  0  0  0  0  0  0  0  0  0  0
   32.2080   30.7830   35.7850 H   0  0  0  0  0  0  0  0  0  0  0  0
   35.9080   32.3940   36.9350 H   0  0  0  0  0  0  0  0  0  0  0  0
   37.7480   27.4980   33.5490 O   0  0  0  0  0  0  0  0  0  0  0  0
   38.4340   24.1550   32.3420 C   0  0  0  0  0  0  0  0  0  0  0  0
   38.3520   23.4370   33.5450 C   0  0  0  0  0  0  0  0  0  0  0  0
   38.0630   24.1590   34.7020 C   0  0  0  0  0  0  0  0  0  0  0  0
   37.8810   25.5200   34.5800 N   0  0  0  0  0  0  0  0  0  0  0  0
   37.9690   26.1610   33.4100 C   0  0  0  0  0  0  0  0  0  0  0  0
   38.2470   25.4620   32.2980 N   0  0  0  0  0  0  0  0  0  0  0  0
   38.6520   23.6560   31.4250 H   0  0  0  0  0  0  0  0  0  0  0  0
   38.5190   22.3700   33.4830 H   0  0  0  0  0  0  0  0  0  0  0  0
   37.9760   23.4180   35.9630 C   0  0  0  0  0  3  0  0  0  0  0  0
   38.7420   22.1230   35.8690 C   0  0  0  0  0  2  0  0  0  0  0  0
   40.0960   22.1340   36.4840 C   0  0  0  0  0  2  0  0  0  0  0  0
   40.2090   22.8620   37.7880 C   0  0  0  0  0  2  0  0  0  0  0  0
   38.8130   23.2590   38.2240 C   0  0  0  0  0  2  0  0  0  0  0  0
   38.3210   24.2340   37.1550 C   0  0  0  0  0  2  0  0  0  0  0  0
  1  3  1  0  0  0  0
  1  2  1  0  0  0  0
  4  1  1  0  0  0  0
  4  7  1  0  0  0  0
  5  4  1  0  0  0  0
  6  4  1  0  0  0  0
  7  8  2  0  0  0  0
  7 12  1  0  0  0  0
  8  9  1  0  0  0  0
  9 14  1  0  0  0  0
  9 10  2  0  0  0  0
 11 10  1  0  0  0  0
 11 15  1  0  0  0  0
 12 11  2  0  0  0  0
 13  8  1  0  0  0  0
 16  1  1  0  0  0  0
 17 18  1  0  0  0  0
 18 19  2  0  0  0  0
 19 25  1  0  0  0  0
 20 19  1  0  0  0  0
 21 16  1  0  0  0  0
 21 20  2  0  0  0  0
 22 17  2  0  0  0  0
 22 21  1  0  0  0  0
 23 17  1  0  0  0  0
 24 18  1  0  0  0  0
 25 30  1  0  0  0  0
 26 25  1  0  0  0  0
 26 27  1  0  0  0  0
 27 28  1  0  0  0  0
 28 29  1  0  0  0  0
 30 29  1  0  0  0  0
M  END
>  <minimizedAffinity>
-4.92773056

$$$$

 OpenBabel03272509513D

 30 32  0  0  0  0  0  0  0  0999 V2000
   41.8260   26.2000   33.0800 C   0  0  0  0  0  0  0  0  0  0  0  0
   41.3290   25.2080   33.0960 H   0  0  0  0  0  0  0  0  0  0  0  0
   42.3270   26.3010   32.0810 H   0  0  0  0  0  0  0  0  0  0  0  0
   40.8630   27.3380   33.2000 C   0  0  0  0  0  0  0  0  0  0  0  0
   41.3640   28.1230   33.8140 H   0  0  0  0  0  0  0  0  0  0  0  0
   40.6670   27.7680   32.1970 H   0  0  0  0  0  0  0  0  0  0  0  0
   39.5760   26.9410   33.8190 C   0  0  0  0  0  0  0  0  0  0  0  0
   39.4490   27.1280   35.1800 C   0  0  0  0  0  0  0  0  0  0  0  0
   38.3040   26.8000   35.8750 C   0  0  0  0  0  0  0  0  0  0  0  0
   37.2780   26.2780   35.1880 N   0  0  0  0  0  0  0  0  0  0  0  0
   37.3940   26.0910   33.8580 C   0  0  0  0  0  0  0  0  0  0  0  0
   38.5100   26.4120   33.1810 N   0  0  0  0  0  0  0  0  0  0  0  0
   40.2660   27.5480   35.7540 H   0  0  0  0  0  0  0  0  0  0  0  0
   38.2540   26.9680   36.9510 H   0  0  0  0  0  0  0  0  0  0  0  0
   36.5390   25.6670   33.3490 H   0  0  0  0  0  0  0  0  0  0  0  0
   42.8470   26.2900   34.0650 O   0  0  0  0  0  0  0  0  0  0  0  0
   44.1060   23.8740   36.4490 C   0  0  0  0  0  0  0  0  0  0  0  0
   42.9620   23.0800   36.6230 C   0  0  0  0  0  0  0  0  0  0  0  0
   41.8230   23.4330   35.9000 C   0  0  0  0  0  0  0  0  0  0  0  0
   41.9040   24.5320   35.0730 N   0  0  0  0  0  0  0  0  0  0  0  0
   43.0180   25.2600   34.9390 C   0  0  0  0  0  0  0  0  0  0  0  0
   44.1130   24.9160   35.6360 N   0  0  0  0  0  0  0  0  0  0  0  0
   45.0070   23.6520   36.9750 H   0  0  0  0  0  0  0  0  0  0  0  0
   43.0520   22.2480   37.3080 H   0  0  0  0  0  0  0  0  0  0  0  0
   40.6230   22.6100   36.0760 C   0  0  0  0  0  3  0  0  0  0  0  0
   40.3860   22.3280   37.5380 C   0  0  0  0  0  2  0  0  0  0  0  0
   39.3570   23.1770   38.1950 C   0  0  0  0  0  2  0  0  0  0  0  0
   38.1330   23.4590   37.3800 C   0  0  0  0  0  2  0  0  0  0  0  0
   38.2080   22.6210   36.1200 C   0  0  0  0  0  2  0  0  0  0  0  0
   39.4310   23.1410   35.3660 C   0  0  0  0  0  2  0  0  0  0  0  0
  1  2  1  0  0  0  0
  1  4  1  0  0  0  0
  1 16  1  0  0  0  0
  3  1  1  0  0  0  0
  4  5  1  0  0  0  0
  4  7  1  0  0  0  0
  6  4  1  0  0  0  0
  7  8  1  0  0  0  0
  8 13  1  0  0  0  0
  8  9  2  0  0  0  0
  9 14  1  0  0  0  0
 10  9  1  0  0  0  0
 11 10  2  0  0  0  0
 12  7  2  0  0  0  0
 12 11  1  0  0  0  0
 15 11  1  0  0  0  0
 16 21  1  0  0  0  0
 17 18  1  0  0  0  0
 17 23  1  0  0  0  0
 18 24  1  0  0  0  0
 19 25  1  0  0  0  0
 19 18  2  0  0  0  0
 20 19  1  0  0  0  0
 21 20  2  0  0  0  0
 21 22  1  0  0  0  0
 22 17  2  0  0  0  0
 25 26  1  0  0  0  0
 26 27  1  0  0  0  0
 28 27  1  0  0  0  0
 29 28  1  0  0  0  0
 30 25  1  0  0  0  0
 30 29  1  0  0  0  0
M  END
>  <minimizedAffinity>
-4.88856125

$$$$
