
 OpenBabel03272510273D

 42 46  0  0  1  0  0  0  0  0999 V2000
   36.2170   30.1920   47.0270 C   0  0  0  0  0  0  0  0  0  0  0  0
   37.0510   30.7610   47.9860 C   0  0  0  0  0  0  0  0  0  0  0  0
   38.0400   31.6820   47.6360 C   0  0  0  0  0  0  0  0  0  0  0  0
   38.1360   31.9890   46.2850 C   0  0  0  0  0  0  0  0  0  0  0  0
   39.0200   32.8540   45.6990 N   0  0  0  0  0  0  0  0  0  0  0  0
   38.7460   32.8280   44.3830 C   0  0  0  0  0  0  0  0  0  0  0  0
   37.7530   32.0040   44.1320 N   0  0  0  0  0  0  0  0  0  0  0  0
   37.3330   31.4500   45.3010 C   0  0  0  0  0  0  0  0  0  0  0  0
   36.3510   30.5300   45.6860 C   0  0  0  0  0  0  0  0  0  0  0  0
   35.4600   29.4880   47.2910 H   0  0  0  0  0  0  0  0  0  0  0  0
   38.6700   32.1090   48.3870 H   0  0  0  0  0  0  0  0  0  0  0  0
   39.7520   33.4110   46.1920 H   0  0  0  0  0  0  0  0  0  0  0  0
   35.7320   30.1170   44.9120 H   0  0  0  0  0  0  0  0  0  0  0  0
   37.4300   30.0880   51.6490 C   0  0  0  0  0  0  0  0  0  0  0  0
   37.7570   30.5580   50.3950 C   0  0  0  0  0  0  0  0  0  0  0  0
   36.8490   30.3370   49.3640 C   0  0  0  0  0  0  0  0  0  0  0  0
   35.7000   29.6740   49.6650 N   0  0  0  0  0  0  0  0  0  0  0  0
   35.3980   29.2220   50.8960 C   0  0  0  0  0  0  0  0  0  0  0  0
   36.2700   29.4360   51.8750 N   0  0  0  0  0  0  0  0  0  0  0  0
   38.1600   30.2760   52.4340 H   0  0  0  0  0  0  0  0  0  0  0  0
   38.6620   31.0800   50.1640 H   0  0  0  0  0  0  0  0  0  0  0  0
   34.4760   28.7030   51.0790 H   0  0  0  0  0  0  0  0  0  0  0  0
   39.4720   33.6100   43.4700 O   0  0  0  0  0  0  0  0  0  0  0  0
   39.8620   31.7930   42.1430 N   0  0  0  0  0  0  0  0  0  0  0  0
   39.4080   33.2000   42.1090 C   0  0  1  0  0  0  0  0  0  0  0  0
   38.0480   33.2360   41.5860 C   0  0  0  0  0  0  0  0  0  0  0  0
   38.0710   32.8000   40.2480 O   0  0  0  0  0  0  0  0  0  0  0  0
   38.6250   31.5700   40.0460 C   0  0  0  0  0  0  0  0  0  0  0  0
   39.9400   31.3850   40.7580 C   0  0  2  0  0  0  0  0  0  0  0  0
   40.8360   31.8500   42.5250 H   0  0  0  0  0  0  0  0  0  0  0  0
   40.0690   33.8000   41.4640 H   0  0  0  0  0  0  0  0  0  0  0  0
   37.2140   32.7450   42.0030 H   0  0  0  0  0  0  0  0  0  0  0  0
   37.7610   34.3280   41.4870 H   0  0  0  0  0  0  0  0  0  0  0  0
   38.8090   31.4750   38.9570 H   0  0  0  0  0  0  0  0  0  0  0  0
   37.9320   30.7260   40.3000 H   0  0  0  0  0  0  0  0  0  0  0  0
   40.7290   31.9940   40.2870 H   0  0  0  0  0  0  0  0  0  0  0  0
   40.2930   29.9090   40.7430 C   0  0  0  0  0  3  0  0  0  0  0  0
   39.1060   29.0420   40.4240 C   0  0  0  0  0  2  0  0  0  0  0  0
   39.3320   28.1040   39.2630 C   0  0  0  0  0  2  0  0  0  0  0  0
   40.5600   27.2430   39.4440 C   0  0  0  0  0  2  0  0  0  0  0  0
   41.7080   28.1290   39.8660 C   0  0  0  0  0  2  0  0  0  0  0  0
   41.3550   29.5960   39.7240 C   0  0  0  0  0  2  0  0  0  0  0  0
  1 10  1  0  0  0  0
  1  2  1  0  0  0  0
  2 16  1  0  0  0  0
  3  2  2  0  0  0  0
  3 11  1  0  0  0  0
  4  3  1  0  0  0  0
  5 12  1  0  0  0  0
  5  4  1  0  0  0  0
  6  5  1  0  0  0  0
  7  6  2  0  0  0  0
  7  8  1  0  0  0  0
  8  9  1  0  0  0  0
  8  4  2  0  0  0  0
  9  1  2  0  0  0  0
 13  9  1  0  0  0  0
 14 19  1  0  0  0  0
 14 20  1  0  0  0  0
 15 14  2  0  0  0  0
 16 17  2  0  0  0  0
 16 15  1  0  0  0  0
 17 18  1  0  0  0  0
 18 22  1  0  0  0  0
 18 19  2  0  0  0  0
 21 15  1  0  0  0  0
 23  6  1  0  0  0  0
 24 30  1  0  0  0  0
 25 31  1  6  0  0  0
 25 24  1  0  0  0  0
 25 23  1  0  0  0  0
 26 32  1  0  0  0  0
 26 25  1  0  0  0  0
 27 26  1  0  0  0  0
 28 27  1  0  0  0  0
 28 35  1  0  0  0  0
 28 29  1  0  0  0  0
 29 36  1  6  0  0  0
 29 24  1  0  0  0  0
 33 26  1  0  0  0  0
 34 28  1  0  0  0  0
 37 29  1  0  0  0  0
 38 37  1  0  0  0  0
 39 40  1  0  0  0  0
 39 38  1  0  0  0  0
 40 41  1  0  0  0  0
 42 41  1  0  0  0  0
 42 37  1  0  0  0  0
M  END
>  <minimizedAffinity>
-5.91901875

>  <minimizedRMSD>
0.58412528

$$$$
