
 OpenBabel03272510343D

 25 27  0  0  0  0  0  0  0  0999 V2000
   37.1190   31.3140   48.4420 C   0  0  0  0  0  0  0  0  0  0  0  0
   37.2300   32.1300   49.5570 C   0  0  0  0  0  0  0  0  0  0  0  0
   38.1990   33.1320   49.5840 C   0  0  0  0  0  0  0  0  0  0  0  0
   39.0230   33.2840   48.4990 C   0  0  0  0  0  0  0  0  0  0  0  0
   38.9120   32.4630   47.3740 C   0  0  0  0  0  0  0  0  0  0  0  0
   37.9510   31.4700   47.3490 C   0  0  0  0  0  0  0  0  0  0  0  0
   36.6080   32.0510   50.4360 H   0  0  0  0  0  0  0  0  0  0  0  0
   38.2930   33.7740   50.4520 H   0  0  0  0  0  0  0  0  0  0  0  0
   39.7570   34.0780   48.5740 H   0  0  0  0  0  0  0  0  0  0  0  0
   39.6080   32.6920   46.6110 H   0  0  0  0  0  0  0  0  0  0  0  0
   33.9770   29.5880   47.7790 C   0  0  0  0  0  0  0  0  0  0  0  0
   34.0490   28.4180   48.5300 C   0  0  0  0  0  0  0  0  0  0  0  0
   35.2190   28.2250   49.2840 C   0  0  0  0  0  0  0  0  0  0  0  0
   36.1980   29.1620   49.2480 N   0  0  0  0  0  0  0  0  0  0  0  0
   36.0870   30.2910   48.5000 C   0  0  0  0  0  0  0  0  0  0  0  0
   34.9690   30.4690   47.7830 N   0  0  0  0  0  0  0  0  0  0  0  0
   33.0510   29.6900   47.2130 H   0  0  0  0  0  0  0  0  0  0  0  0
   33.3440   27.6250   48.6280 H   0  0  0  0  0  0  0  0  0  0  0  0
   35.4450   27.3800   49.9210 H   0  0  0  0  0  0  0  0  0  0  0  0
   37.8450   30.6210   46.1470 C   0  0  0  0  0  3  0  0  0  0  0  0
   36.9250   31.1590   45.1060 C   0  0  0  0  0  2  0  0  0  0  0  0
   36.8030   30.0740   44.0290 C   0  0  0  0  0  2  0  0  0  0  0  0
   38.1560   30.0520   43.3480 C   0  0  0  0  0  2  0  0  0  0  0  0
   39.1730   29.5500   44.3090 C   0  0  0  0  0  2  0  0  0  0  0  0
   39.2130   30.2780   45.6270 C   0  0  0  0  0  2  0  0  0  0  0  0
  1 15  1  0  0  0  0
  1  2  1  0  0  0  0
  2  3  2  0  0  0  0
  2  7  1  0  0  0  0
  3  8  1  0  0  0  0
  4  9  1  0  0  0  0
  4  3  1  0  0  0  0
  5  4  2  0  0  0  0
  6  5  1  0  0  0  0
  6  1  2  0  0  0  0
 10  5  1  0  0  0  0
 11 16  2  0  0  0  0
 11 12  1  0  0  0  0
 12 18  1  0  0  0  0
 12 13  2  0  0  0  0
 13 19  1  0  0  0  0
 14 13  1  0  0  0  0
 15 14  2  0  0  0  0
 16 15  1  0  0  0  0
 17 11  1  0  0  0  0
 20  6  1  0  0  0  0
 21 20  1  0  0  0  0
 22 21  1  0  0  0  0
 23 22  1  0  0  0  0
 23 24  1  0  0  0  0
 24 25  1  0  0  0  0
 25 20  1  0  0  0  0
M  END
>  <minimizedAffinity>
-5.93539906

>  <minimizedRMSD>
6.00361156

$$$$
