
 OpenBabel03272506473D

 39 42  0  0  1  0  0  0  0  0999 V2000
   32.3260   28.4140   47.4780 C   0  0  2  0  0  0  0  0  0  0  0  0
   33.5460   28.3740   48.3510 C   0  0  1  0  0  0  0  0  0  0  0  0
   34.0190   27.0960   48.3530 O   0  0  0  0  0  0  0  0  0  0  0  0
   33.4000   26.3780   47.3360 C   0  0  0  0  0  0  0  0  0  0  0  0
   32.7640   27.3710   46.4010 C   0  0  1  0  0  0  0  0  0  0  0  0
   31.4030   28.0630   47.9260 H   0  0  0  0  0  0  0  0  0  0  0  0
   33.2850   28.7660   49.3560 H   0  0  0  0  0  0  0  0  0  0  0  0
   32.7500   25.6500   47.7920 H   0  0  0  0  0  0  0  0  0  0  0  0
   34.2130   25.8320   46.7810 H   0  0  0  0  0  0  0  0  0  0  0  0
   33.4650   27.8900   45.7540 H   0  0  0  0  0  0  0  0  0  0  0  0
   32.1960   29.6780   46.8630 O   0  0  0  0  0  0  0  0  0  0  0  0
   32.8790   29.7330   46.1580 H   0  0  0  0  0  0  0  0  0  0  0  0
   34.8180   29.4530   47.5790 S   0  0  0  0  0  0  0  0  0  0  0  0
   37.3250   29.3150   50.6430 C   0  0  0  0  0  0  0  0  0  0  0  0
   37.8100   30.6180   50.7700 C   0  0  0  0  0  0  0  0  0  0  0  0
   37.3450   31.5780   49.8740 C   0  0  0  0  0  0  0  0  0  0  0  0
   36.4430   31.2040   48.9210 N   0  0  0  0  0  0  0  0  0  0  0  0
   36.0000   29.9310   48.8330 C   0  0  0  0  0  0  0  0  0  0  0  0
   36.4330   28.9710   49.6890 N   0  0  0  0  0  0  0  0  0  0  0  0
   37.7120   28.6170   51.3520 H   0  0  0  0  0  0  0  0  0  0  0  0
   38.5310   30.8700   51.5490 H   0  0  0  0  0  0  0  0  0  0  0  0
   37.7040   32.5920   49.9530 H   0  0  0  0  0  0  0  0  0  0  0  0
   31.6710   26.7900   45.8050 O   0  0  0  0  0  0  0  0  0  0  0  0
   30.5510   28.7630   43.9280 Cl  0  0  0  0  0  0  0  0  0  0  0  0
   29.7650   27.9690   45.2710 C   0  0  0  0  0  0  0  0  0  0  0  0
   30.3950   27.0480   46.0760 C   0  0  0  0  0  0  0  0  0  0  0  0
   29.6550   26.4600   47.1040 C   0  0  0  0  0  0  0  0  0  0  0  0
   28.3320   26.7980   47.2980 C   0  0  0  0  0  0  0  0  0  0  0  0
   27.6900   27.7220   46.4940 C   0  0  0  0  0  0  0  0  0  0  0  0
   28.4290   28.3010   45.4790 C   0  0  0  0  0  0  0  0  0  0  0  0
   30.0670   25.7280   47.7770 H   0  0  0  0  0  0  0  0  0  0  0  0
   27.7220   26.3680   48.0800 H   0  0  0  0  0  0  0  0  0  0  0  0
   26.6520   27.9780   46.6580 H   0  0  0  0  0  0  0  0  0  0  0  0
   27.7440   29.2960   44.6110 C   0  0  0  0  0  3  0  0  0  0  0  0
   27.7220   30.6770   45.2000 C   0  0  0  0  0  2  0  0  0  0  0  0
   26.4830   31.4540   44.7530 C   0  0  0  0  0  2  0  0  0  0  0  0
   26.1130   31.1540   43.3260 C   0  0  0  0  0  2  0  0  0  0  0  0
   25.7100   29.6980   43.2420 C   0  0  0  0  0  2  0  0  0  0  0  0
   26.3110   28.8900   44.3610 C   0  0  0  0  0  2  0  0  0  0  0  0
  1  6  1  1  0  0  0
  1  2  1  0  0  0  0
  2  3  1  0  0  0  0
  2  7  1  1  0  0  0
  4  8  1  0  0  0  0
  4  3  1  0  0  0  0
  5 10  1  6  0  0  0
  5  4  1  0  0  0  0
  5  1  1  0  0  0  0
  9  4  1  0  0  0  0
 11  1  1  0  0  0  0
 12 11  1  0  0  0  0
 13  2  1  0  0  0  0
 13 18  1  0  0  0  0
 14 15  1  0  0  0  0
 14 20  1  0  0  0  0
 15 21  1  0  0  0  0
 16 22  1  0  0  0  0
 16 15  2  0  0  0  0
 17 16  1  0  0  0  0
 18 17  2  0  0  0  0
 18 19  1  0  0  0  0
 19 14  2  0  0  0  0
 23 26  1  0  0  0  0
 23  5  1  0  0  0  0
 24 25  1  0  0  0  0
 25 30  2  0  0  0  0
 25 26  1  0  0  0  0
 26 27  2  0  0  0  0
 27 28  1  0  0  0  0
 27 31  1  0  0  0  0
 28 32  1  0  0  0  0
 29 33  1  0  0  0  0
 29 28  2  0  0  0  0
 30 29  1  0  0  0  0
 34 35  1  0  0  0  0
 34 30  1  0  0  0  0
 36 35  1  0  0  0  0
 37 36  1  0  0  0  0
 38 37  1  0  0  0  0
 38 39  1  0  0  0  0
 39 34  1  0  0  0  0
M  END
>  <minimizedAffinity>
-5.18762302

>  <minimizedRMSD>
0.750230074

$$$$
