
 OpenBabel03272508063D

 32 35  0  0  0  0  0  0  0  0999 V2000
   38.8690   30.8940   45.8030 C   0  0  0  0  0  0  0  0  0  0  0  0
   40.0470   31.5640   46.0740 C   0  0  0  0  0  0  0  0  0  0  0  0
   40.9080   31.5150   44.9700 C   0  0  0  0  0  0  0  0  0  0  0  0
   40.2020   30.8090   44.0730 N   0  0  0  0  0  0  0  0  0  0  0  0
   39.0150   30.4440   44.5530 N   0  0  0  0  0  0  0  0  0  0  0  0
   40.3140   32.0760   47.0040 H   0  0  0  0  0  0  0  0  0  0  0  0
   41.8890   31.9150   44.8120 H   0  0  0  0  0  0  0  0  0  0  0  0
   37.7430   30.7340   46.7050 C   0  0  0  0  0  0  0  0  0  0  0  0
   37.9470   30.9360   48.0850 C   0  0  0  0  0  0  0  0  0  0  0  0
   36.8550   30.7810   48.9330 C   0  0  0  0  0  0  0  0  0  0  0  0
   35.6510   30.4420   48.3800 N   0  0  0  0  0  0  0  0  0  0  0  0
   35.4790   30.2540   47.0490 C   0  0  0  0  0  0  0  0  0  0  0  0
   36.5350   30.4030   46.2230 N   0  0  0  0  0  0  0  0  0  0  0  0
   38.9110   31.2030   48.4930 H   0  0  0  0  0  0  0  0  0  0  0  0
   34.5010   29.9880   46.6800 H   0  0  0  0  0  0  0  0  0  0  0  0
   37.0380   30.9860   50.3920 C   0  0  0  0  0  0  0  0  0  0  0  0
   36.5490   32.2400   50.6600 F   0  0  0  0  0  0  0  0  0  0  0  0
   36.3370   30.0550   51.1590 F   0  0  0  0  0  0  0  0  0  0  0  0
   38.3840   30.9610   50.7490 F   0  0  0  0  0  0  0  0  0  0  0  0
   40.5800   30.4250   42.7080 C   0  0  0  0  0  0  0  0  0  0  0  0
   40.2110   31.1970   41.5940 C   0  0  0  0  0  0  0  0  0  0  0  0
   40.5710   30.8070   40.3660 C   0  0  0  0  0  0  0  0  0  0  0  0
   41.3280   29.6070   40.2030 C   0  0  0  0  0  0  0  0  0  0  0  0
   41.5080   29.0400   41.9710 S   0  0  0  0  0  0  0  0  0  0  0  0
   39.6320   32.1180   41.6950 H   0  0  0  0  0  0  0  0  0  0  0  0
   40.3730   31.2750   39.4130 H   0  0  0  0  0  0  0  0  0  0  0  0
   41.8700   28.9020   39.1110 C   0  0  0  0  0  3  0  0  0  0  0  0
   41.2600   27.5400   39.0650 C   0  0  0  0  0  2  0  0  0  0  0  0
   40.2420   27.4260   37.9280 C   0  0  0  0  0  2  0  0  0  0  0  0
   41.0660   27.5190   36.6400 C   0  0  0  0  0  2  0  0  0  0  0  0
   41.8420   28.8130   36.6020 C   0  0  0  0  0  2  0  0  0  0  0  0
   41.6140   29.6570   37.8260 C   0  0  0  0  0  2  0  0  0  0  0  0
  1  2  1  0  0  0  0
  1  8  1  0  0  0  0
  2  6  1  0  0  0  0
  3  2  2  0  0  0  0
  4  5  1  0  0  0  0
  4  3  1  0  0  0  0
  5  1  2  0  0  0  0
  7  3  1  0  0  0  0
  8  9  1  0  0  0  0
  9 14  1  0  0  0  0
  9 10  2  0  0  0  0
 10 16  1  0  0  0  0
 11 10  1  0  0  0  0
 12 11  2  0  0  0  0
 13  8  2  0  0  0  0
 13 12  1  0  0  0  0
 15 12  1  0  0  0  0
 16 17  1  0  0  0  0
 16 19  1  0  0  0  0
 16 18  1  0  0  0  0
 20  4  1  0  0  0  0
 21 25  1  0  0  0  0
 21 20  2  0  0  0  0
 22 21  1  0  0  0  0
 23 22  2  0  0  0  0
 23 24  1  0  0  0  0
 24 20  1  0  0  0  0
 26 22  1  0  0  0  0
 27 23  1  0  0  0  0
 28 27  1  0  0  0  0
 29 28  1  0  0  0  0
 30 29  1  0  0  0  0
 31 30  1  0  0  0  0
 31 32  1  0  0  0  0
 32 27  1  0  0  0  0
M  END
>  <minimizedAffinity>
-6.18395519

>  <minimizedRMSD>
0.106880195

$$$$
