
 OpenBabel03272508123D

 31 33  0  0  0  0  0  0  0  0999 V2000
   36.6470   29.4560   44.0240 Cl  0  0  0  0  0  0  0  0  0  0  0  0
   38.3060   29.8350   43.4970 C   0  0  0  0  0  0  0  0  0  0  0  0
   39.3050   30.3100   44.3490 C   0  0  0  0  0  0  0  0  0  0  0  0
   40.5410   30.5580   43.7960 C   0  0  0  0  0  0  0  0  0  0  0  0
   40.7830   30.3480   42.4600 C   0  0  0  0  0  0  0  0  0  0  0  0
   39.8130   29.8820   41.6110 C   0  0  0  0  0  0  0  0  0  0  0  0
   38.5820   29.6290   42.1330 C   0  0  0  0  0  0  0  0  0  0  0  0
   41.2650   30.9230   44.5130 H   0  0  0  0  0  0  0  0  0  0  0  0
   41.7720   30.5600   42.0770 H   0  0  0  0  0  0  0  0  0  0  0  0
   40.0130   29.7190   40.5530 H   0  0  0  0  0  0  0  0  0  0  0  0
   37.5050   29.1190   41.2230 C   0  0  0  0  0  3  0  0  0  0  0  0
   37.8430   27.6540   40.9990 C   0  0  0  0  0  2  0  0  0  0  0  0
   36.8830   27.0850   40.0050 C   0  0  0  0  0  2  0  0  0  0  0  0
   35.7030   27.9900   39.7500 C   0  0  0  0  0  2  0  0  0  0  0  0
   36.1300   29.3590   39.2640 C   0  0  0  0  0  2  0  0  0  0  0  0
   37.4180   29.8310   39.9210 C   0  0  0  0  0  2  0  0  0  0  0  0
   38.8720   30.4530   45.6360 O   0  0  0  0  0  0  0  0  0  0  0  0
   39.4420   32.5060   47.1000 O   0  0  0  0  0  0  0  0  0  0  0  0
   38.2970   31.8360   46.4110 P   0  0  1  0  0  0  0  0  0  0  0  0
   37.7120   32.8450   45.1680 O   0  0  0  0  0  0  0  0  0  0  0  0
   37.4800   32.3510   44.3510 H   0  0  0  0  0  0  0  0  0  0  0  0
   37.0210   31.4130   47.4410 O   0  0  0  0  0  0  0  0  0  0  0  0
   37.6170   30.5280   50.9840 C   0  0  0  0  0  0  0  0  0  0  0  0
   37.7020   31.2950   49.8200 C   0  0  0  0  0  0  0  0  0  0  0  0
   37.0710   30.8430   48.6640 C   0  0  0  0  0  0  0  0  0  0  0  0
   36.3920   29.6500   48.7400 N   0  0  0  0  0  0  0  0  0  0  0  0
   36.3330   28.9400   49.8830 C   0  0  0  0  0  0  0  0  0  0  0  0
   36.9430   29.3810   50.9950 N   0  0  0  0  0  0  0  0  0  0  0  0
   38.1390   30.9540   51.8440 H   0  0  0  0  0  0  0  0  0  0  0  0
   38.2100   32.2310   49.6790 H   0  0  0  0  0  0  0  0  0  0  0  0
   35.7790   27.9890   49.9070 H   0  0  0  0  0  0  0  0  0  0  0  0
  2  1  1  0  0  0  0
  2  3  1  0  0  0  0
  3 17  1  0  0  0  0
  4  3  2  0  0  0  0
  4  8  1  0  0  0  0
  5  4  1  0  0  0  0
  6  7  1  0  0  0  0
  6  5  2  0  0  0  0
  7  2  2  0  0  0  0
  9  5  1  0  0  0  0
 10  6  1  0  0  0  0
 11  7  1  0  0  0  0
 12 11  1  0  0  0  0
 13 12  1  0  0  0  0
 14 13  1  0  0  0  0
 15 14  1  0  0  0  0
 15 16  1  0  0  0  0
 16 11  1  0  0  0  0
 17 19  1  0  0  0  0
 19 18  2  1  0  0  0
 19 22  1  0  0  0  0
 20 19  1  0  0  0  0
 21 20  1  0  0  0  0
 22 25  1  0  0  0  0
 23 28  1  0  0  0  0
 23 29  1  0  0  0  0
 24 23  2  0  0  0  0
 25 26  2  0  0  0  0
 25 24  1  0  0  0  0
 26 27  1  0  0  0  0
 27 31  1  0  0  0  0
 27 28  2  0  0  0  0
 30 24  1  0  0  0  0
M  END
>  <minimizedAffinity>
-4.83046246

>  <minimizedRMSD>
0.0681584626

$$$$
