
 OpenBabel03272509223D

 43 47  0  0  0  0  0  0  0  0999 V2000
   38.1620   31.4410   47.9500 C   0  0  0  0  0  0  0  0  0  0  0  0
   37.2610   31.6030   48.9880 C   0  0  0  0  0  0  0  0  0  0  0  0
   37.4070   32.7990   49.6930 C   0  0  0  0  0  0  0  0  0  0  0  0
   38.3810   33.7430   49.3710 C   0  0  0  0  0  0  0  0  0  0  0  0
   39.2570   33.4800   48.2860 C   0  0  0  0  0  0  0  0  0  0  0  0
   39.1290   32.3030   47.5760 C   0  0  0  0  0  0  0  0  0  0  0  0
   36.7190   32.9670   50.5150 H   0  0  0  0  0  0  0  0  0  0  0  0
   38.4850   34.6570   49.9170 H   0  0  0  0  0  0  0  0  0  0  0  0
   40.0170   34.2080   48.0280 H   0  0  0  0  0  0  0  0  0  0  0  0
   35.1800   30.4240   48.4700 C   0  0  0  0  0  0  0  0  0  0  0  0
   36.2560   30.6440   49.3310 C   0  0  0  0  0  0  0  0  0  0  0  0
   36.3000   29.8980   50.5120 C   0  0  0  0  0  0  0  0  0  0  0  0
   35.3190   29.0130   50.7680 N   0  0  0  0  0  0  0  0  0  0  0  0
   34.2810   28.8300   49.8950 C   0  0  0  0  0  0  0  0  0  0  0  0
   34.2190   29.5350   48.7540 N   0  0  0  0  0  0  0  0  0  0  0  0
   35.0800   30.9650   47.5370 H   0  0  0  0  0  0  0  0  0  0  0  0
   33.5740   28.0920   50.2320 H   0  0  0  0  0  0  0  0  0  0  0  0
   37.4240   30.0930   51.4620 C   0  0  0  0  0  0  0  0  0  0  0  0
   37.5710   29.1350   51.9720 H   0  0  0  0  0  0  0  0  0  0  0  0
   37.2620   30.9460   52.1500 H   0  0  0  0  0  0  0  0  0  0  0  0
   38.3300   30.2390   50.8270 H   0  0  0  0  0  0  0  0  0  0  0  0
   38.0980   30.2750   47.1820 O   0  0  0  0  0  0  0  0  0  0  0  0
   37.4740   30.1460   46.4190 H   0  0  0  0  0  0  0  0  0  0  0  0
   40.0140   32.1180   46.5390 O   0  0  0  0  0  0  0  0  0  0  0  0
   40.2120   30.8570   44.3990 C   0  0  0  0  0  0  0  0  0  0  0  0
   39.7110   31.8280   45.2420 C   0  0  0  0  0  0  0  0  0  0  0  0
   38.7240   32.6910   44.7520 C   0  0  0  0  0  0  0  0  0  0  0  0
   38.2660   32.5650   43.4360 C   0  0  0  0  0  0  0  0  0  0  0  0
   37.3510   33.2230   42.6850 N   0  0  0  0  0  0  0  0  0  0  0  0
   37.2910   32.6910   41.4500 C   0  0  0  0  0  0  0  0  0  0  0  0
   38.1950   31.6710   41.4290 N   0  0  0  0  0  0  0  0  0  0  0  0
   38.7920   31.5870   42.6300 C   0  0  0  0  0  0  0  0  0  0  0  0
   39.7570   30.7330   43.0940 C   0  0  0  0  0  0  0  0  0  0  0  0
   40.9720   30.2380   44.8740 H   0  0  0  0  0  0  0  0  0  0  0  0
   38.2400   33.4920   45.2850 H   0  0  0  0  0  0  0  0  0  0  0  0
   36.7680   34.0330   43.0120 H   0  0  0  0  0  0  0  0  0  0  0  0
   36.6850   32.9540   40.5980 H   0  0  0  0  0  0  0  0  0  0  0  0
   40.3760   29.6530   42.2930 C   0  0  0  0  0  0  0  0  0  0  0  0
   39.3380   28.5960   41.9310 C   0  0  0  0  0  0  0  0  0  0  0  0
   40.1100   27.4120   41.3950 C   0  0  0  0  0  0  0  0  0  0  0  0
   40.9250   27.7750   40.1760 C   0  0  0  0  0  0  0  0  0  0  0  0
   41.7790   28.9990   40.4100 C   0  0  0  0  0  0  0  0  0  0  0  0
   40.9580   30.1360   40.9820 C   0  0  0  0  0  0  0  0  0  0  0  0
  1  2  1  0  0  0  0
  2 11  1  0  0  0  0
  2  3  2  0  0  0  0
  3  7  1  0  0  0  0
  4  3  1  0  0  0  0
  4  8  1  0  0  0  0
  5  4  2  0  0  0  0
  6  1  2  0  0  0  0
  6  5  1  0  0  0  0
  9  5  1  0  0  0  0
 10 15  2  0  0  0  0
 10 11  1  0  0  0  0
 11 12  2  0  0  0  0
 12 13  1  0  0  0  0
 12 18  1  0  0  0  0
 14 17  1  0  0  0  0
 14 13  2  0  0  0  0
 15 14  1  0  0  0  0
 16 10  1  0  0  0  0
 18 19  1  0  0  0  0
 18 20  1  0  0  0  0
 21 18  1  0  0  0  0
 22  1  1  0  0  0  0
 23 22  1  0  0  0  0
 24  6  1  0  0  0  0
 25 34  1  0  0  0  0
 25 26  1  0  0  0  0
 26 24  1  0  0  0  0
 27 26  2  0  0  0  0
 27 35  1  0  0  0  0
 28 27  1  0  0  0  0
 29 36  1  0  0  0  0
 29 28  1  0  0  0  0
 30 29  1  0  0  0  0
 31 30  2  0  0  0  0
 31 32  1  0  0  0  0
 32 33  1  0  0  0  0
 32 28  2  0  0  0  0
 33 25  2  0  0  0  0
 37 30  1  0  0  0  0
 38 33  1  0  0  0  0
 39 38  1  0  0  0  0
 40 39  1  0  0  0  0
 41 42  1  0  0  0  0
 41 40  1  0  0  0  0
 42 43  1  0  0  0  0
 43 38  1  0  0  0  0
M  END
>  <minimizedAffinity>
-7.65244818

>  <minimizedRMSD>
0.974038005

$$$$
