
 OpenBabel03262520183D

 15 16  0  0  0  0  0  0  0  0999 V2000
   37.2860   30.1900   51.4430 C   0  0  0  0  0  0  0  0  0  0  0  0
   37.9930   30.6190   50.2980 C   0  0  0  0  0  0  0  0  0  0  0  0
   37.4840   30.2420   49.0460 C   0  0  0  0  0  0  0  0  0  0  0  0
   36.3460   29.4900   49.0070 N   0  0  0  0  0  0  0  0  0  0  0  0
   35.7000   29.0990   50.1210 C   0  0  0  0  0  0  0  0  0  0  0  0
   36.1680   29.4490   51.3410 N   0  0  0  0  0  0  0  0  0  0  0  0
   37.7000   30.4950   52.3980 H   0  0  0  0  0  0  0  0  0  0  0  0
   38.8830   31.2110   50.3870 H   0  0  0  0  0  0  0  0  0  0  0  0
   34.8090   28.5070   49.9960 H   0  0  0  0  0  0  0  0  0  0  0  0
   38.1880   30.6690   47.8360 C   0  0  0  0  0  3  0  0  0  0  0  0
   37.3610   30.8050   46.6090 C   0  0  0  0  0  2  0  0  0  0  0  0
   38.3270   30.8750   45.4410 C   0  0  0  0  0  2  0  0  0  0  0  0
   39.4980   31.7330   45.7460 C   0  0  0  0  0  2  0  0  0  0  0  0
   39.3610   32.6750   46.8940 C   0  0  0  0  0  2  0  0  0  0  0  0
   38.7320   32.0740   48.1200 C   0  0  0  0  0  2  0  0  0  0  0  0
  1  7  1  0  0  0  0
  2  8  1  0  0  0  0
  2  1  2  0  0  0  0
  3  2  1  0  0  0  0
  4  3  2  0  0  0  0
  4  5  1  0  0  0  0
  5  6  2  0  0  0  0
  6  1  1  0  0  0  0
  9  5  1  0  0  0  0
 10 15  1  0  0  0  0
 10  3  1  0  0  0  0
 11 10  1  0  0  0  0
 12 13  1  0  0  0  0
 12 11  1  0  0  0  0
 13 14  1  0  0  0  0
 14 15  1  0  0  0  0
M  END
>  <minimizedAffinity>
-4.9198041

>  <minimizedRMSD>
0.42332083

$$$$
