
     RDKit          3D

 29 30  0  0  0  0  0  0  0  0999 V2000
   38.3055   31.2329   50.1255 C   0  0  0  0  0  0  0  0  0  0  0  0
   38.2906   31.6102   48.7735 C   0  0  0  0  0  0  0  0  0  0  0  0
   37.2087   31.2311   47.9999 C   0  0  0  0  0  0  0  0  0  0  0  0
   36.2029   30.5060   48.5876 N   0  0  0  0  0  0  0  0  0  0  0  0
   36.2600   30.1652   49.8940 C   0  0  0  0  0  0  0  0  0  0  0  0
   37.3039   30.5300   50.6443 N   0  0  0  0  0  0  0  0  0  0  0  0
   35.1329   29.3831   50.4466 C   0  0  0  0  0  0  0  0  0  0  0  0
   35.2641   29.1288   51.8044 F   0  0  0  0  0  0  0  0  0  0  0  0
   33.9279   30.0594   50.2938 F   0  0  0  0  0  0  0  0  0  0  0  0
   34.9525   28.1652   49.8345 F   0  0  0  0  0  0  0  0  0  0  0  0
   39.1093   31.4846   50.8049 H   0  0  0  0  0  0  0  0  0  0  0  0
   39.1416   32.1670   48.4755 H   0  0  0  0  0  0  0  0  0  0  0  0
   37.2077   31.6291   46.6019 C   0  0  0  0  0  0  0  0  0  0  0  0
   36.7197   32.9888   46.2744 C   0  0  0  0  0  0  0  0  0  0  0  0
   37.8252   33.9246   45.8274 C   0  0  0  0  0  0  0  0  0  0  0  0
   38.4004   33.3564   44.5466 C   0  0  0  0  0  0  0  0  0  0  0  0
   38.6372   31.8717   44.6314 C   0  0  0  0  0  0  0  0  0  0  0  0
   38.6521   31.5184   46.0940 C   0  0  0  0  0  0  0  0  0  0  0  0
   36.6340   30.8287   46.0474 H   0  0  0  0  0  0  0  0  0  0  0  0
   36.0511   32.9005   45.3764 H   0  0  0  0  0  0  0  0  0  0  0  0
   36.0736   33.4480   47.0447 H   0  0  0  0  0  0  0  0  0  0  0  0
   38.5990   34.0903   46.5965 H   0  0  0  0  0  0  0  0  0  0  0  0
   37.3264   34.8986   45.5487 H   0  0  0  0  0  0  0  0  0  0  0  0
   39.3504   33.8645   44.2707 H   0  0  0  0  0  0  0  0  0  0  0  0
   37.6853   33.5735   43.7254 H   0  0  0  0  0  0  0  0  0  0  0  0
   39.6125   31.5945   44.1903 H   0  0  0  0  0  0  0  0  0  0  0  0
   37.7775   31.3385   44.1720 H   0  0  0  0  0  0  0  0  0  0  0  0
   38.9887   30.4584   46.2009 H   0  0  0  0  0  0  0  0  0  0  0  0
   39.3252   32.1841   46.6387 H   0  0  0  0  0  0  0  0  0  0  0  0
  1  6  2  0
  2  1  1  0
  3  4  1  0
  3  2  2  0
  4  5  2  0
  5  7  1  0
  5  6  1  0
  7  8  1  0
  9  7  1  0
 10  7  1  0
  1 11  1  0
  2 12  1  0
 13 14  1  0
 14 15  1  0
 15 16  1  0
 16 17  1  0
 17 18  1  0
 18 13  1  0
 13 19  1  0
 14 20  1  0
 14 21  1  0
 15 22  1  0
 15 23  1  0
 16 24  1  0
 16 25  1  0
 17 26  1  0
 17 27  1  0
 18 28  1  0
 18 29  1  0
  3 13  1  0
M  ISO  2  11  14  12  14
M  END
>  <DihAtoms>  (1) 
3,2,12,13

>  <DihDeg>  (1) 
126.24945347459172

$$$$
