
 OpenBabel03272507343D

 33 36  0  0  1  0  0  0  0  0999 V2000
   35.8270   29.1050   49.7690 C   0  0  0  0  0  0  0  0  0  0  0  0
   34.7500   29.5770   50.4830 C   0  0  0  0  0  0  0  0  0  0  0  0
   33.5960   28.9860   49.9460 C   0  0  0  0  0  0  0  0  0  0  0  0
   34.0540   28.1800   48.9260 C   0  0  0  0  0  0  0  0  0  0  0  0
   35.3640   28.2830   48.8590 O   0  0  0  0  0  0  0  0  0  0  0  0
   34.6980   30.2740   51.3160 H   0  0  0  0  0  0  0  0  0  0  0  0
   32.5660   29.0970   50.2250 H   0  0  0  0  0  0  0  0  0  0  0  0
   37.1900   29.5140   50.0610 C   0  0  0  0  0  0  0  0  0  0  0  0
   37.8040   28.9660   50.9890 O   0  0  0  0  0  0  0  0  0  0  0  0
   37.7500   30.5490   49.2380 C   0  0  0  0  0  0  0  0  0  0  0  0
   38.0820   31.7390   49.8540 C   0  0  0  0  0  0  0  0  0  0  0  0
   38.6270   32.7670   49.0850 C   0  0  0  0  0  0  0  0  0  0  0  0
   38.8070   32.5420   47.7350 N   0  0  0  0  0  0  0  0  0  0  0  0
   38.4730   31.3740   47.1750 C   0  0  0  0  0  0  0  0  0  0  0  0
   37.9490   30.3850   47.9110 N   0  0  0  0  0  0  0  0  0  0  0  0
   37.9550   31.9570   50.9180 H   0  0  0  0  0  0  0  0  0  0  0  0
   38.9090   33.7170   49.4890 H   0  0  0  0  0  0  0  0  0  0  0  0
   38.6680   31.3290   46.1030 H   0  0  0  0  0  0  0  0  0  0  0  0
   33.2250   27.3430   48.0570 C   0  0  0  0  0  0  0  0  0  0  0  0
   31.9580   27.4050   48.1940 O   0  0  0  0  0  0  0  0  0  0  0  0
   33.8620   26.4350   47.0450 C   0  0  1  0  0  0  0  0  0  0  0  0
   33.6860   24.9320   47.5040 C   0  0  0  0  0  0  0  0  0  0  0  0
   33.0440   25.4960   46.2940 C   0  0  2  0  0  0  0  0  0  0  0  0
   34.9500   26.6320   46.9520 H   0  0  0  0  0  0  0  0  0  0  0  0
   33.0760   24.7470   48.3880 H   0  0  0  0  0  0  0  0  0  0  0  0
   34.5730   24.3060   47.4430 H   0  0  0  0  0  0  0  0  0  0  0  0
   31.9320   25.6880   46.4040 H   0  0  0  0  0  0  0  0  0  0  0  0
   33.4200   24.8630   45.0120 C   0  0  0  0  0  3  0  0  0  0  0  0
   34.7860   25.1540   44.4790 C   0  0  0  0  0  2  0  0  0  0  0  0
   35.8300   24.1500   44.8610 C   0  0  0  0  0  2  0  0  0  0  0  0
   35.5040   22.7550   44.3810 C   0  0  0  0  0  2  0  0  0  0  0  0
   34.0220   22.5560   44.1790 C   0  0  0  0  0  2  0  0  0  0  0  0
   33.2750   23.3640   45.1890 C   0  0  0  0  0  2  0  0  0  0  0  0
  1  8  1  0  0  0  0
  1  2  2  0  0  0  0
  2  6  1  0  0  0  0
  3  7  1  0  0  0  0
  3  2  1  0  0  0  0
  4  3  2  0  0  0  0
  5  4  1  0  0  0  0
  5  1  1  0  0  0  0
  8  9  2  0  0  0  0
 10 11  1  0  0  0  0
 10  8  1  0  0  0  0
 11 16  1  0  0  0  0
 12 17  1  0  0  0  0
 12 11  2  0  0  0  0
 13 12  1  0  0  0  0
 14 13  2  0  0  0  0
 14 15  1  0  0  0  0
 15 10  2  0  0  0  0
 18 14  1  0  0  0  0
 19 20  2  0  0  0  0
 19  4  1  0  0  0  0
 21 24  1  6  0  0  0
 21 22  1  0  0  0  0
 21 19  1  0  0  0  0
 22 25  1  0  0  0  0
 23 27  1  1  0  0  0
 23 21  1  0  0  0  0
 23 22  1  0  0  0  0
 26 22  1  0  0  0  0
 28 33  1  0  0  0  0
 28 23  1  0  0  0  0
 29 30  1  0  0  0  0
 29 28  1  0  0  0  0
 31 30  1  0  0  0  0
 32 31  1  0  0  0  0
 32 33  1  0  0  0  0
M  END
>  <minimizedAffinity>
-5.1081109

>  <minimizedRMSD>
0.666810155

$$$$
