
 OpenBabel03272505013D

 25 27  0  0  0  0  0  0  0  0999 V2000
   37.7090   30.5140   46.9640 Cl  0  0  0  0  0  0  0  0  0  0  0  0
   38.3260   31.8760   47.8740 C   0  0  0  0  0  0  0  0  0  0  0  0
   37.9720   31.9980   49.1850 C   0  0  0  0  0  0  0  0  0  0  0  0
   38.4980   33.1040   49.8570 C   0  0  0  0  0  0  0  0  0  0  0  0
   39.3290   34.0010   49.1840 C   0  0  0  0  0  0  0  0  0  0  0  0
   39.6510   33.8280   47.8650 C   0  0  0  0  0  0  0  0  0  0  0  0
   39.1420   32.7440   47.1890 C   0  0  0  0  0  0  0  0  0  0  0  0
   38.2290   33.2180   50.8970 H   0  0  0  0  0  0  0  0  0  0  0  0
   39.6810   34.8220   49.7970 H   0  0  0  0  0  0  0  0  0  0  0  0
   40.3000   34.5640   47.4110 H   0  0  0  0  0  0  0  0  0  0  0  0
   37.5490   30.3500   51.0100 C   0  0  0  0  0  0  0  0  0  0  0  0
   37.1040   31.0680   49.9000 C   0  0  0  0  0  0  0  0  0  0  0  0
   35.7860   30.8670   49.4880 C   0  0  0  0  0  0  0  0  0  0  0  0
   35.0090   29.9940   50.1770 N   0  0  0  0  0  0  0  0  0  0  0  0
   35.4760   29.3160   51.2490 C   0  0  0  0  0  0  0  0  0  0  0  0
   36.7550   29.4960   51.6670 N   0  0  0  0  0  0  0  0  0  0  0  0
   38.5760   30.4920   51.3490 H   0  0  0  0  0  0  0  0  0  0  0  0
   35.3710   31.3940   48.6280 H   0  0  0  0  0  0  0  0  0  0  0  0
   34.7760   28.6480   51.7230 H   0  0  0  0  0  0  0  0  0  0  0  0
   39.4730   32.5290   45.7600 C   0  0  0  0  0  0  0  0  0  0  0  0
   38.2400   32.4880   44.9000 C   0  0  0  0  0  0  0  0  0  0  0  0
   38.6710   32.5450   43.4570 C   0  0  0  0  0  0  0  0  0  0  0  0
   40.1070   32.2060   43.2290 C   0  0  0  0  0  0  0  0  0  0  0  0
   40.6230   31.0720   44.0860 C   0  0  0  0  0  0  0  0  0  0  0  0
   40.2370   31.2410   45.5360 C   0  0  0  0  0  0  0  0  0  0  0  0
  1  2  1  0  0  0  0
  2  3  1  0  0  0  0
  3  4  2  0  0  0  0
  3 12  1  0  0  0  0
  4  8  1  0  0  0  0
  5  9  1  0  0  0  0
  5  4  1  0  0  0  0
  6  5  2  0  0  0  0
  7  6  1  0  0  0  0
  7  2  2  0  0  0  0
 10  6  1  0  0  0  0
 11 17  1  0  0  0  0
 11 16  1  0  0  0  0
 12 11  2  0  0  0  0
 13 12  1  0  0  0  0
 13 14  2  0  0  0  0
 14 15  1  0  0  0  0
 15 16  2  0  0  0  0
 15 19  1  0  0  0  0
 18 13  1  0  0  0  0
 20  7  1  0  0  0  0
 21 20  1  0  0  0  0
 22 21  1  0  0  0  0
 23 22  1  0  0  0  0
 23 24  1  0  0  0  0
 24 25  1  0  0  0  0
 25 20  1  0  0  0  0
M  END
>  <minimizedAffinity>
-6.78563309

>  <minimizedRMSD>
0.740313828

$$$$
