REMARK  Name = 
REMARK  2 active torsions:
REMARK  status: ('A' for Active; 'I' for Inactive)
REMARK    1  A    between atoms: C_5  and  C_7
REMARK    2  A    between atoms: C_12  and  C_20
REMARK                            x       y       z     vdW  Elec       q    Type
REMARK                         _______ _______ _______ _____ _____    ______ ____
ROOT
ATOM      1  C   UNL     1      36.091  30.128  48.618  0.00  0.00    +0.000 A 
ATOM      2  C   UNL     1      35.283  29.966  47.504  0.00  0.00    +0.000 A 
ATOM      3  C   UNL     1      34.295  28.982  47.506  0.00  0.00    +0.000 A 
ATOM      4  C   UNL     1      34.149  28.195  48.619  0.00  0.00    +0.000 A 
ATOM      5  C   UNL     1      34.962  28.357  49.743  0.00  0.00    +0.000 A 
ATOM      6  C   UNL     1      35.941  29.333  49.739  0.00  0.00    +0.000 A 
ATOM      7  H   UNL     1      35.358  30.558  46.604  0.00  0.00    +0.000 HD
ATOM      8  H   UNL     1      33.659  28.848  46.639  0.00  0.00    +0.000 HD
ATOM      9  H   UNL     1      33.366  27.447  48.566  0.00  0.00    +0.000 HD
ATOM     10  H   UNL     1      34.739  27.685  50.529  0.00  0.00    +0.000 HD
ENDROOT
BRANCH   1  15
ATOM     11  C   UNL     1      38.010  33.108  49.473  0.00  0.00    +0.000 A 
ATOM     12  C   UNL     1      38.967  33.214  48.468  0.00  0.00    +0.000 A 
ATOM     13  C   UNL     1      38.945  32.225  47.470  0.00  0.00    +0.000 A 
ATOM     14  N   UNL     1      38.017  31.238  47.529  0.00  0.00    +0.000 NA
ATOM     15  C   UNL     1      37.099  31.172  48.529  0.00  0.00    +0.000 A 
ATOM     16  N   UNL     1      37.126  32.118  49.477  0.00  0.00    +0.000 NA
ATOM     17  H   UNL     1      38.069  33.898  50.221  0.00  0.00    +0.000 HD
ATOM     18  H   UNL     1      39.734  33.941  48.329  0.00  0.00    +0.000 HD
ATOM     19  H   UNL     1      39.610  32.150  46.620  0.00  0.00    +0.000 HD
ENDBRANCH   1  15
BRANCH   6  20
ATOM     20  C   UNL     1      36.781  29.494  50.941  0.00  0.00    +0.000 C 
ATOM     21  C   UNL     1      37.191  28.208  51.570  0.00  0.00    +0.000 C 
ATOM     22  C   UNL     1      37.894  28.570  52.884  0.00  0.00    +0.000 C 
ATOM     23  C   UNL     1      39.203  29.204  52.461  0.00  0.00    +0.000 C 
ATOM     24  C   UNL     1      38.917  30.500  51.790  0.00  0.00    +0.000 C 
ATOM     25  C   UNL     1      37.930  30.421  50.655  0.00  0.00    +0.000 C 
ENDBRANCH   6  20
TORSDOF 2
