
 OpenBabel03272505123D

 36 39  0  0  0  0  0  0  0  0999 V2000
   36.4150   30.8980   45.7070 Cl  0  0  0  0  0  0  0  0  0  0  0  0
   36.6940   30.7810   47.4230 C   0  0  0  0  0  0  0  0  0  0  0  0
   37.9550   31.1200   47.8790 C   0  0  0  0  0  0  0  0  0  0  0  0
   38.1890   31.0300   49.2470 C   0  0  0  0  0  0  0  0  0  0  0  0
   37.1790   30.6160   50.0860 C   0  0  0  0  0  0  0  0  0  0  0  0
   35.9410   30.2940   49.5500 C   0  0  0  0  0  0  0  0  0  0  0  0
   35.6420   30.3590   48.2140 C   0  0  0  0  0  0  0  0  0  0  0  0
   39.1700   31.2910   49.6260 H   0  0  0  0  0  0  0  0  0  0  0  0
   37.3240   30.5340   51.1540 H   0  0  0  0  0  0  0  0  0  0  0  0
   35.1720   29.9710   50.2480 H   0  0  0  0  0  0  0  0  0  0  0  0
   40.2230   33.3240   46.0830 C   0  0  0  0  0  0  0  0  0  0  0  0
   40.9360   32.4750   45.2260 C   0  0  0  0  0  0  0  0  0  0  0  0
   40.6170   31.1060   45.2790 C   0  0  0  0  0  0  0  0  0  0  0  0
   39.6460   30.6920   46.1490 N   0  0  0  0  0  0  0  0  0  0  0  0
   39.0030   31.5590   46.9400 C   0  0  0  0  0  0  0  0  0  0  0  0
   39.2800   32.8630   46.9160 N   0  0  0  0  0  0  0  0  0  0  0  0
   40.5180   34.3610   45.9900 H   0  0  0  0  0  0  0  0  0  0  0  0
   41.7060   32.8520   44.5470 H   0  0  0  0  0  0  0  0  0  0  0  0
   41.1190   30.4050   44.6580 H   0  0  0  0  0  0  0  0  0  0  0  0
   34.0720   29.9520   47.5230 S   0  0  0  0  0  0  0  0  0  0  0  0
   33.9400   29.1610   44.4800 Cl  0  0  0  0  0  0  0  0  0  0  0  0
   33.8990   27.9440   45.7350 C   0  0  0  0  0  0  0  0  0  0  0  0
   33.9520   28.2130   47.1110 C   0  0  0  0  0  0  0  0  0  0  0  0
   33.9120   27.1740   48.0020 C   0  0  0  0  0  0  0  0  0  0  0  0
   33.8190   25.8770   47.5700 C   0  0  0  0  0  0  0  0  0  0  0  0
   33.7640   25.5710   46.2160 C   0  0  0  0  0  0  0  0  0  0  0  0
   33.8050   26.6120   45.3320 C   0  0  0  0  0  0  0  0  0  0  0  0
   33.9610   27.5050   49.0400 H   0  0  0  0  0  0  0  0  0  0  0  0
   33.7910   25.1040   48.3000 H   0  0  0  0  0  0  0  0  0  0  0  0
   33.6910   24.5280   45.9360 H   0  0  0  0  0  0  0  0  0  0  0  0
   33.7440   26.2840   43.8820 C   0  0  0  0  0  3  0  0  0  0  0  0
   34.9760   26.7140   43.1490 C   0  0  0  0  0  2  0  0  0  0  0  0
   34.9050   26.2610   41.7250 C   0  0  0  0  0  2  0  0  0  0  0  0
   33.5980   25.5830   41.3870 C   0  0  0  0  0  2  0  0  0  0  0  0
   32.3960   26.3560   41.8240 C   0  0  0  0  0  2  0  0  0  0  0  0
   32.5280   26.8960   43.2290 C   0  0  0  0  0  2  0  0  0  0  0  0
  1  2  1  0  0  0  0
  2  3  2  0  0  0  0
  2  7  1  0  0  0  0
  3  4  1  0  0  0  0
  4  8  1  0  0  0  0
  4  5  2  0  0  0  0
  5  9  1  0  0  0  0
  6  5  1  0  0  0  0
  6 10  1  0  0  0  0
  7  6  2  0  0  0  0
 11 16  1  0  0  0  0
 12 13  1  0  0  0  0
 12 11  2  0  0  0  0
 13 14  2  0  0  0  0
 14 15  1  0  0  0  0
 15  3  1  0  0  0  0
 16 15  2  0  0  0  0
 17 11  1  0  0  0  0
 18 12  1  0  0  0  0
 19 13  1  0  0  0  0
 20  7  1  0  0  0  0
 21 22  1  0  0  0  0
 22 23  1  0  0  0  0
 23 20  1  0  0  0  0
 23 24  2  0  0  0  0
 24 28  1  0  0  0  0
 25 24  1  0  0  0  0
 25 29  1  0  0  0  0
 26 25  2  0  0  0  0
 27 22  2  0  0  0  0
 27 26  1  0  0  0  0
 30 26  1  0  0  0  0
 31 27  1  0  0  0  0
 32 31  1  0  0  0  0
 33 32  1  0  0  0  0
 34 33  1  0  0  0  0
 34 35  1  0  0  0  0
 35 36  1  0  0  0  0
 36 31  1  0  0  0  0
M  END
>  <minimizedAffinity>
-5.71403599

>  <minimizedRMSD>
0.250694692

$$$$
