
 OpenBabel03272500203D

 31 33  0  0  0  0  0  0  0  0999 V2000
   36.2700   29.0730   30.9180 C   0  0  0  0  0  0  0  0  0  0  0  0
   37.2410   28.2220   31.4740 C   0  0  0  0  0  0  0  0  0  0  0  0
   37.1300   27.8750   32.8120 C   0  0  0  0  0  0  0  0  0  0  0  0
   36.0920   28.3630   33.5390 N   0  0  0  0  0  0  0  0  0  0  0  0
   35.1800   29.1700   32.9910 C   0  0  0  0  0  0  0  0  0  0  0  0
   35.2500   29.5340   31.6900 N   0  0  0  0  0  0  0  0  0  0  0  0
   36.3230   29.3660   29.8780 H   0  0  0  0  0  0  0  0  0  0  0  0
   35.9870   30.8080   35.4050 Cl  0  0  0  0  0  0  0  0  0  0  0  0
   34.3290   30.4290   34.9640 C   0  0  0  0  0  0  0  0  0  0  0  0
   34.0800   29.6660   33.8310 C   0  0  0  0  0  0  0  0  0  0  0  0
   32.7730   29.3340   33.4320 C   0  0  0  0  0  0  0  0  0  0  0  0
   31.7370   29.8070   34.2310 C   0  0  0  0  0  0  0  0  0  0  0  0
   31.9640   30.5640   35.3580 C   0  0  0  0  0  0  0  0  0  0  0  0
   30.5880   31.1050   36.2870 Cl  0  0  0  0  0  0  0  0  0  0  0  0
   33.2680   30.8650   35.7090 C   0  0  0  0  0  0  0  0  0  0  0  0
   32.5730   28.7400   32.5510 H   0  0  0  0  0  0  0  0  0  0  0  0
   30.7330   29.5510   33.9240 H   0  0  0  0  0  0  0  0  0  0  0  0
   33.5340   31.6830   36.9250 C   0  0  0  0  0  0  0  0  0  0  0  0
   32.9650   32.9520   36.7860 F   0  0  0  0  0  0  0  0  0  0  0  0
   34.8700   31.7930   37.2010 F   0  0  0  0  0  0  0  0  0  0  0  0
   32.9190   31.1010   38.0250 F   0  0  0  0  0  0  0  0  0  0  0  0
   38.0960   27.0080   33.4670 C   0  0  0  0  0  3  0  0  0  0  0  0
   38.4580   27.4000   34.8790 C   0  0  0  0  0  2  0  0  0  0  0  0
   39.7830   26.6930   35.2040 C   0  0  0  0  0  2  0  0  0  0  0  0
   39.7770   25.3310   34.5410 C   0  0  0  0  0  2  0  0  0  0  0  0
   38.3740   24.7610   34.4070 C   0  0  0  0  0  2  0  0  0  0  0  0
   37.4780   25.6110   33.5420 C   0  0  0  0  0  2  0  0  0  0  0  0
   38.3460   27.7190   30.6170 C   0  0  0  0  0  0  0  0  0  0  0  0
   38.2290   26.3590   30.3510 F   0  0  0  0  0  0  0  0  0  0  0  0
   38.3210   28.3920   29.4060 F   0  0  0  0  0  0  0  0  0  0  0  0
   39.5930   27.9400   31.1740 F   0  0  0  0  0  0  0  0  0  0  0  0
  1  2  2  0  0  0  0
  1  6  1  0  0  0  0
  2  3  1  0  0  0  0
  3 22  1  0  0  0  0
  3  4  2  0  0  0  0
  5  4  1  0  0  0  0
  5 10  1  0  0  0  0
  6  5  2  0  0  0  0
  7  1  1  0  0  0  0
  9  8  1  0  0  0  0
  9 15  1  0  0  0  0
 10  9  2  0  0  0  0
 11 10  1  0  0  0  0
 11 12  2  0  0  0  0
 12 13  1  0  0  0  0
 13 15  2  0  0  0  0
 13 14  1  0  0  0  0
 15 18  1  0  0  0  0
 16 11  1  0  0  0  0
 17 12  1  0  0  0  0
 18 20  1  0  0  0  0
 18 21  1  0  0  0  0
 19 18  1  0  0  0  0
 22 27  1  0  0  0  0
 22 23  1  0  0  0  0
 23 24  1  0  0  0  0
 25 24  1  0  0  0  0
 26 25  1  0  0  0  0
 27 26  1  0  0  0  0
 28 31  1  0  0  0  0
 28  2  1  0  0  0  0
 29 28  1  0  0  0  0
 30 28  1  0  0  0  0
M  END
>  <minimizedAffinity>
-6.4426918

$$$$

 OpenBabel03272500203D

 31 33  0  0  0  0  0  0  0  0999 V2000
   35.5380   28.2410   32.0150 C   0  0  0  0  0  0  0  0  0  0  0  0
   36.4740   27.3000   32.4780 C   0  0  0  0  0  0  0  0  0  0  0  0
   36.9700   27.4370   33.7650 C   0  0  0  0  0  0  0  0  0  0  0  0
   36.5380   28.4670   34.5370 N   0  0  0  0  0  0  0  0  0  0  0  0
   35.6470   29.3500   34.0780 C   0  0  0  0  0  0  0  0  0  0  0  0
   35.1370   29.2540   32.8280 N   0  0  0  0  0  0  0  0  0  0  0  0
   35.1280   28.1670   31.0170 H   0  0  0  0  0  0  0  0  0  0  0  0
   32.7730   29.2440   35.0220 Cl  0  0  0  0  0  0  0  0  0  0  0  0
   33.9210   30.5010   35.4550 C   0  0  0  0  0  0  0  0  0  0  0  0
   35.2170   30.4440   34.9600 C   0  0  0  0  0  0  0  0  0  0  0  0
   36.1760   31.4240   35.2750 C   0  0  0  0  0  0  0  0  0  0  0  0
   35.7620   32.4570   36.1110 C   0  0  0  0  0  0  0  0  0  0  0  0
   34.4820   32.5300   36.6120 C   0  0  0  0  0  0  0  0  0  0  0  0
   34.0720   33.8700   37.6520 Cl  0  0  0  0  0  0  0  0  0  0  0  0
   33.5750   31.5420   36.2730 C   0  0  0  0  0  0  0  0  0  0  0  0
   37.1860   31.3860   34.8920 H   0  0  0  0  0  0  0  0  0  0  0  0
   36.4990   33.2090   36.3530 H   0  0  0  0  0  0  0  0  0  0  0  0
   32.1850   31.6040   36.8050 C   0  0  0  0  0  0  0  0  0  0  0  0
   31.9960   30.6160   37.7760 F   0  0  0  0  0  0  0  0  0  0  0  0
   31.2410   31.4840   35.8210 F   0  0  0  0  0  0  0  0  0  0  0  0
   31.9810   32.8200   37.4440 F   0  0  0  0  0  0  0  0  0  0  0  0
   37.9490   26.5140   34.3180 C   0  0  0  0  0  3  0  0  0  0  0  0
   39.2450   27.1430   34.7660 C   0  0  0  0  0  2  0  0  0  0  0  0
   40.2770   26.0080   34.8540 C   0  0  0  0  0  2  0  0  0  0  0  0
   39.5760   24.7590   35.3480 C   0  0  0  0  0  2  0  0  0  0  0  0
   38.3970   25.0790   36.2530 C   0  0  0  0  0  2  0  0  0  0  0  0
   37.3200   25.8690   35.5540 C   0  0  0  0  0  2  0  0  0  0  0  0
   36.8980   26.1930   31.5820 C   0  0  0  0  0  0  0  0  0  0  0  0
   36.6950   24.9430   32.1570 F   0  0  0  0  0  0  0  0  0  0  0  0
   36.1560   26.2480   30.4130 F   0  0  0  0  0  0  0  0  0  0  0  0
   38.2300   26.2850   31.2170 F   0  0  0  0  0  0  0  0  0  0  0  0
  1  2  2  0  0  0  0
  1  6  1  0  0  0  0
  2  3  1  0  0  0  0
  3 22  1  0  0  0  0
  3  4  2  0  0  0  0
  5  4  1  0  0  0  0
  5 10  1  0  0  0  0
  6  5  2  0  0  0  0
  7  1  1  0  0  0  0
  8  9  1  0  0  0  0
  9 15  1  0  0  0  0
 10 11  1  0  0  0  0
 10  9  2  0  0  0  0
 11 12  2  0  0  0  0
 12 17  1  0  0  0  0
 12 13  1  0  0  0  0
 13 14  1  0  0  0  0
 15 13  2  0  0  0  0
 15 18  1  0  0  0  0
 16 11  1  0  0  0  0
 18 21  1  0  0  0  0
 18 19  1  0  0  0  0
 20 18  1  0  0  0  0
 22 23  1  0  0  0  0
 22 27  1  0  0  0  0
 23 24  1  0  0  0  0
 24 25  1  0  0  0  0
 25 26  1  0  0  0  0
 27 26  1  0  0  0  0
 28 29  1  0  0  0  0
 28  2  1  0  0  0  0
 30 28  1  0  0  0  0
 31 28  1  0  0  0  0
M  END
>  <minimizedAffinity>
-6.38304472

$$$$

 OpenBabel03272500203D

 31 33  0  0  0  0  0  0  0  0999 V2000
   36.1490   30.5290   31.1820 C   0  0  0  0  0  0  0  0  0  0  0  0
   36.6170   29.2290   30.9230 C   0  0  0  0  0  0  0  0  0  0  0  0
   36.0100   28.1650   31.5740 C   0  0  0  0  0  0  0  0  0  0  0  0
   34.9880   28.4090   32.4340 N   0  0  0  0  0  0  0  0  0  0  0  0
   34.5590   29.6530   32.6650 C   0  0  0  0  0  0  0  0  0  0  0  0
   35.1220   30.7200   32.0520 N   0  0  0  0  0  0  0  0  0  0  0  0
   36.5970   31.3840   30.6940 H   0  0  0  0  0  0  0  0  0  0  0  0
   35.2810   30.9190   35.3170 Cl  0  0  0  0  0  0  0  0  0  0  0  0
   33.6600   30.4260   34.8540 C   0  0  0  0  0  0  0  0  0  0  0  0
   33.4490   29.8540   33.6070 C   0  0  0  0  0  0  0  0  0  0  0  0
   32.1720   29.4420   33.1860 C   0  0  0  0  0  0  0  0  0  0  0  0
   31.1250   29.6350   34.0830 C   0  0  0  0  0  0  0  0  0  0  0  0
   31.3150   30.2000   35.3230 C   0  0  0  0  0  0  0  0  0  0  0  0
   29.9310   30.3950   36.3680 Cl  0  0  0  0  0  0  0  0  0  0  0  0
   32.5900   30.5900   35.6920 C   0  0  0  0  0  0  0  0  0  0  0  0
   32.0010   28.9950   32.2160 H   0  0  0  0  0  0  0  0  0  0  0  0
   30.1450   29.3180   33.7590 H   0  0  0  0  0  0  0  0  0  0  0  0
   32.8160   31.2030   37.0300 C   0  0  0  0  0  0  0  0  0  0  0  0
   32.0040   32.3290   37.1870 F   0  0  0  0  0  0  0  0  0  0  0  0
   34.1280   31.5340   37.2410 F   0  0  0  0  0  0  0  0  0  0  0  0
   32.4370   30.3110   38.0250 F   0  0  0  0  0  0  0  0  0  0  0  0
   36.4390   26.7900   31.3710 C   0  0  0  0  0  3  0  0  0  0  0  0
   37.1300   26.1510   32.5510 C   0  0  0  0  0  2  0  0  0  0  0  0
   37.9020   24.9410   32.0040 C   0  0  0  0  0  2  0  0  0  0  0  0
   37.0870   24.3120   30.8930 C   0  0  0  0  0  2  0  0  0  0  0  0
   35.5930   24.5070   31.0930 C   0  0  0  0  0  2  0  0  0  0  0  0
   35.1860   25.9590   31.0900 C   0  0  0  0  0  2  0  0  0  0  0  0
   37.7350   29.0340   29.9650 C   0  0  0  0  0  0  0  0  0  0  0  0
   37.3280   28.3820   28.8050 F   0  0  0  0  0  0  0  0  0  0  0  0
   38.2390   30.2730   29.6000 F   0  0  0  0  0  0  0  0  0  0  0  0
   38.7860   28.3180   30.5110 F   0  0  0  0  0  0  0  0  0  0  0  0
  1  6  1  0  0  0  0
  2  1  2  0  0  0  0
  2  3  1  0  0  0  0
  3  4  2  0  0  0  0
  4  5  1  0  0  0  0
  5 10  1  0  0  0  0
  6  5  2  0  0  0  0
  7  1  1  0  0  0  0
  9  8  1  0  0  0  0
  9 15  1  0  0  0  0
 10  9  2  0  0  0  0
 11 10  1  0  0  0  0
 11 12  2  0  0  0  0
 12 13  1  0  0  0  0
 13 15  2  0  0  0  0
 13 14  1  0  0  0  0
 15 18  1  0  0  0  0
 16 11  1  0  0  0  0
 17 12  1  0  0  0  0
 18 19  1  0  0  0  0
 18 20  1  0  0  0  0
 18 21  1  0  0  0  0
 22  3  1  0  0  0  0
 22 23  1  0  0  0  0
 24 23  1  0  0  0  0
 25 26  1  0  0  0  0
 25 24  1  0  0  0  0
 27 26  1  0  0  0  0
 27 22  1  0  0  0  0
 28 31  1  0  0  0  0
 28  2  1  0  0  0  0
 29 28  1  0  0  0  0
 30 28  1  0  0  0  0
M  END
>  <minimizedAffinity>
-6.3004446

$$$$

 OpenBabel03272500203D

 31 33  0  0  0  0  0  0  0  0999 V2000
   38.1500   25.9500   33.0170 C   0  0  0  0  0  0  0  0  0  0  0  0
   38.3620   25.6980   34.3830 C   0  0  0  0  0  0  0  0  0  0  0  0
   38.5360   24.3860   34.7960 C   0  0  0  0  0  0  0  0  0  0  0  0
   38.4970   23.3900   33.8740 N   0  0  0  0  0  0  0  0  0  0  0  0
   38.2940   23.6510   32.5800 C   0  0  0  0  0  0  0  0  0  0  0  0
   38.1210   24.9160   32.1340 N   0  0  0  0  0  0  0  0  0  0  0  0
   38.0110   26.9600   32.6570 H   0  0  0  0  0  0  0  0  0  0  0  0
   36.1550   21.5640   33.0580 Cl  0  0  0  0  0  0  0  0  0  0  0  0
   37.3250   21.5140   31.7490 C   0  0  0  0  0  0  0  0  0  0  0  0
   38.2630   22.5300   31.6290 C   0  0  0  0  0  0  0  0  0  0  0  0
   39.2210   22.5390   30.6000 C   0  0  0  0  0  0  0  0  0  0  0  0
   39.1860   21.4750   29.7040 C   0  0  0  0  0  0  0  0  0  0  0  0
   38.2640   20.4580   29.8060 C   0  0  0  0  0  0  0  0  0  0  0  0
   38.3110   19.1730   28.6260 Cl  0  0  0  0  0  0  0  0  0  0  0  0
   37.3410   20.4940   30.8360 C   0  0  0  0  0  0  0  0  0  0  0  0
   39.9540   23.3280   30.5020 H   0  0  0  0  0  0  0  0  0  0  0  0
   39.9220   21.4820   28.9130 H   0  0  0  0  0  0  0  0  0  0  0  0
   36.3360   19.4020   30.9630 C   0  0  0  0  0  0  0  0  0  0  0  0
   36.6400   18.5930   32.0610 F   0  0  0  0  0  0  0  0  0  0  0  0
   36.2410   18.6420   29.8280 F   0  0  0  0  0  0  0  0  0  0  0  0
   35.0830   19.9450   31.2170 F   0  0  0  0  0  0  0  0  0  0  0  0
   38.7500   24.0370   36.1920 C   0  0  0  0  0  3  0  0  0  0  0  0
   37.6660   23.1950   36.8190 C   0  0  0  0  0  2  0  0  0  0  0  0
   37.8220   23.3410   38.3400 C   0  0  0  0  0  2  0  0  0  0  0  0
   39.2990   23.4310   38.6660 C   0  0  0  0  0  2  0  0  0  0  0  0
   40.1570   22.6750   37.6640 C   0  0  0  0  0  2  0  0  0  0  0  0
   40.0410   23.2210   36.2640 C   0  0  0  0  0  2  0  0  0  0  0  0
   38.3990   26.8370   35.3370 C   0  0  0  0  0  0  0  0  0  0  0  0
   37.7180   27.9500   34.8550 F   0  0  0  0  0  0  0  0  0  0  0  0
   37.7960   26.4520   36.5240 F   0  0  0  0  0  0  0  0  0  0  0  0
   39.6890   27.2270   35.6500 F   0  0  0  0  0  0  0  0  0  0  0  0
  1  2  1  0  0  0  0
  2  3  2  0  0  0  0
  2 28  1  0  0  0  0
  3 22  1  0  0  0  0
  4  3  1  0  0  0  0
  5  4  2  0  0  0  0
  6  5  1  0  0  0  0
  6  1  2  0  0  0  0
  7  1  1  0  0  0  0
  9  8  1  0  0  0  0
 10  9  1  0  0  0  0
 10  5  1  0  0  0  0
 11 10  2  0  0  0  0
 12 13  2  0  0  0  0
 12 11  1  0  0  0  0
 13 15  1  0  0  0  0
 14 13  1  0  0  0  0
 15 18  1  0  0  0  0
 15  9  2  0  0  0  0
 16 11  1  0  0  0  0
 17 12  1  0  0  0  0
 18 21  1  0  0  0  0
 18 19  1  0  0  0  0
 20 18  1  0  0  0  0
 22 27  1  0  0  0  0
 22 23  1  0  0  0  0
 23 24  1  0  0  0  0
 24 25  1  0  0  0  0
 26 25  1  0  0  0  0
 27 26  1  0  0  0  0
 28 31  1  0  0  0  0
 28 30  1  0  0  0  0
 29 28  1  0  0  0  0
M  END
>  <minimizedAffinity>
-6.28464079

$$$$

 OpenBabel03272500203D

 31 33  0  0  0  0  0  0  0  0999 V2000
   37.7960   25.9870   33.2500 C   0  0  0  0  0  0  0  0  0  0  0  0
   38.1360   25.7440   34.5920 C   0  0  0  0  0  0  0  0  0  0  0  0
   38.2280   24.4300   35.0250 C   0  0  0  0  0  0  0  0  0  0  0  0
   37.9910   23.4230   34.1450 N   0  0  0  0  0  0  0  0  0  0  0  0
   37.6690   23.6770   32.8730 C   0  0  0  0  0  0  0  0  0  0  0  0
   37.5680   24.9430   32.4090 N   0  0  0  0  0  0  0  0  0  0  0  0
   37.7140   26.9980   32.8760 H   0  0  0  0  0  0  0  0  0  0  0  0
   40.0480   22.7210   31.2650 Cl  0  0  0  0  0  0  0  0  0  0  0  0
   38.4390   22.0210   31.1800 C   0  0  0  0  0  0  0  0  0  0  0  0
   37.4220   22.5450   31.9680 C   0  0  0  0  0  0  0  0  0  0  0  0
   36.1170   22.0230   31.9390 C   0  0  0  0  0  0  0  0  0  0  0  0
   35.8910   20.9520   31.0790 C   0  0  0  0  0  0  0  0  0  0  0  0
   36.8860   20.4190   30.2910 C   0  0  0  0  0  0  0  0  0  0  0  0
   36.4900   19.0750   29.2500 Cl  0  0  0  0  0  0  0  0  0  0  0  0
   38.1540   20.9670   30.3550 C   0  0  0  0  0  0  0  0  0  0  0  0
   35.3210   22.4270   32.5490 H   0  0  0  0  0  0  0  0  0  0  0  0
   34.8880   20.5520   31.0580 H   0  0  0  0  0  0  0  0  0  0  0  0
   39.2440   20.4040   29.5100 C   0  0  0  0  0  0  0  0  0  0  0  0
   39.6420   21.3400   28.5510 F   0  0  0  0  0  0  0  0  0  0  0  0
   38.8830   19.2310   28.9020 F   0  0  0  0  0  0  0  0  0  0  0  0
   40.3620   20.1510   30.2930 F   0  0  0  0  0  0  0  0  0  0  0  0
   38.5650   24.0910   36.3990 C   0  0  0  0  0  3  0  0  0  0  0  0
   37.5350   23.2640   37.1280 C   0  0  0  0  0  2  0  0  0  0  0  0
   37.8290   23.4210   38.6280 C   0  0  0  0  0  2  0  0  0  0  0  0
   39.3300   23.4990   38.8190 C   0  0  0  0  0  2  0  0  0  0  0  0
   40.0870   22.7270   37.7500 C   0  0  0  0  0  2  0  0  0  0  0  0
   39.8500   23.2620   36.3620 C   0  0  0  0  0  2  0  0  0  0  0  0
   38.3900   26.8930   35.4990 C   0  0  0  0  0  0  0  0  0  0  0  0
   38.0440   26.6100   36.8170 F   0  0  0  0  0  0  0  0  0  0  0  0
   39.7410   27.2010   35.4720 F   0  0  0  0  0  0  0  0  0  0  0  0
   37.7100   28.0350   35.1140 F   0  0  0  0  0  0  0  0  0  0  0  0
  1  2  1  0  0  0  0
  2  3  2  0  0  0  0
  2 28  1  0  0  0  0
  3 22  1  0  0  0  0
  4  3  1  0  0  0  0
  5  4  2  0  0  0  0
  6  5  1  0  0  0  0
  6  1  2  0  0  0  0
  7  1  1  0  0  0  0
  9  8  1  0  0  0  0
  9 10  1  0  0  0  0
 10  5  1  0  0  0  0
 11 10  2  0  0  0  0
 11 16  1  0  0  0  0
 12 11  1  0  0  0  0
 13 15  1  0  0  0  0
 13 12  2  0  0  0  0
 14 13  1  0  0  0  0
 15  9  2  0  0  0  0
 17 12  1  0  0  0  0
 18 21  1  0  0  0  0
 18 15  1  0  0  0  0
 19 18  1  0  0  0  0
 20 18  1  0  0  0  0
 22 23  1  0  0  0  0
 23 24  1  0  0  0  0
 24 25  1  0  0  0  0
 26 25  1  0  0  0  0
 27 22  1  0  0  0  0
 27 26  1  0  0  0  0
 28 29  1  0  0  0  0
 30 28  1  0  0  0  0
 31 28  1  0  0  0  0
M  END
>  <minimizedAffinity>
-6.28125811

$$$$

 OpenBabel03272500203D

 31 33  0  0  0  0  0  0  0  0999 V2000
   37.0310   28.3380   31.6970 C   0  0  0  0  0  0  0  0  0  0  0  0
   36.2110   29.3410   32.2420 C   0  0  0  0  0  0  0  0  0  0  0  0
   35.8890   29.2760   33.5890 C   0  0  0  0  0  0  0  0  0  0  0  0
   36.3750   28.2530   34.3380 N   0  0  0  0  0  0  0  0  0  0  0  0
   37.1540   27.3100   33.8010 C   0  0  0  0  0  0  0  0  0  0  0  0
   37.4920   27.3350   32.4910 N   0  0  0  0  0  0  0  0  0  0  0  0
   37.3040   28.3550   30.6510 H   0  0  0  0  0  0  0  0  0  0  0  0
   37.1640   24.5410   32.5790 Cl  0  0  0  0  0  0  0  0  0  0  0  0
   37.7000   24.9150   34.2090 C   0  0  0  0  0  0  0  0  0  0  0  0
   37.6490   26.2270   34.6620 C   0  0  0  0  0  0  0  0  0  0  0  0
   38.0650   26.5810   35.9580 C   0  0  0  0  0  0  0  0  0  0  0  0
   38.5320   25.5510   36.7680 C   0  0  0  0  0  0  0  0  0  0  0  0
   38.5900   24.2450   36.3370 C   0  0  0  0  0  0  0  0  0  0  0  0
   39.1940   23.0330   37.4380 Cl  0  0  0  0  0  0  0  0  0  0  0  0
   38.1700   23.9460   35.0530 C   0  0  0  0  0  0  0  0  0  0  0  0
   38.0270   27.6010   36.3170 H   0  0  0  0  0  0  0  0  0  0  0  0
   38.8510   25.8240   37.7630 H   0  0  0  0  0  0  0  0  0  0  0  0
   38.2250   22.5390   34.5690 C   0  0  0  0  0  0  0  0  0  0  0  0
   37.6130   21.6870   35.4920 F   0  0  0  0  0  0  0  0  0  0  0  0
   39.5050   22.1210   34.3180 F   0  0  0  0  0  0  0  0  0  0  0  0
   37.5000   22.4200   33.3910 F   0  0  0  0  0  0  0  0  0  0  0  0
   35.0380   30.2670   34.2290 C   0  0  0  0  0  3  0  0  0  0  0  0
   33.7420   29.7360   34.7900 C   0  0  0  0  0  2  0  0  0  0  0  0
   32.8140   30.9470   34.9720 C   0  0  0  0  0  2  0  0  0  0  0  0
   33.6510   32.1330   35.4050 C   0  0  0  0  0  2  0  0  0  0  0  0
   34.8780   31.7140   36.2000 C   0  0  0  0  0  2  0  0  0  0  0  0
   35.8230   30.8500   35.4050 C   0  0  0  0  0  2  0  0  0  0  0  0
   35.7200   30.4360   31.3650 C   0  0  0  0  0  0  0  0  0  0  0  0
   36.1580   31.6870   31.7900 F   0  0  0  0  0  0  0  0  0  0  0  0
   36.1950   30.2340   30.0790 F   0  0  0  0  0  0  0  0  0  0  0  0
   34.3390   30.4730   31.2820 F   0  0  0  0  0  0  0  0  0  0  0  0
  1  2  2  0  0  0  0
  1  6  1  0  0  0  0
  2  3  1  0  0  0  0
  3 22  1  0  0  0  0
  3  4  2  0  0  0  0
  5  4  1  0  0  0  0
  5 10  1  0  0  0  0
  6  5  2  0  0  0  0
  7  1  1  0  0  0  0
  8  9  1  0  0  0  0
  9 10  2  0  0  0  0
  9 15  1  0  0  0  0
 10 11  1  0  0  0  0
 11 16  1  0  0  0  0
 11 12  2  0  0  0  0
 12 17  1  0  0  0  0
 13 12  1  0  0  0  0
 13 14  1  0  0  0  0
 15 13  2  0  0  0  0
 18 15  1  0  0  0  0
 18 19  1  0  0  0  0
 20 18  1  0  0  0  0
 21 18  1  0  0  0  0
 22 23  1  0  0  0  0
 22 27  1  0  0  0  0
 23 24  1  0  0  0  0
 24 25  1  0  0  0  0
 25 26  1  0  0  0  0
 27 26  1  0  0  0  0
 28 29  1  0  0  0  0
 28  2  1  0  0  0  0
 30 28  1  0  0  0  0
 31 28  1  0  0  0  0
M  END
>  <minimizedAffinity>
-6.18696499

$$$$

 OpenBabel03272500203D

 31 33  0  0  0  0  0  0  0  0999 V2000
   36.7850   29.7010   31.1910 C   0  0  0  0  0  0  0  0  0  0  0  0
   36.0460   30.4790   32.0990 C   0  0  0  0  0  0  0  0  0  0  0  0
   35.6800   29.9130   33.3110 C   0  0  0  0  0  0  0  0  0  0  0  0
   36.0440   28.6340   33.5820 N   0  0  0  0  0  0  0  0  0  0  0  0
   36.7460   27.9120   32.7050 C   0  0  0  0  0  0  0  0  0  0  0  0
   37.1250   28.4240   31.5120 N   0  0  0  0  0  0  0  0  0  0  0  0
   37.0890   30.1070   30.2360 H   0  0  0  0  0  0  0  0  0  0  0  0
   38.2470   27.5570   35.3090 Cl  0  0  0  0  0  0  0  0  0  0  0  0
   37.8010   26.2470   34.2270 C   0  0  0  0  0  0  0  0  0  0  0  0
   37.1110   26.5320   33.0560 C   0  0  0  0  0  0  0  0  0  0  0  0
   36.7290   25.5220   32.1550 C   0  0  0  0  0  0  0  0  0  0  0  0
   37.0780   24.2170   32.4940 C   0  0  0  0  0  0  0  0  0  0  0  0
   37.7610   23.9160   33.6500 C   0  0  0  0  0  0  0  0  0  0  0  0
   38.1470   22.2450   33.9750 Cl  0  0  0  0  0  0  0  0  0  0  0  0
   38.1150   24.9450   34.5050 C   0  0  0  0  0  0  0  0  0  0  0  0
   36.1920   25.7370   31.2420 H   0  0  0  0  0  0  0  0  0  0  0  0
   36.7840   23.4420   31.8020 H   0  0  0  0  0  0  0  0  0  0  0  0
   38.8550   24.6380   35.7600 C   0  0  0  0  0  0  0  0  0  0  0  0
   40.2010   24.9890   35.6240 F   0  0  0  0  0  0  0  0  0  0  0  0
   38.7460   23.3230   36.1260 F   0  0  0  0  0  0  0  0  0  0  0  0
   38.3560   25.4110   36.8000 F   0  0  0  0  0  0  0  0  0  0  0  0
   34.9070   30.6450   34.3020 C   0  0  0  0  0  3  0  0  0  0  0  0
   33.8130   29.8540   34.9770 C   0  0  0  0  0  2  0  0  0  0  0  0
   32.8470   30.8780   35.5930 C   0  0  0  0  0  2  0  0  0  0  0  0
   33.6550   32.0560   36.1000 C   0  0  0  0  0  2  0  0  0  0  0  0
   35.0550   31.6510   36.5320 C   0  0  0  0  0  2  0  0  0  0  0  0
   35.8750   31.0850   35.4010 C   0  0  0  0  0  2  0  0  0  0  0  0
   35.6870   31.8750   31.7390 C   0  0  0  0  0  0  0  0  0  0  0  0
   36.3320   32.8090   32.5440 F   0  0  0  0  0  0  0  0  0  0  0  0
   36.0640   32.1150   30.4270 F   0  0  0  0  0  0  0  0  0  0  0  0
   34.3260   32.1110   31.8160 F   0  0  0  0  0  0  0  0  0  0  0  0
  1  6  2  0  0  0  0
  1  2  1  0  0  0  0
  2  3  2  0  0  0  0
  3  4  1  0  0  0  0
  3 22  1  0  0  0  0
  5 10  1  0  0  0  0
  5  4  2  0  0  0  0
  6  5  1  0  0  0  0
  7  1  1  0  0  0  0
  9 15  1  0  0  0  0
  9  8  1  0  0  0  0
 10  9  2  0  0  0  0
 11 12  2  0  0  0  0
 11 10  1  0  0  0  0
 12 13  1  0  0  0  0
 13 14  1  0  0  0  0
 13 15  2  0  0  0  0
 15 18  1  0  0  0  0
 16 11  1  0  0  0  0
 17 12  1  0  0  0  0
 18 20  1  0  0  0  0
 18 21  1  0  0  0  0
 19 18  1  0  0  0  0
 22 23  1  0  0  0  0
 22 27  1  0  0  0  0
 23 24  1  0  0  0  0
 24 25  1  0  0  0  0
 25 26  1  0  0  0  0
 27 26  1  0  0  0  0
 28 31  1  0  0  0  0
 28  2  1  0  0  0  0
 28 29  1  0  0  0  0
 30 28  1  0  0  0  0
M  END
>  <minimizedAffinity>
-6.03033972

$$$$

 OpenBabel03272500203D

 31 33  0  0  0  0  0  0  0  0999 V2000
   36.9870   29.3610   30.8050 C   0  0  0  0  0  0  0  0  0  0  0  0
   36.2550   30.1480   31.7110 C   0  0  0  0  0  0  0  0  0  0  0  0
   35.8280   29.5700   32.8970 C   0  0  0  0  0  0  0  0  0  0  0  0
   36.1290   28.2700   33.1470 N   0  0  0  0  0  0  0  0  0  0  0  0
   36.8270   27.5400   32.2730 C   0  0  0  0  0  0  0  0  0  0  0  0
   37.2620   28.0630   31.1040 N   0  0  0  0  0  0  0  0  0  0  0  0
   37.3370   29.7760   29.8700 H   0  0  0  0  0  0  0  0  0  0  0  0
   35.2360   25.4600   30.7550 Cl  0  0  0  0  0  0  0  0  0  0  0  0
   36.4540   25.0970   31.9680 C   0  0  0  0  0  0  0  0  0  0  0  0
   37.1210   26.1370   32.6000 C   0  0  0  0  0  0  0  0  0  0  0  0
   38.1050   25.9030   33.5780 C   0  0  0  0  0  0  0  0  0  0  0  0
   38.3790   24.5730   33.8830 C   0  0  0  0  0  0  0  0  0  0  0  0
   37.7280   23.5280   33.2660 C   0  0  0  0  0  0  0  0  0  0  0  0
   38.1520   21.8990   33.7260 Cl  0  0  0  0  0  0  0  0  0  0  0  0
   36.7680   23.8100   32.3110 C   0  0  0  0  0  0  0  0  0  0  0  0
   38.6280   26.7090   34.0740 H   0  0  0  0  0  0  0  0  0  0  0  0
   39.1350   24.3940   34.6330 H   0  0  0  0  0  0  0  0  0  0  0  0
   36.0530   22.6930   31.6330 C   0  0  0  0  0  0  0  0  0  0  0  0
   35.2530   22.0060   32.5510 F   0  0  0  0  0  0  0  0  0  0  0  0
   36.9080   21.8240   31.0100 F   0  0  0  0  0  0  0  0  0  0  0  0
   35.1900   23.2030   30.6720 F   0  0  0  0  0  0  0  0  0  0  0  0
   35.0570   30.3110   33.8830 C   0  0  0  0  0  3  0  0  0  0  0  0
   33.9690   29.5250   34.5730 C   0  0  0  0  0  2  0  0  0  0  0  0
   33.0030   30.5520   35.1810 C   0  0  0  0  0  2  0  0  0  0  0  0
   33.8080   31.7390   35.6700 C   0  0  0  0  0  2  0  0  0  0  0  0
   35.2120   31.3450   36.1000 C   0  0  0  0  0  2  0  0  0  0  0  0
   36.0290   30.7670   34.9720 C   0  0  0  0  0  2  0  0  0  0  0  0
   35.9670   31.5670   31.3760 C   0  0  0  0  0  0  0  0  0  0  0  0
   36.6820   32.4530   32.1750 F   0  0  0  0  0  0  0  0  0  0  0  0
   36.3240   31.8010   30.0570 F   0  0  0  0  0  0  0  0  0  0  0  0
   34.6230   31.8780   31.4890 F   0  0  0  0  0  0  0  0  0  0  0  0
  1  6  2  0  0  0  0
  1  2  1  0  0  0  0
  2  3  2  0  0  0  0
  3  4  1  0  0  0  0
  3 22  1  0  0  0  0
  5 10  1  0  0  0  0
  5  4  2  0  0  0  0
  6  5  1  0  0  0  0
  7  1  1  0  0  0  0
  8  9  1  0  0  0  0
  9 15  2  0  0  0  0
  9 10  1  0  0  0  0
 10 11  2  0  0  0  0
 11 12  1  0  0  0  0
 11 16  1  0  0  0  0
 12 17  1  0  0  0  0
 13 14  1  0  0  0  0
 13 12  2  0  0  0  0
 15 13  1  0  0  0  0
 18 15  1  0  0  0  0
 18 19  1  0  0  0  0
 20 18  1  0  0  0  0
 21 18  1  0  0  0  0
 22 23  1  0  0  0  0
 22 27  1  0  0  0  0
 23 24  1  0  0  0  0
 24 25  1  0  0  0  0
 25 26  1  0  0  0  0
 27 26  1  0  0  0  0
 28 31  1  0  0  0  0
 28  2  1  0  0  0  0
 28 29  1  0  0  0  0
 30 28  1  0  0  0  0
M  END
>  <minimizedAffinity>
-5.92627859

$$$$

 OpenBabel03272500203D

 31 33  0  0  0  0  0  0  0  0999 V2000
   36.9600   23.5440   31.9480 C   0  0  0  0  0  0  0  0  0  0  0  0
   36.3750   24.8160   31.8250 C   0  0  0  0  0  0  0  0  0  0  0  0
   36.9640   25.8820   32.4870 C   0  0  0  0  0  0  0  0  0  0  0  0
   38.0820   25.6680   33.2270 N   0  0  0  0  0  0  0  0  0  0  0  0
   38.6220   24.4500   33.3300 C   0  0  0  0  0  0  0  0  0  0  0  0
   38.0800   23.3820   32.7010 N   0  0  0  0  0  0  0  0  0  0  0  0
   36.5300   22.6880   31.4460 H   0  0  0  0  0  0  0  0  0  0  0  0
   38.3680   22.6040   35.7140 Cl  0  0  0  0  0  0  0  0  0  0  0  0
   39.8350   23.4580   35.2650 C   0  0  0  0  0  0  0  0  0  0  0  0
   39.8330   24.2810   34.1460 C   0  0  0  0  0  0  0  0  0  0  0  0
   40.9800   24.9870   33.7420 C   0  0  0  0  0  0  0  0  0  0  0  0
   42.1220   24.8220   34.5200 C   0  0  0  0  0  0  0  0  0  0  0  0
   42.1440   24.0110   35.6310 C   0  0  0  0  0  0  0  0  0  0  0  0
   43.6320   23.8780   36.5330 Cl  0  0  0  0  0  0  0  0  0  0  0  0
   40.9900   23.3360   35.9890 C   0  0  0  0  0  0  0  0  0  0  0  0
   40.9840   25.6300   32.8720 H   0  0  0  0  0  0  0  0  0  0  0  0
   43.0030   25.3650   34.2080 H   0  0  0  0  0  0  0  0  0  0  0  0
   40.9940   22.4540   37.1890 C   0  0  0  0  0  0  0  0  0  0  0  0
   40.3940   21.2290   36.8880 F   0  0  0  0  0  0  0  0  0  0  0  0
   40.3750   23.0310   38.2660 F   0  0  0  0  0  0  0  0  0  0  0  0
   42.3020   22.1670   37.5550 F   0  0  0  0  0  0  0  0  0  0  0  0
   36.4180   27.2290   32.4220 C   0  0  0  0  0  3  0  0  0  0  0  0
   36.5040   28.0210   33.7030 C   0  0  0  0  0  2  0  0  0  0  0  0
   35.4880   29.1670   33.5790 C   0  0  0  0  0  2  0  0  0  0  0  0
   35.4690   29.6390   32.1400 C   0  0  0  0  0  2  0  0  0  0  0  0
   36.8110   29.4450   31.4520 C   0  0  0  0  0  2  0  0  0  0  0  0
   37.2240   27.9970   31.3730 C   0  0  0  0  0  2  0  0  0  0  0  0
   35.1560   24.9800   30.9930 C   0  0  0  0  0  0  0  0  0  0  0  0
   35.3240   25.9320   29.9930 F   0  0  0  0  0  0  0  0  0  0  0  0
   34.8590   23.7720   30.3820 F   0  0  0  0  0  0  0  0  0  0  0  0
   34.0460   25.3360   31.7390 F   0  0  0  0  0  0  0  0  0  0  0  0
  1  6  1  0  0  0  0
  2  1  2  0  0  0  0
  2  3  1  0  0  0  0
  3  4  2  0  0  0  0
  4  5  1  0  0  0  0
  5 10  1  0  0  0  0
  6  5  2  0  0  0  0
  7  1  1  0  0  0  0
  9  8  1  0  0  0  0
  9 15  1  0  0  0  0
 10  9  2  0  0  0  0
 11 10  1  0  0  0  0
 11 12  2  0  0  0  0
 12 13  1  0  0  0  0
 13 15  2  0  0  0  0
 13 14  1  0  0  0  0
 15 18  1  0  0  0  0
 16 11  1  0  0  0  0
 17 12  1  0  0  0  0
 18 21  1  0  0  0  0
 18 20  1  0  0  0  0
 19 18  1  0  0  0  0
 22  3  1  0  0  0  0
 22 23  1  0  0  0  0
 24 23  1  0  0  0  0
 25 24  1  0  0  0  0
 26 25  1  0  0  0  0
 27 26  1  0  0  0  0
 27 22  1  0  0  0  0
 28 31  1  0  0  0  0
 28  2  1  0  0  0  0
 29 28  1  0  0  0  0
 30 28  1  0  0  0  0
M  END
>  <minimizedAffinity>
-5.89910555

$$$$
