
     RDKit          3D

 28 29  0  0  0  0  0  0  0  0999 V2000
   36.6303   29.7614   51.2742 C   0  0  0  0  0  0  0  0  0  0  0  0
   37.3721   30.1121   50.1226 C   0  0  0  0  0  0  0  0  0  0  0  0
   36.7983   29.7912   48.8792 C   0  0  0  0  0  0  0  0  0  0  0  0
   35.5934   29.1775   48.8510 N   0  0  0  0  0  0  0  0  0  0  0  0
   34.9214   28.8615   49.9667 C   0  0  0  0  0  0  0  0  0  0  0  0
   35.4331   29.1503   51.1909 N   0  0  0  0  0  0  0  0  0  0  0  0
   38.6394   30.7601   50.2604 N   0  0  0  0  0  0  0  0  0  0  0  0
   37.0167   29.9809   52.2585 H   0  0  0  0  0  0  0  0  0  0  0  0
   37.3737   30.0638   48.0093 H   0  0  0  0  0  0  0  0  0  0  0  0
   39.3475   30.5539   49.5220 H   0  0  0  0  0  0  0  0  0  0  0  0
   38.7814   31.3924   51.0789 H   0  0  0  0  0  0  0  0  0  0  0  0
   33.6285   28.1997   49.7965 C   0  0  0  0  0  0  0  0  0  0  0  0
   33.5987   27.1028   48.7914 C   0  0  0  0  0  0  0  0  0  0  0  0
   32.7827   25.9509   49.3502 C   0  0  0  0  0  0  0  0  0  0  0  0
   31.4615   26.4214   49.9093 C   0  0  0  0  0  0  0  0  0  0  0  0
   31.5985   27.5372   50.9154 C   0  0  0  0  0  0  0  0  0  0  0  0
   33.0912   27.7148   51.1407 C   0  0  0  0  0  0  0  0  0  0  0  0
   32.8857   28.9791   49.4588 H   0  0  0  0  0  0  0  0  0  0  0  0
   34.5969   26.7138   48.5275 H   0  0  0  0  0  0  0  0  0  0  0  0
   33.0557   27.4038   47.8547 H   0  0  0  0  0  0  0  0  0  0  0  0
   32.5175   25.3024   48.4693 H   0  0  0  0  0  0  0  0  0  0  0  0
   33.3567   25.3053   50.0198 H   0  0  0  0  0  0  0  0  0  0  0  0
   30.8661   26.7918   49.0497 H   0  0  0  0  0  0  0  0  0  0  0  0
   30.9972   25.5164   50.3825 H   0  0  0  0  0  0  0  0  0  0  0  0
   31.0752   27.3464   51.8529 H   0  0  0  0  0  0  0  0  0  0  0  0
   31.2442   28.5188   50.5042 H   0  0  0  0  0  0  0  0  0  0  0  0
   33.5567   26.7639   51.4441 H   0  0  0  0  0  0  0  0  0  0  0  0
   33.3223   28.4710   51.8895 H   0  0  0  0  0  0  0  0  0  0  0  0
  2  7  1  0
  2  1  2  0
  3  2  1  0
  4  3  2  0
  4  5  1  0
  5  6  2  0
  6  1  1  0
  1  8  1  0
  3  9  1  0
  7 10  1  0
  7 11  1  0
 12 13  1  0
 13 14  1  0
 14 15  1  0
 15 16  1  0
 16 17  1  0
 17 12  1  0
 12 18  1  0
 13 19  1  0
 13 20  1  0
 14 21  1  0
 14 22  1  0
 15 23  1  0
 15 24  1  0
 16 25  1  0
 16 26  1  0
 17 27  1  0
 17 28  1  0
  5 12  1  0
M  ISO  2   8  14   9  14
M  END
>  <DihAtoms>  (1) 
3,4,11,12

>  <DihDeg>  (1) 
-60.41612414131833

$$$$
