
 OpenBabel03272505463D

 22 24  0  0  0  0  0  0  0  0999 V2000
   35.8360   30.0240   47.6160 C   0  0  0  0  0  0  0  0  0  0  0  0
   34.7100   29.1240   47.6030 C   0  0  0  0  0  0  0  0  0  0  0  0
   34.4620   30.5360   48.0070 C   0  0  0  0  0  0  0  0  0  0  0  0
   34.3270   28.8170   46.5850 H   0  0  0  0  0  0  0  0  0  0  0  0
   34.5220   28.3640   48.3710 H   0  0  0  0  0  0  0  0  0  0  0  0
   34.0000   31.2350   47.2900 H   0  0  0  0  0  0  0  0  0  0  0  0
   34.2990   30.8240   49.0470 H   0  0  0  0  0  0  0  0  0  0  0  0
   37.9950   31.9470   45.3270 C   0  0  0  0  0  0  0  0  0  0  0  0
   37.5040   31.6580   44.0520 C   0  0  0  0  0  0  0  0  0  0  0  0
   36.4160   30.7790   43.9900 C   0  0  0  0  0  0  0  0  0  0  0  0
   35.9230   30.2760   45.1520 N   0  0  0  0  0  0  0  0  0  0  0  0
   36.4290   30.5800   46.3660 C   0  0  0  0  0  0  0  0  0  0  0  0
   37.4710   31.4210   46.4420 N   0  0  0  0  0  0  0  0  0  0  0  0
   38.8490   32.6300   45.4560 H   0  0  0  0  0  0  0  0  0  0  0  0
   37.9450   32.0940   43.1830 H   0  0  0  0  0  0  0  0  0  0  0  0
   35.9870   30.5130   43.0340 H   0  0  0  0  0  0  0  0  0  0  0  0
   36.8230   29.9230   48.7860 C   0  0  0  0  0  0  0  0  0  0  0  0
   36.3990   28.8710   49.7690 C   0  0  0  0  0  0  0  0  0  0  0  0
   37.3190   28.9050   50.9440 C   0  0  0  0  0  0  0  0  0  0  0  0
   37.4230   30.2660   51.5650 C   0  0  0  0  0  0  0  0  0  0  0  0
   37.9960   31.2060   50.5250 C   0  0  0  0  0  0  0  0  0  0  0  0
   36.9780   31.2900   49.4120 C   0  0  0  0  0  0  0  0  0  0  0  0
  1  3  1  0  0  0  0
  1 17  1  0  0  0  0
  2  1  1  0  0  0  0
  2  3  1  0  0  0  0
  2  5  1  0  0  0  0
  3  7  1  0  0  0  0
  4  2  1  0  0  0  0
  6  3  1  0  0  0  0
  8 14  1  0  0  0  0
  8 13  1  0  0  0  0
  9  8  2  0  0  0  0
 10  9  1  0  0  0  0
 10 11  2  0  0  0  0
 11 12  1  0  0  0  0
 12 13  2  0  0  0  0
 12  1  1  0  0  0  0
 15  9  1  0  0  0  0
 16 10  1  0  0  0  0
 17 22  1  0  0  0  0
 17 18  1  0  0  0  0
 18 19  1  0  0  0  0
 19 20  1  0  0  0  0
 21 20  1  0  0  0  0
 22 21  1  0  0  0  0
M  END
>  <minimizedAffinity>
-5.09896183

>  <minimizedRMSD>
3.72288084

$$$$
