
 OpenBabel03272506473D

 39 42  0  0  1  0  0  0  0  0999 V2000
   32.1220   28.4990   47.4400 C   0  0  2  0  0  0  0  0  0  0  0  0
   33.3700   28.3250   48.2540 C   0  0  1  0  0  0  0  0  0  0  0  0
   33.7580   27.0220   48.1570 O   0  0  0  0  0  0  0  0  0  0  0  0
   33.0520   26.4120   47.1260 C   0  0  0  0  0  0  0  0  0  0  0  0
   32.4460   27.5010   46.2830 C   0  0  1  0  0  0  0  0  0  0  0  0
   31.1970   28.1790   47.9060 H   0  0  0  0  0  0  0  0  0  0  0  0
   33.1770   28.6680   49.2920 H   0  0  0  0  0  0  0  0  0  0  0  0
   32.3740   25.6990   47.5650 H   0  0  0  0  0  0  0  0  0  0  0  0
   33.8040   25.8520   46.5040 H   0  0  0  0  0  0  0  0  0  0  0  0
   33.1520   28.0150   45.6390 H   0  0  0  0  0  0  0  0  0  0  0  0
   32.0510   29.8050   46.9110 O   0  0  0  0  0  0  0  0  0  0  0  0
   32.7070   29.8610   46.1810 H   0  0  0  0  0  0  0  0  0  0  0  0
   34.6780   29.3680   47.4940 S   0  0  0  0  0  0  0  0  0  0  0  0
   37.1010   29.2790   50.6280 C   0  0  0  0  0  0  0  0  0  0  0  0
   37.5860   30.5830   50.7440 C   0  0  0  0  0  0  0  0  0  0  0  0
   37.1490   31.5280   49.8190 C   0  0  0  0  0  0  0  0  0  0  0  0
   36.2730   31.1390   48.8490 N   0  0  0  0  0  0  0  0  0  0  0  0
   35.8280   29.8660   48.7710 C   0  0  0  0  0  0  0  0  0  0  0  0
   36.2340   28.9200   49.6570 N   0  0  0  0  0  0  0  0  0  0  0  0
   37.4650   28.5930   51.3600 H   0  0  0  0  0  0  0  0  0  0  0  0
   38.2860   30.8470   51.5380 H   0  0  0  0  0  0  0  0  0  0  0  0
   37.5100   32.5420   49.8890 H   0  0  0  0  0  0  0  0  0  0  0  0
   31.2940   27.0300   45.7020 O   0  0  0  0  0  0  0  0  0  0  0  0
   29.8720   29.1670   44.2590 Cl  0  0  0  0  0  0  0  0  0  0  0  0
   29.2960   28.1700   45.5740 C   0  0  0  0  0  0  0  0  0  0  0  0
   30.0570   27.1870   46.1640 C   0  0  0  0  0  0  0  0  0  0  0  0
   29.4780   26.4370   47.1900 C   0  0  0  0  0  0  0  0  0  0  0  0
   28.1820   26.6810   47.5920 C   0  0  0  0  0  0  0  0  0  0  0  0
   27.4090   27.6660   47.0040 C   0  0  0  0  0  0  0  0  0  0  0  0
   27.9880   28.4060   45.9900 C   0  0  0  0  0  0  0  0  0  0  0  0
   29.9990   25.6470   47.7020 H   0  0  0  0  0  0  0  0  0  0  0  0
   27.6950   26.1240   48.3800 H   0  0  0  0  0  0  0  0  0  0  0  0
   26.3940   27.8460   47.3310 H   0  0  0  0  0  0  0  0  0  0  0  0
   27.1620   29.4670   45.3560 C   0  0  0  0  0  3  0  0  0  0  0  0
   26.9750   29.2640   43.8790 C   0  0  0  0  0  2  0  0  0  0  0  0
   26.8180   30.6000   43.1500 C   0  0  0  0  0  2  0  0  0  0  0  0
   26.0320   31.5950   43.9570 C   0  0  0  0  0  2  0  0  0  0  0  0
   26.8280   31.9240   45.2010 C   0  0  0  0  0  2  0  0  0  0  0  0
   27.7960   30.8230   45.5480 C   0  0  0  0  0  2  0  0  0  0  0  0
  1  6  1  1  0  0  0
  1  2  1  0  0  0  0
  2  7  1  1  0  0  0
  3  2  1  0  0  0  0
  4  8  1  0  0  0  0
  4  3  1  0  0  0  0
  5 10  1  6  0  0  0
  5  4  1  0  0  0  0
  5  1  1  0  0  0  0
  9  4  1  0  0  0  0
 11  1  1  0  0  0  0
 12 11  1  0  0  0  0
 13  2  1  0  0  0  0
 13 18  1  0  0  0  0
 14 15  1  0  0  0  0
 14 20  1  0  0  0  0
 15 21  1  0  0  0  0
 16 22  1  0  0  0  0
 16 15  2  0  0  0  0
 17 16  1  0  0  0  0
 18 17  2  0  0  0  0
 18 19  1  0  0  0  0
 19 14  2  0  0  0  0
 23 26  1  0  0  0  0
 23  5  1  0  0  0  0
 24 25  1  0  0  0  0
 25 30  2  0  0  0  0
 25 26  1  0  0  0  0
 26 27  2  0  0  0  0
 27 28  1  0  0  0  0
 27 31  1  0  0  0  0
 28 32  1  0  0  0  0
 29 33  1  0  0  0  0
 29 28  2  0  0  0  0
 30 29  1  0  0  0  0
 34 39  1  0  0  0  0
 34 30  1  0  0  0  0
 35 34  1  0  0  0  0
 36 35  1  0  0  0  0
 36 37  1  0  0  0  0
 37 38  1  0  0  0  0
 38 39  1  0  0  0  0
M  END
>  <minimizedAffinity>
-5.24401903

>  <minimizedRMSD>
0.348817915

$$$$
