
 OpenBabel03272508073D

 32 35  0  0  0  0  0  0  0  0999 V2000
   35.5160   29.4070   31.9850 C   0  0  0  0  0  0  0  0  0  0  0  0
   36.2710   29.5010   30.8300 C   0  0  0  0  0  0  0  0  0  0  0  0
   36.6350   28.2290   30.3730 C   0  0  0  0  0  0  0  0  0  0  0  0
   36.0780   27.4150   31.2830 N   0  0  0  0  0  0  0  0  0  0  0  0
   35.4260   28.0950   32.2240 N   0  0  0  0  0  0  0  0  0  0  0  0
   36.5660   30.4180   30.3110 H   0  0  0  0  0  0  0  0  0  0  0  0
   37.2080   27.9120   29.5250 H   0  0  0  0  0  0  0  0  0  0  0  0
   34.9620   30.5130   32.7430 C   0  0  0  0  0  0  0  0  0  0  0  0
   35.5160   30.8160   34.0030 C   0  0  0  0  0  0  0  0  0  0  0  0
   34.9720   31.8810   34.7140 C   0  0  0  0  0  0  0  0  0  0  0  0
   33.9340   32.5710   34.1500 N   0  0  0  0  0  0  0  0  0  0  0  0
   33.4180   32.2610   32.9360 C   0  0  0  0  0  0  0  0  0  0  0  0
   33.9420   31.2290   32.2430 N   0  0  0  0  0  0  0  0  0  0  0  0
   36.3360   30.2530   34.4230 H   0  0  0  0  0  0  0  0  0  0  0  0
   32.5990   32.8480   32.5500 H   0  0  0  0  0  0  0  0  0  0  0  0
   35.5330   32.2240   36.0450 C   0  0  0  0  0  0  0  0  0  0  0  0
   36.6940   31.5010   36.1610 F   0  0  0  0  0  0  0  0  0  0  0  0
   35.8320   33.5800   36.1700 F   0  0  0  0  0  0  0  0  0  0  0  0
   34.6800   31.8400   37.0760 F   0  0  0  0  0  0  0  0  0  0  0  0
   36.1100   25.9480   31.3420 C   0  0  0  0  0  0  0  0  0  0  0  0
   34.9930   25.1700   30.9980 C   0  0  0  0  0  0  0  0  0  0  0  0
   35.0630   23.8370   31.0720 C   0  0  0  0  0  0  0  0  0  0  0  0
   36.2770   23.2190   31.5010 C   0  0  0  0  0  0  0  0  0  0  0  0
   37.3610   24.7070   31.8060 S   0  0  0  0  0  0  0  0  0  0  0  0
   34.0540   25.6200   30.6670 H   0  0  0  0  0  0  0  0  0  0  0  0
   34.3080   23.0970   30.8480 H   0  0  0  0  0  0  0  0  0  0  0  0
   36.7170   21.8950   31.6980 C   0  0  0  0  0  3  0  0  0  0  0  0
   36.6550   21.5770   33.1560 C   0  0  0  0  0  2  0  0  0  0  0  0
   35.4780   20.6530   33.4730 C   0  0  0  0  0  2  0  0  0  0  0  0
   35.8230   19.3170   32.8050 C   0  0  0  0  0  2  0  0  0  0  0  0
   36.0340   19.5080   31.3210 C   0  0  0  0  0  2  0  0  0  0  0  0
   35.8610   20.9410   30.8950 C   0  0  0  0  0  2  0  0  0  0  0  0
  1  5  2  0  0  0  0
  1  8  1  0  0  0  0
  2  1  1  0  0  0  0
  3  2  2  0  0  0  0
  3  4  1  0  0  0  0
  4 20  1  0  0  0  0
  4  5  1  0  0  0  0
  6  2  1  0  0  0  0
  7  3  1  0  0  0  0
  8  9  1  0  0  0  0
  9 14  1  0  0  0  0
  9 10  2  0  0  0  0
 10 16  1  0  0  0  0
 11 10  1  0  0  0  0
 12 11  2  0  0  0  0
 13  8  2  0  0  0  0
 13 12  1  0  0  0  0
 15 12  1  0  0  0  0
 16 17  1  0  0  0  0
 16 18  1  0  0  0  0
 16 19  1  0  0  0  0
 20 24  1  0  0  0  0
 21 22  1  0  0  0  0
 21 20  2  0  0  0  0
 22 23  2  0  0  0  0
 23 27  1  0  0  0  0
 23 24  1  0  0  0  0
 25 21  1  0  0  0  0
 26 22  1  0  0  0  0
 27 28  1  0  0  0  0
 28 29  1  0  0  0  0
 30 29  1  0  0  0  0
 31 30  1  0  0  0  0
 32 31  1  0  0  0  0
 32 27  1  0  0  0  0
M  END
>  <minimizedAffinity>
-6.38336945

$$$$

 OpenBabel03272508073D

 32 35  0  0  0  0  0  0  0  0999 V2000
   37.4290   26.3930   34.3630 C   0  0  0  0  0  0  0  0  0  0  0  0
   37.4400   26.6690   33.0080 C   0  0  0  0  0  0  0  0  0  0  0  0
   36.7730   27.8720   32.7440 C   0  0  0  0  0  0  0  0  0  0  0  0
   36.3850   28.2710   33.9660 N   0  0  0  0  0  0  0  0  0  0  0  0
   36.7640   27.4130   34.9110 N   0  0  0  0  0  0  0  0  0  0  0  0
   37.8930   26.0640   32.2170 H   0  0  0  0  0  0  0  0  0  0  0  0
   36.5830   28.3970   31.8310 H   0  0  0  0  0  0  0  0  0  0  0  0
   38.0210   25.2360   35.0090 C   0  0  0  0  0  0  0  0  0  0  0  0
   37.8680   25.0860   36.4020 C   0  0  0  0  0  0  0  0  0  0  0  0
   38.4410   23.9710   37.0040 C   0  0  0  0  0  0  0  0  0  0  0  0
   39.1190   23.0860   36.2100 N   0  0  0  0  0  0  0  0  0  0  0  0
   39.2530   23.2510   34.8720 C   0  0  0  0  0  0  0  0  0  0  0  0
   38.6980   24.3320   34.2840 N   0  0  0  0  0  0  0  0  0  0  0  0
   37.3270   25.8030   37.0030 H   0  0  0  0  0  0  0  0  0  0  0  0
   39.8000   22.5130   34.3060 H   0  0  0  0  0  0  0  0  0  0  0  0
   38.2980   23.7850   38.4700 C   0  0  0  0  0  0  0  0  0  0  0  0
   37.9240   25.0090   38.9690 F   0  0  0  0  0  0  0  0  0  0  0  0
   37.3230   22.8460   38.8020 F   0  0  0  0  0  0  0  0  0  0  0  0
   39.5070   23.4290   39.0620 F   0  0  0  0  0  0  0  0  0  0  0  0
   35.6370   29.4770   34.3410 C   0  0  0  0  0  0  0  0  0  0  0  0
   34.3090   29.6800   33.9320 C   0  0  0  0  0  0  0  0  0  0  0  0
   33.6670   30.7970   34.2900 C   0  0  0  0  0  0  0  0  0  0  0  0
   34.3410   31.7720   35.0870 C   0  0  0  0  0  0  0  0  0  0  0  0
   36.0140   30.9750   35.3080 S   0  0  0  0  0  0  0  0  0  0  0  0
   33.7730   28.9500   33.3230 H   0  0  0  0  0  0  0  0  0  0  0  0
   32.6570   31.1100   34.0660 H   0  0  0  0  0  0  0  0  0  0  0  0
   34.0080   33.0240   35.6410 C   0  0  0  0  0  3  0  0  0  0  0  0
   32.5860   33.3380   35.3040 C   0  0  0  0  0  2  0  0  0  0  0  0
   31.6770   33.1700   36.5230 C   0  0  0  0  0  2  0  0  0  0  0  0
   32.0950   34.2820   37.4920 C   0  0  0  0  0  2  0  0  0  0  0  0
   33.5610   34.1600   37.8350 C   0  0  0  0  0  2  0  0  0  0  0  0
   34.2210   33.0010   37.1370 C   0  0  0  0  0  2  0  0  0  0  0  0
  1  5  2  0  0  0  0
  1  8  1  0  0  0  0
  2  1  1  0  0  0  0
  3  2  2  0  0  0  0
  3  4  1  0  0  0  0
  4 20  1  0  0  0  0
  4  5  1  0  0  0  0
  6  2  1  0  0  0  0
  7  3  1  0  0  0  0
  8  9  1  0  0  0  0
  9 14  1  0  0  0  0
  9 10  2  0  0  0  0
 10 16  1  0  0  0  0
 11 10  1  0  0  0  0
 12 11  2  0  0  0  0
 13 12  1  0  0  0  0
 13  8  2  0  0  0  0
 15 12  1  0  0  0  0
 16 18  1  0  0  0  0
 16 17  1  0  0  0  0
 16 19  1  0  0  0  0
 20 24  1  0  0  0  0
 21 22  1  0  0  0  0
 21 20  2  0  0  0  0
 22 23  2  0  0  0  0
 23 24  1  0  0  0  0
 23 27  1  0  0  0  0
 25 21  1  0  0  0  0
 26 22  1  0  0  0  0
 27 32  1  0  0  0  0
 28 27  1  0  0  0  0
 28 29  1  0  0  0  0
 29 30  1  0  0  0  0
 30 31  1  0  0  0  0
 32 31  1  0  0  0  0
M  END
>  <minimizedAffinity>
-6.36341333

$$$$

 OpenBabel03272508073D

 32 35  0  0  0  0  0  0  0  0999 V2000
   37.5580   24.0990   31.3280 C   0  0  0  0  0  0  0  0  0  0  0  0
   38.3060   24.8720   30.4600 C   0  0  0  0  0  0  0  0  0  0  0  0
   38.2010   26.2280   30.7900 C   0  0  0  0  0  0  0  0  0  0  0  0
   37.3840   26.2120   31.8560 N   0  0  0  0  0  0  0  0  0  0  0  0
   37.0070   24.9760   32.1720 N   0  0  0  0  0  0  0  0  0  0  0  0
   38.9110   24.5180   29.6190 H   0  0  0  0  0  0  0  0  0  0  0  0
   38.6320   27.1050   30.3520 H   0  0  0  0  0  0  0  0  0  0  0  0
   37.4260   22.6540   31.2970 C   0  0  0  0  0  0  0  0  0  0  0  0
   36.4640   22.0440   32.1270 C   0  0  0  0  0  0  0  0  0  0  0  0
   36.3500   20.6580   32.0820 C   0  0  0  0  0  0  0  0  0  0  0  0
   37.1770   19.9700   31.2370 N   0  0  0  0  0  0  0  0  0  0  0  0
   38.0950   20.5790   30.4480 C   0  0  0  0  0  0  0  0  0  0  0  0
   38.2080   21.9230   30.4880 N   0  0  0  0  0  0  0  0  0  0  0  0
   35.8250   22.6140   32.7850 H   0  0  0  0  0  0  0  0  0  0  0  0
   38.7140   19.9740   29.8040 H   0  0  0  0  0  0  0  0  0  0  0  0
   35.3470   19.9860   32.9460 C   0  0  0  0  0  0  0  0  0  0  0  0
   34.1420   20.1310   32.3040 F   0  0  0  0  0  0  0  0  0  0  0  0
   35.6070   18.6270   33.1170 F   0  0  0  0  0  0  0  0  0  0  0  0
   35.2490   20.6000   34.1920 F   0  0  0  0  0  0  0  0  0  0  0  0
   36.8990   27.3440   32.6550 C   0  0  0  0  0  0  0  0  0  0  0  0
   36.9320   27.3260   34.0580 C   0  0  0  0  0  0  0  0  0  0  0  0
   36.4740   28.3760   34.7480 C   0  0  0  0  0  0  0  0  0  0  0  0
   35.9540   29.5060   34.0460 C   0  0  0  0  0  0  0  0  0  0  0  0
   36.1650   28.9680   32.2720 S   0  0  0  0  0  0  0  0  0  0  0  0
   37.3240   26.4730   34.6170 H   0  0  0  0  0  0  0  0  0  0  0  0
   36.4250   28.5270   35.8170 H   0  0  0  0  0  0  0  0  0  0  0  0
   35.4030   30.7510   34.4110 C   0  0  0  0  0  3  0  0  0  0  0  0
   33.9140   30.6340   34.4260 C   0  0  0  0  0  2  0  0  0  0  0  0
   33.3750   30.5930   35.8580 C   0  0  0  0  0  2  0  0  0  0  0  0
   33.6550   31.9860   36.4330 C   0  0  0  0  0  2  0  0  0  0  0  0
   35.1330   32.2940   36.3720 C   0  0  0  0  0  2  0  0  0  0  0  0
   35.9310   31.1730   35.7640 C   0  0  0  0  0  2  0  0  0  0  0  0
  1  5  2  0  0  0  0
  2  3  2  0  0  0  0
  2  1  1  0  0  0  0
  3  4  1  0  0  0  0
  4  5  1  0  0  0  0
  4 20  1  0  0  0  0
  6  2  1  0  0  0  0
  7  3  1  0  0  0  0
  8  1  1  0  0  0  0
  8  9  1  0  0  0  0
  9 14  1  0  0  0  0
 10  9  2  0  0  0  0
 10 16  1  0  0  0  0
 11 10  1  0  0  0  0
 12 13  1  0  0  0  0
 12 11  2  0  0  0  0
 13  8  2  0  0  0  0
 15 12  1  0  0  0  0
 16 18  1  0  0  0  0
 16 19  1  0  0  0  0
 17 16  1  0  0  0  0
 20 21  2  0  0  0  0
 21 25  1  0  0  0  0
 21 22  1  0  0  0  0
 22 26  1  0  0  0  0
 23 27  1  0  0  0  0
 23 22  2  0  0  0  0
 24 20  1  0  0  0  0
 24 23  1  0  0  0  0
 27 28  1  0  0  0  0
 27 32  1  0  0  0  0
 28 29  1  0  0  0  0
 29 30  1  0  0  0  0
 31 30  1  0  0  0  0
 32 31  1  0  0  0  0
M  END
>  <minimizedAffinity>
-6.16921329

$$$$

 OpenBabel03272508073D

 32 35  0  0  0  0  0  0  0  0999 V2000
   37.8190   26.2180   34.1900 C   0  0  0  0  0  0  0  0  0  0  0  0
   38.2310   26.6120   32.9310 C   0  0  0  0  0  0  0  0  0  0  0  0
   37.4870   27.7120   32.4890 C   0  0  0  0  0  0  0  0  0  0  0  0
   36.6490   27.9350   33.5150 N   0  0  0  0  0  0  0  0  0  0  0  0
   36.8390   27.0680   34.5070 N   0  0  0  0  0  0  0  0  0  0  0  0
   39.0220   26.1570   32.3260 H   0  0  0  0  0  0  0  0  0  0  0  0
   37.5220   28.2800   31.5820 H   0  0  0  0  0  0  0  0  0  0  0  0
   38.3590   25.1160   34.9660 C   0  0  0  0  0  0  0  0  0  0  0  0
   38.0410   25.0340   36.3370 C   0  0  0  0  0  0  0  0  0  0  0  0
   38.5660   23.9700   37.0630 C   0  0  0  0  0  0  0  0  0  0  0  0
   39.3570   23.0680   36.4070 N   0  0  0  0  0  0  0  0  0  0  0  0
   39.6490   23.1680   35.0880 C   0  0  0  0  0  0  0  0  0  0  0  0
   39.1420   24.1980   34.3790 N   0  0  0  0  0  0  0  0  0  0  0  0
   37.4130   25.7620   36.8280 H   0  0  0  0  0  0  0  0  0  0  0  0
   40.2800   22.4200   34.6330 H   0  0  0  0  0  0  0  0  0  0  0  0
   38.2500   23.8570   38.5100 C   0  0  0  0  0  0  0  0  0  0  0  0
   39.4240   23.4950   39.1230 F   0  0  0  0  0  0  0  0  0  0  0  0
   37.8040   25.0580   39.0610 F   0  0  0  0  0  0  0  0  0  0  0  0
   37.3110   22.8580   38.7530 F   0  0  0  0  0  0  0  0  0  0  0  0
   35.6170   28.9710   33.6450 C   0  0  0  0  0  0  0  0  0  0  0  0
   35.6560   29.9270   34.6730 C   0  0  0  0  0  0  0  0  0  0  0  0
   34.6910   30.8500   34.7600 C   0  0  0  0  0  0  0  0  0  0  0  0
   33.6310   30.8500   33.8020 C   0  0  0  0  0  0  0  0  0  0  0  0
   34.1050   29.4030   32.7250 S   0  0  0  0  0  0  0  0  0  0  0  0
   36.4560   29.9460   35.4160 H   0  0  0  0  0  0  0  0  0  0  0  0
   34.5670   31.6470   35.4770 H   0  0  0  0  0  0  0  0  0  0  0  0
   32.4810   31.6330   33.5760 C   0  0  0  0  0  3  0  0  0  0  0  0
   31.6170   30.9420   32.5720 C   0  0  0  0  0  2  0  0  0  0  0  0
   30.3900   30.3130   33.2350 C   0  0  0  0  0  2  0  0  0  0  0  0
   29.5430   31.4950   33.7190 C   0  0  0  0  0  2  0  0  0  0  0  0
   30.3400   32.3630   34.6650 C   0  0  0  0  0  2  0  0  0  0  0  0
   31.7390   31.8500   34.8760 C   0  0  0  0  0  2  0  0  0  0  0  0
  1  5  2  0  0  0  0
  1  8  1  0  0  0  0
  2  1  1  0  0  0  0
  3  2  2  0  0  0  0
  3  4  1  0  0  0  0
  4 20  1  0  0  0  0
  4  5  1  0  0  0  0
  6  2  1  0  0  0  0
  7  3  1  0  0  0  0
  8  9  1  0  0  0  0
  9 14  1  0  0  0  0
  9 10  2  0  0  0  0
 10 16  1  0  0  0  0
 11 10  1  0  0  0  0
 12 11  2  0  0  0  0
 13  8  2  0  0  0  0
 13 12  1  0  0  0  0
 15 12  1  0  0  0  0
 16 19  1  0  0  0  0
 16 18  1  0  0  0  0
 16 17  1  0  0  0  0
 20 21  2  0  0  0  0
 21 22  1  0  0  0  0
 21 25  1  0  0  0  0
 22 26  1  0  0  0  0
 23 22  2  0  0  0  0
 24 20  1  0  0  0  0
 24 23  1  0  0  0  0
 27 23  1  0  0  0  0
 27 32  1  0  0  0  0
 28 29  1  0  0  0  0
 28 27  1  0  0  0  0
 29 30  1  0  0  0  0
 30 31  1  0  0  0  0
 31 32  1  0  0  0  0
M  END
>  <minimizedAffinity>
-6.11567831

$$$$

 OpenBabel03272508073D

 32 35  0  0  0  0  0  0  0  0999 V2000
   35.5890   29.2010   33.5920 C   0  0  0  0  0  0  0  0  0  0  0  0
   36.1210   28.9700   32.3370 C   0  0  0  0  0  0  0  0  0  0  0  0
   37.0050   27.8850   32.3680 C   0  0  0  0  0  0  0  0  0  0  0  0
   36.9670   27.5060   33.6560 N   0  0  0  0  0  0  0  0  0  0  0  0
   36.1440   28.2690   34.3720 N   0  0  0  0  0  0  0  0  0  0  0  0
   35.9110   29.5290   31.4210 H   0  0  0  0  0  0  0  0  0  0  0  0
   37.5940   27.4220   31.6030 H   0  0  0  0  0  0  0  0  0  0  0  0
   34.6380   30.2380   33.9450 C   0  0  0  0  0  0  0  0  0  0  0  0
   34.5610   30.6590   35.2880 C   0  0  0  0  0  0  0  0  0  0  0  0
   33.6450   31.6560   35.6070 C   0  0  0  0  0  0  0  0  0  0  0  0
   32.8730   32.1690   34.6010 N   0  0  0  0  0  0  0  0  0  0  0  0
   32.9640   31.7480   33.3160 C   0  0  0  0  0  0  0  0  0  0  0  0
   33.8520   30.7820   33.0020 N   0  0  0  0  0  0  0  0  0  0  0  0
   35.1840   30.2340   36.0620 H   0  0  0  0  0  0  0  0  0  0  0  0
   32.3250   32.1970   32.5720 H   0  0  0  0  0  0  0  0  0  0  0  0
   33.5400   32.1190   37.0130 C   0  0  0  0  0  0  0  0  0  0  0  0
   34.8310   32.2410   37.4660 F   0  0  0  0  0  0  0  0  0  0  0  0
   32.9030   33.3550   37.1280 F   0  0  0  0  0  0  0  0  0  0  0  0
   32.8880   31.1850   37.8150 F   0  0  0  0  0  0  0  0  0  0  0  0
   37.6890   26.4080   34.3090 C   0  0  0  0  0  0  0  0  0  0  0  0
   37.9100   26.3900   35.6960 C   0  0  0  0  0  0  0  0  0  0  0  0
   38.5790   25.3740   36.2500 C   0  0  0  0  0  0  0  0  0  0  0  0
   39.0610   24.3150   35.4220 C   0  0  0  0  0  0  0  0  0  0  0  0
   38.4840   24.8710   33.7370 S   0  0  0  0  0  0  0  0  0  0  0  0
   37.5510   27.1890   36.3490 H   0  0  0  0  0  0  0  0  0  0  0  0
   38.8350   25.2040   37.2860 H   0  0  0  0  0  0  0  0  0  0  0  0
   39.7790   23.1210   35.6330 C   0  0  0  0  0  3  0  0  0  0  0  0
   41.1150   23.2370   34.9750 C   0  0  0  0  0  2  0  0  0  0  0  0
   42.2260   23.4440   36.0060 C   0  0  0  0  0  2  0  0  0  0  0  0
   42.2990   22.1280   36.7880 C   0  0  0  0  0  2  0  0  0  0  0  0
   40.9630   21.8150   37.4210 C   0  0  0  0  0  2  0  0  0  0  0  0
   39.9230   22.8590   37.1150 C   0  0  0  0  0  2  0  0  0  0  0  0
  1  8  1  0  0  0  0
  1  5  2  0  0  0  0
  2  3  2  0  0  0  0
  2  1  1  0  0  0  0
  3  4  1  0  0  0  0
  4 20  1  0  0  0  0
  4  5  1  0  0  0  0
  6  2  1  0  0  0  0
  7  3  1  0  0  0  0
  8  9  1  0  0  0  0
  9 10  2  0  0  0  0
  9 14  1  0  0  0  0
 10 16  1  0  0  0  0
 11 10  1  0  0  0  0
 12 11  2  0  0  0  0
 13 12  1  0  0  0  0
 13  8  2  0  0  0  0
 15 12  1  0  0  0  0
 16 18  1  0  0  0  0
 16 17  1  0  0  0  0
 16 19  1  0  0  0  0
 20 21  2  0  0  0  0
 21 22  1  0  0  0  0
 21 25  1  0  0  0  0
 22 26  1  0  0  0  0
 23 27  1  0  0  0  0
 23 22  2  0  0  0  0
 24 20  1  0  0  0  0
 24 23  1  0  0  0  0
 27 32  1  0  0  0  0
 28 27  1  0  0  0  0
 28 29  1  0  0  0  0
 29 30  1  0  0  0  0
 30 31  1  0  0  0  0
 32 31  1  0  0  0  0
M  END
>  <minimizedAffinity>
-6.10341311

$$$$

 OpenBabel03272508073D

 32 35  0  0  0  0  0  0  0  0999 V2000
   37.5890   25.3230   33.8290 C   0  0  0  0  0  0  0  0  0  0  0  0
   37.3160   25.1590   32.4840 C   0  0  0  0  0  0  0  0  0  0  0  0
   36.7840   26.3350   31.9410 C   0  0  0  0  0  0  0  0  0  0  0  0
   36.7600   27.1650   32.9960 N   0  0  0  0  0  0  0  0  0  0  0  0
   37.2270   26.5810   34.0970 N   0  0  0  0  0  0  0  0  0  0  0  0
   37.4760   24.2560   31.8860 H   0  0  0  0  0  0  0  0  0  0  0  0
   36.4590   26.5800   30.9500 H   0  0  0  0  0  0  0  0  0  0  0  0
   38.1470   24.3240   34.7220 C   0  0  0  0  0  0  0  0  0  0  0  0
   37.9840   24.4910   36.1120 C   0  0  0  0  0  0  0  0  0  0  0  0
   38.5240   23.5230   36.9510 C   0  0  0  0  0  0  0  0  0  0  0  0
   39.1800   22.4670   36.3810 N   0  0  0  0  0  0  0  0  0  0  0  0
   39.3240   22.3270   35.0410 C   0  0  0  0  0  0  0  0  0  0  0  0
   38.8010   23.2640   34.2230 N   0  0  0  0  0  0  0  0  0  0  0  0
   37.4610   25.3370   36.5340 H   0  0  0  0  0  0  0  0  0  0  0  0
   39.8520   21.4680   34.6580 H   0  0  0  0  0  0  0  0  0  0  0  0
   38.3700   23.6710   38.4210 C   0  0  0  0  0  0  0  0  0  0  0  0
   37.9940   24.9750   38.6290 F   0  0  0  0  0  0  0  0  0  0  0  0
   37.3910   22.8300   38.9480 F   0  0  0  0  0  0  0  0  0  0  0  0
   39.5740   23.4570   39.0870 F   0  0  0  0  0  0  0  0  0  0  0  0
   36.3030   28.5590   33.0530 C   0  0  0  0  0  0  0  0  0  0  0  0
   36.3650   29.4040   31.9330 C   0  0  0  0  0  0  0  0  0  0  0  0
   35.9450   30.6700   32.0310 C   0  0  0  0  0  0  0  0  0  0  0  0
   35.4360   31.1480   33.2770 C   0  0  0  0  0  0  0  0  0  0  0  0
   35.5960   29.6280   34.3480 S   0  0  0  0  0  0  0  0  0  0  0  0
   36.7500   29.0610   30.9700 H   0  0  0  0  0  0  0  0  0  0  0  0
   35.9230   31.4450   31.2790 H   0  0  0  0  0  0  0  0  0  0  0  0
   34.9200   32.3710   33.7500 C   0  0  0  0  0  3  0  0  0  0  0  0
   35.1260   32.4420   35.2280 C   0  0  0  0  0  2  0  0  0  0  0  0
   36.2560   33.4100   35.5850 C   0  0  0  0  0  2  0  0  0  0  0  0
   35.7320   34.7990   35.2040 C   0  0  0  0  0  2  0  0  0  0  0  0
   35.3660   34.8410   33.7390 C   0  0  0  0  0  2  0  0  0  0  0  0
   35.6000   33.5250   33.0490 C   0  0  0  0  0  2  0  0  0  0  0  0
  1  5  2  0  0  0  0
  1  8  1  0  0  0  0
  2  1  1  0  0  0  0
  3  2  2  0  0  0  0
  3  4  1  0  0  0  0
  4 20  1  0  0  0  0
  4  5  1  0  0  0  0
  6  2  1  0  0  0  0
  7  3  1  0  0  0  0
  8  9  1  0  0  0  0
  9 14  1  0  0  0  0
  9 10  2  0  0  0  0
 10 16  1  0  0  0  0
 11 10  1  0  0  0  0
 12 11  2  0  0  0  0
 13  8  2  0  0  0  0
 13 12  1  0  0  0  0
 15 12  1  0  0  0  0
 16 17  1  0  0  0  0
 16 18  1  0  0  0  0
 16 19  1  0  0  0  0
 20 24  1  0  0  0  0
 21 22  1  0  0  0  0
 21 20  2  0  0  0  0
 22 23  2  0  0  0  0
 23 27  1  0  0  0  0
 23 24  1  0  0  0  0
 25 21  1  0  0  0  0
 26 22  1  0  0  0  0
 27 28  1  0  0  0  0
 28 29  1  0  0  0  0
 30 29  1  0  0  0  0
 31 30  1  0  0  0  0
 32 31  1  0  0  0  0
 32 27  1  0  0  0  0
M  END
>  <minimizedAffinity>
-6.0907979

$$$$

 OpenBabel03272508073D

 32 35  0  0  0  0  0  0  0  0999 V2000
   37.9580   24.8880   33.8180 C   0  0  0  0  0  0  0  0  0  0  0  0
   37.6770   24.4880   32.5250 C   0  0  0  0  0  0  0  0  0  0  0  0
   37.1480   25.5510   31.7830 C   0  0  0  0  0  0  0  0  0  0  0  0
   37.1340   26.5570   32.6730 N   0  0  0  0  0  0  0  0  0  0  0  0
   37.6040   26.1760   33.8580 N   0  0  0  0  0  0  0  0  0  0  0  0
   37.8290   23.4920   32.0980 H   0  0  0  0  0  0  0  0  0  0  0  0
   36.8190   25.6170   30.7660 H   0  0  0  0  0  0  0  0  0  0  0  0
   38.5160   24.0620   34.8720 C   0  0  0  0  0  0  0  0  0  0  0  0
   38.1510   24.3280   36.2080 C   0  0  0  0  0  0  0  0  0  0  0  0
   38.6940   23.5240   37.2040 C   0  0  0  0  0  0  0  0  0  0  0  0
   39.5490   22.5240   36.8310 N   0  0  0  0  0  0  0  0  0  0  0  0
   39.8860   22.2860   35.5400 C   0  0  0  0  0  0  0  0  0  0  0  0
   39.3610   23.0630   34.5710 N   0  0  0  0  0  0  0  0  0  0  0  0
   37.4730   25.1270   36.4710 H   0  0  0  0  0  0  0  0  0  0  0  0
   40.5660   21.4790   35.3170 H   0  0  0  0  0  0  0  0  0  0  0  0
   38.3300   23.7810   38.6200 C   0  0  0  0  0  0  0  0  0  0  0  0
   37.4110   22.8160   38.9520 F   0  0  0  0  0  0  0  0  0  0  0  0
   39.4200   23.6820   39.4840 F   0  0  0  0  0  0  0  0  0  0  0  0
   37.7250   25.0260   38.7760 F   0  0  0  0  0  0  0  0  0  0  0  0
   36.6850   27.9410   32.4820 C   0  0  0  0  0  0  0  0  0  0  0  0
   36.0430   28.6570   33.5060 C   0  0  0  0  0  0  0  0  0  0  0  0
   35.6440   29.9150   33.2880 C   0  0  0  0  0  0  0  0  0  0  0  0
   35.8780   30.5160   32.0130 C   0  0  0  0  0  0  0  0  0  0  0  0
   36.7350   29.1310   31.1030 S   0  0  0  0  0  0  0  0  0  0  0  0
   35.8530   28.2190   34.4880 H   0  0  0  0  0  0  0  0  0  0  0  0
   35.1410   30.6010   33.9540 H   0  0  0  0  0  0  0  0  0  0  0  0
   35.6130   31.7710   31.4290 C   0  0  0  0  0  3  0  0  0  0  0  0
   35.8800   32.8400   32.4390 C   0  0  0  0  0  2  0  0  0  0  0  0
   37.1810   33.5820   32.1300 C   0  0  0  0  0  2  0  0  0  0  0  0
   36.9100   34.3460   30.8290 C   0  0  0  0  0  2  0  0  0  0  0  0
   36.5070   33.3890   29.7310 C   0  0  0  0  0  2  0  0  0  0  0  0
   36.4700   31.9590   30.1980 C   0  0  0  0  0  2  0  0  0  0  0  0
  1  5  2  0  0  0  0
  1  8  1  0  0  0  0
  2  1  1  0  0  0  0
  3  2  2  0  0  0  0
  3  4  1  0  0  0  0
  4  5  1  0  0  0  0
  6  2  1  0  0  0  0
  7  3  1  0  0  0  0
  8  9  1  0  0  0  0
  9 14  1  0  0  0  0
  9 10  2  0  0  0  0
 10 16  1  0  0  0  0
 11 10  1  0  0  0  0
 12 11  2  0  0  0  0
 13  8  2  0  0  0  0
 13 12  1  0  0  0  0
 15 12  1  0  0  0  0
 16 19  1  0  0  0  0
 16 17  1  0  0  0  0
 16 18  1  0  0  0  0
 20  4  1  0  0  0  0
 20 21  2  0  0  0  0
 21 25  1  0  0  0  0
 22 21  1  0  0  0  0
 22 26  1  0  0  0  0
 23 22  2  0  0  0  0
 24 23  1  0  0  0  0
 24 20  1  0  0  0  0
 27 23  1  0  0  0  0
 27 28  1  0  0  0  0
 29 28  1  0  0  0  0
 30 29  1  0  0  0  0
 31 32  1  0  0  0  0
 31 30  1  0  0  0  0
 32 27  1  0  0  0  0
M  END
>  <minimizedAffinity>
-5.8927393

$$$$

 OpenBabel03272508073D

 32 35  0  0  0  0  0  0  0  0999 V2000
   37.6180   26.1050   34.2250 C   0  0  0  0  0  0  0  0  0  0  0  0
   36.8300   27.1280   34.7180 C   0  0  0  0  0  0  0  0  0  0  0  0
   36.6580   28.1280   33.7540 C   0  0  0  0  0  0  0  0  0  0  0  0
   37.3590   27.6590   32.7100 N   0  0  0  0  0  0  0  0  0  0  0  0
   37.9200   26.4820   32.9790 N   0  0  0  0  0  0  0  0  0  0  0  0
   36.3820   27.1900   35.7150 H   0  0  0  0  0  0  0  0  0  0  0  0
   36.1200   29.0540   33.7750 H   0  0  0  0  0  0  0  0  0  0  0  0
   38.0110   24.9020   34.9350 C   0  0  0  0  0  0  0  0  0  0  0  0
   37.9400   24.8930   36.3430 C   0  0  0  0  0  0  0  0  0  0  0  0
   38.3190   23.7300   37.0050 C   0  0  0  0  0  0  0  0  0  0  0  0
   38.7360   22.6650   36.2540 N   0  0  0  0  0  0  0  0  0  0  0  0
   38.7950   22.6970   34.9010 C   0  0  0  0  0  0  0  0  0  0  0  0
   38.4290   23.8230   34.2540 N   0  0  0  0  0  0  0  0  0  0  0  0
   37.6070   25.7500   36.9090 H   0  0  0  0  0  0  0  0  0  0  0  0
   39.1330   21.8210   34.3710 H   0  0  0  0  0  0  0  0  0  0  0  0
   38.2570   23.6890   38.4880 C   0  0  0  0  0  0  0  0  0  0  0  0
   37.8670   24.9450   38.8820 F   0  0  0  0  0  0  0  0  0  0  0  0
   37.3320   22.7600   38.9640 F   0  0  0  0  0  0  0  0  0  0  0  0
   39.5060   23.4290   39.0470 F   0  0  0  0  0  0  0  0  0  0  0  0
   37.5540   28.2690   31.3890 C   0  0  0  0  0  0  0  0  0  0  0  0
   38.4830   27.7580   30.4690 C   0  0  0  0  0  0  0  0  0  0  0  0
   38.6350   28.3490   29.2790 C   0  0  0  0  0  0  0  0  0  0  0  0
   37.8450   29.4950   28.9570 C   0  0  0  0  0  0  0  0  0  0  0  0
   36.8320   29.6940   30.5110 S   0  0  0  0  0  0  0  0  0  0  0  0
   39.0980   26.8830   30.6920 H   0  0  0  0  0  0  0  0  0  0  0  0
   39.2950   28.0910   28.4640 H   0  0  0  0  0  0  0  0  0  0  0  0
   37.7260   30.3550   27.8470 C   0  0  0  0  0  3  0  0  0  0  0  0
   37.2260   31.6830   28.3160 C   0  0  0  0  0  2  0  0  0  0  0  0
   38.3420   32.7290   28.3140 C   0  0  0  0  0  2  0  0  0  0  0  0
   38.6850   32.9490   26.8360 C   0  0  0  0  0  2  0  0  0  0  0  0
   39.1010   31.6480   26.1910 C   0  0  0  0  0  2  0  0  0  0  0  0
   39.0630   30.4910   27.1530 C   0  0  0  0  0  2  0  0  0  0  0  0
  1  2  1  0  0  0  0
  1  8  1  0  0  0  0
  2  6  1  0  0  0  0
  3  7  1  0  0  0  0
  3  2  2  0  0  0  0
  4  5  1  0  0  0  0
  4  3  1  0  0  0  0
  5  1  2  0  0  0  0
  8  9  1  0  0  0  0
  9 14  1  0  0  0  0
  9 10  2  0  0  0  0
 10 16  1  0  0  0  0
 11 10  1  0  0  0  0
 12 11  2  0  0  0  0
 13 12  1  0  0  0  0
 13  8  2  0  0  0  0
 15 12  1  0  0  0  0
 16 17  1  0  0  0  0
 16 18  1  0  0  0  0
 16 19  1  0  0  0  0
 20  4  1  0  0  0  0
 21 25  1  0  0  0  0
 21 20  2  0  0  0  0
 22 21  1  0  0  0  0
 23 22  2  0  0  0  0
 23 24  1  0  0  0  0
 24 20  1  0  0  0  0
 26 22  1  0  0  0  0
 27 28  1  0  0  0  0
 27 23  1  0  0  0  0
 29 28  1  0  0  0  0
 30 29  1  0  0  0  0
 31 30  1  0  0  0  0
 31 32  1  0  0  0  0
 32 27  1  0  0  0  0
M  END
>  <minimizedAffinity>
-5.85264826

$$$$

 OpenBabel03272508073D

 32 35  0  0  0  0  0  0  0  0999 V2000
   37.0400   25.0700   32.1020 C   0  0  0  0  0  0  0  0  0  0  0  0
   37.1600   25.5370   30.8070 C   0  0  0  0  0  0  0  0  0  0  0  0
   36.8600   26.9040   30.7450 C   0  0  0  0  0  0  0  0  0  0  0  0
   36.5700   27.2030   32.0210 N   0  0  0  0  0  0  0  0  0  0  0  0
   36.6730   26.1390   32.8150 N   0  0  0  0  0  0  0  0  0  0  0  0
   37.4450   24.9580   29.9230 H   0  0  0  0  0  0  0  0  0  0  0  0
   36.8460   27.5940   29.9270 H   0  0  0  0  0  0  0  0  0  0  0  0
   37.2710   23.7100   32.5510 C   0  0  0  0  0  0  0  0  0  0  0  0
   36.4230   22.6870   32.0800 C   0  0  0  0  0  0  0  0  0  0  0  0
   36.6620   21.3900   32.5200 C   0  0  0  0  0  0  0  0  0  0  0  0
   37.7030   21.1810   33.3820 N   0  0  0  0  0  0  0  0  0  0  0  0
   38.5060   22.1800   33.8210 C   0  0  0  0  0  0  0  0  0  0  0  0
   38.2780   23.4410   33.3970 N   0  0  0  0  0  0  0  0  0  0  0  0
   35.6070   22.8830   31.3990 H   0  0  0  0  0  0  0  0  0  0  0  0
   39.3100   21.9450   34.5000 H   0  0  0  0  0  0  0  0  0  0  0  0
   35.7850   20.2910   32.0420 C   0  0  0  0  0  0  0  0  0  0  0  0
   36.1350   19.1840   32.7760 F   0  0  0  0  0  0  0  0  0  0  0  0
   34.4300   20.5560   32.2440 F   0  0  0  0  0  0  0  0  0  0  0  0
   36.0060   20.0050   30.6970 F   0  0  0  0  0  0  0  0  0  0  0  0
   36.1790   28.4970   32.5920 C   0  0  0  0  0  0  0  0  0  0  0  0
   36.2410   29.6840   31.8430 C   0  0  0  0  0  0  0  0  0  0  0  0
   35.8810   30.8440   32.4050 C   0  0  0  0  0  0  0  0  0  0  0  0
   35.4380   30.8600   33.7620 C   0  0  0  0  0  0  0  0  0  0  0  0
   35.5650   29.0550   34.2150 S   0  0  0  0  0  0  0  0  0  0  0  0
   36.5770   29.6960   30.8040 H   0  0  0  0  0  0  0  0  0  0  0  0
   35.8680   31.8370   31.9790 H   0  0  0  0  0  0  0  0  0  0  0  0
   34.9930   31.8490   34.6630 C   0  0  0  0  0  3  0  0  0  0  0  0
   33.5020   31.8030   34.7340 C   0  0  0  0  0  2  0  0  0  0  0  0
   33.0270   31.1720   36.0450 C   0  0  0  0  0  2  0  0  0  0  0  0
   33.4310   32.1660   37.1390 C   0  0  0  0  0  2  0  0  0  0  0  0
   34.9230   32.4050   37.1100 C   0  0  0  0  0  2  0  0  0  0  0  0
   35.6110   31.6210   36.0250 C   0  0  0  0  0  2  0  0  0  0  0  0
  1  8  1  0  0  0  0
  1  5  2  0  0  0  0
  2  1  1  0  0  0  0
  3  2  2  0  0  0  0
  3  4  1  0  0  0  0
  4 20  1  0  0  0  0
  4  5  1  0  0  0  0
  6  2  1  0  0  0  0
  7  3  1  0  0  0  0
  8 13  1  0  0  0  0
  9 10  1  0  0  0  0
  9  8  2  0  0  0  0
 10 11  2  0  0  0  0
 11 12  1  0  0  0  0
 12 15  1  0  0  0  0
 13 12  2  0  0  0  0
 14  9  1  0  0  0  0
 16 18  1  0  0  0  0
 16 10  1  0  0  0  0
 16 17  1  0  0  0  0
 19 16  1  0  0  0  0
 20 24  1  0  0  0  0
 21 22  1  0  0  0  0
 21 20  2  0  0  0  0
 22 23  2  0  0  0  0
 23 24  1  0  0  0  0
 23 27  1  0  0  0  0
 25 21  1  0  0  0  0
 26 22  1  0  0  0  0
 27 28  1  0  0  0  0
 27 32  1  0  0  0  0
 28 29  1  0  0  0  0
 29 30  1  0  0  0  0
 31 30  1  0  0  0  0
 32 31  1  0  0  0  0
M  END
>  <minimizedAffinity>
-5.85151577

$$$$
