
     RDKit          3D

 44 47  0  0  0  0  0  0  0  0999 V2000
   35.8235   29.1362   49.7990 C   0  0  0  0  0  0  0  0  0  0  0  0
   34.8074   29.6514   50.5689 C   0  0  0  0  0  0  0  0  0  0  0  0
   33.6017   29.1159   50.0877 C   0  0  0  0  0  0  0  0  0  0  0  0
   33.9702   28.2982   49.0419 C   0  0  0  0  0  0  0  0  0  0  0  0
   35.2785   28.3417   48.9093 O   0  0  0  0  0  0  0  0  0  0  0  0
   37.2169   29.4810   50.0234 C   0  0  0  0  0  0  0  0  0  0  0  0
   37.8638   28.8676   50.8863 O   0  0  0  0  0  0  0  0  0  0  0  0
   37.7664   30.5324   49.2140 C   0  0  0  0  0  0  0  0  0  0  0  0
   38.1169   31.7056   49.8514 C   0  0  0  0  0  0  0  0  0  0  0  0
   38.6517   32.7487   49.0962 C   0  0  0  0  0  0  0  0  0  0  0  0
   38.8053   32.5554   47.7381 N   0  0  0  0  0  0  0  0  0  0  0  0
   38.4534   31.4028   47.1565 C   0  0  0  0  0  0  0  0  0  0  0  0
   37.9394   30.3987   47.8798 N   0  0  0  0  0  0  0  0  0  0  0  0
   33.0617   27.5055   48.2123 C   0  0  0  0  0  0  0  0  0  0  0  0
   31.8374   27.4335   48.5622 O   0  0  0  0  0  0  0  0  0  0  0  0
   33.5717   26.7957   46.9910 C   0  0  1  0  0  0  0  0  0  0  0  0
   33.7870   25.2654   47.3258 C   0  0  0  0  0  0  0  0  0  0  0  0
   32.7702   25.7562   46.3662 C   0  0  2  0  0  0  0  0  0  0  0  0
   34.8289   30.3428   51.4068 H   0  0  0  0  0  0  0  0  0  0  0  0
   32.5927   29.2717   50.4191 H   0  0  0  0  0  0  0  0  0  0  0  0
   38.0118   31.8993   50.9229 H   0  0  0  0  0  0  0  0  0  0  0  0
   38.9474   33.6881   49.5174 H   0  0  0  0  0  0  0  0  0  0  0  0
   38.6266   31.3820   46.0814 H   0  0  0  0  0  0  0  0  0  0  0  0
   34.5491   27.2067   46.6618 H   0  0  0  0  0  0  0  0  0  0  0  0
   33.4629   24.9174   48.3062 H   0  0  0  0  0  0  0  0  0  0  0  0
   34.7258   24.8288   46.9927 H   0  0  0  0  0  0  0  0  0  0  0  0
   31.7070   25.7199   46.7562 H   0  0  0  0  0  0  0  0  0  0  0  0
   32.9156   25.2789   44.9752 C   0  0  0  0  0  0  0  0  0  0  0  0
   31.9945   24.1894   44.5243 C   0  0  0  0  0  0  0  0  0  0  0  0
   30.7500   24.6700   43.8427 C   0  0  0  0  0  0  0  0  0  0  0  0
   31.0389   25.4845   42.6034 C   0  0  0  0  0  0  0  0  0  0  0  0
   32.4047   26.1245   42.6512 C   0  0  0  0  0  0  0  0  0  0  0  0
   32.7344   26.4771   44.0643 C   0  0  0  0  0  0  0  0  0  0  0  0
   33.9927   24.9761   44.8266 H   0  0  0  0  0  0  0  0  0  0  0  0
   31.7307   23.4349   45.2601 H   0  0  0  0  0  0  0  0  0  0  0  0
   32.5605   23.6217   43.7260 H   0  0  0  0  0  0  0  0  0  0  0  0
   30.2249   23.7349   43.4863 H   0  0  0  0  0  0  0  0  0  0  0  0
   30.0174   25.1718   44.4777 H   0  0  0  0  0  0  0  0  0  0  0  0
   30.2422   26.2514   42.5138 H   0  0  0  0  0  0  0  0  0  0  0  0
   30.9531   24.8726   41.6823 H   0  0  0  0  0  0  0  0  0  0  0  0
   32.3871   27.0552   42.0783 H   0  0  0  0  0  0  0  0  0  0  0  0
   33.1225   25.4117   42.2043 H   0  0  0  0  0  0  0  0  0  0  0  0
   31.9086   27.1069   44.4607 H   0  0  0  0  0  0  0  0  0  0  0  0
   33.6531   27.1340   44.0895 H   0  0  0  0  0  0  0  0  0  0  0  0
  1  6  1  0
  1  2  2  0
  3  2  1  0
  4  3  2  0
  5  4  1  0
  5  1  1  0
  6  7  2  0
  8  9  2  0
  8  6  1  0
 10  9  1  0
 11 10  2  0
 12 11  1  0
 12 13  2  0
 13  8  1  0
 14 15  2  0
 14  4  1  0
 16 17  1  0
 16 14  1  0
 18 16  1  0
 18 17  1  0
  2 19  1  0
  3 20  1  0
  9 21  1  0
 10 22  1  0
 12 23  1  0
 16 24  1  6
 17 25  1  0
 17 26  1  0
 18 27  1  1
 28 29  1  0
 29 30  1  0
 30 31  1  0
 31 32  1  0
 32 33  1  0
 33 28  1  0
 28 34  1  0
 29 35  1  0
 29 36  1  0
 30 37  1  0
 30 38  1  0
 31 39  1  0
 31 40  1  0
 32 41  1  0
 32 42  1  0
 33 43  1  0
 33 44  1  0
 18 28  1  0
M  ISO  8  19  14  20  14  21  14  22  14  23  14  24  13  25  13  26  13
M  ISO  1  27  13
M  END
>  <DihAtoms>  (1) 
15,17,27,28

>  <DihDeg>  (1) 
59.61204477028726

$$$$
