
     RDKit          3D

 44 47  0  0  0  0  0  0  0  0999 V2000
   35.8235   29.1362   49.7990 C   0  0  0  0  0  0  0  0  0  0  0  0
   34.8074   29.6514   50.5689 C   0  0  0  0  0  0  0  0  0  0  0  0
   33.6017   29.1159   50.0877 C   0  0  0  0  0  0  0  0  0  0  0  0
   33.9702   28.2982   49.0419 C   0  0  0  0  0  0  0  0  0  0  0  0
   35.2785   28.3417   48.9093 O   0  0  0  0  0  0  0  0  0  0  0  0
   37.2169   29.4810   50.0234 C   0  0  0  0  0  0  0  0  0  0  0  0
   37.8638   28.8676   50.8863 O   0  0  0  0  0  0  0  0  0  0  0  0
   37.7664   30.5324   49.2140 C   0  0  0  0  0  0  0  0  0  0  0  0
   38.1169   31.7056   49.8514 C   0  0  0  0  0  0  0  0  0  0  0  0
   38.6517   32.7487   49.0962 C   0  0  0  0  0  0  0  0  0  0  0  0
   38.8053   32.5554   47.7381 N   0  0  0  0  0  0  0  0  0  0  0  0
   38.4534   31.4028   47.1565 C   0  0  0  0  0  0  0  0  0  0  0  0
   37.9394   30.3987   47.8798 N   0  0  0  0  0  0  0  0  0  0  0  0
   33.0617   27.5055   48.2123 C   0  0  0  0  0  0  0  0  0  0  0  0
   31.8374   27.4335   48.5622 O   0  0  0  0  0  0  0  0  0  0  0  0
   33.5717   26.7957   46.9910 C   0  0  1  0  0  0  0  0  0  0  0  0
   33.7870   25.2654   47.3258 C   0  0  0  0  0  0  0  0  0  0  0  0
   32.7702   25.7562   46.3662 C   0  0  2  0  0  0  0  0  0  0  0  0
   34.8289   30.3428   51.4068 H   0  0  0  0  0  0  0  0  0  0  0  0
   32.5927   29.2717   50.4191 H   0  0  0  0  0  0  0  0  0  0  0  0
   38.0118   31.8993   50.9229 H   0  0  0  0  0  0  0  0  0  0  0  0
   38.9474   33.6881   49.5174 H   0  0  0  0  0  0  0  0  0  0  0  0
   38.6266   31.3820   46.0814 H   0  0  0  0  0  0  0  0  0  0  0  0
   34.5491   27.2067   46.6618 H   0  0  0  0  0  0  0  0  0  0  0  0
   33.4629   24.9174   48.3062 H   0  0  0  0  0  0  0  0  0  0  0  0
   34.7258   24.8288   46.9927 H   0  0  0  0  0  0  0  0  0  0  0  0
   31.7070   25.7199   46.7562 H   0  0  0  0  0  0  0  0  0  0  0  0
   32.9156   25.2789   44.9752 C   0  0  0  0  0  0  0  0  0  0  0  0
   31.8774   25.7131   43.9892 C   0  0  0  0  0  0  0  0  0  0  0  0
   32.2313   26.9467   43.2164 C   0  0  0  0  0  0  0  0  0  0  0  0
   33.5013   26.7895   42.4130 C   0  0  0  0  0  0  0  0  0  0  0  0
   34.4132   25.7369   42.9941 C   0  0  0  0  0  0  0  0  0  0  0  0
   34.2753   25.7320   44.4810 C   0  0  0  0  0  0  0  0  0  0  0  0
   32.9904   24.1531   45.0042 H   0  0  0  0  0  0  0  0  0  0  0  0
   30.8589   25.8014   44.3570 H   0  0  0  0  0  0  0  0  0  0  0  0
   31.8289   24.8903   43.2143 H   0  0  0  0  0  0  0  0  0  0  0  0
   31.3992   27.0757   42.4627 H   0  0  0  0  0  0  0  0  0  0  0  0
   32.2392   27.8814   43.7801 H   0  0  0  0  0  0  0  0  0  0  0  0
   34.0027   27.7787   42.3828 H   0  0  0  0  0  0  0  0  0  0  0  0
   33.2870   26.5438   41.3528 H   0  0  0  0  0  0  0  0  0  0  0  0
   35.4508   25.9915   42.7635 H   0  0  0  0  0  0  0  0  0  0  0  0
   34.1429   24.7695   42.5314 H   0  0  0  0  0  0  0  0  0  0  0  0
   34.4626   26.7656   44.8448 H   0  0  0  0  0  0  0  0  0  0  0  0
   35.0918   25.0991   44.9381 H   0  0  0  0  0  0  0  0  0  0  0  0
  1  6  1  0
  1  2  2  0
  3  2  1  0
  4  3  2  0
  5  4  1  0
  5  1  1  0
  6  7  2  0
  8  9  2  0
  8  6  1  0
 10  9  1  0
 11 10  2  0
 12 11  1  0
 12 13  2  0
 13  8  1  0
 14 15  2  0
 14  4  1  0
 16 17  1  0
 16 14  1  0
 18 16  1  0
 18 17  1  0
  2 19  1  0
  3 20  1  0
  9 21  1  0
 10 22  1  0
 12 23  1  0
 16 24  1  6
 17 25  1  0
 17 26  1  0
 18 27  1  1
 28 29  1  0
 29 30  1  0
 30 31  1  0
 31 32  1  0
 32 33  1  0
 33 28  1  0
 28 34  1  0
 29 35  1  0
 29 36  1  0
 30 37  1  0
 30 38  1  0
 31 39  1  0
 31 40  1  0
 32 41  1  0
 32 42  1  0
 33 43  1  0
 33 44  1  0
 18 28  1  0
M  ISO  8  19  14  20  14  21  14  22  14  23  14  24  13  25  13  26  13
M  ISO  1  27  13
M  END
>  <DihAtoms>  (1) 
15,17,27,28

>  <DihDeg>  (1) 
59.61204477028726

$$$$
