
     RDKit          3D

 29 30  0  0  0  0  0  0  0  0999 V2000
   38.3055   31.2329   50.1255 C   0  0  0  0  0  0  0  0  0  0  0  0
   38.2906   31.6102   48.7735 C   0  0  0  0  0  0  0  0  0  0  0  0
   37.2087   31.2311   47.9999 C   0  0  0  0  0  0  0  0  0  0  0  0
   36.2029   30.5060   48.5876 N   0  0  0  0  0  0  0  0  0  0  0  0
   36.2600   30.1652   49.8940 C   0  0  0  0  0  0  0  0  0  0  0  0
   37.3039   30.5300   50.6443 N   0  0  0  0  0  0  0  0  0  0  0  0
   35.1329   29.3831   50.4466 C   0  0  0  0  0  0  0  0  0  0  0  0
   35.2641   29.1288   51.8044 F   0  0  0  0  0  0  0  0  0  0  0  0
   33.9279   30.0594   50.2938 F   0  0  0  0  0  0  0  0  0  0  0  0
   34.9525   28.1652   49.8345 F   0  0  0  0  0  0  0  0  0  0  0  0
   39.1093   31.4846   50.8049 H   0  0  0  0  0  0  0  0  0  0  0  0
   39.1416   32.1670   48.4755 H   0  0  0  0  0  0  0  0  0  0  0  0
   37.2077   31.6291   46.6019 C   0  0  0  0  0  0  0  0  0  0  0  0
   36.6906   30.6574   45.6107 C   0  0  0  0  0  0  0  0  0  0  0  0
   35.3583   31.0680   45.0159 C   0  0  0  0  0  0  0  0  0  0  0  0
   35.5847   32.3645   44.2662 C   0  0  0  0  0  0  0  0  0  0  0  0
   36.4111   33.3471   45.0531 C   0  0  0  0  0  0  0  0  0  0  0  0
   36.3594   32.9037   46.4900 C   0  0  0  0  0  0  0  0  0  0  0  0
   38.2647   31.9522   46.3661 H   0  0  0  0  0  0  0  0  0  0  0  0
   37.3963   30.6581   44.7371 H   0  0  0  0  0  0  0  0  0  0  0  0
   36.6868   29.6056   45.9503 H   0  0  0  0  0  0  0  0  0  0  0  0
   34.5503   31.1520   45.7629 H   0  0  0  0  0  0  0  0  0  0  0  0
   35.1019   30.2904   44.2383 H   0  0  0  0  0  0  0  0  0  0  0  0
   34.6203   32.8402   43.9825 H   0  0  0  0  0  0  0  0  0  0  0  0
   36.1008   32.1223   43.3134 H   0  0  0  0  0  0  0  0  0  0  0  0
   35.9950   34.3692   44.9828 H   0  0  0  0  0  0  0  0  0  0  0  0
   37.4702   33.2783   44.7245 H   0  0  0  0  0  0  0  0  0  0  0  0
   36.8220   33.6982   47.1248 H   0  0  0  0  0  0  0  0  0  0  0  0
   35.3257   32.7305   46.7971 H   0  0  0  0  0  0  0  0  0  0  0  0
  1  6  2  0
  2  1  1  0
  3  4  1  0
  3  2  2  0
  4  5  2  0
  5  7  1  0
  5  6  1  0
  7  8  1  0
  9  7  1  0
 10  7  1  0
  1 11  1  0
  2 12  1  0
 13 14  1  0
 14 15  1  0
 15 16  1  0
 16 17  1  0
 17 18  1  0
 18 13  1  0
 13 19  1  0
 14 20  1  0
 14 21  1  0
 15 22  1  0
 15 23  1  0
 16 24  1  0
 16 25  1  0
 17 26  1  0
 17 27  1  0
 18 28  1  0
 18 29  1  0
  3 13  1  0
M  ISO  2  11  14  12  14
M  END
>  <DihAtoms>  (1) 
3,2,12,13

>  <DihDeg>  (1) 
126.24945347459172

$$$$
