
 OpenBabel03272510333D

 26 28  0  0  0  0  0  0  0  0999 V2000
   35.8880   30.1070   46.7820 C   0  0  0  0  0  0  0  0  0  0  0  0
   35.3700   30.1180   45.5140 C   0  0  0  0  0  0  0  0  0  0  0  0
   34.2300   29.4130   45.1860 C   0  0  0  0  0  0  0  0  0  0  0  0
   33.6130   28.6860   46.1720 C   0  0  0  0  0  0  0  0  0  0  0  0
   34.1050   28.6490   47.4670 C   0  0  0  0  0  0  0  0  0  0  0  0
   35.2540   29.3680   47.7710 C   0  0  0  0  0  0  0  0  0  0  0  0
   35.8360   30.6860   44.7020 H   0  0  0  0  0  0  0  0  0  0  0  0
   33.8380   29.4370   44.1740 H   0  0  0  0  0  0  0  0  0  0  0  0
   32.7220   28.1470   45.8750 H   0  0  0  0  0  0  0  0  0  0  0  0
   33.5830   28.0620   48.2070 H   0  0  0  0  0  0  0  0  0  0  0  0
   38.1040   32.5680   48.2780 C   0  0  0  0  0  0  0  0  0  0  0  0
   39.3100   32.4190   47.5940 C   0  0  0  0  0  0  0  0  0  0  0  0
   39.3450   31.4370   46.5900 C   0  0  0  0  0  0  0  0  0  0  0  0
   38.2320   30.7050   46.3460 N   0  0  0  0  0  0  0  0  0  0  0  0
   37.0940   30.8820   47.0280 C   0  0  0  0  0  0  0  0  0  0  0  0
   37.0330   31.8240   48.0030 N   0  0  0  0  0  0  0  0  0  0  0  0
   38.1250   33.3480   49.0540 H   0  0  0  0  0  0  0  0  0  0  0  0
   40.2200   32.9660   47.7420 H   0  0  0  0  0  0  0  0  0  0  0  0
   40.2110   31.1880   45.9550 H   0  0  0  0  0  0  0  0  0  0  0  0
   35.8050   29.3560   49.1220 C   0  0  0  0  0  0  0  0  0  0  0  0
   34.9320   29.5090   50.1800 C   0  0  0  0  0  3  0  0  0  0  0  0
   35.4360   29.4990   51.4430 C   0  0  0  0  0  0  0  0  0  0  0  0
   34.8960   29.6060   52.3820 H   0  0  0  0  0  0  0  0  0  0  0  0
   36.7450   29.3440   51.6650 N   0  0  0  0  0  0  0  0  0  0  0  0
   37.6290   29.1900   50.6370 C   0  0  0  0  0  3  0  0  0  0  0  0
   37.0940   29.2050   49.4150 N   0  0  0  0  0  0  0  0  0  0  0  0
  1 15  1  0  0  0  0
  1  6  1  0  0  0  0
  2  1  2  0  0  0  0
  3  2  1  0  0  0  0
  3  4  2  0  0  0  0
  4  5  1  0  0  0  0
  5  6  2  0  0  0  0
  5 10  1  0  0  0  0
  6 20  1  0  0  0  0
  7  2  1  0  0  0  0
  8  3  1  0  0  0  0
  9  4  1  0  0  0  0
 11 17  1  0  0  0  0
 12 18  1  0  0  0  0
 12 11  2  0  0  0  0
 13 12  1  0  0  0  0
 14 13  2  0  0  0  0
 14 15  1  0  0  0  0
 15 16  2  0  0  0  0
 16 11  1  0  0  0  0
 19 13  1  0  0  0  0
 20 26  2  0  0  0  0
 20 21  1  0  0  0  0
 21 22  2  0  0  0  0
 22 24  1  0  0  0  0
 22 23  1  0  0  0  0
 25 24  2  0  0  0  0
 26 25  1  0  0  0  0
M  END
>  <minimizedAffinity>
-4.52268839

>  <minimizedRMSD>
1.9461571

$$$$
