
 OpenBabel03262521593D

 34 36  0  0  1  0  0  0  0  0999 V2000
   36.1930   30.0930   48.4080 N   0  0  0  0  0  0  0  0  0  0  0  0
   36.8020   29.0870   49.2350 C   0  0  0  0  0  0  0  0  0  0  0  0
   36.9000   29.3440   50.6780 C   0  0  0  0  0  0  0  0  0  0  0  0
   36.8650   30.7490   51.1560 C   0  0  0  0  0  0  0  0  0  0  0  0
   36.3360   31.7400   50.1560 C   0  0  0  0  0  0  0  0  0  0  0  0
   36.7500   31.3410   48.7490 C   0  0  1  0  0  0  0  0  0  0  0  0
   37.7780   28.7010   48.8170 H   0  0  0  0  0  0  0  0  0  0  0  0
   36.1530   28.1710   49.0700 H   0  0  0  0  0  0  0  0  0  0  0  0
   37.8880   28.9380   51.0530 H   0  0  0  0  0  0  0  0  0  0  0  0
   36.1760   28.6900   51.2530 H   0  0  0  0  0  0  0  0  0  0  0  0
   37.7780   31.0910   51.7070 H   0  0  0  0  0  0  0  0  0  0  0  0
   36.0990   30.8140   51.9790 H   0  0  0  0  0  0  0  0  0  0  0  0
   36.7470   32.7340   50.4270 H   0  0  0  0  0  0  0  0  0  0  0  0
   35.2290   31.8150   50.1580 H   0  0  0  0  0  0  0  0  0  0  0  0
   36.1930   32.0930   48.1110 H   0  0  0  0  0  0  0  0  0  0  0  0
   35.1910   29.8330   47.4160 C   0  0  0  0  0  0  0  0  0  0  0  0
   35.3370   30.1100   46.0570 C   0  0  0  0  0  0  0  0  0  0  0  0
   34.2840   29.8000   45.2150 C   0  0  0  0  0  0  0  0  0  0  0  0
   33.1670   29.2440   45.7560 N   0  0  0  0  0  0  0  0  0  0  0  0
   33.0480   28.9870   47.0720 C   0  0  0  0  0  0  0  0  0  0  0  0
   34.0600   29.2860   47.8690 N   0  0  0  0  0  0  0  0  0  0  0  0
   36.2900   30.5520   45.7980 H   0  0  0  0  0  0  0  0  0  0  0  0
   34.4280   30.0240   44.1850 H   0  0  0  0  0  0  0  0  0  0  0  0
   31.8000   28.3880   47.5340 C   0  0  0  0  0  0  0  0  0  0  0  0
   31.7500   27.5180   48.6030 C   0  0  0  0  0  0  0  0  0  0  0  0
   30.5260   26.9900   48.9840 C   0  0  0  0  0  0  0  0  0  0  0  0
   30.4420   26.2980   49.8250 H   0  0  0  0  0  0  0  0  0  0  0  0
   29.4280   27.3580   48.2790 N   0  0  0  0  0  0  0  0  0  0  0  0
   29.4640   28.1990   47.2420 C   0  0  0  0  0  0  0  0  0  0  0  0
   30.6570   28.7030   46.8850 N   0  0  0  0  0  0  0  0  0  0  0  0
   38.2340   31.4760   48.6260 C   0  0  0  0  0  0  0  0  0  0  0  0
   38.4780   32.7240   48.0340 F   0  0  0  0  0  0  0  0  0  0  0  0
   38.7230   30.5840   47.7020 F   0  0  0  0  0  0  0  0  0  0  0  0
   38.9230   31.4900   49.7850 F   0  0  0  0  0  0  0  0  0  0  0  0
  1  6  1  0  0  0  0
  1  2  1  0  0  0  0
  2  3  1  0  0  0  0
  3  9  1  0  0  0  0
  3  4  1  0  0  0  0
  3 10  1  0  0  0  0
  4 11  1  0  0  0  0
  4 12  1  0  0  0  0
  5 14  1  0  0  0  0
  5 13  1  0  0  0  0
  5  4  1  0  0  0  0
  6 15  1  6  0  0  0
  6  5  1  0  0  0  0
  7  2  1  0  0  0  0
  8  2  1  0  0  0  0
 16 21  1  0  0  0  0
 16  1  1  0  0  0  0
 17 16  2  0  0  0  0
 18 19  2  0  0  0  0
 18 17  1  0  0  0  0
 19 20  1  0  0  0  0
 20 24  1  0  0  0  0
 20 21  2  0  0  0  0
 22 17  1  0  0  0  0
 23 18  1  0  0  0  0
 24 25  1  0  0  0  0
 25 26  2  0  0  0  0
 26 27  1  0  0  0  0
 28 26  1  0  0  0  0
 29 28  2  0  0  0  0
 30 29  1  0  0  0  0
 30 24  2  0  0  0  0
 31  6  1  0  0  0  0
 31 34  1  0  0  0  0
 32 31  1  0  0  0  0
 33 31  1  0  0  0  0
M  END
>  <minimizedAffinity>
-5.55670691

>  <minimizedRMSD>
1.81192875

$$$$
