REMARK  Name = 
REMARK  5 active torsions:
REMARK  status: ('A' for Active; 'I' for Inactive)
REMARK    1  A    between atoms: C_1  and  S_17
REMARK    2  A    between atoms: C_2  and  C_9
REMARK    3  A    between atoms: C_11  and  C_13
REMARK    4  A    between atoms: S_17  and  C_20
REMARK    5  A    between atoms: C_20  and  C_29
REMARK                            x       y       z     vdW  Elec       q    Type
REMARK                         _______ _______ _______ _____ _____    ______ ____
ROOT
ATOM      1  C   UNL     1      38.165  31.239  44.927  0.00  0.00    +0.000 A 
ATOM      2  C   UNL     1      37.343  30.943  45.970  0.00  0.00    +0.000 A 
ATOM      3  C   UNL     1      36.106  30.356  45.728  0.00  0.00    +0.000 A 
ATOM      4  C   UNL     1      35.665  30.056  44.454  0.00  0.00    +0.000 A 
ATOM      5  C   UNL     1      36.464  30.343  43.380  0.00  0.00    +0.000 A 
ATOM      6  C   UNL     1      37.679  30.921  43.654  0.00  0.00    +0.000 A 
ATOM      7  H   UNL     1      35.464  30.126  46.591  0.00  0.00    +0.000 HD
ATOM      8  H   UNL     1      34.692  29.601  44.385  0.00  0.00    +0.000 HD
ATOM      9  H   UNL     1      36.073  30.092  42.428  0.00  0.00    +0.000 HD
ATOM     10  H   UNL     1      38.221  31.104  42.717  0.00  0.00    +0.000 HD
ENDROOT
BRANCH   2  13
ATOM     11  C   UNL     1      38.678  32.781  48.859  0.00  0.00    +0.000 A 
ATOM     12  C   UNL     1      38.305  32.444  47.566  0.00  0.00    +0.000 A 
ATOM     13  C   UNL     1      37.698  31.253  47.312  0.00  0.00    +0.000 A 
ATOM     14  N   UNL     1      37.478  30.430  48.374  0.00  0.00    +0.000 NA
ATOM     15  C   UNL     1      37.833  30.753  49.625  0.00  0.00    +0.000 A 
ATOM     16  N   UNL     1      38.431  31.924  49.857  0.00  0.00    +0.000 NA
ATOM     17  H   UNL     1      39.164  33.671  49.228  0.00  0.00    +0.000 HD
ATOM     18  H   UNL     1      38.575  33.296  46.989  0.00  0.00    +0.000 HD
BRANCH  15  19
ATOM     19  C   UNL     1      37.468  29.788  50.696  0.00  0.00    +0.000 C 
ATOM     20  F   UNL     1      37.725  30.291  51.956  0.00  0.00    +0.000 F 
ATOM     21  F   UNL     1      36.028  29.639  50.708  0.00  0.00    +0.000 F 
ATOM     22  F   UNL     1      37.904  28.555  50.572  0.00  0.00    +0.000 F 
ENDBRANCH  15  19
ENDBRANCH   2  13
BRANCH   1  23
ATOM     23  S   UNL     1      39.716  31.930  45.097  0.00  0.00    +0.000 S 
ATOM     24  O   UNL     1      39.699  33.396  44.889  0.00  0.00    +0.000 OA
ATOM     25  O   UNL     1      40.286  31.571  43.739  0.00  0.00    +0.000 OA
BRANCH  23  26
ATOM     26  C   UNL     1      41.126  31.244  45.748  0.00  0.00    +0.000 C 
ATOM     27  H   UNL     1      40.905  31.187  46.886  0.00  0.00    +0.000 HD
ATOM     28  H   UNL     1      41.260  30.164  45.555  0.00  0.00    +0.000 HD
BRANCH  26  29
ATOM     29  C   UNL     1      42.325  32.065  45.739  0.00  0.00    +0.000 A 
ATOM     30  C   UNL     1      42.744  32.464  44.484  0.00  0.00    +0.000 A 
ATOM     31  C   UNL     1      43.874  33.256  44.275  0.00  0.00    +0.000 A 
ATOM     32  H   UNL     1      44.199  33.566  43.291  0.00  0.00    +0.000 HD
ATOM     33  N   UNL     1      44.608  33.660  45.353  0.00  0.00    +0.000 NA
ATOM     34  C   UNL     1      44.163  33.248  46.554  0.00  0.00    +0.000 A 
ATOM     35  N   UNL     1      43.062  32.475  46.785  0.00  0.00    +0.000 NA
ENDBRANCH  26  29
ENDBRANCH  23  26
ENDBRANCH   1  23
TORSDOF 5
