
     RDKit          3D

 24 25  0  0  0  0  0  0  0  0999 V2000
   37.3373   30.1579   51.3425 C   0  0  0  0  0  0  0  0  0  0  0  0
   37.9968   30.5100   50.1728 C   0  0  0  0  0  0  0  0  0  0  0  0
   37.4235   30.1477   48.9640 C   0  0  0  0  0  0  0  0  0  0  0  0
   36.2439   29.4655   48.9898 N   0  0  0  0  0  0  0  0  0  0  0  0
   35.6338   29.1416   50.1582 C   0  0  0  0  0  0  0  0  0  0  0  0
   36.1836   29.4895   51.3267 N   0  0  0  0  0  0  0  0  0  0  0  0
   37.8652   30.3713   47.6934 O   0  0  0  0  0  0  0  0  0  0  0  0
   39.0570   32.7349   48.1491 O   0  0  0  0  0  0  0  0  0  0  0  0
   38.7014   31.7103   47.1072 P   0  0  2  0  0  0  0  0  0  0  0  0
   37.8280   32.4625   45.8516 O   0  0  0  0  0  0  0  0  0  0  0  0
   40.1496   31.1809   46.3976 O   0  0  0  0  0  0  0  0  0  0  0  0
   37.8598   30.4830   52.2297 H   0  0  0  0  0  0  0  0  0  0  0  0
   38.9211   31.0422   50.0668 H   0  0  0  0  0  0  0  0  0  0  0  0
   34.6900   28.5954   50.1730 H   0  0  0  0  0  0  0  0  0  0  0  0
   37.7964   33.4399   45.9998 H   0  0  0  0  0  0  0  0  0  0  0  0
   40.3181   30.0334   45.6628 C   0  0  0  0  0  0  0  0  0  0  0  0
   39.4939   28.9397   45.5585 C   0  0  0  0  0  0  0  0  0  0  0  0
   39.8323   27.8618   44.7592 C   0  0  0  0  0  0  0  0  0  0  0  0
   39.1423   27.0175   44.7111 H   0  0  0  0  0  0  0  0  0  0  0  0
   40.9982   27.8802   44.0638 N   0  0  0  0  0  0  0  0  0  0  0  0
   41.7850   28.9566   44.1812 C   0  0  0  0  0  0  0  0  0  0  0  0
   41.4760   30.0268   44.9584 N   0  0  0  0  0  0  0  0  0  0  0  0
   38.5912   29.0070   46.1418 H   0  0  0  0  0  0  0  0  0  0  0  0
   42.7118   28.9441   43.6135 H   0  0  0  0  0  0  0  0  0  0  0  0
  2  1  2  0
  3  4  2  0
  3  2  1  0
  4  5  1  0
  5  6  2  0
  6  1  1  0
  7  3  1  0
  9  7  1  1
  9  8  2  0
 10  9  1  0
 11  9  1  0
  1 12  1  0
  2 13  1  0
  5 14  1  0
 10 15  1  0
 16 17  2  0
 17 18  1  0
 18 19  1  0
 18 20  2  0
 20 21  1  0
 21 22  2  0
 22 16  1  0
 17 23  1  0
 21 24  1  0
 11 16  1  0
M  ISO  5  12  14  13  14  14  14  15   3  19  14
M  END
>  <DihAtoms>  (1) 
8,10,15,16

>  <DihDeg>  (1) 
-0.001326703271482288

$$$$
