
 OpenBabel03272510343D

 26 28  0  0  0  0  0  0  0  0999 V2000
   35.9790   30.1160   47.7850 C   0  0  0  0  0  0  0  0  0  0  0  0
   35.2820   30.0630   46.6080 C   0  0  0  0  0  0  0  0  0  0  0  0
   34.2320   29.1860   46.4200 C   0  0  0  0  0  0  0  0  0  0  0  0
   33.8950   28.3510   47.4540 C   0  0  0  0  0  0  0  0  0  0  0  0
   34.5750   28.3720   48.6610 C   0  0  0  0  0  0  0  0  0  0  0  0
   35.6280   29.2650   48.8240 C   0  0  0  0  0  0  0  0  0  0  0  0
   35.5230   30.7140   45.7610 H   0  0  0  0  0  0  0  0  0  0  0  0
   33.6940   29.1630   45.4770 H   0  0  0  0  0  0  0  0  0  0  0  0
   33.0670   27.6780   47.2670 H   0  0  0  0  0  0  0  0  0  0  0  0
   34.2710   27.6950   49.4440 H   0  0  0  0  0  0  0  0  0  0  0  0
   37.9710   32.8820   49.0430 C   0  0  0  0  0  0  0  0  0  0  0  0
   39.0700   32.9450   48.1870 C   0  0  0  0  0  0  0  0  0  0  0  0
   39.1110   31.9980   47.1490 C   0  0  0  0  0  0  0  0  0  0  0  0
   38.1050   31.0970   47.0390 N   0  0  0  0  0  0  0  0  0  0  0  0
   37.0690   31.0740   47.8850 C   0  0  0  0  0  0  0  0  0  0  0  0
   37.0040   31.9770   48.8960 N   0  0  0  0  0  0  0  0  0  0  0  0
   37.9830   33.6430   49.8390 H   0  0  0  0  0  0  0  0  0  0  0  0
   39.8920   33.6310   48.2240 H   0  0  0  0  0  0  0  0  0  0  0  0
   39.9020   31.9040   46.3870 H   0  0  0  0  0  0  0  0  0  0  0  0
   36.3700   29.3200   50.0790 C   0  0  0  0  0  0  0  0  0  0  0  0
   37.5920   28.6810   50.1390 C   0  0  0  0  0  3  0  0  0  0  0  0
   38.2920   28.7270   51.3050 C   0  0  0  0  0  0  0  0  0  0  0  0
   39.2610   28.2830   51.5230 H   0  0  0  0  0  0  0  0  0  0  0  0
   37.8140   29.3720   52.3730 N   0  0  0  0  0  0  0  0  0  0  0  0
   36.6080   30.0120   52.3400 C   0  0  0  0  0  3  0  0  0  0  0  0
   35.9550   29.9420   51.1800 N   0  0  0  0  0  0  0  0  0  0  0  0
  1 15  1  0  0  0  0
  1  6  1  0  0  0  0
  2  1  2  0  0  0  0
  3  2  1  0  0  0  0
  3  4  2  0  0  0  0
  4  5  1  0  0  0  0
  5  6  2  0  0  0  0
  5 10  1  0  0  0  0
  6 20  1  0  0  0  0
  7  2  1  0  0  0  0
  8  3  1  0  0  0  0
  9  4  1  0  0  0  0
 11 17  1  0  0  0  0
 12 18  1  0  0  0  0
 12 11  2  0  0  0  0
 13 12  1  0  0  0  0
 14 13  2  0  0  0  0
 14 15  1  0  0  0  0
 15 16  2  0  0  0  0
 16 11  1  0  0  0  0
 19 13  1  0  0  0  0
 20 21  2  0  0  0  0
 20 26  1  0  0  0  0
 21 22  1  0  0  0  0
 22 23  1  0  0  0  0
 22 24  2  0  0  0  0
 25 24  1  0  0  0  0
 26 25  2  0  0  0  0
M  END
>  <minimizedAffinity>
-3.29556417

>  <minimizedRMSD>
0.942130148

$$$$
