
 OpenBabel03262522203D

 17 18  0  0  0  0  0  0  0  0999 V2000
   35.9210   30.4940   48.2090 C   0  0  0  0  0  0  0  0  0  0  0  0
   35.4120   29.2770   48.7040 C   0  0  0  0  0  0  0  0  0  0  0  0
   35.6390   28.9870   50.0390 C   0  0  0  0  0  0  0  0  0  0  0  0
   36.3300   29.8690   50.8090 N   0  0  0  0  0  0  0  0  0  0  0  0
   36.8030   31.0290   50.2910 C   0  0  0  0  0  0  0  0  0  0  0  0
   36.6080   31.3560   49.0000 N   0  0  0  0  0  0  0  0  0  0  0  0
   35.7920   30.8040   47.1770 H   0  0  0  0  0  0  0  0  0  0  0  0
   35.2360   28.0630   50.3580 H   0  0  0  0  0  0  0  0  0  0  0  0
   37.3390   31.6510   51.0030 H   0  0  0  0  0  0  0  0  0  0  0  0
   34.7430   28.5270   47.7690 O   0  0  0  0  0  0  0  0  0  0  0  0
   33.3540   28.4020   47.6990 C   0  0  0  0  0  0  0  0  0  0  0  0
   32.5540   27.7050   48.5910 C   0  0  0  0  0  3  0  0  0  0  0  0
   31.1870   27.6710   48.3890 C   0  0  0  0  0  0  0  0  0  0  0  0
   30.5750   27.1250   49.0900 H   0  0  0  0  0  0  0  0  0  0  0  0
   30.6350   28.3060   47.3380 N   0  0  0  0  0  0  0  0  0  0  0  0
   31.4650   28.9630   46.5090 C   0  0  0  0  0  3  0  0  0  0  0  0
   32.8040   29.0360   46.6480 N   0  0  0  0  0  0  0  0  0  0  0  0
  1  2  2  0  0  0  0
  1  6  1  0  0  0  0
  2  3  1  0  0  0  0
  3  8  1  0  0  0  0
  3  4  2  0  0  0  0
  5  4  1  0  0  0  0
  5  9  1  0  0  0  0
  6  5  2  0  0  0  0
  7  1  1  0  0  0  0
 10  2  1  0  0  0  0
 11 10  1  0  0  0  0
 11 12  1  0  0  0  0
 13 12  2  0  0  0  0
 13 14  1  0  0  0  0
 15 13  1  0  0  0  0
 16 17  1  0  0  0  0
 16 15  2  0  0  0  0
 17 11  2  0  0  0  0
M  END
>  <minimizedAffinity>
-3.39753222

>  <minimizedRMSD>
6.96343184

$$$$
