
 OpenBabel03272508143D

 26 28  0  0  0  0  0  0  0  0999 V2000
   38.9260   31.1810   47.2580 Cl  0  0  0  0  0  0  0  0  0  0  0  0
   37.3680   30.7200   46.6300 C   0  0  0  0  0  0  0  0  0  0  0  0
   36.4850   30.2730   47.5930 C   0  0  0  0  0  0  0  0  0  0  0  0
   35.2060   29.8780   47.1850 C   0  0  0  0  0  0  0  0  0  0  0  0
   34.8200   29.9250   45.8830 C   0  0  0  0  0  0  0  0  0  0  0  0
   35.7100   30.3720   44.9400 C   0  0  0  0  0  0  0  0  0  0  0  0
   35.2480   30.4470   43.2600 Cl  0  0  0  0  0  0  0  0  0  0  0  0
   36.9530   30.7580   45.3170 C   0  0  0  0  0  0  0  0  0  0  0  0
   34.4470   29.5140   47.8720 H   0  0  0  0  0  0  0  0  0  0  0  0
   33.8320   29.6240   45.5510 H   0  0  0  0  0  0  0  0  0  0  0  0
   37.7990   30.7880   49.6180 C   0  0  0  0  0  0  0  0  0  0  0  0
   36.6860   30.1390   49.0430 C   0  0  0  0  0  0  0  0  0  0  0  0
   35.8440   29.4130   49.8780 C   0  0  0  0  0  0  0  0  0  0  0  0
   36.1260   29.3580   51.2080 N   0  0  0  0  0  0  0  0  0  0  0  0
   37.2180   30.0020   51.7220 C   0  0  0  0  0  0  0  0  0  0  0  0
   38.0550   30.7180   50.9240 N   0  0  0  0  0  0  0  0  0  0  0  0
   38.4510   31.3500   48.9750 H   0  0  0  0  0  0  0  0  0  0  0  0
   35.0110   28.9300   49.4340 H   0  0  0  0  0  0  0  0  0  0  0  0
   37.4580   29.9690   52.7810 H   0  0  0  0  0  0  0  0  0  0  0  0
   37.9720   31.2500   44.3830 C   0  0  0  0  0  0  0  0  0  0  0  0
   38.8190   30.2940   43.8540 C   0  0  0  0  0  0  0  0  0  0  0  0
   39.8160   30.6730   42.9590 C   0  0  0  0  0  0  0  0  0  0  0  0
   40.5120   29.9840   42.5050 H   0  0  0  0  0  0  0  0  0  0  0  0
   39.9250   31.9800   42.6330 N   0  0  0  0  0  0  0  0  0  0  0  0
   39.0610   32.8670   43.1900 C   0  0  0  0  0  0  0  0  0  0  0  0
   38.0800   32.5580   44.0590 N   0  0  0  0  0  0  0  0  0  0  0  0
  2  1  1  0  0  0  0
  2  3  1  0  0  0  0
  3 12  1  0  0  0  0
  4  3  2  0  0  0  0
  4  9  1  0  0  0  0
  5  4  1  0  0  0  0
  6  8  1  0  0  0  0
  6  5  2  0  0  0  0
  7  6  1  0  0  0  0
  8  2  2  0  0  0  0
 10  5  1  0  0  0  0
 11 16  1  0  0  0  0
 12 11  2  0  0  0  0
 12 13  1  0  0  0  0
 13 14  2  0  0  0  0
 14 15  1  0  0  0  0
 15 19  1  0  0  0  0
 16 15  2  0  0  0  0
 17 11  1  0  0  0  0
 18 13  1  0  0  0  0
 20  8  1  0  0  0  0
 21 20  2  0  0  0  0
 22 21  1  0  0  0  0
 23 22  1  0  0  0  0
 24 22  2  0  0  0  0
 24 25  1  0  0  0  0
 25 26  2  0  0  0  0
 26 20  1  0  0  0  0
M  END
>  <minimizedAffinity>
-5.74117947

>  <minimizedRMSD>
4.23654079

$$$$
