REMARK  Name = 
REMARK  2 active torsions:
REMARK  status: ('A' for Active; 'I' for Inactive)
REMARK    1  A    between atoms: C_5  and  C_7
REMARK    2  A    between atoms: C_12  and  C_20
REMARK                            x       y       z     vdW  Elec       q    Type
REMARK                         _______ _______ _______ _____ _____    ______ ____
ROOT
ATOM      1  C   UNL     1      36.100  30.136  48.602  0.00  0.00    +0.000 A 
ATOM      2  C   UNL     1      35.284  29.946  47.519  0.00  0.00    +0.000 A 
ATOM      3  C   UNL     1      34.298  28.980  47.509  0.00  0.00    +0.000 A 
ATOM      4  C   UNL     1      34.148  28.198  48.625  0.00  0.00    +0.000 A 
ATOM      5  C   UNL     1      34.953  28.358  49.742  0.00  0.00    +0.000 A 
ATOM      6  C   UNL     1      35.938  29.338  49.726  0.00  0.00    +0.000 A 
ATOM      7  H   UNL     1      35.375  30.551  46.611  0.00  0.00    +0.000 HD
ATOM      8  H   UNL     1      33.663  28.848  46.638  0.00  0.00    +0.000 HD
ATOM      9  H   UNL     1      33.364  27.452  48.578  0.00  0.00    +0.000 HD
ATOM     10  H   UNL     1      34.795  27.717  50.596  0.00  0.00    +0.000 HD
ENDROOT
BRANCH   1  15
ATOM     11  C   UNL     1      38.011  33.101  49.474  0.00  0.00    +0.000 A 
ATOM     12  C   UNL     1      38.971  33.211  48.469  0.00  0.00    +0.000 A 
ATOM     13  C   UNL     1      38.946  32.226  47.467  0.00  0.00    +0.000 A 
ATOM     14  N   UNL     1      38.013  31.246  47.530  0.00  0.00    +0.000 NA
ATOM     15  C   UNL     1      37.110  31.179  48.515  0.00  0.00    +0.000 A 
ATOM     16  N   UNL     1      37.112  32.118  49.495  0.00  0.00    +0.000 NA
ATOM     17  H   UNL     1      38.070  33.894  50.235  0.00  0.00    +0.000 HD
ATOM     18  H   UNL     1      39.731  33.960  48.366  0.00  0.00    +0.000 HD
ATOM     19  H   UNL     1      39.628  32.161  46.603  0.00  0.00    +0.000 HD
ENDBRANCH   1  15
BRANCH   6  20
ATOM     20  C   UNL     1      36.807  29.539  50.881  0.00  0.00    +0.000 A 
ATOM     21  C   UNL     1      37.556  30.697  50.936  0.00  0.00    +0.000 A 
ATOM     22  C   UNL     1      38.369  30.893  52.009  0.00  0.00    +0.000 A 
ATOM     23  H   UNL     1      39.021  31.741  52.210  0.00  0.00    +0.000 HD
ATOM     24  N   UNL     1      38.447  29.992  52.992  0.00  0.00    +0.000 NA
ATOM     25  C   UNL     1      37.717  28.838  52.962  0.00  0.00    +0.000 A 
ATOM     26  N   UNL     1      36.933  28.685  51.893  0.00  0.00    +0.000 NA
ENDBRANCH   6  20
TORSDOF 2
