REMARK  Name = 
REMARK  2 active torsions:
REMARK  status: ('A' for Active; 'I' for Inactive)
REMARK    1  A    between atoms: C_3  and  C_13
REMARK    2  A    between atoms: C_5  and  C_7
REMARK                            x       y       z     vdW  Elec       q    Type
REMARK                         _______ _______ _______ _____ _____    ______ ____
ROOT
ATOM      1  C   UNL     1      38.306  31.241  50.119  0.00  0.00    +0.000 A 
ATOM      2  C   UNL     1      38.299  31.615  48.764  0.00  0.00    +0.000 A 
ATOM      3  C   UNL     1      37.206  31.219  48.008  0.00  0.00    +0.000 A 
ATOM      4  N   UNL     1      36.211  30.504  48.587  0.00  0.00    +0.000 NA
ATOM      5  C   UNL     1      36.258  30.165  49.896  0.00  0.00    +0.000 A 
ATOM      6  N   UNL     1      37.297  30.531  50.654  0.00  0.00    +0.000 NA
ATOM      7  H   UNL     1      39.141  31.531  50.745  0.00  0.00    +0.000 HD
ATOM      8  H   UNL     1      39.120  32.187  48.352  0.00  0.00    +0.000 HD
ENDROOT
BRANCH   3   9
ATOM      9  C   UNL     1      37.135  31.573  46.594  0.00  0.00    +0.000 A 
ATOM     10  C   UNL     1      36.755  30.624  45.667  0.00  0.00    +0.000 A 
ATOM     11  C   UNL     1      36.709  31.029  44.348  0.00  0.00    +0.000 A 
ATOM     12  H   UNL     1      36.418  30.310  43.609  0.00  0.00    +0.000 HD
ATOM     13  N   UNL     1      37.026  32.294  44.034  0.00  0.00    +0.000 NA
ATOM     14  C   UNL     1      37.395  33.222  44.920  0.00  0.00    +0.000 A 
ATOM     15  N   UNL     1      37.441  32.826  46.218  0.00  0.00    +0.000 NA
ENDBRANCH   3   9
BRANCH   5  16
ATOM     16  C   UNL     1      35.126  29.381  50.449  0.00  0.00    +0.000 C 
ATOM     17  F   UNL     1      35.270  29.126  51.807  0.00  0.00    +0.000 F 
ATOM     18  F   UNL     1      33.928  30.060  50.299  0.00  0.00    +0.000 F 
ATOM     19  F   UNL     1      34.950  28.171  49.820  0.00  0.00    +0.000 F 
ENDBRANCH   5  16
TORSDOF 2
