
 OpenBabel03262520543D

 24 26  0  0  1  0  0  0  0  0999 V2000
   36.4610   29.4540   50.3100 C   0  0  2  0  0  0  0  0  0  0  0  0
   36.8230   30.7890   50.7770 C   0  0  0  0  0  0  0  0  0  0  0  0
   37.7300   30.0440   49.8010 C   0  0  2  0  0  0  0  0  0  0  0  0
   36.6470   28.5480   50.9570 H   0  0  0  0  0  0  0  0  0  0  0  0
   36.3160   31.6870   50.4190 H   0  0  0  0  0  0  0  0  0  0  0  0
   37.2520   30.8830   51.8070 H   0  0  0  0  0  0  0  0  0  0  0  0
   38.6890   29.6670   50.2050 H   0  0  0  0  0  0  0  0  0  0  0  0
   33.9080   30.0070   47.6570 C   0  0  0  0  0  0  0  0  0  0  0  0
   33.4050   28.7140   47.4800 C   0  0  0  0  0  0  0  0  0  0  0  0
   33.9370   27.6600   48.2580 C   0  0  0  0  0  0  0  0  0  0  0  0
   34.9330   27.9560   49.1610 N   0  0  0  0  0  0  0  0  0  0  0  0
   35.3880   29.2030   49.3020 C   0  0  0  0  0  0  0  0  0  0  0  0
   34.8880   30.2030   48.5690 N   0  0  0  0  0  0  0  0  0  0  0  0
   33.5580   30.8670   47.1050 H   0  0  0  0  0  0  0  0  0  0  0  0
   32.6270   28.5610   46.7560 H   0  0  0  0  0  0  0  0  0  0  0  0
   33.5600   26.6660   48.1300 H   0  0  0  0  0  0  0  0  0  0  0  0
   37.7490   30.6080   48.0830 S   0  0  0  0  0  0  0  0  0  0  0  0
   38.7470   32.0520   47.8060 C   0  0  0  0  0  0  0  0  0  0  0  0
   38.6830   32.8190   48.9770 C   0  0  0  0  0  0  0  0  0  0  0  0
   39.3520   34.0440   49.1030 C   0  0  0  0  0  0  0  0  0  0  0  0
   39.3720   34.7140   49.9510 H   0  0  0  0  0  0  0  0  0  0  0  0
   40.1010   34.5420   48.0770 N   0  0  0  0  0  0  0  0  0  0  0  0
   40.1350   33.7660   46.9620 C   0  0  0  0  0  0  0  0  0  0  0  0
   39.5020   32.6070   46.8450 N   0  0  0  0  0  0  0  0  0  0  0  0
  1  2  1  0  0  0  0
  1  4  1  1  0  0  0
  2  6  1  0  0  0  0
  3  7  1  1  0  0  0
  3  1  1  0  0  0  0
  3  2  1  0  0  0  0
  5  2  1  0  0  0  0
  8 13  1  0  0  0  0
  9  8  2  0  0  0  0
  9 10  1  0  0  0  0
 10 11  2  0  0  0  0
 11 12  1  0  0  0  0
 12  1  1  0  0  0  0
 13 12  2  0  0  0  0
 14  8  1  0  0  0  0
 15  9  1  0  0  0  0
 16 10  1  0  0  0  0
 17  3  1  0  0  0  0
 18 17  1  0  0  0  0
 18 19  1  0  0  0  0
 19 20  2  0  0  0  0
 20 21  1  0  0  0  0
 22 20  1  0  0  0  0
 23 22  2  0  0  0  0
 24 23  1  0  0  0  0
 24 18  2  0  0  0  0
M  END
>  <minimizedAffinity>
-4.85639763

>  <minimizedRMSD>
4.94675493

$$$$
