
 OpenBabel03272500043D

 27 29  0  0  0  0  0  0  0  0999 V2000
   35.5610   28.9130   49.2300 C   0  0  0  0  0  0  0  0  0  0  0  0
   35.4430   30.0860   48.4600 C   0  0  0  0  0  0  0  0  0  0  0  0
   34.3330   30.2120   47.6500 C   0  0  0  0  0  0  0  0  0  0  0  0
   33.4080   29.2230   47.6170 N   0  0  0  0  0  0  0  0  0  0  0  0
   33.5410   28.1120   48.3600 C   0  0  0  0  0  0  0  0  0  0  0  0
   34.6140   27.9460   49.1700 N   0  0  0  0  0  0  0  0  0  0  0  0
   36.4200   28.7840   49.8760 H   0  0  0  0  0  0  0  0  0  0  0  0
   34.2380   31.1050   47.0600 H   0  0  0  0  0  0  0  0  0  0  0  0
   36.4810   31.0630   48.5740 N   0  0  0  0  0  0  0  0  0  0  0  0
   36.6500   31.7910   49.6960 C   0  0  0  0  0  0  0  0  0  0  0  0
   37.6750   32.7300   49.7560 C   0  0  0  0  0  0  0  0  0  0  0  0
   38.4400   32.8230   48.6230 C   0  0  0  0  0  0  0  0  0  0  0  0
   39.3790   33.6720   48.6560 O   0  0  0  0  0  0  0  0  0  0  0  0
   38.2900   32.1100   47.4980 N   0  0  0  0  0  0  0  0  0  0  0  0
   37.2760   31.2080   47.4890 C   0  0  0  0  0  0  0  0  0  0  0  0
   37.1270   30.5310   46.4320 O   0  0  0  0  0  0  0  0  0  0  0  0
   35.9960   31.6510   50.5480 H   0  0  0  0  0  0  0  0  0  0  0  0
   37.8590   33.3390   50.6210 H   0  0  0  0  0  0  0  0  0  0  0  0
   38.8990   32.2260   46.6760 H   0  0  0  0  0  0  0  0  0  0  0  0
   32.6180   27.0720   48.3600 O   0  0  0  0  0  0  0  0  0  0  0  0
   31.2470   27.2990   48.5260 C   0  0  0  0  0  0  0  0  0  0  0  0
   30.4210   26.9260   47.4850 C   0  0  0  0  0  3  0  0  0  0  0  0
   29.0840   27.1690   47.6950 C   0  0  0  0  0  0  0  0  0  0  0  0
   28.3720   26.9050   46.9250 H   0  0  0  0  0  0  0  0  0  0  0  0
   28.5750   27.7320   48.8270 N   0  0  0  0  0  0  0  0  0  0  0  0
   29.4380   28.0780   49.8190 C   0  0  0  0  0  3  0  0  0  0  0  0
   30.7590   27.8600   49.6610 N   0  0  0  0  0  0  0  0  0  0  0  0
  1  7  1  0  0  0  0
  2  9  1  0  0  0  0
  2  1  2  0  0  0  0
  3  2  1  0  0  0  0
  4  3  2  0  0  0  0
  4  5  1  0  0  0  0
  5 20  1  0  0  0  0
  5  6  2  0  0  0  0
  6  1  1  0  0  0  0
  8  3  1  0  0  0  0
  9 10  1  0  0  0  0
 10 11  2  0  0  0  0
 10 17  1  0  0  0  0
 11 18  1  0  0  0  0
 12 13  2  0  0  0  0
 12 11  1  0  0  0  0
 14 12  1  0  0  0  0
 15 14  1  0  0  0  0
 15  9  1  0  0  0  0
 16 15  2  0  0  0  0
 19 14  1  0  0  0  0
 20 21  1  0  0  0  0
 21 27  1  0  0  0  0
 22 23  1  0  0  0  0
 22 21  2  0  0  0  0
 23 25  2  0  0  0  0
 24 23  1  0  0  0  0
 25 26  1  0  0  0  0
 27 26  2  0  0  0  0
M  END
>  <minimizedAffinity>
-5.68746996

>  <minimizedRMSD>
1.41679561

$$$$
