
 OpenBabel03272504513D

 40 43  0  0  1  0  0  0  0  0999 V2000
   41.4910   23.7930   35.2770 N   0  0  0  0  0  0  0  0  0  0  0  0
   42.7970   24.2970   35.6930 C   0  0  0  0  0  0  0  0  0  0  0  0
   43.5730   23.3060   36.5030 C   0  0  0  0  0  0  0  0  0  0  0  0
   43.3280   21.8960   35.9900 C   0  0  0  0  0  0  0  0  0  0  0  0
   41.8900   21.6030   36.3080 C   0  0  0  0  0  0  0  0  0  0  0  0
   40.9280   22.5150   35.6040 C   0  0  1  0  0  0  0  0  0  0  0  0
   43.4110   24.6180   34.8320 H   0  0  0  0  0  0  0  0  0  0  0  0
   42.5780   25.1680   36.3490 H   0  0  0  0  0  0  0  0  0  0  0  0
   44.6680   23.4760   36.3590 H   0  0  0  0  0  0  0  0  0  0  0  0
   43.3600   23.3820   37.5720 H   0  0  0  0  0  0  0  0  0  0  0  0
   43.4960   21.8810   34.8930 H   0  0  0  0  0  0  0  0  0  0  0  0
   43.9610   21.1960   36.5480 H   0  0  0  0  0  0  0  0  0  0  0  0
   41.7780   21.7580   37.4000 H   0  0  0  0  0  0  0  0  0  0  0  0
   41.6320   20.5410   36.1300 H   0  0  0  0  0  0  0  0  0  0  0  0
   40.5460   21.9670   34.7240 H   0  0  0  0  0  0  0  0  0  0  0  0
   40.4210   25.9620   34.9090 C   0  0  0  0  0  0  0  0  0  0  0  0
   40.7170   24.6770   34.4700 C   0  0  0  0  0  0  0  0  0  0  0  0
   40.2280   24.3060   33.2300 C   0  0  0  0  0  0  0  0  0  0  0  0
   39.4880   25.2030   32.5110 N   0  0  0  0  0  0  0  0  0  0  0  0
   39.2180   26.4270   32.9530 C   0  0  0  0  0  0  0  0  0  0  0  0
   39.6920   26.7890   34.1530 N   0  0  0  0  0  0  0  0  0  0  0  0
   40.7890   26.2910   35.8800 H   0  0  0  0  0  0  0  0  0  0  0  0
   40.4170   23.3240   32.8200 H   0  0  0  0  0  0  0  0  0  0  0  0
   38.4330   27.3480   32.1650 C   0  0  0  0  0  0  0  0  0  0  0  0
   37.2320   27.8170   32.6340 C   0  0  0  0  0  0  0  0  0  0  0  0
   36.4280   28.6930   31.9500 C   0  0  0  0  0  0  0  0  0  0  0  0
   36.9220   29.0760   30.7340 C   0  0  0  0  0  0  0  0  0  0  0  0
   38.1470   28.6300   30.1970 C   0  0  0  0  0  0  0  0  0  0  0  0
   38.8750   27.7540   30.9650 N   0  0  0  0  0  0  0  0  0  0  0  0
   36.9160   27.4570   33.6160 H   0  0  0  0  0  0  0  0  0  0  0  0
   35.4810   29.0670   32.3100 H   0  0  0  0  0  0  0  0  0  0  0  0
   36.3530   29.7730   30.1120 H   0  0  0  0  0  0  0  0  0  0  0  0
   38.4850   28.9690   29.2290 H   0  0  0  0  0  0  0  0  0  0  0  0
   39.7770   22.7800   36.5400 C   0  0  0  0  0  0  0  0  0  0  0  0
   39.8200   23.1730   37.8450 C   0  0  0  0  0  3  0  0  0  0  0  0
   38.6820   23.3740   38.5660 C   0  0  0  0  0  0  0  0  0  0  0  0
   38.7680   23.6850   39.5970 H   0  0  0  0  0  0  0  0  0  0  0  0
   37.4900   23.1750   37.9570 N   0  0  0  0  0  0  0  0  0  0  0  0
   37.4400   22.7860   36.6650 C   0  0  0  0  0  3  0  0  0  0  0  0
   38.5650   22.5890   35.9610 N   0  0  0  0  0  0  0  0  0  0  0  0
  1  6  1  0  0  0  0
  1  2  1  0  0  0  0
  2  8  1  0  0  0  0
  2  3  1  0  0  0  0
  3 10  1  0  0  0  0
  4  5  1  0  0  0  0
  4  3  1  0  0  0  0
  4 12  1  0  0  0  0
  5 13  1  0  0  0  0
  6 15  1  6  0  0  0
  6  5  1  0  0  0  0
  6 34  1  0  0  0  0
  7  2  1  0  0  0  0
  9  3  1  0  0  0  0
 11  4  1  0  0  0  0
 14  5  1  0  0  0  0
 16 22  1  0  0  0  0
 17 16  1  0  0  0  0
 17  1  1  0  0  0  0
 18 17  2  0  0  0  0
 19 20  2  0  0  0  0
 19 18  1  0  0  0  0
 20 21  1  0  0  0  0
 21 16  2  0  0  0  0
 23 18  1  0  0  0  0
 24 25  1  0  0  0  0
 24 20  1  0  0  0  0
 25 30  1  0  0  0  0
 26 31  1  0  0  0  0
 26 25  2  0  0  0  0
 27 26  1  0  0  0  0
 28 27  2  0  0  0  0
 28 29  1  0  0  0  0
 29 24  2  0  0  0  0
 32 27  1  0  0  0  0
 33 28  1  0  0  0  0
 34 35  1  0  0  0  0
 35 36  2  0  0  0  0
 36 37  1  0  0  0  0
 38 36  1  0  0  0  0
 39 38  2  0  0  0  0
 40 34  2  0  0  0  0
 40 39  1  0  0  0  0
M  END
>  <minimizedAffinity>
-5.42478657

$$$$

 OpenBabel03272504513D

 40 43  0  0  1  0  0  0  0  0999 V2000
   38.7170   24.2530   35.7790 N   0  0  0  0  0  0  0  0  0  0  0  0
   38.1490   24.5730   37.0850 C   0  0  0  0  0  0  0  0  0  0  0  0
   38.4720   23.5500   38.1280 C   0  0  0  0  0  0  0  0  0  0  0  0
   39.8780   23.0090   37.9200 C   0  0  0  0  0  0  0  0  0  0  0  0
   39.8180   22.2350   36.6350 C   0  0  0  0  0  0  0  0  0  0  0  0
   39.4790   23.0840   35.4450 C   0  0  1  0  0  0  0  0  0  0  0  0
   38.4700   25.5680   37.4440 H   0  0  0  0  0  0  0  0  0  0  0  0
   37.0460   24.5620   36.9350 H   0  0  0  0  0  0  0  0  0  0  0  0
   38.4990   24.0340   39.1350 H   0  0  0  0  0  0  0  0  0  0  0  0
   37.7370   22.7420   38.1640 H   0  0  0  0  0  0  0  0  0  0  0  0
   40.5790   23.8640   37.8280 H   0  0  0  0  0  0  0  0  0  0  0  0
   40.1200   22.3170   38.7350 H   0  0  0  0  0  0  0  0  0  0  0  0
   39.0130   21.4830   36.7650 H   0  0  0  0  0  0  0  0  0  0  0  0
   40.7420   21.6520   36.4560 H   0  0  0  0  0  0  0  0  0  0  0  0
   40.4280   23.3130   34.9280 H   0  0  0  0  0  0  0  0  0  0  0  0
   37.2610   25.8800   34.6760 C   0  0  0  0  0  0  0  0  0  0  0  0
   38.4750   25.2090   34.7490 C   0  0  0  0  0  0  0  0  0  0  0  0
   39.4210   25.5090   33.7850 C   0  0  0  0  0  0  0  0  0  0  0  0
   39.1210   26.4340   32.8240 N   0  0  0  0  0  0  0  0  0  0  0  0
   37.9510   27.0630   32.7750 C   0  0  0  0  0  0  0  0  0  0  0  0
   37.0330   26.7740   33.7080 N   0  0  0  0  0  0  0  0  0  0  0  0
   36.4910   25.6710   35.4180 H   0  0  0  0  0  0  0  0  0  0  0  0
   40.3890   25.0300   33.7770 H   0  0  0  0  0  0  0  0  0  0  0  0
   37.6690   28.0340   31.7440 C   0  0  0  0  0  0  0  0  0  0  0  0
   36.6080   28.8950   31.8700 C   0  0  0  0  0  0  0  0  0  0  0  0
   36.2730   29.8450   30.9390 C   0  0  0  0  0  0  0  0  0  0  0  0
   37.0940   29.8730   29.8460 C   0  0  0  0  0  0  0  0  0  0  0  0
   38.1980   29.0160   29.6570 C   0  0  0  0  0  0  0  0  0  0  0  0
   38.4450   28.1010   30.6510 N   0  0  0  0  0  0  0  0  0  0  0  0
   36.0060   28.8010   32.7770 H   0  0  0  0  0  0  0  0  0  0  0  0
   35.4410   30.5270   31.0290 H   0  0  0  0  0  0  0  0  0  0  0  0
   36.9080   30.5970   29.0470 H   0  0  0  0  0  0  0  0  0  0  0  0
   38.8100   29.0870   28.7710 H   0  0  0  0  0  0  0  0  0  0  0  0
   38.6170   22.2590   34.5230 C   0  0  0  0  0  0  0  0  0  0  0  0
   37.3150   21.8880   34.6860 C   0  0  0  0  0  3  0  0  0  0  0  0
   36.6670   21.1350   33.7540 C   0  0  0  0  0  0  0  0  0  0  0  0
   35.6360   20.8660   33.9290 H   0  0  0  0  0  0  0  0  0  0  0  0
   37.3470   20.7560   32.6470 N   0  0  0  0  0  0  0  0  0  0  0  0
   38.6360   21.1210   32.4780 C   0  0  0  0  0  3  0  0  0  0  0  0
   39.2680   21.8620   33.4000 N   0  0  0  0  0  0  0  0  0  0  0  0
  1  2  1  0  0  0  0
  2  7  1  0  0  0  0
  2  3  1  0  0  0  0
  3 10  1  0  0  0  0
  3  9  1  0  0  0  0
  4  3  1  0  0  0  0
  4 12  1  0  0  0  0
  5 13  1  0  0  0  0
  5  4  1  0  0  0  0
  6 15  1  6  0  0  0
  6  1  1  0  0  0  0
  6  5  1  0  0  0  0
  8  2  1  0  0  0  0
 11  4  1  0  0  0  0
 14  5  1  0  0  0  0
 16 17  1  0  0  0  0
 16 22  1  0  0  0  0
 17  1  1  0  0  0  0
 18 17  2  0  0  0  0
 19 18  1  0  0  0  0
 20 19  2  0  0  0  0
 20 21  1  0  0  0  0
 21 16  2  0  0  0  0
 23 18  1  0  0  0  0
 24 25  1  0  0  0  0
 24 20  1  0  0  0  0
 25 30  1  0  0  0  0
 26 31  1  0  0  0  0
 26 25  2  0  0  0  0
 27 26  1  0  0  0  0
 28 27  2  0  0  0  0
 28 29  1  0  0  0  0
 29 24  2  0  0  0  0
 32 27  1  0  0  0  0
 33 28  1  0  0  0  0
 34 35  1  0  0  0  0
 34  6  1  0  0  0  0
 36 37  1  0  0  0  0
 36 35  2  0  0  0  0
 38 36  1  0  0  0  0
 39 38  2  0  0  0  0
 39 40  1  0  0  0  0
 40 34  2  0  0  0  0
M  END
>  <minimizedAffinity>
-5.34426355

$$$$

 OpenBabel03272504513D

 40 43  0  0  1  0  0  0  0  0999 V2000
   38.8270   22.8330   35.7880 N   0  0  0  0  0  0  0  0  0  0  0  0
   39.8110   22.2230   36.6770 C   0  0  0  0  0  0  0  0  0  0  0  0
   39.9040   22.9110   38.0030 C   0  0  0  0  0  0  0  0  0  0  0  0
   38.5310   23.3860   38.4500 C   0  0  0  0  0  0  0  0  0  0  0  0
   38.1540   24.4720   37.4840 C   0  0  0  0  0  0  0  0  0  0  0  0
   38.0280   23.9910   36.0680 C   0  0  1  0  0  0  0  0  0  0  0  0
   39.6100   21.1480   36.8420 H   0  0  0  0  0  0  0  0  0  0  0  0
   40.7890   22.3520   36.1630 H   0  0  0  0  0  0  0  0  0  0  0  0
   40.2210   22.1800   38.7860 H   0  0  0  0  0  0  0  0  0  0  0  0
   40.6260   23.7320   37.9980 H   0  0  0  0  0  0  0  0  0  0  0  0
   37.8190   22.5370   38.3800 H   0  0  0  0  0  0  0  0  0  0  0  0
   38.6100   23.8210   39.4530 H   0  0  0  0  0  0  0  0  0  0  0  0
   38.9730   25.2190   37.5250 H   0  0  0  0  0  0  0  0  0  0  0  0
   37.2410   25.0140   37.8010 H   0  0  0  0  0  0  0  0  0  0  0  0
   36.9520   23.8390   35.8720 H   0  0  0  0  0  0  0  0  0  0  0  0
   37.4060   21.8010   34.0840 C   0  0  0  0  0  0  0  0  0  0  0  0
   38.6640   22.2000   34.5210 C   0  0  0  0  0  0  0  0  0  0  0  0
   39.7310   21.9530   33.6770 C   0  0  0  0  0  0  0  0  0  0  0  0
   39.5040   21.3380   32.4780 N   0  0  0  0  0  0  0  0  0  0  0  0
   38.2910   20.9660   32.0820 C   0  0  0  0  0  0  0  0  0  0  0  0
   37.2540   21.2040   32.8970 N   0  0  0  0  0  0  0  0  0  0  0  0
   36.5390   21.9790   34.7200 H   0  0  0  0  0  0  0  0  0  0  0  0
   40.7390   22.2350   33.9460 H   0  0  0  0  0  0  0  0  0  0  0  0
   38.0880   20.3180   30.8070 C   0  0  0  0  0  0  0  0  0  0  0  0
   36.9180   19.6510   30.5430 C   0  0  0  0  0  0  0  0  0  0  0  0
   36.6470   19.0120   29.3600 C   0  0  0  0  0  0  0  0  0  0  0  0
   37.6530   19.0880   28.4380 C   0  0  0  0  0  0  0  0  0  0  0  0
   38.8770   19.7560   28.6490 C   0  0  0  0  0  0  0  0  0  0  0  0
   39.0460   20.3640   29.8690 N   0  0  0  0  0  0  0  0  0  0  0  0
   36.1700   19.6420   31.3400 H   0  0  0  0  0  0  0  0  0  0  0  0
   35.7300   18.4850   29.1440 H   0  0  0  0  0  0  0  0  0  0  0  0
   37.5310   18.6090   27.4620 H   0  0  0  0  0  0  0  0  0  0  0  0
   39.6340   19.7820   27.8800 H   0  0  0  0  0  0  0  0  0  0  0  0
   38.5300   25.0880   35.1640 C   0  0  0  0  0  0  0  0  0  0  0  0
   39.7720   25.6490   35.1210 C   0  0  0  0  0  3  0  0  0  0  0  0
   40.0760   26.6410   34.2390 C   0  0  0  0  0  0  0  0  0  0  0  0
   41.0740   27.0540   34.2440 H   0  0  0  0  0  0  0  0  0  0  0  0
   39.1100   27.0660   33.3910 N   0  0  0  0  0  0  0  0  0  0  0  0
   37.8780   26.5140   33.4270 C   0  0  0  0  0  3  0  0  0  0  0  0
   37.5860   25.5380   34.2990 N   0  0  0  0  0  0  0  0  0  0  0  0
  1  6  1  0  0  0  0
  1  2  1  0  0  0  0
  2  7  1  0  0  0  0
  2  3  1  0  0  0  0
  3  4  1  0  0  0  0
  3  9  1  0  0  0  0
  4 12  1  0  0  0  0
  5 13  1  0  0  0  0
  5 14  1  0  0  0  0
  5  4  1  0  0  0  0
  6 15  1  6  0  0  0
  6  5  1  0  0  0  0
  8  2  1  0  0  0  0
 10  3  1  0  0  0  0
 11  4  1  0  0  0  0
 16 17  1  0  0  0  0
 16 22  1  0  0  0  0
 17  1  1  0  0  0  0
 18 23  1  0  0  0  0
 18 17  2  0  0  0  0
 19 18  1  0  0  0  0
 20 19  2  0  0  0  0
 20 21  1  0  0  0  0
 21 16  2  0  0  0  0
 24 20  1  0  0  0  0
 25 24  1  0  0  0  0
 25 30  1  0  0  0  0
 26 25  2  0  0  0  0
 27 28  2  0  0  0  0
 27 26  1  0  0  0  0
 28 29  1  0  0  0  0
 29 24  2  0  0  0  0
 31 26  1  0  0  0  0
 32 27  1  0  0  0  0
 33 28  1  0  0  0  0
 34  6  1  0  0  0  0
 35 34  1  0  0  0  0
 36 37  1  0  0  0  0
 36 35  2  0  0  0  0
 38 39  2  0  0  0  0
 38 36  1  0  0  0  0
 39 40  1  0  0  0  0
 40 34  2  0  0  0  0
M  END
>  <minimizedAffinity>
-5.31482744

$$$$

 OpenBabel03272504513D

 40 43  0  0  1  0  0  0  0  0999 V2000
   36.6420   27.0930   31.6050 N   0  0  0  0  0  0  0  0  0  0  0  0
   36.0910   27.8710   32.7110 C   0  0  0  0  0  0  0  0  0  0  0  0
   36.2360   29.3470   32.5130 C   0  0  0  0  0  0  0  0  0  0  0  0
   36.0540   29.7050   31.0470 C   0  0  0  0  0  0  0  0  0  0  0  0
   37.2400   29.1100   30.3440 C   0  0  0  0  0  0  0  0  0  0  0  0
   37.3000   27.6140   30.4420 C   0  0  1  0  0  0  0  0  0  0  0  0
   35.0270   27.6350   32.8960 H   0  0  0  0  0  0  0  0  0  0  0  0
   36.7020   27.5910   33.5980 H   0  0  0  0  0  0  0  0  0  0  0  0
   35.4080   29.8820   33.0410 H   0  0  0  0  0  0  0  0  0  0  0  0
   37.1830   29.7310   32.9000 H   0  0  0  0  0  0  0  0  0  0  0  0
   35.1130   29.2440   30.6810 H   0  0  0  0  0  0  0  0  0  0  0  0
   36.0910   30.7950   30.9350 H   0  0  0  0  0  0  0  0  0  0  0  0
   38.1370   29.5260   30.8470 H   0  0  0  0  0  0  0  0  0  0  0  0
   37.3090   29.4410   29.2900 H   0  0  0  0  0  0  0  0  0  0  0  0
   36.8990   27.2100   29.4950 H   0  0  0  0  0  0  0  0  0  0  0  0
   35.5870   24.9920   30.9280 C   0  0  0  0  0  0  0  0  0  0  0  0
   36.5020   25.6780   31.7170 C   0  0  0  0  0  0  0  0  0  0  0  0
   37.2560   24.9300   32.6030 C   0  0  0  0  0  0  0  0  0  0  0  0
   37.0680   23.5780   32.6610 N   0  0  0  0  0  0  0  0  0  0  0  0
   36.1860   22.9440   31.8950 C   0  0  0  0  0  0  0  0  0  0  0  0
   35.4540   23.6660   31.0350 N   0  0  0  0  0  0  0  0  0  0  0  0
   34.9750   25.5450   30.2170 H   0  0  0  0  0  0  0  0  0  0  0  0
   37.9890   25.3930   33.2490 H   0  0  0  0  0  0  0  0  0  0  0  0
   36.0140   21.5120   31.9840 C   0  0  0  0  0  0  0  0  0  0  0  0
   35.6420   20.9280   33.1680 C   0  0  0  0  0  0  0  0  0  0  0  0
   35.4560   19.5790   33.3360 C   0  0  0  0  0  0  0  0  0  0  0  0
   35.6760   18.8380   32.2080 C   0  0  0  0  0  0  0  0  0  0  0  0
   36.0600   19.3780   30.9630 C   0  0  0  0  0  0  0  0  0  0  0  0
   36.2180   20.7420   30.9040 N   0  0  0  0  0  0  0  0  0  0  0  0
   35.4880   21.5980   34.0180 H   0  0  0  0  0  0  0  0  0  0  0  0
   35.1640   19.1100   34.2630 H   0  0  0  0  0  0  0  0  0  0  0  0
   35.5530   17.7520   32.2410 H   0  0  0  0  0  0  0  0  0  0  0  0
   36.2180   18.7410   30.1070 H   0  0  0  0  0  0  0  0  0  0  0  0
   38.7500   27.2180   30.5560 C   0  0  0  0  0  0  0  0  0  0  0  0
   39.6340   27.5160   31.5510 C   0  0  0  0  0  3  0  0  0  0  0  0
   40.9240   27.0820   31.5120 C   0  0  0  0  0  0  0  0  0  0  0  0
   41.5860   27.3450   32.3230 H   0  0  0  0  0  0  0  0  0  0  0  0
   41.3200   26.3370   30.4530 N   0  0  0  0  0  0  0  0  0  0  0  0
   40.4500   26.0360   29.4650 C   0  0  0  0  0  3  0  0  0  0  0  0
   39.1810   26.4680   29.5110 N   0  0  0  0  0  0  0  0  0  0  0  0
  1 17  1  0  0  0  0
  1  2  1  0  0  0  0
  2  7  1  0  0  0  0
  2  8  1  0  0  0  0
  3  2  1  0  0  0  0
  3 10  1  0  0  0  0
  3  9  1  0  0  0  0
  4  3  1  0  0  0  0
  5  6  1  0  0  0  0
  5 13  1  0  0  0  0
  5  4  1  0  0  0  0
  6 15  1  6  0  0  0
  6 34  1  0  0  0  0
  6  1  1  0  0  0  0
 11  4  1  0  0  0  0
 12  4  1  0  0  0  0
 14  5  1  0  0  0  0
 16 21  2  0  0  0  0
 16 17  1  0  0  0  0
 17 18  2  0  0  0  0
 18 19  1  0  0  0  0
 18 23  1  0  0  0  0
 20 24  1  0  0  0  0
 20 19  2  0  0  0  0
 21 20  1  0  0  0  0
 22 16  1  0  0  0  0
 24 25  1  0  0  0  0
 25 26  2  0  0  0  0
 25 30  1  0  0  0  0
 26 31  1  0  0  0  0
 27 32  1  0  0  0  0
 27 26  1  0  0  0  0
 28 27  2  0  0  0  0
 29 28  1  0  0  0  0
 29 24  2  0  0  0  0
 33 28  1  0  0  0  0
 34 35  1  0  0  0  0
 36 35  2  0  0  0  0
 36 37  1  0  0  0  0
 38 36  1  0  0  0  0
 39 40  1  0  0  0  0
 39 38  2  0  0  0  0
 40 34  2  0  0  0  0
M  END
>  <minimizedAffinity>
-5.27880144

$$$$

 OpenBabel03272504513D

 40 43  0  0  1  0  0  0  0  0999 V2000
   36.0490   29.5570   32.5790 N   0  0  0  0  0  0  0  0  0  0  0  0
   36.4140   29.6890   31.1710 C   0  0  0  0  0  0  0  0  0  0  0  0
   35.9480   30.9760   30.5670 C   0  0  0  0  0  0  0  0  0  0  0  0
   36.0480   32.1040   31.5820 C   0  0  0  0  0  0  0  0  0  0  0  0
   35.0220   31.7840   32.6310 C   0  0  0  0  0  0  0  0  0  0  0  0
   35.2930   30.4980   33.3550 C   0  0  1  0  0  0  0  0  0  0  0  0
   37.5040   29.5910   31.0140 H   0  0  0  0  0  0  0  0  0  0  0  0
   35.8800   28.8620   30.6520 H   0  0  0  0  0  0  0  0  0  0  0  0
   36.6370   31.2760   29.7400 H   0  0  0  0  0  0  0  0  0  0  0  0
   34.9390   30.9030   30.1530 H   0  0  0  0  0  0  0  0  0  0  0  0
   37.0680   32.1010   32.0200 H   0  0  0  0  0  0  0  0  0  0  0  0
   35.7720   33.0480   31.0980 H   0  0  0  0  0  0  0  0  0  0  0  0
   34.0550   31.6840   32.0970 H   0  0  0  0  0  0  0  0  0  0  0  0
   34.8820   32.6180   33.3450 H   0  0  0  0  0  0  0  0  0  0  0  0
   35.7730   30.7600   34.3140 H   0  0  0  0  0  0  0  0  0  0  0  0
   36.8540   28.3790   34.5660 C   0  0  0  0  0  0  0  0  0  0  0  0
   36.4970   28.3660   33.2240 C   0  0  0  0  0  0  0  0  0  0  0  0
   36.5980   27.1600   32.5550 C   0  0  0  0  0  0  0  0  0  0  0  0
   37.0390   26.0580   33.2340 N   0  0  0  0  0  0  0  0  0  0  0  0
   37.3750   26.0950   34.5190 C   0  0  0  0  0  0  0  0  0  0  0  0
   37.2770   27.2630   35.1700 N   0  0  0  0  0  0  0  0  0  0  0  0
   36.7870   29.3100   35.1270 H   0  0  0  0  0  0  0  0  0  0  0  0
   36.3370   27.0710   31.5100 H   0  0  0  0  0  0  0  0  0  0  0  0
   37.8370   24.9100   35.2040 C   0  0  0  0  0  0  0  0  0  0  0  0
   38.0170   24.9180   36.5640 C   0  0  0  0  0  0  0  0  0  0  0  0
   38.4510   23.8370   37.2890 C   0  0  0  0  0  0  0  0  0  0  0  0
   38.6980   22.7210   36.5390 C   0  0  0  0  0  0  0  0  0  0  0  0
   38.5330   22.6500   35.1400 C   0  0  0  0  0  0  0  0  0  0  0  0
   38.0940   23.7900   34.5120 N   0  0  0  0  0  0  0  0  0  0  0  0
   37.7950   25.8540   37.0820 H   0  0  0  0  0  0  0  0  0  0  0  0
   38.5960   23.8340   38.3590 H   0  0  0  0  0  0  0  0  0  0  0  0
   39.0480   21.8070   37.0270 H   0  0  0  0  0  0  0  0  0  0  0  0
   38.7450   21.7390   34.6020 H   0  0  0  0  0  0  0  0  0  0  0  0
   33.9660   29.8450   33.6450 C   0  0  0  0  0  0  0  0  0  0  0  0
   33.0720   29.3120   32.7640 C   0  0  0  0  0  3  0  0  0  0  0  0
   31.9040   28.7520   33.1840 C   0  0  0  0  0  0  0  0  0  0  0  0
   31.2290   28.3440   32.4470 H   0  0  0  0  0  0  0  0  0  0  0  0
   31.6410   28.7320   34.5110 N   0  0  0  0  0  0  0  0  0  0  0  0
   32.5210   29.2570   35.3910 C   0  0  0  0  0  3  0  0  0  0  0  0
   33.6700   29.8070   34.9690 N   0  0  0  0  0  0  0  0  0  0  0  0
  1 17  1  0  0  0  0
  1  6  1  0  0  0  0
  2  1  1  0  0  0  0
  3  2  1  0  0  0  0
  3  4  1  0  0  0  0
  4 11  1  0  0  0  0
  4  5  1  0  0  0  0
  5 14  1  0  0  0  0
  5  6  1  0  0  0  0
  6 34  1  0  0  0  0
  6 15  1  1  0  0  0
  7  2  1  0  0  0  0
  8  2  1  0  0  0  0
  9  3  1  0  0  0  0
 10  3  1  0  0  0  0
 12  4  1  0  0  0  0
 13  5  1  0  0  0  0
 16 22  1  0  0  0  0
 16 21  1  0  0  0  0
 17 16  2  0  0  0  0
 18 17  1  0  0  0  0
 18 19  2  0  0  0  0
 19 20  1  0  0  0  0
 20 21  2  0  0  0  0
 20 24  1  0  0  0  0
 23 18  1  0  0  0  0
 24 25  1  0  0  0  0
 25 30  1  0  0  0  0
 25 26  2  0  0  0  0
 26 31  1  0  0  0  0
 27 32  1  0  0  0  0
 27 26  1  0  0  0  0
 28 27  2  0  0  0  0
 29 28  1  0  0  0  0
 29 24  2  0  0  0  0
 33 28  1  0  0  0  0
 34 40  1  0  0  0  0
 35 36  1  0  0  0  0
 35 34  2  0  0  0  0
 36 38  2  0  0  0  0
 37 36  1  0  0  0  0
 38 39  1  0  0  0  0
 40 39  2  0  0  0  0
M  END
>  <minimizedAffinity>
-5.25023222

$$$$

 OpenBabel03272504513D

 40 43  0  0  1  0  0  0  0  0999 V2000
   37.4200   26.2500   30.9580 N   0  0  0  0  0  0  0  0  0  0  0  0
   36.2990   27.1020   30.5730 C   0  0  0  0  0  0  0  0  0  0  0  0
   36.6930   28.5320   30.3780 C   0  0  0  0  0  0  0  0  0  0  0  0
   38.0800   28.6200   29.7620 C   0  0  0  0  0  0  0  0  0  0  0  0
   39.0160   28.1080   30.8180 C   0  0  0  0  0  0  0  0  0  0  0  0
   38.7720   26.6740   31.1840 C   0  0  1  0  0  0  0  0  0  0  0  0
   35.7980   26.7380   29.6560 H   0  0  0  0  0  0  0  0  0  0  0  0
   35.5930   27.0620   31.4320 H   0  0  0  0  0  0  0  0  0  0  0  0
   36.0170   29.0120   29.6280 H   0  0  0  0  0  0  0  0  0  0  0  0
   36.6320   29.1120   31.3030 H   0  0  0  0  0  0  0  0  0  0  0  0
   38.1130   27.9690   28.8630 H   0  0  0  0  0  0  0  0  0  0  0  0
   38.3180   29.6710   29.5610 H   0  0  0  0  0  0  0  0  0  0  0  0
   38.8350   28.7310   31.7180 H   0  0  0  0  0  0  0  0  0  0  0  0
   40.0770   28.2740   30.5510 H   0  0  0  0  0  0  0  0  0  0  0  0
   39.5170   26.0680   30.6380 H   0  0  0  0  0  0  0  0  0  0  0  0
   38.0070   23.8900   30.6930 C   0  0  0  0  0  0  0  0  0  0  0  0
   37.1170   24.8670   31.1230 C   0  0  0  0  0  0  0  0  0  0  0  0
   35.9400   24.4350   31.7070 C   0  0  0  0  0  0  0  0  0  0  0  0
   35.7120   23.0930   31.8290 N   0  0  0  0  0  0  0  0  0  0  0  0
   36.5790   22.1770   31.4100 C   0  0  0  0  0  0  0  0  0  0  0  0
   37.7200   22.5930   30.8450 N   0  0  0  0  0  0  0  0  0  0  0  0
   38.9450   24.1910   30.2290 H   0  0  0  0  0  0  0  0  0  0  0  0
   35.1990   25.1350   32.0670 H   0  0  0  0  0  0  0  0  0  0  0  0
   36.3040   20.7670   31.5570 C   0  0  0  0  0  0  0  0  0  0  0  0
   35.6530   20.2960   32.6690 C   0  0  0  0  0  0  0  0  0  0  0  0
   35.3530   18.9750   32.8840 C   0  0  0  0  0  0  0  0  0  0  0  0
   35.7610   18.1370   31.8830 C   0  0  0  0  0  0  0  0  0  0  0  0
   36.4330   18.5580   30.7170 C   0  0  0  0  0  0  0  0  0  0  0  0
   36.6840   19.9040   30.6020 N   0  0  0  0  0  0  0  0  0  0  0  0
   35.3640   21.0380   33.4180 H   0  0  0  0  0  0  0  0  0  0  0  0
   34.8410   18.5950   33.7550 H   0  0  0  0  0  0  0  0  0  0  0  0
   35.5670   17.0630   31.9620 H   0  0  0  0  0  0  0  0  0  0  0  0
   36.7300   17.8480   29.9610 H   0  0  0  0  0  0  0  0  0  0  0  0
   39.0260   26.5270   32.6630 C   0  0  0  0  0  0  0  0  0  0  0  0
   39.9440   25.7380   33.2910 C   0  0  0  0  0  3  0  0  0  0  0  0
   40.0540   25.7140   34.6480 C   0  0  0  0  0  0  0  0  0  0  0  0
   40.7960   25.0730   35.0980 H   0  0  0  0  0  0  0  0  0  0  0  0
   39.2240   26.4990   35.3750 N   0  0  0  0  0  0  0  0  0  0  0  0
   38.3130   27.2840   34.7600 C   0  0  0  0  0  3  0  0  0  0  0  0
   38.2110   27.3010   33.4220 N   0  0  0  0  0  0  0  0  0  0  0  0
  1 17  1  0  0  0  0
  1  6  1  0  0  0  0
  2  1  1  0  0  0  0
  2  8  1  0  0  0  0
  3  2  1  0  0  0  0
  3 10  1  0  0  0  0
  4  3  1  0  0  0  0
  4  5  1  0  0  0  0
  5  6  1  0  0  0  0
  5 13  1  0  0  0  0
  6 15  1  6  0  0  0
  6 34  1  0  0  0  0
  7  2  1  0  0  0  0
  9  3  1  0  0  0  0
 11  4  1  0  0  0  0
 12  4  1  0  0  0  0
 14  5  1  0  0  0  0
 16 21  2  0  0  0  0
 16 17  1  0  0  0  0
 17 18  2  0  0  0  0
 18 19  1  0  0  0  0
 18 23  1  0  0  0  0
 20 24  1  0  0  0  0
 20 19  2  0  0  0  0
 21 20  1  0  0  0  0
 22 16  1  0  0  0  0
 24 25  1  0  0  0  0
 25 26  2  0  0  0  0
 25 30  1  0  0  0  0
 26 31  1  0  0  0  0
 27 32  1  0  0  0  0
 27 26  1  0  0  0  0
 28 27  2  0  0  0  0
 29 28  1  0  0  0  0
 29 24  2  0  0  0  0
 33 28  1  0  0  0  0
 34 35  2  0  0  0  0
 34 40  1  0  0  0  0
 35 36  1  0  0  0  0
 36 37  1  0  0  0  0
 36 38  2  0  0  0  0
 39 38  1  0  0  0  0
 40 39  2  0  0  0  0
M  END
>  <minimizedAffinity>
-5.12431526

$$$$

 OpenBabel03272504513D

 40 43  0  0  1  0  0  0  0  0999 V2000
   35.9870   30.1410   32.6020 N   0  0  0  0  0  0  0  0  0  0  0  0
   36.4420   30.9340   31.4630 C   0  0  0  0  0  0  0  0  0  0  0  0
   36.2690   32.4050   31.6710 C   0  0  0  0  0  0  0  0  0  0  0  0
   36.5340   32.7700   33.1230 C   0  0  0  0  0  0  0  0  0  0  0  0
   35.4130   32.1420   33.9000 C   0  0  0  0  0  0  0  0  0  0  0  0
   35.3900   30.6450   33.8060 C   0  0  1  0  0  0  0  0  0  0  0  0
   37.4990   30.7280   31.2110 H   0  0  0  0  0  0  0  0  0  0  0  0
   35.7850   30.6350   30.6170 H   0  0  0  0  0  0  0  0  0  0  0  0
   37.0440   32.9630   31.0910 H   0  0  0  0  0  0  0  0  0  0  0  0
   35.2870   32.7610   31.3460 H   0  0  0  0  0  0  0  0  0  0  0  0
   37.5090   32.3370   33.4270 H   0  0  0  0  0  0  0  0  0  0  0  0
   36.4730   33.8590   33.2370 H   0  0  0  0  0  0  0  0  0  0  0  0
   34.4740   32.5310   33.4560 H   0  0  0  0  0  0  0  0  0  0  0  0
   35.4020   32.4730   34.9560 H   0  0  0  0  0  0  0  0  0  0  0  0
   35.8630   30.2540   34.7250 H   0  0  0  0  0  0  0  0  0  0  0  0
   35.7040   28.0550   31.3570 C   0  0  0  0  0  0  0  0  0  0  0  0
   36.1600   28.7310   32.4810 C   0  0  0  0  0  0  0  0  0  0  0  0
   36.7790   27.9780   33.4630 C   0  0  0  0  0  0  0  0  0  0  0  0
   36.9070   26.6280   33.2830 N   0  0  0  0  0  0  0  0  0  0  0  0
   36.4620   26.0040   32.1980 C   0  0  0  0  0  0  0  0  0  0  0  0
   35.8630   26.7320   31.2450 N   0  0  0  0  0  0  0  0  0  0  0  0
   35.2110   28.6140   30.5610 H   0  0  0  0  0  0  0  0  0  0  0  0
   37.1610   28.4320   34.3650 H   0  0  0  0  0  0  0  0  0  0  0  0
   36.6150   24.5760   32.0430 C   0  0  0  0  0  0  0  0  0  0  0  0
   35.6470   23.8360   31.4150 C   0  0  0  0  0  0  0  0  0  0  0  0
   35.7160   22.4790   31.2260 C   0  0  0  0  0  0  0  0  0  0  0  0
   36.8500   21.9010   31.7240 C   0  0  0  0  0  0  0  0  0  0  0  0
   37.8810   22.6050   32.3790 C   0  0  0  0  0  0  0  0  0  0  0  0
   37.7110   23.9620   32.5150 N   0  0  0  0  0  0  0  0  0  0  0  0
   34.7730   24.3830   31.0490 H   0  0  0  0  0  0  0  0  0  0  0  0
   34.9580   21.8880   30.7330 H   0  0  0  0  0  0  0  0  0  0  0  0
   36.9980   20.8220   31.6220 H   0  0  0  0  0  0  0  0  0  0  0  0
   38.7550   22.0920   32.7510 H   0  0  0  0  0  0  0  0  0  0  0  0
   33.9480   30.2070   33.7850 C   0  0  0  0  0  0  0  0  0  0  0  0
   33.0220   30.3880   32.8000 C   0  0  0  0  0  3  0  0  0  0  0  0
   31.7460   29.9300   32.9290 C   0  0  0  0  0  0  0  0  0  0  0  0
   31.0490   30.0980   32.1220 H   0  0  0  0  0  0  0  0  0  0  0  0
   31.4070   29.2820   34.0680 N   0  0  0  0  0  0  0  0  0  0  0  0
   32.3190   29.0980   35.0470 C   0  0  0  0  0  3  0  0  0  0  0  0
   33.5740   29.5530   34.9130 N   0  0  0  0  0  0  0  0  0  0  0  0
  1  6  1  0  0  0  0
  2  3  1  0  0  0  0
  2  1  1  0  0  0  0
  3  4  1  0  0  0  0
  4 12  1  0  0  0  0
  4 11  1  0  0  0  0
  4  5  1  0  0  0  0
  5 14  1  0  0  0  0
  6  5  1  0  0  0  0
  6 15  1  1  0  0  0
  7  2  1  0  0  0  0
  8  2  1  0  0  0  0
  9  3  1  0  0  0  0
 10  3  1  0  0  0  0
 13  5  1  0  0  0  0
 16 17  1  0  0  0  0
 17  1  1  0  0  0  0
 17 18  2  0  0  0  0
 18 23  1  0  0  0  0
 19 18  1  0  0  0  0
 20 19  2  0  0  0  0
 21 16  2  0  0  0  0
 21 20  1  0  0  0  0
 22 16  1  0  0  0  0
 24 20  1  0  0  0  0
 24 29  1  0  0  0  0
 25 24  2  0  0  0  0
 26 25  1  0  0  0  0
 26 27  2  0  0  0  0
 27 28  1  0  0  0  0
 28 29  2  0  0  0  0
 28 33  1  0  0  0  0
 30 25  1  0  0  0  0
 31 26  1  0  0  0  0
 32 27  1  0  0  0  0
 34  6  1  0  0  0  0
 34 40  1  0  0  0  0
 35 36  1  0  0  0  0
 35 34  2  0  0  0  0
 36 38  2  0  0  0  0
 37 36  1  0  0  0  0
 38 39  1  0  0  0  0
 40 39  2  0  0  0  0
M  END
>  <minimizedAffinity>
-5.11001253

$$$$

 OpenBabel03272504513D

 40 43  0  0  1  0  0  0  0  0999 V2000
   35.1810   30.7860   34.7450 N   0  0  0  0  0  0  0  0  0  0  0  0
   35.9580   32.0110   34.5760 C   0  0  0  0  0  0  0  0  0  0  0  0
   35.4690   33.1330   35.4360 C   0  0  0  0  0  0  0  0  0  0  0  0
   34.9960   32.6040   36.7800 C   0  0  0  0  0  0  0  0  0  0  0  0
   33.7680   31.7950   36.4770 C   0  0  0  0  0  0  0  0  0  0  0  0
   34.0370   30.6130   35.5930 C   0  0  1  0  0  0  0  0  0  0  0  0
   37.0340   31.8500   34.7710 H   0  0  0  0  0  0  0  0  0  0  0  0
   35.8050   32.3100   33.5150 H   0  0  0  0  0  0  0  0  0  0  0  0
   36.3180   33.8180   35.6820 H   0  0  0  0  0  0  0  0  0  0  0  0
   34.6920   33.7270   34.9480 H   0  0  0  0  0  0  0  0  0  0  0  0
   35.7910   31.9590   37.2090 H   0  0  0  0  0  0  0  0  0  0  0  0
   34.7120   33.4480   37.4190 H   0  0  0  0  0  0  0  0  0  0  0  0
   33.0740   32.4770   35.9430 H   0  0  0  0  0  0  0  0  0  0  0  0
   33.2330   31.4890   37.3970 H   0  0  0  0  0  0  0  0  0  0  0  0
   34.1080   29.7270   36.2490 H   0  0  0  0  0  0  0  0  0  0  0  0
   36.2060   28.5690   34.6000 C   0  0  0  0  0  0  0  0  0  0  0  0
   35.6200   29.6660   33.9800 C   0  0  0  0  0  0  0  0  0  0  0  0
   35.4900   29.6170   32.6030 C   0  0  0  0  0  0  0  0  0  0  0  0
   35.9360   28.5130   31.9320 N   0  0  0  0  0  0  0  0  0  0  0  0
   36.4940   27.4760   32.5480 C   0  0  0  0  0  0  0  0  0  0  0  0
   36.6210   27.5210   33.8810 N   0  0  0  0  0  0  0  0  0  0  0  0
   36.3260   28.5700   35.6830 H   0  0  0  0  0  0  0  0  0  0  0  0
   35.0430   30.4310   32.0500 H   0  0  0  0  0  0  0  0  0  0  0  0
   36.9540   26.3260   31.8050 C   0  0  0  0  0  0  0  0  0  0  0  0
   36.1640   25.2110   31.6860 C   0  0  0  0  0  0  0  0  0  0  0  0
   36.5260   24.0810   30.9980 C   0  0  0  0  0  0  0  0  0  0  0  0
   37.7650   24.1460   30.4240 C   0  0  0  0  0  0  0  0  0  0  0  0
   38.6240   25.2610   30.5100 C   0  0  0  0  0  0  0  0  0  0  0  0
   38.1640   26.3410   31.2230 N   0  0  0  0  0  0  0  0  0  0  0  0
   35.1890   25.2480   32.1780 H   0  0  0  0  0  0  0  0  0  0  0  0
   35.9110   23.1990   30.9000 H   0  0  0  0  0  0  0  0  0  0  0  0
   38.1430   23.2930   29.8540 H   0  0  0  0  0  0  0  0  0  0  0  0
   39.5930   25.2530   30.0340 H   0  0  0  0  0  0  0  0  0  0  0  0
   32.8490   30.4410   34.6820 C   0  0  0  0  0  0  0  0  0  0  0  0
   32.3290   31.3310   33.7890 C   0  0  0  0  0  3  0  0  0  0  0  0
   31.2420   31.0260   33.0290 C   0  0  0  0  0  0  0  0  0  0  0  0
   30.8670   31.7650   32.3370 H   0  0  0  0  0  0  0  0  0  0  0  0
   30.6770   29.8040   33.1750 N   0  0  0  0  0  0  0  0  0  0  0  0
   31.1870   28.9160   34.0550 C   0  0  0  0  0  3  0  0  0  0  0  0
   32.2590   29.2250   34.8010 N   0  0  0  0  0  0  0  0  0  0  0  0
  1  6  1  0  0  0  0
  2  1  1  0  0  0  0
  2  7  1  0  0  0  0
  2  3  1  0  0  0  0
  3  9  1  0  0  0  0
  3  4  1  0  0  0  0
  4 11  1  0  0  0  0
  4 12  1  0  0  0  0
  5  4  1  0  0  0  0
  5 14  1  0  0  0  0
  6 15  1  1  0  0  0
  6  5  1  0  0  0  0
  8  2  1  0  0  0  0
 10  3  1  0  0  0  0
 13  5  1  0  0  0  0
 16 22  1  0  0  0  0
 17 16  1  0  0  0  0
 17  1  1  0  0  0  0
 18 17  2  0  0  0  0
 19 20  2  0  0  0  0
 19 18  1  0  0  0  0
 20 21  1  0  0  0  0
 21 16  2  0  0  0  0
 23 18  1  0  0  0  0
 24 20  1  0  0  0  0
 25 24  1  0  0  0  0
 25 30  1  0  0  0  0
 26 25  2  0  0  0  0
 27 28  2  0  0  0  0
 27 26  1  0  0  0  0
 28 29  1  0  0  0  0
 29 24  2  0  0  0  0
 31 26  1  0  0  0  0
 32 27  1  0  0  0  0
 33 28  1  0  0  0  0
 34 40  1  0  0  0  0
 34  6  1  0  0  0  0
 35 34  2  0  0  0  0
 36 38  2  0  0  0  0
 36 35  1  0  0  0  0
 37 36  1  0  0  0  0
 38 39  1  0  0  0  0
 39 40  2  0  0  0  0
M  END
>  <minimizedAffinity>
-5.04134321

$$$$

 OpenBabel03272504513D

 40 43  0  0  1  0  0  0  0  0999 V2000
   36.9340   25.4370   32.2200 N   0  0  0  0  0  0  0  0  0  0  0  0
   35.8680   24.6780   31.5730 C   0  0  0  0  0  0  0  0  0  0  0  0
   36.3160   23.3320   31.0980 C   0  0  0  0  0  0  0  0  0  0  0  0
   37.3170   22.7330   32.0720 C   0  0  0  0  0  0  0  0  0  0  0  0
   38.5390   23.5990   31.9680 C   0  0  0  0  0  0  0  0  0  0  0  0
   38.2970   25.0200   32.3830 C   0  0  1  0  0  0  0  0  0  0  0  0
   34.9890   24.5540   32.2320 H   0  0  0  0  0  0  0  0  0  0  0  0
   35.5880   25.2750   30.6760 H   0  0  0  0  0  0  0  0  0  0  0  0
   35.4520   22.6230   31.1030 H   0  0  0  0  0  0  0  0  0  0  0  0
   36.7200   23.3600   30.0820 H   0  0  0  0  0  0  0  0  0  0  0  0
   36.8900   22.7820   33.0960 H   0  0  0  0  0  0  0  0  0  0  0  0
   37.5760   21.7190   31.7440 H   0  0  0  0  0  0  0  0  0  0  0  0
   38.8290   23.5950   30.8970 H   0  0  0  0  0  0  0  0  0  0  0  0
   39.4020   23.1690   32.5110 H   0  0  0  0  0  0  0  0  0  0  0  0
   38.6650   25.1230   33.4190 H   0  0  0  0  0  0  0  0  0  0  0  0
   36.8970   27.0880   34.0240 C   0  0  0  0  0  0  0  0  0  0  0  0
   36.5610   26.7160   32.7290 C   0  0  0  0  0  0  0  0  0  0  0  0
   35.8560   27.6330   31.9710 C   0  0  0  0  0  0  0  0  0  0  0  0
   35.5270   28.8400   32.5240 N   0  0  0  0  0  0  0  0  0  0  0  0
   35.8600   29.1730   33.7670 C   0  0  0  0  0  0  0  0  0  0  0  0
   36.5440   28.2860   34.5030 N   0  0  0  0  0  0  0  0  0  0  0  0
   37.4530   26.3930   34.6520 H   0  0  0  0  0  0  0  0  0  0  0  0
   35.5600   27.4170   30.9550 H   0  0  0  0  0  0  0  0  0  0  0  0
   35.4950   30.4570   34.3180 C   0  0  0  0  0  0  0  0  0  0  0  0
   35.9680   30.8490   35.5450 C   0  0  0  0  0  0  0  0  0  0  0  0
   35.6710   32.0500   36.1370 C   0  0  0  0  0  0  0  0  0  0  0  0
   34.8460   32.8510   35.3970 C   0  0  0  0  0  0  0  0  0  0  0  0
   34.3270   32.5070   34.1320 C   0  0  0  0  0  0  0  0  0  0  0  0
   34.6880   31.2800   33.6300 N   0  0  0  0  0  0  0  0  0  0  0  0
   36.6210   30.1430   36.0650 H   0  0  0  0  0  0  0  0  0  0  0  0
   36.0380   32.3660   37.1020 H   0  0  0  0  0  0  0  0  0  0  0  0
   34.5520   33.8310   35.7850 H   0  0  0  0  0  0  0  0  0  0  0  0
   33.6800   33.1830   33.5950 H   0  0  0  0  0  0  0  0  0  0  0  0
   39.1270   25.9070   31.4900 C   0  0  0  0  0  0  0  0  0  0  0  0
   39.9900   26.9000   31.8470 C   0  0  0  0  0  3  0  0  0  0  0  0
   40.6740   27.6200   30.9150 C   0  0  0  0  0  0  0  0  0  0  0  0
   41.3460   28.3970   31.2480 H   0  0  0  0  0  0  0  0  0  0  0  0
   40.4800   27.3280   29.6080 N   0  0  0  0  0  0  0  0  0  0  0  0
   39.6280   26.3450   29.2460 C   0  0  0  0  0  3  0  0  0  0  0  0
   38.9570   25.6410   30.1700 N   0  0  0  0  0  0  0  0  0  0  0  0
  1  6  1  0  0  0  0
  1 17  1  0  0  0  0
  2  1  1  0  0  0  0
  2  7  1  0  0  0  0
  3  9  1  0  0  0  0
  3  2  1  0  0  0  0
  3  4  1  0  0  0  0
  4 11  1  0  0  0  0
  5  4  1  0  0  0  0
  5  6  1  0  0  0  0
  5 14  1  0  0  0  0
  6 15  1  1  0  0  0
  8  2  1  0  0  0  0
 10  3  1  0  0  0  0
 12  4  1  0  0  0  0
 13  5  1  0  0  0  0
 16 21  1  0  0  0  0
 16 22  1  0  0  0  0
 17 16  2  0  0  0  0
 18 19  2  0  0  0  0
 18 17  1  0  0  0  0
 19 20  1  0  0  0  0
 20 24  1  0  0  0  0
 20 21  2  0  0  0  0
 23 18  1  0  0  0  0
 24 25  1  0  0  0  0
 25 30  1  0  0  0  0
 25 26  2  0  0  0  0
 26 31  1  0  0  0  0
 27 32  1  0  0  0  0
 27 26  1  0  0  0  0
 28 27  2  0  0  0  0
 29 28  1  0  0  0  0
 29 24  2  0  0  0  0
 33 28  1  0  0  0  0
 34 35  1  0  0  0  0
 34  6  1  0  0  0  0
 36 37  1  0  0  0  0
 36 35  2  0  0  0  0
 38 36  1  0  0  0  0
 39 38  2  0  0  0  0
 39 40  1  0  0  0  0
 40 34  2  0  0  0  0
M  END
>  <minimizedAffinity>
-4.97927332

$$$$
