
 OpenBabel03272508353D

 29 31  0  0  0  0  0  0  0  0999 V2000
   37.3630   21.8770   35.0600 C   0  0  0  0  0  0  0  0  0  0  0  0
   36.2620   21.0790   35.1380 C   0  0  0  0  0  0  0  0  0  0  0  0
   35.8260   20.7540   33.8670 C   0  0  0  0  0  0  0  0  0  0  0  0
   36.7130   21.3940   33.0380 N   0  0  0  0  0  0  0  0  0  0  0  0
   37.6150   22.0530   33.7630 N   0  0  0  0  0  0  0  0  0  0  0  0
   35.7370   20.7030   36.0220 H   0  0  0  0  0  0  0  0  0  0  0  0
   34.9770   20.1360   33.6070 H   0  0  0  0  0  0  0  0  0  0  0  0
   39.9720   22.7430   37.6280 C   0  0  0  0  0  0  0  0  0  0  0  0
   39.4170   22.2390   36.4570 C   0  0  0  0  0  0  0  0  0  0  0  0
   38.0330   22.3700   36.2470 C   0  0  0  0  0  0  0  0  0  0  0  0
   37.3300   22.9940   37.2250 N   0  0  0  0  0  0  0  0  0  0  0  0
   37.9070   23.4750   38.3570 C   0  0  0  0  0  0  0  0  0  0  0  0
   39.2150   23.3460   38.5470 N   0  0  0  0  0  0  0  0  0  0  0  0
   41.0570   22.5910   37.6960 H   0  0  0  0  0  0  0  0  0  0  0  0
   39.9560   21.7380   35.6610 H   0  0  0  0  0  0  0  0  0  0  0  0
   37.2510   23.9540   39.0710 H   0  0  0  0  0  0  0  0  0  0  0  0
   36.6630   21.3480   31.5670 C   0  0  0  0  0  0  0  0  0  0  0  0
   36.5190   20.3370   31.1950 H   0  0  0  0  0  0  0  0  0  0  0  0
   37.6190   21.7860   31.2210 H   0  0  0  0  0  0  0  0  0  0  0  0
   35.5560   22.2940   31.1130 C   0  0  0  0  0  0  0  0  0  0  0  0
   34.6450   22.1810   31.6950 H   0  0  0  0  0  0  0  0  0  0  0  0
   35.3050   21.9790   30.0700 H   0  0  0  0  0  0  0  0  0  0  0  0
   36.0470   23.6920   31.0570 C   0  0  0  0  0  0  0  0  0  0  0  0
   35.1620   24.7510   31.2210 C   0  0  0  0  0  3  0  0  0  0  0  0
   35.7110   26.0230   31.1530 C   0  0  0  0  0  0  0  0  0  0  0  0
   35.0030   26.8380   31.2830 H   0  0  0  0  0  0  0  0  0  0  0  0
   37.0270   26.1960   30.9370 N   0  0  0  0  0  0  0  0  0  0  0  0
   37.8730   25.1680   30.7790 C   0  0  0  0  0  3  0  0  0  0  0  0
   37.3570   23.9260   30.8430 N   0  0  0  0  0  0  0  0  0  0  0  0
  1  2  1  0  0  0  0
  1 10  1  0  0  0  0
  2  6  1  0  0  0  0
  3  2  2  0  0  0  0
  4  5  1  0  0  0  0
  4  3  1  0  0  0  0
  5  1  2  0  0  0  0
  7  3  1  0  0  0  0
  8 14  1  0  0  0  0
  8 13  1  0  0  0  0
  9  8  2  0  0  0  0
 10  9  1  0  0  0  0
 10 11  2  0  0  0  0
 11 12  1  0  0  0  0
 12 13  2  0  0  0  0
 12 16  1  0  0  0  0
 15  9  1  0  0  0  0
 17  4  1  0  0  0  0
 18 17  1  0  0  0  0
 19 17  1  0  0  0  0
 20 17  1  0  0  0  0
 20 21  1  0  0  0  0
 22 20  1  0  0  0  0
 23 20  1  0  0  0  0
 23 24  1  0  0  0  0
 25 24  2  0  0  0  0
 25 26  1  0  0  0  0
 27 25  1  0  0  0  0
 28 29  1  0  0  0  0
 28 27  2  0  0  0  0
 29 23  2  0  0  0  0
M  END
>  <minimizedAffinity>
-4.94409943

$$$$

 OpenBabel03272508353D

 29 31  0  0  0  0  0  0  0  0999 V2000
   38.0970   24.0380   34.5530 C   0  0  0  0  0  0  0  0  0  0  0  0
   38.0800   25.3050   34.0500 C   0  0  0  0  0  0  0  0  0  0  0  0
   37.7210   25.2760   32.7170 C   0  0  0  0  0  0  0  0  0  0  0  0
   37.5270   23.9430   32.4520 N   0  0  0  0  0  0  0  0  0  0  0  0
   37.7550   23.2270   33.5520 N   0  0  0  0  0  0  0  0  0  0  0  0
   38.3010   26.2530   34.5500 H   0  0  0  0  0  0  0  0  0  0  0  0
   37.6210   26.1230   32.0500 H   0  0  0  0  0  0  0  0  0  0  0  0
   38.0830   23.9260   38.3130 C   0  0  0  0  0  0  0  0  0  0  0  0
   37.6740   24.2320   37.0200 C   0  0  0  0  0  0  0  0  0  0  0  0
   38.4410   23.7710   35.9350 C   0  0  0  0  0  0  0  0  0  0  0  0
   39.5450   23.0440   36.2410 N   0  0  0  0  0  0  0  0  0  0  0  0
   39.9130   22.7630   37.5180 C   0  0  0  0  0  0  0  0  0  0  0  0
   39.1830   23.2050   38.5370 N   0  0  0  0  0  0  0  0  0  0  0  0
   37.4190   24.3310   39.0870 H   0  0  0  0  0  0  0  0  0  0  0  0
   36.7980   24.8100   36.7490 H   0  0  0  0  0  0  0  0  0  0  0  0
   40.8120   22.1760   37.6460 H   0  0  0  0  0  0  0  0  0  0  0  0
   37.1270   23.4020   31.1430 C   0  0  0  0  0  0  0  0  0  0  0  0
   37.8300   22.6590   30.7760 H   0  0  0  0  0  0  0  0  0  0  0  0
   37.0550   24.2760   30.4680 H   0  0  0  0  0  0  0  0  0  0  0  0
   35.7160   22.8400   31.2880 C   0  0  0  0  0  0  0  0  0  0  0  0
   35.0330   23.2290   30.5370 H   0  0  0  0  0  0  0  0  0  0  0  0
   35.3460   23.2160   32.2740 H   0  0  0  0  0  0  0  0  0  0  0  0
   35.7420   21.3590   31.3500 C   0  0  0  0  0  0  0  0  0  0  0  0
   34.8170   20.6760   32.1310 C   0  0  0  0  0  3  0  0  0  0  0  0
   34.9170   19.2930   32.1280 C   0  0  0  0  0  0  0  0  0  0  0  0
   34.1850   18.7770   32.7460 H   0  0  0  0  0  0  0  0  0  0  0  0
   35.8630   18.6710   31.4040 N   0  0  0  0  0  0  0  0  0  0  0  0
   36.7510   19.3380   30.6530 C   0  0  0  0  0  3  0  0  0  0  0  0
   36.6690   20.6820   30.6440 N   0  0  0  0  0  0  0  0  0  0  0  0
  1 10  1  0  0  0  0
  2  6  1  0  0  0  0
  2  1  1  0  0  0  0
  3  2  2  0  0  0  0
  4  3  1  0  0  0  0
  4  5  1  0  0  0  0
  5  1  2  0  0  0  0
  7  3  1  0  0  0  0
  8 13  1  0  0  0  0
  8 14  1  0  0  0  0
  9  8  2  0  0  0  0
 10 11  2  0  0  0  0
 10  9  1  0  0  0  0
 11 12  1  0  0  0  0
 12 16  1  0  0  0  0
 12 13  2  0  0  0  0
 15  9  1  0  0  0  0
 17 20  1  0  0  0  0
 17  4  1  0  0  0  0
 18 17  1  0  0  0  0
 19 17  1  0  0  0  0
 20 23  1  0  0  0  0
 20 22  1  0  0  0  0
 21 20  1  0  0  0  0
 23 24  1  0  0  0  0
 25 24  2  0  0  0  0
 25 26  1  0  0  0  0
 27 25  1  0  0  0  0
 28 27  2  0  0  0  0
 29 28  1  0  0  0  0
 29 23  2  0  0  0  0
M  END
>  <minimizedAffinity>
-4.82578135

$$$$

 OpenBabel03272508353D

 29 31  0  0  0  0  0  0  0  0999 V2000
   36.1950   23.4110   31.2310 C   0  0  0  0  0  0  0  0  0  0  0  0
   35.1670   24.3040   31.2300 C   0  0  0  0  0  0  0  0  0  0  0  0
   35.6600   25.5890   31.1060 C   0  0  0  0  0  0  0  0  0  0  0  0
   37.0210   25.4170   31.0350 N   0  0  0  0  0  0  0  0  0  0  0  0
   37.3170   24.1200   31.1110 N   0  0  0  0  0  0  0  0  0  0  0  0
   34.0900   24.1250   31.3100 H   0  0  0  0  0  0  0  0  0  0  0  0
   35.0890   26.5070   31.0740 H   0  0  0  0  0  0  0  0  0  0  0  0
   34.8340   20.0500   32.2350 C   0  0  0  0  0  0  0  0  0  0  0  0
   34.9820   21.4320   32.1870 C   0  0  0  0  0  0  0  0  0  0  0  0
   35.9660   21.9840   31.3490 C   0  0  0  0  0  0  0  0  0  0  0  0
   36.7120   21.1060   30.6330 N   0  0  0  0  0  0  0  0  0  0  0  0
   36.5390   19.7610   30.7040 C   0  0  0  0  0  0  0  0  0  0  0  0
   35.6080   19.2470   31.5010 N   0  0  0  0  0  0  0  0  0  0  0  0
   34.0410   19.7200   32.9180 H   0  0  0  0  0  0  0  0  0  0  0  0
   34.3990   22.1540   32.7480 H   0  0  0  0  0  0  0  0  0  0  0  0
   37.1910   19.1540   30.0900 H   0  0  0  0  0  0  0  0  0  0  0  0
   37.9940   26.5120   30.8950 C   0  0  0  0  0  0  0  0  0  0  0  0
   38.0940   26.8400   29.8640 H   0  0  0  0  0  0  0  0  0  0  0  0
   38.9470   26.1190   31.3000 H   0  0  0  0  0  0  0  0  0  0  0  0
   37.5550   27.6410   31.8220 C   0  0  0  0  0  0  0  0  0  0  0  0
   36.4800   27.7990   31.8070 H   0  0  0  0  0  0  0  0  0  0  0  0
   38.0170   28.5680   31.4000 H   0  0  0  0  0  0  0  0  0  0  0  0
   38.1020   27.4460   33.1870 C   0  0  0  0  0  0  0  0  0  0  0  0
   37.2830   27.6070   34.2980 C   0  0  0  0  0  3  0  0  0  0  0  0
   37.8800   27.4040   35.5330 C   0  0  0  0  0  0  0  0  0  0  0  0
   37.2230   27.5350   36.3900 H   0  0  0  0  0  0  0  0  0  0  0  0
   39.1800   27.0730   35.6240 N   0  0  0  0  0  0  0  0  0  0  0  0
   39.9630   26.9200   34.5470 C   0  0  0  0  0  3  0  0  0  0  0  0
   39.3990   27.1130   33.3400 N   0  0  0  0  0  0  0  0  0  0  0  0
  1 10  1  0  0  0  0
  2  1  1  0  0  0  0
  2  6  1  0  0  0  0
  3  2  2  0  0  0  0
  4  3  1  0  0  0  0
  4  5  1  0  0  0  0
  5  1  2  0  0  0  0
  7  3  1  0  0  0  0
  8 14  1  0  0  0  0
  9  8  1  0  0  0  0
  9 15  1  0  0  0  0
 10  9  2  0  0  0  0
 11 12  2  0  0  0  0
 11 10  1  0  0  0  0
 12 13  1  0  0  0  0
 13  8  2  0  0  0  0
 16 12  1  0  0  0  0
 17  4  1  0  0  0  0
 17 19  1  0  0  0  0
 17 20  1  0  0  0  0
 18 17  1  0  0  0  0
 20 23  1  0  0  0  0
 21 20  1  0  0  0  0
 22 20  1  0  0  0  0
 23 29  2  0  0  0  0
 23 24  1  0  0  0  0
 24 25  2  0  0  0  0
 25 27  1  0  0  0  0
 25 26  1  0  0  0  0
 28 27  2  0  0  0  0
 29 28  1  0  0  0  0
M  END
>  <minimizedAffinity>
-4.74393559

$$$$

 OpenBabel03272508353D

 29 31  0  0  0  0  0  0  0  0999 V2000
   37.9080   25.3230   35.0990 C   0  0  0  0  0  0  0  0  0  0  0  0
   37.4010   26.5770   35.2620 C   0  0  0  0  0  0  0  0  0  0  0  0
   37.0230   27.0940   34.0380 C   0  0  0  0  0  0  0  0  0  0  0  0
   37.3290   26.0950   33.1460 N   0  0  0  0  0  0  0  0  0  0  0  0
   37.8520   25.0560   33.7940 N   0  0  0  0  0  0  0  0  0  0  0  0
   37.2740   27.1610   36.1790 H   0  0  0  0  0  0  0  0  0  0  0  0
   36.5880   28.0660   33.8470 H   0  0  0  0  0  0  0  0  0  0  0  0
   38.3010   23.7810   38.5080 C   0  0  0  0  0  0  0  0  0  0  0  0
   37.7740   24.5660   37.4890 C   0  0  0  0  0  0  0  0  0  0  0  0
   38.3840   24.5410   36.2230 C   0  0  0  0  0  0  0  0  0  0  0  0
   39.4660   23.7320   36.0890 N   0  0  0  0  0  0  0  0  0  0  0  0
   39.9530   22.9780   37.1080 C   0  0  0  0  0  0  0  0  0  0  0  0
   39.3710   23.0090   38.3020 N   0  0  0  0  0  0  0  0  0  0  0  0
   37.7540   23.8720   39.4550 H   0  0  0  0  0  0  0  0  0  0  0  0
   36.9130   25.2190   37.5690 H   0  0  0  0  0  0  0  0  0  0  0  0
   40.8210   22.3700   36.8910 H   0  0  0  0  0  0  0  0  0  0  0  0
   37.1050   26.1760   31.6940 C   0  0  0  0  0  0  0  0  0  0  0  0
   37.9950   25.9140   31.1280 H   0  0  0  0  0  0  0  0  0  0  0  0
   36.7810   27.2170   31.4990 H   0  0  0  0  0  0  0  0  0  0  0  0
   35.9190   25.2770   31.3580 C   0  0  0  0  0  0  0  0  0  0  0  0
   35.3280   25.6580   30.5300 H   0  0  0  0  0  0  0  0  0  0  0  0
   35.2580   25.3090   32.2590 H   0  0  0  0  0  0  0  0  0  0  0  0
   36.3590   23.8730   31.1700 C   0  0  0  0  0  0  0  0  0  0  0  0
   35.5240   22.8240   31.5380 C   0  0  0  0  0  3  0  0  0  0  0  0
   36.0180   21.5460   31.3250 C   0  0  0  0  0  0  0  0  0  0  0  0
   35.3510   20.7390   31.6200 H   0  0  0  0  0  0  0  0  0  0  0  0
   37.2400   21.3580   30.7950 N   0  0  0  0  0  0  0  0  0  0  0  0
   38.0380   22.3760   30.4440 C   0  0  0  0  0  3  0  0  0  0  0  0
   37.5740   23.6240   30.6430 N   0  0  0  0  0  0  0  0  0  0  0  0
  1  2  1  0  0  0  0
  1 10  1  0  0  0  0
  2  6  1  0  0  0  0
  3  2  2  0  0  0  0
  4  5  1  0  0  0  0
  4  3  1  0  0  0  0
  5  1  2  0  0  0  0
  7  3  1  0  0  0  0
  8 14  1  0  0  0  0
  9 15  1  0  0  0  0
  9  8  2  0  0  0  0
 10  9  1  0  0  0  0
 11 10  2  0  0  0  0
 11 12  1  0  0  0  0
 12 13  2  0  0  0  0
 13  8  1  0  0  0  0
 16 12  1  0  0  0  0
 17  4  1  0  0  0  0
 18 17  1  0  0  0  0
 19 17  1  0  0  0  0
 20 17  1  0  0  0  0
 20 22  1  0  0  0  0
 21 20  1  0  0  0  0
 23 20  1  0  0  0  0
 23 24  1  0  0  0  0
 25 24  2  0  0  0  0
 25 26  1  0  0  0  0
 27 25  1  0  0  0  0
 28 29  1  0  0  0  0
 28 27  2  0  0  0  0
 29 23  2  0  0  0  0
M  END
>  <minimizedAffinity>
-4.71577406

$$$$

 OpenBabel03272508353D

 29 31  0  0  0  0  0  0  0  0999 V2000
   38.0040   25.7070   35.3750 C   0  0  0  0  0  0  0  0  0  0  0  0
   37.9450   27.0160   35.7450 C   0  0  0  0  0  0  0  0  0  0  0  0
   37.3570   27.7620   34.7420 C   0  0  0  0  0  0  0  0  0  0  0  0
   37.0730   26.8400   33.7650 N   0  0  0  0  0  0  0  0  0  0  0  0
   37.4630   25.6290   34.1590 N   0  0  0  0  0  0  0  0  0  0  0  0
   38.2840   27.4920   36.6710 H   0  0  0  0  0  0  0  0  0  0  0  0
   37.1720   28.8280   34.7450 H   0  0  0  0  0  0  0  0  0  0  0  0
   38.6670   23.3970   38.2690 C   0  0  0  0  0  0  0  0  0  0  0  0
   38.0520   24.3840   37.5080 C   0  0  0  0  0  0  0  0  0  0  0  0
   38.5750   24.6940   36.2410 C   0  0  0  0  0  0  0  0  0  0  0  0
   39.6650   23.9880   35.8480 N   0  0  0  0  0  0  0  0  0  0  0  0
   40.2400   23.0280   36.6190 C   0  0  0  0  0  0  0  0  0  0  0  0
   39.7390   22.7430   37.8160 N   0  0  0  0  0  0  0  0  0  0  0  0
   38.1840   23.2300   39.2400 H   0  0  0  0  0  0  0  0  0  0  0  0
   37.1820   24.9620   37.7980 H   0  0  0  0  0  0  0  0  0  0  0  0
   41.1060   22.5280   36.2060 H   0  0  0  0  0  0  0  0  0  0  0  0
   36.4300   27.1590   32.4800 C   0  0  0  0  0  0  0  0  0  0  0  0
   35.3680   26.9260   32.4850 H   0  0  0  0  0  0  0  0  0  0  0  0
   36.9800   26.5730   31.7180 H   0  0  0  0  0  0  0  0  0  0  0  0
   36.6980   28.6300   32.1810 C   0  0  0  0  0  0  0  0  0  0  0  0
   37.3520   28.7690   31.3240 H   0  0  0  0  0  0  0  0  0  0  0  0
   37.2570   29.0170   33.0690 H   0  0  0  0  0  0  0  0  0  0  0  0
   35.4280   29.3890   32.0820 C   0  0  0  0  0  0  0  0  0  0  0  0
   35.3380   30.4940   31.2440 C   0  0  0  0  0  3  0  0  0  0  0  0
   34.1110   31.1410   31.2160 C   0  0  0  0  0  0  0  0  0  0  0  0
   34.0600   32.0040   30.5560 H   0  0  0  0  0  0  0  0  0  0  0  0
   33.0840   30.7060   31.9670 N   0  0  0  0  0  0  0  0  0  0  0  0
   33.1810   29.6390   32.7720 C   0  0  0  0  0  3  0  0  0  0  0  0
   34.3640   28.9980   32.8120 N   0  0  0  0  0  0  0  0  0  0  0  0
  1  2  1  0  0  0  0
  1 10  1  0  0  0  0
  2  6  1  0  0  0  0
  3  7  1  0  0  0  0
  3  2  2  0  0  0  0
  4  5  1  0  0  0  0
  4  3  1  0  0  0  0
  5  1  2  0  0  0  0
  8 14  1  0  0  0  0
  9 15  1  0  0  0  0
  9  8  2  0  0  0  0
 10  9  1  0  0  0  0
 11 10  2  0  0  0  0
 11 12  1  0  0  0  0
 12 13  2  0  0  0  0
 13  8  1  0  0  0  0
 16 12  1  0  0  0  0
 17 18  1  0  0  0  0
 17  4  1  0  0  0  0
 19 17  1  0  0  0  0
 20 17  1  0  0  0  0
 20 22  1  0  0  0  0
 21 20  1  0  0  0  0
 23 20  1  0  0  0  0
 23 29  1  0  0  0  0
 24 23  2  0  0  0  0
 25 24  1  0  0  0  0
 25 27  2  0  0  0  0
 26 25  1  0  0  0  0
 27 28  1  0  0  0  0
 28 29  2  0  0  0  0
M  END
>  <minimizedAffinity>
-4.69556284

$$$$

 OpenBabel03272508353D

 29 31  0  0  0  0  0  0  0  0999 V2000
   37.8960   25.5010   35.0430 C   0  0  0  0  0  0  0  0  0  0  0  0
   37.5980   26.7970   35.3350 C   0  0  0  0  0  0  0  0  0  0  0  0
   37.0710   27.4210   34.2200 C   0  0  0  0  0  0  0  0  0  0  0  0
   37.0720   26.4400   33.2590 N   0  0  0  0  0  0  0  0  0  0  0  0
   37.5640   25.3110   33.7660 N   0  0  0  0  0  0  0  0  0  0  0  0
   37.7210   27.3440   36.2760 H   0  0  0  0  0  0  0  0  0  0  0  0
   36.7390   28.4480   34.1430 H   0  0  0  0  0  0  0  0  0  0  0  0
   40.0640   22.9720   36.7930 C   0  0  0  0  0  0  0  0  0  0  0  0
   39.5880   23.7990   35.7810 C   0  0  0  0  0  0  0  0  0  0  0  0
   38.4660   24.6070   36.0330 C   0  0  0  0  0  0  0  0  0  0  0  0
   37.9210   24.5170   37.2720 N   0  0  0  0  0  0  0  0  0  0  0  0
   38.4130   23.6970   38.2370 C   0  0  0  0  0  0  0  0  0  0  0  0
   39.4740   22.9360   37.9900 N   0  0  0  0  0  0  0  0  0  0  0  0
   40.9410   22.3830   36.4980 H   0  0  0  0  0  0  0  0  0  0  0  0
   40.0040   23.8900   34.7850 H   0  0  0  0  0  0  0  0  0  0  0  0
   37.9000   23.7050   39.1890 H   0  0  0  0  0  0  0  0  0  0  0  0
   36.5940   26.6250   31.8790 C   0  0  0  0  0  0  0  0  0  0  0  0
   35.9910   25.7870   31.5400 H   0  0  0  0  0  0  0  0  0  0  0  0
   37.5050   26.7570   31.2630 H   0  0  0  0  0  0  0  0  0  0  0  0
   35.8320   27.9450   31.8260 C   0  0  0  0  0  0  0  0  0  0  0  0
   35.7550   28.4210   32.8000 H   0  0  0  0  0  0  0  0  0  0  0  0
   34.7900   27.6750   31.5230 H   0  0  0  0  0  0  0  0  0  0  0  0
   36.3910   28.8350   30.7790 C   0  0  0  0  0  0  0  0  0  0  0  0
   36.2210   30.2110   30.8690 C   0  0  0  0  0  3  0  0  0  0  0  0
   36.7770   30.9630   29.8450 C   0  0  0  0  0  0  0  0  0  0  0  0
   36.6320   32.0380   29.9320 H   0  0  0  0  0  0  0  0  0  0  0  0
   37.4350   30.3720   28.8330 N   0  0  0  0  0  0  0  0  0  0  0  0
   37.5940   29.0430   28.7550 C   0  0  0  0  0  3  0  0  0  0  0  0
   37.0610   28.2970   29.7410 N   0  0  0  0  0  0  0  0  0  0  0  0
  1  2  1  0  0  0  0
  1 10  1  0  0  0  0
  2  6  1  0  0  0  0
  3  2  2  0  0  0  0
  4  5  1  0  0  0  0
  4  3  1  0  0  0  0
  5  1  2  0  0  0  0
  7  3  1  0  0  0  0
  8 13  1  0  0  0  0
  9 10  1  0  0  0  0
  9  8  2  0  0  0  0
 10 11  2  0  0  0  0
 11 12  1  0  0  0  0
 12 16  1  0  0  0  0
 13 12  2  0  0  0  0
 14  8  1  0  0  0  0
 15  9  1  0  0  0  0
 17  4  1  0  0  0  0
 18 17  1  0  0  0  0
 19 17  1  0  0  0  0
 20 17  1  0  0  0  0
 20 21  1  0  0  0  0
 22 20  1  0  0  0  0
 23 24  1  0  0  0  0
 23 20  1  0  0  0  0
 25 26  1  0  0  0  0
 25 24  2  0  0  0  0
 27 25  1  0  0  0  0
 28 27  2  0  0  0  0
 28 29  1  0  0  0  0
 29 23  2  0  0  0  0
M  END
>  <minimizedAffinity>
-4.69348907

$$$$

 OpenBabel03272508353D

 29 31  0  0  0  0  0  0  0  0999 V2000
   35.7160   29.0450   34.0140 C   0  0  0  0  0  0  0  0  0  0  0  0
   36.6480   28.1700   34.4860 C   0  0  0  0  0  0  0  0  0  0  0  0
   37.0080   27.2850   33.4880 C   0  0  0  0  0  0  0  0  0  0  0  0
   36.2520   27.6730   32.4100 N   0  0  0  0  0  0  0  0  0  0  0  0
   35.4930   28.7170   32.7420 N   0  0  0  0  0  0  0  0  0  0  0  0
   37.0980   28.1040   35.4820 H   0  0  0  0  0  0  0  0  0  0  0  0
   37.7250   26.4780   33.5600 H   0  0  0  0  0  0  0  0  0  0  0  0
   35.3240   31.9450   36.3780 C   0  0  0  0  0  0  0  0  0  0  0  0
   35.9490   30.9750   35.6030 C   0  0  0  0  0  0  0  0  0  0  0  0
   35.1580   30.0890   34.8510 C   0  0  0  0  0  0  0  0  0  0  0  0
   33.8140   30.2530   34.9410 N   0  0  0  0  0  0  0  0  0  0  0  0
   33.2380   31.2140   35.7100 C   0  0  0  0  0  0  0  0  0  0  0  0
   33.9940   32.0470   36.4170 N   0  0  0  0  0  0  0  0  0  0  0  0
   36.0280   32.5860   36.9250 H   0  0  0  0  0  0  0  0  0  0  0  0
   37.0180   30.8230   35.5140 H   0  0  0  0  0  0  0  0  0  0  0  0
   32.1570   31.2550   35.7070 H   0  0  0  0  0  0  0  0  0  0  0  0
   36.2860   27.0230   31.0900 C   0  0  0  0  0  0  0  0  0  0  0  0
   37.2910   26.7200   30.8100 H   0  0  0  0  0  0  0  0  0  0  0  0
   35.8610   27.7610   30.3820 H   0  0  0  0  0  0  0  0  0  0  0  0
   35.3170   25.8450   31.1300 C   0  0  0  0  0  0  0  0  0  0  0  0
   34.5400   25.9180   30.3720 H   0  0  0  0  0  0  0  0  0  0  0  0
   34.8000   25.9190   32.1190 H   0  0  0  0  0  0  0  0  0  0  0  0
   36.0500   24.5570   31.0990 C   0  0  0  0  0  0  0  0  0  0  0  0
   37.3830   24.5210   30.7050 C   0  0  0  0  0  3  0  0  0  0  0  0
   37.9870   23.2730   30.7070 C   0  0  0  0  0  0  0  0  0  0  0  0
   39.0300   23.2650   30.3950 H   0  0  0  0  0  0  0  0  0  0  0  0
   37.3020   22.1750   31.0720 N   0  0  0  0  0  0  0  0  0  0  0  0
   36.0170   22.2200   31.4510 C   0  0  0  0  0  3  0  0  0  0  0  0
   35.4140   23.4230   31.4550 N   0  0  0  0  0  0  0  0  0  0  0  0
  1  2  1  0  0  0  0
  1 10  1  0  0  0  0
  2  6  1  0  0  0  0
  3  7  1  0  0  0  0
  3  2  2  0  0  0  0
  4  5  1  0  0  0  0
  4  3  1  0  0  0  0
  5  1  2  0  0  0  0
  8 13  1  0  0  0  0
  8 14  1  0  0  0  0
  9  8  2  0  0  0  0
 10 11  2  0  0  0  0
 10  9  1  0  0  0  0
 11 12  1  0  0  0  0
 12 13  2  0  0  0  0
 15  9  1  0  0  0  0
 16 12  1  0  0  0  0
 17 20  1  0  0  0  0
 17  4  1  0  0  0  0
 18 17  1  0  0  0  0
 19 17  1  0  0  0  0
 20 22  1  0  0  0  0
 21 20  1  0  0  0  0
 23 20  1  0  0  0  0
 23 29  1  0  0  0  0
 24 25  1  0  0  0  0
 24 23  2  0  0  0  0
 25 27  2  0  0  0  0
 26 25  1  0  0  0  0
 27 28  1  0  0  0  0
 28 29  2  0  0  0  0
M  END
>  <minimizedAffinity>
-4.60207367

$$$$

 OpenBabel03272508353D

 29 31  0  0  0  0  0  0  0  0999 V2000
   36.3500   26.2500   31.8030 C   0  0  0  0  0  0  0  0  0  0  0  0
   35.6930   25.2510   31.1500 C   0  0  0  0  0  0  0  0  0  0  0  0
   36.1140   24.0230   31.6230 C   0  0  0  0  0  0  0  0  0  0  0  0
   37.0460   24.3380   32.5810 N   0  0  0  0  0  0  0  0  0  0  0  0
   37.1710   25.6610   32.6730 N   0  0  0  0  0  0  0  0  0  0  0  0
   34.9360   25.3170   30.3620 H   0  0  0  0  0  0  0  0  0  0  0  0
   35.7740   23.0480   31.2990 H   0  0  0  0  0  0  0  0  0  0  0  0
   36.4560   29.6800   30.2630 C   0  0  0  0  0  0  0  0  0  0  0  0
   36.7570   28.3390   30.4730 C   0  0  0  0  0  0  0  0  0  0  0  0
   36.1030   27.6470   31.5070 C   0  0  0  0  0  0  0  0  0  0  0  0
   35.2050   28.3570   32.2360 N   0  0  0  0  0  0  0  0  0  0  0  0
   34.9360   29.6670   32.0010 C   0  0  0  0  0  0  0  0  0  0  0  0
   35.5600   30.3140   31.0230 N   0  0  0  0  0  0  0  0  0  0  0  0
   37.0190   30.1290   29.4350 H   0  0  0  0  0  0  0  0  0  0  0  0
   37.4690   27.7500   29.9060 H   0  0  0  0  0  0  0  0  0  0  0  0
   34.2020   30.1350   32.6440 H   0  0  0  0  0  0  0  0  0  0  0  0
   37.7870   23.3490   33.3800 C   0  0  0  0  0  0  0  0  0  0  0  0
   38.1550   22.5260   32.7730 H   0  0  0  0  0  0  0  0  0  0  0  0
   37.0800   23.0050   34.1610 H   0  0  0  0  0  0  0  0  0  0  0  0
   38.9120   24.0850   34.1000 C   0  0  0  0  0  0  0  0  0  0  0  0
   38.9200   25.1500   33.8810 H   0  0  0  0  0  0  0  0  0  0  0  0
   39.8590   23.6690   33.6750 H   0  0  0  0  0  0  0  0  0  0  0  0
   38.8970   23.7830   35.5510 C   0  0  0  0  0  0  0  0  0  0  0  0
   39.9230   23.0380   36.1210 C   0  0  0  0  0  3  0  0  0  0  0  0
   39.8250   22.8040   37.4840 C   0  0  0  0  0  0  0  0  0  0  0  0
   40.6360   22.2190   37.9110 H   0  0  0  0  0  0  0  0  0  0  0  0
   38.7860   23.2810   38.1930 N   0  0  0  0  0  0  0  0  0  0  0  0
   37.8020   23.9990   37.6350 C   0  0  0  0  0  3  0  0  0  0  0  0
   37.8810   24.2350   36.3120 N   0  0  0  0  0  0  0  0  0  0  0  0
  1  5  2  0  0  0  0
  2  3  2  0  0  0  0
  2  1  1  0  0  0  0
  3  4  1  0  0  0  0
  4  5  1  0  0  0  0
  4 17  1  0  0  0  0
  6  2  1  0  0  0  0
  7  3  1  0  0  0  0
  8  9  2  0  0  0  0
  8 13  1  0  0  0  0
  9 10  1  0  0  0  0
 10  1  1  0  0  0  0
 10 11  2  0  0  0  0
 12 11  1  0  0  0  0
 12 16  1  0  0  0  0
 13 12  2  0  0  0  0
 14  8  1  0  0  0  0
 15  9  1  0  0  0  0
 17 20  1  0  0  0  0
 17 19  1  0  0  0  0
 18 17  1  0  0  0  0
 20 23  1  0  0  0  0
 21 20  1  0  0  0  0
 22 20  1  0  0  0  0
 23 24  2  0  0  0  0
 23 29  1  0  0  0  0
 24 25  1  0  0  0  0
 25 26  1  0  0  0  0
 25 27  2  0  0  0  0
 28 27  1  0  0  0  0
 29 28  2  0  0  0  0
M  END
>  <minimizedAffinity>
-4.56454659

$$$$

 OpenBabel03272508353D

 29 31  0  0  0  0  0  0  0  0999 V2000
   35.8710   29.1830   34.1430 C   0  0  0  0  0  0  0  0  0  0  0  0
   35.7510   29.1830   32.7860 C   0  0  0  0  0  0  0  0  0  0  0  0
   36.4420   28.1120   32.2540 C   0  0  0  0  0  0  0  0  0  0  0  0
   36.9750   27.4810   33.3510 N   0  0  0  0  0  0  0  0  0  0  0  0
   36.6250   28.1300   34.4600 N   0  0  0  0  0  0  0  0  0  0  0  0
   35.2120   29.8800   32.1360 H   0  0  0  0  0  0  0  0  0  0  0  0
   36.5310   27.8480   31.2080 H   0  0  0  0  0  0  0  0  0  0  0  0
   35.2820   32.0860   36.4620 C   0  0  0  0  0  0  0  0  0  0  0  0
   35.9710   31.1490   35.7010 C   0  0  0  0  0  0  0  0  0  0  0  0
   35.2420   30.1990   34.9650 C   0  0  0  0  0  0  0  0  0  0  0  0
   33.8910   30.2720   35.0540 N   0  0  0  0  0  0  0  0  0  0  0  0
   33.2500   31.2030   35.8080 C   0  0  0  0  0  0  0  0  0  0  0  0
   33.9470   32.0970   36.5010 N   0  0  0  0  0  0  0  0  0  0  0  0
   35.9400   32.7820   36.9980 H   0  0  0  0  0  0  0  0  0  0  0  0
   37.0480   31.0690   35.6130 H   0  0  0  0  0  0  0  0  0  0  0  0
   32.1690   31.1700   35.8070 H   0  0  0  0  0  0  0  0  0  0  0  0
   37.8060   26.2670   33.2930 C   0  0  0  0  0  0  0  0  0  0  0  0
   38.4020   26.2230   32.3860 H   0  0  0  0  0  0  0  0  0  0  0  0
   37.1000   25.4170   33.3690 H   0  0  0  0  0  0  0  0  0  0  0  0
   38.6660   26.2370   34.5520 C   0  0  0  0  0  0  0  0  0  0  0  0
   38.6290   27.1710   35.1060 H   0  0  0  0  0  0  0  0  0  0  0  0
   39.7190   26.1270   34.1900 H   0  0  0  0  0  0  0  0  0  0  0  0
   38.3480   25.0490   35.3810 C   0  0  0  0  0  0  0  0  0  0  0  0
   38.2760   23.7890   34.7970 C   0  0  0  0  0  3  0  0  0  0  0  0
   37.9730   22.7370   35.6490 C   0  0  0  0  0  0  0  0  0  0  0  0
   37.9200   21.7600   35.1740 H   0  0  0  0  0  0  0  0  0  0  0  0
   37.7620   22.9500   36.9600 N   0  0  0  0  0  0  0  0  0  0  0  0
   37.8330   24.1690   37.5130 C   0  0  0  0  0  3  0  0  0  0  0  0
   38.1270   25.2010   36.7010 N   0  0  0  0  0  0  0  0  0  0  0  0
  1  5  2  0  0  0  0
  1 10  1  0  0  0  0
  2  1  1  0  0  0  0
  3  2  2  0  0  0  0
  3  4  1  0  0  0  0
  4  5  1  0  0  0  0
  6  2  1  0  0  0  0
  7  3  1  0  0  0  0
  8 13  1  0  0  0  0
  8 14  1  0  0  0  0
  9  8  2  0  0  0  0
 10 11  2  0  0  0  0
 10  9  1  0  0  0  0
 11 12  1  0  0  0  0
 12 13  2  0  0  0  0
 15  9  1  0  0  0  0
 16 12  1  0  0  0  0
 17  4  1  0  0  0  0
 17 19  1  0  0  0  0
 17 20  1  0  0  0  0
 18 17  1  0  0  0  0
 20 21  1  0  0  0  0
 20 23  1  0  0  0  0
 22 20  1  0  0  0  0
 23 29  1  0  0  0  0
 24 23  2  0  0  0  0
 24 25  1  0  0  0  0
 25 27  2  0  0  0  0
 26 25  1  0  0  0  0
 27 28  1  0  0  0  0
 29 28  2  0  0  0  0
M  END
>  <minimizedAffinity>
-4.54433107

$$$$
