
 OpenBabel03272502233D

 27 29  0  0  0  0  0  0  0  0999 V2000
   36.7760   29.5570   49.4890 C   0  0  0  0  0  0  0  0  0  0  0  0
   37.4510   30.2660   48.4820 C   0  0  0  0  0  0  0  0  0  0  0  0
   36.7890   30.4810   47.2860 C   0  0  0  0  0  0  0  0  0  0  0  0
   35.5360   29.9970   47.1620 N   0  0  0  0  0  0  0  0  0  0  0  0
   34.9090   29.3210   48.1360 C   0  0  0  0  0  0  0  0  0  0  0  0
   35.5320   29.0990   49.3090 N   0  0  0  0  0  0  0  0  0  0  0  0
   37.3030   29.3970   50.4140 H   0  0  0  0  0  0  0  0  0  0  0  0
   38.4550   30.6530   48.5860 H   0  0  0  0  0  0  0  0  0  0  0  0
   37.3740   31.2010   46.1600 C   0  0  0  0  0  0  0  0  0  0  0  0
   36.8200   31.1500   44.8940 C   0  0  0  0  0  0  0  0  0  0  0  0
   37.3620   31.8270   43.8140 C   0  0  0  0  0  0  0  0  0  0  0  0
   38.4700   32.5690   43.9850 N   0  0  0  0  0  0  0  0  0  0  0  0
   38.9960   32.6090   45.2210 C   0  0  0  0  0  0  0  0  0  0  0  0
   38.4840   31.9610   46.2730 N   0  0  0  0  0  0  0  0  0  0  0  0
   35.9220   30.5530   44.7370 H   0  0  0  0  0  0  0  0  0  0  0  0
   36.8580   31.7280   42.8570 H   0  0  0  0  0  0  0  0  0  0  0  0
   40.2240   33.4210   45.4490 C   0  0  0  0  0  0  0  0  0  0  0  0
   40.2360   33.8260   46.7810 F   0  0  0  0  0  0  0  0  0  0  0  0
   41.3680   32.6990   45.1530 F   0  0  0  0  0  0  0  0  0  0  0  0
   40.2370   34.5540   44.6860 F   0  0  0  0  0  0  0  0  0  0  0  0
   33.5520   28.8250   47.9300 C   0  0  0  0  0  0  0  0  0  0  0  0
   32.9630   28.0090   48.8730 C   0  0  0  0  0  3  0  0  0  0  0  0
   31.6790   27.5770   48.6140 C   0  0  0  0  0  0  0  0  0  0  0  0
   31.2660   26.9330   49.3980 H   0  0  0  0  0  0  0  0  0  0  0  0
   30.9900   27.9190   47.4900 N   0  0  0  0  0  0  0  0  0  0  0  0
   31.6090   28.7230   46.5920 C   0  0  0  0  0  3  0  0  0  0  0  0
   32.8790   29.1710   46.8130 N   0  0  0  0  0  0  0  0  0  0  0  0
  1  7  1  0  0  0  0
  2  8  1  0  0  0  0
  2  1  2  0  0  0  0
  3  2  1  0  0  0  0
  4  3  2  0  0  0  0
  4  5  1  0  0  0  0
  5  6  2  0  0  0  0
  6  1  1  0  0  0  0
  9 14  1  0  0  0  0
  9  3  1  0  0  0  0
 10  9  2  0  0  0  0
 11 12  2  0  0  0  0
 11 10  1  0  0  0  0
 12 13  1  0  0  0  0
 13 17  1  0  0  0  0
 13 14  2  0  0  0  0
 15 10  1  0  0  0  0
 16 11  1  0  0  0  0
 17 18  1  0  0  0  0
 19 17  1  0  0  0  0
 20 17  1  0  0  0  0
 21  5  1  0  0  0  0
 21 22  1  0  0  0  0
 23 22  2  0  0  0  0
 23 24  1  0  0  0  0
 25 23  1  0  0  0  0
 26 27  1  0  0  0  0
 26 25  2  0  0  0  0
 27 21  2  0  0  0  0
M  END
>  <minimizedAffinity>
-6.0334549

>  <minimizedRMSD>
2.25963426

$$$$
