
     RDKit          3D

 21 22  0  0  0  0  0  0  0  0999 V2000
   38.3057   31.2412   50.1194 C   0  0  0  0  0  0  0  0  0  0  0  0
   38.2986   31.6154   48.7641 C   0  0  0  0  0  0  0  0  0  0  0  0
   37.2063   31.2189   48.0079 C   0  0  0  0  0  0  0  0  0  0  0  0
   36.2113   30.5041   48.5866 N   0  0  0  0  0  0  0  0  0  0  0  0
   36.2575   30.1645   49.8962 C   0  0  0  0  0  0  0  0  0  0  0  0
   37.2965   30.5307   50.6543 N   0  0  0  0  0  0  0  0  0  0  0  0
   35.1258   29.3806   50.4494 C   0  0  0  0  0  0  0  0  0  0  0  0
   35.2700   29.1262   51.8068 F   0  0  0  0  0  0  0  0  0  0  0  0
   33.9278   30.0596   50.2993 F   0  0  0  0  0  0  0  0  0  0  0  0
   34.9496   28.1709   49.8200 F   0  0  0  0  0  0  0  0  0  0  0  0
   39.1409   31.5310   50.7455 H   0  0  0  0  0  0  0  0  0  0  0  0
   39.1199   32.1872   48.3517 H   0  0  0  0  0  0  0  0  0  0  0  0
   37.1345   31.5735   46.5941 C   0  0  0  0  0  0  0  0  0  0  0  0
   36.2816   32.5771   46.1812 C   0  0  0  0  0  0  0  0  0  0  0  0
   36.2651   32.8595   44.8301 C   0  0  0  0  0  0  0  0  0  0  0  0
   35.6112   33.6347   44.4837 H   0  0  0  0  0  0  0  0  0  0  0  0
   37.0578   32.1648   43.9998 N   0  0  0  0  0  0  0  0  0  0  0  0
   37.8871   31.1922   44.3858 C   0  0  0  0  0  0  0  0  0  0  0  0
   37.9048   30.9128   45.7144 N   0  0  0  0  0  0  0  0  0  0  0  0
   35.6681   33.0990   46.9035 H   0  0  0  0  0  0  0  0  0  0  0  0
   38.5038   30.6654   43.6699 H   0  0  0  0  0  0  0  0  0  0  0  0
  1  6  2  0
  2  1  1  0
  3  4  1  0
  3  2  2  0
  4  5  2  0
  5  7  1  0
  5  6  1  0
  7  8  1  0
  9  7  1  0
 10  7  1  0
  1 11  1  0
  2 12  1  0
 13 14  2  0
 14 15  1  0
 15 16  1  0
 15 17  2  0
 17 18  1  0
 18 19  2  0
 19 13  1  0
 14 20  1  0
 18 21  1  0
  3 13  1  0
M  ISO  3  11  14  12  14  16  14
M  END
>  <DihAtoms>  (1) 
3,2,12,13

>  <DihDeg>  (1) 
-0.003248112503828782

$$$$
