
 OpenBabel03272508073D

 33 36  0  0  0  0  0  0  0  0999 V2000
   37.3660   26.5670   34.2910 C   0  0  0  0  0  0  0  0  0  0  0  0
   37.3480   26.9360   32.9520 C   0  0  0  0  0  0  0  0  0  0  0  0
   36.6710   28.1360   32.8070 C   0  0  0  0  0  0  0  0  0  0  0  0
   36.2980   28.4530   34.0810 N   0  0  0  0  0  0  0  0  0  0  0  0
   36.7010   27.5430   34.9470 N   0  0  0  0  0  0  0  0  0  0  0  0
   37.7840   26.4030   32.1020 H   0  0  0  0  0  0  0  0  0  0  0  0
   36.4550   28.7290   31.9310 H   0  0  0  0  0  0  0  0  0  0  0  0
   37.9770   25.3790   34.8570 C   0  0  0  0  0  0  0  0  0  0  0  0
   37.8590   25.1640   36.2550 C   0  0  0  0  0  0  0  0  0  0  0  0
   38.4500   24.0200   36.7840 C   0  0  0  0  0  0  0  0  0  0  0  0
   39.1030   23.1770   35.9320 N   0  0  0  0  0  0  0  0  0  0  0  0
   39.2000   23.4060   34.6010 C   0  0  0  0  0  0  0  0  0  0  0  0
   38.6340   24.5090   34.0740 N   0  0  0  0  0  0  0  0  0  0  0  0
   37.3380   25.8440   36.9140 H   0  0  0  0  0  0  0  0  0  0  0  0
   39.7340   22.6920   33.9930 H   0  0  0  0  0  0  0  0  0  0  0  0
   38.3390   23.7720   38.2520 C   0  0  0  0  0  0  0  0  0  0  0  0
   38.0320   24.9930   38.8050 F   0  0  0  0  0  0  0  0  0  0  0  0
   37.3270   22.8820   38.5590 F   0  0  0  0  0  0  0  0  0  0  0  0
   39.5360   23.3320   38.7890 F   0  0  0  0  0  0  0  0  0  0  0  0
   35.5550   29.6270   34.5270 C   0  0  0  0  0  0  0  0  0  0  0  0
   34.2080   29.8090   34.1760 C   0  0  0  0  0  0  0  0  0  0  0  0
   33.5600   30.9180   34.6320 C   0  0  0  0  0  0  0  0  0  0  0  0
   34.2640   31.8590   35.4460 C   0  0  0  0  0  0  0  0  0  0  0  0
   35.9520   31.0810   35.5480 S   0  0  0  0  0  0  0  0  0  0  0  0
   33.6570   29.1100   33.5600 H   0  0  0  0  0  0  0  0  0  0  0  0
   32.5320   31.1980   34.4520 H   0  0  0  0  0  0  0  0  0  0  0  0
   33.8540   33.0780   36.0490 C   0  0  0  0  0  0  0  0  0  0  0  0
   33.8880   33.3140   37.4300 C   0  0  0  0  0  3  0  0  0  0  0  0
   33.4510   34.5570   37.8350 C   0  0  0  0  0  0  0  0  0  0  0  0
   33.5010   34.6790   38.9210 H   0  0  0  0  0  0  0  0  0  0  0  0
   33.0290   35.4570   36.9510 N   0  0  0  0  0  0  0  0  0  0  0  0
   32.9970   35.2320   35.6350 C   0  0  0  0  0  3  0  0  0  0  0  0
   33.4170   34.0280   35.2040 N   0  0  0  0  0  0  0  0  0  0  0  0
  1  8  1  0  0  0  0
  1  5  2  0  0  0  0
  2  1  1  0  0  0  0
  3  2  2  0  0  0  0
  3  4  1  0  0  0  0
  4 20  1  0  0  0  0
  4  5  1  0  0  0  0
  6  2  1  0  0  0  0
  7  3  1  0  0  0  0
  8  9  1  0  0  0  0
  9 10  2  0  0  0  0
  9 14  1  0  0  0  0
 10 16  1  0  0  0  0
 11 10  1  0  0  0  0
 12 11  2  0  0  0  0
 13 12  1  0  0  0  0
 13  8  2  0  0  0  0
 15 12  1  0  0  0  0
 16 18  1  0  0  0  0
 16 19  1  0  0  0  0
 16 17  1  0  0  0  0
 20 24  1  0  0  0  0
 21 20  2  0  0  0  0
 21 22  1  0  0  0  0
 22 23  2  0  0  0  0
 23 24  1  0  0  0  0
 23 27  1  0  0  0  0
 25 21  1  0  0  0  0
 26 22  1  0  0  0  0
 27 28  1  0  0  0  0
 28 29  2  0  0  0  0
 29 30  1  0  0  0  0
 31 29  1  0  0  0  0
 32 31  2  0  0  0  0
 33 32  1  0  0  0  0
 33 27  2  0  0  0  0
M  END
>  <minimizedAffinity>
-6.11273479

$$$$

 OpenBabel03272508073D

 33 36  0  0  0  0  0  0  0  0999 V2000
   37.0580   27.1590   34.1740 C   0  0  0  0  0  0  0  0  0  0  0  0
   36.7650   27.6220   32.8980 C   0  0  0  0  0  0  0  0  0  0  0  0
   36.0680   28.8170   32.9840 C   0  0  0  0  0  0  0  0  0  0  0  0
   35.9640   29.0360   34.3270 N   0  0  0  0  0  0  0  0  0  0  0  0
   36.5380   28.0740   35.0220 N   0  0  0  0  0  0  0  0  0  0  0  0
   37.0180   27.1600   31.9400 H   0  0  0  0  0  0  0  0  0  0  0  0
   35.6750   29.4670   32.2160 H   0  0  0  0  0  0  0  0  0  0  0  0
   37.7760   25.9450   34.5150 C   0  0  0  0  0  0  0  0  0  0  0  0
   37.7250   25.4890   35.8570 C   0  0  0  0  0  0  0  0  0  0  0  0
   38.4190   24.3220   36.1690 C   0  0  0  0  0  0  0  0  0  0  0  0
   39.1010   23.6900   35.1710 N   0  0  0  0  0  0  0  0  0  0  0  0
   39.1330   24.1480   33.8970 C   0  0  0  0  0  0  0  0  0  0  0  0
   38.4680   25.2760   33.5790 N   0  0  0  0  0  0  0  0  0  0  0  0
   37.1790   26.0030   36.6350 H   0  0  0  0  0  0  0  0  0  0  0  0
   39.6960   23.5920   33.1630 H   0  0  0  0  0  0  0  0  0  0  0  0
   38.3790   23.8220   37.5750 C   0  0  0  0  0  0  0  0  0  0  0  0
   37.3640   22.8950   37.6040 F   0  0  0  0  0  0  0  0  0  0  0  0
   39.5560   23.1960   37.9430 F   0  0  0  0  0  0  0  0  0  0  0  0
   38.0800   24.8340   38.4700 F   0  0  0  0  0  0  0  0  0  0  0  0
   35.3240   30.1610   35.0010 C   0  0  0  0  0  0  0  0  0  0  0  0
   36.0850   31.1240   35.6840 C   0  0  0  0  0  0  0  0  0  0  0  0
   35.4350   32.1610   36.2840 C   0  0  0  0  0  0  0  0  0  0  0  0
   34.0100   32.2380   36.2030 C   0  0  0  0  0  0  0  0  0  0  0  0
   33.6050   30.7230   35.2010 S   0  0  0  0  0  0  0  0  0  0  0  0
   37.1630   31.0830   35.7590 H   0  0  0  0  0  0  0  0  0  0  0  0
   35.8730   32.9750   36.8430 H   0  0  0  0  0  0  0  0  0  0  0  0
   33.0850   33.1850   36.7210 C   0  0  0  0  0  0  0  0  0  0  0  0
   33.4610   34.3320   37.4350 C   0  0  0  0  0  3  0  0  0  0  0  0
   32.4270   35.1370   37.8600 C   0  0  0  0  0  0  0  0  0  0  0  0
   32.7840   36.0130   38.4110 H   0  0  0  0  0  0  0  0  0  0  0  0
   31.1610   34.8240   37.5970 N   0  0  0  0  0  0  0  0  0  0  0  0
   30.8020   33.7320   36.9170 C   0  0  0  0  0  3  0  0  0  0  0  0
   31.7880   32.9230   36.4860 N   0  0  0  0  0  0  0  0  0  0  0  0
  1  8  1  0  0  0  0
  1  5  2  0  0  0  0
  2  3  2  0  0  0  0
  2  1  1  0  0  0  0
  3  4  1  0  0  0  0
  4 20  1  0  0  0  0
  4  5  1  0  0  0  0
  6  2  1  0  0  0  0
  7  3  1  0  0  0  0
  8  9  1  0  0  0  0
  9 10  2  0  0  0  0
  9 14  1  0  0  0  0
 10 16  1  0  0  0  0
 11 10  1  0  0  0  0
 12 11  2  0  0  0  0
 13 12  1  0  0  0  0
 13  8  2  0  0  0  0
 15 12  1  0  0  0  0
 16 17  1  0  0  0  0
 16 18  1  0  0  0  0
 16 19  1  0  0  0  0
 20 24  1  0  0  0  0
 20 21  2  0  0  0  0
 21 25  1  0  0  0  0
 21 22  1  0  0  0  0
 22 26  1  0  0  0  0
 23 22  2  0  0  0  0
 23 27  1  0  0  0  0
 24 23  1  0  0  0  0
 27 28  1  0  0  0  0
 28 29  2  0  0  0  0
 29 30  1  0  0  0  0
 31 29  1  0  0  0  0
 32 31  2  0  0  0  0
 33 27  2  0  0  0  0
 33 32  1  0  0  0  0
M  END
>  <minimizedAffinity>
-6.08568048

$$$$

 OpenBabel03272508073D

 33 36  0  0  0  0  0  0  0  0999 V2000
   37.3850   26.6190   34.3000 C   0  0  0  0  0  0  0  0  0  0  0  0
   37.4180   27.0320   32.9750 C   0  0  0  0  0  0  0  0  0  0  0  0
   36.6850   28.1990   32.8320 C   0  0  0  0  0  0  0  0  0  0  0  0
   36.2280   28.4510   34.0930 N   0  0  0  0  0  0  0  0  0  0  0  0
   36.6340   27.5350   34.9490 N   0  0  0  0  0  0  0  0  0  0  0  0
   37.9260   26.5530   32.1330 H   0  0  0  0  0  0  0  0  0  0  0  0
   36.4830   28.8100   31.9640 H   0  0  0  0  0  0  0  0  0  0  0  0
   38.0300   25.4460   34.8610 C   0  0  0  0  0  0  0  0  0  0  0  0
   37.8760   25.1940   36.2490 C   0  0  0  0  0  0  0  0  0  0  0  0
   38.5000   24.0640   36.7730 C   0  0  0  0  0  0  0  0  0  0  0  0
   39.2160   23.2710   35.9250 N   0  0  0  0  0  0  0  0  0  0  0  0
   39.3470   23.5340   34.6040 C   0  0  0  0  0  0  0  0  0  0  0  0
   38.7500   24.6230   34.0810 N   0  0  0  0  0  0  0  0  0  0  0  0
   37.3040   25.8350   36.9050 H   0  0  0  0  0  0  0  0  0  0  0  0
   39.9310   22.8580   33.9980 H   0  0  0  0  0  0  0  0  0  0  0  0
   38.3520   23.7780   38.2310 C   0  0  0  0  0  0  0  0  0  0  0  0
   38.0330   24.9850   38.8080 F   0  0  0  0  0  0  0  0  0  0  0  0
   37.3310   22.8830   38.4890 F   0  0  0  0  0  0  0  0  0  0  0  0
   39.5350   23.3220   38.7850 F   0  0  0  0  0  0  0  0  0  0  0  0
   35.3990   29.5690   34.5350 C   0  0  0  0  0  0  0  0  0  0  0  0
   35.9480   30.6310   35.2710 C   0  0  0  0  0  0  0  0  0  0  0  0
   35.1290   31.6540   35.6460 C   0  0  0  0  0  0  0  0  0  0  0  0
   33.7460   31.6160   35.2840 C   0  0  0  0  0  0  0  0  0  0  0  0
   33.6430   30.0090   34.3510 S   0  0  0  0  0  0  0  0  0  0  0  0
   36.9900   30.6780   35.5570 H   0  0  0  0  0  0  0  0  0  0  0  0
   35.3960   32.5360   36.2100 H   0  0  0  0  0  0  0  0  0  0  0  0
   32.6810   32.5230   35.5330 C   0  0  0  0  0  0  0  0  0  0  0  0
   32.2500   32.8860   36.8170 C   0  0  0  0  0  3  0  0  0  0  0  0
   31.2020   33.7790   36.8650 C   0  0  0  0  0  0  0  0  0  0  0  0
   30.9130   34.0220   37.8930 H   0  0  0  0  0  0  0  0  0  0  0  0
   30.6510   34.2520   35.7510 N   0  0  0  0  0  0  0  0  0  0  0  0
   31.0610   33.9060   34.5270 C   0  0  0  0  0  3  0  0  0  0  0  0
   32.0840   33.0350   34.4430 N   0  0  0  0  0  0  0  0  0  0  0  0
  1  8  1  0  0  0  0
  1  5  2  0  0  0  0
  2  1  1  0  0  0  0
  3  2  2  0  0  0  0
  3  4  1  0  0  0  0
  4 20  1  0  0  0  0
  4  5  1  0  0  0  0
  6  2  1  0  0  0  0
  7  3  1  0  0  0  0
  8  9  1  0  0  0  0
  9 10  2  0  0  0  0
  9 14  1  0  0  0  0
 10 16  1  0  0  0  0
 11 10  1  0  0  0  0
 12 11  2  0  0  0  0
 13 12  1  0  0  0  0
 13  8  2  0  0  0  0
 15 12  1  0  0  0  0
 16 18  1  0  0  0  0
 16 19  1  0  0  0  0
 16 17  1  0  0  0  0
 20 21  2  0  0  0  0
 21 25  1  0  0  0  0
 21 22  1  0  0  0  0
 22 26  1  0  0  0  0
 23 27  1  0  0  0  0
 23 22  2  0  0  0  0
 24 20  1  0  0  0  0
 24 23  1  0  0  0  0
 27 28  1  0  0  0  0
 28 29  2  0  0  0  0
 29 30  1  0  0  0  0
 31 29  1  0  0  0  0
 32 31  2  0  0  0  0
 33 32  1  0  0  0  0
 33 27  2  0  0  0  0
M  END
>  <minimizedAffinity>
-5.97911596

$$$$

 OpenBabel03272508073D

 33 36  0  0  0  0  0  0  0  0999 V2000
   37.7520   25.8340   34.0030 C   0  0  0  0  0  0  0  0  0  0  0  0
   37.0310   26.9600   34.3780 C   0  0  0  0  0  0  0  0  0  0  0  0
   37.0220   27.8770   33.3400 C   0  0  0  0  0  0  0  0  0  0  0  0
   37.7500   27.2650   32.3610 N   0  0  0  0  0  0  0  0  0  0  0  0
   38.1760   26.0770   32.7430 N   0  0  0  0  0  0  0  0  0  0  0  0
   36.5260   27.1490   35.3300 H   0  0  0  0  0  0  0  0  0  0  0  0
   36.5710   28.8550   33.2590 H   0  0  0  0  0  0  0  0  0  0  0  0
   37.9930   24.6480   34.8040 C   0  0  0  0  0  0  0  0  0  0  0  0
   38.0120   24.7840   36.2160 C   0  0  0  0  0  0  0  0  0  0  0  0
   38.2440   23.6370   36.9720 C   0  0  0  0  0  0  0  0  0  0  0  0
   38.4360   22.4590   36.3130 N   0  0  0  0  0  0  0  0  0  0  0  0
   38.4130   22.3560   34.9630 C   0  0  0  0  0  0  0  0  0  0  0  0
   38.1910   23.4570   34.2180 N   0  0  0  0  0  0  0  0  0  0  0  0
   37.8570   25.7280   36.7200 H   0  0  0  0  0  0  0  0  0  0  0  0
   38.5750   21.3880   34.5150 H   0  0  0  0  0  0  0  0  0  0  0  0
   38.2680   23.7550   38.4600 C   0  0  0  0  0  0  0  0  0  0  0  0
   37.3600   22.8280   38.9130 F   0  0  0  0  0  0  0  0  0  0  0  0
   39.5080   23.4520   38.9900 F   0  0  0  0  0  0  0  0  0  0  0  0
   37.8660   25.0110   38.8800 F   0  0  0  0  0  0  0  0  0  0  0  0
   38.0630   27.7760   31.0300 C   0  0  0  0  0  0  0  0  0  0  0  0
   37.1000   28.4570   30.2700 C   0  0  0  0  0  0  0  0  0  0  0  0
   37.4520   28.9250   29.0390 C   0  0  0  0  0  0  0  0  0  0  0  0
   38.7810   28.7070   28.5590 C   0  0  0  0  0  0  0  0  0  0  0  0
   39.5480   27.7770   29.9780 S   0  0  0  0  0  0  0  0  0  0  0  0
   36.0880   28.6310   30.6140 H   0  0  0  0  0  0  0  0  0  0  0  0
   36.8310   29.4640   28.3390 H   0  0  0  0  0  0  0  0  0  0  0  0
   39.4160   29.0720   27.3420 C   0  0  0  0  0  0  0  0  0  0  0  0
   39.4140   30.3740   26.8210 C   0  0  0  0  0  3  0  0  0  0  0  0
   40.0820   30.5420   25.6280 C   0  0  0  0  0  0  0  0  0  0  0  0
   40.0430   31.5770   25.2740 H   0  0  0  0  0  0  0  0  0  0  0  0
   40.6830   29.5180   25.0280 N   0  0  0  0  0  0  0  0  0  0  0  0
   40.6860   28.2770   25.5240 C   0  0  0  0  0  3  0  0  0  0  0  0
   40.0430   28.0770   26.6890 N   0  0  0  0  0  0  0  0  0  0  0  0
  1  2  1  0  0  0  0
  1  8  1  0  0  0  0
  2  6  1  0  0  0  0
  3  2  2  0  0  0  0
  4  5  1  0  0  0  0
  4  3  1  0  0  0  0
  5  1  2  0  0  0  0
  7  3  1  0  0  0  0
  8  9  1  0  0  0  0
  9 14  1  0  0  0  0
  9 10  2  0  0  0  0
 10 16  1  0  0  0  0
 11 10  1  0  0  0  0
 12 11  2  0  0  0  0
 13  8  2  0  0  0  0
 13 12  1  0  0  0  0
 15 12  1  0  0  0  0
 16 19  1  0  0  0  0
 16 17  1  0  0  0  0
 16 18  1  0  0  0  0
 20  4  1  0  0  0  0
 21 25  1  0  0  0  0
 21 20  2  0  0  0  0
 22 21  1  0  0  0  0
 23 22  2  0  0  0  0
 23 24  1  0  0  0  0
 24 20  1  0  0  0  0
 26 22  1  0  0  0  0
 27 23  1  0  0  0  0
 28 27  1  0  0  0  0
 29 28  2  0  0  0  0
 30 29  1  0  0  0  0
 31 32  2  0  0  0  0
 31 29  1  0  0  0  0
 32 33  1  0  0  0  0
 33 27  2  0  0  0  0
M  END
>  <minimizedAffinity>
-5.89999533

$$$$

 OpenBabel03272508073D

 33 36  0  0  0  0  0  0  0  0999 V2000
   37.5440   24.3410   31.3260 C   0  0  0  0  0  0  0  0  0  0  0  0
   38.3990   25.1330   30.5710 C   0  0  0  0  0  0  0  0  0  0  0  0
   38.2160   26.4660   30.9010 C   0  0  0  0  0  0  0  0  0  0  0  0
   37.2420   26.4320   31.8570 N   0  0  0  0  0  0  0  0  0  0  0  0
   36.8490   25.1980   32.1070 N   0  0  0  0  0  0  0  0  0  0  0  0
   39.1250   24.8100   29.8190 H   0  0  0  0  0  0  0  0  0  0  0  0
   38.6920   27.3620   30.5310 H   0  0  0  0  0  0  0  0  0  0  0  0
   37.4290   22.8950   31.2810 C   0  0  0  0  0  0  0  0  0  0  0  0
   36.4500   22.2730   32.0980 C   0  0  0  0  0  0  0  0  0  0  0  0
   36.3520   20.8850   32.0430 C   0  0  0  0  0  0  0  0  0  0  0  0
   37.1970   20.2100   31.2120 N   0  0  0  0  0  0  0  0  0  0  0  0
   38.1230   20.8290   30.4420 C   0  0  0  0  0  0  0  0  0  0  0  0
   38.2310   22.1720   30.4840 N   0  0  0  0  0  0  0  0  0  0  0  0
   35.7890   22.8250   32.7510 H   0  0  0  0  0  0  0  0  0  0  0  0
   38.7560   20.2250   29.8100 H   0  0  0  0  0  0  0  0  0  0  0  0
   35.3290   20.2080   32.8940 C   0  0  0  0  0  0  0  0  0  0  0  0
   34.1230   20.4550   32.2800 F   0  0  0  0  0  0  0  0  0  0  0  0
   35.5190   18.8400   32.9540 F   0  0  0  0  0  0  0  0  0  0  0  0
   35.2920   20.7380   34.1710 F   0  0  0  0  0  0  0  0  0  0  0  0
   36.6530   27.5600   32.5710 C   0  0  0  0  0  0  0  0  0  0  0  0
   36.0290   28.6100   31.8780 C   0  0  0  0  0  0  0  0  0  0  0  0
   35.4850   29.6320   32.5970 C   0  0  0  0  0  0  0  0  0  0  0  0
   35.5650   29.6070   34.0250 C   0  0  0  0  0  0  0  0  0  0  0  0
   36.4790   28.0130   34.3250 S   0  0  0  0  0  0  0  0  0  0  0  0
   35.9590   28.6490   30.7990 H   0  0  0  0  0  0  0  0  0  0  0  0
   34.9750   30.5040   32.2160 H   0  0  0  0  0  0  0  0  0  0  0  0
   35.0980   30.5160   35.0120 C   0  0  0  0  0  0  0  0  0  0  0  0
   35.9140   31.4580   35.6530 C   0  0  0  0  0  3  0  0  0  0  0  0
   35.2870   32.2570   36.5840 C   0  0  0  0  0  0  0  0  0  0  0  0
   35.9760   32.9700   37.0490 H   0  0  0  0  0  0  0  0  0  0  0  0
   33.9880   32.1230   36.8400 N   0  0  0  0  0  0  0  0  0  0  0  0
   33.2100   31.2260   36.2290 C   0  0  0  0  0  3  0  0  0  0  0  0
   33.7900   30.4290   35.3130 N   0  0  0  0  0  0  0  0  0  0  0  0
  1  5  2  0  0  0  0
  2  3  2  0  0  0  0
  2  1  1  0  0  0  0
  3  4  1  0  0  0  0
  4  5  1  0  0  0  0
  4 20  1  0  0  0  0
  6  2  1  0  0  0  0
  7  3  1  0  0  0  0
  8  1  1  0  0  0  0
  8  9  1  0  0  0  0
  9 14  1  0  0  0  0
 10  9  2  0  0  0  0
 10 16  1  0  0  0  0
 11 10  1  0  0  0  0
 12 13  1  0  0  0  0
 12 11  2  0  0  0  0
 13  8  2  0  0  0  0
 15 12  1  0  0  0  0
 16 18  1  0  0  0  0
 16 19  1  0  0  0  0
 17 16  1  0  0  0  0
 20 24  1  0  0  0  0
 21 20  2  0  0  0  0
 21 22  1  0  0  0  0
 22 23  2  0  0  0  0
 23 24  1  0  0  0  0
 23 27  1  0  0  0  0
 25 21  1  0  0  0  0
 26 22  1  0  0  0  0
 27 33  2  0  0  0  0
 27 28  1  0  0  0  0
 28 29  2  0  0  0  0
 29 31  1  0  0  0  0
 29 30  1  0  0  0  0
 32 31  2  0  0  0  0
 33 32  1  0  0  0  0
M  END
>  <minimizedAffinity>
-5.89874506

$$$$

 OpenBabel03272508073D

 33 36  0  0  0  0  0  0  0  0999 V2000
   37.5260   23.7410   31.1510 C   0  0  0  0  0  0  0  0  0  0  0  0
   38.3110   24.5630   30.3540 C   0  0  0  0  0  0  0  0  0  0  0  0
   38.2100   25.8730   30.7930 C   0  0  0  0  0  0  0  0  0  0  0  0
   37.3550   25.7940   31.8540 N   0  0  0  0  0  0  0  0  0  0  0  0
   36.9550   24.5560   32.0650 N   0  0  0  0  0  0  0  0  0  0  0  0
   38.9330   24.2780   29.5000 H   0  0  0  0  0  0  0  0  0  0  0  0
   38.6680   26.7820   30.4300 H   0  0  0  0  0  0  0  0  0  0  0  0
   37.3610   22.3040   31.0230 C   0  0  0  0  0  0  0  0  0  0  0  0
   36.3000   21.6840   31.7310 C   0  0  0  0  0  0  0  0  0  0  0  0
   36.1540   20.3050   31.5970 C   0  0  0  0  0  0  0  0  0  0  0  0
   37.0340   19.6380   30.7970 N   0  0  0  0  0  0  0  0  0  0  0  0
   38.0390   20.2550   30.1310 C   0  0  0  0  0  0  0  0  0  0  0  0
   38.1940   21.5880   30.2500 N   0  0  0  0  0  0  0  0  0  0  0  0
   35.6130   22.2300   32.3610 H   0  0  0  0  0  0  0  0  0  0  0  0
   38.6950   19.6570   29.5170 H   0  0  0  0  0  0  0  0  0  0  0  0
   35.0450   19.6300   32.3330 C   0  0  0  0  0  0  0  0  0  0  0  0
   35.1210   18.3060   31.9710 F   0  0  0  0  0  0  0  0  0  0  0  0
   35.1930   19.7200   33.7050 F   0  0  0  0  0  0  0  0  0  0  0  0
   33.8070   20.1210   31.9560 F   0  0  0  0  0  0  0  0  0  0  0  0
   36.8900   26.8830   32.7080 C   0  0  0  0  0  0  0  0  0  0  0  0
   37.2550   26.9470   34.0620 C   0  0  0  0  0  0  0  0  0  0  0  0
   36.8030   27.9940   34.8090 C   0  0  0  0  0  0  0  0  0  0  0  0
   35.9750   28.9870   34.1990 C   0  0  0  0  0  0  0  0  0  0  0  0
   35.8560   28.3580   32.4510 S   0  0  0  0  0  0  0  0  0  0  0  0
   37.8790   26.2060   34.5440 H   0  0  0  0  0  0  0  0  0  0  0  0
   36.9930   28.1850   35.8550 H   0  0  0  0  0  0  0  0  0  0  0  0
   35.3700   30.1620   34.7210 C   0  0  0  0  0  0  0  0  0  0  0  0
   35.9860   31.0060   35.6560 C   0  0  0  0  0  3  0  0  0  0  0  0
   35.2480   32.1020   36.0490 C   0  0  0  0  0  0  0  0  0  0  0  0
   35.7820   32.7190   36.7790 H   0  0  0  0  0  0  0  0  0  0  0  0
   34.0320   32.3220   35.5580 N   0  0  0  0  0  0  0  0  0  0  0  0
   33.4450   31.5190   34.6660 C   0  0  0  0  0  3  0  0  0  0  0  0
   34.1380   30.4390   34.2600 N   0  0  0  0  0  0  0  0  0  0  0  0
  1  5  2  0  0  0  0
  2  3  2  0  0  0  0
  2  1  1  0  0  0  0
  3  4  1  0  0  0  0
  4  5  1  0  0  0  0
  4 20  1  0  0  0  0
  6  2  1  0  0  0  0
  7  3  1  0  0  0  0
  8  1  1  0  0  0  0
  8  9  1  0  0  0  0
  9 14  1  0  0  0  0
 10  9  2  0  0  0  0
 10 16  1  0  0  0  0
 11 10  1  0  0  0  0
 12 13  1  0  0  0  0
 12 11  2  0  0  0  0
 13  8  2  0  0  0  0
 15 12  1  0  0  0  0
 16 18  1  0  0  0  0
 17 16  1  0  0  0  0
 19 16  1  0  0  0  0
 20 21  2  0  0  0  0
 21 25  1  0  0  0  0
 21 22  1  0  0  0  0
 22 26  1  0  0  0  0
 23 27  1  0  0  0  0
 23 22  2  0  0  0  0
 24 20  1  0  0  0  0
 24 23  1  0  0  0  0
 27 28  1  0  0  0  0
 28 29  2  0  0  0  0
 29 30  1  0  0  0  0
 31 29  1  0  0  0  0
 32 31  2  0  0  0  0
 33 32  1  0  0  0  0
 33 27  2  0  0  0  0
M  END
>  <minimizedAffinity>
-5.88596582

$$$$

 OpenBabel03272508073D

 33 36  0  0  0  0  0  0  0  0999 V2000
   35.5490   29.3030   31.8850 C   0  0  0  0  0  0  0  0  0  0  0  0
   36.2780   29.4840   30.7180 C   0  0  0  0  0  0  0  0  0  0  0  0
   36.7020   28.2560   30.2360 C   0  0  0  0  0  0  0  0  0  0  0  0
   36.2080   27.3650   31.1440 N   0  0  0  0  0  0  0  0  0  0  0  0
   35.5370   27.9700   32.1040 N   0  0  0  0  0  0  0  0  0  0  0  0
   36.5130   30.4240   30.2100 H   0  0  0  0  0  0  0  0  0  0  0  0
   37.2850   27.9970   29.3640 H   0  0  0  0  0  0  0  0  0  0  0  0
   34.9310   30.3370   32.6940 C   0  0  0  0  0  0  0  0  0  0  0  0
   35.5280   30.6630   33.9390 C   0  0  0  0  0  0  0  0  0  0  0  0
   34.9240   31.6580   34.7040 C   0  0  0  0  0  0  0  0  0  0  0  0
   33.8020   32.2580   34.2120 N   0  0  0  0  0  0  0  0  0  0  0  0
   33.2520   31.9280   33.0200 C   0  0  0  0  0  0  0  0  0  0  0  0
   33.8240   30.9670   32.2680 N   0  0  0  0  0  0  0  0  0  0  0  0
   36.4180   30.1760   34.3120 H   0  0  0  0  0  0  0  0  0  0  0  0
   32.3620   32.4480   32.7000 H   0  0  0  0  0  0  0  0  0  0  0  0
   35.5340   32.0180   36.0180 C   0  0  0  0  0  0  0  0  0  0  0  0
   36.5310   31.0940   36.2220 F   0  0  0  0  0  0  0  0  0  0  0  0
   36.1000   33.2800   36.0060 F   0  0  0  0  0  0  0  0  0  0  0  0
   34.6190   31.9190   37.0520 F   0  0  0  0  0  0  0  0  0  0  0  0
   36.3460   25.9120   31.1330 C   0  0  0  0  0  0  0  0  0  0  0  0
   37.6010   25.3040   30.9710 C   0  0  0  0  0  0  0  0  0  0  0  0
   37.6730   23.9430   30.9830 C   0  0  0  0  0  0  0  0  0  0  0  0
   36.4770   23.1780   31.1560 C   0  0  0  0  0  0  0  0  0  0  0  0
   35.1920   24.5160   31.3100 S   0  0  0  0  0  0  0  0  0  0  0  0
   38.5170   25.8640   30.8370 H   0  0  0  0  0  0  0  0  0  0  0  0
   38.5560   23.3310   30.8720 H   0  0  0  0  0  0  0  0  0  0  0  0
   36.2530   21.7760   31.2070 C   0  0  0  0  0  0  0  0  0  0  0  0
   37.0770   20.8320   30.5790 C   0  0  0  0  0  3  0  0  0  0  0  0
   36.7050   19.5140   30.7380 C   0  0  0  0  0  0  0  0  0  0  0  0
   37.3860   18.8280   30.2250 H   0  0  0  0  0  0  0  0  0  0  0  0
   35.6290   19.1860   31.4460 N   0  0  0  0  0  0  0  0  0  0  0  0
   34.8430   20.0860   32.0450 C   0  0  0  0  0  3  0  0  0  0  0  0
   35.1780   21.3820   31.9110 N   0  0  0  0  0  0  0  0  0  0  0  0
  1  5  2  0  0  0  0
  1  8  1  0  0  0  0
  2  1  1  0  0  0  0
  3  2  2  0  0  0  0
  3  4  1  0  0  0  0
  4  5  1  0  0  0  0
  6  2  1  0  0  0  0
  7  3  1  0  0  0  0
  8  9  1  0  0  0  0
  9 14  1  0  0  0  0
  9 10  2  0  0  0  0
 10 16  1  0  0  0  0
 11 10  1  0  0  0  0
 12 11  2  0  0  0  0
 13  8  2  0  0  0  0
 13 12  1  0  0  0  0
 15 12  1  0  0  0  0
 16 17  1  0  0  0  0
 16 19  1  0  0  0  0
 18 16  1  0  0  0  0
 20  4  1  0  0  0  0
 20 24  1  0  0  0  0
 21 22  1  0  0  0  0
 21 20  2  0  0  0  0
 22 23  2  0  0  0  0
 23 27  1  0  0  0  0
 23 24  1  0  0  0  0
 25 21  1  0  0  0  0
 26 22  1  0  0  0  0
 27 33  1  0  0  0  0
 28 29  1  0  0  0  0
 28 27  2  0  0  0  0
 29 31  2  0  0  0  0
 30 29  1  0  0  0  0
 31 32  1  0  0  0  0
 33 32  2  0  0  0  0
M  END
>  <minimizedAffinity>
-5.88427973

$$$$

 OpenBabel03272508073D

 33 36  0  0  0  0  0  0  0  0999 V2000
   37.8000   25.9370   34.0520 C   0  0  0  0  0  0  0  0  0  0  0  0
   36.9180   26.9480   34.4110 C   0  0  0  0  0  0  0  0  0  0  0  0
   36.8850   27.9130   33.4180 C   0  0  0  0  0  0  0  0  0  0  0  0
   37.7610   27.4450   32.4820 N   0  0  0  0  0  0  0  0  0  0  0  0
   38.2950   26.2960   32.8470 N   0  0  0  0  0  0  0  0  0  0  0  0
   36.3160   27.0230   35.3210 H   0  0  0  0  0  0  0  0  0  0  0  0
   36.3270   28.8350   33.3410 H   0  0  0  0  0  0  0  0  0  0  0  0
   38.1160   24.7450   34.8180 C   0  0  0  0  0  0  0  0  0  0  0  0
   38.0450   24.8170   36.2330 C   0  0  0  0  0  0  0  0  0  0  0  0
   38.3490   23.6660   36.9540 C   0  0  0  0  0  0  0  0  0  0  0  0
   38.6950   22.5430   36.2610 N   0  0  0  0  0  0  0  0  0  0  0  0
   38.7550   22.5010   34.9090 C   0  0  0  0  0  0  0  0  0  0  0  0
   38.4630   23.6070   34.1960 N   0  0  0  0  0  0  0  0  0  0  0  0
   37.7690   25.7170   36.7640 H   0  0  0  0  0  0  0  0  0  0  0  0
   39.0370   21.5740   34.4330 H   0  0  0  0  0  0  0  0  0  0  0  0
   38.2810   23.7170   38.4440 C   0  0  0  0  0  0  0  0  0  0  0  0
   39.5400   23.3760   38.8780 F   0  0  0  0  0  0  0  0  0  0  0  0
   37.9830   24.9830   38.9130 F   0  0  0  0  0  0  0  0  0  0  0  0
   37.3760   22.7990   38.9470 F   0  0  0  0  0  0  0  0  0  0  0  0
   38.1210   28.0630   31.2090 C   0  0  0  0  0  0  0  0  0  0  0  0
   39.2510   27.6380   30.4920 C   0  0  0  0  0  0  0  0  0  0  0  0
   39.5310   28.2410   29.3020 C   0  0  0  0  0  0  0  0  0  0  0  0
   38.6760   29.2820   28.8230 C   0  0  0  0  0  0  0  0  0  0  0  0
   37.4030   29.3790   30.1780 S   0  0  0  0  0  0  0  0  0  0  0  0
   39.9120   26.8540   30.8370 H   0  0  0  0  0  0  0  0  0  0  0  0
   40.3560   28.0300   28.6370 H   0  0  0  0  0  0  0  0  0  0  0  0
   38.7210   30.0730   27.6430 C   0  0  0  0  0  0  0  0  0  0  0  0
   39.7740   30.0330   26.7180 C   0  0  0  0  0  3  0  0  0  0  0  0
   39.6470   30.8710   25.6320 C   0  0  0  0  0  0  0  0  0  0  0  0
   40.4980   30.7940   24.9490 H   0  0  0  0  0  0  0  0  0  0  0  0
   38.5830   31.6570   25.4920 N   0  0  0  0  0  0  0  0  0  0  0  0
   37.5790   31.6950   26.3730 C   0  0  0  0  0  3  0  0  0  0  0  0
   37.6710   30.8890   27.4470 N   0  0  0  0  0  0  0  0  0  0  0  0
  1  2  1  0  0  0  0
  1  8  1  0  0  0  0
  2  6  1  0  0  0  0
  3  2  2  0  0  0  0
  4  5  1  0  0  0  0
  4  3  1  0  0  0  0
  5  1  2  0  0  0  0
  7  3  1  0  0  0  0
  8  9  1  0  0  0  0
  9 14  1  0  0  0  0
  9 10  2  0  0  0  0
 10 16  1  0  0  0  0
 11 10  1  0  0  0  0
 12 11  2  0  0  0  0
 13  8  2  0  0  0  0
 13 12  1  0  0  0  0
 15 12  1  0  0  0  0
 16 17  1  0  0  0  0
 16 18  1  0  0  0  0
 16 19  1  0  0  0  0
 20  4  1  0  0  0  0
 21 25  1  0  0  0  0
 21 20  2  0  0  0  0
 22 21  1  0  0  0  0
 23 22  2  0  0  0  0
 23 24  1  0  0  0  0
 24 20  1  0  0  0  0
 26 22  1  0  0  0  0
 27 23  1  0  0  0  0
 28 27  2  0  0  0  0
 29 28  1  0  0  0  0
 30 29  1  0  0  0  0
 31 29  2  0  0  0  0
 31 32  1  0  0  0  0
 32 33  2  0  0  0  0
 33 27  1  0  0  0  0
M  END
>  <minimizedAffinity>
-5.81344461

$$$$

 OpenBabel03272508073D

 33 36  0  0  0  0  0  0  0  0999 V2000
   35.8630   28.9750   33.5870 C   0  0  0  0  0  0  0  0  0  0  0  0
   36.4410   28.7120   32.3520 C   0  0  0  0  0  0  0  0  0  0  0  0
   37.3280   27.6540   32.4670 C   0  0  0  0  0  0  0  0  0  0  0  0
   37.2530   27.3110   33.7860 N   0  0  0  0  0  0  0  0  0  0  0  0
   36.4020   28.0770   34.4410 N   0  0  0  0  0  0  0  0  0  0  0  0
   36.2630   29.2250   31.4030 H   0  0  0  0  0  0  0  0  0  0  0  0
   37.9560   27.1700   31.7340 H   0  0  0  0  0  0  0  0  0  0  0  0
   34.8810   30.0010   33.8870 C   0  0  0  0  0  0  0  0  0  0  0  0
   34.8340   30.5200   35.2060 C   0  0  0  0  0  0  0  0  0  0  0  0
   33.8890   31.5050   35.4790 C   0  0  0  0  0  0  0  0  0  0  0  0
   33.0690   31.9110   34.4670 N   0  0  0  0  0  0  0  0  0  0  0  0
   33.1350   31.3990   33.2150 C   0  0  0  0  0  0  0  0  0  0  0  0
   34.0450   30.4450   32.9350 N   0  0  0  0  0  0  0  0  0  0  0  0
   35.4930   30.1850   35.9960 H   0  0  0  0  0  0  0  0  0  0  0  0
   32.4510   31.7720   32.4680 H   0  0  0  0  0  0  0  0  0  0  0  0
   33.8200   32.0670   36.8610 C   0  0  0  0  0  0  0  0  0  0  0  0
   35.1140   32.0510   37.3250 F   0  0  0  0  0  0  0  0  0  0  0  0
   33.3640   33.3720   36.8750 F   0  0  0  0  0  0  0  0  0  0  0  0
   33.0410   31.2830   37.6940 F   0  0  0  0  0  0  0  0  0  0  0  0
   37.9770   26.2460   34.4740 C   0  0  0  0  0  0  0  0  0  0  0  0
   37.6400   25.8700   35.7840 C   0  0  0  0  0  0  0  0  0  0  0  0
   38.3410   24.8600   36.3720 C   0  0  0  0  0  0  0  0  0  0  0  0
   39.3930   24.2190   35.6460 C   0  0  0  0  0  0  0  0  0  0  0  0
   39.3500   25.1390   34.0280 S   0  0  0  0  0  0  0  0  0  0  0  0
   36.8490   26.3430   36.3510 H   0  0  0  0  0  0  0  0  0  0  0  0
   38.2040   24.4570   37.3650 H   0  0  0  0  0  0  0  0  0  0  0  0
   40.2750   23.1620   35.9980 C   0  0  0  0  0  0  0  0  0  0  0  0
   40.3840   22.6370   37.2930 C   0  0  0  0  0  3  0  0  0  0  0  0
   41.2920   21.6120   37.4480 C   0  0  0  0  0  0  0  0  0  0  0  0
   41.3310   21.2470   38.4790 H   0  0  0  0  0  0  0  0  0  0  0  0
   42.0070   21.1670   36.4180 N   0  0  0  0  0  0  0  0  0  0  0  0
   41.9030   21.6670   35.1840 C   0  0  0  0  0  3  0  0  0  0  0  0
   41.0240   22.6700   34.9970 N   0  0  0  0  0  0  0  0  0  0  0  0
  1  8  1  0  0  0  0
  1  5  2  0  0  0  0
  2  3  2  0  0  0  0
  2  1  1  0  0  0  0
  3  4  1  0  0  0  0
  4  5  1  0  0  0  0
  4 20  1  0  0  0  0
  6  2  1  0  0  0  0
  7  3  1  0  0  0  0
  8  9  1  0  0  0  0
  9 10  2  0  0  0  0
  9 14  1  0  0  0  0
 10 16  1  0  0  0  0
 11 10  1  0  0  0  0
 12 11  2  0  0  0  0
 13 12  1  0  0  0  0
 13  8  2  0  0  0  0
 15 12  1  0  0  0  0
 16 18  1  0  0  0  0
 16 17  1  0  0  0  0
 16 19  1  0  0  0  0
 20 21  2  0  0  0  0
 21 25  1  0  0  0  0
 21 22  1  0  0  0  0
 22 26  1  0  0  0  0
 23 27  1  0  0  0  0
 23 22  2  0  0  0  0
 24 20  1  0  0  0  0
 24 23  1  0  0  0  0
 27 28  1  0  0  0  0
 28 29  2  0  0  0  0
 29 30  1  0  0  0  0
 31 29  1  0  0  0  0
 32 31  2  0  0  0  0
 33 32  1  0  0  0  0
 33 27  2  0  0  0  0
M  END
>  <minimizedAffinity>
-5.79029799

$$$$
