
 OpenBabel03272503283D

 31 33  0  0  1  0  0  0  0  0999 V2000
   38.5310   24.2290   34.5550 N   0  0  0  0  0  0  0  0  0  0  0  0
   39.0000   24.7810   35.7850 C   0  0  0  0  0  0  0  0  0  0  0  0
   39.0910   23.5590   36.6910 C   0  0  2  0  0  0  0  0  0  0  0  0
   38.5140   22.3970   35.8700 C   0  0  0  0  0  0  0  0  0  0  0  0
   39.0050   22.8690   34.5000 C   0  0  0  0  0  0  0  0  0  0  0  0
   39.9460   25.3280   35.7090 H   0  0  0  0  0  0  0  0  0  0  0  0
   38.2200   25.4280   36.2530 H   0  0  0  0  0  0  0  0  0  0  0  0
   40.1720   23.3400   36.8520 H   0  0  0  0  0  0  0  0  0  0  0  0
   38.9190   21.4280   36.1660 H   0  0  0  0  0  0  0  0  0  0  0  0
   37.4220   22.4710   35.8900 H   0  0  0  0  0  0  0  0  0  0  0  0
   40.1180   22.8060   34.5710 H   0  0  0  0  0  0  0  0  0  0  0  0
   38.5660   22.3110   33.6760 H   0  0  0  0  0  0  0  0  0  0  0  0
   37.7370   24.8940   33.5560 C   0  0  0  0  0  0  0  0  0  0  0  0
   37.3630   24.1350   32.4540 C   0  0  0  0  0  0  0  0  0  0  0  0
   36.5840   24.7990   31.4790 C   0  0  0  0  0  0  0  0  0  0  0  0
   36.2640   26.1060   31.6890 N   0  0  0  0  0  0  0  0  0  0  0  0
   36.6450   26.8010   32.7690 C   0  0  0  0  0  0  0  0  0  0  0  0
   37.3850   26.1760   33.6970 N   0  0  0  0  0  0  0  0  0  0  0  0
   37.6050   23.1090   32.2710 H   0  0  0  0  0  0  0  0  0  0  0  0
   36.2430   24.2950   30.5830 H   0  0  0  0  0  0  0  0  0  0  0  0
   36.2880   28.2020   32.9690 C   0  0  0  0  0  0  0  0  0  0  0  0
   35.9540   28.6810   34.2190 C   0  0  0  0  0  3  0  0  0  0  0  0
   35.6110   30.0200   34.4200 C   0  0  0  0  0  0  0  0  0  0  0  0
   35.3750   30.2590   35.4270 H   0  0  0  0  0  0  0  0  0  0  0  0
   35.6110   30.8410   33.3770 N   0  0  0  0  0  0  0  0  0  0  0  0
   35.9330   30.3890   32.1550 C   0  0  0  0  0  3  0  0  0  0  0  0
   36.2710   29.0820   31.9420 N   0  0  0  0  0  0  0  0  0  0  0  0
   38.3710   23.7370   37.9900 C   0  0  0  0  0  0  0  0  0  0  0  0
   38.0260   25.0690   38.0720 F   0  0  0  0  0  0  0  0  0  0  0  0
   39.2950   23.4850   38.9970 F   0  0  0  0  0  0  0  0  0  0  0  0
   37.2840   22.9290   38.1430 F   0  0  0  0  0  0  0  0  0  0  0  0
  1  2  1  0  0  0  0
  2  7  1  0  0  0  0
  2  3  1  0  0  0  0
  3  8  1  1  0  0  0
  3 28  1  0  0  0  0
  4 10  1  0  0  0  0
  4  9  1  0  0  0  0
  4  3  1  0  0  0  0
  5  1  1  0  0  0  0
  5 11  1  0  0  0  0
  5  4  1  0  0  0  0
  6  2  1  0  0  0  0
 12  5  1  0  0  0  0
 13 18  1  0  0  0  0
 13  1  1  0  0  0  0
 14 13  2  0  0  0  0
 15 16  2  0  0  0  0
 15 14  1  0  0  0  0
 16 17  1  0  0  0  0
 17 21  1  0  0  0  0
 17 18  2  0  0  0  0
 19 14  1  0  0  0  0
 20 15  1  0  0  0  0
 21 22  1  0  0  0  0
 22 23  2  0  0  0  0
 23 24  1  0  0  0  0
 25 23  1  0  0  0  0
 26 25  2  0  0  0  0
 27 26  1  0  0  0  0
 27 21  2  0  0  0  0
 28 29  1  0  0  0  0
 28 31  1  0  0  0  0
 28 30  1  0  0  0  0
M  END
>  <minimizedAffinity>
-5.43408012

$$$$

 OpenBabel03272503283D

 31 33  0  0  1  0  0  0  0  0999 V2000
   38.0350   25.9160   34.4660 N   0  0  0  0  0  0  0  0  0  0  0  0
   38.6050   26.0060   35.7720 C   0  0  0  0  0  0  0  0  0  0  0  0
   38.8060   24.5450   36.1540 C   0  0  2  0  0  0  0  0  0  0  0  0
   38.1800   23.7330   35.0120 C   0  0  0  0  0  0  0  0  0  0  0  0
   38.5310   24.6970   33.8780 C   0  0  0  0  0  0  0  0  0  0  0  0
   39.5280   26.5940   35.8280 H   0  0  0  0  0  0  0  0  0  0  0  0
   37.8580   26.3950   36.5040 H   0  0  0  0  0  0  0  0  0  0  0  0
   39.9020   24.3420   36.1390 H   0  0  0  0  0  0  0  0  0  0  0  0
   38.6330   22.7460   34.9000 H   0  0  0  0  0  0  0  0  0  0  0  0
   37.0940   23.7350   35.1450 H   0  0  0  0  0  0  0  0  0  0  0  0
   39.6470   24.6730   33.8330 H   0  0  0  0  0  0  0  0  0  0  0  0
   38.0290   24.4540   32.9440 H   0  0  0  0  0  0  0  0  0  0  0  0
   37.1370   26.8540   33.8470 C   0  0  0  0  0  0  0  0  0  0  0  0
   36.8260   26.6290   32.5120 C   0  0  0  0  0  0  0  0  0  0  0  0
   35.9430   27.5580   31.9150 C   0  0  0  0  0  0  0  0  0  0  0  0
   35.4730   28.5830   32.6780 N   0  0  0  0  0  0  0  0  0  0  0  0
   35.7980   28.7630   33.9650 C   0  0  0  0  0  0  0  0  0  0  0  0
   36.6360   27.8850   34.5360 N   0  0  0  0  0  0  0  0  0  0  0  0
   37.1860   25.8310   31.8970 H   0  0  0  0  0  0  0  0  0  0  0  0
   35.6400   27.4690   30.8790 H   0  0  0  0  0  0  0  0  0  0  0  0
   35.2790   29.8710   34.7600 C   0  0  0  0  0  0  0  0  0  0  0  0
   33.9260   30.1290   34.8260 C   0  0  0  0  0  3  0  0  0  0  0  0
   33.4200   31.1880   35.5840 C   0  0  0  0  0  0  0  0  0  0  0  0
   32.3630   31.2770   35.5500 H   0  0  0  0  0  0  0  0  0  0  0  0
   34.2710   31.9560   36.2530 N   0  0  0  0  0  0  0  0  0  0  0  0
   35.5910   31.7170   36.1970 C   0  0  0  0  0  3  0  0  0  0  0  0
   36.1010   30.6860   35.4600 N   0  0  0  0  0  0  0  0  0  0  0  0
   38.2070   24.1990   37.4810 C   0  0  0  0  0  0  0  0  0  0  0  0
   39.0530   23.2860   38.0720 F   0  0  0  0  0  0  0  0  0  0  0  0
   37.0090   23.5440   37.2200 F   0  0  0  0  0  0  0  0  0  0  0  0
   37.9840   25.2730   38.2910 F   0  0  0  0  0  0  0  0  0  0  0  0
  1  2  1  0  0  0  0
  2  6  1  0  0  0  0
  2  3  1  0  0  0  0
  2  7  1  0  0  0  0
  3  8  1  1  0  0  0
  3 28  1  0  0  0  0
  4 10  1  0  0  0  0
  4  3  1  0  0  0  0
  5  1  1  0  0  0  0
  5  4  1  0  0  0  0
  9  4  1  0  0  0  0
 11  5  1  0  0  0  0
 12  5  1  0  0  0  0
 13  1  1  0  0  0  0
 13 18  1  0  0  0  0
 14 13  2  0  0  0  0
 15 14  1  0  0  0  0
 15 16  2  0  0  0  0
 16 17  1  0  0  0  0
 17 18  2  0  0  0  0
 17 21  1  0  0  0  0
 19 14  1  0  0  0  0
 20 15  1  0  0  0  0
 21 22  2  0  0  0  0
 21 27  1  0  0  0  0
 22 23  1  0  0  0  0
 23 25  2  0  0  0  0
 24 23  1  0  0  0  0
 26 25  1  0  0  0  0
 27 26  2  0  0  0  0
 28 29  1  0  0  0  0
 28 31  1  0  0  0  0
 30 28  1  0  0  0  0
M  END
>  <minimizedAffinity>
-5.39663792

$$$$

 OpenBabel03272503283D

 31 33  0  0  1  0  0  0  0  0999 V2000
   38.3280   23.9210   34.0060 N   0  0  0  0  0  0  0  0  0  0  0  0
   38.7170   24.6900   35.1430 C   0  0  0  0  0  0  0  0  0  0  0  0
   39.0210   23.6210   36.1860 C   0  0  2  0  0  0  0  0  0  0  0  0
   38.6320   22.2890   35.5310 C   0  0  0  0  0  0  0  0  0  0  0  0
   39.0180   22.6590   34.0980 C   0  0  0  0  0  0  0  0  0  0  0  0
   39.5590   25.3690   34.9690 H   0  0  0  0  0  0  0  0  0  0  0  0
   37.8480   25.2550   35.5560 H   0  0  0  0  0  0  0  0  0  0  0  0
   40.1260   23.6030   36.3350 H   0  0  0  0  0  0  0  0  0  0  0  0
   39.1960   21.4430   35.9290 H   0  0  0  0  0  0  0  0  0  0  0  0
   37.5430   22.1860   35.5800 H   0  0  0  0  0  0  0  0  0  0  0  0
   40.1280   22.7860   34.1380 H   0  0  0  0  0  0  0  0  0  0  0  0
   38.6660   21.9390   33.3630 H   0  0  0  0  0  0  0  0  0  0  0  0
   37.4210   24.3180   32.9620 C   0  0  0  0  0  0  0  0  0  0  0  0
   36.7830   23.2960   32.2700 C   0  0  0  0  0  0  0  0  0  0  0  0
   35.8950   23.6980   31.2460 C   0  0  0  0  0  0  0  0  0  0  0  0
   35.7340   25.0320   31.0200 N   0  0  0  0  0  0  0  0  0  0  0  0
   36.3690   25.9860   31.7120 C   0  0  0  0  0  0  0  0  0  0  0  0
   37.2130   25.6100   32.6840 N   0  0  0  0  0  0  0  0  0  0  0  0
   36.8970   22.2440   32.4330 H   0  0  0  0  0  0  0  0  0  0  0  0
   35.3500   22.9770   30.6500 H   0  0  0  0  0  0  0  0  0  0  0  0
   36.1780   27.4080   31.4480 C   0  0  0  0  0  0  0  0  0  0  0  0
   36.8380   28.0370   30.4130 C   0  0  0  0  0  3  0  0  0  0  0  0
   36.6620   29.3980   30.1540 C   0  0  0  0  0  0  0  0  0  0  0  0
   37.2270   29.7580   29.3300 H   0  0  0  0  0  0  0  0  0  0  0  0
   35.8360   30.0920   30.9270 N   0  0  0  0  0  0  0  0  0  0  0  0
   35.1870   29.4940   31.9390 C   0  0  0  0  0  3  0  0  0  0  0  0
   35.3490   28.1640   32.2050 N   0  0  0  0  0  0  0  0  0  0  0  0
   38.3000   23.8420   37.4780 C   0  0  0  0  0  0  0  0  0  0  0  0
   37.0620   23.2520   37.3460 F   0  0  0  0  0  0  0  0  0  0  0  0
   38.0970   25.2120   37.5930 F   0  0  0  0  0  0  0  0  0  0  0  0
   38.9630   23.3750   38.5750 F   0  0  0  0  0  0  0  0  0  0  0  0
  1  5  1  0  0  0  0
  1  2  1  0  0  0  0
  2  7  1  0  0  0  0
  2  3  1  0  0  0  0
  3  8  1  1  0  0  0
  3 28  1  0  0  0  0
  4 10  1  0  0  0  0
  4  9  1  0  0  0  0
  4  3  1  0  0  0  0
  5 11  1  0  0  0  0
  5  4  1  0  0  0  0
  6  2  1  0  0  0  0
 12  5  1  0  0  0  0
 13  1  1  0  0  0  0
 14 19  1  0  0  0  0
 14 13  2  0  0  0  0
 15 14  1  0  0  0  0
 16 15  2  0  0  0  0
 16 17  1  0  0  0  0
 17 18  2  0  0  0  0
 18 13  1  0  0  0  0
 20 15  1  0  0  0  0
 21 17  1  0  0  0  0
 21 27  1  0  0  0  0
 22 21  2  0  0  0  0
 23 22  1  0  0  0  0
 23 25  2  0  0  0  0
 24 23  1  0  0  0  0
 25 26  1  0  0  0  0
 26 27  2  0  0  0  0
 28 30  1  0  0  0  0
 28 31  1  0  0  0  0
 29 28  1  0  0  0  0
M  END
>  <minimizedAffinity>
-5.35696745

$$$$

 OpenBabel03272503283D

 31 33  0  0  1  0  0  0  0  0999 V2000
   34.7990   30.3680   33.1040 N   0  0  0  0  0  0  0  0  0  0  0  0
   34.7900   30.1720   34.5180 C   0  0  0  0  0  0  0  0  0  0  0  0
   34.6120   31.5880   35.0540 C   0  0  2  0  0  0  0  0  0  0  0  0
   34.6660   32.5010   33.8220 C   0  0  0  0  0  0  0  0  0  0  0  0
   33.9990   31.5370   32.8390 C   0  0  0  0  0  0  0  0  0  0  0  0
   34.0220   29.4790   34.8780 H   0  0  0  0  0  0  0  0  0  0  0  0
   35.7960   29.8520   34.8800 H   0  0  0  0  0  0  0  0  0  0  0  0
   33.5820   31.6610   35.4710 H   0  0  0  0  0  0  0  0  0  0  0  0
   34.1130   33.4320   33.9620 H   0  0  0  0  0  0  0  0  0  0  0  0
   35.7140   32.6230   33.5290 H   0  0  0  0  0  0  0  0  0  0  0  0
   32.9550   31.4320   33.2250 H   0  0  0  0  0  0  0  0  0  0  0  0
   34.0740   31.8650   31.8050 H   0  0  0  0  0  0  0  0  0  0  0  0
   35.4730   29.5600   32.1230 C   0  0  0  0  0  0  0  0  0  0  0  0
   36.0080   30.2280   31.0290 C   0  0  0  0  0  0  0  0  0  0  0  0
   36.6690   29.4240   30.0720 C   0  0  0  0  0  0  0  0  0  0  0  0
   36.7290   28.0810   30.2900 N   0  0  0  0  0  0  0  0  0  0  0  0
   36.2000   27.4760   31.3610 C   0  0  0  0  0  0  0  0  0  0  0  0
   35.5720   28.2340   32.2720 N   0  0  0  0  0  0  0  0  0  0  0  0
   35.9700   31.2810   30.8400 H   0  0  0  0  0  0  0  0  0  0  0  0
   37.1180   29.8500   29.1840 H   0  0  0  0  0  0  0  0  0  0  0  0
   36.2790   26.0340   31.5700 C   0  0  0  0  0  0  0  0  0  0  0  0
   37.2450   25.4840   32.3860 C   0  0  0  0  0  3  0  0  0  0  0  0
   37.3290   24.1050   32.5920 C   0  0  0  0  0  0  0  0  0  0  0  0
   38.1160   23.8120   33.2410 H   0  0  0  0  0  0  0  0  0  0  0  0
   36.4530   23.3160   31.9830 N   0  0  0  0  0  0  0  0  0  0  0  0
   35.5070   23.8370   31.1850 C   0  0  0  0  0  3  0  0  0  0  0  0
   35.4130   25.1830   30.9740 N   0  0  0  0  0  0  0  0  0  0  0  0
   35.6420   31.9620   36.0730 C   0  0  0  0  0  0  0  0  0  0  0  0
   36.5930   30.9650   36.0600 F   0  0  0  0  0  0  0  0  0  0  0  0
   35.0120   31.9180   37.3120 F   0  0  0  0  0  0  0  0  0  0  0  0
   36.2010   33.1900   35.8790 F   0  0  0  0  0  0  0  0  0  0  0  0
  1  2  1  0  0  0  0
  2  6  1  0  0  0  0
  2  7  1  0  0  0  0
  2  3  1  0  0  0  0
  3  8  1  1  0  0  0
  3 28  1  0  0  0  0
  4  9  1  0  0  0  0
  4  3  1  0  0  0  0
  5  1  1  0  0  0  0
  5 11  1  0  0  0  0
  5  4  1  0  0  0  0
 10  4  1  0  0  0  0
 12  5  1  0  0  0  0
 13 18  1  0  0  0  0
 13  1  1  0  0  0  0
 14 13  2  0  0  0  0
 15 16  2  0  0  0  0
 15 14  1  0  0  0  0
 16 17  1  0  0  0  0
 17 21  1  0  0  0  0
 17 18  2  0  0  0  0
 19 14  1  0  0  0  0
 20 15  1  0  0  0  0
 21 22  1  0  0  0  0
 22 23  2  0  0  0  0
 23 24  1  0  0  0  0
 25 23  1  0  0  0  0
 26 25  2  0  0  0  0
 27 26  1  0  0  0  0
 27 21  2  0  0  0  0
 28 30  1  0  0  0  0
 29 28  1  0  0  0  0
 31 28  1  0  0  0  0
M  END
>  <minimizedAffinity>
-5.22781467

$$$$

 OpenBabel03272503283D

 31 33  0  0  1  0  0  0  0  0999 V2000
   38.3630   24.8720   34.8360 N   0  0  0  0  0  0  0  0  0  0  0  0
   39.1620   24.8460   36.0180 C   0  0  0  0  0  0  0  0  0  0  0  0
   38.8010   23.5020   36.6400 C   0  0  2  0  0  0  0  0  0  0  0  0
   37.6810   22.9320   35.7590 C   0  0  0  0  0  0  0  0  0  0  0  0
   38.1740   23.5030   34.4280 C   0  0  0  0  0  0  0  0  0  0  0  0
   40.2370   24.9620   35.8450 H   0  0  0  0  0  0  0  0  0  0  0  0
   38.8080   25.6070   36.7530 H   0  0  0  0  0  0  0  0  0  0  0  0
   39.6830   22.8310   36.5230 H   0  0  0  0  0  0  0  0  0  0  0  0
   37.6440   21.8410   35.7770 H   0  0  0  0  0  0  0  0  0  0  0  0
   36.7450   23.4330   36.0250 H   0  0  0  0  0  0  0  0  0  0  0  0
   39.1430   22.9780   34.2480 H   0  0  0  0  0  0  0  0  0  0  0  0
   37.4430   23.4050   33.6280 H   0  0  0  0  0  0  0  0  0  0  0  0
   37.8400   26.0360   34.1700 C   0  0  0  0  0  0  0  0  0  0  0  0
   36.9970   26.8520   34.9140 C   0  0  0  0  0  0  0  0  0  0  0  0
   36.4900   27.9920   34.2500 C   0  0  0  0  0  0  0  0  0  0  0  0
   36.8600   28.2010   32.9560 N   0  0  0  0  0  0  0  0  0  0  0  0
   37.6770   27.3890   32.2740 C   0  0  0  0  0  0  0  0  0  0  0  0
   38.1600   26.3050   32.9000 N   0  0  0  0  0  0  0  0  0  0  0  0
   36.6950   26.7030   35.9310 H   0  0  0  0  0  0  0  0  0  0  0  0
   35.8250   28.6890   34.7430 H   0  0  0  0  0  0  0  0  0  0  0  0
   38.0570   27.6370   30.8870 C   0  0  0  0  0  0  0  0  0  0  0  0
   37.3940   28.5740   30.1230 C   0  0  0  0  0  3  0  0  0  0  0  0
   37.7500   28.8180   28.7950 C   0  0  0  0  0  0  0  0  0  0  0  0
   37.1610   29.5630   28.3200 H   0  0  0  0  0  0  0  0  0  0  0  0
   38.7520   28.1270   28.2670 N   0  0  0  0  0  0  0  0  0  0  0  0
   39.4060   27.2100   28.9980 C   0  0  0  0  0  3  0  0  0  0  0  0
   39.0690   26.9610   30.2980 N   0  0  0  0  0  0  0  0  0  0  0  0
   38.3850   23.6130   38.0730 C   0  0  0  0  0  0  0  0  0  0  0  0
   38.0330   24.9280   38.2830 F   0  0  0  0  0  0  0  0  0  0  0  0
   39.5180   23.3600   38.8380 F   0  0  0  0  0  0  0  0  0  0  0  0
   37.3810   22.7620   38.4310 F   0  0  0  0  0  0  0  0  0  0  0  0
  1  2  1  0  0  0  0
  2  3  1  0  0  0  0
  2  7  1  0  0  0  0
  3  8  1  6  0  0  0
  3 28  1  0  0  0  0
  4  9  1  0  0  0  0
  4 10  1  0  0  0  0
  4  3  1  0  0  0  0
  5  1  1  0  0  0  0
  5  4  1  0  0  0  0
  6  2  1  0  0  0  0
 11  5  1  0  0  0  0
 12  5  1  0  0  0  0
 13  1  1  0  0  0  0
 13 14  1  0  0  0  0
 14 19  1  0  0  0  0
 15 20  1  0  0  0  0
 15 14  2  0  0  0  0
 16 15  1  0  0  0  0
 17 18  1  0  0  0  0
 17 16  2  0  0  0  0
 18 13  2  0  0  0  0
 21 17  1  0  0  0  0
 22 21  2  0  0  0  0
 23 22  1  0  0  0  0
 24 23  1  0  0  0  0
 25 23  2  0  0  0  0
 25 26  1  0  0  0  0
 26 27  2  0  0  0  0
 27 21  1  0  0  0  0
 28 29  1  0  0  0  0
 28 31  1  0  0  0  0
 28 30  1  0  0  0  0
M  END
>  <minimizedAffinity>
-5.19712353

$$$$

 OpenBabel03272503283D

 31 33  0  0  1  0  0  0  0  0999 V2000
   36.0680   28.8370   33.2040 N   0  0  0  0  0  0  0  0  0  0  0  0
   35.4620   29.3130   34.4050 C   0  0  0  0  0  0  0  0  0  0  0  0
   35.2290   30.7880   34.1050 C   0  0  2  0  0  0  0  0  0  0  0  0
   35.8770   31.0340   32.7350 C   0  0  0  0  0  0  0  0  0  0  0  0
   35.5730   29.6620   32.1310 C   0  0  0  0  0  0  0  0  0  0  0  0
   34.5460   28.7860   34.6940 H   0  0  0  0  0  0  0  0  0  0  0  0
   36.1920   29.3030   35.2490 H   0  0  0  0  0  0  0  0  0  0  0  0
   34.1310   30.9360   33.9790 H   0  0  0  0  0  0  0  0  0  0  0  0
   35.4140   31.8610   32.1920 H   0  0  0  0  0  0  0  0  0  0  0  0
   36.9590   31.1180   32.8770 H   0  0  0  0  0  0  0  0  0  0  0  0
   34.4580   29.6360   32.0580 H   0  0  0  0  0  0  0  0  0  0  0  0
   36.0980   29.4840   31.1950 H   0  0  0  0  0  0  0  0  0  0  0  0
   36.9960   27.7450   33.0770 C   0  0  0  0  0  0  0  0  0  0  0  0
   37.7610   27.7110   31.9180 C   0  0  0  0  0  0  0  0  0  0  0  0
   38.6690   26.6340   31.8040 C   0  0  0  0  0  0  0  0  0  0  0  0
   38.7260   25.7290   32.8200 N   0  0  0  0  0  0  0  0  0  0  0  0
   37.9700   25.8000   33.9230 C   0  0  0  0  0  0  0  0  0  0  0  0
   37.1060   26.8190   34.0360 N   0  0  0  0  0  0  0  0  0  0  0  0
   37.7300   28.4120   31.1090 H   0  0  0  0  0  0  0  0  0  0  0  0
   39.3090   26.5180   30.9380 H   0  0  0  0  0  0  0  0  0  0  0  0
   38.0510   24.8150   34.9980 C   0  0  0  0  0  0  0  0  0  0  0  0
   38.0260   25.2000   36.3220 C   0  0  0  0  0  3  0  0  0  0  0  0
   38.1040   24.2660   37.3560 C   0  0  0  0  0  0  0  0  0  0  0  0
   38.0750   24.6930   38.3280 H   0  0  0  0  0  0  0  0  0  0  0  0
   38.2030   22.9790   37.0460 N   0  0  0  0  0  0  0  0  0  0  0  0
   38.2290   22.5890   35.7620 C   0  0  0  0  0  3  0  0  0  0  0  0
   38.1540   23.4910   34.7390 N   0  0  0  0  0  0  0  0  0  0  0  0
   35.7840   31.6960   35.1580 C   0  0  0  0  0  0  0  0  0  0  0  0
   36.4620   30.8960   36.0520 F   0  0  0  0  0  0  0  0  0  0  0  0
   34.6970   32.2400   35.8300 F   0  0  0  0  0  0  0  0  0  0  0  0
   36.5800   32.6920   34.6750 F   0  0  0  0  0  0  0  0  0  0  0  0
  1  2  1  0  0  0  0
  2  6  1  0  0  0  0
  2  7  1  0  0  0  0
  3  8  1  6  0  0  0
  3  2  1  0  0  0  0
  3 28  1  0  0  0  0
  4 10  1  0  0  0  0
  4  3  1  0  0  0  0
  5  4  1  0  0  0  0
  5  1  1  0  0  0  0
  9  4  1  0  0  0  0
 11  5  1  0  0  0  0
 12  5  1  0  0  0  0
 13  1  1  0  0  0  0
 13 18  1  0  0  0  0
 14 13  2  0  0  0  0
 15 14  1  0  0  0  0
 15 16  2  0  0  0  0
 16 17  1  0  0  0  0
 17 18  2  0  0  0  0
 17 21  1  0  0  0  0
 19 14  1  0  0  0  0
 20 15  1  0  0  0  0
 21 22  1  0  0  0  0
 22 23  2  0  0  0  0
 23 24  1  0  0  0  0
 25 23  1  0  0  0  0
 26 25  2  0  0  0  0
 27 21  2  0  0  0  0
 27 26  1  0  0  0  0
 28 30  1  0  0  0  0
 28 29  1  0  0  0  0
 31 28  1  0  0  0  0
M  END
>  <minimizedAffinity>
-5.18746138

$$$$

 OpenBabel03272503283D

 31 33  0  0  1  0  0  0  0  0999 V2000
   37.5220   22.8120   32.7010 N   0  0  0  0  0  0  0  0  0  0  0  0
   37.4900   21.4670   33.1760 C   0  0  0  0  0  0  0  0  0  0  0  0
   36.4610   20.8100   32.2640 C   0  0  2  0  0  0  0  0  0  0  0  0
   35.8960   21.9470   31.4010 C   0  0  0  0  0  0  0  0  0  0  0  0
   37.1820   22.7690   31.3020 C   0  0  0  0  0  0  0  0  0  0  0  0
   38.4590   20.9560   33.1650 H   0  0  0  0  0  0  0  0  0  0  0  0
   37.0430   21.4170   34.1980 H   0  0  0  0  0  0  0  0  0  0  0  0
   37.0090   20.1220   31.5810 H   0  0  0  0  0  0  0  0  0  0  0  0
   35.5260   21.5990   30.4350 H   0  0  0  0  0  0  0  0  0  0  0  0
   35.1720   22.5070   32.0020 H   0  0  0  0  0  0  0  0  0  0  0  0
   37.8780   22.1190   30.7170 H   0  0  0  0  0  0  0  0  0  0  0  0
   37.0200   23.7610   30.8840 H   0  0  0  0  0  0  0  0  0  0  0  0
   37.8320   23.9920   33.4640 C   0  0  0  0  0  0  0  0  0  0  0  0
   38.7190   23.8340   34.5220 C   0  0  0  0  0  0  0  0  0  0  0  0
   39.0150   25.0000   35.2640 C   0  0  0  0  0  0  0  0  0  0  0  0
   38.4210   26.1680   34.8940 N   0  0  0  0  0  0  0  0  0  0  0  0
   37.5700   26.2770   33.8660 C   0  0  0  0  0  0  0  0  0  0  0  0
   37.2850   25.1740   33.1580 N   0  0  0  0  0  0  0  0  0  0  0  0
   39.1950   22.9250   34.8270 H   0  0  0  0  0  0  0  0  0  0  0  0
   39.6950   24.9800   36.1070 H   0  0  0  0  0  0  0  0  0  0  0  0
   36.9470   27.5420   33.4910 C   0  0  0  0  0  0  0  0  0  0  0  0
   37.0480   28.0350   32.2070 C   0  0  0  0  0  3  0  0  0  0  0  0
   36.4560   29.2450   31.8390 C   0  0  0  0  0  0  0  0  0  0  0  0
   36.6090   29.5100   30.8230 H   0  0  0  0  0  0  0  0  0  0  0  0
   35.7800   29.9270   32.7550 N   0  0  0  0  0  0  0  0  0  0  0  0
   35.6730   29.4610   34.0100 C   0  0  0  0  0  3  0  0  0  0  0  0
   36.2480   28.2790   34.3840 N   0  0  0  0  0  0  0  0  0  0  0  0
   35.3860   20.0910   33.0170 C   0  0  0  0  0  0  0  0  0  0  0  0
   34.2090   20.3130   32.3350 F   0  0  0  0  0  0  0  0  0  0  0  0
   35.2740   20.7190   34.2520 F   0  0  0  0  0  0  0  0  0  0  0  0
   35.6210   18.7590   33.1900 F   0  0  0  0  0  0  0  0  0  0  0  0
  1  2  1  0  0  0  0
  1 13  1  0  0  0  0
  2  7  1  0  0  0  0
  3  8  1  6  0  0  0
  3 28  1  0  0  0  0
  3  2  1  0  0  0  0
  4 10  1  0  0  0  0
  4  3  1  0  0  0  0
  5  4  1  0  0  0  0
  5  1  1  0  0  0  0
  6  2  1  0  0  0  0
  9  4  1  0  0  0  0
 11  5  1  0  0  0  0
 12  5  1  0  0  0  0
 13 14  1  0  0  0  0
 14 19  1  0  0  0  0
 14 15  2  0  0  0  0
 15 20  1  0  0  0  0
 16 15  1  0  0  0  0
 17 16  2  0  0  0  0
 18 13  2  0  0  0  0
 18 17  1  0  0  0  0
 21 17  1  0  0  0  0
 21 27  1  0  0  0  0
 22 21  2  0  0  0  0
 23 22  1  0  0  0  0
 23 25  2  0  0  0  0
 24 23  1  0  0  0  0
 25 26  1  0  0  0  0
 26 27  2  0  0  0  0
 28 31  1  0  0  0  0
 28 30  1  0  0  0  0
 29 28  1  0  0  0  0
M  END
>  <minimizedAffinity>
-5.18653965

$$$$

 OpenBabel03272503283D

 31 33  0  0  1  0  0  0  0  0999 V2000
   38.5450   24.1380   34.8000 N   0  0  0  0  0  0  0  0  0  0  0  0
   38.1070   24.8780   35.9390 C   0  0  0  0  0  0  0  0  0  0  0  0
   38.9890   24.3320   37.0560 C   0  0  2  0  0  0  0  0  0  0  0  0
   39.7930   23.1890   36.4210 C   0  0  0  0  0  0  0  0  0  0  0  0
   39.9280   23.8030   35.0260 C   0  0  0  0  0  0  0  0  0  0  0  0
   38.1770   25.9660   35.8320 H   0  0  0  0  0  0  0  0  0  0  0  0
   37.0680   24.5870   36.2250 H   0  0  0  0  0  0  0  0  0  0  0  0
   39.7160   25.1310   37.3300 H   0  0  0  0  0  0  0  0  0  0  0  0
   40.7500   23.0210   36.9170 H   0  0  0  0  0  0  0  0  0  0  0  0
   39.1440   22.3100   36.3500 H   0  0  0  0  0  0  0  0  0  0  0  0
   40.5620   24.7090   35.1860 H   0  0  0  0  0  0  0  0  0  0  0  0
   40.3110   23.1010   34.2880 H   0  0  0  0  0  0  0  0  0  0  0  0
   37.7650   23.7880   33.6430 C   0  0  0  0  0  0  0  0  0  0  0  0
   37.3790   24.8330   32.8130 C   0  0  0  0  0  0  0  0  0  0  0  0
   36.6120   24.4770   31.6800 C   0  0  0  0  0  0  0  0  0  0  0  0
   36.3160   23.1620   31.4910 N   0  0  0  0  0  0  0  0  0  0  0  0
   36.7090   22.1830   32.3160 C   0  0  0  0  0  0  0  0  0  0  0  0
   37.4360   22.5160   33.3930 N   0  0  0  0  0  0  0  0  0  0  0  0
   37.6020   25.8720   32.9460 H   0  0  0  0  0  0  0  0  0  0  0  0
   36.2630   25.2190   30.9730 H   0  0  0  0  0  0  0  0  0  0  0  0
   36.3760   20.7810   32.0890 C   0  0  0  0  0  0  0  0  0  0  0  0
   36.6870   20.1580   30.8980 C   0  0  0  0  0  3  0  0  0  0  0  0
   36.3720   18.8160   30.6720 C   0  0  0  0  0  0  0  0  0  0  0  0
   36.6650   18.4590   29.7150 H   0  0  0  0  0  0  0  0  0  0  0  0
   35.7610   18.1340   31.6320 N   0  0  0  0  0  0  0  0  0  0  0  0
   35.4510   18.7270   32.7960 C   0  0  0  0  0  3  0  0  0  0  0  0
   35.7530   20.0390   33.0330 N   0  0  0  0  0  0  0  0  0  0  0  0
   38.2080   23.8730   38.2470 C   0  0  0  0  0  0  0  0  0  0  0  0
   39.0460   23.0620   38.9810 F   0  0  0  0  0  0  0  0  0  0  0  0
   37.1770   23.0750   37.7650 F   0  0  0  0  0  0  0  0  0  0  0  0
   37.6980   24.8840   39.0060 F   0  0  0  0  0  0  0  0  0  0  0  0
  1  5  1  0  0  0  0
  1  2  1  0  0  0  0
  2  7  1  0  0  0  0
  2  3  1  0  0  0  0
  3  8  1  1  0  0  0
  3 28  1  0  0  0  0
  4  9  1  0  0  0  0
  4  3  1  0  0  0  0
  5 11  1  0  0  0  0
  5  4  1  0  0  0  0
  6  2  1  0  0  0  0
 10  4  1  0  0  0  0
 12  5  1  0  0  0  0
 13  1  1  0  0  0  0
 14 19  1  0  0  0  0
 14 13  2  0  0  0  0
 15 14  1  0  0  0  0
 16 15  2  0  0  0  0
 16 17  1  0  0  0  0
 17 18  2  0  0  0  0
 18 13  1  0  0  0  0
 20 15  1  0  0  0  0
 21 17  1  0  0  0  0
 21 27  1  0  0  0  0
 22 21  2  0  0  0  0
 23 22  1  0  0  0  0
 23 25  2  0  0  0  0
 24 23  1  0  0  0  0
 25 26  1  0  0  0  0
 26 27  2  0  0  0  0
 28 29  1  0  0  0  0
 28 31  1  0  0  0  0
 30 28  1  0  0  0  0
M  END
>  <minimizedAffinity>
-5.17391539

$$$$

 OpenBabel03272503283D

 31 33  0  0  1  0  0  0  0  0999 V2000
   37.4330   25.3920   31.8480 N   0  0  0  0  0  0  0  0  0  0  0  0
   36.2450   26.1560   31.6460 C   0  0  0  0  0  0  0  0  0  0  0  0
   36.7800   27.5720   31.4740 C   0  0  2  0  0  0  0  0  0  0  0  0
   38.2890   27.4740   31.7350 C   0  0  0  0  0  0  0  0  0  0  0  0
   38.4930   26.0750   31.1520 C   0  0  0  0  0  0  0  0  0  0  0  0
   35.6280   25.8270   30.8020 H   0  0  0  0  0  0  0  0  0  0  0  0
   35.6320   26.1910   32.5780 H   0  0  0  0  0  0  0  0  0  0  0  0
   36.6500   27.8520   30.4030 H   0  0  0  0  0  0  0  0  0  0  0  0
   38.8580   28.2480   31.2170 H   0  0  0  0  0  0  0  0  0  0  0  0
   38.4490   27.4250   32.8170 H   0  0  0  0  0  0  0  0  0  0  0  0
   38.2740   26.1980   30.0630 H   0  0  0  0  0  0  0  0  0  0  0  0
   39.4730   25.6590   31.3780 H   0  0  0  0  0  0  0  0  0  0  0  0
   37.5590   24.1720   32.6020 C   0  0  0  0  0  0  0  0  0  0  0  0
   37.2820   22.9910   31.9240 C   0  0  0  0  0  0  0  0  0  0  0  0
   37.4090   21.8000   32.6750 C   0  0  0  0  0  0  0  0  0  0  0  0
   37.7870   21.8970   33.9800 N   0  0  0  0  0  0  0  0  0  0  0  0
   38.0460   23.0580   34.5950 C   0  0  0  0  0  0  0  0  0  0  0  0
   37.9260   24.1920   33.8880 N   0  0  0  0  0  0  0  0  0  0  0  0
   36.9840   22.8950   30.9010 H   0  0  0  0  0  0  0  0  0  0  0  0
   37.2150   20.8290   32.2370 H   0  0  0  0  0  0  0  0  0  0  0  0
   38.4490   23.1340   35.9950 C   0  0  0  0  0  0  0  0  0  0  0  0
   37.6410   23.7320   36.9390 C   0  0  0  0  0  3  0  0  0  0  0  0
   38.0190   23.8090   38.2810 C   0  0  0  0  0  0  0  0  0  0  0  0
   37.3080   24.2940   38.9030 H   0  0  0  0  0  0  0  0  0  0  0  0
   39.1840   23.2900   38.6460 N   0  0  0  0  0  0  0  0  0  0  0  0
   39.9820   22.7050   37.7390 C   0  0  0  0  0  3  0  0  0  0  0  0
   39.6260   22.6220   36.4220 N   0  0  0  0  0  0  0  0  0  0  0  0
   36.1180   28.5630   32.3810 C   0  0  0  0  0  0  0  0  0  0  0  0
   36.5670   29.8090   32.0000 F   0  0  0  0  0  0  0  0  0  0  0  0
   36.6050   28.3190   33.6600 F   0  0  0  0  0  0  0  0  0  0  0  0
   34.7560   28.4990   32.3800 F   0  0  0  0  0  0  0  0  0  0  0  0
  1 13  1  0  0  0  0
  2  1  1  0  0  0  0
  2  7  1  0  0  0  0
  3  8  1  6  0  0  0
  3  2  1  0  0  0  0
  3  4  1  0  0  0  0
  3 28  1  0  0  0  0
  4 10  1  0  0  0  0
  5 12  1  0  0  0  0
  5  4  1  0  0  0  0
  5  1  1  0  0  0  0
  6  2  1  0  0  0  0
  9  4  1  0  0  0  0
 11  5  1  0  0  0  0
 13 18  1  0  0  0  0
 14 13  2  0  0  0  0
 14 15  1  0  0  0  0
 15 16  2  0  0  0  0
 16 17  1  0  0  0  0
 17 21  1  0  0  0  0
 18 17  2  0  0  0  0
 19 14  1  0  0  0  0
 20 15  1  0  0  0  0
 21 27  2  0  0  0  0
 21 22  1  0  0  0  0
 22 23  2  0  0  0  0
 23 25  1  0  0  0  0
 23 24  1  0  0  0  0
 26 25  2  0  0  0  0
 27 26  1  0  0  0  0
 28 30  1  0  0  0  0
 29 28  1  0  0  0  0
 31 28  1  0  0  0  0
M  END
>  <minimizedAffinity>
-5.09130049

$$$$
