REMARK  Name = 
REMARK  3 active torsions:
REMARK  status: ('A' for Active; 'I' for Inactive)
REMARK    1  A    between atoms: C_1  and  C_7
REMARK    2  A    between atoms: C_1  and  C_9
REMARK    3  A    between atoms: C_12  and  C_19
REMARK                            x       y       z     vdW  Elec       q    Type
REMARK                         _______ _______ _______ _____ _____    ______ ____
ROOT
ATOM      1  C   UNL     1      36.519  30.890  49.428  0.00  0.00    +0.000 A 
ATOM      2  C   UNL     1      37.314  30.213  50.325  0.00  0.00    +0.000 A 
ATOM      3  C   UNL     1      38.444  31.022  50.429  0.00  0.00    +0.000 A 
ATOM      4  C   UNL     1      38.280  32.114  49.615  0.00  0.00    +0.000 A 
ATOM      5  O   UNL     1      37.111  32.016  49.020  0.00  0.00    +0.000 OA
ATOM      6  H   UNL     1      37.133  29.285  50.835  0.00  0.00    +0.000 HD
ATOM      7  H   UNL     1      39.322  30.828  51.053  0.00  0.00    +0.000 HD
ENDROOT
BRANCH   4   8
ATOM      8  C   UNL     1      39.206  33.222  49.407  0.00  0.00    +0.000 A 
ATOM      9  C   UNL     1      39.450  33.667  48.123  0.00  0.00    +0.000 A 
ATOM     10  C   UNL     1      40.344  34.730  47.974  0.00  0.00    +0.000 A 
ATOM     11  H   UNL     1      40.507  35.049  46.941  0.00  0.00    +0.000 HD
ATOM     12  N   UNL     1      40.933  35.283  49.051  0.00  0.00    +0.000 NA
ATOM     13  C   UNL     1      40.680  34.831  50.297  0.00  0.00    +0.000 A 
ATOM     14  N   UNL     1      39.814  33.797  50.482  0.00  0.00    +0.000 NA
ENDBRANCH   4   8
BRANCH   1  15
ATOM     15  C   UNL     1      35.192  30.438  48.978  0.00  0.00    +0.000 C 
ATOM     16  O   UNL     1      34.328  30.194  49.864  0.00  0.00    +0.000 OA
BRANCH  15  21
ATOM     17  C   UNL     1      33.324  30.085  45.888  0.00  0.00    +0.000 A 
ATOM     18  C   UNL     1      34.311  30.004  44.913  0.00  0.00    +0.000 A 
ATOM     19  C   UNL     1      35.644  30.070  45.309  0.00  0.00    +0.000 A 
ATOM     20  N   UNL     1      35.891  30.211  46.634  0.00  0.00    +0.000 NA
ATOM     21  C   UNL     1      34.915  30.287  47.558  0.00  0.00    +0.000 A 
ATOM     22  N   UNL     1      33.637  30.223  47.174  0.00  0.00    +0.000 NA
ATOM     23  H   UNL     1      32.274  30.037  45.622  0.00  0.00    +0.000 HD
ATOM     24  H   UNL     1      34.002  29.891  43.871  0.00  0.00    +0.000 HD
ATOM     25  H   UNL     1      36.423  30.009  44.557  0.00  0.00    +0.000 HD
ENDBRANCH  15  21
ENDBRANCH   1  15
TORSDOF 3
