
 OpenBabel03272510273D

 43 47  0  0  1  0  0  0  0  0999 V2000
   36.1400   30.2180   46.8470 C   0  0  0  0  0  0  0  0  0  0  0  0
   37.0440   30.7670   47.7570 C   0  0  0  0  0  0  0  0  0  0  0  0
   38.0490   31.6320   47.3390 C   0  0  0  0  0  0  0  0  0  0  0  0
   38.0970   31.9130   45.9780 C   0  0  0  0  0  0  0  0  0  0  0  0
   38.9860   32.7220   45.3310 N   0  0  0  0  0  0  0  0  0  0  0  0
   38.6550   32.6900   44.0320 C   0  0  0  0  0  0  0  0  0  0  0  0
   37.6150   31.9060   43.8520 N   0  0  0  0  0  0  0  0  0  0  0  0
   37.2280   31.3960   45.0470 C   0  0  0  0  0  0  0  0  0  0  0  0
   36.2260   30.5270   45.4940 C   0  0  0  0  0  0  0  0  0  0  0  0
   35.3530   29.5460   47.1410 H   0  0  0  0  0  0  0  0  0  0  0  0
   38.7410   32.0500   48.0530 H   0  0  0  0  0  0  0  0  0  0  0  0
   39.7740   33.2580   45.7910 H   0  0  0  0  0  0  0  0  0  0  0  0
   35.5540   30.1320   44.7420 H   0  0  0  0  0  0  0  0  0  0  0  0
   37.5650   30.2220   51.4330 C   0  0  0  0  0  0  0  0  0  0  0  0
   37.8130   30.6420   50.1390 C   0  0  0  0  0  0  0  0  0  0  0  0
   36.8800   30.3770   49.1430 C   0  0  0  0  0  0  0  0  0  0  0  0
   35.7440   29.7020   49.4950 N   0  0  0  0  0  0  0  0  0  0  0  0
   35.5160   29.2960   50.7700 C   0  0  0  0  0  0  0  0  0  0  0  0
   36.4040   29.5500   51.7070 N   0  0  0  0  0  0  0  0  0  0  0  0
   38.2710   30.4190   52.2030 H   0  0  0  0  0  0  0  0  0  0  0  0
   38.7130   31.1780   49.8640 H   0  0  0  0  0  0  0  0  0  0  0  0
   34.5780   28.7570   50.9740 H   0  0  0  0  0  0  0  0  0  0  0  0
   39.3710   33.4190   43.0680 O   0  0  0  0  0  0  0  0  0  0  0  0
   38.9710   31.5610   41.8040 N   0  0  0  0  0  0  0  0  0  0  0  0
   39.1720   33.0190   41.7190 C   0  0  1  0  0  0  0  0  0  0  0  0
   37.9860   33.6260   41.1300 C   0  0  0  0  0  0  0  0  0  0  0  0
   37.8600   33.1730   39.8040 O   0  0  0  0  0  0  0  0  0  0  0  0
   37.8320   31.8140   39.6560 C   0  0  0  0  0  0  0  0  0  0  0  0
   38.8970   31.1030   40.4320 C   0  0  1  0  0  0  0  0  0  0  0  0
   39.8530   31.1900   42.2260 H   0  0  0  0  0  0  0  0  0  0  0  0
   40.0500   33.2610   41.1080 H   0  0  0  0  0  0  0  0  0  0  0  0
   37.0040   33.5500   41.5130 H   0  0  0  0  0  0  0  0  0  0  0  0
   38.1980   34.7300   41.0010 H   0  0  0  0  0  0  0  0  0  0  0  0
   36.8440   31.4660   40.0530 H   0  0  0  0  0  0  0  0  0  0  0  0
   37.9450   31.5930   38.5840 H   0  0  0  0  0  0  0  0  0  0  0  0
   38.5400   30.0340   40.5140 H   0  0  0  0  0  0  0  0  0  0  0  0
   40.2080   31.0310   39.7840 C   0  0  0  0  0  0  0  0  0  0  0  0
   41.3870   30.4760   40.1860 C   0  0  0  0  0  3  0  0  0  0  0  0
   42.5190   30.5290   39.3980 C   0  0  0  0  0  0  0  0  0  0  0  0
   43.3950   30.0480   39.8300 H   0  0  0  0  0  0  0  0  0  0  0  0
   42.5080   31.1420   38.1810 N   0  0  0  0  0  0  0  0  0  0  0  0
   41.3310   31.6820   37.8110 C   0  0  0  0  0  3  0  0  0  0  0  0
   40.1920   31.6480   38.5640 N   0  0  0  0  0  0  0  0  0  0  0  0
  1 10  1  0  0  0  0
  1  2  1  0  0  0  0
  2 16  1  0  0  0  0
  3  2  2  0  0  0  0
  3 11  1  0  0  0  0
  4  3  1  0  0  0  0
  5 12  1  0  0  0  0
  5  4  1  0  0  0  0
  6  5  1  0  0  0  0
  7  6  2  0  0  0  0
  7  8  1  0  0  0  0
  8  9  1  0  0  0  0
  8  4  2  0  0  0  0
  9  1  2  0  0  0  0
 13  9  1  0  0  0  0
 14 19  1  0  0  0  0
 14 20  1  0  0  0  0
 15 14  2  0  0  0  0
 16 17  2  0  0  0  0
 16 15  1  0  0  0  0
 17 18  1  0  0  0  0
 18 22  1  0  0  0  0
 18 19  2  0  0  0  0
 21 15  1  0  0  0  0
 23  6  1  0  0  0  0
 24 30  1  0  0  0  0
 25 31  1  6  0  0  0
 25 24  1  0  0  0  0
 25 23  1  0  0  0  0
 26 32  1  0  0  0  0
 26 25  1  0  0  0  0
 27 26  1  0  0  0  0
 28 27  1  0  0  0  0
 28 34  1  0  0  0  0
 28 29  1  0  0  0  0
 29 36  1  1  0  0  0
 29 24  1  0  0  0  0
 33 26  1  0  0  0  0
 35 28  1  0  0  0  0
 37 38  1  0  0  0  0
 37 29  1  0  0  0  0
 39 40  1  0  0  0  0
 39 38  2  0  0  0  0
 41 39  1  0  0  0  0
 42 41  2  0  0  0  0
 42 43  1  0  0  0  0
 43 37  2  0  0  0  0
M  END
>  <minimizedAffinity>
-5.92649555

>  <minimizedRMSD>
0.839059114

$$$$
