
 OpenBabel03272508023D

 26 28  0  0  0  0  0  0  0  0999 V2000
   38.9360   31.0180   45.7430 C   0  0  0  0  0  0  0  0  0  0  0  0
   40.0560   31.7760   45.9520 C   0  0  0  0  0  0  0  0  0  0  0  0
   40.8950   31.6990   44.8460 C   0  0  0  0  0  0  0  0  0  0  0  0
   40.2360   30.8800   43.9920 N   0  0  0  0  0  0  0  0  0  0  0  0
   39.0990   30.4870   44.5180 N   0  0  0  0  0  0  0  0  0  0  0  0
   40.2810   32.3580   46.8330 H   0  0  0  0  0  0  0  0  0  0  0  0
   41.8530   32.1590   44.6520 H   0  0  0  0  0  0  0  0  0  0  0  0
   37.7960   30.8100   46.6340 C   0  0  0  0  0  0  0  0  0  0  0  0
   38.0160   31.0360   48.0270 C   0  0  0  0  0  0  0  0  0  0  0  0
   36.9360   30.8390   48.8860 C   0  0  0  0  0  0  0  0  0  0  0  0
   35.7510   30.4490   48.3560 N   0  0  0  0  0  0  0  0  0  0  0  0
   35.5730   30.2430   47.0300 C   0  0  0  0  0  0  0  0  0  0  0  0
   36.6120   30.4300   46.1930 N   0  0  0  0  0  0  0  0  0  0  0  0
   38.9940   31.3450   48.3540 H   0  0  0  0  0  0  0  0  0  0  0  0
   34.6140   29.9310   46.6340 H   0  0  0  0  0  0  0  0  0  0  0  0
   37.1330   31.0670   50.3450 C   0  0  0  0  0  0  0  0  0  0  0  0
   36.6330   32.3260   50.5910 F   0  0  0  0  0  0  0  0  0  0  0  0
   36.4580   30.1480   51.1250 F   0  0  0  0  0  0  0  0  0  0  0  0
   38.4820   31.0860   50.6920 F   0  0  0  0  0  0  0  0  0  0  0  0
   40.6100   30.4340   42.6940 C   0  0  0  0  0  0  0  0  0  0  0  0
   40.2160   31.1510   41.5580 C   0  0  0  0  0  3  0  0  0  0  0  0
   40.5250   30.8030   40.2580 C   0  0  0  0  0  0  0  0  0  0  0  0
   40.1560   31.4490   39.4720 H   0  0  0  0  0  0  0  0  0  0  0  0
   41.2610   29.6870   40.1120 N   0  0  0  0  0  0  0  0  0  0  0  0
   41.6630   28.9640   41.1790 C   0  0  0  0  0  3  0  0  0  0  0  0
   41.3410   29.3330   42.4510 N   0  0  0  0  0  0  0  0  0  0  0  0
  1  2  1  0  0  0  0
  1  8  1  0  0  0  0
  2  6  1  0  0  0  0
  3  2  2  0  0  0  0
  4  5  1  0  0  0  0
  4  3  1  0  0  0  0
  5  1  2  0  0  0  0
  7  3  1  0  0  0  0
  8  9  1  0  0  0  0
  9 14  1  0  0  0  0
  9 10  2  0  0  0  0
 10 16  1  0  0  0  0
 11 10  1  0  0  0  0
 12 11  2  0  0  0  0
 13  8  2  0  0  0  0
 13 12  1  0  0  0  0
 15 12  1  0  0  0  0
 16 17  1  0  0  0  0
 16 19  1  0  0  0  0
 16 18  1  0  0  0  0
 20  4  1  0  0  0  0
 21 20  2  0  0  0  0
 22 21  1  0  0  0  0
 23 22  1  0  0  0  0
 24 22  2  0  0  0  0
 24 25  1  0  0  0  0
 25 26  2  0  0  0  0
 26 20  1  0  0  0  0
M  END
>  <minimizedAffinity>
-6.13895702

>  <minimizedRMSD>
0.928483903

$$$$
