
 OpenBabel03272509503D

 31 33  0  0  0  0  0  0  0  0999 V2000
   34.6370   28.2240   49.7780 O   0  0  0  0  0  0  0  0  0  0  0  0
   37.2050   30.1320   51.4630 C   0  0  0  0  0  0  0  0  0  0  0  0
   37.7920   30.7900   50.3520 C   0  0  0  0  0  0  0  0  0  0  0  0
   37.2670   30.5330   49.0990 C   0  0  0  0  0  0  0  0  0  0  0  0
   36.2200   29.6690   49.0000 N   0  0  0  0  0  0  0  0  0  0  0  0
   35.6870   29.0610   50.0800 C   0  0  0  0  0  0  0  0  0  0  0  0
   36.1890   29.2990   51.3240 N   0  0  0  0  0  0  0  0  0  0  0  0
   37.6390   30.3540   52.4280 H   0  0  0  0  0  0  0  0  0  0  0  0
   38.6230   31.4730   50.4490 H   0  0  0  0  0  0  0  0  0  0  0  0
   37.7640   31.1330   47.8670 C   0  0  0  0  0  0  0  0  0  0  0  0
   38.8370   31.9810   47.8410 C   0  0  0  0  0  3  0  0  0  0  0  0
   39.2900   32.5370   46.6660 C   0  0  0  0  0  0  0  0  0  0  0  0
   40.1380   33.2100   46.6310 H   0  0  0  0  0  0  0  0  0  0  0  0
   38.6800   32.2530   45.5170 N   0  0  0  0  0  0  0  0  0  0  0  0
   37.6260   31.4210   45.5270 C   0  0  0  0  0  3  0  0  0  0  0  0
   37.1970   30.8890   46.6730 N   0  0  0  0  0  0  0  0  0  0  0  0
   33.7760   28.6160   48.7070 C   0  0  0  0  0  0  0  0  0  0  0  0
   33.2280   29.5210   48.9930 H   0  0  0  0  0  0  0  0  0  0  0  0
   34.4340   28.8880   47.8560 H   0  0  0  0  0  0  0  0  0  0  0  0
   32.8740   27.4640   48.3300 C   0  0  0  0  0  0  0  0  0  0  0  0
   32.9660   26.6170   49.0180 H   0  0  0  0  0  0  0  0  0  0  0  0
   33.1600   27.1070   47.3050 H   0  0  0  0  0  0  0  0  0  0  0  0
   31.4470   27.8780   48.2580 C   0  0  0  0  0  0  0  0  0  0  0  0
   30.6920   27.7180   49.3980 C   0  0  0  0  0  0  0  0  0  0  0  0
   29.3530   28.0670   49.4570 C   0  0  0  0  0  0  0  0  0  0  0  0
   28.7740   28.5730   48.3770 N   0  0  0  0  0  0  0  0  0  0  0  0
   29.5110   28.7340   47.2500 C   0  0  0  0  0  0  0  0  0  0  0  0
   30.8180   28.4000   47.1740 N   0  0  0  0  0  0  0  0  0  0  0  0
   31.1330   27.3060   50.3020 H   0  0  0  0  0  0  0  0  0  0  0  0
   28.7520   27.9490   50.3320 H   0  0  0  0  0  0  0  0  0  0  0  0
   29.1200   29.1440   46.3090 H   0  0  0  0  0  0  0  0  0  0  0  0
  1  6  1  0  0  0  0
  2  8  1  0  0  0  0
  3  9  1  0  0  0  0
  3  2  2  0  0  0  0
  4  3  1  0  0  0  0
  5  4  2  0  0  0  0
  5  6  1  0  0  0  0
  6  7  2  0  0  0  0
  7  2  1  0  0  0  0
 10  4  1  0  0  0  0
 11 10  1  0  0  0  0
 12 11  2  0  0  0  0
 13 12  1  0  0  0  0
 14 15  2  0  0  0  0
 14 12  1  0  0  0  0
 15 16  1  0  0  0  0
 16 10  2  0  0  0  0
 17 18  1  0  0  0  0
 17  1  1  0  0  0  0
 19 17  1  0  0  0  0
 20 17  1  0  0  0  0
 20 21  1  0  0  0  0
 22 20  1  0  0  0  0
 23 20  1  0  0  0  0
 23 24  1  0  0  0  0
 24 25  2  0  0  0  0
 24 29  1  0  0  0  0
 25 30  1  0  0  0  0
 26 25  1  0  0  0  0
 27 26  2  0  0  0  0
 28 27  1  0  0  0  0
 28 23  2  0  0  0  0
 31 27  1  0  0  0  0
M  END
>  <minimizedAffinity>
-5.65255451

>  <minimizedRMSD>
0.573425114

$$$$
