
 OpenBabel03272503433D

 39 42  0  0  1  0  0  0  0  0999 V2000
   37.9910   25.6730   33.3860 C   0  0  0  0  0  0  0  0  0  0  0  0
   39.0290   26.4750   33.0390 C   0  0  0  0  0  0  0  0  0  0  0  0
   38.4430   27.5040   32.2770 C   0  0  0  0  0  0  0  0  0  0  0  0
   37.1290   27.2930   32.1990 N   0  0  0  0  0  0  0  0  0  0  0  0
   36.8410   26.1730   32.8740 N   0  0  0  0  0  0  0  0  0  0  0  0
   40.0640   26.3140   33.3130 H   0  0  0  0  0  0  0  0  0  0  0  0
   39.0620   28.3020   31.8630 H   0  0  0  0  0  0  0  0  0  0  0  0
   35.1720   28.7380   32.4090 C   0  0  2  0  0  0  0  0  0  0  0  0
   36.2380   28.1710   31.4850 C   0  0  1  0  0  0  0  0  0  0  0  0
   36.9000   29.4730   31.0960 C   0  0  0  0  0  0  0  0  0  0  0  0
   35.9250   30.4350   31.0090 O   0  0  0  0  0  0  0  0  0  0  0  0
   34.7710   29.9660   31.5730 C   0  0  0  0  0  0  0  0  0  0  0  0
   34.3270   28.0760   32.5800 H   0  0  0  0  0  0  0  0  0  0  0  0
   35.8430   27.6950   30.5870 H   0  0  0  0  0  0  0  0  0  0  0  0
   37.3460   29.3450   30.0830 H   0  0  0  0  0  0  0  0  0  0  0  0
   37.7450   29.7230   31.7670 H   0  0  0  0  0  0  0  0  0  0  0  0
   34.0870   29.6470   30.7620 H   0  0  0  0  0  0  0  0  0  0  0  0
   34.2350   30.6970   32.1900 H   0  0  0  0  0  0  0  0  0  0  0  0
   35.8190   29.1830   33.5610 O   0  0  0  0  0  0  0  0  0  0  0  0
   35.2550   29.9710   34.5530 C   0  0  0  0  0  0  0  0  0  0  0  0
   35.9480   30.9160   35.3070 C   0  0  0  0  0  3  0  0  0  0  0  0
   35.2650   31.6330   36.2650 C   0  0  0  0  0  0  0  0  0  0  0  0
   35.8540   32.3640   36.8310 H   0  0  0  0  0  0  0  0  0  0  0  0
   33.9450   31.4370   36.4810 N   0  0  0  0  0  0  0  0  0  0  0  0
   33.2660   30.5120   35.7420 C   0  0  0  0  0  3  0  0  0  0  0  0
   33.9340   29.8030   34.7990 N   0  0  0  0  0  0  0  0  0  0  0  0
   38.6760   23.2530   36.1670 C   0  0  0  0  0  0  0  0  0  0  0  0
   38.6020   24.4360   35.4550 C   0  0  0  0  0  0  0  0  0  0  0  0
   38.0950   24.4630   34.1850 C   0  0  0  0  0  0  0  0  0  0  0  0
   37.6710   23.2830   33.6620 N   0  0  0  0  0  0  0  0  0  0  0  0
   37.7520   22.1250   34.3800 C   0  0  0  0  0  0  0  0  0  0  0  0
   38.2440   22.1020   35.6110 N   0  0  0  0  0  0  0  0  0  0  0  0
   38.9320   25.4090   35.8370 H   0  0  0  0  0  0  0  0  0  0  0  0
   37.4010   21.2120   33.9180 H   0  0  0  0  0  0  0  0  0  0  0  0
   39.2220   23.4190   37.4440 O   0  0  0  0  0  0  0  0  0  0  0  0
   38.4630   23.7850   38.5720 C   0  0  0  0  0  0  0  0  0  0  0  0
   39.2580   23.8660   39.7180 F   0  0  0  0  0  0  0  0  0  0  0  0
   37.4500   22.8830   38.7350 F   0  0  0  0  0  0  0  0  0  0  0  0
   37.9050   25.0280   38.3280 F   0  0  0  0  0  0  0  0  0  0  0  0
  1 29  1  0  0  0  0
  2  6  1  0  0  0  0
  2  1  1  0  0  0  0
  3  2  2  0  0  0  0
  4  3  1  0  0  0  0
  4  5  1  0  0  0  0
  5  1  2  0  0  0  0
  7  3  1  0  0  0  0
  8 13  1  1  0  0  0
  8 19  1  0  0  0  0
  9 14  1  6  0  0  0
  9  4  1  0  0  0  0
  9  8  1  0  0  0  0
 10  9  1  0  0  0  0
 10 16  1  0  0  0  0
 11 10  1  0  0  0  0
 11 12  1  0  0  0  0
 12 18  1  0  0  0  0
 12  8  1  0  0  0  0
 15 10  1  0  0  0  0
 17 12  1  0  0  0  0
 19 20  1  0  0  0  0
 20 26  2  0  0  0  0
 20 21  1  0  0  0  0
 21 22  2  0  0  0  0
 22 24  1  0  0  0  0
 22 23  1  0  0  0  0
 25 24  2  0  0  0  0
 26 25  1  0  0  0  0
 27 35  1  0  0  0  0
 28 33  1  0  0  0  0
 28 27  2  0  0  0  0
 29 28  1  0  0  0  0
 30 29  2  0  0  0  0
 30 31  1  0  0  0  0
 31 32  2  0  0  0  0
 32 27  1  0  0  0  0
 34 31  1  0  0  0  0
 35 36  1  0  0  0  0
 36 38  1  0  0  0  0
 36 37  1  0  0  0  0
 39 36  1  0  0  0  0
M  END
>  <minimizedAffinity>
-6.14408207

$$$$

 OpenBabel03272503433D

 39 42  0  0  1  0  0  0  0  0999 V2000
   37.3030   27.1280   32.9150 C   0  0  0  0  0  0  0  0  0  0  0  0
   38.6300   27.1700   33.1950 C   0  0  0  0  0  0  0  0  0  0  0  0
   39.0690   25.8420   33.0280 C   0  0  0  0  0  0  0  0  0  0  0  0
   38.0340   25.0840   32.6700 N   0  0  0  0  0  0  0  0  0  0  0  0
   36.9460   25.8610   32.5980 N   0  0  0  0  0  0  0  0  0  0  0  0
   39.1830   28.0560   33.4790 H   0  0  0  0  0  0  0  0  0  0  0  0
   40.1170   25.5860   33.1940 H   0  0  0  0  0  0  0  0  0  0  0  0
   38.6170   22.9320   33.6670 C   0  0  2  0  0  0  0  0  0  0  0  0
   38.1510   23.6690   32.4210 C   0  0  1  0  0  0  0  0  0  0  0  0
   36.8060   22.9970   32.2650 C   0  0  0  0  0  0  0  0  0  0  0  0
   36.9410   21.6860   32.6460 O   0  0  0  0  0  0  0  0  0  0  0  0
   38.1330   21.5200   33.2950 C   0  0  0  0  0  0  0  0  0  0  0  0
   39.6920   22.9580   33.8280 H   0  0  0  0  0  0  0  0  0  0  0  0
   38.7510   23.4680   31.5330 H   0  0  0  0  0  0  0  0  0  0  0  0
   36.5350   23.0140   31.1840 H   0  0  0  0  0  0  0  0  0  0  0  0
   36.0030   23.5560   32.7840 H   0  0  0  0  0  0  0  0  0  0  0  0
   38.8550   21.0610   32.5910 H   0  0  0  0  0  0  0  0  0  0  0  0
   38.0840   20.8800   34.1830 H   0  0  0  0  0  0  0  0  0  0  0  0
   37.8470   23.3940   34.7330 O   0  0  0  0  0  0  0  0  0  0  0  0
   38.2370   23.4180   36.0630 C   0  0  0  0  0  0  0  0  0  0  0  0
   37.5320   24.0510   37.0860 C   0  0  0  0  0  3  0  0  0  0  0  0
   38.0330   23.9980   38.3680 C   0  0  0  0  0  0  0  0  0  0  0  0
   37.4420   24.5110   39.1380 H   0  0  0  0  0  0  0  0  0  0  0  0
   39.1850   23.3500   38.6470 N   0  0  0  0  0  0  0  0  0  0  0  0
   39.8750   22.7310   37.6450 C   0  0  0  0  0  3  0  0  0  0  0  0
   39.3880   22.7790   36.3810 N   0  0  0  0  0  0  0  0  0  0  0  0
   35.1190   29.9460   34.0790 C   0  0  0  0  0  0  0  0  0  0  0  0
   35.9790   28.8630   34.1080 C   0  0  0  0  0  0  0  0  0  0  0  0
   36.4010   28.2680   32.9500 C   0  0  0  0  0  0  0  0  0  0  0  0
   35.9410   28.7870   31.7830 N   0  0  0  0  0  0  0  0  0  0  0  0
   35.0920   29.8570   31.7740 C   0  0  0  0  0  0  0  0  0  0  0  0
   34.6840   30.4310   32.8970 N   0  0  0  0  0  0  0  0  0  0  0  0
   36.3750   28.4130   35.0250 H   0  0  0  0  0  0  0  0  0  0  0  0
   34.7540   30.2320   30.8170 H   0  0  0  0  0  0  0  0  0  0  0  0
   34.7970   30.4200   35.3540 O   0  0  0  0  0  0  0  0  0  0  0  0
   35.3750   31.5700   35.9240 C   0  0  0  0  0  0  0  0  0  0  0  0
   35.0930   32.7110   35.1690 F   0  0  0  0  0  0  0  0  0  0  0  0
   36.7230   31.3760   36.0420 F   0  0  0  0  0  0  0  0  0  0  0  0
   34.8450   31.7340   37.1920 F   0  0  0  0  0  0  0  0  0  0  0  0
  1 29  1  0  0  0  0
  1  2  1  0  0  0  0
  2  6  1  0  0  0  0
  3  7  1  0  0  0  0
  3  2  2  0  0  0  0
  4  3  1  0  0  0  0
  5  4  1  0  0  0  0
  5  1  2  0  0  0  0
  8 13  1  1  0  0  0
  8 19  1  0  0  0  0
  9 14  1  6  0  0  0
  9  4  1  0  0  0  0
  9  8  1  0  0  0  0
 10  9  1  0  0  0  0
 10 11  1  0  0  0  0
 10 16  1  0  0  0  0
 11 12  1  0  0  0  0
 12  8  1  0  0  0  0
 12 18  1  0  0  0  0
 15 10  1  0  0  0  0
 17 12  1  0  0  0  0
 19 20  1  0  0  0  0
 20 26  2  0  0  0  0
 20 21  1  0  0  0  0
 21 22  2  0  0  0  0
 22 24  1  0  0  0  0
 22 23  1  0  0  0  0
 25 24  2  0  0  0  0
 26 25  1  0  0  0  0
 27 28  1  0  0  0  0
 27 35  1  0  0  0  0
 28 33  1  0  0  0  0
 29 28  2  0  0  0  0
 30 29  1  0  0  0  0
 31 30  2  0  0  0  0
 31 32  1  0  0  0  0
 32 27  2  0  0  0  0
 34 31  1  0  0  0  0
 35 36  1  0  0  0  0
 36 38  1  0  0  0  0
 36 39  1  0  0  0  0
 37 36  1  0  0  0  0
M  END
>  <minimizedAffinity>
-5.94652557

$$$$

 OpenBabel03272503433D

 39 42  0  0  1  0  0  0  0  0999 V2000
   36.3940   28.1070   33.7550 C   0  0  0  0  0  0  0  0  0  0  0  0
   35.8660   28.5100   32.5720 C   0  0  0  0  0  0  0  0  0  0  0  0
   35.3800   29.8080   32.8250 C   0  0  0  0  0  0  0  0  0  0  0  0
   35.6250   30.1230   34.0960 N   0  0  0  0  0  0  0  0  0  0  0  0
   36.2450   29.0880   34.6760 N   0  0  0  0  0  0  0  0  0  0  0  0
   35.8470   27.9240   31.6610 H   0  0  0  0  0  0  0  0  0  0  0  0
   34.8960   30.3780   32.0290 H   0  0  0  0  0  0  0  0  0  0  0  0
   33.7730   31.4070   35.0380 C   0  0  2  0  0  0  0  0  0  0  0  0
   35.2490   31.3890   34.6730 C   0  0  1  0  0  0  0  0  0  0  0  0
   35.8160   31.5820   36.0610 C   0  0  0  0  0  0  0  0  0  0  0  0
   34.9780   32.4230   36.7480 O   0  0  0  0  0  0  0  0  0  0  0  0
   33.8020   32.5560   36.0620 C   0  0  0  0  0  0  0  0  0  0  0  0
   33.1080   31.6270   34.2070 H   0  0  0  0  0  0  0  0  0  0  0  0
   35.5640   32.2230   34.0450 H   0  0  0  0  0  0  0  0  0  0  0  0
   36.8050   32.0880   35.9630 H   0  0  0  0  0  0  0  0  0  0  0  0
   36.0220   30.6150   36.5600 H   0  0  0  0  0  0  0  0  0  0  0  0
   33.8180   33.5240   35.5230 H   0  0  0  0  0  0  0  0  0  0  0  0
   32.9040   32.5400   36.6890 H   0  0  0  0  0  0  0  0  0  0  0  0
   33.5020   30.2210   35.7170 O   0  0  0  0  0  0  0  0  0  0  0  0
   32.4910   29.3240   35.4060 C   0  0  0  0  0  0  0  0  0  0  0  0
   31.9260   29.1710   34.1420 C   0  0  0  0  0  3  0  0  0  0  0  0
   30.9250   28.2400   33.9690 C   0  0  0  0  0  0  0  0  0  0  0  0
   30.5120   28.1580   32.9560 H   0  0  0  0  0  0  0  0  0  0  0  0
   30.4870   27.4800   34.9970 N   0  0  0  0  0  0  0  0  0  0  0  0
   31.0410   27.6300   36.2360 C   0  0  0  0  0  3  0  0  0  0  0  0
   32.0250   28.5440   36.4110 N   0  0  0  0  0  0  0  0  0  0  0  0
   38.1740   25.2250   35.3650 C   0  0  0  0  0  0  0  0  0  0  0  0
   37.5890   26.4670   35.1930 C   0  0  0  0  0  0  0  0  0  0  0  0
   37.0230   26.8190   33.9980 C   0  0  0  0  0  0  0  0  0  0  0  0
   37.0620   25.9000   32.9980 N   0  0  0  0  0  0  0  0  0  0  0  0
   37.6450   24.6790   33.1870 C   0  0  0  0  0  0  0  0  0  0  0  0
   38.1920   24.3410   34.3460 N   0  0  0  0  0  0  0  0  0  0  0  0
   37.5350   27.2370   35.9700 H   0  0  0  0  0  0  0  0  0  0  0  0
   37.6490   23.9830   32.3590 H   0  0  0  0  0  0  0  0  0  0  0  0
   38.7000   25.0440   36.6480 O   0  0  0  0  0  0  0  0  0  0  0  0
   38.1280   24.1870   37.6070 C   0  0  0  0  0  0  0  0  0  0  0  0
   37.8740   24.8600   38.8050 F   0  0  0  0  0  0  0  0  0  0  0  0
   38.9630   23.1240   37.8050 F   0  0  0  0  0  0  0  0  0  0  0  0
   36.9300   23.7140   37.1010 F   0  0  0  0  0  0  0  0  0  0  0  0
  1 29  1  0  0  0  0
  1  5  2  0  0  0  0
  2  3  2  0  0  0  0
  2  1  1  0  0  0  0
  3  4  1  0  0  0  0
  4  9  1  0  0  0  0
  4  5  1  0  0  0  0
  6  2  1  0  0  0  0
  7  3  1  0  0  0  0
  8 13  1  6  0  0  0
  8 19  1  0  0  0  0
  8 12  1  0  0  0  0
  9 14  1  6  0  0  0
  9  8  1  0  0  0  0
  9 10  1  0  0  0  0
 10 16  1  0  0  0  0
 10 11  1  0  0  0  0
 12 18  1  0  0  0  0
 12 11  1  0  0  0  0
 15 10  1  0  0  0  0
 17 12  1  0  0  0  0
 20 19  1  0  0  0  0
 20 26  1  0  0  0  0
 21 20  2  0  0  0  0
 22 21  1  0  0  0  0
 22 24  2  0  0  0  0
 23 22  1  0  0  0  0
 24 25  1  0  0  0  0
 25 26  2  0  0  0  0
 27 35  1  0  0  0  0
 28 27  1  0  0  0  0
 28 33  1  0  0  0  0
 29 28  2  0  0  0  0
 30 31  2  0  0  0  0
 30 29  1  0  0  0  0
 31 32  1  0  0  0  0
 32 27  2  0  0  0  0
 34 31  1  0  0  0  0
 35 36  1  0  0  0  0
 36 38  1  0  0  0  0
 36 37  1  0  0  0  0
 39 36  1  0  0  0  0
M  END
>  <minimizedAffinity>
-5.91583347

$$$$

 OpenBabel03272503433D

 39 42  0  0  1  0  0  0  0  0999 V2000
   37.8600   25.5840   33.2320 C   0  0  0  0  0  0  0  0  0  0  0  0
   38.9000   26.4350   33.0440 C   0  0  0  0  0  0  0  0  0  0  0  0
   38.3460   27.5220   32.3410 C   0  0  0  0  0  0  0  0  0  0  0  0
   37.0480   27.2940   32.1420 N   0  0  0  0  0  0  0  0  0  0  0  0
   36.7390   26.1090   32.6830 N   0  0  0  0  0  0  0  0  0  0  0  0
   39.9160   26.2680   33.3800 H   0  0  0  0  0  0  0  0  0  0  0  0
   38.9730   28.3680   32.0540 H   0  0  0  0  0  0  0  0  0  0  0  0
   35.1280   28.7860   32.3790 C   0  0  2  0  0  0  0  0  0  0  0  0
   36.1900   28.2210   31.4480 C   0  0  1  0  0  0  0  0  0  0  0  0
   36.8920   29.5170   31.1120 C   0  0  0  0  0  0  0  0  0  0  0  0
   35.9450   30.5070   31.0470 O   0  0  0  0  0  0  0  0  0  0  0  0
   34.7710   30.0520   31.5820 C   0  0  0  0  0  0  0  0  0  0  0  0
   34.2640   28.1420   32.5170 H   0  0  0  0  0  0  0  0  0  0  0  0
   35.7930   27.7870   30.5300 H   0  0  0  0  0  0  0  0  0  0  0  0
   37.3470   29.4100   30.1000 H   0  0  0  0  0  0  0  0  0  0  0  0
   37.7350   29.7200   31.8010 H   0  0  0  0  0  0  0  0  0  0  0  0
   34.0890   29.7800   30.7520 H   0  0  0  0  0  0  0  0  0  0  0  0
   34.2480   30.7760   32.2170 H   0  0  0  0  0  0  0  0  0  0  0  0
   35.7720   29.1730   33.5530 O   0  0  0  0  0  0  0  0  0  0  0  0
   35.2330   29.9790   34.5440 C   0  0  0  0  0  0  0  0  0  0  0  0
   35.9490   30.9250   35.2750 C   0  0  0  0  0  3  0  0  0  0  0  0
   35.2890   31.6610   36.2350 C   0  0  0  0  0  0  0  0  0  0  0  0
   35.8950   32.3920   36.7830 H   0  0  0  0  0  0  0  0  0  0  0  0
   33.9710   31.4820   36.4760 N   0  0  0  0  0  0  0  0  0  0  0  0
   33.2700   30.5550   35.7590 C   0  0  0  0  0  3  0  0  0  0  0  0
   33.9150   29.8280   34.8140 N   0  0  0  0  0  0  0  0  0  0  0  0
   37.5210   21.9540   34.1100 C   0  0  0  0  0  0  0  0  0  0  0  0
   37.4180   23.1430   33.4110 C   0  0  0  0  0  0  0  0  0  0  0  0
   37.9360   24.3040   33.9170 C   0  0  0  0  0  0  0  0  0  0  0  0
   38.5500   24.2340   35.1270 N   0  0  0  0  0  0  0  0  0  0  0  0
   38.6420   23.0500   35.8020 C   0  0  0  0  0  0  0  0  0  0  0  0
   38.1390   21.9270   35.3090 N   0  0  0  0  0  0  0  0  0  0  0  0
   36.9330   23.2450   32.4340 H   0  0  0  0  0  0  0  0  0  0  0  0
   39.1410   23.0480   36.7620 H   0  0  0  0  0  0  0  0  0  0  0  0
   36.9350   20.8760   33.4400 O   0  0  0  0  0  0  0  0  0  0  0  0
   35.6230   20.4280   33.6850 C   0  0  0  0  0  0  0  0  0  0  0  0
   35.2160   20.7320   34.9870 F   0  0  0  0  0  0  0  0  0  0  0  0
   35.5620   19.0840   33.4490 F   0  0  0  0  0  0  0  0  0  0  0  0
   34.7780   21.0670   32.7950 F   0  0  0  0  0  0  0  0  0  0  0  0
  1 29  1  0  0  0  0
  2  1  1  0  0  0  0
  2  6  1  0  0  0  0
  3  2  2  0  0  0  0
  4  3  1  0  0  0  0
  4  5  1  0  0  0  0
  5  1  2  0  0  0  0
  7  3  1  0  0  0  0
  8 13  1  1  0  0  0
  8 19  1  0  0  0  0
  9 14  1  6  0  0  0
  9  4  1  0  0  0  0
  9  8  1  0  0  0  0
 10  9  1  0  0  0  0
 10 16  1  0  0  0  0
 11 10  1  0  0  0  0
 11 12  1  0  0  0  0
 12 18  1  0  0  0  0
 12  8  1  0  0  0  0
 15 10  1  0  0  0  0
 17 12  1  0  0  0  0
 19 20  1  0  0  0  0
 20 26  2  0  0  0  0
 20 21  1  0  0  0  0
 21 22  2  0  0  0  0
 22 24  1  0  0  0  0
 22 23  1  0  0  0  0
 25 24  2  0  0  0  0
 26 25  1  0  0  0  0
 27 32  1  0  0  0  0
 28 29  1  0  0  0  0
 28 27  2  0  0  0  0
 29 30  2  0  0  0  0
 30 31  1  0  0  0  0
 31 34  1  0  0  0  0
 32 31  2  0  0  0  0
 33 28  1  0  0  0  0
 35 36  1  0  0  0  0
 35 27  1  0  0  0  0
 36 37  1  0  0  0  0
 38 36  1  0  0  0  0
 39 36  1  0  0  0  0
M  END
>  <minimizedAffinity>
-5.75672913

$$$$

 OpenBabel03272503433D

 39 42  0  0  1  0  0  0  0  0999 V2000
   38.1760   26.0310   35.2400 C   0  0  0  0  0  0  0  0  0  0  0  0
   39.0200   27.0570   34.9670 C   0  0  0  0  0  0  0  0  0  0  0  0
   38.4240   27.7280   33.8820 C   0  0  0  0  0  0  0  0  0  0  0  0
   37.2900   27.1070   33.5570 N   0  0  0  0  0  0  0  0  0  0  0  0
   37.1280   26.0650   34.3820 N   0  0  0  0  0  0  0  0  0  0  0  0
   39.9400   27.2700   35.4970 H   0  0  0  0  0  0  0  0  0  0  0  0
   38.9020   28.6100   33.4520 H   0  0  0  0  0  0  0  0  0  0  0  0
   35.3700   28.5050   32.9860 C   0  0  2  0  0  0  0  0  0  0  0  0
   36.4390   27.5480   32.4810 C   0  0  1  0  0  0  0  0  0  0  0  0
   37.1450   28.4930   31.5370 C   0  0  0  0  0  0  0  0  0  0  0  0
   36.1990   29.3090   30.9690 O   0  0  0  0  0  0  0  0  0  0  0  0
   35.0210   29.1860   31.6520 C   0  0  0  0  0  0  0  0  0  0  0  0
   34.5040   28.0180   33.4270 H   0  0  0  0  0  0  0  0  0  0  0  0
   36.0490   26.7050   31.9100 H   0  0  0  0  0  0  0  0  0  0  0  0
   37.6080   27.8870   30.7240 H   0  0  0  0  0  0  0  0  0  0  0  0
   37.9830   29.0220   32.0320 H   0  0  0  0  0  0  0  0  0  0  0  0
   34.3460   28.5270   31.0720 H   0  0  0  0  0  0  0  0  0  0  0  0
   34.4940   30.1310   31.8250 H   0  0  0  0  0  0  0  0  0  0  0  0
   36.0050   29.4380   33.8030 O   0  0  0  0  0  0  0  0  0  0  0  0
   35.3870   30.2330   34.7560 C   0  0  0  0  0  0  0  0  0  0  0  0
   36.0510   31.1110   35.6110 C   0  0  0  0  0  3  0  0  0  0  0  0
   35.3140   31.8430   36.5160 C   0  0  0  0  0  0  0  0  0  0  0  0
   35.8820   32.5190   37.1660 H   0  0  0  0  0  0  0  0  0  0  0  0
   33.9700   31.7260   36.5850 N   0  0  0  0  0  0  0  0  0  0  0  0
   33.3190   30.8660   35.7480 C   0  0  0  0  0  3  0  0  0  0  0  0
   34.0390   30.1420   34.8570 N   0  0  0  0  0  0  0  0  0  0  0  0
   39.2300   22.9910   37.1660 C   0  0  0  0  0  0  0  0  0  0  0  0
   39.0850   23.8930   36.1270 C   0  0  0  0  0  0  0  0  0  0  0  0
   38.3650   25.0450   36.2910 C   0  0  0  0  0  0  0  0  0  0  0  0
   37.8060   25.2590   37.5110 N   0  0  0  0  0  0  0  0  0  0  0  0
   37.9600   24.3560   38.5240 C   0  0  0  0  0  0  0  0  0  0  0  0
   38.6580   23.2410   38.3630 N   0  0  0  0  0  0  0  0  0  0  0  0
   39.5170   23.7610   35.1290 H   0  0  0  0  0  0  0  0  0  0  0  0
   37.4950   24.5740   39.4760 H   0  0  0  0  0  0  0  0  0  0  0  0
   39.9950   21.8740   36.8150 O   0  0  0  0  0  0  0  0  0  0  0  0
   41.3980   21.8290   36.9230 C   0  0  0  0  0  0  0  0  0  0  0  0
   41.8010   21.0500   38.0100 F   0  0  0  0  0  0  0  0  0  0  0  0
   41.8760   23.1060   37.0250 F   0  0  0  0  0  0  0  0  0  0  0  0
   41.9000   21.2670   35.7620 F   0  0  0  0  0  0  0  0  0  0  0  0
  1 29  1  0  0  0  0
  2  1  1  0  0  0  0
  2  6  1  0  0  0  0
  3  2  2  0  0  0  0
  4  3  1  0  0  0  0
  4  5  1  0  0  0  0
  5  1  2  0  0  0  0
  7  3  1  0  0  0  0
  8 13  1  1  0  0  0
  8 19  1  0  0  0  0
  9 14  1  6  0  0  0
  9  8  1  0  0  0  0
  9  4  1  0  0  0  0
 10 16  1  0  0  0  0
 10  9  1  0  0  0  0
 11 10  1  0  0  0  0
 11 12  1  0  0  0  0
 12 18  1  0  0  0  0
 12  8  1  0  0  0  0
 15 10  1  0  0  0  0
 17 12  1  0  0  0  0
 19 20  1  0  0  0  0
 20 26  2  0  0  0  0
 20 21  1  0  0  0  0
 21 22  2  0  0  0  0
 22 24  1  0  0  0  0
 22 23  1  0  0  0  0
 25 24  2  0  0  0  0
 26 25  1  0  0  0  0
 27 32  1  0  0  0  0
 28 29  1  0  0  0  0
 28 27  2  0  0  0  0
 29 30  2  0  0  0  0
 30 31  1  0  0  0  0
 31 34  1  0  0  0  0
 32 31  2  0  0  0  0
 33 28  1  0  0  0  0
 35 36  1  0  0  0  0
 35 27  1  0  0  0  0
 36 38  1  0  0  0  0
 36 37  1  0  0  0  0
 39 36  1  0  0  0  0
M  END
>  <minimizedAffinity>
-5.71146774

$$$$

 OpenBabel03272503433D

 39 42  0  0  1  0  0  0  0  0999 V2000
   35.2930   30.3650   34.7860 C   0  0  0  0  0  0  0  0  0  0  0  0
   35.9540   31.0520   35.7510 C   0  0  0  0  0  0  0  0  0  0  0  0
   35.0520   32.0550   36.1540 C   0  0  0  0  0  0  0  0  0  0  0  0
   33.9290   31.9390   35.4460 N   0  0  0  0  0  0  0  0  0  0  0  0
   34.0660   30.9070   34.6040 N   0  0  0  0  0  0  0  0  0  0  0  0
   36.9570   30.8360   36.1000 H   0  0  0  0  0  0  0  0  0  0  0  0
   35.3330   32.7660   36.9340 H   0  0  0  0  0  0  0  0  0  0  0  0
   31.5080   32.0330   35.7530 C   0  0  2  0  0  0  0  0  0  0  0  0
   32.8020   32.8200   35.6190 C   0  0  1  0  0  0  0  0  0  0  0  0
   32.7910   33.4840   36.9760 C   0  0  0  0  0  0  0  0  0  0  0  0
   31.4890   33.7700   37.2980 O   0  0  0  0  0  0  0  0  0  0  0  0
   30.6520   33.1110   36.4400 C   0  0  0  0  0  0  0  0  0  0  0  0
   31.0740   31.7190   34.8080 H   0  0  0  0  0  0  0  0  0  0  0  0
   32.7770   33.5920   34.8490 H   0  0  0  0  0  0  0  0  0  0  0  0
   33.3440   34.4490   36.8940 H   0  0  0  0  0  0  0  0  0  0  0  0
   33.3400   32.8880   37.7320 H   0  0  0  0  0  0  0  0  0  0  0  0
   30.2920   33.8310   35.6790 H   0  0  0  0  0  0  0  0  0  0  0  0
   29.7720   32.6630   36.9160 H   0  0  0  0  0  0  0  0  0  0  0  0
   31.7410   31.0080   36.6680 O   0  0  0  0  0  0  0  0  0  0  0  0
   31.3920   29.6770   36.4990 C   0  0  0  0  0  0  0  0  0  0  0  0
   31.4210   28.7140   37.5060 C   0  0  0  0  0  3  0  0  0  0  0  0
   31.0480   27.4230   37.2020 C   0  0  0  0  0  0  0  0  0  0  0  0
   31.0880   26.7020   38.0280 H   0  0  0  0  0  0  0  0  0  0  0  0
   30.6580   27.0790   35.9540 N   0  0  0  0  0  0  0  0  0  0  0  0
   30.6300   28.0230   34.9680 C   0  0  0  0  0  3  0  0  0  0  0  0
   30.9960   29.2940   35.2610 N   0  0  0  0  0  0  0  0  0  0  0  0
   37.0940   27.2030   33.8800 C   0  0  0  0  0  0  0  0  0  0  0  0
   36.6220   28.2690   34.6240 C   0  0  0  0  0  0  0  0  0  0  0  0
   35.8200   29.2230   34.0580 C   0  0  0  0  0  0  0  0  0  0  0  0
   35.5120   29.0730   32.7440 N   0  0  0  0  0  0  0  0  0  0  0  0
   35.9880   28.0130   32.0250 C   0  0  0  0  0  0  0  0  0  0  0  0
   36.7650   27.0910   32.5760 N   0  0  0  0  0  0  0  0  0  0  0  0
   36.8450   28.4290   35.6850 H   0  0  0  0  0  0  0  0  0  0  0  0
   35.7130   27.9400   30.9810 H   0  0  0  0  0  0  0  0  0  0  0  0
   37.8970   26.3330   34.6240 O   0  0  0  0  0  0  0  0  0  0  0  0
   39.2040   26.6470   35.0410 C   0  0  0  0  0  0  0  0  0  0  0  0
   39.9660   25.4930   35.2430 F   0  0  0  0  0  0  0  0  0  0  0  0
   39.1370   27.4010   36.1780 F   0  0  0  0  0  0  0  0  0  0  0  0
   39.8010   27.4060   34.0490 F   0  0  0  0  0  0  0  0  0  0  0  0
  1  2  1  0  0  0  0
  2  6  1  0  0  0  0
  2  3  2  0  0  0  0
  3  7  1  0  0  0  0
  4  9  1  0  0  0  0
  4  3  1  0  0  0  0
  5  1  2  0  0  0  0
  5  4  1  0  0  0  0
  8 13  1  6  0  0  0
  8 12  1  0  0  0  0
  8 19  1  0  0  0  0
  9 14  1  6  0  0  0
  9  8  1  0  0  0  0
  9 10  1  0  0  0  0
 10 11  1  0  0  0  0
 10 16  1  0  0  0  0
 12 18  1  0  0  0  0
 12 11  1  0  0  0  0
 15 10  1  0  0  0  0
 17 12  1  0  0  0  0
 20 19  1  0  0  0  0
 20 21  1  0  0  0  0
 22 21  2  0  0  0  0
 22 23  1  0  0  0  0
 24 22  1  0  0  0  0
 25 26  1  0  0  0  0
 25 24  2  0  0  0  0
 26 20  2  0  0  0  0
 27 28  1  0  0  0  0
 27 35  1  0  0  0  0
 28 33  1  0  0  0  0
 29 28  2  0  0  0  0
 29  1  1  0  0  0  0
 30 29  1  0  0  0  0
 31 32  1  0  0  0  0
 31 30  2  0  0  0  0
 32 27  2  0  0  0  0
 34 31  1  0  0  0  0
 35 36  1  0  0  0  0
 36 37  1  0  0  0  0
 36 38  1  0  0  0  0
 39 36  1  0  0  0  0
M  END
>  <minimizedAffinity>
-5.70472765

$$$$

 OpenBabel03272503433D

 39 42  0  0  1  0  0  0  0  0999 V2000
   37.0810   26.8230   33.3330 C   0  0  0  0  0  0  0  0  0  0  0  0
   37.4130   26.0200   32.2910 C   0  0  0  0  0  0  0  0  0  0  0  0
   37.8870   24.8380   32.8910 C   0  0  0  0  0  0  0  0  0  0  0  0
   37.8250   24.9690   34.2160 N   0  0  0  0  0  0  0  0  0  0  0  0
   37.3330   26.1810   34.4980 N   0  0  0  0  0  0  0  0  0  0  0  0
   37.3150   26.2790   31.2430 H   0  0  0  0  0  0  0  0  0  0  0  0
   38.2280   24.0060   32.2720 H   0  0  0  0  0  0  0  0  0  0  0  0
   39.7560   23.8940   35.2580 C   0  0  2  0  0  0  0  0  0  0  0  0
   38.2410   23.9290   35.1230 C   0  0  1  0  0  0  0  0  0  0  0  0
   37.9050   24.2500   36.5610 C   0  0  0  0  0  0  0  0  0  0  0  0
   38.8120   23.6040   37.3630 O   0  0  0  0  0  0  0  0  0  0  0  0
   39.8510   23.1470   36.6000 C   0  0  0  0  0  0  0  0  0  0  0  0
   40.2640   23.3560   34.4620 H   0  0  0  0  0  0  0  0  0  0  0  0
   37.7940   22.9690   34.8620 H   0  0  0  0  0  0  0  0  0  0  0  0
   36.8950   23.8330   36.7810 H   0  0  0  0  0  0  0  0  0  0  0  0
   37.8230   25.3410   36.7320 H   0  0  0  0  0  0  0  0  0  0  0  0
   39.7070   22.0630   36.4240 H   0  0  0  0  0  0  0  0  0  0  0  0
   40.8410   23.2830   37.0490 H   0  0  0  0  0  0  0  0  0  0  0  0
   40.1830   25.2060   35.4540 O   0  0  0  0  0  0  0  0  0  0  0  0
   41.1680   25.8540   34.7240 C   0  0  0  0  0  0  0  0  0  0  0  0
   40.9460   26.9410   33.8810 C   0  0  0  0  0  3  0  0  0  0  0  0
   42.0170   27.4920   33.2120 C   0  0  0  0  0  0  0  0  0  0  0  0
   41.7910   28.3460   32.5610 H   0  0  0  0  0  0  0  0  0  0  0  0
   43.2670   27.0000   33.3590 N   0  0  0  0  0  0  0  0  0  0  0  0
   43.4840   25.9350   34.1850 C   0  0  0  0  0  3  0  0  0  0  0  0
   42.4340   25.3880   34.8450 N   0  0  0  0  0  0  0  0  0  0  0  0
   35.4310   30.1070   34.0800 C   0  0  0  0  0  0  0  0  0  0  0  0
   35.9300   28.8280   34.2500 C   0  0  0  0  0  0  0  0  0  0  0  0
   36.5380   28.1670   33.2180 C   0  0  0  0  0  0  0  0  0  0  0  0
   36.6290   28.8210   32.0310 N   0  0  0  0  0  0  0  0  0  0  0  0
   36.1310   30.0840   31.8830 C   0  0  0  0  0  0  0  0  0  0  0  0
   35.5420   30.7220   32.8840 N   0  0  0  0  0  0  0  0  0  0  0  0
   35.8780   28.2640   35.1880 H   0  0  0  0  0  0  0  0  0  0  0  0
   36.2290   30.5610   30.9160 H   0  0  0  0  0  0  0  0  0  0  0  0
   34.8450   30.6210   35.2410 O   0  0  0  0  0  0  0  0  0  0  0  0
   35.3630   31.7200   35.9520 C   0  0  0  0  0  0  0  0  0  0  0  0
   35.0660   32.9270   35.3140 F   0  0  0  0  0  0  0  0  0  0  0  0
   36.7120   31.5560   36.0980 F   0  0  0  0  0  0  0  0  0  0  0  0
   34.7860   31.7280   37.2100 F   0  0  0  0  0  0  0  0  0  0  0  0
  1  5  2  0  0  0  0
  2  3  2  0  0  0  0
  2  1  1  0  0  0  0
  3  4  1  0  0  0  0
  4  5  1  0  0  0  0
  4  9  1  0  0  0  0
  6  2  1  0  0  0  0
  7  3  1  0  0  0  0
  8 13  1  6  0  0  0
  8 19  1  0  0  0  0
  8 12  1  0  0  0  0
  9 14  1  6  0  0  0
  9  8  1  0  0  0  0
  9 10  1  0  0  0  0
 10 16  1  0  0  0  0
 10 15  1  0  0  0  0
 10 11  1  0  0  0  0
 12 18  1  0  0  0  0
 12 11  1  0  0  0  0
 17 12  1  0  0  0  0
 20 26  1  0  0  0  0
 20 19  1  0  0  0  0
 21 20  2  0  0  0  0
 22 24  2  0  0  0  0
 22 21  1  0  0  0  0
 23 22  1  0  0  0  0
 24 25  1  0  0  0  0
 25 26  2  0  0  0  0
 27 28  1  0  0  0  0
 27 35  1  0  0  0  0
 28 33  1  0  0  0  0
 29  1  1  0  0  0  0
 29 28  2  0  0  0  0
 30 29  1  0  0  0  0
 31 30  2  0  0  0  0
 31 32  1  0  0  0  0
 32 27  2  0  0  0  0
 34 31  1  0  0  0  0
 35 36  1  0  0  0  0
 36 38  1  0  0  0  0
 36 39  1  0  0  0  0
 37 36  1  0  0  0  0
M  END
>  <minimizedAffinity>
-5.6950593

$$$$

 OpenBabel03272503433D

 39 42  0  0  1  0  0  0  0  0999 V2000
   38.9330   25.2980   33.1170 C   0  0  0  0  0  0  0  0  0  0  0  0
   39.8440   26.2710   33.3640 C   0  0  0  0  0  0  0  0  0  0  0  0
   39.7950   27.1000   32.2270 C   0  0  0  0  0  0  0  0  0  0  0  0
   38.8930   26.6140   31.3750 N   0  0  0  0  0  0  0  0  0  0  0  0
   38.3580   25.5090   31.9090 N   0  0  0  0  0  0  0  0  0  0  0  0
   40.4520   26.3500   34.2570 H   0  0  0  0  0  0  0  0  0  0  0  0
   40.4400   27.9780   32.1590 H   0  0  0  0  0  0  0  0  0  0  0  0
   37.3110   28.0360   30.1730 C   0  0  2  0  0  0  0  0  0  0  0  0
   38.6030   27.2350   30.1060 C   0  0  1  0  0  0  0  0  0  0  0  0
   39.5460   28.3730   29.7920 C   0  0  0  0  0  0  0  0  0  0  0  0
   38.8870   29.2560   28.9750 O   0  0  0  0  0  0  0  0  0  0  0  0
   37.5510   28.9610   28.9670 C   0  0  0  0  0  0  0  0  0  0  0  0
   36.4090   27.4440   30.0510 H   0  0  0  0  0  0  0  0  0  0  0  0
   38.6380   26.5120   29.2910 H   0  0  0  0  0  0  0  0  0  0  0  0
   40.4100   27.9590   29.2230 H   0  0  0  0  0  0  0  0  0  0  0  0
   39.9770   28.8180   30.7100 H   0  0  0  0  0  0  0  0  0  0  0  0
   37.3190   28.4110   28.0340 H   0  0  0  0  0  0  0  0  0  0  0  0
   36.8910   29.8350   29.0100 H   0  0  0  0  0  0  0  0  0  0  0  0
   37.3630   28.8060   31.3340 O   0  0  0  0  0  0  0  0  0  0  0  0
   36.2910   29.0860   32.1670 C   0  0  0  0  0  0  0  0  0  0  0  0
   36.2100   28.7180   33.5090 C   0  0  0  0  0  3  0  0  0  0  0  0
   35.0840   29.0600   34.2250 C   0  0  0  0  0  0  0  0  0  0  0  0
   35.0680   28.7480   35.2760 H   0  0  0  0  0  0  0  0  0  0  0  0
   34.0670   29.7410   33.6530 N   0  0  0  0  0  0  0  0  0  0  0  0
   34.1460   30.1020   32.3380 C   0  0  0  0  0  3  0  0  0  0  0  0
   35.2510   29.7680   31.6290 N   0  0  0  0  0  0  0  0  0  0  0  0
   38.6930   23.0650   36.1210 C   0  0  0  0  0  0  0  0  0  0  0  0
   39.0220   24.1420   35.3180 C   0  0  0  0  0  0  0  0  0  0  0  0
   38.6190   24.1950   34.0110 C   0  0  0  0  0  0  0  0  0  0  0  0
   37.8850   23.1510   33.5460 N   0  0  0  0  0  0  0  0  0  0  0  0
   37.5700   22.0960   34.3540 C   0  0  0  0  0  0  0  0  0  0  0  0
   37.9630   22.0470   35.6200 N   0  0  0  0  0  0  0  0  0  0  0  0
   39.6110   25.0040   35.6510 H   0  0  0  0  0  0  0  0  0  0  0  0
   36.9840   21.2890   33.9350 H   0  0  0  0  0  0  0  0  0  0  0  0
   39.1910   23.1840   37.4220 O   0  0  0  0  0  0  0  0  0  0  0  0
   38.4460   23.7090   38.4950 C   0  0  0  0  0  0  0  0  0  0  0  0
   39.2390   23.8810   39.6320 F   0  0  0  0  0  0  0  0  0  0  0  0
   37.3900   22.8790   38.7490 F   0  0  0  0  0  0  0  0  0  0  0  0
   37.9480   24.9420   38.1090 F   0  0  0  0  0  0  0  0  0  0  0  0
  1  2  1  0  0  0  0
  1 29  1  0  0  0  0
  2  6  1  0  0  0  0
  3  2  2  0  0  0  0
  4  5  1  0  0  0  0
  4  3  1  0  0  0  0
  5  1  2  0  0  0  0
  7  3  1  0  0  0  0
  8 13  1  6  0  0  0
  8 19  1  0  0  0  0
  9 14  1  6  0  0  0
  9  8  1  0  0  0  0
  9  4  1  0  0  0  0
 10  9  1  0  0  0  0
 10 16  1  0  0  0  0
 11 10  1  0  0  0  0
 12 11  1  0  0  0  0
 12 18  1  0  0  0  0
 12  8  1  0  0  0  0
 15 10  1  0  0  0  0
 17 12  1  0  0  0  0
 19 20  1  0  0  0  0
 20 21  1  0  0  0  0
 21 22  2  0  0  0  0
 22 23  1  0  0  0  0
 24 22  1  0  0  0  0
 25 24  2  0  0  0  0
 26 20  2  0  0  0  0
 26 25  1  0  0  0  0
 27 35  1  0  0  0  0
 28 33  1  0  0  0  0
 28 27  2  0  0  0  0
 29 28  1  0  0  0  0
 30 29  2  0  0  0  0
 30 31  1  0  0  0  0
 31 32  2  0  0  0  0
 32 27  1  0  0  0  0
 34 31  1  0  0  0  0
 35 36  1  0  0  0  0
 36 38  1  0  0  0  0
 36 37  1  0  0  0  0
 39 36  1  0  0  0  0
M  END
>  <minimizedAffinity>
-5.69327259

$$$$

 OpenBabel03272503433D

 39 42  0  0  1  0  0  0  0  0999 V2000
   36.3480   28.3250   31.5890 C   0  0  0  0  0  0  0  0  0  0  0  0
   37.6030   28.3470   31.0740 C   0  0  0  0  0  0  0  0  0  0  0  0
   37.8820   27.0020   30.7640 C   0  0  0  0  0  0  0  0  0  0  0  0
   36.8290   26.2540   31.0890 N   0  0  0  0  0  0  0  0  0  0  0  0
   35.8830   27.0530   31.5960 N   0  0  0  0  0  0  0  0  0  0  0  0
   38.2140   29.2320   30.9500 H   0  0  0  0  0  0  0  0  0  0  0  0
   38.8450   26.7280   30.3280 H   0  0  0  0  0  0  0  0  0  0  0  0
   37.5680   24.1080   31.9940 C   0  0  2  0  0  0  0  0  0  0  0  0
   36.7970   24.8250   30.8970 C   0  0  1  0  0  0  0  0  0  0  0  0
   35.4320   24.2370   31.1730 C   0  0  0  0  0  0  0  0  0  0  0  0
   35.6050   22.9360   31.5720 O   0  0  0  0  0  0  0  0  0  0  0  0
   36.9250   22.7170   31.8570 C   0  0  0  0  0  0  0  0  0  0  0  0
   38.6420   24.0710   31.8370 H   0  0  0  0  0  0  0  0  0  0  0  0
   37.1000   24.5520   29.8860 H   0  0  0  0  0  0  0  0  0  0  0  0
   34.8590   24.2300   30.2170 H   0  0  0  0  0  0  0  0  0  0  0  0
   34.8450   24.8660   31.8700 H   0  0  0  0  0  0  0  0  0  0  0  0
   37.3850   22.1860   31.0010 H   0  0  0  0  0  0  0  0  0  0  0  0
   37.1040   22.1160   32.7560 H   0  0  0  0  0  0  0  0  0  0  0  0
   37.1650   24.6600   33.2090 O   0  0  0  0  0  0  0  0  0  0  0  0
   37.9310   25.4910   34.0130 C   0  0  0  0  0  0  0  0  0  0  0  0
   39.3190   25.4360   34.1180 C   0  0  0  0  0  3  0  0  0  0  0  0
   39.9580   26.3220   34.9580 C   0  0  0  0  0  0  0  0  0  0  0  0
   41.0510   26.2390   35.0060 H   0  0  0  0  0  0  0  0  0  0  0  0
   39.2660   27.2360   35.6730 N   0  0  0  0  0  0  0  0  0  0  0  0
   37.9050   27.2900   35.5700 C   0  0  0  0  0  3  0  0  0  0  0  0
   37.2720   26.4190   34.7470 N   0  0  0  0  0  0  0  0  0  0  0  0
   34.6940   30.8870   33.7720 C   0  0  0  0  0  0  0  0  0  0  0  0
   35.4020   29.7640   33.3840 C   0  0  0  0  0  0  0  0  0  0  0  0
   35.6130   29.4870   32.0600 C   0  0  0  0  0  0  0  0  0  0  0  0
   35.1000   30.3610   31.1550 N   0  0  0  0  0  0  0  0  0  0  0  0
   34.4040   31.4650   31.5580 C   0  0  0  0  0  0  0  0  0  0  0  0
   34.2000   31.7300   32.8410 N   0  0  0  0  0  0  0  0  0  0  0  0
   35.8320   29.0340   34.0780 H   0  0  0  0  0  0  0  0  0  0  0  0
   34.0160   32.1290   30.7970 H   0  0  0  0  0  0  0  0  0  0  0  0
   34.5780   31.0040   35.1610 O   0  0  0  0  0  0  0  0  0  0  0  0
   35.5210   31.6700   35.9650 C   0  0  0  0  0  0  0  0  0  0  0  0
   35.8420   32.9260   35.4420 F   0  0  0  0  0  0  0  0  0  0  0  0
   36.6340   30.8860   36.0850 F   0  0  0  0  0  0  0  0  0  0  0  0
   34.9690   31.8400   37.2230 F   0  0  0  0  0  0  0  0  0  0  0  0
  1  5  2  0  0  0  0
  1 29  1  0  0  0  0
  2  1  1  0  0  0  0
  3  2  2  0  0  0  0
  3  4  1  0  0  0  0
  4  5  1  0  0  0  0
  6  2  1  0  0  0  0
  7  3  1  0  0  0  0
  8 13  1  6  0  0  0
  8 19  1  0  0  0  0
  9 14  1  6  0  0  0
  9  4  1  0  0  0  0
  9 10  1  0  0  0  0
  9  8  1  0  0  0  0
 10 11  1  0  0  0  0
 10 16  1  0  0  0  0
 11 12  1  0  0  0  0
 12  8  1  0  0  0  0
 12 18  1  0  0  0  0
 15 10  1  0  0  0  0
 17 12  1  0  0  0  0
 19 20  1  0  0  0  0
 20 21  2  0  0  0  0
 20 26  1  0  0  0  0
 21 22  1  0  0  0  0
 22 23  1  0  0  0  0
 22 24  2  0  0  0  0
 25 24  1  0  0  0  0
 26 25  2  0  0  0  0
 27 35  1  0  0  0  0
 28 27  1  0  0  0  0
 28 33  1  0  0  0  0
 29 28  2  0  0  0  0
 30 31  2  0  0  0  0
 30 29  1  0  0  0  0
 31 32  1  0  0  0  0
 32 27  2  0  0  0  0
 34 31  1  0  0  0  0
 35 36  1  0  0  0  0
 36 38  1  0  0  0  0
 36 39  1  0  0  0  0
 37 36  1  0  0  0  0
M  END
>  <minimizedAffinity>
-5.69096279

$$$$
