
     RDKit          3D

 29 31  0  0  0  0  0  0  0  0999 V2000
   37.7809   31.0555   47.4282 C   0  0  0  0  0  0  0  0  0  0  0  0
   37.0278   30.7238   46.3159 C   0  0  0  0  0  0  0  0  0  0  0  0
   37.3139   31.2080   45.0487 C   0  0  0  0  0  0  0  0  0  0  0  0
   38.3608   32.0333   44.8762 N   0  0  0  0  0  0  0  0  0  0  0  0
   39.0816   32.3455   45.9652 C   0  0  0  0  0  0  0  0  0  0  0  0
   38.8185   31.8869   47.1937 N   0  0  0  0  0  0  0  0  0  0  0  0
   37.7144   30.3662   51.1242 C   0  0  0  0  0  0  0  0  0  0  0  0
   38.1133   30.9440   49.9070 C   0  0  0  0  0  0  0  0  0  0  0  0
   37.4651   30.5366   48.7537 C   0  0  0  0  0  0  0  0  0  0  0  0
   36.4912   29.6106   48.8696 N   0  0  0  0  0  0  0  0  0  0  0  0
   36.1249   29.0708   50.0416 C   0  0  0  0  0  0  0  0  0  0  0  0
   36.7397   29.4501   51.1777 N   0  0  0  0  0  0  0  0  0  0  0  0
   40.2503   33.2584   45.8124 C   0  0  0  0  0  0  0  0  0  0  0  0
   40.3824   33.9957   46.9846 F   0  0  0  0  0  0  0  0  0  0  0  0
   41.4118   32.5507   45.5519 F   0  0  0  0  0  0  0  0  0  0  0  0
   40.0704   34.1521   44.7935 F   0  0  0  0  0  0  0  0  0  0  0  0
   36.1762   30.0563   46.4382 H   0  0  0  0  0  0  0  0  0  0  0  0
   36.6667   30.8926   44.2360 H   0  0  0  0  0  0  0  0  0  0  0  0
   38.2264   30.6917   52.0133 H   0  0  0  0  0  0  0  0  0  0  0  0
   38.8944   31.6859   49.8189 H   0  0  0  0  0  0  0  0  0  0  0  0
   35.0616   28.0728   50.0909 C   0  0  0  0  0  0  0  0  0  0  0  0
   34.6872   27.5196   51.2975 C   0  0  0  0  0  0  0  0  0  0  0  0
   33.6756   26.5828   51.2704 C   0  0  0  0  0  0  0  0  0  0  0  0
   33.4230   26.1802   52.2569 H   0  0  0  0  0  0  0  0  0  0  0  0
   33.0492   26.1942   50.1252 N   0  0  0  0  0  0  0  0  0  0  0  0
   33.4509   26.7653   48.9630 C   0  0  0  0  0  0  0  0  0  0  0  0
   34.4492   27.6967   48.9494 N   0  0  0  0  0  0  0  0  0  0  0  0
   35.1767   27.8192   52.2163 H   0  0  0  0  0  0  0  0  0  0  0  0
   32.9359   26.4418   48.0458 H   0  0  0  0  0  0  0  0  0  0  0  0
  1  9  1  0
  2  1  2  0
  3  2  1  0
  4  3  2  0
  4  5  1  0
  5  6  2  0
  6  1  1  0
  7 12  2  0
  8  7  1  0
  9 10  1  0
  9  8  2  0
 10 11  2  0
 11 12  1  0
 13  5  1  0
 13 14  1  0
 15 13  1  0
 16 13  1  0
  2 17  1  0
  3 18  1  0
  7 19  1  0
  8 20  1  0
 21 22  2  0
 22 23  1  0
 23 24  1  0
 23 25  2  0
 25 26  1  0
 26 27  2  0
 27 21  1  0
 22 28  1  0
 26 29  1  0
 11 21  1  0
M  ISO  5  17  14  18  14  19  14  20  14  24  14
M  END
>  <DihAtoms>  (1) 
9,10,20,21

>  <DihDeg>  (1) 
179.99901023007604

$$$$
