
 OpenBabel03272510023D

 19 20  0  0  0  0  0  0  0  0999 V2000
   38.2470   31.4030   50.2130 C   0  0  0  0  0  0  0  0  0  0  0  0
   38.5180   31.4210   48.8340 C   0  0  0  0  0  0  0  0  0  0  0  0
   37.6390   30.7340   48.0110 C   0  0  0  0  0  0  0  0  0  0  0  0
   36.5780   30.0850   48.5520 N   0  0  0  0  0  0  0  0  0  0  0  0
   36.3550   30.0940   49.8860 C   0  0  0  0  0  0  0  0  0  0  0  0
   37.1820   30.7470   50.7080 N   0  0  0  0  0  0  0  0  0  0  0  0
   38.9090   31.9290   50.8900 H   0  0  0  0  0  0  0  0  0  0  0  0
   39.3790   31.9550   48.4540 H   0  0  0  0  0  0  0  0  0  0  0  0
   37.8610   30.7110   46.5690 C   0  0  0  0  0  0  0  0  0  0  0  0
   39.1480   30.7380   46.0730 C   0  0  0  0  0  3  0  0  0  0  0  0
   39.2830   30.7140   44.6990 C   0  0  0  0  0  0  0  0  0  0  0  0
   40.2730   30.7350   44.2870 H   0  0  0  0  0  0  0  0  0  0  0  0
   38.1870   30.6670   43.9280 N   0  0  0  0  0  0  0  0  0  0  0  0
   36.9360   30.6400   44.3940 C   0  0  0  0  0  3  0  0  0  0  0  0
   36.8010   30.6630   45.7450 N   0  0  0  0  0  0  0  0  0  0  0  0
   35.1700   29.3580   50.3940 C   0  0  0  0  0  0  0  0  0  0  0  0
   35.2470   29.1050   51.7580 F   0  0  0  0  0  0  0  0  0  0  0  0
   34.0070   30.0830   50.1900 F   0  0  0  0  0  0  0  0  0  0  0  0
   34.9730   28.1520   49.7630 F   0  0  0  0  0  0  0  0  0  0  0  0
  1  6  1  0  0  0  0
  1  7  1  0  0  0  0
  2  1  2  0  0  0  0
  3  4  2  0  0  0  0
  3  2  1  0  0  0  0
  4  5  1  0  0  0  0
  5 16  1  0  0  0  0
  5  6  2  0  0  0  0
  8  2  1  0  0  0  0
  9  3  1  0  0  0  0
 10  9  1  0  0  0  0
 11 10  2  0  0  0  0
 12 11  1  0  0  0  0
 13 14  2  0  0  0  0
 13 11  1  0  0  0  0
 14 15  1  0  0  0  0
 15  9  2  0  0  0  0
 16 17  1  0  0  0  0
 18 16  1  0  0  0  0
 19 16  1  0  0  0  0
M  END
>  <minimizedAffinity>
-5.24149513

>  <minimizedRMSD>
1.0420866

$$$$
