
 OpenBabel03272504413D

 43 45  0  0  0  0  0  0  0  0999 V2000
   34.7970   29.3970   48.8330 C   0  0  0  0  0  0  0  0  0  0  0  0
   35.7020   29.4190   49.4820 H   0  0  0  0  0  0  0  0  0  0  0  0
   34.1620   30.2280   49.2620 H   0  0  0  0  0  0  0  0  0  0  0  0
   37.5610   30.4590   48.5280 Cl  0  0  0  0  0  0  0  0  0  0  0  0
   36.4140   30.3010   47.1990 C   0  0  0  0  0  0  0  0  0  0  0  0
   36.7890   30.6800   45.9570 C   0  0  0  0  0  0  0  0  0  0  0  0
   35.9040   30.5630   44.9070 C   0  0  0  0  0  0  0  0  0  0  0  0
   34.6330   30.0530   45.1530 C   0  0  0  0  0  0  0  0  0  0  0  0
   34.3190   29.6810   46.4740 C   0  0  0  0  0  0  0  0  0  0  0  0
   35.1720   29.7900   47.5070 C   0  0  0  0  0  0  0  0  0  0  0  0
   36.2330   30.8770   43.9100 H   0  0  0  0  0  0  0  0  0  0  0  0
   34.0250   30.0030   44.2760 H   0  0  0  0  0  0  0  0  0  0  0  0
   33.3500   29.3380   46.4500 H   0  0  0  0  0  0  0  0  0  0  0  0
   39.7800   32.8350   46.0110 C   0  0  0  0  0  0  0  0  0  0  0  0
   40.6470   32.1010   45.1250 C   0  0  0  0  0  0  0  0  0  0  0  0
   40.1680   30.9180   44.5610 C   0  0  0  0  0  0  0  0  0  0  0  0
   38.9090   30.5060   44.8680 N   0  0  0  0  0  0  0  0  0  0  0  0
   38.1170   31.2150   45.7030 C   0  0  0  0  0  0  0  0  0  0  0  0
   38.5540   32.3580   46.2590 N   0  0  0  0  0  0  0  0  0  0  0  0
   40.1050   33.7420   46.4620 H   0  0  0  0  0  0  0  0  0  0  0  0
   41.6300   32.5110   44.9460 H   0  0  0  0  0  0  0  0  0  0  0  0
   41.0420   30.2360   43.7070 N   0  0  0  0  0  0  0  0  0  0  0  0
   41.9920   29.8750   43.8860 H   0  0  0  0  0  0  0  0  0  0  0  0
   40.8040   30.0030   42.7170 H   0  0  0  0  0  0  0  0  0  0  0  0
   34.1200   28.1160   49.0570 C   0  0  0  0  0  0  0  0  0  0  0  0
   34.5560   27.5170   49.8870 H   0  0  0  0  0  0  0  0  0  0  0  0
   34.2550   27.4670   48.1430 H   0  0  0  0  0  0  0  0  0  0  0  0
   32.7840   28.2930   49.3090 O   0  0  0  0  0  0  0  0  0  0  0  0
   32.7180   26.4500   47.4410 O   0  0  0  0  0  0  0  0  0  0  0  0
   31.8630   27.3750   48.2700 P   0  0  2  0  0  0  0  0  0  0  0  0
   31.0550   28.4920   47.2200 O   0  0  0  0  0  0  0  0  0  0  0  0
   30.6700   28.1430   45.9370 C   0  0  0  0  0  0  0  0  0  0  0  0
   31.2420   28.5330   44.7360 C   0  0  0  0  0  3  0  0  0  0  0  0
   30.7280   28.0880   43.5390 C   0  0  0  0  0  0  0  0  0  0  0  0
   31.1980   28.4110   42.6190 H   0  0  0  0  0  0  0  0  0  0  0  0
   29.6490   27.2600   43.5610 N   0  0  0  0  0  0  0  0  0  0  0  0
   29.0990   26.8850   44.7300 C   0  0  0  0  0  3  0  0  0  0  0  0
   29.5910   27.3130   45.9270 N   0  0  0  0  0  0  0  0  0  0  0  0
   30.6680   26.5170   49.0230 O   0  0  0  0  0  0  0  0  0  0  0  0
   29.8610   27.3430   49.7680 C   0  0  0  0  0  0  0  0  0  0  0  0
   29.3060   26.6910   50.8680 F   0  0  0  0  0  0  0  0  0  0  0  0
   30.5690   28.4170   50.2860 F   0  0  0  0  0  0  0  0  0  0  0  0
   28.8220   27.8290   48.9840 F   0  0  0  0  0  0  0  0  0  0  0  0
  1 25  1  0  0  0  0
  1  3  1  0  0  0  0
  1  2  1  0  0  0  0
  5 10  1  0  0  0  0
  5  4  1  0  0  0  0
  6  5  2  0  0  0  0
  7  8  2  0  0  0  0
  7  6  1  0  0  0  0
  8  9  1  0  0  0  0
  9 10  2  0  0  0  0
 10  1  1  0  0  0  0
 11  7  1  0  0  0  0
 12  8  1  0  0  0  0
 13  9  1  0  0  0  0
 14 19  1  0  0  0  0
 14 20  1  0  0  0  0
 15 14  2  0  0  0  0
 16 17  2  0  0  0  0
 16 15  1  0  0  0  0
 17 18  1  0  0  0  0
 18  6  1  0  0  0  0
 18 19  2  0  0  0  0
 21 15  1  0  0  0  0
 22 23  1  0  0  0  0
 22 16  1  0  0  0  0
 24 22  1  0  0  0  0
 25 28  1  0  0  0  0
 25 26  1  0  0  0  0
 27 25  1  0  0  0  0
 30 29  2  6  0  0  0
 30 39  1  0  0  0  0
 30 28  1  0  0  0  0
 31 30  1  0  0  0  0
 32 31  1  0  0  0  0
 33 32  2  0  0  0  0
 34 36  2  0  0  0  0
 34 33  1  0  0  0  0
 35 34  1  0  0  0  0
 36 37  1  0  0  0  0
 37 38  2  0  0  0  0
 38 32  1  0  0  0  0
 39 40  1  0  0  0  0
 40 42  1  0  0  0  0
 40 41  1  0  0  0  0
 43 40  1  0  0  0  0
M  END
>  <minimizedAffinity>
-5.65773058

>  <minimizedRMSD>
0.429288536

$$$$
