
     RDKit          3D

 28 30  0  0  0  0  0  0  0  0999 V2000
   37.9088   30.8748   46.7257 C   0  0  0  0  0  0  0  0  0  0  0  0
   38.0549   31.0396   48.1368 C   0  0  0  0  0  0  0  0  0  0  0  0
   36.9292   30.8159   48.9278 C   0  0  0  0  0  0  0  0  0  0  0  0
   35.7724   30.4584   48.3189 N   0  0  0  0  0  0  0  0  0  0  0  0
   35.6640   30.3098   46.9779 C   0  0  0  0  0  0  0  0  0  0  0  0
   36.7484   30.5244   46.2059 N   0  0  0  0  0  0  0  0  0  0  0  0
   39.0962   31.1123   45.9074 C   0  0  0  0  0  0  0  0  0  0  0  0
   39.9327   32.1951   45.9078 C   0  0  0  0  0  0  0  0  0  0  0  0
   40.9441   32.0163   44.9707 C   0  0  0  0  0  0  0  0  0  0  0  0
   40.6755   30.8055   44.4268 N   0  0  0  0  0  0  0  0  0  0  0  0
   39.6013   30.2842   44.9740 N   0  0  0  0  0  0  0  0  0  0  0  0
   37.0491   30.9797   50.4038 C   0  0  0  0  0  0  0  0  0  0  0  0
   36.5391   32.2291   50.6769 F   0  0  0  0  0  0  0  0  0  0  0  0
   36.3307   30.0308   51.1062 F   0  0  0  0  0  0  0  0  0  0  0  0
   38.3777   30.9782   50.8223 F   0  0  0  0  0  0  0  0  0  0  0  0
   39.0164   31.3266   48.5293 H   0  0  0  0  0  0  0  0  0  0  0  0
   34.7263   30.0230   46.5182 H   0  0  0  0  0  0  0  0  0  0  0  0
   39.8446   33.0722   46.5321 H   0  0  0  0  0  0  0  0  0  0  0  0
   41.7723   32.6506   44.6952 H   0  0  0  0  0  0  0  0  0  0  0  0
   41.3713   30.0928   43.4106 C   0  0  0  0  0  0  0  0  0  0  0  0
   41.0704   28.7509   43.1547 C   0  0  0  0  0  0  0  0  0  0  0  0
   41.6854   27.9726   42.1940 C   0  0  0  0  0  0  0  0  0  0  0  0
   41.3552   26.9475   42.1017 H   0  0  0  0  0  0  0  0  0  0  0  0
   42.6390   28.5845   41.4707 N   0  0  0  0  0  0  0  0  0  0  0  0
   42.9627   29.8792   41.6834 C   0  0  0  0  0  0  0  0  0  0  0  0
   42.3366   30.6207   42.6400 N   0  0  0  0  0  0  0  0  0  0  0  0
   40.2879   28.3127   43.7750 H   0  0  0  0  0  0  0  0  0  0  0  0
   43.7341   30.2939   41.0645 H   0  0  0  0  0  0  0  0  0  0  0  0
  1  2  2  0
  2  3  1  0
  3 12  1  0
  4  3  2  0
  5  4  1  0
  6  1  1  0
  6  5  2  0
  7  1  1  0
  8  7  1  0
  9  8  2  0
 10  9  1  0
 10 11  1  0
 11  7  2  0
 12 13  1  0
 12 15  1  0
 12 14  1  0
  2 16  1  0
  5 17  1  0
  8 18  1  0
  9 19  1  0
 20 21  2  0
 21 22  1  0
 22 23  1  0
 22 24  2  0
 24 25  1  0
 25 26  2  0
 26 20  1  0
 21 27  1  0
 25 28  1  0
 10 20  1  0
M  ISO  5  16  14  17  14  18  14  19  14  23  14
M  END
>  <DihAtoms>  (1) 
8,9,19,20

>  <DihDeg>  (1) 
138.53823550221188

$$$$
