
 OpenBabel03272508503D

 38 42  0  0  0  0  0  0  0  0999 V2000
   37.1500   27.7800   32.4180 C   0  0  0  0  0  0  0  0  0  0  0  0
   36.4440   28.2760   31.3410 C   0  0  0  0  0  0  0  0  0  0  0  0
   35.5060   29.1260   31.9340 C   0  0  0  0  0  0  0  0  0  0  0  0
   35.6850   29.1010   33.3030 C   0  0  0  0  0  0  0  0  0  0  0  0
   36.6830   28.2790   33.5500 O   0  0  0  0  0  0  0  0  0  0  0  0
   36.5720   28.0720   30.3060 H   0  0  0  0  0  0  0  0  0  0  0  0
   34.7550   29.7140   31.4280 H   0  0  0  0  0  0  0  0  0  0  0  0
   33.5690   29.5830   34.4500 C   0  0  0  0  0  0  0  0  0  0  0  0
   34.9270   29.8350   34.2980 C   0  0  0  0  0  0  0  0  0  0  0  0
   35.5870   30.7840   35.0830 C   0  0  0  0  0  0  0  0  0  0  0  0
   34.8830   31.4960   36.0390 C   0  0  0  0  0  0  0  0  0  0  0  0
   35.2080   32.4500   36.9320 N   0  0  0  0  0  0  0  0  0  0  0  0
   34.1070   32.7660   37.5970 N   0  0  0  0  0  0  0  0  0  0  0  0
   33.0680   32.0270   37.1460 C   0  0  0  0  0  0  0  0  0  0  0  0
   33.5390   31.2030   36.1450 C   0  0  0  0  0  0  0  0  0  0  0  0
   32.8350   30.2850   35.4060 C   0  0  0  0  0  0  0  0  0  0  0  0
   33.0710   28.8380   33.8270 H   0  0  0  0  0  0  0  0  0  0  0  0
   36.6370   30.9620   34.9470 H   0  0  0  0  0  0  0  0  0  0  0  0
   36.1900   32.8220   37.0190 H   0  0  0  0  0  0  0  0  0  0  0  0
   32.0630   32.1220   37.5520 H   0  0  0  0  0  0  0  0  0  0  0  0
   31.7890   30.1280   35.5620 H   0  0  0  0  0  0  0  0  0  0  0  0
   38.2530   26.8350   32.3030 C   0  0  0  0  0  0  0  0  0  0  0  0
   39.3200   27.2300   31.7810 O   0  0  0  0  0  0  0  0  0  0  0  0
   37.5680   23.2520   32.3220 C   0  0  0  0  0  0  0  0  0  0  0  0
   37.7960   22.9010   33.6430 C   0  0  0  0  0  0  0  0  0  0  0  0
   38.1810   23.8570   34.5490 C   0  0  0  0  0  0  0  0  0  0  0  0
   38.3190   25.1210   34.0760 N   0  0  0  0  0  0  0  0  0  0  0  0
   38.0980   25.4650   32.7890 C   0  0  0  0  0  0  0  0  0  0  0  0
   37.7220   24.5130   31.9260 N   0  0  0  0  0  0  0  0  0  0  0  0
   37.2670   22.4420   31.6700 H   0  0  0  0  0  0  0  0  0  0  0  0
   37.6870   21.8990   34.0190 H   0  0  0  0  0  0  0  0  0  0  0  0
   38.4570   23.6490   35.9650 C   0  0  0  0  0  0  0  0  0  0  0  0
   39.6170   23.0480   36.4040 C   0  0  0  0  0  3  0  0  0  0  0  0
   39.8970   22.8400   37.7600 C   0  0  0  0  0  0  0  0  0  0  0  0
   40.8290   22.3610   38.0470 H   0  0  0  0  0  0  0  0  0  0  0  0
   39.0010   23.2420   38.6810 N   0  0  0  0  0  0  0  0  0  0  0  0
   37.8730   23.8290   38.2240 C   0  0  0  0  0  3  0  0  0  0  0  0
   37.6050   24.0270   36.9380 N   0  0  0  0  0  0  0  0  0  0  0  0
  1  5  1  0  0  0  0
  2  3  1  0  0  0  0
  2  1  2  0  0  0  0
  3  4  2  0  0  0  0
  4  5  1  0  0  0  0
  4  9  1  0  0  0  0
  6  2  1  0  0  0  0
  7  3  1  0  0  0  0
  8 16  1  0  0  0  0
  9  8  2  0  0  0  0
  9 10  1  0  0  0  0
 10 11  2  0  0  0  0
 11 15  1  0  0  0  0
 11 12  1  0  0  0  0
 12 19  1  0  0  0  0
 12 13  1  0  0  0  0
 14 20  1  0  0  0  0
 14 13  2  0  0  0  0
 15 14  1  0  0  0  0
 16 21  1  0  0  0  0
 16 15  2  0  0  0  0
 17  8  1  0  0  0  0
 18 10  1  0  0  0  0
 22  1  1  0  0  0  0
 22 28  1  0  0  0  0
 23 22  2  0  0  0  0
 24 25  1  0  0  0  0
 25 31  1  0  0  0  0
 25 26  2  0  0  0  0
 26 32  1  0  0  0  0
 27 26  1  0  0  0  0
 28 27  2  0  0  0  0
 29 24  2  0  0  0  0
 29 28  1  0  0  0  0
 30 24  1  0  0  0  0
 32 33  2  0  0  0  0
 32 38  1  0  0  0  0
 33 34  1  0  0  0  0
 34 35  1  0  0  0  0
 34 36  2  0  0  0  0
 37 36  1  0  0  0  0
 38 37  2  0  0  0  0
M  END
>  <minimizedAffinity>
-6.73080254

$$$$

 OpenBabel03272508503D

 38 42  0  0  0  0  0  0  0  0999 V2000
   36.5700   25.9960   32.0700 C   0  0  0  0  0  0  0  0  0  0  0  0
   35.4470   25.9430   31.2700 C   0  0  0  0  0  0  0  0  0  0  0  0
   35.2150   24.5730   31.1290 C   0  0  0  0  0  0  0  0  0  0  0  0
   36.1830   23.8820   31.8310 C   0  0  0  0  0  0  0  0  0  0  0  0
   36.9770   24.7760   32.3810 O   0  0  0  0  0  0  0  0  0  0  0  0
   34.8840   26.7430   30.8560 H   0  0  0  0  0  0  0  0  0  0  0  0
   34.4180   24.1060   30.5690 H   0  0  0  0  0  0  0  0  0  0  0  0
   37.5770   21.8830   32.1280 C   0  0  0  0  0  0  0  0  0  0  0  0
   36.3170   22.4430   31.9510 C   0  0  0  0  0  0  0  0  0  0  0  0
   35.1680   21.6510   31.8850 C   0  0  0  0  0  0  0  0  0  0  0  0
   35.2730   20.2750   31.9980 C   0  0  0  0  0  0  0  0  0  0  0  0
   34.3900   19.2580   31.9770 N   0  0  0  0  0  0  0  0  0  0  0  0
   35.0730   18.1340   32.1340 N   0  0  0  0  0  0  0  0  0  0  0  0
   36.3910   18.4090   32.2560 C   0  0  0  0  0  0  0  0  0  0  0  0
   36.5480   19.7770   32.1720 C   0  0  0  0  0  0  0  0  0  0  0  0
   37.7120   20.5000   32.2450 C   0  0  0  0  0  0  0  0  0  0  0  0
   38.4630   22.5180   32.1770 H   0  0  0  0  0  0  0  0  0  0  0  0
   34.2050   22.1060   31.7470 H   0  0  0  0  0  0  0  0  0  0  0  0
   33.3570   19.4190   31.8540 H   0  0  0  0  0  0  0  0  0  0  0  0
   37.1410   17.6320   32.3940 H   0  0  0  0  0  0  0  0  0  0  0  0
   38.6580   20.0210   32.3820 H   0  0  0  0  0  0  0  0  0  0  0  0
   37.2060   27.2340   32.5020 C   0  0  0  0  0  0  0  0  0  0  0  0
   38.3820   27.1800   32.9250 O   0  0  0  0  0  0  0  0  0  0  0  0
   35.6830   30.2570   31.1420 C   0  0  0  0  0  0  0  0  0  0  0  0
   35.1120   30.8460   32.2590 C   0  0  0  0  0  0  0  0  0  0  0  0
   35.2290   30.2410   33.4860 C   0  0  0  0  0  0  0  0  0  0  0  0
   35.9150   29.0710   33.5250 N   0  0  0  0  0  0  0  0  0  0  0  0
   36.4710   28.4960   32.4360 C   0  0  0  0  0  0  0  0  0  0  0  0
   36.3420   29.1070   31.2520 N   0  0  0  0  0  0  0  0  0  0  0  0
   35.5470   30.7950   30.2130 H   0  0  0  0  0  0  0  0  0  0  0  0
   34.5680   31.7730   32.2300 H   0  0  0  0  0  0  0  0  0  0  0  0
   34.6900   30.7310   34.7490 C   0  0  0  0  0  0  0  0  0  0  0  0
   35.4480   31.4760   35.6270 C   0  0  0  0  0  3  0  0  0  0  0  0
   34.9460   31.9550   36.8440 C   0  0  0  0  0  0  0  0  0  0  0  0
   35.5900   32.5370   37.4970 H   0  0  0  0  0  0  0  0  0  0  0  0
   33.6710   31.6800   37.1770 N   0  0  0  0  0  0  0  0  0  0  0  0
   32.9510   30.9490   36.2990 C   0  0  0  0  0  3  0  0  0  0  0  0
   33.4240   30.4940   35.1440 N   0  0  0  0  0  0  0  0  0  0  0  0
  1  5  1  0  0  0  0
  1 22  1  0  0  0  0
  2  1  2  0  0  0  0
  3  2  1  0  0  0  0
  3  4  2  0  0  0  0
  4  9  1  0  0  0  0
  4  5  1  0  0  0  0
  6  2  1  0  0  0  0
  7  3  1  0  0  0  0
  8 17  1  0  0  0  0
  8 16  1  0  0  0  0
  9  8  2  0  0  0  0
 10  9  1  0  0  0  0
 10 11  2  0  0  0  0
 11 15  1  0  0  0  0
 12 11  1  0  0  0  0
 12 13  1  0  0  0  0
 13 14  2  0  0  0  0
 14 20  1  0  0  0  0
 15 16  2  0  0  0  0
 15 14  1  0  0  0  0
 16 21  1  0  0  0  0
 18 10  1  0  0  0  0
 19 12  1  0  0  0  0
 22 23  2  0  0  0  0
 24 29  2  0  0  0  0
 24 25  1  0  0  0  0
 25 26  2  0  0  0  0
 26 27  1  0  0  0  0
 26 32  1  0  0  0  0
 28 22  1  0  0  0  0
 28 27  2  0  0  0  0
 29 28  1  0  0  0  0
 30 24  1  0  0  0  0
 31 25  1  0  0  0  0
 32 38  2  0  0  0  0
 32 33  1  0  0  0  0
 33 34  2  0  0  0  0
 34 36  1  0  0  0  0
 34 35  1  0  0  0  0
 37 36  2  0  0  0  0
 38 37  1  0  0  0  0
M  END
>  <minimizedAffinity>
-6.63146591

$$$$

 OpenBabel03272508503D

 38 42  0  0  0  0  0  0  0  0999 V2000
   37.4290   26.5260   33.8930 C   0  0  0  0  0  0  0  0  0  0  0  0
   37.4030   27.1690   35.1130 C   0  0  0  0  0  0  0  0  0  0  0  0
   38.3580   26.4770   35.8640 C   0  0  0  0  0  0  0  0  0  0  0  0
   38.8980   25.4750   35.0820 C   0  0  0  0  0  0  0  0  0  0  0  0
   38.3110   25.5400   33.9060 O   0  0  0  0  0  0  0  0  0  0  0  0
   36.8080   27.9940   35.4210 H   0  0  0  0  0  0  0  0  0  0  0  0
   38.6420   26.6730   36.8870 H   0  0  0  0  0  0  0  0  0  0  0  0
   41.1640   24.5610   34.8480 C   0  0  0  0  0  0  0  0  0  0  0  0
   39.9210   24.5210   35.4670 C   0  0  0  0  0  0  0  0  0  0  0  0
   39.6250   23.5790   36.4560 C   0  0  0  0  0  0  0  0  0  0  0  0
   40.5860   22.6590   36.8380 C   0  0  0  0  0  0  0  0  0  0  0  0
   40.6230   21.6510   37.7310 N   0  0  0  0  0  0  0  0  0  0  0  0
   41.8260   21.1030   37.6640 N   0  0  0  0  0  0  0  0  0  0  0  0
   42.5740   21.7430   36.7360 C   0  0  0  0  0  0  0  0  0  0  0  0
   41.8010   22.7470   36.1900 C   0  0  0  0  0  0  0  0  0  0  0  0
   42.1510   23.6460   35.2150 C   0  0  0  0  0  0  0  0  0  0  0  0
   41.3760   25.3040   34.0780 H   0  0  0  0  0  0  0  0  0  0  0  0
   38.6570   23.5670   36.9190 H   0  0  0  0  0  0  0  0  0  0  0  0
   39.7940   21.4110   38.3360 H   0  0  0  0  0  0  0  0  0  0  0  0
   43.6000   21.4580   36.5130 H   0  0  0  0  0  0  0  0  0  0  0  0
   43.1230   23.6350   34.7690 H   0  0  0  0  0  0  0  0  0  0  0  0
   36.5920   26.8950   32.7600 C   0  0  0  0  0  0  0  0  0  0  0  0
   36.0760   25.9790   32.0810 O   0  0  0  0  0  0  0  0  0  0  0  0
   36.4160   29.9990   30.8510 C   0  0  0  0  0  0  0  0  0  0  0  0
   35.9790   30.9170   31.7930 C   0  0  0  0  0  0  0  0  0  0  0  0
   35.7370   30.5130   33.0820 C   0  0  0  0  0  0  0  0  0  0  0  0
   35.9470   29.2010   33.3570 N   0  0  0  0  0  0  0  0  0  0  0  0
   36.3720   28.3050   32.4390 C   0  0  0  0  0  0  0  0  0  0  0  0
   36.6010   28.7260   31.1900 N   0  0  0  0  0  0  0  0  0  0  0  0
   36.5840   30.3960   29.8580 H   0  0  0  0  0  0  0  0  0  0  0  0
   35.8120   31.9570   31.5760 H   0  0  0  0  0  0  0  0  0  0  0  0
   35.2770   31.3510   34.1820 C   0  0  0  0  0  0  0  0  0  0  0  0
   35.6580   31.1190   35.4860 C   0  0  0  0  0  3  0  0  0  0  0  0
   35.2260   31.9150   36.5550 C   0  0  0  0  0  0  0  0  0  0  0  0
   35.5580   31.6840   37.5630 H   0  0  0  0  0  0  0  0  0  0  0  0
   34.4050   32.9530   36.3060 N   0  0  0  0  0  0  0  0  0  0  0  0
   34.0490   33.1580   35.0190 C   0  0  0  0  0  3  0  0  0  0  0  0
   34.4570   32.4050   34.0040 N   0  0  0  0  0  0  0  0  0  0  0  0
  1  5  1  0  0  0  0
  1  2  2  0  0  0  0
  2  6  1  0  0  0  0
  2  3  1  0  0  0  0
  3  7  1  0  0  0  0
  4  9  1  0  0  0  0
  4  3  2  0  0  0  0
  5  4  1  0  0  0  0
  8 16  2  0  0  0  0
  8  9  1  0  0  0  0
  9 10  2  0  0  0  0
 10 11  1  0  0  0  0
 10 18  1  0  0  0  0
 11 12  1  0  0  0  0
 12 19  1  0  0  0  0
 13 12  1  0  0  0  0
 14 13  2  0  0  0  0
 15 14  1  0  0  0  0
 15 11  2  0  0  0  0
 16 15  1  0  0  0  0
 17  8  1  0  0  0  0
 20 14  1  0  0  0  0
 21 16  1  0  0  0  0
 22  1  1  0  0  0  0
 23 22  2  0  0  0  0
 24 29  2  0  0  0  0
 24 25  1  0  0  0  0
 25 26  2  0  0  0  0
 26 27  1  0  0  0  0
 26 32  1  0  0  0  0
 28 22  1  0  0  0  0
 28 27  2  0  0  0  0
 29 28  1  0  0  0  0
 30 24  1  0  0  0  0
 31 25  1  0  0  0  0
 32 33  1  0  0  0  0
 33 34  2  0  0  0  0
 34 35  1  0  0  0  0
 36 34  1  0  0  0  0
 37 36  2  0  0  0  0
 38 32  2  0  0  0  0
 38 37  1  0  0  0  0
M  END
>  <minimizedAffinity>
-6.54920006

$$$$

 OpenBabel03272508503D

 38 42  0  0  0  0  0  0  0  0999 V2000
   37.1810   28.1370   31.8570 C   0  0  0  0  0  0  0  0  0  0  0  0
   36.6250   28.9210   30.8680 C   0  0  0  0  0  0  0  0  0  0  0  0
   35.7110   29.7180   31.5640 C   0  0  0  0  0  0  0  0  0  0  0  0
   35.7580   29.3840   32.9030 C   0  0  0  0  0  0  0  0  0  0  0  0
   36.6540   28.4290   33.0350 O   0  0  0  0  0  0  0  0  0  0  0  0
   36.8320   28.9300   29.8260 H   0  0  0  0  0  0  0  0  0  0  0  0
   35.0640   30.4750   31.1460 H   0  0  0  0  0  0  0  0  0  0  0  0
   33.6270   29.6450   34.0940 C   0  0  0  0  0  0  0  0  0  0  0  0
   34.9750   29.9640   33.9780 C   0  0  0  0  0  0  0  0  0  0  0  0
   35.6020   30.8350   34.8730 C   0  0  0  0  0  0  0  0  0  0  0  0
   34.8730   31.3990   35.9060 C   0  0  0  0  0  0  0  0  0  0  0  0
   35.1650   32.2500   36.9090 N   0  0  0  0  0  0  0  0  0  0  0  0
   34.0540   32.4420   37.6040 N   0  0  0  0  0  0  0  0  0  0  0  0
   33.0420   31.7260   37.0650 C   0  0  0  0  0  0  0  0  0  0  0  0
   33.5410   31.0460   35.9720 C   0  0  0  0  0  0  0  0  0  0  0  0
   32.8700   30.2000   35.1260 C   0  0  0  0  0  0  0  0  0  0  0  0
   33.1560   28.9640   33.3850 H   0  0  0  0  0  0  0  0  0  0  0  0
   36.6430   31.0660   34.7630 H   0  0  0  0  0  0  0  0  0  0  0  0
   36.1320   32.6440   37.0430 H   0  0  0  0  0  0  0  0  0  0  0  0
   32.0350   31.7340   37.4760 H   0  0  0  0  0  0  0  0  0  0  0  0
   31.8310   29.9870   35.2590 H   0  0  0  0  0  0  0  0  0  0  0  0
   38.2060   27.1290   31.6170 C   0  0  0  0  0  0  0  0  0  0  0  0
   38.2160   26.5450   30.5110 O   0  0  0  0  0  0  0  0  0  0  0  0
   41.3320   27.1190   33.4980 C   0  0  0  0  0  0  0  0  0  0  0  0
   41.0490   26.2800   34.5640 C   0  0  0  0  0  0  0  0  0  0  0  0
   39.8080   25.7030   34.6710 C   0  0  0  0  0  0  0  0  0  0  0  0
   38.9130   26.0030   33.6960 N   0  0  0  0  0  0  0  0  0  0  0  0
   39.1880   26.8210   32.6570 C   0  0  0  0  0  0  0  0  0  0  0  0
   40.4060   27.3690   32.5770 N   0  0  0  0  0  0  0  0  0  0  0  0
   42.3320   27.5330   33.4860 H   0  0  0  0  0  0  0  0  0  0  0  0
   41.7570   26.0420   35.3380 H   0  0  0  0  0  0  0  0  0  0  0  0
   39.3570   24.8030   35.7250 C   0  0  0  0  0  0  0  0  0  0  0  0
   40.0460   23.6540   36.0490 C   0  0  0  0  0  3  0  0  0  0  0  0
   39.6270   22.7780   37.0590 C   0  0  0  0  0  0  0  0  0  0  0  0
   40.2110   21.8860   37.2700 H   0  0  0  0  0  0  0  0  0  0  0  0
   38.5070   23.0640   37.7480 N   0  0  0  0  0  0  0  0  0  0  0  0
   37.8510   24.1970   37.4110 C   0  0  0  0  0  3  0  0  0  0  0  0
   38.2460   25.0290   36.4540 N   0  0  0  0  0  0  0  0  0  0  0  0
  1  5  1  0  0  0  0
  2  3  1  0  0  0  0
  2  1  2  0  0  0  0
  3  4  2  0  0  0  0
  4  5  1  0  0  0  0
  4  9  1  0  0  0  0
  6  2  1  0  0  0  0
  7  3  1  0  0  0  0
  8 16  1  0  0  0  0
  9  8  2  0  0  0  0
  9 10  1  0  0  0  0
 10 11  2  0  0  0  0
 11 15  1  0  0  0  0
 11 12  1  0  0  0  0
 12 19  1  0  0  0  0
 12 13  1  0  0  0  0
 14 20  1  0  0  0  0
 14 13  2  0  0  0  0
 15 14  1  0  0  0  0
 16 21  1  0  0  0  0
 16 15  2  0  0  0  0
 17  8  1  0  0  0  0
 18 10  1  0  0  0  0
 22  1  1  0  0  0  0
 22 28  1  0  0  0  0
 23 22  2  0  0  0  0
 24 25  1  0  0  0  0
 25 26  2  0  0  0  0
 25 31  1  0  0  0  0
 26 32  1  0  0  0  0
 27 26  1  0  0  0  0
 28 27  2  0  0  0  0
 29 28  1  0  0  0  0
 29 24  2  0  0  0  0
 30 24  1  0  0  0  0
 32 33  2  0  0  0  0
 32 38  1  0  0  0  0
 33 34  1  0  0  0  0
 34 35  1  0  0  0  0
 34 36  2  0  0  0  0
 37 36  1  0  0  0  0
 38 37  2  0  0  0  0
M  END
>  <minimizedAffinity>
-6.44186354

$$$$

 OpenBabel03272508503D

 38 42  0  0  0  0  0  0  0  0999 V2000
   38.1530   26.5620   33.8500 C   0  0  0  0  0  0  0  0  0  0  0  0
   38.1850   27.2530   35.0440 C   0  0  0  0  0  0  0  0  0  0  0  0
   39.0790   26.5130   35.8220 C   0  0  0  0  0  0  0  0  0  0  0  0
   39.5300   25.4380   35.0810 C   0  0  0  0  0  0  0  0  0  0  0  0
   38.9480   25.5060   33.9030 O   0  0  0  0  0  0  0  0  0  0  0  0
   37.6630   28.1370   35.3180 H   0  0  0  0  0  0  0  0  0  0  0  0
   39.3820   26.7240   36.8370 H   0  0  0  0  0  0  0  0  0  0  0  0
   41.7480   24.3920   34.9610 C   0  0  0  0  0  0  0  0  0  0  0  0
   40.4690   24.4160   35.5040 C   0  0  0  0  0  0  0  0  0  0  0  0
   40.0580   23.4760   36.4530 C   0  0  0  0  0  0  0  0  0  0  0  0
   40.9380   22.4920   36.8700 C   0  0  0  0  0  0  0  0  0  0  0  0
   40.8600   21.4670   37.7420 N   0  0  0  0  0  0  0  0  0  0  0  0
   42.0310   20.8480   37.7330 N   0  0  0  0  0  0  0  0  0  0  0  0
   42.8700   21.4580   36.8660 C   0  0  0  0  0  0  0  0  0  0  0  0
   42.1930   22.5180   36.2980 C   0  0  0  0  0  0  0  0  0  0  0  0
   42.6540   23.4120   35.3650 C   0  0  0  0  0  0  0  0  0  0  0  0
   42.0500   25.1350   34.2220 H   0  0  0  0  0  0  0  0  0  0  0  0
   39.0650   23.5140   36.8570 H   0  0  0  0  0  0  0  0  0  0  0  0
   39.9840   21.2670   38.2910 H   0  0  0  0  0  0  0  0  0  0  0  0
   43.8880   21.1160   36.6980 H   0  0  0  0  0  0  0  0  0  0  0  0
   43.6490   23.3500   34.9780 H   0  0  0  0  0  0  0  0  0  0  0  0
   37.3470   26.9560   32.7020 C   0  0  0  0  0  0  0  0  0  0  0  0
   37.4230   28.1390   32.3020 O   0  0  0  0  0  0  0  0  0  0  0  0
   34.6670   25.5700   30.6510 C   0  0  0  0  0  0  0  0  0  0  0  0
   34.8300   24.2030   30.8110 C   0  0  0  0  0  0  0  0  0  0  0  0
   35.8380   23.7230   31.6090 C   0  0  0  0  0  0  0  0  0  0  0  0
   36.6340   24.6460   32.2050 N   0  0  0  0  0  0  0  0  0  0  0  0
   36.4760   25.9790   32.0490 C   0  0  0  0  0  0  0  0  0  0  0  0
   35.4840   26.4210   31.2660 N   0  0  0  0  0  0  0  0  0  0  0  0
   33.8500   25.8690   30.0070 H   0  0  0  0  0  0  0  0  0  0  0  0
   34.2000   23.4700   30.3390 H   0  0  0  0  0  0  0  0  0  0  0  0
   36.1380   22.3220   31.8780 C   0  0  0  0  0  0  0  0  0  0  0  0
   35.1820   21.4470   32.3460 C   0  0  0  0  0  3  0  0  0  0  0  0
   35.4530   20.0980   32.6100 C   0  0  0  0  0  0  0  0  0  0  0  0
   34.6590   19.4550   32.9780 H   0  0  0  0  0  0  0  0  0  0  0  0
   36.6970   19.6290   32.4000 N   0  0  0  0  0  0  0  0  0  0  0  0
   37.6150   20.5080   31.9400 C   0  0  0  0  0  3  0  0  0  0  0  0
   37.3610   21.7880   31.6890 N   0  0  0  0  0  0  0  0  0  0  0  0
  1  5  1  0  0  0  0
  1  2  2  0  0  0  0
  2  6  1  0  0  0  0
  2  3  1  0  0  0  0
  3  7  1  0  0  0  0
  4  9  1  0  0  0  0
  4  3  2  0  0  0  0
  5  4  1  0  0  0  0
  8 16  2  0  0  0  0
  8  9  1  0  0  0  0
  9 10  2  0  0  0  0
 10 18  1  0  0  0  0
 10 11  1  0  0  0  0
 11 12  1  0  0  0  0
 12 19  1  0  0  0  0
 13 12  1  0  0  0  0
 14 13  2  0  0  0  0
 15 14  1  0  0  0  0
 15 11  2  0  0  0  0
 16 15  1  0  0  0  0
 17  8  1  0  0  0  0
 20 14  1  0  0  0  0
 21 16  1  0  0  0  0
 22  1  1  0  0  0  0
 23 22  2  0  0  0  0
 24 25  2  0  0  0  0
 24 29  1  0  0  0  0
 25 26  1  0  0  0  0
 26 32  1  0  0  0  0
 26 27  2  0  0  0  0
 28 27  1  0  0  0  0
 28 22  1  0  0  0  0
 29 28  2  0  0  0  0
 30 24  1  0  0  0  0
 31 25  1  0  0  0  0
 32 33  1  0  0  0  0
 33 34  2  0  0  0  0
 34 35  1  0  0  0  0
 36 34  1  0  0  0  0
 37 36  2  0  0  0  0
 38 32  2  0  0  0  0
 38 37  1  0  0  0  0
M  END
>  <minimizedAffinity>
-6.4030714

$$$$

 OpenBabel03272508503D

 38 42  0  0  0  0  0  0  0  0999 V2000
   38.5080   24.8700   35.5290 C   0  0  0  0  0  0  0  0  0  0  0  0
   38.3380   26.0810   36.1690 C   0  0  0  0  0  0  0  0  0  0  0  0
   38.4050   27.0090   35.1270 C   0  0  0  0  0  0  0  0  0  0  0  0
   38.6080   26.3340   33.9400 C   0  0  0  0  0  0  0  0  0  0  0  0
   38.6640   25.0510   34.2280 O   0  0  0  0  0  0  0  0  0  0  0  0
   38.1890   26.2740   37.2030 H   0  0  0  0  0  0  0  0  0  0  0  0
   38.3170   28.0830   35.2110 H   0  0  0  0  0  0  0  0  0  0  0  0
   40.0030   27.1400   32.0880 C   0  0  0  0  0  0  0  0  0  0  0  0
   38.7380   26.9110   32.6160 C   0  0  0  0  0  0  0  0  0  0  0  0
   37.5780   27.2240   31.9010 C   0  0  0  0  0  0  0  0  0  0  0  0
   37.6800   27.7760   30.6350 C   0  0  0  0  0  0  0  0  0  0  0  0
   36.7880   28.1800   29.7100 N   0  0  0  0  0  0  0  0  0  0  0  0
   37.4700   28.6330   28.6700 N   0  0  0  0  0  0  0  0  0  0  0  0
   38.7970   28.5270   28.9070 C   0  0  0  0  0  0  0  0  0  0  0  0
   38.9600   27.9800   30.1630 C   0  0  0  0  0  0  0  0  0  0  0  0
   40.1330   27.6940   30.8150 C   0  0  0  0  0  0  0  0  0  0  0  0
   40.8960   26.8880   32.6610 H   0  0  0  0  0  0  0  0  0  0  0  0
   36.6120   27.0390   32.3300 H   0  0  0  0  0  0  0  0  0  0  0  0
   35.7480   28.1120   29.8690 H   0  0  0  0  0  0  0  0  0  0  0  0
   39.5480   28.8410   28.1850 H   0  0  0  0  0  0  0  0  0  0  0  0
   41.0830   27.8890   30.3640 H   0  0  0  0  0  0  0  0  0  0  0  0
   38.5130   23.5820   36.2100 C   0  0  0  0  0  0  0  0  0  0  0  0
   39.3910   23.3730   37.0770 O   0  0  0  0  0  0  0  0  0  0  0  0
   35.7300   21.2500   36.5640 C   0  0  0  0  0  0  0  0  0  0  0  0
   35.6280   20.6960   35.2980 C   0  0  0  0  0  0  0  0  0  0  0  0
   36.4890   21.0920   34.3060 C   0  0  0  0  0  0  0  0  0  0  0  0
   37.4100   22.0300   34.6400 N   0  0  0  0  0  0  0  0  0  0  0  0
   37.5110   22.5720   35.8730 C   0  0  0  0  0  0  0  0  0  0  0  0
   36.6590   22.1670   36.8230 N   0  0  0  0  0  0  0  0  0  0  0  0
   35.0150   20.8850   37.2910 H   0  0  0  0  0  0  0  0  0  0  0  0
   34.8970   19.9530   35.0320 H   0  0  0  0  0  0  0  0  0  0  0  0
   36.5100   20.6060   32.9320 C   0  0  0  0  0  0  0  0  0  0  0  0
   35.8710   19.4440   32.5570 C   0  0  0  0  0  3  0  0  0  0  0  0
   35.8820   18.9630   31.2420 C   0  0  0  0  0  0  0  0  0  0  0  0
   35.3610   18.0400   31.0050 H   0  0  0  0  0  0  0  0  0  0  0  0
   36.5420   19.6600   30.2970 N   0  0  0  0  0  0  0  0  0  0  0  0
   37.1590   20.7950   30.6910 C   0  0  0  0  0  3  0  0  0  0  0  0
   37.1500   21.2540   31.9380 N   0  0  0  0  0  0  0  0  0  0  0  0
  1  2  2  0  0  0  0
  1 22  1  0  0  0  0
  2  6  1  0  0  0  0
  3  7  1  0  0  0  0
  3  2  1  0  0  0  0
  4  5  1  0  0  0  0
  4  3  2  0  0  0  0
  5  1  1  0  0  0  0
  8  9  1  0  0  0  0
  8 17  1  0  0  0  0
  9  4  1  0  0  0  0
 10 18  1  0  0  0  0
 10  9  2  0  0  0  0
 11 10  1  0  0  0  0
 12 19  1  0  0  0  0
 12 11  1  0  0  0  0
 13 14  2  0  0  0  0
 13 12  1  0  0  0  0
 14 15  1  0  0  0  0
 15 11  2  0  0  0  0
 15 16  1  0  0  0  0
 16  8  2  0  0  0  0
 20 14  1  0  0  0  0
 21 16  1  0  0  0  0
 22 23  2  0  0  0  0
 24 29  1  0  0  0  0
 24 30  1  0  0  0  0
 25 24  2  0  0  0  0
 26 27  2  0  0  0  0
 26 25  1  0  0  0  0
 27 28  1  0  0  0  0
 28 22  1  0  0  0  0
 28 29  2  0  0  0  0
 31 25  1  0  0  0  0
 32 26  1  0  0  0  0
 33 32  1  0  0  0  0
 34 33  2  0  0  0  0
 35 34  1  0  0  0  0
 36 37  2  0  0  0  0
 36 34  1  0  0  0  0
 37 38  1  0  0  0  0
 38 32  2  0  0  0  0
M  END
>  <minimizedAffinity>
-6.31480694

$$$$

 OpenBabel03272508503D

 38 42  0  0  0  0  0  0  0  0999 V2000
   37.4270   27.5820   32.8860 C   0  0  0  0  0  0  0  0  0  0  0  0
   37.0010   28.2150   31.7360 C   0  0  0  0  0  0  0  0  0  0  0  0
   36.0510   29.1270   32.2030 C   0  0  0  0  0  0  0  0  0  0  0  0
   35.9510   29.0040   33.5750 C   0  0  0  0  0  0  0  0  0  0  0  0
   36.7960   28.0640   33.9440 O   0  0  0  0  0  0  0  0  0  0  0  0
   37.3120   28.0580   30.7330 H   0  0  0  0  0  0  0  0  0  0  0  0
   35.4750   29.8220   31.6100 H   0  0  0  0  0  0  0  0  0  0  0  0
   33.7140   29.5290   34.4400 C   0  0  0  0  0  0  0  0  0  0  0  0
   35.0850   29.7580   34.4610 C   0  0  0  0  0  0  0  0  0  0  0  0
   35.6560   30.7020   35.3190 C   0  0  0  0  0  0  0  0  0  0  0  0
   34.8470   31.4320   36.1720 C   0  0  0  0  0  0  0  0  0  0  0  0
   35.0730   32.3880   37.0950 N   0  0  0  0  0  0  0  0  0  0  0  0
   33.9010   32.7270   37.6120 N   0  0  0  0  0  0  0  0  0  0  0  0
   32.9160   32.0020   37.0360 C   0  0  0  0  0  0  0  0  0  0  0  0
   33.4960   31.1620   36.1080 C   0  0  0  0  0  0  0  0  0  0  0  0
   32.8770   30.2510   35.2900 C   0  0  0  0  0  0  0  0  0  0  0  0
   33.2870   28.7870   33.7630 H   0  0  0  0  0  0  0  0  0  0  0  0
   36.7170   30.8610   35.3170 H   0  0  0  0  0  0  0  0  0  0  0  0
   36.0420   32.7440   37.3040 H   0  0  0  0  0  0  0  0  0  0  0  0
   31.8690   32.1160   37.3090 H   0  0  0  0  0  0  0  0  0  0  0  0
   31.8170   30.1120   35.3120 H   0  0  0  0  0  0  0  0  0  0  0  0
   38.4350   26.5300   32.9110 C   0  0  0  0  0  0  0  0  0  0  0  0
   39.2680   26.5290   33.8440 O   0  0  0  0  0  0  0  0  0  0  0  0
   39.2770   24.8130   29.8040 C   0  0  0  0  0  0  0  0  0  0  0  0
   38.5310   23.6470   29.8830 C   0  0  0  0  0  0  0  0  0  0  0  0
   37.7350   23.4170   30.9760 C   0  0  0  0  0  0  0  0  0  0  0  0
   37.7300   24.3750   31.9370 N   0  0  0  0  0  0  0  0  0  0  0  0
   38.4570   25.5120   31.8610 C   0  0  0  0  0  0  0  0  0  0  0  0
   39.2250   25.7110   30.7840 N   0  0  0  0  0  0  0  0  0  0  0  0
   39.8790   24.9200   28.9110 H   0  0  0  0  0  0  0  0  0  0  0  0
   38.5340   22.8870   29.1220 H   0  0  0  0  0  0  0  0  0  0  0  0
   36.8940   22.2480   31.2070 C   0  0  0  0  0  0  0  0  0  0  0  0
   35.8100   22.2840   32.0560 C   0  0  0  0  0  3  0  0  0  0  0  0
   34.9920   21.1700   32.2890 C   0  0  0  0  0  0  0  0  0  0  0  0
   34.1510   21.2570   32.9700 H   0  0  0  0  0  0  0  0  0  0  0  0
   35.2710   20.0130   31.6590 N   0  0  0  0  0  0  0  0  0  0  0  0
   36.3390   20.0060   30.8320 C   0  0  0  0  0  3  0  0  0  0  0  0
   37.1150   21.0610   30.6100 N   0  0  0  0  0  0  0  0  0  0  0  0
  1 22  1  0  0  0  0
  1  5  1  0  0  0  0
  2  3  1  0  0  0  0
  2  1  2  0  0  0  0
  3  4  2  0  0  0  0
  4  5  1  0  0  0  0
  4  9  1  0  0  0  0
  6  2  1  0  0  0  0
  7  3  1  0  0  0  0
  8  9  2  0  0  0  0
  8 16  1  0  0  0  0
  9 10  1  0  0  0  0
 10 11  2  0  0  0  0
 11 12  1  0  0  0  0
 12 19  1  0  0  0  0
 12 13  1  0  0  0  0
 14 20  1  0  0  0  0
 14 13  2  0  0  0  0
 15 11  1  0  0  0  0
 15 14  1  0  0  0  0
 16 21  1  0  0  0  0
 16 15  2  0  0  0  0
 17  8  1  0  0  0  0
 18 10  1  0  0  0  0
 22 23  2  0  0  0  0
 24 25  2  0  0  0  0
 24 29  1  0  0  0  0
 25 26  1  0  0  0  0
 26 32  1  0  0  0  0
 26 27  2  0  0  0  0
 28 27  1  0  0  0  0
 28 22  1  0  0  0  0
 29 28  2  0  0  0  0
 30 24  1  0  0  0  0
 31 25  1  0  0  0  0
 32 33  1  0  0  0  0
 33 34  2  0  0  0  0
 34 35  1  0  0  0  0
 36 34  1  0  0  0  0
 37 36  2  0  0  0  0
 38 37  1  0  0  0  0
 38 32  2  0  0  0  0
M  END
>  <minimizedAffinity>
-6.30198002

$$$$

 OpenBabel03272508503D

 38 42  0  0  0  0  0  0  0  0999 V2000
   38.2240   24.8350   35.8190 C   0  0  0  0  0  0  0  0  0  0  0  0
   38.4290   25.8910   36.6830 C   0  0  0  0  0  0  0  0  0  0  0  0
   38.1520   27.0110   35.8940 C   0  0  0  0  0  0  0  0  0  0  0  0
   37.8050   26.5890   34.6260 C   0  0  0  0  0  0  0  0  0  0  0  0
   37.8620   25.2740   34.6250 O   0  0  0  0  0  0  0  0  0  0  0  0
   38.7230   25.8720   37.7030 H   0  0  0  0  0  0  0  0  0  0  0  0
   38.1970   28.0450   36.2020 H   0  0  0  0  0  0  0  0  0  0  0  0
   38.1860   27.3480   32.3230 C   0  0  0  0  0  0  0  0  0  0  0  0
   37.4430   27.4220   33.4950 C   0  0  0  0  0  0  0  0  0  0  0  0
   36.3490   28.2820   33.6150 C   0  0  0  0  0  0  0  0  0  0  0  0
   35.9860   29.0850   32.5470 C   0  0  0  0  0  0  0  0  0  0  0  0
   35.0140   29.9950   32.3410 N   0  0  0  0  0  0  0  0  0  0  0  0
   35.1550   30.4550   31.1070 N   0  0  0  0  0  0  0  0  0  0  0  0
   36.2070   29.8540   30.5080 C   0  0  0  0  0  0  0  0  0  0  0  0
   36.7590   28.9700   31.4110 C   0  0  0  0  0  0  0  0  0  0  0  0
   37.8420   28.1460   31.2320 C   0  0  0  0  0  0  0  0  0  0  0  0
   39.0380   26.6700   32.2490 H   0  0  0  0  0  0  0  0  0  0  0  0
   35.7900   28.3220   34.5300 H   0  0  0  0  0  0  0  0  0  0  0  0
   34.3090   30.2380   33.0850 H   0  0  0  0  0  0  0  0  0  0  0  0
   36.5070   30.0810   29.4870 H   0  0  0  0  0  0  0  0  0  0  0  0
   38.3820   28.1270   30.3090 H   0  0  0  0  0  0  0  0  0  0  0  0
   38.3910   23.4350   36.1890 C   0  0  0  0  0  0  0  0  0  0  0  0
   39.3420   23.1310   36.9440 O   0  0  0  0  0  0  0  0  0  0  0  0
   35.6560   21.0240   36.0840 C   0  0  0  0  0  0  0  0  0  0  0  0
   35.7100   20.5510   34.7820 C   0  0  0  0  0  0  0  0  0  0  0  0
   36.6630   21.0310   33.9190 C   0  0  0  0  0  0  0  0  0  0  0  0
   37.5140   21.9650   34.4120 N   0  0  0  0  0  0  0  0  0  0  0  0
   37.4620   22.4270   35.6800 C   0  0  0  0  0  0  0  0  0  0  0  0
   36.5230   21.9420   36.5020 N   0  0  0  0  0  0  0  0  0  0  0  0
   34.8770   20.5960   36.7020 H   0  0  0  0  0  0  0  0  0  0  0  0
   35.0360   19.8110   34.3900 H   0  0  0  0  0  0  0  0  0  0  0  0
   36.8500   20.6360   32.5280 C   0  0  0  0  0  0  0  0  0  0  0  0
   37.7410   21.2830   31.6980 C   0  0  0  0  0  3  0  0  0  0  0  0
   37.9330   20.9170   30.3600 C   0  0  0  0  0  0  0  0  0  0  0  0
   38.6490   21.4640   29.7530 H   0  0  0  0  0  0  0  0  0  0  0  0
   37.2230   19.8910   29.8560 N   0  0  0  0  0  0  0  0  0  0  0  0
   36.3580   19.2740   30.6900 C   0  0  0  0  0  3  0  0  0  0  0  0
   36.1740   19.6190   31.9600 N   0  0  0  0  0  0  0  0  0  0  0  0
  1 22  1  0  0  0  0
  1  2  2  0  0  0  0
  2  6  1  0  0  0  0
  3  7  1  0  0  0  0
  3  2  1  0  0  0  0
  4  3  2  0  0  0  0
  5  4  1  0  0  0  0
  5  1  1  0  0  0  0
  8  9  1  0  0  0  0
  9 10  2  0  0  0  0
  9  4  1  0  0  0  0
 10 18  1  0  0  0  0
 11 10  1  0  0  0  0
 12 11  1  0  0  0  0
 12 19  1  0  0  0  0
 13 12  1  0  0  0  0
 14 13  2  0  0  0  0
 14 15  1  0  0  0  0
 15 11  2  0  0  0  0
 16 15  1  0  0  0  0
 16  8  2  0  0  0  0
 17  8  1  0  0  0  0
 20 14  1  0  0  0  0
 21 16  1  0  0  0  0
 22 23  2  0  0  0  0
 24 29  1  0  0  0  0
 24 30  1  0  0  0  0
 25 24  2  0  0  0  0
 26 27  2  0  0  0  0
 26 25  1  0  0  0  0
 27 28  1  0  0  0  0
 28 22  1  0  0  0  0
 28 29  2  0  0  0  0
 31 25  1  0  0  0  0
 32 26  1  0  0  0  0
 33 32  2  0  0  0  0
 34 33  1  0  0  0  0
 35 34  1  0  0  0  0
 36 34  2  0  0  0  0
 36 37  1  0  0  0  0
 37 38  2  0  0  0  0
 38 32  1  0  0  0  0
M  END
>  <minimizedAffinity>
-6.29532194

$$$$

 OpenBabel03272508503D

 38 42  0  0  0  0  0  0  0  0999 V2000
   37.7170   27.4170   33.9480 C   0  0  0  0  0  0  0  0  0  0  0  0
   37.0610   27.4020   32.7350 C   0  0  0  0  0  0  0  0  0  0  0  0
   36.0080   28.3000   32.9260 C   0  0  0  0  0  0  0  0  0  0  0  0
   36.0760   28.8010   34.2110 C   0  0  0  0  0  0  0  0  0  0  0  0
   37.1190   28.2430   34.7900 O   0  0  0  0  0  0  0  0  0  0  0  0
   37.2900   26.8470   31.8580 H   0  0  0  0  0  0  0  0  0  0  0  0
   35.2510   28.5740   32.2050 H   0  0  0  0  0  0  0  0  0  0  0  0
   33.8320   29.7580   34.4830 C   0  0  0  0  0  0  0  0  0  0  0  0
   35.1790   29.7600   34.8260 C   0  0  0  0  0  0  0  0  0  0  0  0
   35.6970   30.6680   35.7530 C   0  0  0  0  0  0  0  0  0  0  0  0
   34.8580   31.5920   36.3520 C   0  0  0  0  0  0  0  0  0  0  0  0
   35.0320   32.5750   37.2580 N   0  0  0  0  0  0  0  0  0  0  0  0
   33.8540   33.1440   37.4590 N   0  0  0  0  0  0  0  0  0  0  0  0
   32.9140   32.5430   36.6950 C   0  0  0  0  0  0  0  0  0  0  0  0
   33.5320   31.5430   35.9730 C   0  0  0  0  0  0  0  0  0  0  0  0
   32.9650   30.6780   35.0720 C   0  0  0  0  0  0  0  0  0  0  0  0
   33.4470   29.0410   33.7570 H   0  0  0  0  0  0  0  0  0  0  0  0
   36.7410   30.6510   36.0020 H   0  0  0  0  0  0  0  0  0  0  0  0
   35.9740   32.7840   37.6790 H   0  0  0  0  0  0  0  0  0  0  0  0
   31.8710   32.8510   36.7010 H   0  0  0  0  0  0  0  0  0  0  0  0
   31.9210   30.7170   34.8420 H   0  0  0  0  0  0  0  0  0  0  0  0
   38.9050   26.6250   34.2420 C   0  0  0  0  0  0  0  0  0  0  0  0
   39.9720   26.9170   33.6580 O   0  0  0  0  0  0  0  0  0  0  0  0
   37.5770   24.3390   36.7560 C   0  0  0  0  0  0  0  0  0  0  0  0
   38.6400   23.4810   36.9860 C   0  0  0  0  0  0  0  0  0  0  0  0
   39.8190   23.6540   36.3050 C   0  0  0  0  0  0  0  0  0  0  0  0
   39.8660   24.6840   35.4240 N   0  0  0  0  0  0  0  0  0  0  0  0
   38.8300   25.5210   35.1980 C   0  0  0  0  0  0  0  0  0  0  0  0
   37.6920   25.3300   35.8760 N   0  0  0  0  0  0  0  0  0  0  0  0
   36.6830   24.1370   37.3320 H   0  0  0  0  0  0  0  0  0  0  0  0
   38.6040   22.6640   37.6850 H   0  0  0  0  0  0  0  0  0  0  0  0
   41.0230   22.8420   36.4350 C   0  0  0  0  0  0  0  0  0  0  0  0
   42.2450   23.2650   35.9590 C   0  0  0  0  0  3  0  0  0  0  0  0
   43.4110   22.4970   36.0750 C   0  0  0  0  0  0  0  0  0  0  0  0
   44.3470   22.8830   35.6800 H   0  0  0  0  0  0  0  0  0  0  0  0
   43.3430   21.2950   36.6760 N   0  0  0  0  0  0  0  0  0  0  0  0
   42.1340   20.9040   37.1340 C   0  0  0  0  0  3  0  0  0  0  0  0
   41.0270   21.6300   37.0250 N   0  0  0  0  0  0  0  0  0  0  0  0
  1 22  1  0  0  0  0
  1  5  1  0  0  0  0
  2  3  1  0  0  0  0
  2  1  2  0  0  0  0
  3  4  2  0  0  0  0
  4  5  1  0  0  0  0
  4  9  1  0  0  0  0
  6  2  1  0  0  0  0
  7  3  1  0  0  0  0
  8  9  2  0  0  0  0
  8 16  1  0  0  0  0
  9 10  1  0  0  0  0
 10 18  1  0  0  0  0
 10 11  2  0  0  0  0
 11 12  1  0  0  0  0
 12 13  1  0  0  0  0
 12 19  1  0  0  0  0
 14 20  1  0  0  0  0
 14 13  2  0  0  0  0
 15 11  1  0  0  0  0
 15 14  1  0  0  0  0
 16 15  2  0  0  0  0
 17  8  1  0  0  0  0
 21 16  1  0  0  0  0
 22 28  1  0  0  0  0
 23 22  2  0  0  0  0
 24 25  1  0  0  0  0
 24 30  1  0  0  0  0
 25 31  1  0  0  0  0
 26 32  1  0  0  0  0
 26 25  2  0  0  0  0
 27 26  1  0  0  0  0
 28 27  2  0  0  0  0
 28 29  1  0  0  0  0
 29 24  2  0  0  0  0
 32 38  1  0  0  0  0
 33 34  1  0  0  0  0
 33 32  2  0  0  0  0
 34 36  2  0  0  0  0
 35 34  1  0  0  0  0
 36 37  1  0  0  0  0
 38 37  2  0  0  0  0
M  END
>  <minimizedAffinity>
-6.27042055

$$$$
