
 OpenBabel03262523233D

 31 33  0  0  1  0  0  0  0  0999 V2000
   39.7920   33.2460   44.7940 C   0  0  0  0  0  0  0  0  0  0  0  0
   40.7040   32.2540   44.4000 C   0  0  0  0  0  0  0  0  0  0  0  0
   40.7660   31.0670   45.1530 C   0  0  0  0  0  0  0  0  0  0  0  0
   39.9320   30.9570   46.2200 N   0  0  0  0  0  0  0  0  0  0  0  0
   39.0730   31.9200   46.5710 C   0  0  0  0  0  0  0  0  0  0  0  0
   38.9930   33.0750   45.8620 N   0  0  0  0  0  0  0  0  0  0  0  0
   38.2180   31.7310   47.7110 N   0  0  0  0  0  0  0  0  0  0  0  0
   38.0230   32.8370   48.6600 C   0  0  0  0  0  0  0  0  0  0  0  0
   37.7970   32.3670   50.0650 C   0  0  0  0  0  0  0  0  0  0  0  0
   38.3240   30.9640   50.1900 C   0  0  0  0  0  0  0  0  0  0  0  0
   37.4120   30.0980   49.3670 C   0  0  0  0  0  0  0  0  0  0  0  0
   37.5640   30.4740   47.9160 C   0  0  1  0  0  0  0  0  0  0  0  0
   39.7740   34.1430   44.1890 H   0  0  0  0  0  0  0  0  0  0  0  0
   41.3760   32.3070   43.5650 H   0  0  0  0  0  0  0  0  0  0  0  0
   41.4250   30.2340   44.9490 H   0  0  0  0  0  0  0  0  0  0  0  0
   38.9200   33.4580   48.6160 H   0  0  0  0  0  0  0  0  0  0  0  0
   37.1340   33.3810   48.2750 H   0  0  0  0  0  0  0  0  0  0  0  0
   38.3570   33.0290   50.7780 H   0  0  0  0  0  0  0  0  0  0  0  0
   36.7360   32.4280   50.3930 H   0  0  0  0  0  0  0  0  0  0  0  0
   38.3340   30.7120   51.2550 H   0  0  0  0  0  0  0  0  0  0  0  0
   39.3420   30.9560   49.7320 H   0  0  0  0  0  0  0  0  0  0  0  0
   36.3580   30.2680   49.6800 H   0  0  0  0  0  0  0  0  0  0  0  0
   37.6030   29.0270   49.5400 H   0  0  0  0  0  0  0  0  0  0  0  0
   38.2500   29.6880   47.4790 H   0  0  0  0  0  0  0  0  0  0  0  0
   36.2910   30.3300   47.1620 C   0  0  0  0  0  0  0  0  0  0  0  0
   35.1080   30.2760   47.8680 C   0  0  0  0  0  0  0  0  0  0  0  0
   33.8920   30.1420   47.2280 C   0  0  0  0  0  0  0  0  0  0  0  0
   32.9220   30.0940   47.7230 H   0  0  0  0  0  0  0  0  0  0  0  0
   33.8730   30.0650   45.8770 N   0  0  0  0  0  0  0  0  0  0  0  0
   35.0320   30.1170   45.1710 C   0  0  0  0  0  0  0  0  0  0  0  0
   36.2100   30.2470   45.8200 N   0  0  0  0  0  0  0  0  0  0  0  0
  1  6  1  0  0  0  0
  2  1  2  0  0  0  0
  2  3  1  0  0  0  0
  3  4  2  0  0  0  0
  4  5  1  0  0  0  0
  5  7  1  0  0  0  0
  6  5  2  0  0  0  0
  7 12  1  0  0  0  0
  7  8  1  0  0  0  0
  8  9  1  0  0  0  0
  9 10  1  0  0  0  0
  9 19  1  0  0  0  0
  9 18  1  0  0  0  0
 10 20  1  0  0  0  0
 11 23  1  0  0  0  0
 11 22  1  0  0  0  0
 11 10  1  0  0  0  0
 12 24  1  6  0  0  0
 12 11  1  0  0  0  0
 13  1  1  0  0  0  0
 14  2  1  0  0  0  0
 15  3  1  0  0  0  0
 16  8  1  0  0  0  0
 17  8  1  0  0  0  0
 21 10  1  0  0  0  0
 25 26  1  0  0  0  0
 25 12  1  0  0  0  0
 27 28  1  0  0  0  0
 27 26  2  0  0  0  0
 29 27  1  0  0  0  0
 30 31  1  0  0  0  0
 30 29  2  0  0  0  0
 31 25  2  0  0  0  0
M  END
>  <minimizedAffinity>
-5.59440756

>  <minimizedRMSD>
3.2980876

$$$$
