
 OpenBabel03272501353D

 34 37  0  0  1  0  0  0  0  0999 V2000
   38.5400   31.8850   46.4380 C   0  0  2  0  0  0  0  0  0  0  0  0
   38.9330   30.4300   46.2110 C   0  0  0  0  0  0  0  0  0  0  0  0
   39.7930   31.5960   45.7090 C   0  0  1  0  0  0  0  0  0  0  0  0
   37.8640   32.4860   45.8470 H   0  0  0  0  0  0  0  0  0  0  0  0
   39.3150   29.8350   47.0400 H   0  0  0  0  0  0  0  0  0  0  0  0
   38.3160   29.8900   45.4520 H   0  0  0  0  0  0  0  0  0  0  0  0
   40.7420   31.7220   46.2370 H   0  0  0  0  0  0  0  0  0  0  0  0
   39.8530   31.6810   44.2410 C   0  0  0  0  0  0  0  0  0  0  0  0
   39.2500   32.7300   43.5500 C   0  0  0  0  0  0  0  0  0  0  0  0
   39.3350   32.7390   42.1790 C   0  0  0  0  0  0  0  0  0  0  0  0
   39.9860   31.7600   41.4780 C   0  0  0  0  0  0  0  0  0  0  0  0
   40.5790   30.7260   42.1950 C   0  0  0  0  0  0  0  0  0  0  0  0
   40.4930   30.7230   43.5340 N   0  0  0  0  0  0  0  0  0  0  0  0
   38.7280   33.5160   44.0820 H   0  0  0  0  0  0  0  0  0  0  0  0
   38.8840   33.5290   41.5870 H   0  0  0  0  0  0  0  0  0  0  0  0
   40.1120   31.6680   40.4140 H   0  0  0  0  0  0  0  0  0  0  0  0
   41.1210   29.8940   41.7620 H   0  0  0  0  0  0  0  0  0  0  0  0
   38.5780   32.2490   47.8910 C   0  0  0  0  0  0  0  0  0  0  0  0
   39.2730   33.2390   48.2420 O   0  0  0  0  0  0  0  0  0  0  0  0
   37.4370   30.5090   51.0020 C   0  0  0  0  0  0  0  0  0  0  0  0
   38.2030   31.2890   50.1340 C   0  0  0  0  0  0  0  0  0  0  0  0
   37.8050   31.4460   48.8270 C   0  0  0  0  0  0  0  0  0  0  0  0
   36.6730   30.8220   48.4490 N   0  0  0  0  0  0  0  0  0  0  0  0
   35.9380   30.0690   49.2870 C   0  0  0  0  0  0  0  0  0  0  0  0
   36.3060   29.9020   50.5680 N   0  0  0  0  0  0  0  0  0  0  0  0
   37.7960   30.4170   52.0310 H   0  0  0  0  0  0  0  0  0  0  0  0
   39.0910   31.7620   50.4820 H   0  0  0  0  0  0  0  0  0  0  0  0
   34.7310   29.4450   48.7500 C   0  0  0  0  0  0  0  0  0  0  0  0
   34.0450   28.5100   49.4980 C   0  0  0  0  0  0  0  0  0  0  0  0
   32.9040   27.9740   48.8900 C   0  0  0  0  0  0  0  0  0  0  0  0
   32.2920   27.2270   49.4020 H   0  0  0  0  0  0  0  0  0  0  0  0
   32.5020   28.3410   47.6700 N   0  0  0  0  0  0  0  0  0  0  0  0
   33.1930   29.2560   46.9670 C   0  0  0  0  0  0  0  0  0  0  0  0
   34.3150   29.8060   47.5210 N   0  0  0  0  0  0  0  0  0  0  0  0
  1  4  1  6  0  0  0
  1 18  1  0  0  0  0
  2  1  1  0  0  0  0
  2  5  1  0  0  0  0
  3  2  1  0  0  0  0
  3  7  1  1  0  0  0
  3  1  1  0  0  0  0
  6  2  1  0  0  0  0
  8  3  1  0  0  0  0
  9 14  1  0  0  0  0
  9  8  1  0  0  0  0
 10  9  2  0  0  0  0
 11 10  1  0  0  0  0
 11 12  2  0  0  0  0
 12 13  1  0  0  0  0
 13  8  2  0  0  0  0
 15 10  1  0  0  0  0
 16 11  1  0  0  0  0
 17 12  1  0  0  0  0
 18 19  2  0  0  0  0
 18 22  1  0  0  0  0
 20 26  1  0  0  0  0
 21 27  1  0  0  0  0
 21 20  2  0  0  0  0
 22 21  1  0  0  0  0
 23 22  2  0  0  0  0
 23 24  1  0  0  0  0
 24 25  2  0  0  0  0
 25 20  1  0  0  0  0
 28 24  1  0  0  0  0
 28 29  1  0  0  0  0
 30 31  1  0  0  0  0
 30 29  2  0  0  0  0
 32 30  1  0  0  0  0
 33 34  1  0  0  0  0
 33 32  2  0  0  0  0
 34 28  2  0  0  0  0
M  END
>  <minimizedAffinity>
-6.22041464

>  <minimizedRMSD>
1.4820962

$$$$
