
     RDKit          3D

 30 32  0  0  0  0  0  0  0  0999 V2000
   38.0951   33.1451   49.4782 C   0  0  0  0  0  0  0  0  0  0  0  0
   38.9371   33.0669   48.3647 C   0  0  0  0  0  0  0  0  0  0  0  0
   38.7091   32.0495   47.4395 C   0  0  0  0  0  0  0  0  0  0  0  0
   37.6835   31.1947   47.6737 N   0  0  0  0  0  0  0  0  0  0  0  0
   36.8854   31.2854   48.7487 C   0  0  0  0  0  0  0  0  0  0  0  0
   37.0742   32.2581   49.6685 N   0  0  0  0  0  0  0  0  0  0  0  0
   35.8222   30.3332   48.9133 N   0  0  0  0  0  0  0  0  0  0  0  0
   34.7456   30.1945   47.9302 C   0  0  0  0  0  0  0  0  0  0  0  0
   34.0168   28.9702   48.3616 C   0  0  0  0  0  0  0  0  0  0  0  0
   34.8575   28.3213   49.4383 C   0  0  0  0  0  0  0  0  0  0  0  0
   35.6746   29.4211   50.0224 C   0  0  0  0  0  0  0  0  0  0  0  0
   38.1706   33.8799   50.2544 H   0  0  0  0  0  0  0  0  0  0  0  0
   39.3485   31.9829   46.5855 H   0  0  0  0  0  0  0  0  0  0  0  0
   34.0780   31.0690   48.0459 H   0  0  0  0  0  0  0  0  0  0  0  0
   35.1890   30.0988   46.9162 H   0  0  0  0  0  0  0  0  0  0  0  0
   34.0017   28.2441   47.5061 H   0  0  0  0  0  0  0  0  0  0  0  0
   32.9885   29.2058   48.7095 H   0  0  0  0  0  0  0  0  0  0  0  0
   35.4274   27.4405   49.0900 H   0  0  0  0  0  0  0  0  0  0  0  0
   34.1344   27.9398   50.2102 H   0  0  0  0  0  0  0  0  0  0  0  0
   36.7031   29.0309   50.2330 H   0  0  0  0  0  0  0  0  0  0  0  0
   35.3024   29.8733   50.9413 H   0  0  0  0  0  0  0  0  0  0  0  0
   39.9988   34.0569   48.2466 C   0  0  0  0  0  0  0  0  0  0  0  0
   39.7540   35.4099   48.1723 C   0  0  0  0  0  0  0  0  0  0  0  0
   40.7976   36.3187   48.0604 C   0  0  0  0  0  0  0  0  0  0  0  0
   40.6658   37.3903   47.9983 H   0  0  0  0  0  0  0  0  0  0  0  0
   42.0373   35.8492   48.0268 N   0  0  0  0  0  0  0  0  0  0  0  0
   42.2543   34.5256   48.1008 C   0  0  0  0  0  0  0  0  0  0  0  0
   41.2606   33.5954   48.2115 N   0  0  0  0  0  0  0  0  0  0  0  0
   38.7652   35.7921   48.1985 H   0  0  0  0  0  0  0  0  0  0  0  0
   43.2673   34.1186   48.0749 H   0  0  0  0  0  0  0  0  0  0  0  0
  1  6  2  0
  2  1  1  0
  3  4  1  0
  3  2  2  0
  4  5  2  0
  5  7  1  0
  5  6  1  0
  7 11  1  0
  8  9  1  0
  8  7  1  0
  9 10  1  0
 10 11  1  0
  1 12  1  0
  3 13  1  0
  8 14  1  0
  8 15  1  0
  9 16  1  0
  9 17  1  0
 10 18  1  0
 10 19  1  0
 11 20  1  0
 11 21  1  0
 22 23  2  0
 23 24  1  0
 24 25  1  0
 24 26  2  0
 26 27  1  0
 27 28  2  0
 28 22  1  0
 23 29  1  0
 27 30  1  0
  2 22  1  0
M  ISO  8  12  14  13  14  14  13  15  13  16  13  17  13  18  13  19  13
M  ISO  3  20  13  21  13  25  14
M  END
>  <DihAtoms>  (1) 
0,1,21,22

>  <DihDeg>  (1) 
-179.99963925932684

$$$$
