REMARK  Name = 
REMARK  2 active torsions:
REMARK  status: ('A' for Active; 'I' for Inactive)
REMARK    1  A    between atoms: C_2  and  C_12
REMARK    2  A    between atoms: C_20  and  C_36
REMARK                            x       y       z     vdW  Elec       q    Type
REMARK                         _______ _______ _______ _____ _____    ______ ____
ROOT
ATOM      1  C   UNL     1      35.839  28.915  49.383  0.00  0.00    +0.000 A 
ATOM      2  C   UNL     1      35.863  30.083  48.592  0.00  0.00    +0.000 A 
ATOM      3  C   UNL     1      34.782  30.304  47.692  0.00  0.00    +0.000 A 
ATOM      4  N   UNL     1      33.778  29.386  47.624  0.00  0.00    +0.000 NA
ATOM      5  C   UNL     1      33.821  28.284  48.409  0.00  0.00    +0.000 A 
ATOM      6  N   UNL     1      34.820  28.052  49.265  0.00  0.00    +0.000 NA
ATOM      7  N   UNL     1      32.733  27.340  48.271  0.00  0.00    +0.000 N 
ATOM      8  C   UNL     1      31.358  27.646  48.540  0.00  0.00    +0.000 C 
ATOM      9  C   UNL     1      30.607  26.448  48.048  0.00  0.00    +0.000 C 
ATOM     10  C   UNL     1      31.581  25.621  47.235  0.00  0.00    +0.000 C 
ATOM     11  C   UNL     1      32.899  25.941  47.834  0.00  0.00    +0.000 C 
ATOM     12  H   UNL     1      36.688  28.820  50.042  0.00  0.00    +0.000 HD
ATOM     13  H   UNL     1      34.703  31.157  47.052  0.00  0.00    +0.000 HD
ATOM     14  H   UNL     1      31.183  27.895  49.606  0.00  0.00    +0.000 HD
ATOM     15  H   UNL     1      31.091  28.498  47.879  0.00  0.00    +0.000 HD
ATOM     16  H   UNL     1      29.708  26.725  47.463  0.00  0.00    +0.000 HD
ATOM     17  H   UNL     1      30.242  25.887  48.934  0.00  0.00    +0.000 HD
ATOM     18  H   UNL     1      31.310  24.557  47.447  0.00  0.00    +0.000 HD
ATOM     19  H   UNL     1      31.485  25.840  46.166  0.00  0.00    +0.000 HD
ATOM     20  H   UNL     1      33.169  25.297  48.669  0.00  0.00    +0.000 HD
ATOM     21  H   UNL     1      33.701  25.916  47.068  0.00  0.00    +0.000 HD
ENDROOT
BRANCH   2  22
ATOM     22  C   UNL     1      36.847  31.106  48.550  0.00  0.00    +0.000 A 
ATOM     23  N   UNL     1      36.788  32.013  49.562  0.00  0.00    +0.000 NA
ATOM     24  C   UNL     1      37.665  33.031  49.594  0.00  0.00    +0.000 A 
ATOM     25  N   UNL     1      38.640  33.238  48.669  0.00  0.00    +0.000 NA
ATOM     26  C   UNL     1      38.729  32.357  47.648  0.00  0.00    +0.000 A 
ATOM     27  C   UNL     1      39.669  32.490  46.640  0.00  0.00    +0.000 A 
ATOM     28  C   UNL     1      39.714  31.574  45.587  0.00  0.00    +0.000 A 
ATOM     29  C   UNL     1      38.797  30.515  45.563  0.00  0.00    +0.000 A 
ATOM     30  C   UNL     1      37.874  30.420  46.595  0.00  0.00    +0.000 A 
ATOM     31  C   UNL     1      37.836  31.321  47.618  0.00  0.00    +0.000 A 
ATOM     32  H   UNL     1      37.646  33.776  50.391  0.00  0.00    +0.000 HD
ATOM     33  H   UNL     1      40.327  33.331  46.748  0.00  0.00    +0.000 HD
ATOM     34  H   UNL     1      40.480  31.770  44.856  0.00  0.00    +0.000 HD
ATOM     35  H   UNL     1      38.994  29.927  44.681  0.00  0.00    +0.000 HD
BRANCH  30  36
ATOM     36  C   UNL     1      37.105  29.236  46.226  0.00  0.00    +0.000 A 
ATOM     37  C   UNL     1      37.394  28.233  45.317  0.00  0.00    +0.000 A 
ATOM     38  C   UNL     1      36.618  27.177  44.909  0.00  0.00    +0.000 A 
ATOM     39  H   UNL     1      37.038  26.499  44.182  0.00  0.00    +0.000 HD
ATOM     40  N   UNL     1      35.418  27.176  45.516  0.00  0.00    +0.000 NA
ATOM     41  C   UNL     1      35.061  28.113  46.408  0.00  0.00    +0.000 A 
ATOM     42  N   UNL     1      35.848  29.131  46.781  0.00  0.00    +0.000 NA
ENDBRANCH  30  36
ENDBRANCH   2  22
TORSDOF 2
