
 OpenBabel03272507553D

 21 22  0  0  0  0  0  0  0  0999 V2000
   35.1890   28.6380   49.9620 C   0  0  0  0  0  0  0  0  0  0  0  0
   36.2220   29.6040   49.8400 C   0  0  0  0  0  0  0  0  0  0  0  0
   36.1250   30.5470   48.8170 C   0  0  0  0  0  0  0  0  0  0  0  0
   35.0480   30.5000   47.9860 N   0  0  0  0  0  0  0  0  0  0  0  0
   34.0740   29.5590   48.1310 C   0  0  0  0  0  0  0  0  0  0  0  0
   34.1390   28.6430   49.1010 N   0  0  0  0  0  0  0  0  0  0  0  0
   33.0430   29.6760   47.1690 N   0  0  0  0  0  0  0  0  0  0  0  0
   35.2170   27.8850   50.7380 H   0  0  0  0  0  0  0  0  0  0  0  0
   32.8480   28.7060   46.7960 H   0  0  0  0  0  0  0  0  0  0  0  0
   32.5670   30.5500   46.8800 H   0  0  0  0  0  0  0  0  0  0  0  0
   37.1670   31.5440   48.6710 C   0  0  0  0  0  0  0  0  0  0  0  0
   37.9530   31.2880   47.5510 C   0  0  0  0  0  0  0  0  0  0  0  0
   39.0230   32.1240   47.2150 C   0  0  0  0  0  0  0  0  0  0  0  0
   39.6580   31.9610   46.3540 H   0  0  0  0  0  0  0  0  0  0  0  0
   39.2500   33.1820   48.0270 N   0  0  0  0  0  0  0  0  0  0  0  0
   38.4820   33.4220   49.1110 C   0  0  0  0  0  0  0  0  0  0  0  0
   37.4560   32.6150   49.4300 N   0  0  0  0  0  0  0  0  0  0  0  0
   37.3550   29.5650   50.8050 C   0  0  0  0  0  0  0  0  0  0  0  0
   38.5610   29.8010   50.1830 F   0  0  0  0  0  0  0  0  0  0  0  0
   37.1370   30.5430   51.7470 F   0  0  0  0  0  0  0  0  0  0  0  0
   37.4410   28.3530   51.4630 F   0  0  0  0  0  0  0  0  0  0  0  0
  1  8  1  0  0  0  0
  2  1  1  0  0  0  0
  2 18  1  0  0  0  0
  3  2  2  0  0  0  0
  4  5  2  0  0  0  0
  4  3  1  0  0  0  0
  5  6  1  0  0  0  0
  6  1  2  0  0  0  0
  7  5  1  0  0  0  0
  9  7  1  0  0  0  0
 10  7  1  0  0  0  0
 11  3  1  0  0  0  0
 11 17  1  0  0  0  0
 12 11  2  0  0  0  0
 13 12  1  0  0  0  0
 13 15  2  0  0  0  0
 14 13  1  0  0  0  0
 15 16  1  0  0  0  0
 16 17  2  0  0  0  0
 18 21  1  0  0  0  0
 18 20  1  0  0  0  0
 19 18  1  0  0  0  0
M  END
>  <minimizedAffinity>
-5.84676027

>  <minimizedRMSD>
1.39504611

$$$$
