
 OpenBabel03272505563D

 32 34  0  0  1  0  0  0  0  0999 V2000
   37.7640   26.2470   33.2660 C   0  0  2  0  0  0  0  0  0  0  0  0
   38.4280   25.2270   34.1650 C   0  0  0  0  0  0  0  0  0  0  0  0
   37.9840   25.3490   35.5930 C   0  0  2  0  0  0  0  0  0  0  0  0
   38.1730   26.7340   36.1560 C   0  0  0  0  0  0  0  0  0  0  0  0
   37.8010   27.8240   35.2000 C   0  0  0  0  0  0  0  0  0  0  0  0
   37.0220   27.3050   34.0040 C   0  0  0  0  0  0  0  0  0  0  0  0
   38.5080   26.7320   32.5950 H   0  0  0  0  0  0  0  0  0  0  0  0
   39.5120   25.4730   34.1600 H   0  0  0  0  0  0  0  0  0  0  0  0
   38.2520   24.1800   33.8640 H   0  0  0  0  0  0  0  0  0  0  0  0
   36.8910   25.0770   35.6020 H   0  0  0  0  0  0  0  0  0  0  0  0
   39.2270   26.8090   36.5100 H   0  0  0  0  0  0  0  0  0  0  0  0
   37.5110   26.8250   37.0490 H   0  0  0  0  0  0  0  0  0  0  0  0
   38.7100   28.3620   34.8240 H   0  0  0  0  0  0  0  0  0  0  0  0
   37.1500   28.6030   35.6630 H   0  0  0  0  0  0  0  0  0  0  0  0
   36.8410   28.1730   33.3630 H   0  0  0  0  0  0  0  0  0  0  0  0
   36.0630   26.8610   34.3970 H   0  0  0  0  0  0  0  0  0  0  0  0
   36.8070   25.5670   32.3490 C   0  0  0  0  0  0  0  0  0  0  0  0
   36.9570   24.1770   32.1890 C   0  0  0  0  0  0  0  0  0  0  0  0
   36.0740   23.5350   31.3300 C   0  0  0  0  0  0  0  0  0  0  0  0
   35.1040   24.2690   30.6770 N   0  0  0  0  0  0  0  0  0  0  0  0
   34.9960   25.6210   30.8620 C   0  0  0  0  0  0  0  0  0  0  0  0
   35.8450   26.2440   31.6910 N   0  0  0  0  0  0  0  0  0  0  0  0
   37.6830   23.5570   32.6610 H   0  0  0  0  0  0  0  0  0  0  0  0
   36.0780   22.4870   31.1200 H   0  0  0  0  0  0  0  0  0  0  0  0
   34.2260   26.1680   30.3370 H   0  0  0  0  0  0  0  0  0  0  0  0
   38.7070   24.3950   36.4330 C   0  0  0  0  0  0  0  0  0  0  0  0
   38.3360   24.0960   37.7280 C   0  0  0  0  0  3  0  0  0  0  0  0
   39.0340   23.1870   38.5100 C   0  0  0  0  0  0  0  0  0  0  0  0
   38.7690   22.9310   39.5270 H   0  0  0  0  0  0  0  0  0  0  0  0
   40.1270   22.5570   38.0040 N   0  0  0  0  0  0  0  0  0  0  0  0
   40.4770   22.8580   36.7410 C   0  0  0  0  0  3  0  0  0  0  0  0
   39.8050   23.7370   35.9780 N   0  0  0  0  0  0  0  0  0  0  0  0
  1  7  1  6  0  0  0
  1  6  1  0  0  0  0
  1  2  1  0  0  0  0
  2  3  1  0  0  0  0
  3 10  1  1  0  0  0
  3  4  1  0  0  0  0
  3 26  1  0  0  0  0
  4 11  1  0  0  0  0
  4 12  1  0  0  0  0
  5 14  1  0  0  0  0
  5  4  1  0  0  0  0
  6 16  1  0  0  0  0
  6  5  1  0  0  0  0
  8  2  1  0  0  0  0
  9  2  1  0  0  0  0
 13  5  1  0  0  0  0
 15  6  1  0  0  0  0
 17  1  1  0  0  0  0
 18 17  1  0  0  0  0
 18 23  1  0  0  0  0
 19 18  2  0  0  0  0
 20 21  2  0  0  0  0
 20 19  1  0  0  0  0
 21 22  1  0  0  0  0
 22 17  2  0  0  0  0
 24 19  1  0  0  0  0
 25 21  1  0  0  0  0
 26 27  1  0  0  0  0
 27 28  2  0  0  0  0
 28 29  1  0  0  0  0
 30 28  1  0  0  0  0
 31 30  2  0  0  0  0
 32 26  2  0  0  0  0
 32 31  1  0  0  0  0
M  END
>  <minimizedAffinity>
-5.23034573

$$$$

 OpenBabel03272505563D

 32 34  0  0  1  0  0  0  0  0999 V2000
   37.4610   26.9590   33.2220 C   0  0  2  0  0  0  0  0  0  0  0  0
   38.9620   26.7750   33.1590 C   0  0  0  0  0  0  0  0  0  0  0  0
   39.5400   26.3350   34.4720 C   0  0  2  0  0  0  0  0  0  0  0  0
   39.1800   27.2490   35.6140 C   0  0  0  0  0  0  0  0  0  0  0  0
   37.7560   27.7130   35.5830 C   0  0  0  0  0  0  0  0  0  0  0  0
   36.9090   26.9200   34.6040 C   0  0  0  0  0  0  0  0  0  0  0  0
   37.1560   27.9160   32.7410 H   0  0  0  0  0  0  0  0  0  0  0  0
   39.3870   27.7820   32.9610 H   0  0  0  0  0  0  0  0  0  0  0  0
   39.2930   26.0440   32.4030 H   0  0  0  0  0  0  0  0  0  0  0  0
   39.1270   25.3030   34.6610 H   0  0  0  0  0  0  0  0  0  0  0  0
   39.9100   28.0900   35.6110 H   0  0  0  0  0  0  0  0  0  0  0  0
   39.3290   26.6770   36.5600 H   0  0  0  0  0  0  0  0  0  0  0  0
   37.6910   28.7990   35.3100 H   0  0  0  0  0  0  0  0  0  0  0  0
   37.2460   27.6110   36.5700 H   0  0  0  0  0  0  0  0  0  0  0  0
   35.9120   27.3680   34.6370 H   0  0  0  0  0  0  0  0  0  0  0  0
   36.9060   25.8500   34.9570 H   0  0  0  0  0  0  0  0  0  0  0  0
   36.7860   25.8980   32.4260 C   0  0  0  0  0  0  0  0  0  0  0  0
   37.2600   24.5820   32.5880 C   0  0  0  0  0  0  0  0  0  0  0  0
   36.6420   23.5850   31.8430 C   0  0  0  0  0  0  0  0  0  0  0  0
   35.6090   23.9140   30.9890 N   0  0  0  0  0  0  0  0  0  0  0  0
   35.1810   25.2090   30.8630 C   0  0  0  0  0  0  0  0  0  0  0  0
   35.7740   26.1730   31.5800 N   0  0  0  0  0  0  0  0  0  0  0  0
   38.0510   24.2650   33.2260 H   0  0  0  0  0  0  0  0  0  0  0  0
   36.9040   22.5490   31.8730 H   0  0  0  0  0  0  0  0  0  0  0  0
   34.3700   25.4350   30.1860 H   0  0  0  0  0  0  0  0  0  0  0  0
   40.9960   26.2420   34.3810 C   0  0  0  0  0  0  0  0  0  0  0  0
   41.7700   27.1640   33.7070 C   0  0  0  0  0  3  0  0  0  0  0  0
   43.1520   27.0600   33.6310 C   0  0  0  0  0  0  0  0  0  0  0  0
   43.7870   27.7650   33.1120 H   0  0  0  0  0  0  0  0  0  0  0  0
   43.7870   26.0210   34.2350 N   0  0  0  0  0  0  0  0  0  0  0  0
   43.0200   25.1300   34.8870 C   0  0  0  0  0  3  0  0  0  0  0  0
   41.6810   25.2250   34.9650 N   0  0  0  0  0  0  0  0  0  0  0  0
  1  7  1  6  0  0  0
  1  6  1  0  0  0  0
  2  1  1  0  0  0  0
  2  3  1  0  0  0  0
  3 10  1  1  0  0  0
  3  4  1  0  0  0  0
  4 12  1  0  0  0  0
  5  4  1  0  0  0  0
  5 14  1  0  0  0  0
  6 15  1  0  0  0  0
  6 16  1  0  0  0  0
  6  5  1  0  0  0  0
  8  2  1  0  0  0  0
  9  2  1  0  0  0  0
 11  4  1  0  0  0  0
 13  5  1  0  0  0  0
 17 18  1  0  0  0  0
 17  1  1  0  0  0  0
 18 23  1  0  0  0  0
 19 24  1  0  0  0  0
 19 18  2  0  0  0  0
 20 19  1  0  0  0  0
 21 20  2  0  0  0  0
 21 22  1  0  0  0  0
 22 17  2  0  0  0  0
 25 21  1  0  0  0  0
 26  3  1  0  0  0  0
 26 32  1  0  0  0  0
 27 26  2  0  0  0  0
 28 27  1  0  0  0  0
 28 30  2  0  0  0  0
 29 28  1  0  0  0  0
 30 31  1  0  0  0  0
 31 32  2  0  0  0  0
M  END
>  <minimizedAffinity>
-4.92653513

$$$$

 OpenBabel03272505563D

 32 34  0  0  1  0  0  0  0  0999 V2000
   39.6080   22.4830   36.5860 C   0  0  2  0  0  0  0  0  0  0  0  0
   38.9850   23.4160   35.5700 C   0  0  0  0  0  0  0  0  0  0  0  0
   38.6940   24.7720   36.1440 C   0  0  2  0  0  0  0  0  0  0  0  0
   37.8430   24.7190   37.3860 C   0  0  0  0  0  0  0  0  0  0  0  0
   38.2230   23.6170   38.3250 C   0  0  0  0  0  0  0  0  0  0  0  0
   39.5670   23.0010   37.9820 C   0  0  0  0  0  0  0  0  0  0  0  0
   39.1210   21.4820   36.5600 H   0  0  0  0  0  0  0  0  0  0  0  0
   37.9990   22.9750   35.3130 H   0  0  0  0  0  0  0  0  0  0  0  0
   39.6020   23.5760   34.6700 H   0  0  0  0  0  0  0  0  0  0  0  0
   39.6950   25.2290   36.3840 H   0  0  0  0  0  0  0  0  0  0  0  0
   36.7790   24.6630   37.0600 H   0  0  0  0  0  0  0  0  0  0  0  0
   37.9790   25.6860   37.9260 H   0  0  0  0  0  0  0  0  0  0  0  0
   37.4500   22.8040   38.3290 H   0  0  0  0  0  0  0  0  0  0  0  0
   38.3150   23.9610   39.3820 H   0  0  0  0  0  0  0  0  0  0  0  0
   39.7200   22.1910   38.7010 H   0  0  0  0  0  0  0  0  0  0  0  0
   40.3420   23.8120   38.0840 H   0  0  0  0  0  0  0  0  0  0  0  0
   41.0310   22.2260   36.2320 C   0  0  0  0  0  0  0  0  0  0  0  0
   41.7160   21.2660   37.0020 C   0  0  0  0  0  0  0  0  0  0  0  0
   43.0460   21.0250   36.6840 C   0  0  0  0  0  0  0  0  0  0  0  0
   43.6370   21.7210   35.6480 N   0  0  0  0  0  0  0  0  0  0  0  0
   42.9320   22.6460   34.9260 C   0  0  0  0  0  0  0  0  0  0  0  0
   41.6480   22.8820   35.2290 N   0  0  0  0  0  0  0  0  0  0  0  0
   41.3190   20.7010   37.8120 H   0  0  0  0  0  0  0  0  0  0  0  0
   43.6770   20.3250   37.1880 H   0  0  0  0  0  0  0  0  0  0  0  0
   43.4220   23.1740   34.1210 H   0  0  0  0  0  0  0  0  0  0  0  0
   38.0270   25.6110   35.1490 C   0  0  0  0  0  0  0  0  0  0  0  0
   37.6460   26.9150   35.3940 C   0  0  0  0  0  3  0  0  0  0  0  0
   37.0140   27.6960   34.4370 C   0  0  0  0  0  0  0  0  0  0  0  0
   36.7040   28.7200   34.5970 H   0  0  0  0  0  0  0  0  0  0  0  0
   36.7490   27.1790   33.2070 N   0  0  0  0  0  0  0  0  0  0  0  0
   37.1250   25.9080   32.9840 C   0  0  0  0  0  3  0  0  0  0  0  0
   37.7380   25.1450   33.9060 N   0  0  0  0  0  0  0  0  0  0  0  0
  1  7  1  6  0  0  0
  1  6  1  0  0  0  0
  2  3  1  0  0  0  0
  2  1  1  0  0  0  0
  3 10  1  1  0  0  0
  3  4  1  0  0  0  0
  4 12  1  0  0  0  0
  4  5  1  0  0  0  0
  5 13  1  0  0  0  0
  5 14  1  0  0  0  0
  6 16  1  0  0  0  0
  6  5  1  0  0  0  0
  6 15  1  0  0  0  0
  8  2  1  0  0  0  0
  9  2  1  0  0  0  0
 11  4  1  0  0  0  0
 17  1  1  0  0  0  0
 17 18  1  0  0  0  0
 18 23  1  0  0  0  0
 19 18  2  0  0  0  0
 19 24  1  0  0  0  0
 20 19  1  0  0  0  0
 21 22  1  0  0  0  0
 21 20  2  0  0  0  0
 22 17  2  0  0  0  0
 25 21  1  0  0  0  0
 26 27  1  0  0  0  0
 26  3  1  0  0  0  0
 28 29  1  0  0  0  0
 28 27  2  0  0  0  0
 30 28  1  0  0  0  0
 31 30  2  0  0  0  0
 31 32  1  0  0  0  0
 32 26  2  0  0  0  0
M  END
>  <minimizedAffinity>
-4.88648319

$$$$

 OpenBabel03272505563D

 32 34  0  0  1  0  0  0  0  0999 V2000
   37.0560   27.9200   32.0060 C   0  0  2  0  0  0  0  0  0  0  0  0
   36.4380   28.5310   33.2460 C   0  0  0  0  0  0  0  0  0  0  0  0
   35.3890   29.5520   32.9180 C   0  0  2  0  0  0  0  0  0  0  0  0
   35.8870   30.6390   32.0000 C   0  0  0  0  0  0  0  0  0  0  0  0
   36.7590   30.1340   30.8930 C   0  0  0  0  0  0  0  0  0  0  0  0
   36.6930   28.6240   30.7460 C   0  0  0  0  0  0  0  0  0  0  0  0
   38.1660   27.8830   32.0900 H   0  0  0  0  0  0  0  0  0  0  0  0
   37.2560   29.0850   33.7550 H   0  0  0  0  0  0  0  0  0  0  0  0
   35.9690   27.7960   33.9220 H   0  0  0  0  0  0  0  0  0  0  0  0
   34.5500   28.9860   32.4230 H   0  0  0  0  0  0  0  0  0  0  0  0
   36.3900   31.4050   32.6330 H   0  0  0  0  0  0  0  0  0  0  0  0
   34.9930   31.1200   31.5360 H   0  0  0  0  0  0  0  0  0  0  0  0
   37.8290   30.4290   31.0530 H   0  0  0  0  0  0  0  0  0  0  0  0
   36.4720   30.5430   29.8950 H   0  0  0  0  0  0  0  0  0  0  0  0
   37.3910   28.3690   29.9430 H   0  0  0  0  0  0  0  0  0  0  0  0
   35.6290   28.3600   30.4830 H   0  0  0  0  0  0  0  0  0  0  0  0
   36.6340   26.4980   31.8780 C   0  0  0  0  0  0  0  0  0  0  0  0
   35.4720   26.2440   31.1240 C   0  0  0  0  0  0  0  0  0  0  0  0
   35.0660   24.9210   31.0060 C   0  0  0  0  0  0  0  0  0  0  0  0
   35.7990   23.9250   31.6180 N   0  0  0  0  0  0  0  0  0  0  0  0
   36.9230   24.2190   32.3430 C   0  0  0  0  0  0  0  0  0  0  0  0
   37.3190   25.4940   32.4600 N   0  0  0  0  0  0  0  0  0  0  0  0
   34.8640   26.9660   30.6310 H   0  0  0  0  0  0  0  0  0  0  0  0
   34.2050   24.5930   30.4630 H   0  0  0  0  0  0  0  0  0  0  0  0
   37.4760   23.4180   32.8110 H   0  0  0  0  0  0  0  0  0  0  0  0
   34.8770   30.1650   34.1420 C   0  0  0  0  0  0  0  0  0  0  0  0
   35.6420   30.9680   34.9630 C   0  0  0  0  0  3  0  0  0  0  0  0
   35.1380   31.5410   36.1210 C   0  0  0  0  0  0  0  0  0  0  0  0
   35.7110   32.1750   36.7850 H   0  0  0  0  0  0  0  0  0  0  0  0
   33.8460   31.3170   36.4820 N   0  0  0  0  0  0  0  0  0  0  0  0
   33.1130   30.5330   35.6740 C   0  0  0  0  0  3  0  0  0  0  0  0
   33.5950   29.9740   34.5490 N   0  0  0  0  0  0  0  0  0  0  0  0
  1  7  1  1  0  0  0
  1  2  1  0  0  0  0
  2  8  1  0  0  0  0
  2  9  1  0  0  0  0
  3 10  1  6  0  0  0
  3  2  1  0  0  0  0
  3 26  1  0  0  0  0
  4 11  1  0  0  0  0
  4  3  1  0  0  0  0
  5 13  1  0  0  0  0
  5  4  1  0  0  0  0
  6  5  1  0  0  0  0
  6  1  1  0  0  0  0
 12  4  1  0  0  0  0
 14  5  1  0  0  0  0
 15  6  1  0  0  0  0
 16  6  1  0  0  0  0
 17  1  1  0  0  0  0
 17 22  1  0  0  0  0
 18 17  2  0  0  0  0
 19 18  1  0  0  0  0
 19 20  2  0  0  0  0
 20 21  1  0  0  0  0
 21 22  2  0  0  0  0
 21 25  1  0  0  0  0
 23 18  1  0  0  0  0
 24 19  1  0  0  0  0
 26 32  2  0  0  0  0
 26 27  1  0  0  0  0
 27 28  2  0  0  0  0
 28 30  1  0  0  0  0
 28 29  1  0  0  0  0
 31 30  2  0  0  0  0
 32 31  1  0  0  0  0
M  END
>  <minimizedAffinity>
-4.74505615

$$$$

 OpenBabel03272505563D

 32 34  0  0  1  0  0  0  0  0999 V2000
   39.4260   26.2530   35.2310 C   0  0  2  0  0  0  0  0  0  0  0  0
   38.5840   26.8920   34.1480 C   0  0  0  0  0  0  0  0  0  0  0  0
   39.2310   26.8080   32.7970 C   0  0  2  0  0  0  0  0  0  0  0  0
   40.6250   27.3790   32.7710 C   0  0  0  0  0  0  0  0  0  0  0  0
   41.4410   27.0200   33.9750 C   0  0  0  0  0  0  0  0  0  0  0  0
   40.8070   25.9100   34.7940 C   0  0  0  0  0  0  0  0  0  0  0  0
   39.4850   26.9080   36.1290 H   0  0  0  0  0  0  0  0  0  0  0  0
   38.5340   27.9740   34.3960 H   0  0  0  0  0  0  0  0  0  0  0  0
   37.5750   26.4560   34.0470 H   0  0  0  0  0  0  0  0  0  0  0  0
   39.2600   25.7120   32.5350 H   0  0  0  0  0  0  0  0  0  0  0  0
   40.5320   28.4790   32.6240 H   0  0  0  0  0  0  0  0  0  0  0  0
   41.1410   26.9620   31.8750 H   0  0  0  0  0  0  0  0  0  0  0  0
   41.5940   27.9100   34.6400 H   0  0  0  0  0  0  0  0  0  0  0  0
   42.4600   26.6510   33.7120 H   0  0  0  0  0  0  0  0  0  0  0  0
   41.4620   25.7620   35.6570 H   0  0  0  0  0  0  0  0  0  0  0  0
   40.7570   24.9960   34.1370 H   0  0  0  0  0  0  0  0  0  0  0  0
   38.7720   25.0040   35.7110 C   0  0  0  0  0  0  0  0  0  0  0  0
   38.9530   23.8480   34.9280 C   0  0  0  0  0  0  0  0  0  0  0  0
   38.3400   22.6810   35.3640 C   0  0  0  0  0  0  0  0  0  0  0  0
   37.5900   22.6960   36.5220 N   0  0  0  0  0  0  0  0  0  0  0  0
   37.4400   23.8440   37.2520 C   0  0  0  0  0  0  0  0  0  0  0  0
   38.0300   24.9730   36.8360 N   0  0  0  0  0  0  0  0  0  0  0  0
   39.5150   23.7730   34.0270 H   0  0  0  0  0  0  0  0  0  0  0  0
   38.3980   21.7370   34.8640 H   0  0  0  0  0  0  0  0  0  0  0  0
   36.8470   23.8240   38.1550 H   0  0  0  0  0  0  0  0  0  0  0  0
   38.4170   27.5020   31.8000 C   0  0  0  0  0  0  0  0  0  0  0  0
   37.1210   27.9130   32.0360 C   0  0  0  0  0  3  0  0  0  0  0  0
   36.3640   28.5710   31.0780 C   0  0  0  0  0  0  0  0  0  0  0  0
   35.3470   28.9060   31.2310 H   0  0  0  0  0  0  0  0  0  0  0  0
   36.8970   28.8290   29.8530 N   0  0  0  0  0  0  0  0  0  0  0  0
   38.1600   28.4230   29.6370 C   0  0  0  0  0  3  0  0  0  0  0  0
   38.8990   27.7850   30.5620 N   0  0  0  0  0  0  0  0  0  0  0  0
  1 17  1  0  0  0  0
  1  7  1  1  0  0  0
  2  8  1  0  0  0  0
  2  1  1  0  0  0  0
  3 10  1  6  0  0  0
  3  2  1  0  0  0  0
  4  3  1  0  0  0  0
  4  5  1  0  0  0  0
  5 13  1  0  0  0  0
  5  6  1  0  0  0  0
  6  1  1  0  0  0  0
  6 15  1  0  0  0  0
  9  2  1  0  0  0  0
 11  4  1  0  0  0  0
 12  4  1  0  0  0  0
 14  5  1  0  0  0  0
 16  6  1  0  0  0  0
 17 22  1  0  0  0  0
 18 19  1  0  0  0  0
 18 17  2  0  0  0  0
 19 20  2  0  0  0  0
 20 21  1  0  0  0  0
 21 25  1  0  0  0  0
 22 21  2  0  0  0  0
 23 18  1  0  0  0  0
 24 19  1  0  0  0  0
 26 27  1  0  0  0  0
 26  3  1  0  0  0  0
 28 29  1  0  0  0  0
 28 27  2  0  0  0  0
 30 28  1  0  0  0  0
 31 30  2  0  0  0  0
 31 32  1  0  0  0  0
 32 26  2  0  0  0  0
M  END
>  <minimizedAffinity>
-4.70450401

$$$$

 OpenBabel03272505563D

 32 34  0  0  1  0  0  0  0  0999 V2000
   38.9130   26.2270   34.7440 C   0  0  2  0  0  0  0  0  0  0  0  0
   37.8120   27.2660   34.7270 C   0  0  0  0  0  0  0  0  0  0  0  0
   37.1530   27.3780   33.3830 C   0  0  2  0  0  0  0  0  0  0  0  0
   38.1280   27.6400   32.2650 C   0  0  0  0  0  0  0  0  0  0  0  0
   39.3920   26.8440   32.3740 C   0  0  0  0  0  0  0  0  0  0  0  0
   39.2850   25.7240   33.3930 C   0  0  0  0  0  0  0  0  0  0  0  0
   39.8260   26.6220   35.2440 H   0  0  0  0  0  0  0  0  0  0  0  0
   38.3090   28.2430   34.9050 H   0  0  0  0  0  0  0  0  0  0  0  0
   37.0100   27.0830   35.4620 H   0  0  0  0  0  0  0  0  0  0  0  0
   36.6290   26.3950   33.2120 H   0  0  0  0  0  0  0  0  0  0  0  0
   38.3100   28.7390   32.2320 H   0  0  0  0  0  0  0  0  0  0  0  0
   37.6270   27.3540   31.3100 H   0  0  0  0  0  0  0  0  0  0  0  0
   40.2590   27.4970   32.6530 H   0  0  0  0  0  0  0  0  0  0  0  0
   39.6740   26.3480   31.4150 H   0  0  0  0  0  0  0  0  0  0  0  0
   40.2670   25.2420   33.4150 H   0  0  0  0  0  0  0  0  0  0  0  0
   38.4760   25.0250   33.0370 H   0  0  0  0  0  0  0  0  0  0  0  0
   38.4960   25.0620   35.5710 C   0  0  0  0  0  0  0  0  0  0  0  0
   38.4790   23.8040   34.9370 C   0  0  0  0  0  0  0  0  0  0  0  0
   38.0840   22.7120   35.6990 C   0  0  0  0  0  0  0  0  0  0  0  0
   37.7290   22.8940   37.0200 N   0  0  0  0  0  0  0  0  0  0  0  0
   37.7600   24.1360   37.5950 C   0  0  0  0  0  0  0  0  0  0  0  0
   38.1410   25.1940   36.8640 N   0  0  0  0  0  0  0  0  0  0  0  0
   38.7380   23.6000   33.9250 H   0  0  0  0  0  0  0  0  0  0  0  0
   38.0280   21.7060   35.3410 H   0  0  0  0  0  0  0  0  0  0  0  0
   37.4770   24.2480   38.6320 H   0  0  0  0  0  0  0  0  0  0  0  0
   36.1510   28.4420   33.3960 C   0  0  0  0  0  0  0  0  0  0  0  0
   35.8870   29.2180   34.5070 C   0  0  0  0  0  3  0  0  0  0  0  0
   34.9310   30.2230   34.5000 C   0  0  0  0  0  0  0  0  0  0  0  0
   34.7010   30.8480   35.3520 H   0  0  0  0  0  0  0  0  0  0  0  0
   34.2170   30.4720   33.3700 N   0  0  0  0  0  0  0  0  0  0  0  0
   34.4840   29.7080   32.2970 C   0  0  0  0  0  3  0  0  0  0  0  0
   35.4090   28.7320   32.2960 N   0  0  0  0  0  0  0  0  0  0  0  0
  1  7  1  1  0  0  0
  1 17  1  0  0  0  0
  2  1  1  0  0  0  0
  2  8  1  0  0  0  0
  2  9  1  0  0  0  0
  3 10  1  6  0  0  0
  3 26  1  0  0  0  0
  3  2  1  0  0  0  0
  4  5  1  0  0  0  0
  4  3  1  0  0  0  0
  5 13  1  0  0  0  0
  5  6  1  0  0  0  0
  6 15  1  0  0  0  0
  6  1  1  0  0  0  0
 11  4  1  0  0  0  0
 12  4  1  0  0  0  0
 14  5  1  0  0  0  0
 16  6  1  0  0  0  0
 17 22  1  0  0  0  0
 18 17  2  0  0  0  0
 18 19  1  0  0  0  0
 19 20  2  0  0  0  0
 20 21  1  0  0  0  0
 21 25  1  0  0  0  0
 22 21  2  0  0  0  0
 23 18  1  0  0  0  0
 24 19  1  0  0  0  0
 26 27  1  0  0  0  0
 28 27  2  0  0  0  0
 28 29  1  0  0  0  0
 30 28  1  0  0  0  0
 31 30  2  0  0  0  0
 32 31  1  0  0  0  0
 32 26  2  0  0  0  0
M  END
>  <minimizedAffinity>
-4.65628386

$$$$

 OpenBabel03272505563D

 32 34  0  0  1  0  0  0  0  0999 V2000
   34.7660   30.4330   32.7170 C   0  0  2  0  0  0  0  0  0  0  0  0
   34.9030   28.9270   32.6550 C   0  0  0  0  0  0  0  0  0  0  0  0
   36.2760   28.4950   32.2280 C   0  0  2  0  0  0  0  0  0  0  0  0
   36.7090   29.1070   30.9210 C   0  0  0  0  0  0  0  0  0  0  0  0
   36.3440   30.5530   30.7880 C   0  0  0  0  0  0  0  0  0  0  0  0
   35.9090   31.1660   32.1070 C   0  0  0  0  0  0  0  0  0  0  0  0
   33.8230   30.7680   32.2280 H   0  0  0  0  0  0  0  0  0  0  0  0
   34.2130   28.5880   31.8530 H   0  0  0  0  0  0  0  0  0  0  0  0
   34.6900   28.4170   33.6100 H   0  0  0  0  0  0  0  0  0  0  0  0
   36.9720   28.8180   33.0530 H   0  0  0  0  0  0  0  0  0  0  0  0
   36.2910   28.4780   30.1030 H   0  0  0  0  0  0  0  0  0  0  0  0
   37.8210   29.0320   30.8690 H   0  0  0  0  0  0  0  0  0  0  0  0
   35.5200   30.6960   30.0410 H   0  0  0  0  0  0  0  0  0  0  0  0
   37.1940   31.1830   30.4330 H   0  0  0  0  0  0  0  0  0  0  0  0
   35.6330   32.2000   31.8830 H   0  0  0  0  0  0  0  0  0  0  0  0
   36.7880   31.1040   32.8100 H   0  0  0  0  0  0  0  0  0  0  0  0
   34.6400   30.8720   34.1340 C   0  0  0  0  0  0  0  0  0  0  0  0
   35.8150   31.3170   34.7700 C   0  0  0  0  0  0  0  0  0  0  0  0
   35.7080   31.7210   36.0950 C   0  0  0  0  0  0  0  0  0  0  0  0
   34.4820   31.6720   36.7260 N   0  0  0  0  0  0  0  0  0  0  0  0
   33.3650   31.2320   36.0680 C   0  0  0  0  0  0  0  0  0  0  0  0
   33.4630   30.8410   34.7900 N   0  0  0  0  0  0  0  0  0  0  0  0
   36.7870   31.3750   34.3400 H   0  0  0  0  0  0  0  0  0  0  0  0
   36.5210   32.0790   36.6910 H   0  0  0  0  0  0  0  0  0  0  0  0
   32.4190   31.2050   36.5890 H   0  0  0  0  0  0  0  0  0  0  0  0
   36.3370   27.0390   32.1120 C   0  0  0  0  0  0  0  0  0  0  0  0
   35.5530   26.3180   31.2350 C   0  0  0  0  0  3  0  0  0  0  0  0
   35.6250   24.9360   31.1390 C   0  0  0  0  0  0  0  0  0  0  0  0
   35.0250   24.3420   30.4620 H   0  0  0  0  0  0  0  0  0  0  0  0
   36.4920   24.2460   31.9270 N   0  0  0  0  0  0  0  0  0  0  0  0
   37.2490   24.9610   32.7760 C   0  0  0  0  0  3  0  0  0  0  0  0
   37.1840   26.3010   32.8750 N   0  0  0  0  0  0  0  0  0  0  0  0
  1  7  1  6  0  0  0
  1 17  1  0  0  0  0
  2  1  1  0  0  0  0
  2  9  1  0  0  0  0
  3  2  1  0  0  0  0
  3 10  1  1  0  0  0
  4  3  1  0  0  0  0
  5  4  1  0  0  0  0
  5  6  1  0  0  0  0
  6  1  1  0  0  0  0
  6 16  1  0  0  0  0
  8  2  1  0  0  0  0
 11  4  1  0  0  0  0
 12  4  1  0  0  0  0
 13  5  1  0  0  0  0
 14  5  1  0  0  0  0
 15  6  1  0  0  0  0
 17 18  2  0  0  0  0
 17 22  1  0  0  0  0
 18 19  1  0  0  0  0
 19 24  1  0  0  0  0
 19 20  2  0  0  0  0
 21 25  1  0  0  0  0
 21 20  1  0  0  0  0
 22 21  2  0  0  0  0
 23 18  1  0  0  0  0
 26  3  1  0  0  0  0
 26 32  1  0  0  0  0
 27 26  2  0  0  0  0
 28 27  1  0  0  0  0
 28 30  2  0  0  0  0
 29 28  1  0  0  0  0
 30 31  1  0  0  0  0
 31 32  2  0  0  0  0
M  END
>  <minimizedAffinity>
-4.60149288

$$$$

 OpenBabel03272505563D

 32 34  0  0  1  0  0  0  0  0999 V2000
   39.5950   25.7530   35.1920 C   0  0  2  0  0  0  0  0  0  0  0  0
   38.6770   25.1330   34.1600 C   0  0  0  0  0  0  0  0  0  0  0  0
   37.8630   26.1610   33.4300 C   0  0  2  0  0  0  0  0  0  0  0  0
   37.0740   27.0560   34.3500 C   0  0  0  0  0  0  0  0  0  0  0  0
   37.8370   27.4850   35.5650 C   0  0  0  0  0  0  0  0  0  0  0  0
   39.3230   27.1940   35.4490 C   0  0  0  0  0  0  0  0  0  0  0  0
   39.5410   25.1990   36.1570 H   0  0  0  0  0  0  0  0  0  0  0  0
   37.9500   24.5150   34.7280 H   0  0  0  0  0  0  0  0  0  0  0  0
   39.2000   24.5370   33.3940 H   0  0  0  0  0  0  0  0  0  0  0  0
   38.5980   26.7740   32.8350 H   0  0  0  0  0  0  0  0  0  0  0  0
   36.1260   26.5270   34.5990 H   0  0  0  0  0  0  0  0  0  0  0  0
   36.8070   27.9740   33.7760 H   0  0  0  0  0  0  0  0  0  0  0  0
   37.4470   26.9810   36.4880 H   0  0  0  0  0  0  0  0  0  0  0  0
   37.7630   28.5820   35.7580 H   0  0  0  0  0  0  0  0  0  0  0  0
   39.7660   27.5100   36.3980 H   0  0  0  0  0  0  0  0  0  0  0  0
   39.7140   27.7920   34.5780 H   0  0  0  0  0  0  0  0  0  0  0  0
   41.0110   25.6230   34.7530 C   0  0  0  0  0  0  0  0  0  0  0  0
   41.6080   26.7620   34.1800 C   0  0  0  0  0  0  0  0  0  0  0  0
   42.9280   26.6470   33.7610 C   0  0  0  0  0  0  0  0  0  0  0  0
   43.5910   25.4470   33.9160 N   0  0  0  0  0  0  0  0  0  0  0  0
   42.9700   24.3640   34.4780 C   0  0  0  0  0  0  0  0  0  0  0  0
   41.6970   24.4700   34.8850 N   0  0  0  0  0  0  0  0  0  0  0  0
   41.1510   27.7110   34.0320 H   0  0  0  0  0  0  0  0  0  0  0  0
   43.4960   27.4340   33.3120 H   0  0  0  0  0  0  0  0  0  0  0  0
   43.5150   23.4370   34.5860 H   0  0  0  0  0  0  0  0  0  0  0  0
   36.9410   25.5110   32.4990 C   0  0  0  0  0  0  0  0  0  0  0  0
   36.9630   24.1560   32.2370 C   0  0  0  0  0  3  0  0  0  0  0  0
   36.0800   23.5560   31.3500 C   0  0  0  0  0  0  0  0  0  0  0  0
   36.0710   22.4990   31.1240 H   0  0  0  0  0  0  0  0  0  0  0  0
   35.1520   24.3110   30.7040 N   0  0  0  0  0  0  0  0  0  0  0  0
   35.1420   25.6290   30.9690 C   0  0  0  0  0  3  0  0  0  0  0  0
   35.9950   26.2160   31.8270 N   0  0  0  0  0  0  0  0  0  0  0  0
  1  6  1  0  0  0  0
  1  7  1  1  0  0  0
  2  8  1  0  0  0  0
  2  1  1  0  0  0  0
  3 10  1  6  0  0  0
  3  2  1  0  0  0  0
  3  4  1  0  0  0  0
  4 11  1  0  0  0  0
  4  5  1  0  0  0  0
  5 14  1  0  0  0  0
  5 13  1  0  0  0  0
  6  5  1  0  0  0  0
  6 15  1  0  0  0  0
  9  2  1  0  0  0  0
 12  4  1  0  0  0  0
 16  6  1  0  0  0  0
 17 22  1  0  0  0  0
 17  1  1  0  0  0  0
 18 17  2  0  0  0  0
 19 20  2  0  0  0  0
 19 18  1  0  0  0  0
 20 21  1  0  0  0  0
 21 25  1  0  0  0  0
 21 22  2  0  0  0  0
 23 18  1  0  0  0  0
 24 19  1  0  0  0  0
 26  3  1  0  0  0  0
 27 26  1  0  0  0  0
 28 27  2  0  0  0  0
 29 28  1  0  0  0  0
 30 31  2  0  0  0  0
 30 28  1  0  0  0  0
 31 32  1  0  0  0  0
 32 26  2  0  0  0  0
M  END
>  <minimizedAffinity>
-4.59580135

$$$$

 OpenBabel03272505563D

 32 34  0  0  1  0  0  0  0  0999 V2000
   38.1340   27.0870   33.8660 C   0  0  2  0  0  0  0  0  0  0  0  0
   37.3090   28.1200   34.6030 C   0  0  0  0  0  0  0  0  0  0  0  0
   36.0610   28.4920   33.8560 C   0  0  2  0  0  0  0  0  0  0  0  0
   36.3300   28.9550   32.4480 C   0  0  0  0  0  0  0  0  0  0  0  0
   37.3670   28.1410   31.7380 C   0  0  0  0  0  0  0  0  0  0  0  0
   37.6880   26.8480   32.4660 C   0  0  0  0  0  0  0  0  0  0  0  0
   39.2110   27.3710   33.8560 H   0  0  0  0  0  0  0  0  0  0  0  0
   37.9300   29.0410   34.6380 H   0  0  0  0  0  0  0  0  0  0  0  0
   36.9950   27.8070   35.6130 H   0  0  0  0  0  0  0  0  0  0  0  0
   35.4220   27.5650   33.8400 H   0  0  0  0  0  0  0  0  0  0  0  0
   36.5870   30.0380   32.4950 H   0  0  0  0  0  0  0  0  0  0  0  0
   35.3760   28.8600   31.8770 H   0  0  0  0  0  0  0  0  0  0  0  0
   38.3190   28.7210   31.6090 H   0  0  0  0  0  0  0  0  0  0  0  0
   37.0510   27.8350   30.7130 H   0  0  0  0  0  0  0  0  0  0  0  0
   38.4760   26.3620   31.8840 H   0  0  0  0  0  0  0  0  0  0  0  0
   36.7410   26.2370   32.4930 H   0  0  0  0  0  0  0  0  0  0  0  0
   38.0870   25.7890   34.5930 C   0  0  0  0  0  0  0  0  0  0  0  0
   38.2440   24.6210   33.8220 C   0  0  0  0  0  0  0  0  0  0  0  0
   38.1930   23.4040   34.4910 C   0  0  0  0  0  0  0  0  0  0  0  0
   37.9930   23.3840   35.8560 N   0  0  0  0  0  0  0  0  0  0  0  0
   37.8450   24.5460   36.5660 C   0  0  0  0  0  0  0  0  0  0  0  0
   37.8940   25.7220   35.9250 N   0  0  0  0  0  0  0  0  0  0  0  0
   38.3980   24.5700   32.7700 H   0  0  0  0  0  0  0  0  0  0  0  0
   38.2980   22.4470   34.0260 H   0  0  0  0  0  0  0  0  0  0  0  0
   37.6900   24.4980   37.6340 H   0  0  0  0  0  0  0  0  0  0  0  0
   35.3380   29.5440   34.5690 C   0  0  0  0  0  0  0  0  0  0  0  0
   33.9610   29.6390   34.5800 C   0  0  0  0  0  3  0  0  0  0  0  0
   33.2910   30.6440   35.2620 C   0  0  0  0  0  0  0  0  0  0  0  0
   32.2150   30.7470   35.2910 H   0  0  0  0  0  0  0  0  0  0  0  0
   33.9960   31.5810   35.9520 N   0  0  0  0  0  0  0  0  0  0  0  0
   35.3360   31.4760   35.9320 C   0  0  0  0  0  3  0  0  0  0  0  0
   35.9920   30.5040   35.2730 N   0  0  0  0  0  0  0  0  0  0  0  0
  1  7  1  6  0  0  0
  1 17  1  0  0  0  0
  1  2  1  0  0  0  0
  2  8  1  0  0  0  0
  2  9  1  0  0  0  0
  3 10  1  6  0  0  0
  3 26  1  0  0  0  0
  3  2  1  0  0  0  0
  4 11  1  0  0  0  0
  4  3  1  0  0  0  0
  5  4  1  0  0  0  0
  5  6  1  0  0  0  0
  6 16  1  0  0  0  0
  6  1  1  0  0  0  0
 12  4  1  0  0  0  0
 13  5  1  0  0  0  0
 14  5  1  0  0  0  0
 15  6  1  0  0  0  0
 17 22  1  0  0  0  0
 18 19  1  0  0  0  0
 18 17  2  0  0  0  0
 19 20  2  0  0  0  0
 20 21  1  0  0  0  0
 21 25  1  0  0  0  0
 22 21  2  0  0  0  0
 23 18  1  0  0  0  0
 24 19  1  0  0  0  0
 26 27  2  0  0  0  0
 26 32  1  0  0  0  0
 27 28  1  0  0  0  0
 28 29  1  0  0  0  0
 28 30  2  0  0  0  0
 31 30  1  0  0  0  0
 32 31  2  0  0  0  0
M  END
>  <minimizedAffinity>
-4.56350422

$$$$
