
 OpenBabel03272504413D

 43 45  0  0  0  0  0  0  0  0999 V2000
   34.8020   29.3950   48.8340 C   0  0  0  0  0  0  0  0  0  0  0  0
   35.7080   29.4170   49.4820 H   0  0  0  0  0  0  0  0  0  0  0  0
   34.1660   30.2240   49.2650 H   0  0  0  0  0  0  0  0  0  0  0  0
   37.5650   30.4580   48.5260 Cl  0  0  0  0  0  0  0  0  0  0  0  0
   36.4160   30.3000   47.1990 C   0  0  0  0  0  0  0  0  0  0  0  0
   36.7890   30.6780   45.9560 C   0  0  0  0  0  0  0  0  0  0  0  0
   35.9030   30.5610   44.9070 C   0  0  0  0  0  0  0  0  0  0  0  0
   34.6320   30.0510   45.1550 C   0  0  0  0  0  0  0  0  0  0  0  0
   34.3200   29.6780   46.4770 C   0  0  0  0  0  0  0  0  0  0  0  0
   35.1740   29.7880   47.5080 C   0  0  0  0  0  0  0  0  0  0  0  0
   36.2300   30.8760   43.9100 H   0  0  0  0  0  0  0  0  0  0  0  0
   34.0230   30.0000   44.2780 H   0  0  0  0  0  0  0  0  0  0  0  0
   33.3510   29.3350   46.4540 H   0  0  0  0  0  0  0  0  0  0  0  0
   39.7780   32.8360   46.0040 C   0  0  0  0  0  0  0  0  0  0  0  0
   40.6450   32.1010   45.1200 C   0  0  0  0  0  0  0  0  0  0  0  0
   40.1670   30.9170   44.5580 C   0  0  0  0  0  0  0  0  0  0  0  0
   38.9080   30.5040   44.8660 N   0  0  0  0  0  0  0  0  0  0  0  0
   38.1160   31.2140   45.7000 C   0  0  0  0  0  0  0  0  0  0  0  0
   38.5520   32.3590   46.2540 N   0  0  0  0  0  0  0  0  0  0  0  0
   40.1030   33.7450   46.4540 H   0  0  0  0  0  0  0  0  0  0  0  0
   41.6270   32.5120   44.9390 H   0  0  0  0  0  0  0  0  0  0  0  0
   41.0420   30.2340   43.7050 N   0  0  0  0  0  0  0  0  0  0  0  0
   41.9910   29.8740   43.8840 H   0  0  0  0  0  0  0  0  0  0  0  0
   40.8030   30.0000   42.7150 H   0  0  0  0  0  0  0  0  0  0  0  0
   34.1250   28.1130   49.0590 C   0  0  0  0  0  0  0  0  0  0  0  0
   34.5750   27.5060   49.8760 H   0  0  0  0  0  0  0  0  0  0  0  0
   34.2420   27.4720   48.1370 H   0  0  0  0  0  0  0  0  0  0  0  0
   32.7950   28.2900   49.3380 O   0  0  0  0  0  0  0  0  0  0  0  0
   32.6880   26.5420   47.3830 O   0  0  0  0  0  0  0  0  0  0  0  0
   31.8520   27.4240   48.2750 P   0  0  2  0  0  0  0  0  0  0  0  0
   31.0190   28.5890   47.3000 O   0  0  0  0  0  0  0  0  0  0  0  0
   30.5090   28.2700   46.0540 C   0  0  0  0  0  0  0  0  0  0  0  0
   29.5410   27.3290   45.7390 C   0  0  0  0  0  3  0  0  0  0  0  0
   29.1470   27.1400   44.4340 C   0  0  0  0  0  0  0  0  0  0  0  0
   28.3890   26.3970   44.2220 H   0  0  0  0  0  0  0  0  0  0  0  0
   29.7270   27.8950   43.4610 N   0  0  0  0  0  0  0  0  0  0  0  0
   30.6660   28.8070   43.7740 C   0  0  0  0  0  3  0  0  0  0  0  0
   31.0710   29.0110   45.0600 N   0  0  0  0  0  0  0  0  0  0  0  0
   30.6750   26.5270   49.0110 O   0  0  0  0  0  0  0  0  0  0  0  0
   29.8410   27.3240   49.7590 C   0  0  0  0  0  0  0  0  0  0  0  0
   29.3120   26.6520   50.8600 F   0  0  0  0  0  0  0  0  0  0  0  0
   30.5130   28.4220   50.2760 F   0  0  0  0  0  0  0  0  0  0  0  0
   28.7830   27.7740   48.9770 F   0  0  0  0  0  0  0  0  0  0  0  0
  1 25  1  0  0  0  0
  1  3  1  0  0  0  0
  1  2  1  0  0  0  0
  5 10  1  0  0  0  0
  5  4  1  0  0  0  0
  6  5  2  0  0  0  0
  7  8  2  0  0  0  0
  7  6  1  0  0  0  0
  8  9  1  0  0  0  0
  9 10  2  0  0  0  0
 10  1  1  0  0  0  0
 11  7  1  0  0  0  0
 12  8  1  0  0  0  0
 13  9  1  0  0  0  0
 14 19  1  0  0  0  0
 14 20  1  0  0  0  0
 15 14  2  0  0  0  0
 16 17  2  0  0  0  0
 16 15  1  0  0  0  0
 17 18  1  0  0  0  0
 18  6  1  0  0  0  0
 18 19  2  0  0  0  0
 21 15  1  0  0  0  0
 22 23  1  0  0  0  0
 22 16  1  0  0  0  0
 24 22  1  0  0  0  0
 25 28  1  0  0  0  0
 25 26  1  0  0  0  0
 27 25  1  0  0  0  0
 30 29  2  6  0  0  0
 30 39  1  0  0  0  0
 30 28  1  0  0  0  0
 31 30  1  0  0  0  0
 32 31  1  0  0  0  0
 33 32  1  0  0  0  0
 34 33  2  0  0  0  0
 35 34  1  0  0  0  0
 36 37  2  0  0  0  0
 36 34  1  0  0  0  0
 37 38  1  0  0  0  0
 38 32  2  0  0  0  0
 39 40  1  0  0  0  0
 40 42  1  0  0  0  0
 40 41  1  0  0  0  0
 43 40  1  0  0  0  0
M  END
>  <minimizedAffinity>
-5.6666584

>  <minimizedRMSD>
0.248869419

$$$$
