
 OpenBabel03272503293D

 32 34  0  0  1  0  0  0  0  0999 V2000
   36.3900   29.7400   48.6690 N   0  0  0  0  0  0  0  0  0  0  0  0
   37.5330   30.4890   48.2610 C   0  0  0  0  0  0  0  0  0  0  0  0
   37.9970   31.1400   49.5480 C   0  0  2  0  0  0  0  0  0  0  0  0
   36.9840   30.7480   50.6120 C   0  0  0  0  0  0  0  0  0  0  0  0
   36.6130   29.3780   50.0560 C   0  0  0  0  0  0  0  0  0  0  0  0
   38.2950   29.7420   47.8920 H   0  0  0  0  0  0  0  0  0  0  0  0
   37.3610   31.1980   47.4530 H   0  0  0  0  0  0  0  0  0  0  0  0
   38.9970   30.7170   49.8180 H   0  0  0  0  0  0  0  0  0  0  0  0
   37.5110   30.5830   51.5870 H   0  0  0  0  0  0  0  0  0  0  0  0
   36.1270   31.4260   50.6680 H   0  0  0  0  0  0  0  0  0  0  0  0
   37.4380   28.6820   50.2160 H   0  0  0  0  0  0  0  0  0  0  0  0
   35.6580   29.0750   50.5030 H   0  0  0  0  0  0  0  0  0  0  0  0
   35.2360   29.3950   47.8980 C   0  0  0  0  0  0  0  0  0  0  0  0
   35.0940   30.0380   46.6720 C   0  0  0  0  0  0  0  0  0  0  0  0
   33.9690   29.7140   45.9000 C   0  0  0  0  0  0  0  0  0  0  0  0
   33.1010   28.7910   46.4130 N   0  0  0  0  0  0  0  0  0  0  0  0
   33.2590   28.1860   47.5980 C   0  0  0  0  0  0  0  0  0  0  0  0
   34.3450   28.4950   48.3490 N   0  0  0  0  0  0  0  0  0  0  0  0
   35.7710   30.7640   46.2600 H   0  0  0  0  0  0  0  0  0  0  0  0
   33.7670   30.1540   44.9380 H   0  0  0  0  0  0  0  0  0  0  0  0
   32.0970   27.0010   48.2060 S   0  0  0  0  0  0  0  0  0  0  0  0
   30.5300   27.8480   48.4630 C   0  0  0  0  0  0  0  0  0  0  0  0
   30.0350   27.8370   49.7570 C   0  0  0  0  0  0  0  0  0  0  0  0
   28.8160   28.5050   49.9130 C   0  0  0  0  0  0  0  0  0  0  0  0
   28.3580   28.5460   50.8830 H   0  0  0  0  0  0  0  0  0  0  0  0
   28.1510   29.1170   48.9180 N   0  0  0  0  0  0  0  0  0  0  0  0
   28.6830   29.0920   47.6840 C   0  0  0  0  0  0  0  0  0  0  0  0
   29.8480   28.4680   47.4740 N   0  0  0  0  0  0  0  0  0  0  0  0
   38.1660   32.6290   49.4360 C   0  0  0  0  0  0  0  0  0  0  0  0
   37.0110   33.1920   49.9580 F   0  0  0  0  0  0  0  0  0  0  0  0
   38.1930   32.9390   48.0940 F   0  0  0  0  0  0  0  0  0  0  0  0
   39.2970   33.1000   50.0320 F   0  0  0  0  0  0  0  0  0  0  0  0
  1  5  1  0  0  0  0
  2  1  1  0  0  0  0
  2  3  1  0  0  0  0
  3  8  1  1  0  0  0
  3  4  1  0  0  0  0
  4 10  1  0  0  0  0
  4  9  1  0  0  0  0
  5 11  1  0  0  0  0
  5 12  1  0  0  0  0
  5  4  1  0  0  0  0
  6  2  1  0  0  0  0
  7  2  1  0  0  0  0
 13 18  1  0  0  0  0
 13  1  1  0  0  0  0
 14 13  2  0  0  0  0
 15 16  2  0  0  0  0
 15 14  1  0  0  0  0
 16 17  1  0  0  0  0
 17 21  1  0  0  0  0
 17 18  2  0  0  0  0
 19 14  1  0  0  0  0
 20 15  1  0  0  0  0
 21 22  1  0  0  0  0
 22 23  1  0  0  0  0
 23 24  2  0  0  0  0
 24 25  1  0  0  0  0
 26 24  1  0  0  0  0
 27 26  2  0  0  0  0
 28 27  1  0  0  0  0
 28 22  2  0  0  0  0
 29  3  1  0  0  0  0
 29 30  1  0  0  0  0
 29 32  1  0  0  0  0
 31 29  1  0  0  0  0
M  END
>  <minimizedAffinity>
-6.38021231

>  <minimizedRMSD>
1.7681917

$$$$
