
 OpenBabel03272505153D

 26 28  0  0  0  0  0  0  0  0999 V2000
   37.8270   23.1280   33.5350 Cl  0  0  0  0  0  0  0  0  0  0  0  0
   36.8210   24.1050   32.5070 C   0  0  0  0  0  0  0  0  0  0  0  0
   35.9660   23.5200   31.6140 C   0  0  0  0  0  0  0  0  0  0  0  0
   35.2110   24.3610   30.8400 C   0  0  0  0  0  0  0  0  0  0  0  0
   35.2520   25.7150   30.8960 C   0  0  0  0  0  0  0  0  0  0  0  0
   36.1130   26.2810   31.7940 C   0  0  0  0  0  0  0  0  0  0  0  0
   36.9040   25.4870   32.6060 C   0  0  0  0  0  0  0  0  0  0  0  0
   34.5210   23.8910   30.1200 H   0  0  0  0  0  0  0  0  0  0  0  0
   34.6340   26.3360   30.2610 H   0  0  0  0  0  0  0  0  0  0  0  0
   36.1650   27.3600   31.8590 H   0  0  0  0  0  0  0  0  0  0  0  0
   34.9740   19.9040   32.1660 C   0  0  0  0  0  0  0  0  0  0  0  0
   35.0000   21.2930   32.2420 C   0  0  0  0  0  0  0  0  0  0  0  0
   35.9180   22.0630   31.5520 C   0  0  0  0  0  0  0  0  0  0  0  0
   36.8030   21.3590   30.7880 N   0  0  0  0  0  0  0  0  0  0  0  0
   36.7770   20.0220   30.7160 C   0  0  0  0  0  0  0  0  0  0  0  0
   35.8860   19.2920   31.3860 N   0  0  0  0  0  0  0  0  0  0  0  0
   34.2210   19.3800   32.7390 H   0  0  0  0  0  0  0  0  0  0  0  0
   34.2760   21.8270   32.8640 H   0  0  0  0  0  0  0  0  0  0  0  0
   37.5310   19.5720   30.0740 H   0  0  0  0  0  0  0  0  0  0  0  0
   37.8370   26.0380   33.5790 C   0  0  0  0  0  0  0  0  0  0  0  0
   37.5070   26.3780   34.8720 C   0  0  0  0  0  3  0  0  0  0  0  0
   38.3980   26.8970   35.7840 C   0  0  0  0  0  0  0  0  0  0  0  0
   38.0690   27.1460   36.7950 H   0  0  0  0  0  0  0  0  0  0  0  0
   39.6760   27.0860   35.3910 N   0  0  0  0  0  0  0  0  0  0  0  0
   40.0290   26.7610   34.1290 C   0  0  0  0  0  3  0  0  0  0  0  0
   39.1390   26.2630   33.2800 N   0  0  0  0  0  0  0  0  0  0  0  0
  2  7  1  0  0  0  0
  2  1  1  0  0  0  0
  3  2  2  0  0  0  0
  4  5  2  0  0  0  0
  4  3  1  0  0  0  0
  5  6  1  0  0  0  0
  6 10  1  0  0  0  0
  6  7  2  0  0  0  0
  7 20  1  0  0  0  0
  8  4  1  0  0  0  0
  9  5  1  0  0  0  0
 11 12  1  0  0  0  0
 11 17  1  0  0  0  0
 12 18  1  0  0  0  0
 13  3  1  0  0  0  0
 13 12  2  0  0  0  0
 14 13  1  0  0  0  0
 15 14  2  0  0  0  0
 15 16  1  0  0  0  0
 16 11  2  0  0  0  0
 19 15  1  0  0  0  0
 20 21  1  0  0  0  0
 21 22  2  0  0  0  0
 22 23  1  0  0  0  0
 24 22  1  0  0  0  0
 25 24  2  0  0  0  0
 26 20  2  0  0  0  0
 26 25  1  0  0  0  0
M  END
>  <minimizedAffinity>
-5.05276823

$$$$

 OpenBabel03272505153D

 26 28  0  0  0  0  0  0  0  0999 V2000
   37.8210   23.0800   33.5160 Cl  0  0  0  0  0  0  0  0  0  0  0  0
   36.8460   24.1210   32.5200 C   0  0  0  0  0  0  0  0  0  0  0  0
   36.9490   25.4800   32.6290 C   0  0  0  0  0  0  0  0  0  0  0  0
   36.1440   26.2280   31.8100 C   0  0  0  0  0  0  0  0  0  0  0  0
   35.2640   25.7210   30.9110 C   0  0  0  0  0  0  0  0  0  0  0  0
   35.1760   24.3600   30.8180 C   0  0  0  0  0  0  0  0  0  0  0  0
   35.9620   23.5480   31.6170 C   0  0  0  0  0  0  0  0  0  0  0  0
   36.2250   27.3240   31.8970 H   0  0  0  0  0  0  0  0  0  0  0  0
   34.6500   26.3550   30.2880 H   0  0  0  0  0  0  0  0  0  0  0  0
   34.4820   23.9300   30.1080 H   0  0  0  0  0  0  0  0  0  0  0  0
   38.4780   26.9230   35.7830 C   0  0  0  0  0  0  0  0  0  0  0  0
   37.5550   26.4010   34.8810 C   0  0  0  0  0  0  0  0  0  0  0  0
   37.8960   26.0290   33.5930 C   0  0  0  0  0  0  0  0  0  0  0  0
   39.2090   26.2120   33.2680 N   0  0  0  0  0  0  0  0  0  0  0  0
   40.0960   26.7140   34.1380 C   0  0  0  0  0  0  0  0  0  0  0  0
   39.7540   27.0680   35.3760 N   0  0  0  0  0  0  0  0  0  0  0  0
   38.1250   27.1880   36.7710 H   0  0  0  0  0  0  0  0  0  0  0  0
   36.5090   26.2680   35.1730 H   0  0  0  0  0  0  0  0  0  0  0  0
   41.1130   26.8120   33.7660 H   0  0  0  0  0  0  0  0  0  0  0  0
   35.9080   22.0930   31.5570 C   0  0  0  0  0  0  0  0  0  0  0  0
   35.0020   21.3170   32.2440 C   0  0  0  0  0  3  0  0  0  0  0  0
   34.9590   19.9430   32.1790 C   0  0  0  0  0  0  0  0  0  0  0  0
   34.2130   19.3880   32.7510 H   0  0  0  0  0  0  0  0  0  0  0  0
   35.8600   19.3120   31.3960 N   0  0  0  0  0  0  0  0  0  0  0  0
   36.7610   20.0480   30.7100 C   0  0  0  0  0  3  0  0  0  0  0  0
   36.7690   21.3720   30.8000 N   0  0  0  0  0  0  0  0  0  0  0  0
  2  3  1  0  0  0  0
  2  1  1  0  0  0  0
  3 13  1  0  0  0  0
  4  8  1  0  0  0  0
  4  3  2  0  0  0  0
  5  4  1  0  0  0  0
  6  5  2  0  0  0  0
  6  7  1  0  0  0  0
  7  2  2  0  0  0  0
  9  5  1  0  0  0  0
 10  6  1  0  0  0  0
 11 17  1  0  0  0  0
 12 18  1  0  0  0  0
 12 11  2  0  0  0  0
 13 12  1  0  0  0  0
 14 13  2  0  0  0  0
 14 15  1  0  0  0  0
 15 16  2  0  0  0  0
 16 11  1  0  0  0  0
 19 15  1  0  0  0  0
 20  7  1  0  0  0  0
 20 21  1  0  0  0  0
 22 21  2  0  0  0  0
 22 23  1  0  0  0  0
 24 22  1  0  0  0  0
 25 26  1  0  0  0  0
 25 24  2  0  0  0  0
 26 20  2  0  0  0  0
M  END
>  <minimizedAffinity>
-5.01652479

$$$$

 OpenBabel03272505153D

 26 28  0  0  0  0  0  0  0  0999 V2000
   40.4940   24.5840   34.2330 Cl  0  0  0  0  0  0  0  0  0  0  0  0
   39.7340   24.1130   35.7250 C   0  0  0  0  0  0  0  0  0  0  0  0
   40.3500   23.2300   36.5690 C   0  0  0  0  0  0  0  0  0  0  0  0
   39.6820   22.9100   37.7220 C   0  0  0  0  0  0  0  0  0  0  0  0
   38.4700   23.4000   38.0800 C   0  0  0  0  0  0  0  0  0  0  0  0
   37.8710   24.2810   37.2230 C   0  0  0  0  0  0  0  0  0  0  0  0
   38.4920   24.6460   36.0420 C   0  0  0  0  0  0  0  0  0  0  0  0
   40.1770   22.1980   38.4030 H   0  0  0  0  0  0  0  0  0  0  0  0
   37.9840   23.1150   39.0030 H   0  0  0  0  0  0  0  0  0  0  0  0
   36.9030   24.6870   37.4860 H   0  0  0  0  0  0  0  0  0  0  0  0
   44.0880   22.7790   36.1410 C   0  0  0  0  0  0  0  0  0  0  0  0
   42.8550   23.3040   36.5160 C   0  0  0  0  0  0  0  0  0  0  0  0
   41.6550   22.7020   36.1880 C   0  0  0  0  0  0  0  0  0  0  0  0
   41.7660   21.5500   35.4640 N   0  0  0  0  0  0  0  0  0  0  0  0
   42.9540   21.0460   35.1030 C   0  0  0  0  0  0  0  0  0  0  0  0
   44.1040   21.6370   35.4270 N   0  0  0  0  0  0  0  0  0  0  0  0
   44.9790   23.3160   36.4410 H   0  0  0  0  0  0  0  0  0  0  0  0
   42.8010   24.2300   37.0960 H   0  0  0  0  0  0  0  0  0  0  0  0
   42.9180   20.1230   34.5290 H   0  0  0  0  0  0  0  0  0  0  0  0
   37.8990   25.5800   35.0940 C   0  0  0  0  0  0  0  0  0  0  0  0
   37.6590   26.9110   35.3560 C   0  0  0  0  0  3  0  0  0  0  0  0
   37.0980   27.7850   34.4530 C   0  0  0  0  0  0  0  0  0  0  0  0
   36.9350   28.8290   34.7260 H   0  0  0  0  0  0  0  0  0  0  0  0
   36.7610   27.3140   33.2330 N   0  0  0  0  0  0  0  0  0  0  0  0
   36.9840   26.0130   32.9490 C   0  0  0  0  0  3  0  0  0  0  0  0
   37.5270   25.2020   33.8480 N   0  0  0  0  0  0  0  0  0  0  0  0
  1  2  1  0  0  0  0
  2  7  2  0  0  0  0
  2  3  1  0  0  0  0
  3  4  2  0  0  0  0
  4  5  1  0  0  0  0
  4  8  1  0  0  0  0
  5  9  1  0  0  0  0
  6 10  1  0  0  0  0
  6  5  2  0  0  0  0
  7  6  1  0  0  0  0
 11 17  1  0  0  0  0
 11 12  1  0  0  0  0
 12 18  1  0  0  0  0
 13 12  2  0  0  0  0
 13  3  1  0  0  0  0
 14 13  1  0  0  0  0
 15 16  1  0  0  0  0
 15 14  2  0  0  0  0
 16 11  2  0  0  0  0
 19 15  1  0  0  0  0
 20 21  1  0  0  0  0
 20  7  1  0  0  0  0
 22 23  1  0  0  0  0
 22 21  2  0  0  0  0
 24 22  1  0  0  0  0
 25 24  2  0  0  0  0
 25 26  1  0  0  0  0
 26 20  2  0  0  0  0
M  END
>  <minimizedAffinity>
-4.96741343

$$$$

 OpenBabel03272505153D

 26 28  0  0  0  0  0  0  0  0999 V2000
   36.2840   28.1430   34.5980 Cl  0  0  0  0  0  0  0  0  0  0  0  0
   36.1030   29.0870   33.1490 C   0  0  0  0  0  0  0  0  0  0  0  0
   35.4990   30.3140   33.1910 C   0  0  0  0  0  0  0  0  0  0  0  0
   35.3960   30.9910   32.0040 C   0  0  0  0  0  0  0  0  0  0  0  0
   35.8420   30.5370   30.8080 C   0  0  0  0  0  0  0  0  0  0  0  0
   36.4420   29.3090   30.7870 C   0  0  0  0  0  0  0  0  0  0  0  0
   36.5790   28.5730   31.9510 C   0  0  0  0  0  0  0  0  0  0  0  0
   34.9090   31.9800   32.0360 H   0  0  0  0  0  0  0  0  0  0  0  0
   35.7350   31.1110   29.8980 H   0  0  0  0  0  0  0  0  0  0  0  0
   36.8080   28.9230   29.8440 H   0  0  0  0  0  0  0  0  0  0  0  0
   35.3050   32.0140   36.5720 C   0  0  0  0  0  0  0  0  0  0  0  0
   35.7870   31.5540   35.3500 C   0  0  0  0  0  0  0  0  0  0  0  0
   35.0190   30.8070   34.4770 C   0  0  0  0  0  0  0  0  0  0  0  0
   33.7480   30.5490   34.9010 N   0  0  0  0  0  0  0  0  0  0  0  0
   33.2850   30.9920   36.0780 C   0  0  0  0  0  0  0  0  0  0  0  0
   34.0360   31.7120   36.9110 N   0  0  0  0  0  0  0  0  0  0  0  0
   35.9750   32.5930   37.1950 H   0  0  0  0  0  0  0  0  0  0  0  0
   36.8120   31.7780   35.0400 H   0  0  0  0  0  0  0  0  0  0  0  0
   32.2560   30.7260   36.3080 H   0  0  0  0  0  0  0  0  0  0  0  0
   37.2100   27.2600   31.9840 C   0  0  0  0  0  0  0  0  0  0  0  0
   38.5650   27.0480   32.1060 C   0  0  0  0  0  3  0  0  0  0  0  0
   39.1510   25.8030   32.1370 C   0  0  0  0  0  0  0  0  0  0  0  0
   40.2340   25.7070   32.2360 H   0  0  0  0  0  0  0  0  0  0  0  0
   38.3520   24.7190   32.0440 N   0  0  0  0  0  0  0  0  0  0  0  0
   37.0190   24.8970   31.9230 C   0  0  0  0  0  3  0  0  0  0  0  0
   36.4930   26.1150   31.8970 N   0  0  0  0  0  0  0  0  0  0  0  0
  2  3  1  0  0  0  0
  2  1  1  0  0  0  0
  3 13  1  0  0  0  0
  4  8  1  0  0  0  0
  4  3  2  0  0  0  0
  5  4  1  0  0  0  0
  6  5  2  0  0  0  0
  6  7  1  0  0  0  0
  7 20  1  0  0  0  0
  7  2  2  0  0  0  0
  9  5  1  0  0  0  0
 10  6  1  0  0  0  0
 11 16  1  0  0  0  0
 11 17  1  0  0  0  0
 12 11  2  0  0  0  0
 13 14  2  0  0  0  0
 13 12  1  0  0  0  0
 14 15  1  0  0  0  0
 15 19  1  0  0  0  0
 15 16  2  0  0  0  0
 18 12  1  0  0  0  0
 20 21  1  0  0  0  0
 21 22  2  0  0  0  0
 22 23  1  0  0  0  0
 24 22  1  0  0  0  0
 25 24  2  0  0  0  0
 26 25  1  0  0  0  0
 26 20  2  0  0  0  0
M  END
>  <minimizedAffinity>
-4.67735815

$$$$

 OpenBabel03272505153D

 26 28  0  0  0  0  0  0  0  0999 V2000
   37.1630   25.6380   33.1090 Cl  0  0  0  0  0  0  0  0  0  0  0  0
   38.7950   26.1450   33.4310 C   0  0  0  0  0  0  0  0  0  0  0  0
   39.4010   27.0790   32.6370 C   0  0  0  0  0  0  0  0  0  0  0  0
   40.6890   27.4210   32.9590 C   0  0  0  0  0  0  0  0  0  0  0  0
   41.3940   26.9040   33.9940 C   0  0  0  0  0  0  0  0  0  0  0  0
   40.7720   25.9720   34.7750 C   0  0  0  0  0  0  0  0  0  0  0  0
   39.4710   25.5830   34.5050 C   0  0  0  0  0  0  0  0  0  0  0  0
   41.1790   28.1740   32.3190 H   0  0  0  0  0  0  0  0  0  0  0  0
   42.4110   27.2070   34.2050 H   0  0  0  0  0  0  0  0  0  0  0  0
   41.3130   25.5440   35.6090 H   0  0  0  0  0  0  0  0  0  0  0  0
   38.2740   28.0510   29.1520 C   0  0  0  0  0  0  0  0  0  0  0  0
   39.0150   27.5080   30.1970 C   0  0  0  0  0  0  0  0  0  0  0  0
   38.6440   27.6390   31.5230 C   0  0  0  0  0  0  0  0  0  0  0  0
   37.4940   28.3430   31.7340 N   0  0  0  0  0  0  0  0  0  0  0  0
   36.7820   28.8650   30.7260 C   0  0  0  0  0  0  0  0  0  0  0  0
   37.1510   28.7320   29.4520 N   0  0  0  0  0  0  0  0  0  0  0  0
   38.6370   27.9010   28.1430 H   0  0  0  0  0  0  0  0  0  0  0  0
   39.9320   26.9490   29.9930 H   0  0  0  0  0  0  0  0  0  0  0  0
   35.8840   29.4050   31.0170 H   0  0  0  0  0  0  0  0  0  0  0  0
   38.7610   24.5940   35.3050 C   0  0  0  0  0  0  0  0  0  0  0  0
   38.1350   24.8620   36.5020 C   0  0  0  0  0  3  0  0  0  0  0  0
   37.4660   23.9200   37.2500 C   0  0  0  0  0  0  0  0  0  0  0  0
   36.9910   24.2010   38.1920 H   0  0  0  0  0  0  0  0  0  0  0  0
   37.4170   22.6530   36.7860 N   0  0  0  0  0  0  0  0  0  0  0  0
   38.0220   22.3610   35.6140 C   0  0  0  0  0  3  0  0  0  0  0  0
   38.6580   23.2990   34.9230 N   0  0  0  0  0  0  0  0  0  0  0  0
  1  2  1  0  0  0  0
  2  7  1  0  0  0  0
  3  4  1  0  0  0  0
  3  2  2  0  0  0  0
  4  5  2  0  0  0  0
  5  9  1  0  0  0  0
  5  6  1  0  0  0  0
  6 10  1  0  0  0  0
  7  6  2  0  0  0  0
  7 20  1  0  0  0  0
  8  4  1  0  0  0  0
 11 16  2  0  0  0  0
 11 12  1  0  0  0  0
 12 13  2  0  0  0  0
 13 14  1  0  0  0  0
 13  3  1  0  0  0  0
 15 19  1  0  0  0  0
 15 14  2  0  0  0  0
 16 15  1  0  0  0  0
 17 11  1  0  0  0  0
 18 12  1  0  0  0  0
 20 21  1  0  0  0  0
 21 22  2  0  0  0  0
 22 23  1  0  0  0  0
 24 22  1  0  0  0  0
 25 24  2  0  0  0  0
 26 20  2  0  0  0  0
 26 25  1  0  0  0  0
M  END
>  <minimizedAffinity>
-4.67417765

$$$$

 OpenBabel03272505153D

 26 28  0  0  0  0  0  0  0  0999 V2000
   36.2870   28.1270   34.6580 Cl  0  0  0  0  0  0  0  0  0  0  0  0
   36.1430   29.0000   33.1600 C   0  0  0  0  0  0  0  0  0  0  0  0
   36.6240   28.4650   31.9970 C   0  0  0  0  0  0  0  0  0  0  0  0
   36.4720   29.2180   30.8620 C   0  0  0  0  0  0  0  0  0  0  0  0
   35.8870   30.4400   30.8130 C   0  0  0  0  0  0  0  0  0  0  0  0
   35.4130   30.9570   31.9860 C   0  0  0  0  0  0  0  0  0  0  0  0
   35.5350   30.2470   33.1670 C   0  0  0  0  0  0  0  0  0  0  0  0
   36.8600   28.7890   29.9240 H   0  0  0  0  0  0  0  0  0  0  0  0
   35.7930   30.9960   29.8900 H   0  0  0  0  0  0  0  0  0  0  0  0
   34.9410   31.9310   31.9740 H   0  0  0  0  0  0  0  0  0  0  0  0
   39.1930   25.6860   32.1970 C   0  0  0  0  0  0  0  0  0  0  0  0
   38.6180   26.9520   32.1510 C   0  0  0  0  0  0  0  0  0  0  0  0
   37.2530   27.1500   32.0460 C   0  0  0  0  0  0  0  0  0  0  0  0
   36.5070   26.0080   31.9880 N   0  0  0  0  0  0  0  0  0  0  0  0
   37.0630   24.7900   32.0320 C   0  0  0  0  0  0  0  0  0  0  0  0
   38.3800   24.6140   32.1340 N   0  0  0  0  0  0  0  0  0  0  0  0
   40.2700   25.6230   32.2800 H   0  0  0  0  0  0  0  0  0  0  0  0
   39.2440   27.8470   32.1990 H   0  0  0  0  0  0  0  0  0  0  0  0
   36.3680   23.9550   31.9800 H   0  0  0  0  0  0  0  0  0  0  0  0
   35.0470   30.7510   34.4450 C   0  0  0  0  0  0  0  0  0  0  0  0
   35.7970   31.4940   35.3280 C   0  0  0  0  0  3  0  0  0  0  0  0
   35.3250   31.9660   36.5320 C   0  0  0  0  0  0  0  0  0  0  0  0
   35.9750   32.5500   37.1870 H   0  0  0  0  0  0  0  0  0  0  0  0
   34.0490   31.6860   36.8720 N   0  0  0  0  0  0  0  0  0  0  0  0
   33.2900   30.9590   36.0250 C   0  0  0  0  0  3  0  0  0  0  0  0
   33.7820   30.5220   34.8730 N   0  0  0  0  0  0  0  0  0  0  0  0
  2  7  1  0  0  0  0
  2  1  1  0  0  0  0
  3 13  1  0  0  0  0
  3  2  2  0  0  0  0
  4  3  1  0  0  0  0
  5  4  2  0  0  0  0
  5  6  1  0  0  0  0
  6  7  2  0  0  0  0
  7 20  1  0  0  0  0
  8  4  1  0  0  0  0
  9  5  1  0  0  0  0
 10  6  1  0  0  0  0
 11 17  1  0  0  0  0
 12 11  1  0  0  0  0
 12 18  1  0  0  0  0
 13 12  2  0  0  0  0
 14 15  2  0  0  0  0
 14 13  1  0  0  0  0
 15 16  1  0  0  0  0
 16 11  2  0  0  0  0
 19 15  1  0  0  0  0
 20 26  2  0  0  0  0
 20 21  1  0  0  0  0
 21 22  2  0  0  0  0
 22 24  1  0  0  0  0
 22 23  1  0  0  0  0
 25 24  2  0  0  0  0
 26 25  1  0  0  0  0
M  END
>  <minimizedAffinity>
-4.66765976

$$$$

 OpenBabel03272505153D

 26 28  0  0  0  0  0  0  0  0999 V2000
   37.1330   25.6730   33.1100 Cl  0  0  0  0  0  0  0  0  0  0  0  0
   38.7730   26.1210   33.4780 C   0  0  0  0  0  0  0  0  0  0  0  0
   39.4260   25.5520   34.5370 C   0  0  0  0  0  0  0  0  0  0  0  0
   40.7150   25.9620   34.7590 C   0  0  0  0  0  0  0  0  0  0  0  0
   41.3780   26.8790   34.0140 C   0  0  0  0  0  0  0  0  0  0  0  0
   40.7080   27.4360   32.9610 C   0  0  0  0  0  0  0  0  0  0  0  0
   39.4050   27.0650   32.6820 C   0  0  0  0  0  0  0  0  0  0  0  0
   41.2420   25.5050   35.6130 H   0  0  0  0  0  0  0  0  0  0  0  0
   42.3970   27.1690   34.2320 H   0  0  0  0  0  0  0  0  0  0  0  0
   41.2160   28.1710   32.3490 H   0  0  0  0  0  0  0  0  0  0  0  0
   37.4500   23.8810   37.3060 C   0  0  0  0  0  0  0  0  0  0  0  0
   38.1240   24.8430   36.5590 C   0  0  0  0  0  0  0  0  0  0  0  0
   38.7160   24.5640   35.3400 C   0  0  0  0  0  0  0  0  0  0  0  0
   38.5930   23.2700   34.9220 N   0  0  0  0  0  0  0  0  0  0  0  0
   37.9450   22.3460   35.6430 C   0  0  0  0  0  0  0  0  0  0  0  0
   37.3780   22.6280   36.8160 N   0  0  0  0  0  0  0  0  0  0  0  0
   37.0160   24.1860   38.2490 H   0  0  0  0  0  0  0  0  0  0  0  0
   38.2040   25.8710   36.9230 H   0  0  0  0  0  0  0  0  0  0  0  0
   37.9110   21.3500   35.2080 H   0  0  0  0  0  0  0  0  0  0  0  0
   38.6450   27.6270   31.5720 C   0  0  0  0  0  0  0  0  0  0  0  0
   38.9860   27.4910   30.2450 C   0  0  0  0  0  3  0  0  0  0  0  0
   38.2600   28.0250   29.2050 C   0  0  0  0  0  0  0  0  0  0  0  0
   38.5880   27.8790   28.1730 H   0  0  0  0  0  0  0  0  0  0  0  0
   37.1450   28.7270   29.4980 N   0  0  0  0  0  0  0  0  0  0  0  0
   36.7860   28.8760   30.7910 C   0  0  0  0  0  3  0  0  0  0  0  0
   37.5130   28.3450   31.7650 N   0  0  0  0  0  0  0  0  0  0  0  0
  1  2  1  0  0  0  0
  2  3  1  0  0  0  0
  3  4  2  0  0  0  0
  3 13  1  0  0  0  0
  4  8  1  0  0  0  0
  5  9  1  0  0  0  0
  5  4  1  0  0  0  0
  6  5  2  0  0  0  0
  7  6  1  0  0  0  0
  7  2  2  0  0  0  0
 10  6  1  0  0  0  0
 11 17  1  0  0  0  0
 12 18  1  0  0  0  0
 12 11  2  0  0  0  0
 13 12  1  0  0  0  0
 14 13  2  0  0  0  0
 14 15  1  0  0  0  0
 15 16  2  0  0  0  0
 16 11  1  0  0  0  0
 19 15  1  0  0  0  0
 20 26  1  0  0  0  0
 20  7  1  0  0  0  0
 21 20  2  0  0  0  0
 22 24  2  0  0  0  0
 22 21  1  0  0  0  0
 23 22  1  0  0  0  0
 24 25  1  0  0  0  0
 25 26  2  0  0  0  0
M  END
>  <minimizedAffinity>
-4.66520834

$$$$

 OpenBabel03272505153D

 26 28  0  0  0  0  0  0  0  0999 V2000
   38.0490   27.1590   33.4170 Cl  0  0  0  0  0  0  0  0  0  0  0  0
   37.1420   25.9370   32.5740 C   0  0  0  0  0  0  0  0  0  0  0  0
   37.3910   24.6110   32.7970 C   0  0  0  0  0  0  0  0  0  0  0  0
   36.6340   23.7140   32.0910 C   0  0  0  0  0  0  0  0  0  0  0  0
   35.6690   24.0440   31.1980 C   0  0  0  0  0  0  0  0  0  0  0  0
   35.4350   25.3740   30.9890 C   0  0  0  0  0  0  0  0  0  0  0  0
   36.1650   26.3320   31.6710 C   0  0  0  0  0  0  0  0  0  0  0  0
   36.8340   22.6440   32.2690 H   0  0  0  0  0  0  0  0  0  0  0  0
   35.0990   23.2960   30.6640 H   0  0  0  0  0  0  0  0  0  0  0  0
   34.6700   25.6650   30.2810 H   0  0  0  0  0  0  0  0  0  0  0  0
   40.7160   23.6670   34.3520 C   0  0  0  0  0  0  0  0  0  0  0  0
   39.7440   24.0070   33.4150 C   0  0  0  0  0  0  0  0  0  0  0  0
   38.4270   24.2520   33.7580 C   0  0  0  0  0  0  0  0  0  0  0  0
   38.1460   24.1350   35.0890 N   0  0  0  0  0  0  0  0  0  0  0  0
   39.0820   23.8070   35.9890 C   0  0  0  0  0  0  0  0  0  0  0  0
   40.3480   23.5730   35.6450 N   0  0  0  0  0  0  0  0  0  0  0  0
   41.7220   23.4920   33.9970 H   0  0  0  0  0  0  0  0  0  0  0  0
   40.0030   24.0930   32.3560 H   0  0  0  0  0  0  0  0  0  0  0  0
   38.7400   23.7440   37.0200 H   0  0  0  0  0  0  0  0  0  0  0  0
   35.9570   27.7620   31.4860 C   0  0  0  0  0  0  0  0  0  0  0  0
   36.5870   28.5260   30.5290 C   0  0  0  0  0  3  0  0  0  0  0  0
   36.3820   29.8760   30.3630 C   0  0  0  0  0  0  0  0  0  0  0  0
   36.9160   30.4220   29.5830 H   0  0  0  0  0  0  0  0  0  0  0  0
   35.5090   30.4960   31.1860 N   0  0  0  0  0  0  0  0  0  0  0  0
   34.8770   29.7720   32.1340 C   0  0  0  0  0  3  0  0  0  0  0  0
   35.1020   28.4710   32.2620 N   0  0  0  0  0  0  0  0  0  0  0  0
  2  3  1  0  0  0  0
  2  1  1  0  0  0  0
  3 13  1  0  0  0  0
  4  8  1  0  0  0  0
  4  3  2  0  0  0  0
  5  4  1  0  0  0  0
  6  5  2  0  0  0  0
  6  7  1  0  0  0  0
  7  2  2  0  0  0  0
  9  5  1  0  0  0  0
 10  6  1  0  0  0  0
 11 16  1  0  0  0  0
 12 13  1  0  0  0  0
 12 11  2  0  0  0  0
 13 14  2  0  0  0  0
 14 15  1  0  0  0  0
 15 19  1  0  0  0  0
 16 15  2  0  0  0  0
 17 11  1  0  0  0  0
 18 12  1  0  0  0  0
 20  7  1  0  0  0  0
 20 26  1  0  0  0  0
 21 20  2  0  0  0  0
 22 21  1  0  0  0  0
 22 24  2  0  0  0  0
 23 22  1  0  0  0  0
 24 25  1  0  0  0  0
 25 26  2  0  0  0  0
M  END
>  <minimizedAffinity>
-4.65399647

$$$$

 OpenBabel03272505153D

 26 28  0  0  0  0  0  0  0  0999 V2000
   38.0550   27.1690   33.4860 Cl  0  0  0  0  0  0  0  0  0  0  0  0
   37.1470   25.9840   32.5930 C   0  0  0  0  0  0  0  0  0  0  0  0
   36.1890   26.3740   31.6990 C   0  0  0  0  0  0  0  0  0  0  0  0
   35.5180   25.3770   31.0390 C   0  0  0  0  0  0  0  0  0  0  0  0
   35.7350   24.0500   31.2100 C   0  0  0  0  0  0  0  0  0  0  0  0
   36.6960   23.6810   32.1090 C   0  0  0  0  0  0  0  0  0  0  0  0
   37.4100   24.6380   32.8070 C   0  0  0  0  0  0  0  0  0  0  0  0
   34.7450   25.6900   30.3180 H   0  0  0  0  0  0  0  0  0  0  0  0
   35.1760   23.3010   30.6640 H   0  0  0  0  0  0  0  0  0  0  0  0
   36.8890   22.6270   32.2630 H   0  0  0  0  0  0  0  0  0  0  0  0
   36.3420   29.9260   30.3870 C   0  0  0  0  0  0  0  0  0  0  0  0
   36.5840   28.5640   30.5460 C   0  0  0  0  0  0  0  0  0  0  0  0
   35.9540   27.8010   31.5120 C   0  0  0  0  0  0  0  0  0  0  0  0
   35.0750   28.4820   32.3030 N   0  0  0  0  0  0  0  0  0  0  0  0
   34.8440   29.7920   32.1490 C   0  0  0  0  0  0  0  0  0  0  0  0
   35.4570   30.5170   31.2130 N   0  0  0  0  0  0  0  0  0  0  0  0
   36.8790   30.4470   29.6050 H   0  0  0  0  0  0  0  0  0  0  0  0
   37.2950   28.0490   29.8940 H   0  0  0  0  0  0  0  0  0  0  0  0
   34.1220   30.2260   32.8370 H   0  0  0  0  0  0  0  0  0  0  0  0
   38.4450   24.2990   33.7760 C   0  0  0  0  0  0  0  0  0  0  0  0
   38.2170   24.0670   35.1130 C   0  0  0  0  0  3  0  0  0  0  0  0
   39.2020   23.7470   36.0190 C   0  0  0  0  0  0  0  0  0  0  0  0
   38.9510   23.5760   37.0680 H   0  0  0  0  0  0  0  0  0  0  0  0
   40.4730   23.6530   35.5730 N   0  0  0  0  0  0  0  0  0  0  0  0
   40.7270   23.8760   34.2660 C   0  0  0  0  0  3  0  0  0  0  0  0
   39.7480   24.1830   33.4250 N   0  0  0  0  0  0  0  0  0  0  0  0
  2  7  1  0  0  0  0
  2  1  1  0  0  0  0
  3  2  2  0  0  0  0
  4  5  2  0  0  0  0
  4  3  1  0  0  0  0
  5  6  1  0  0  0  0
  6 10  1  0  0  0  0
  6  7  2  0  0  0  0
  7 20  1  0  0  0  0
  8  4  1  0  0  0  0
  9  5  1  0  0  0  0
 11 12  2  0  0  0  0
 11 16  1  0  0  0  0
 12 13  1  0  0  0  0
 13  3  1  0  0  0  0
 13 14  2  0  0  0  0
 15 14  1  0  0  0  0
 15 19  1  0  0  0  0
 16 15  2  0  0  0  0
 17 11  1  0  0  0  0
 18 12  1  0  0  0  0
 20 21  1  0  0  0  0
 21 22  2  0  0  0  0
 22 23  1  0  0  0  0
 24 22  1  0  0  0  0
 25 24  2  0  0  0  0
 26 20  2  0  0  0  0
 26 25  1  0  0  0  0
M  END
>  <minimizedAffinity>
-4.63897657

$$$$
