
 OpenBabel03262522373D

 25 27  0  0  0  0  0  0  0  0999 V2000
   38.2730   31.3760   48.3490 C   0  0  0  0  0  0  0  0  0  0  0  0
   38.7280   32.6620   48.4720 C   0  0  0  0  0  0  0  0  0  0  0  0
   39.4350   33.3250   47.5010 C   0  0  0  0  0  0  0  0  0  0  0  0
   39.7260   32.6920   46.3110 C   0  0  0  0  0  0  0  0  0  0  0  0
   39.2580   31.3960   46.2100 C   0  0  0  0  0  0  0  0  0  0  0  0
   38.5730   30.7780   47.1720 N   0  0  0  0  0  0  0  0  0  0  0  0
   38.5250   33.2090   49.3950 H   0  0  0  0  0  0  0  0  0  0  0  0
   39.7790   34.3450   47.6360 H   0  0  0  0  0  0  0  0  0  0  0  0
   40.2700   33.1560   45.5240 H   0  0  0  0  0  0  0  0  0  0  0  0
   37.1090   29.9290   51.6350 C   0  0  0  0  0  0  0  0  0  0  0  0
   37.9190   30.6250   50.7250 C   0  0  0  0  0  0  0  0  0  0  0  0
   37.5200   30.6830   49.3970 C   0  0  0  0  0  0  0  0  0  0  0  0
   36.3730   30.0730   49.0340 N   0  0  0  0  0  0  0  0  0  0  0  0
   35.6000   29.4020   49.9320 C   0  0  0  0  0  0  0  0  0  0  0  0
   35.9790   29.3390   51.2250 N   0  0  0  0  0  0  0  0  0  0  0  0
   37.4780   29.9200   52.6620 H   0  0  0  0  0  0  0  0  0  0  0  0
   38.8390   31.1180   51.0010 H   0  0  0  0  0  0  0  0  0  0  0  0
   34.6770   28.9150   49.6230 H   0  0  0  0  0  0  0  0  0  0  0  0
   39.5550   30.6970   44.9510 C   0  0  0  0  0  0  0  0  0  0  0  0
   40.5550   31.1880   44.1050 C   0  0  0  0  0  0  0  0  0  0  0  0
   40.7170   30.4310   42.9720 C   0  0  0  0  0  0  0  0  0  0  0  0
   41.4820   30.7500   42.2580 H   0  0  0  0  0  0  0  0  0  0  0  0
   40.0490   29.3380   42.6220 N   0  0  0  0  0  0  0  0  0  0  0  0
   39.0890   28.8990   43.4730 C   0  0  0  0  0  0  0  0  0  0  0  0
   38.8760   29.5940   44.6060 N   0  0  0  0  0  0  0  0  0  0  0  0
  1  2  1  0  0  0  0
  1 12  1  0  0  0  0
  2  7  1  0  0  0  0
  3  8  1  0  0  0  0
  3  2  2  0  0  0  0
  4  3  1  0  0  0  0
  5  4  2  0  0  0  0
  5  6  1  0  0  0  0
  6  1  2  0  0  0  0
  9  4  1  0  0  0  0
 10 16  1  0  0  0  0
 11 17  1  0  0  0  0
 11 10  2  0  0  0  0
 12 11  1  0  0  0  0
 13 12  2  0  0  0  0
 13 14  1  0  0  0  0
 14 15  2  0  0  0  0
 15 10  1  0  0  0  0
 18 14  1  0  0  0  0
 19  5  1  0  0  0  0
 20 19  2  0  0  0  0
 21 20  1  0  0  0  0
 22 21  1  0  0  0  0
 23 21  2  0  0  0  0
 23 24  1  0  0  0  0
 24 25  2  0  0  0  0
 25 19  1  0  0  0  0
M  END
>  <minimizedAffinity>
-5.91174603

>  <minimizedRMSD>
0.945665658

$$$$
