REMARK  Name = 
REMARK  10 active torsions:
REMARK  status: ('A' for Active; 'I' for Inactive)
REMARK    1  A    between atoms: C_3  and  C_12
REMARK    2  A    between atoms: C_7  and  C_15
REMARK    3  A    between atoms: C_10  and  N_14
REMARK    4  A    between atoms: C_15  and  C_16
REMARK    5  A    between atoms: C_16  and  O_17
REMARK    6  A    between atoms: O_17  and  P_19
REMARK    7  A    between atoms: P_19  and  O_20
REMARK    8  A    between atoms: P_19  and  O_21
REMARK    9  A    between atoms: O_20  and  C_37
REMARK   10  A    between atoms: O_21  and  C_22
REMARK                            x       y       z     vdW  Elec       q    Type
REMARK                         _______ _______ _______ _____ _____    ______ ____
ROOT
ATOM      1  C   UNL     1      34.833  29.420  48.831  0.00  0.00    +0.000 C 
ATOM      2  H   UNL     1      35.736  29.459  49.482  0.00  0.00    +0.000 HD
ATOM      3  H   UNL     1      34.182  30.240  49.258  0.00  0.00    +0.000 HD
ENDROOT
BRANCH   1  10
ATOM      4 CL   UNL     1      37.604  30.459  48.516  0.00  0.00    +0.000 Cl
ATOM      5  C   UNL     1      36.448  30.319  47.193  0.00  0.00    +0.000 A 
ATOM      6  C   UNL     1      36.819  30.701  45.951  0.00  0.00    +0.000 A 
ATOM      7  C   UNL     1      35.927  30.598  44.905  0.00  0.00    +0.000 A 
ATOM      8  C   UNL     1      34.653  30.098  45.156  0.00  0.00    +0.000 A 
ATOM      9  C   UNL     1      34.343  29.721  46.477  0.00  0.00    +0.000 A 
ATOM     10  C   UNL     1      35.203  29.817  47.505  0.00  0.00    +0.000 A 
ATOM     11  H   UNL     1      36.253  30.915  43.908  0.00  0.00    +0.000 HD
ATOM     12  H   UNL     1      34.039  30.058  44.282  0.00  0.00    +0.000 HD
ATOM     13  H   UNL     1      33.371  29.387  46.457  0.00  0.00    +0.000 HD
BRANCH   6  18
ATOM     14  C   UNL     1      39.827  32.832  45.994  0.00  0.00    +0.000 A 
ATOM     15  C   UNL     1      40.685  32.092  45.105  0.00  0.00    +0.000 A 
ATOM     16  C   UNL     1      40.194  30.913  44.542  0.00  0.00    +0.000 A 
ATOM     17  N   UNL     1      38.933  30.511  44.853  0.00  0.00    +0.000 NA
ATOM     18  C   UNL     1      38.150  31.226  45.692  0.00  0.00    +0.000 A 
ATOM     19  N   UNL     1      38.598  32.365  46.247  0.00  0.00    +0.000 NA
ATOM     20  H   UNL     1      40.161  33.737  46.445  0.00  0.00    +0.000 HD
ATOM     21  H   UNL     1      41.670  32.495  44.922  0.00  0.00    +0.000 HD
BRANCH  16  22
ATOM     22  N   UNL     1      41.060  30.225  43.684  0.00  0.00    +0.000 N 
ATOM     23  H   UNL     1      42.007  29.856  43.859  0.00  0.00    +0.000 HD
ATOM     24  H   UNL     1      40.816  29.995  42.695  0.00  0.00    +0.000 HD
ENDBRANCH  16  22
ENDBRANCH   6  18
ENDBRANCH   1  10
BRANCH   1  25
ATOM     25  C   UNL     1      34.177  28.128  49.056  0.00  0.00    +0.000 C 
ATOM     26  H   UNL     1      34.668  27.506  49.837  0.00  0.00    +0.000 HD
ATOM     27  H   UNL     1      34.257  27.509  48.115  0.00  0.00    +0.000 HD
BRANCH  25  28
ATOM     28  O   UNL     1      32.859  28.287  49.398  0.00  0.00    +0.000 OA
BRANCH  28  30
ATOM     29  O   UNL     1      32.665  26.695  47.320  0.00  0.00    +0.000 OA
ATOM     30  P   UNL     1      31.871  27.520  48.301  0.00  0.00    +0.000 P 
BRANCH  30  31
ATOM     31  O   UNL     1      31.033  28.770  47.442  0.00  0.00    +0.000 OA
BRANCH  31  32
ATOM     32  C   UNL     1      30.352  28.519  46.264  0.00  0.00    +0.000 A 
ATOM     33  C   UNL     1      29.131  27.884  46.098  0.00  0.00    +0.000 A 
ATOM     34  C   UNL     1      28.594  27.717  44.842  0.00  0.00    +0.000 A 
ATOM     35  H   UNL     1      27.639  27.216  44.747  0.00  0.00    +0.000 HD
ATOM     36  N   UNL     1      29.285  28.188  43.769  0.00  0.00    +0.000 NA
ATOM     37  C   UNL     1      30.469  28.804  43.937  0.00  0.00    +0.000 A 
ATOM     38  N   UNL     1      31.020  28.980  45.172  0.00  0.00    +0.000 NA
ENDBRANCH  31  32
ENDBRANCH  30  31
BRANCH  30  39
ATOM     39  O   UNL     1      30.698  26.589  49.001  0.00  0.00    +0.000 OA
BRANCH  39  40
ATOM     40  C   UNL     1      29.845  27.356  49.759  0.00  0.00    +0.000 C 
ATOM     41  F   UNL     1      29.314  26.650  50.837  0.00  0.00    +0.000 F 
ATOM     42  F   UNL     1      30.496  28.450  50.310  0.00  0.00    +0.000 F 
ATOM     43  F   UNL     1      28.790  27.811  48.977  0.00  0.00    +0.000 F 
ENDBRANCH  39  40
ENDBRANCH  30  39
ENDBRANCH  28  30
ENDBRANCH  25  28
ENDBRANCH   1  25
TORSDOF 10
