
 OpenBabel03272506563D

 18 19  0  0  0  0  0  0  0  0999 V2000
   40.2490   23.3090   35.9540 C   0  0  0  0  0  0  0  0  0  0  0  0
   39.7390   22.8270   37.1610 C   0  0  0  0  0  0  0  0  0  0  0  0
   38.4910   23.3590   37.5470 C   0  0  0  0  0  0  0  0  0  0  0  0
   37.8730   24.2740   36.7630 N   0  0  0  0  0  0  0  0  0  0  0  0
   38.4240   24.6950   35.6110 C   0  0  0  0  0  0  0  0  0  0  0  0
   39.6250   24.2260   35.1720 N   0  0  0  0  0  0  0  0  0  0  0  0
   41.2200   22.8820   35.6730 H   0  0  0  0  0  0  0  0  0  0  0  0
   38.0510   23.0300   38.4580 H   0  0  0  0  0  0  0  0  0  0  0  0
   37.7780   25.6790   34.7500 C   0  0  0  0  0  0  0  0  0  0  0  0
   37.4110   26.9210   35.2180 C   0  0  0  0  0  3  0  0  0  0  0  0
   36.8000   27.9310   34.5140 C   0  0  0  0  0  0  0  0  0  0  0  0
   36.5530   28.8740   34.9780 H   0  0  0  0  0  0  0  0  0  0  0  0
   36.5400   27.6400   33.2130 N   0  0  0  0  0  0  0  0  0  0  0  0
   36.8840   26.4240   32.7010 C   0  0  0  0  0  3  0  0  0  0  0  0
   37.4870   25.4650   33.4480 N   0  0  0  0  0  0  0  0  0  0  0  0
   40.4380   21.8690   37.9320 N   0  0  0  0  0  0  0  0  0  0  0  0
   41.0240   22.3800   38.6220 H   0  0  0  0  0  0  0  0  0  0  0  0
   40.1410   20.9250   37.5600 H   0  0  0  0  0  0  0  0  0  0  0  0
  1  2  1  0  0  0  0
  2  3  2  0  0  0  0
  2 16  1  0  0  0  0
  3  8  1  0  0  0  0
  4  3  1  0  0  0  0
  5  4  2  0  0  0  0
  6  5  1  0  0  0  0
  6  1  2  0  0  0  0
  7  1  1  0  0  0  0
  9 10  1  0  0  0  0
  9  5  1  0  0  0  0
 11 12  1  0  0  0  0
 11 10  2  0  0  0  0
 13 11  1  0  0  0  0
 14 13  2  0  0  0  0
 14 15  1  0  0  0  0
 15  9  2  0  0  0  0
 16 17  1  0  0  0  0
 18 16  1  0  0  0  0
M  END
>  <minimizedAffinity>
-4.29049778

$$$$

 OpenBabel03272506563D

 18 19  0  0  0  0  0  0  0  0999 V2000
   38.6370   23.5960   37.5430 C   0  0  0  0  0  0  0  0  0  0  0  0
   39.7530   22.8720   37.1160 C   0  0  0  0  0  0  0  0  0  0  0  0
   40.2130   23.1770   35.8190 C   0  0  0  0  0  0  0  0  0  0  0  0
   39.5790   24.1160   35.0780 N   0  0  0  0  0  0  0  0  0  0  0  0
   38.5070   24.7750   35.5530 C   0  0  0  0  0  0  0  0  0  0  0  0
   38.0060   24.5360   36.7960 N   0  0  0  0  0  0  0  0  0  0  0  0
   38.2970   23.3430   38.5550 H   0  0  0  0  0  0  0  0  0  0  0  0
   41.0600   22.6570   35.4380 H   0  0  0  0  0  0  0  0  0  0  0  0
   37.8070   25.7910   34.7750 C   0  0  0  0  0  0  0  0  0  0  0  0
   37.5190   25.6100   33.4400 C   0  0  0  0  0  3  0  0  0  0  0  0
   36.8700   26.4840   32.6010 C   0  0  0  0  0  0  0  0  0  0  0  0
   36.6930   26.2440   31.5630 H   0  0  0  0  0  0  0  0  0  0  0  0
   36.4820   27.6480   33.1830 N   0  0  0  0  0  0  0  0  0  0  0  0
   36.7420   27.8750   34.5010 C   0  0  0  0  0  3  0  0  0  0  0  0
   37.3900   26.9720   35.2810 N   0  0  0  0  0  0  0  0  0  0  0  0
   40.3690   21.9030   37.9430 N   0  0  0  0  0  0  0  0  0  0  0  0
   39.9440   20.9790   37.7240 H   0  0  0  0  0  0  0  0  0  0  0  0
   41.0750   22.4280   38.5290 H   0  0  0  0  0  0  0  0  0  0  0  0
  1  7  1  0  0  0  0
  2  1  1  0  0  0  0
  2 16  1  0  0  0  0
  3  2  2  0  0  0  0
  4  5  2  0  0  0  0
  4  3  1  0  0  0  0
  5  6  1  0  0  0  0
  6  1  2  0  0  0  0
  8  3  1  0  0  0  0
  9 15  1  0  0  0  0
  9  5  1  0  0  0  0
 10  9  2  0  0  0  0
 11 13  2  0  0  0  0
 11 10  1  0  0  0  0
 12 11  1  0  0  0  0
 13 14  1  0  0  0  0
 14 15  2  0  0  0  0
 16 18  1  0  0  0  0
 17 16  1  0  0  0  0
M  END
>  <minimizedAffinity>
-4.12964869

$$$$

 OpenBabel03272506563D

 18 19  0  0  0  0  0  0  0  0999 V2000
   37.5680   24.1350   32.2830 C   0  0  0  0  0  0  0  0  0  0  0  0
   37.1350   25.4380   32.0300 C   0  0  0  0  0  0  0  0  0  0  0  0
   37.1460   26.3070   33.1410 C   0  0  0  0  0  0  0  0  0  0  0  0
   37.5570   25.8560   34.3500 N   0  0  0  0  0  0  0  0  0  0  0  0
   37.9620   24.5850   34.5210 C   0  0  0  0  0  0  0  0  0  0  0  0
   37.9800   23.6890   33.4960 N   0  0  0  0  0  0  0  0  0  0  0  0
   37.5520   23.4770   31.4050 H   0  0  0  0  0  0  0  0  0  0  0  0
   36.8260   27.3130   33.0100 H   0  0  0  0  0  0  0  0  0  0  0  0
   38.4100   24.0760   35.8130 C   0  0  0  0  0  0  0  0  0  0  0  0
   37.7420   24.3730   36.9800 C   0  0  0  0  0  3  0  0  0  0  0  0
   38.0590   23.9590   38.2510 C   0  0  0  0  0  0  0  0  0  0  0  0
   37.4650   24.2500   39.1050 H   0  0  0  0  0  0  0  0  0  0  0  0
   39.1610   23.1710   38.3330 N   0  0  0  0  0  0  0  0  0  0  0  0
   39.8580   22.8470   37.2070 C   0  0  0  0  0  3  0  0  0  0  0  0
   39.4950   23.2880   35.9760 N   0  0  0  0  0  0  0  0  0  0  0  0
   36.7170   25.8440   30.7410 N   0  0  0  0  0  0  0  0  0  0  0  0
   35.6880   25.7110   30.6810 H   0  0  0  0  0  0  0  0  0  0  0  0
   37.5930   26.1590   30.2380 H   0  0  0  0  0  0  0  0  0  0  0  0
  1  6  1  0  0  0  0
  2  1  2  0  0  0  0
  2  3  1  0  0  0  0
  3  4  2  0  0  0  0
  4  5  1  0  0  0  0
  5  9  1  0  0  0  0
  6  5  2  0  0  0  0
  7  1  1  0  0  0  0
  8  3  1  0  0  0  0
  9 15  2  0  0  0  0
  9 10  1  0  0  0  0
 10 11  2  0  0  0  0
 11 13  1  0  0  0  0
 11 12  1  0  0  0  0
 14 13  2  0  0  0  0
 15 14  1  0  0  0  0
 16  2  1  0  0  0  0
 17 16  1  0  0  0  0
 18 16  1  0  0  0  0
M  END
>  <minimizedAffinity>
-3.85504675

$$$$

 OpenBabel03272506563D

 18 19  0  0  0  0  0  0  0  0999 V2000
   34.6920   20.5520   32.3370 C   0  0  0  0  0  0  0  0  0  0  0  0
   35.2890   19.4520   31.7170 C   0  0  0  0  0  0  0  0  0  0  0  0
   36.3810   19.7480   30.8760 C   0  0  0  0  0  0  0  0  0  0  0  0
   36.7820   21.0320   30.7140 N   0  0  0  0  0  0  0  0  0  0  0  0
   36.1590   22.0440   31.3420 C   0  0  0  0  0  0  0  0  0  0  0  0
   35.0980   21.8360   32.1710 N   0  0  0  0  0  0  0  0  0  0  0  0
   33.8450   20.2980   32.9860 H   0  0  0  0  0  0  0  0  0  0  0  0
   36.8770   18.9510   30.3760 H   0  0  0  0  0  0  0  0  0  0  0  0
   36.5730   23.4340   31.1840 C   0  0  0  0  0  0  0  0  0  0  0  0
   35.6900   24.4760   31.3580 C   0  0  0  0  0  3  0  0  0  0  0  0
   35.9510   25.8200   31.2390 C   0  0  0  0  0  0  0  0  0  0  0  0
   35.1820   26.5620   31.3970 H   0  0  0  0  0  0  0  0  0  0  0  0
   37.2340   26.1220   30.9100 N   0  0  0  0  0  0  0  0  0  0  0  0
   38.1470   25.1260   30.7270 C   0  0  0  0  0  3  0  0  0  0  0  0
   37.8270   23.8140   30.8590 N   0  0  0  0  0  0  0  0  0  0  0  0
   34.8190   18.1350   31.9310 N   0  0  0  0  0  0  0  0  0  0  0  0
   34.1270   17.9170   31.1860 H   0  0  0  0  0  0  0  0  0  0  0  0
   35.3240   17.7820   32.7910 H   0  0  0  0  0  0  0  0  0  0  0  0
  1  7  1  0  0  0  0
  2 16  1  0  0  0  0
  2  1  2  0  0  0  0
  3  2  1  0  0  0  0
  4  3  2  0  0  0  0
  4  5  1  0  0  0  0
  5  6  2  0  0  0  0
  6  1  1  0  0  0  0
  8  3  1  0  0  0  0
  9  5  1  0  0  0  0
  9 10  1  0  0  0  0
 11 10  2  0  0  0  0
 11 12  1  0  0  0  0
 13 11  1  0  0  0  0
 14 15  1  0  0  0  0
 14 13  2  0  0  0  0
 15  9  2  0  0  0  0
 16 18  1  0  0  0  0
 17 16  1  0  0  0  0
M  END
>  <minimizedAffinity>
-3.85273886

$$$$

 OpenBabel03272506563D

 18 19  0  0  0  0  0  0  0  0999 V2000
   39.7010   23.1230   36.9330 C   0  0  0  0  0  0  0  0  0  0  0  0
   38.6500   23.4360   37.7970 C   0  0  0  0  0  0  0  0  0  0  0  0
   37.9210   24.5980   37.4700 C   0  0  0  0  0  0  0  0  0  0  0  0
   38.2610   25.3270   36.3800 N   0  0  0  0  0  0  0  0  0  0  0  0
   39.2880   24.9670   35.5910 C   0  0  0  0  0  0  0  0  0  0  0  0
   40.0380   23.8580   35.8420 N   0  0  0  0  0  0  0  0  0  0  0  0
   40.2540   22.2160   37.2060 H   0  0  0  0  0  0  0  0  0  0  0  0
   37.1080   24.8870   38.0920 H   0  0  0  0  0  0  0  0  0  0  0  0
   39.6740   25.7350   34.4120 C   0  0  0  0  0  0  0  0  0  0  0  0
   40.7610   26.5810   34.4220 C   0  0  0  0  0  3  0  0  0  0  0  0
   41.2250   27.3540   33.3860 C   0  0  0  0  0  0  0  0  0  0  0  0
   42.0930   27.9880   33.4990 H   0  0  0  0  0  0  0  0  0  0  0  0
   40.5110   27.2530   32.2360 N   0  0  0  0  0  0  0  0  0  0  0  0
   39.4270   26.4290   32.1740 C   0  0  0  0  0  3  0  0  0  0  0  0
   39.0150   25.6870   33.2340 N   0  0  0  0  0  0  0  0  0  0  0  0
   38.3480   22.6300   38.9190 N   0  0  0  0  0  0  0  0  0  0  0  0
   38.8610   23.0150   39.7370 H   0  0  0  0  0  0  0  0  0  0  0  0
   37.6880   21.8800   38.5700 H   0  0  0  0  0  0  0  0  0  0  0  0
  1  7  1  0  0  0  0
  1  2  1  0  0  0  0
  2 16  1  0  0  0  0
  3  2  2  0  0  0  0
  3  8  1  0  0  0  0
  4  3  1  0  0  0  0
  5  6  1  0  0  0  0
  5  4  2  0  0  0  0
  6  1  2  0  0  0  0
  9 10  1  0  0  0  0
  9  5  1  0  0  0  0
 11 12  1  0  0  0  0
 11 10  2  0  0  0  0
 13 11  1  0  0  0  0
 14 13  2  0  0  0  0
 14 15  1  0  0  0  0
 15  9  2  0  0  0  0
 16 17  1  0  0  0  0
 18 16  1  0  0  0  0
M  END
>  <minimizedAffinity>
-3.81092429

$$$$

 OpenBabel03272506563D

 18 19  0  0  0  0  0  0  0  0999 V2000
   37.0440   27.4010   34.7070 C   0  0  0  0  0  0  0  0  0  0  0  0
   36.8470   27.0980   33.3580 C   0  0  0  0  0  0  0  0  0  0  0  0
   37.2820   25.8190   32.9540 C   0  0  0  0  0  0  0  0  0  0  0  0
   37.8480   24.9800   33.8540 N   0  0  0  0  0  0  0  0  0  0  0  0
   38.0070   25.3380   35.1400 C   0  0  0  0  0  0  0  0  0  0  0  0
   37.6110   26.5560   35.6040 N   0  0  0  0  0  0  0  0  0  0  0  0
   36.6980   28.4000   34.9990 H   0  0  0  0  0  0  0  0  0  0  0  0
   37.1580   25.5310   31.9370 H   0  0  0  0  0  0  0  0  0  0  0  0
   38.6130   24.4530   36.1280 C   0  0  0  0  0  0  0  0  0  0  0  0
   39.7720   23.7570   35.8630 C   0  0  0  0  0  3  0  0  0  0  0  0
   40.4390   22.8980   36.7020 C   0  0  0  0  0  0  0  0  0  0  0  0
   41.3460   22.3990   36.3950 H   0  0  0  0  0  0  0  0  0  0  0  0
   39.8660   22.7350   37.9220 N   0  0  0  0  0  0  0  0  0  0  0  0
   38.7180   23.4020   38.2340 C   0  0  0  0  0  3  0  0  0  0  0  0
   38.1040   24.2400   37.3610 N   0  0  0  0  0  0  0  0  0  0  0  0
   36.2480   28.0220   32.4700 N   0  0  0  0  0  0  0  0  0  0  0  0
   37.0080   28.5730   32.0220 H   0  0  0  0  0  0  0  0  0  0  0  0
   35.2050   27.8600   32.5420 H   0  0  0  0  0  0  0  0  0  0  0  0
  1  7  1  0  0  0  0
  1  6  1  0  0  0  0
  2  1  2  0  0  0  0
  3  2  1  0  0  0  0
  3  4  2  0  0  0  0
  4  5  1  0  0  0  0
  5  6  2  0  0  0  0
  5  9  1  0  0  0  0
  8  3  1  0  0  0  0
  9 15  1  0  0  0  0
 10  9  2  0  0  0  0
 10 11  1  0  0  0  0
 11 13  2  0  0  0  0
 12 11  1  0  0  0  0
 13 14  1  0  0  0  0
 15 14  2  0  0  0  0
 16 18  1  0  0  0  0
 16  2  1  0  0  0  0
 17 16  1  0  0  0  0
M  END
>  <minimizedAffinity>
-3.79633117

$$$$

 OpenBabel03272506563D

 18 19  0  0  0  0  0  0  0  0999 V2000
   35.7340   29.8280   30.9970 C   0  0  0  0  0  0  0  0  0  0  0  0
   36.2270   28.5230   30.9390 C   0  0  0  0  0  0  0  0  0  0  0  0
   36.2660   27.8340   32.1690 C   0  0  0  0  0  0  0  0  0  0  0  0
   35.8430   28.4440   33.3020 N   0  0  0  0  0  0  0  0  0  0  0  0
   35.3790   29.7070   33.2840 C   0  0  0  0  0  0  0  0  0  0  0  0
   35.3110   30.4350   32.1350 N   0  0  0  0  0  0  0  0  0  0  0  0
   35.7120   30.3440   30.0300 H   0  0  0  0  0  0  0  0  0  0  0  0
   36.6320   26.8350   32.1880 H   0  0  0  0  0  0  0  0  0  0  0  0
   34.9180   30.3860   34.4900 C   0  0  0  0  0  0  0  0  0  0  0  0
   35.7620   31.1620   35.2520 C   0  0  0  0  0  3  0  0  0  0  0  0
   35.4530   31.8500   36.4010 C   0  0  0  0  0  0  0  0  0  0  0  0
   36.1940   32.4340   36.9270 H   0  0  0  0  0  0  0  0  0  0  0  0
   34.1630   31.7290   36.8060 N   0  0  0  0  0  0  0  0  0  0  0  0
   33.2870   30.9720   36.0860 C   0  0  0  0  0  3  0  0  0  0  0  0
   33.6520   30.3140   34.9560 N   0  0  0  0  0  0  0  0  0  0  0  0
   36.6530   27.9440   29.7210 N   0  0  0  0  0  0  0  0  0  0  0  0
   37.6750   28.1140   29.6260 H   0  0  0  0  0  0  0  0  0  0  0  0
   35.7890   27.5170   29.2840 H   0  0  0  0  0  0  0  0  0  0  0  0
  1  6  1  0  0  0  0
  2  1  2  0  0  0  0
  2  3  1  0  0  0  0
  3  8  1  0  0  0  0
  3  4  2  0  0  0  0
  5  4  1  0  0  0  0
  5  9  1  0  0  0  0
  6  5  2  0  0  0  0
  7  1  1  0  0  0  0
  9 15  2  0  0  0  0
  9 10  1  0  0  0  0
 10 11  2  0  0  0  0
 11 13  1  0  0  0  0
 11 12  1  0  0  0  0
 14 13  2  0  0  0  0
 15 14  1  0  0  0  0
 16  2  1  0  0  0  0
 17 16  1  0  0  0  0
 18 16  1  0  0  0  0
M  END
>  <minimizedAffinity>
-3.78039289

$$$$

 OpenBabel03272506563D

 18 19  0  0  0  0  0  0  0  0999 V2000
   35.7410   29.7940   30.9980 C   0  0  0  0  0  0  0  0  0  0  0  0
   36.2790   28.5070   30.9480 C   0  0  0  0  0  0  0  0  0  0  0  0
   36.4010   27.8520   32.1910 C   0  0  0  0  0  0  0  0  0  0  0  0
   36.0080   28.4760   33.3270 N   0  0  0  0  0  0  0  0  0  0  0  0
   35.4970   29.7190   33.3010 C   0  0  0  0  0  0  0  0  0  0  0  0
   35.3480   30.4150   32.1390 N   0  0  0  0  0  0  0  0  0  0  0  0
   35.6550   30.2850   30.0200 H   0  0  0  0  0  0  0  0  0  0  0  0
   36.8050   26.8680   32.2160 H   0  0  0  0  0  0  0  0  0  0  0  0
   35.0660   30.4120   34.5100 C   0  0  0  0  0  0  0  0  0  0  0  0
   33.7660   30.3440   34.9590 C   0  0  0  0  0  3  0  0  0  0  0  0
   33.2370   30.9460   36.0750 C   0  0  0  0  0  0  0  0  0  0  0  0
   32.1970   30.8290   36.3420 H   0  0  0  0  0  0  0  0  0  0  0  0
   34.1200   31.6860   36.7950 N   0  0  0  0  0  0  0  0  0  0  0  0
   35.4190   31.7850   36.3920 C   0  0  0  0  0  3  0  0  0  0  0  0
   35.8830   31.1650   35.2780 N   0  0  0  0  0  0  0  0  0  0  0  0
   36.6700   27.9130   29.7250 N   0  0  0  0  0  0  0  0  0  0  0  0
   37.6800   28.1180   29.5780 H   0  0  0  0  0  0  0  0  0  0  0  0
   35.8040   27.4440   29.3400 H   0  0  0  0  0  0  0  0  0  0  0  0
  1  6  1  0  0  0  0
  2  1  2  0  0  0  0
  2  3  1  0  0  0  0
  3  8  1  0  0  0  0
  3  4  2  0  0  0  0
  5  4  1  0  0  0  0
  5  9  1  0  0  0  0
  6  5  2  0  0  0  0
  7  1  1  0  0  0  0
  9 10  2  0  0  0  0
  9 15  1  0  0  0  0
 10 11  1  0  0  0  0
 11 12  1  0  0  0  0
 11 13  2  0  0  0  0
 14 13  1  0  0  0  0
 15 14  2  0  0  0  0
 16  2  1  0  0  0  0
 17 16  1  0  0  0  0
 18 16  1  0  0  0  0
M  END
>  <minimizedAffinity>
-3.718436

$$$$

 OpenBabel03272506563D

 18 19  0  0  0  0  0  0  0  0999 V2000
   35.6600   25.7500   31.2790 C   0  0  0  0  0  0  0  0  0  0  0  0
   36.5970   26.3260   32.1390 C   0  0  0  0  0  0  0  0  0  0  0  0
   37.4070   25.4170   32.8490 C   0  0  0  0  0  0  0  0  0  0  0  0
   37.2450   24.0840   32.6730 N   0  0  0  0  0  0  0  0  0  0  0  0
   36.3200   23.5980   31.8270 C   0  0  0  0  0  0  0  0  0  0  0  0
   35.5010   24.4140   31.1060 N   0  0  0  0  0  0  0  0  0  0  0  0
   35.0410   26.4760   30.7360 H   0  0  0  0  0  0  0  0  0  0  0  0
   38.1400   25.7970   33.5210 H   0  0  0  0  0  0  0  0  0  0  0  0
   36.1260   22.1670   31.6200 C   0  0  0  0  0  0  0  0  0  0  0  0
   35.0850   21.4840   32.2100 C   0  0  0  0  0  3  0  0  0  0  0  0
   34.7940   20.1460   32.0960 C   0  0  0  0  0  0  0  0  0  0  0  0
   33.9480   19.7060   32.6030 H   0  0  0  0  0  0  0  0  0  0  0  0
   35.6480   19.4440   31.3070 N   0  0  0  0  0  0  0  0  0  0  0  0
   36.6940   20.0740   30.7000 C   0  0  0  0  0  3  0  0  0  0  0  0
   36.9310   21.4020   30.8510 N   0  0  0  0  0  0  0  0  0  0  0  0
   36.7140   27.7290   32.2750 N   0  0  0  0  0  0  0  0  0  0  0  0
   36.1110   28.0250   33.0690 H   0  0  0  0  0  0  0  0  0  0  0  0
   37.3860   28.0400   31.5190 H   0  0  0  0  0  0  0  0  0  0  0  0
  1  2  1  0  0  0  0
  2 16  1  0  0  0  0
  2  3  2  0  0  0  0
  3  8  1  0  0  0  0
  4  3  1  0  0  0  0
  5  4  2  0  0  0  0
  6  1  2  0  0  0  0
  6  5  1  0  0  0  0
  7  1  1  0  0  0  0
  9  5  1  0  0  0  0
  9 10  1  0  0  0  0
 11 10  2  0  0  0  0
 11 12  1  0  0  0  0
 13 11  1  0  0  0  0
 14 15  1  0  0  0  0
 14 13  2  0  0  0  0
 15  9  2  0  0  0  0
 16 17  1  0  0  0  0
 18 16  1  0  0  0  0
M  END
>  <minimizedAffinity>
-3.67293787

$$$$
