
 OpenBabel03272504273D

 40 43  0  0  0  0  0  0  0  0999 V2000
   34.6210   29.2730   48.0790 C   0  0  0  0  0  0  0  0  0  0  0  0
   34.6480   27.9860   48.4850 C   0  0  0  0  0  0  0  0  0  0  0  0
   33.7150   27.1160   48.0880 C   0  0  0  0  0  0  0  0  0  0  0  0
   32.7260   27.5460   47.2620 N   0  0  0  0  0  0  0  0  0  0  0  0
   32.7080   28.8150   46.8680 C   0  0  0  0  0  0  0  0  0  0  0  0
   33.6410   29.6900   47.2630 N   0  0  0  0  0  0  0  0  0  0  0  0
   35.4350   27.6310   49.1460 H   0  0  0  0  0  0  0  0  0  0  0  0
   33.7410   26.0830   48.4170 H   0  0  0  0  0  0  0  0  0  0  0  0
   30.3050   28.9780   46.3840 C   0  0  0  0  0  0  0  0  0  0  0  0
   31.6250   29.1530   45.9710 C   0  0  0  0  0  0  0  0  0  0  0  0
   31.9920   29.6150   44.7210 C   0  0  0  0  0  0  0  0  0  0  0  0
   31.0070   29.9240   43.8090 C   0  0  0  0  0  0  0  0  0  0  0  0
   29.6750   29.7810   44.1280 C   0  0  0  0  0  0  0  0  0  0  0  0
   29.4140   29.3230   45.3770 C   0  0  0  0  0  0  0  0  0  0  0  0
   33.0320   29.7350   44.4480 H   0  0  0  0  0  0  0  0  0  0  0  0
   31.2960   30.2860   42.8280 H   0  0  0  0  0  0  0  0  0  0  0  0
   28.9060   30.0170   43.4310 H   0  0  0  0  0  0  0  0  0  0  0  0
   28.3470   29.2130   45.6230 H   0  0  0  0  0  0  0  0  0  0  0  0
   29.8270   28.4480   47.8900 S   0  0  0  0  0  0  0  0  0  0  0  0
   29.3840   27.0130   47.4490 O   0  0  0  0  0  0  0  0  0  0  0  0
   28.5970   29.2310   48.2670 O   0  0  0  0  0  0  0  0  0  0  0  0
   30.1250   27.8480   49.3380 C   0  0  0  0  0  0  0  0  0  0  0  0
   29.7240   26.5720   49.7880 F   0  0  0  0  0  0  0  0  0  0  0  0
   29.2250   28.4660   50.3260 F   0  0  0  0  0  0  0  0  0  0  0  0
   31.1970   28.3330   50.1430 F   0  0  0  0  0  0  0  0  0  0  0  0
   36.7150   31.5290   50.0750 C   0  0  0  0  0  0  0  0  0  0  0  0
   37.5840   32.0860   49.1120 C   0  0  0  0  0  0  0  0  0  0  0  0
   37.4150   31.6600   47.7970 C   0  0  0  0  0  0  0  0  0  0  0  0
   36.4420   30.7520   47.5270 N   0  0  0  0  0  0  0  0  0  0  0  0
   35.6260   30.2410   48.4890 C   0  0  0  0  0  0  0  0  0  0  0  0
   35.7730   30.6380   49.7590 N   0  0  0  0  0  0  0  0  0  0  0  0
   36.8340   31.8500   51.1010 H   0  0  0  0  0  0  0  0  0  0  0  0
   38.3460   32.7950   49.3200 H   0  0  0  0  0  0  0  0  0  0  0  0
   38.2160   32.1230   46.6710 C   0  0  0  0  0  0  0  0  0  0  0  0
   39.4900   32.6310   46.8260 C   0  0  0  0  0  0  0  0  0  0  0  0
   40.2690   33.0750   45.7770 C   0  0  0  0  0  0  0  0  0  0  0  0
   41.2540   33.4700   45.8780 H   0  0  0  0  0  0  0  0  0  0  0  0
   39.7810   33.0210   44.5220 N   0  0  0  0  0  0  0  0  0  0  0  0
   38.5200   32.5190   44.3720 C   0  0  0  0  0  0  0  0  0  0  0  0
   37.7700   32.0880   45.4010 N   0  0  0  0  0  0  0  0  0  0  0  0
  1  2  1  0  0  0  0
  1 30  1  0  0  0  0
  2  7  1  0  0  0  0
  3  8  1  0  0  0  0
  3  2  2  0  0  0  0
  4  3  1  0  0  0  0
  5  4  2  0  0  0  0
  5  6  1  0  0  0  0
  6  1  2  0  0  0  0
  9 19  1  0  0  0  0
 10  9  1  0  0  0  0
 10  5  1  0  0  0  0
 11 10  2  0  0  0  0
 12 13  2  0  0  0  0
 12 11  1  0  0  0  0
 13 14  1  0  0  0  0
 14 18  1  0  0  0  0
 14  9  2  0  0  0  0
 15 11  1  0  0  0  0
 16 12  1  0  0  0  0
 17 13  1  0  0  0  0
 19 21  2  0  0  0  0
 19 22  1  0  0  0  0
 20 19  2  0  0  0  0
 22 23  1  0  0  0  0
 22 25  1  0  0  0  0
 22 24  1  0  0  0  0
 26 32  1  0  0  0  0
 27 33  1  0  0  0  0
 27 26  2  0  0  0  0
 28 27  1  0  0  0  0
 29 28  2  0  0  0  0
 29 30  1  0  0  0  0
 30 31  2  0  0  0  0
 31 26  1  0  0  0  0
 34 35  1  0  0  0  0
 34 28  1  0  0  0  0
 36 37  1  0  0  0  0
 36 35  2  0  0  0  0
 38 36  1  0  0  0  0
 39 38  2  0  0  0  0
 39 40  1  0  0  0  0
 40 34  2  0  0  0  0
M  END
>  <minimizedAffinity>
-6.74529123

>  <minimizedRMSD>
1.75069153

$$$$
