
 OpenBabel03272502193D

 31 33  0  0  1  0  0  0  0  0999 V2000
   38.1490   27.0810   32.1000 S   0  0  0  0  0  0  0  0  0  0  0  0
   36.5690   27.5490   29.9510 N   0  0  0  0  0  0  0  0  0  0  0  0
   36.5150   27.5630   31.3920 C   0  0  2  0  0  0  0  0  0  0  0  0
   36.1930   28.9650   31.8290 C   0  0  0  0  0  0  0  0  0  0  0  0
   35.6640   29.7290   30.7660 O   0  0  0  0  0  0  0  0  0  0  0  0
   36.7550   29.9230   29.8960 C   0  0  0  0  0  0  0  0  0  0  0  0
   37.4180   28.6280   29.5230 C   0  0  2  0  0  0  0  0  0  0  0  0
   37.0430   26.6570   29.6740 H   0  0  0  0  0  0  0  0  0  0  0  0
   35.7740   26.8280   31.7390 H   0  0  0  0  0  0  0  0  0  0  0  0
   37.0140   29.4840   32.3360 H   0  0  0  0  0  0  0  0  0  0  0  0
   35.3460   28.9050   32.5680 H   0  0  0  0  0  0  0  0  0  0  0  0
   37.4270   30.6140   30.4560 H   0  0  0  0  0  0  0  0  0  0  0  0
   36.3570   30.4970   29.0350 H   0  0  0  0  0  0  0  0  0  0  0  0
   38.4200   28.5850   29.9990 H   0  0  0  0  0  0  0  0  0  0  0  0
   37.5590   28.5410   28.1180 O   0  0  0  0  0  0  0  0  0  0  0  0
   38.3750   29.0610   27.8870 H   0  0  0  0  0  0  0  0  0  0  0  0
   38.0320   25.5120   32.9150 C   0  0  0  0  0  0  0  0  0  0  0  0
   37.5960   24.4690   32.0830 C   0  0  0  0  0  0  0  0  0  0  0  0
   37.4660   23.1940   32.6090 C   0  0  0  0  0  0  0  0  0  0  0  0
   37.7740   23.0150   33.9400 N   0  0  0  0  0  0  0  0  0  0  0  0
   38.1880   24.0320   34.7090 C   0  0  0  0  0  0  0  0  0  0  0  0
   38.3090   25.2520   34.1910 N   0  0  0  0  0  0  0  0  0  0  0  0
   37.3470   24.5660   31.0450 H   0  0  0  0  0  0  0  0  0  0  0  0
   37.1340   22.3640   32.0000 H   0  0  0  0  0  0  0  0  0  0  0  0
   38.4950   23.7590   36.1120 C   0  0  0  0  0  0  0  0  0  0  0  0
   37.6680   24.2910   37.0830 C   0  0  0  0  0  3  0  0  0  0  0  0
   38.0390   23.9780   38.3760 C   0  0  0  0  0  0  0  0  0  0  0  0
   37.4950   24.3180   39.2500 H   0  0  0  0  0  0  0  0  0  0  0  0
   39.1060   23.2250   38.7000 N   0  0  0  0  0  0  0  0  0  0  0  0
   39.8870   22.7250   37.7160 C   0  0  0  0  0  3  0  0  0  0  0  0
   39.5650   23.0040   36.4230 N   0  0  0  0  0  0  0  0  0  0  0  0
  1 17  1  0  0  0  0
  2  3  1  0  0  0  0
  3  9  1  1  0  0  0
  3  4  1  0  0  0  0
  3  1  1  0  0  0  0
  4 10  1  0  0  0  0
  4 11  1  0  0  0  0
  5  4  1  0  0  0  0
  6 12  1  0  0  0  0
  6  5  1  0  0  0  0
  7  6  1  0  0  0  0
  7  2  1  0  0  0  0
  7 14  1  1  0  0  0
  8  2  1  0  0  0  0
 13  6  1  0  0  0  0
 15  7  1  0  0  0  0
 16 15  1  0  0  0  0
 17 22  1  0  0  0  0
 18 19  1  0  0  0  0
 18 17  2  0  0  0  0
 19 20  2  0  0  0  0
 20 21  1  0  0  0  0
 21 25  1  0  0  0  0
 22 21  2  0  0  0  0
 23 18  1  0  0  0  0
 24 19  1  0  0  0  0
 25 31  2  0  0  0  0
 25 26  1  0  0  0  0
 26 27  2  0  0  0  0
 27 29  1  0  0  0  0
 27 28  1  0  0  0  0
 30 29  2  0  0  0  0
 31 30  1  0  0  0  0
M  END
>  <minimizedAffinity>
-5.35476303

$$$$

 OpenBabel03272502193D

 31 33  0  0  1  0  0  0  0  0999 V2000
   38.2140   25.6860   36.0520 S   0  0  0  0  0  0  0  0  0  0  0  0
   37.8890   23.1230   36.8620 N   0  0  0  0  0  0  0  0  0  0  0  0
   38.2930   23.8760   35.7000 C   0  0  2  0  0  0  0  0  0  0  0  0
   39.7140   23.5080   35.3800 C   0  0  0  0  0  0  0  0  0  0  0  0
   40.0900   22.3040   36.0150 O   0  0  0  0  0  0  0  0  0  0  0  0
   40.1610   22.6340   37.3820 C   0  0  0  0  0  0  0  0  0  0  0  0
   38.8980   23.2820   37.8730 C   0  0  2  0  0  0  0  0  0  0  0  0
   37.0160   23.5710   37.2260 H   0  0  0  0  0  0  0  0  0  0  0  0
   37.6010   23.6700   34.8700 H   0  0  0  0  0  0  0  0  0  0  0  0
   40.4430   24.3060   35.5550 H   0  0  0  0  0  0  0  0  0  0  0  0
   39.7640   23.2630   34.2820 H   0  0  0  0  0  0  0  0  0  0  0  0
   41.0520   23.3010   37.4520 H   0  0  0  0  0  0  0  0  0  0  0  0
   40.4270   21.6950   37.9080 H   0  0  0  0  0  0  0  0  0  0  0  0
   39.1030   24.3500   38.0950 H   0  0  0  0  0  0  0  0  0  0  0  0
   38.4450   22.6340   39.0470 O   0  0  0  0  0  0  0  0  0  0  0  0
   38.9710   23.0200   39.7980 H   0  0  0  0  0  0  0  0  0  0  0  0
   37.4210   26.5420   34.7180 C   0  0  0  0  0  0  0  0  0  0  0  0
   37.5270   25.8890   33.4800 C   0  0  0  0  0  0  0  0  0  0  0  0
   36.9450   26.4630   32.3610 C   0  0  0  0  0  0  0  0  0  0  0  0
   36.2850   27.6610   32.5250 N   0  0  0  0  0  0  0  0  0  0  0  0
   36.2020   28.2600   33.7220 C   0  0  0  0  0  0  0  0  0  0  0  0
   36.7650   27.6980   34.7890 N   0  0  0  0  0  0  0  0  0  0  0  0
   38.0300   24.9580   33.3090 H   0  0  0  0  0  0  0  0  0  0  0  0
   37.0040   25.9910   31.3890 H   0  0  0  0  0  0  0  0  0  0  0  0
   35.4830   29.5300   33.8120 C   0  0  0  0  0  0  0  0  0  0  0  0
   35.6930   30.3280   34.9200 C   0  0  0  0  0  3  0  0  0  0  0  0
   34.9710   31.5060   34.9150 C   0  0  0  0  0  0  0  0  0  0  0  0
   35.0240   32.2390   35.7120 H   0  0  0  0  0  0  0  0  0  0  0  0
   34.1280   31.8760   33.9350 N   0  0  0  0  0  0  0  0  0  0  0  0
   33.9540   31.0630   32.8680 C   0  0  0  0  0  3  0  0  0  0  0  0
   34.6430   29.8900   32.8240 N   0  0  0  0  0  0  0  0  0  0  0  0
  2  8  1  0  0  0  0
  2  7  1  0  0  0  0
  3  9  1  6  0  0  0
  3  1  1  0  0  0  0
  3  2  1  0  0  0  0
  4 10  1  0  0  0  0
  4  3  1  0  0  0  0
  4  5  1  0  0  0  0
  5  6  1  0  0  0  0
  6 12  1  0  0  0  0
  6  7  1  0  0  0  0
  6 13  1  0  0  0  0
  7 14  1  1  0  0  0
  7 15  1  0  0  0  0
 11  4  1  0  0  0  0
 15 16  1  0  0  0  0
 17 22  1  0  0  0  0
 17  1  1  0  0  0  0
 18 17  2  0  0  0  0
 19 20  2  0  0  0  0
 19 18  1  0  0  0  0
 20 21  1  0  0  0  0
 21 25  1  0  0  0  0
 21 22  2  0  0  0  0
 23 18  1  0  0  0  0
 24 19  1  0  0  0  0
 25 26  1  0  0  0  0
 27 26  2  0  0  0  0
 27 28  1  0  0  0  0
 29 27  1  0  0  0  0
 30 29  2  0  0  0  0
 31 30  1  0  0  0  0
 31 25  2  0  0  0  0
M  END
>  <minimizedAffinity>
-5.24775028

$$$$

 OpenBabel03272502193D

 31 33  0  0  1  0  0  0  0  0999 V2000
   38.5390   23.1520   34.0660 S   0  0  0  0  0  0  0  0  0  0  0  0
   40.0160   23.6170   36.2880 N   0  0  0  0  0  0  0  0  0  0  0  0
   39.1030   24.2950   35.4010 C   0  0  2  0  0  0  0  0  0  0  0  0
   37.9080   24.7230   36.2060 C   0  0  0  0  0  0  0  0  0  0  0  0
   38.1850   24.7060   37.5910 O   0  0  0  0  0  0  0  0  0  0  0  0
   38.2950   23.3390   37.9110 C   0  0  0  0  0  0  0  0  0  0  0  0
   39.2760   22.6280   37.0240 C   0  0  2  0  0  0  0  0  0  0  0  0
   40.7000   23.1030   35.6840 H   0  0  0  0  0  0  0  0  0  0  0  0
   39.6170   25.1390   34.9190 H   0  0  0  0  0  0  0  0  0  0  0  0
   36.9820   24.1880   35.9690 H   0  0  0  0  0  0  0  0  0  0  0  0
   37.7170   25.8100   35.9810 H   0  0  0  0  0  0  0  0  0  0  0  0
   37.2530   22.9550   37.8090 H   0  0  0  0  0  0  0  0  0  0  0  0
   38.5430   23.3000   38.9910 H   0  0  0  0  0  0  0  0  0  0  0  0
   38.7220   21.9360   36.3550 H   0  0  0  0  0  0  0  0  0  0  0  0
   40.1940   21.8910   37.8090 O   0  0  0  0  0  0  0  0  0  0  0  0
   39.7390   21.0380   38.0420 H   0  0  0  0  0  0  0  0  0  0  0  0
   37.4670   24.0000   32.9380 C   0  0  0  0  0  0  0  0  0  0  0  0
   36.6820   23.1450   32.1480 C   0  0  0  0  0  0  0  0  0  0  0  0
   35.8040   23.6930   31.2270 C   0  0  0  0  0  0  0  0  0  0  0  0
   35.7470   25.0670   31.1340 N   0  0  0  0  0  0  0  0  0  0  0  0
   36.5100   25.8560   31.9040 C   0  0  0  0  0  0  0  0  0  0  0  0
   37.3500   25.3170   32.7840 N   0  0  0  0  0  0  0  0  0  0  0  0
   36.6970   22.0750   32.1890 H   0  0  0  0  0  0  0  0  0  0  0  0
   35.1820   23.0680   30.6000 H   0  0  0  0  0  0  0  0  0  0  0  0
   36.3890   27.3040   31.7440 C   0  0  0  0  0  0  0  0  0  0  0  0
   36.6330   27.8520   30.4990 C   0  0  0  0  0  3  0  0  0  0  0  0
   36.4940   29.2250   30.4470 C   0  0  0  0  0  0  0  0  0  0  0  0
   36.6520   29.8050   29.5450 H   0  0  0  0  0  0  0  0  0  0  0  0
   36.1540   29.9950   31.4960 N   0  0  0  0  0  0  0  0  0  0  0  0
   35.9240   29.4150   32.6960 C   0  0  0  0  0  3  0  0  0  0  0  0
   36.0470   28.0630   32.8010 N   0  0  0  0  0  0  0  0  0  0  0  0
  1  3  1  0  0  0  0
  2  7  1  0  0  0  0
  3  9  1  6  0  0  0
  3  4  1  0  0  0  0
  3  2  1  0  0  0  0
  4  5  1  0  0  0  0
  5  6  1  0  0  0  0
  6 13  1  0  0  0  0
  7 14  1  6  0  0  0
  7 15  1  0  0  0  0
  7  6  1  0  0  0  0
  8  2  1  0  0  0  0
 10  4  1  0  0  0  0
 11  4  1  0  0  0  0
 12  6  1  0  0  0  0
 15 16  1  0  0  0  0
 17  1  1  0  0  0  0
 18 23  1  0  0  0  0
 18 17  2  0  0  0  0
 19 18  1  0  0  0  0
 20 19  2  0  0  0  0
 20 21  1  0  0  0  0
 21 22  2  0  0  0  0
 22 17  1  0  0  0  0
 24 19  1  0  0  0  0
 25 21  1  0  0  0  0
 25 31  1  0  0  0  0
 26 25  2  0  0  0  0
 27 26  1  0  0  0  0
 27 29  2  0  0  0  0
 28 27  1  0  0  0  0
 29 30  1  0  0  0  0
 30 31  2  0  0  0  0
M  END
>  <minimizedAffinity>
-5.17026854

$$$$

 OpenBabel03272502193D

 31 33  0  0  1  0  0  0  0  0999 V2000
   37.4490   27.2640   32.2460 S   0  0  0  0  0  0  0  0  0  0  0  0
   37.2450   26.7000   34.8860 N   0  0  0  0  0  0  0  0  0  0  0  0
   37.1610   26.0480   33.6020 C   0  0  2  0  0  0  0  0  0  0  0  0
   38.2340   24.9970   33.5450 C   0  0  0  0  0  0  0  0  0  0  0  0
   38.7220   24.6870   34.8340 O   0  0  0  0  0  0  0  0  0  0  0  0
   39.4380   25.8350   35.2240 C   0  0  0  0  0  0  0  0  0  0  0  0
   38.6130   27.0840   35.1050 C   0  0  2  0  0  0  0  0  0  0  0  0
   36.6860   27.5820   34.8150 H   0  0  0  0  0  0  0  0  0  0  0  0
   36.1510   25.6340   33.4660 H   0  0  0  0  0  0  0  0  0  0  0  0
   39.0460   25.2130   32.8420 H   0  0  0  0  0  0  0  0  0  0  0  0
   37.7550   24.0390   33.1980 H   0  0  0  0  0  0  0  0  0  0  0  0
   40.3320   25.8340   34.5580 H   0  0  0  0  0  0  0  0  0  0  0  0
   39.8080   25.6270   36.2490 H   0  0  0  0  0  0  0  0  0  0  0  0
   39.0120   27.7020   34.2740 H   0  0  0  0  0  0  0  0  0  0  0  0
   38.6710   27.8210   36.3120 O   0  0  0  0  0  0  0  0  0  0  0  0
   39.5190   28.3410   36.2800 H   0  0  0  0  0  0  0  0  0  0  0  0
   36.4020   28.6790   32.4500 C   0  0  0  0  0  0  0  0  0  0  0  0
   36.0520   29.3070   31.2440 C   0  0  0  0  0  0  0  0  0  0  0  0
   35.2350   30.4260   31.2770 C   0  0  0  0  0  0  0  0  0  0  0  0
   34.8040   30.8700   32.5080 N   0  0  0  0  0  0  0  0  0  0  0  0
   35.1570   30.2470   33.6420 C   0  0  0  0  0  0  0  0  0  0  0  0
   35.9420   29.1740   33.5970 N   0  0  0  0  0  0  0  0  0  0  0  0
   36.3640   28.9950   30.2680 H   0  0  0  0  0  0  0  0  0  0  0  0
   34.9420   30.9380   30.3700 H   0  0  0  0  0  0  0  0  0  0  0  0
   34.6580   30.7810   34.9090 C   0  0  0  0  0  0  0  0  0  0  0  0
   35.5020   31.5660   35.6710 C   0  0  0  0  0  3  0  0  0  0  0  0
   34.9420   32.0230   36.8480 C   0  0  0  0  0  0  0  0  0  0  0  0
   35.4720   32.6480   37.5560 H   0  0  0  0  0  0  0  0  0  0  0  0
   33.6870   31.7480   37.2500 N   0  0  0  0  0  0  0  0  0  0  0  0
   32.8970   30.9760   36.4700 C   0  0  0  0  0  3  0  0  0  0  0  0
   33.4010   30.4990   35.2990 N   0  0  0  0  0  0  0  0  0  0  0  0
  1 17  1  0  0  0  0
  1  3  1  0  0  0  0
  2  7  1  0  0  0  0
  3  9  1  6  0  0  0
  3  2  1  0  0  0  0
  4  3  1  0  0  0  0
  4  5  1  0  0  0  0
  5  6  1  0  0  0  0
  6 13  1  0  0  0  0
  7 14  1  6  0  0  0
  7  6  1  0  0  0  0
  7 15  1  0  0  0  0
  8  2  1  0  0  0  0
 10  4  1  0  0  0  0
 11  4  1  0  0  0  0
 12  6  1  0  0  0  0
 16 15  1  0  0  0  0
 17 22  1  0  0  0  0
 18 19  1  0  0  0  0
 18 17  2  0  0  0  0
 19 20  2  0  0  0  0
 20 21  1  0  0  0  0
 21 25  1  0  0  0  0
 22 21  2  0  0  0  0
 23 18  1  0  0  0  0
 24 19  1  0  0  0  0
 25 31  2  0  0  0  0
 25 26  1  0  0  0  0
 26 27  2  0  0  0  0
 27 29  1  0  0  0  0
 27 28  1  0  0  0  0
 30 29  2  0  0  0  0
 31 30  1  0  0  0  0
M  END
>  <minimizedAffinity>
-5.13136625

$$$$

 OpenBabel03272502193D

 31 33  0  0  1  0  0  0  0  0999 V2000
   38.5710   24.6690   35.2370 S   0  0  0  0  0  0  0  0  0  0  0  0
   38.3590   22.4510   36.7760 N   0  0  0  0  0  0  0  0  0  0  0  0
   38.8190   22.8560   35.4700 C   0  0  2  0  0  0  0  0  0  0  0  0
   40.2880   22.5530   35.3830 C   0  0  0  0  0  0  0  0  0  0  0  0
   40.6890   21.6420   36.3850 O   0  0  0  0  0  0  0  0  0  0  0  0
   40.5990   22.3760   37.5840 C   0  0  0  0  0  0  0  0  0  0  0  0
   39.2490   23.0100   37.7580 C   0  0  2  0  0  0  0  0  0  0  0  0
   37.4230   22.8980   36.9200 H   0  0  0  0  0  0  0  0  0  0  0  0
   38.2300   22.3390   34.6980 H   0  0  0  0  0  0  0  0  0  0  0  0
   40.9350   23.4370   35.3530 H   0  0  0  0  0  0  0  0  0  0  0  0
   40.4650   21.9940   34.4210 H   0  0  0  0  0  0  0  0  0  0  0  0
   41.4260   23.1190   37.5070 H   0  0  0  0  0  0  0  0  0  0  0  0
   40.8800   21.6710   38.3920 H   0  0  0  0  0  0  0  0  0  0  0  0
   39.3500   24.1110   37.6520 H   0  0  0  0  0  0  0  0  0  0  0  0
   38.7310   22.7060   39.0390 O   0  0  0  0  0  0  0  0  0  0  0  0
   39.1500   23.3510   39.6690 H   0  0  0  0  0  0  0  0  0  0  0  0
   38.0450   25.0140   33.5800 C   0  0  0  0  0  0  0  0  0  0  0  0
   37.9310   23.8730   32.7700 C   0  0  0  0  0  0  0  0  0  0  0  0
   37.5270   24.0170   31.4520 C   0  0  0  0  0  0  0  0  0  0  0  0
   37.2540   25.2900   31.0010 N   0  0  0  0  0  0  0  0  0  0  0  0
   37.3720   26.3600   31.8010 C   0  0  0  0  0  0  0  0  0  0  0  0
   37.7620   26.2080   33.0640 N   0  0  0  0  0  0  0  0  0  0  0  0
   38.1330   22.8680   33.0810 H   0  0  0  0  0  0  0  0  0  0  0  0
   37.4270   23.1630   30.7960 H   0  0  0  0  0  0  0  0  0  0  0  0
   37.0640   27.6770   31.2450 C   0  0  0  0  0  0  0  0  0  0  0  0
   36.3890   28.5850   32.0390 C   0  0  0  0  0  3  0  0  0  0  0  0
   36.1440   29.7990   31.4270 C   0  0  0  0  0  0  0  0  0  0  0  0
   35.6250   30.6160   31.9150 H   0  0  0  0  0  0  0  0  0  0  0  0
   36.5140   30.1060   30.1710 N   0  0  0  0  0  0  0  0  0  0  0  0
   37.1730   29.1850   29.4310 C   0  0  0  0  0  3  0  0  0  0  0  0
   37.4400   27.9720   29.9870 N   0  0  0  0  0  0  0  0  0  0  0  0
  1  3  1  0  0  0  0
  2  8  1  0  0  0  0
  2  7  1  0  0  0  0
  3  9  1  6  0  0  0
  3  2  1  0  0  0  0
  4  3  1  0  0  0  0
  4  5  1  0  0  0  0
  5  6  1  0  0  0  0
  6  7  1  0  0  0  0
  6 13  1  0  0  0  0
  7 14  1  6  0  0  0
  7 15  1  0  0  0  0
 10  4  1  0  0  0  0
 11  4  1  0  0  0  0
 12  6  1  0  0  0  0
 15 16  1  0  0  0  0
 17  1  1  0  0  0  0
 18 23  1  0  0  0  0
 18 17  2  0  0  0  0
 19 18  1  0  0  0  0
 20 19  2  0  0  0  0
 20 21  1  0  0  0  0
 21 22  2  0  0  0  0
 22 17  1  0  0  0  0
 24 19  1  0  0  0  0
 25 21  1  0  0  0  0
 25 26  1  0  0  0  0
 27 28  1  0  0  0  0
 27 26  2  0  0  0  0
 29 27  1  0  0  0  0
 30 31  1  0  0  0  0
 30 29  2  0  0  0  0
 31 25  2  0  0  0  0
M  END
>  <minimizedAffinity>
-5.04162693

$$$$

 OpenBabel03272502193D

 31 33  0  0  1  0  0  0  0  0999 V2000
   34.7800   30.6600   34.8740 S   0  0  0  0  0  0  0  0  0  0  0  0
   35.2430   32.0830   37.1310 N   0  0  0  0  0  0  0  0  0  0  0  0
   35.9230   31.6420   35.9380 C   0  0  2  0  0  0  0  0  0  0  0  0
   36.3620   32.8630   35.1780 C   0  0  0  0  0  0  0  0  0  0  0  0
   36.3480   34.0130   35.9970 O   0  0  0  0  0  0  0  0  0  0  0  0
   34.9810   34.2680   36.2220 C   0  0  0  0  0  0  0  0  0  0  0  0
   34.2610   33.0620   36.7520 C   0  0  2  0  0  0  0  0  0  0  0  0
   34.7230   31.2550   37.5060 H   0  0  0  0  0  0  0  0  0  0  0  0
   36.7630   30.9870   36.2140 H   0  0  0  0  0  0  0  0  0  0  0  0
   35.8320   33.0270   34.2340 H   0  0  0  0  0  0  0  0  0  0  0  0
   37.4490   32.7290   34.9160 H   0  0  0  0  0  0  0  0  0  0  0  0
   34.6030   34.6030   35.2280 H   0  0  0  0  0  0  0  0  0  0  0  0
   34.9440   35.1530   36.8890 H   0  0  0  0  0  0  0  0  0  0  0  0
   33.5700   32.6810   35.9700 H   0  0  0  0  0  0  0  0  0  0  0  0
   33.5210   33.4070   37.9080 O   0  0  0  0  0  0  0  0  0  0  0  0
   32.6720   33.8100   37.5850 H   0  0  0  0  0  0  0  0  0  0  0  0
   35.6840   29.4480   33.9490 C   0  0  0  0  0  0  0  0  0  0  0  0
   35.8420   29.7690   32.5920 C   0  0  0  0  0  0  0  0  0  0  0  0
   36.5320   28.8960   31.7660 C   0  0  0  0  0  0  0  0  0  0  0  0
   37.0330   27.7430   32.3290 N   0  0  0  0  0  0  0  0  0  0  0  0
   36.8650   27.4650   33.6300 C   0  0  0  0  0  0  0  0  0  0  0  0
   36.2000   28.3120   34.4120 N   0  0  0  0  0  0  0  0  0  0  0  0
   35.4690   30.6540   32.1150 H   0  0  0  0  0  0  0  0  0  0  0  0
   36.6760   29.1080   30.7150 H   0  0  0  0  0  0  0  0  0  0  0  0
   37.4280   26.2200   34.1500 C   0  0  0  0  0  0  0  0  0  0  0  0
   37.7210   26.1420   35.4990 C   0  0  0  0  0  3  0  0  0  0  0  0
   38.2480   24.9280   35.8950 C   0  0  0  0  0  0  0  0  0  0  0  0
   38.5300   24.7070   36.9180 H   0  0  0  0  0  0  0  0  0  0  0  0
   38.4710   23.8900   35.0680 N   0  0  0  0  0  0  0  0  0  0  0  0
   38.1680   24.0120   33.7560 C   0  0  0  0  0  3  0  0  0  0  0  0
   37.6460   25.1880   33.3140 N   0  0  0  0  0  0  0  0  0  0  0  0
  1  3  1  0  0  0  0
  2  8  1  0  0  0  0
  3  9  1  1  0  0  0
  3  2  1  0  0  0  0
  4  3  1  0  0  0  0
  4  5  1  0  0  0  0
  5  6  1  0  0  0  0
  6  7  1  0  0  0  0
  6 13  1  0  0  0  0
  7 14  1  6  0  0  0
  7  2  1  0  0  0  0
  7 15  1  0  0  0  0
 10  4  1  0  0  0  0
 11  4  1  0  0  0  0
 12  6  1  0  0  0  0
 16 15  1  0  0  0  0
 17 22  1  0  0  0  0
 17  1  1  0  0  0  0
 18 17  2  0  0  0  0
 19 20  2  0  0  0  0
 19 18  1  0  0  0  0
 20 21  1  0  0  0  0
 21 25  1  0  0  0  0
 21 22  2  0  0  0  0
 23 18  1  0  0  0  0
 24 19  1  0  0  0  0
 25 26  1  0  0  0  0
 26 27  2  0  0  0  0
 27 28  1  0  0  0  0
 29 27  1  0  0  0  0
 30 29  2  0  0  0  0
 31 30  1  0  0  0  0
 31 25  2  0  0  0  0
M  END
>  <minimizedAffinity>
-5.04076242

$$$$

 OpenBabel03272502193D

 31 33  0  0  1  0  0  0  0  0999 V2000
   38.0420   25.2120   35.9780 S   0  0  0  0  0  0  0  0  0  0  0  0
   37.9610   22.7220   37.0400 N   0  0  0  0  0  0  0  0  0  0  0  0
   38.3430   23.3980   35.8240 C   0  0  2  0  0  0  0  0  0  0  0  0
   39.8120   23.1680   35.6090 C   0  0  0  0  0  0  0  0  0  0  0  0
   40.2850   22.0860   36.3840 O   0  0  0  0  0  0  0  0  0  0  0  0
   40.2400   22.5580   37.7100 C   0  0  0  0  0  0  0  0  0  0  0  0
   38.8870   23.0990   38.0730 C   0  0  2  0  0  0  0  0  0  0  0  0
   37.0230   23.0990   37.3150 H   0  0  0  0  0  0  0  0  0  0  0  0
   37.7270   23.0300   34.9900 H   0  0  0  0  0  0  0  0  0  0  0  0
   40.4360   24.0600   35.7300 H   0  0  0  0  0  0  0  0  0  0  0  0
   39.9510   22.8220   34.5460 H   0  0  0  0  0  0  0  0  0  0  0  0
   41.0450   23.3280   37.7490 H   0  0  0  0  0  0  0  0  0  0  0  0
   40.5790   21.7140   38.3440 H   0  0  0  0  0  0  0  0  0  0  0  0
   38.9580   24.2010   38.1890 H   0  0  0  0  0  0  0  0  0  0  0  0
   38.4440   22.5240   39.2870 O   0  0  0  0  0  0  0  0  0  0  0  0
   38.8800   23.0420   40.0160 H   0  0  0  0  0  0  0  0  0  0  0  0
   37.8430   25.9440   34.3760 C   0  0  0  0  0  0  0  0  0  0  0  0
   37.0710   27.1170   34.3790 C   0  0  0  0  0  0  0  0  0  0  0  0
   36.8450   27.7800   33.1830 C   0  0  0  0  0  0  0  0  0  0  0  0
   37.3980   27.2450   32.0390 N   0  0  0  0  0  0  0  0  0  0  0  0
   38.1310   26.1230   32.0710 C   0  0  0  0  0  0  0  0  0  0  0  0
   38.3400   25.4960   33.2250 N   0  0  0  0  0  0  0  0  0  0  0  0
   36.6240   27.5640   35.2440 H   0  0  0  0  0  0  0  0  0  0  0  0
   36.2560   28.6860   33.1430 H   0  0  0  0  0  0  0  0  0  0  0  0
   38.6820   25.6210   30.8130 C   0  0  0  0  0  0  0  0  0  0  0  0
   38.4780   24.2940   30.4870 C   0  0  0  0  0  3  0  0  0  0  0  0
   39.0350   23.9140   29.2820 C   0  0  0  0  0  0  0  0  0  0  0  0
   38.9650   22.9080   28.8850 H   0  0  0  0  0  0  0  0  0  0  0  0
   39.7240   24.7360   28.4700 N   0  0  0  0  0  0  0  0  0  0  0  0
   39.8980   26.0280   28.8300 C   0  0  0  0  0  3  0  0  0  0  0  0
   39.3690   26.4540   30.0090 N   0  0  0  0  0  0  0  0  0  0  0  0
  2  8  1  0  0  0  0
  2  7  1  0  0  0  0
  3  9  1  6  0  0  0
  3  1  1  0  0  0  0
  3  2  1  0  0  0  0
  4 10  1  0  0  0  0
  4  3  1  0  0  0  0
  4  5  1  0  0  0  0
  5  6  1  0  0  0  0
  6 12  1  0  0  0  0
  6  7  1  0  0  0  0
  6 13  1  0  0  0  0
  7 14  1  1  0  0  0
  7 15  1  0  0  0  0
 11  4  1  0  0  0  0
 15 16  1  0  0  0  0
 17 18  1  0  0  0  0
 17  1  1  0  0  0  0
 18 23  1  0  0  0  0
 19 18  2  0  0  0  0
 20 21  2  0  0  0  0
 20 19  1  0  0  0  0
 21 22  1  0  0  0  0
 22 17  2  0  0  0  0
 24 19  1  0  0  0  0
 25 21  1  0  0  0  0
 26 25  1  0  0  0  0
 27 26  2  0  0  0  0
 28 27  1  0  0  0  0
 29 30  2  0  0  0  0
 29 27  1  0  0  0  0
 30 31  1  0  0  0  0
 31 25  2  0  0  0  0
M  END
>  <minimizedAffinity>
-5.02187347

$$$$

 OpenBabel03272502193D

 31 33  0  0  1  0  0  0  0  0999 V2000
   38.1560   24.9400   36.1870 S   0  0  0  0  0  0  0  0  0  0  0  0
   38.5730   22.3230   36.7450 N   0  0  0  0  0  0  0  0  0  0  0  0
   38.0580   23.1650   35.6940 C   0  0  2  0  0  0  0  0  0  0  0  0
   38.9100   22.9550   34.4740 C   0  0  0  0  0  0  0  0  0  0  0  0
   39.6680   21.7670   34.5710 O   0  0  0  0  0  0  0  0  0  0  0  0
   40.6240   22.0410   35.5690 C   0  0  0  0  0  0  0  0  0  0  0  0
   39.9920   22.5370   36.8370 C   0  0  2  0  0  0  0  0  0  0  0  0
   38.1520   22.6650   37.6410 H   0  0  0  0  0  0  0  0  0  0  0  0
   36.9980   22.9280   35.5190 H   0  0  0  0  0  0  0  0  0  0  0  0
   39.5320   23.8140   34.1980 H   0  0  0  0  0  0  0  0  0  0  0  0
   38.2200   22.7660   33.6040 H   0  0  0  0  0  0  0  0  0  0  0  0
   41.3000   22.7900   35.0940 H   0  0  0  0  0  0  0  0  0  0  0  0
   41.2150   21.1100   35.6860 H   0  0  0  0  0  0  0  0  0  0  0  0
   40.2450   23.6090   36.9720 H   0  0  0  0  0  0  0  0  0  0  0  0
   40.4740   21.7950   37.9420 O   0  0  0  0  0  0  0  0  0  0  0  0
   41.3500   22.1970   38.1860 H   0  0  0  0  0  0  0  0  0  0  0  0
   38.9090   25.8990   34.9020 C   0  0  0  0  0  0  0  0  0  0  0  0
   40.2770   26.1460   35.1020 C   0  0  0  0  0  0  0  0  0  0  0  0
   40.9750   26.8870   34.1620 C   0  0  0  0  0  0  0  0  0  0  0  0
   40.2800   27.3490   33.0650 N   0  0  0  0  0  0  0  0  0  0  0  0
   38.9730   27.0960   32.9030 C   0  0  0  0  0  0  0  0  0  0  0  0
   38.3140   26.3830   33.8130 N   0  0  0  0  0  0  0  0  0  0  0  0
   40.8530   25.8050   35.9380 H   0  0  0  0  0  0  0  0  0  0  0  0
   42.0290   27.0980   34.2790 H   0  0  0  0  0  0  0  0  0  0  0  0
   38.3090   27.6220   31.7110 C   0  0  0  0  0  0  0  0  0  0  0  0
   36.9940   28.0310   31.8170 C   0  0  0  0  0  3  0  0  0  0  0  0
   36.4530   28.5130   30.6410 C   0  0  0  0  0  0  0  0  0  0  0  0
   35.4340   28.8720   30.5570 H   0  0  0  0  0  0  0  0  0  0  0  0
   37.1190   28.5910   29.4740 N   0  0  0  0  0  0  0  0  0  0  0  0
   38.4060   28.1790   29.4180 C   0  0  0  0  0  3  0  0  0  0  0  0
   38.9860   27.6960   30.5510 N   0  0  0  0  0  0  0  0  0  0  0  0
  2  7  1  0  0  0  0
  2  8  1  0  0  0  0
  3  9  1  6  0  0  0
  3  1  1  0  0  0  0
  3  2  1  0  0  0  0
  4  5  1  0  0  0  0
  4  3  1  0  0  0  0
  5  6  1  0  0  0  0
  6 13  1  0  0  0  0
  6  7  1  0  0  0  0
  7 14  1  1  0  0  0
  7 15  1  0  0  0  0
 10  4  1  0  0  0  0
 11  4  1  0  0  0  0
 12  6  1  0  0  0  0
 15 16  1  0  0  0  0
 17 18  1  0  0  0  0
 17  1  1  0  0  0  0
 18 23  1  0  0  0  0
 19 24  1  0  0  0  0
 19 18  2  0  0  0  0
 20 19  1  0  0  0  0
 21 20  2  0  0  0  0
 21 22  1  0  0  0  0
 22 17  2  0  0  0  0
 25 26  1  0  0  0  0
 25 21  1  0  0  0  0
 27 26  2  0  0  0  0
 28 27  1  0  0  0  0
 29 27  1  0  0  0  0
 30 29  2  0  0  0  0
 30 31  1  0  0  0  0
 31 25  2  0  0  0  0
M  END
>  <minimizedAffinity>
-4.98265648

$$$$

 OpenBabel03272502193D

 31 33  0  0  1  0  0  0  0  0999 V2000
   38.3950   25.7290   35.9410 S   0  0  0  0  0  0  0  0  0  0  0  0
   37.8990   23.1960   36.7600 N   0  0  0  0  0  0  0  0  0  0  0  0
   38.2930   23.9230   35.5780 C   0  0  2  0  0  0  0  0  0  0  0  0
   39.6540   23.4350   35.1680 C   0  0  0  0  0  0  0  0  0  0  0  0
   39.9630   22.1970   35.7730 O   0  0  0  0  0  0  0  0  0  0  0  0
   40.1480   22.5080   37.1350 C   0  0  0  0  0  0  0  0  0  0  0  0
   38.9790   23.2580   37.7060 C   0  0  2  0  0  0  0  0  0  0  0  0
   37.0920   23.7150   37.1800 H   0  0  0  0  0  0  0  0  0  0  0  0
   37.5360   23.7850   34.7920 H   0  0  0  0  0  0  0  0  0  0  0  0
   40.4600   24.1660   35.3000 H   0  0  0  0  0  0  0  0  0  0  0  0
   39.6140   23.1970   34.0680 H   0  0  0  0  0  0  0  0  0  0  0  0
   41.0950   23.0940   37.1510 H   0  0  0  0  0  0  0  0  0  0  0  0
   40.3620   21.5440   37.6380 H   0  0  0  0  0  0  0  0  0  0  0  0
   39.2900   24.3020   37.9190 H   0  0  0  0  0  0  0  0  0  0  0  0
   38.5450   22.6410   38.9040 O   0  0  0  0  0  0  0  0  0  0  0  0
   39.1480   22.9720   39.6220 H   0  0  0  0  0  0  0  0  0  0  0  0
   37.9400   26.6740   34.5120 C   0  0  0  0  0  0  0  0  0  0  0  0
   36.8030   27.4750   34.6980 C   0  0  0  0  0  0  0  0  0  0  0  0
   36.3500   28.2600   33.6490 C   0  0  0  0  0  0  0  0  0  0  0  0
   37.0510   28.2120   32.4640 N   0  0  0  0  0  0  0  0  0  0  0  0
   38.1350   27.4360   32.3190 C   0  0  0  0  0  0  0  0  0  0  0  0
   38.5590   26.6870   33.3330 N   0  0  0  0  0  0  0  0  0  0  0  0
   36.2310   27.5410   35.6010 H   0  0  0  0  0  0  0  0  0  0  0  0
   35.4780   28.8910   33.7530 H   0  0  0  0  0  0  0  0  0  0  0  0
   38.8220   27.4420   31.0280 C   0  0  0  0  0  0  0  0  0  0  0  0
   40.0300   26.7800   30.9220 C   0  0  0  0  0  3  0  0  0  0  0  0
   40.6020   26.8410   29.6670 C   0  0  0  0  0  0  0  0  0  0  0  0
   41.5490   26.3750   29.4200 H   0  0  0  0  0  0  0  0  0  0  0  0
   40.0600   27.4810   28.6140 N   0  0  0  0  0  0  0  0  0  0  0  0
   38.8740   28.1150   28.7640 C   0  0  0  0  0  3  0  0  0  0  0  0
   38.2680   28.0850   29.9830 N   0  0  0  0  0  0  0  0  0  0  0  0
  2  8  1  0  0  0  0
  2  7  1  0  0  0  0
  3  9  1  6  0  0  0
  3  1  1  0  0  0  0
  3  2  1  0  0  0  0
  4 10  1  0  0  0  0
  4  3  1  0  0  0  0
  4  5  1  0  0  0  0
  5  6  1  0  0  0  0
  6 12  1  0  0  0  0
  6 13  1  0  0  0  0
  6  7  1  0  0  0  0
  7 14  1  1  0  0  0
  7 15  1  0  0  0  0
 11  4  1  0  0  0  0
 15 16  1  0  0  0  0
 17 18  1  0  0  0  0
 17  1  1  0  0  0  0
 18 23  1  0  0  0  0
 19 24  1  0  0  0  0
 19 18  2  0  0  0  0
 20 19  1  0  0  0  0
 21 20  2  0  0  0  0
 21 22  1  0  0  0  0
 22 17  2  0  0  0  0
 25 21  1  0  0  0  0
 26 25  1  0  0  0  0
 27 26  2  0  0  0  0
 28 27  1  0  0  0  0
 29 30  2  0  0  0  0
 29 27  1  0  0  0  0
 30 31  1  0  0  0  0
 31 25  2  0  0  0  0
M  END
>  <minimizedAffinity>
-4.849967

$$$$
