
 OpenBabel03262523503D

 19 20  0  0  0  0  0  0  0  0999 V2000
   38.8390   26.5590   35.5990 C   0  0  0  0  0  0  0  0  0  0  0  0
   39.9520   26.5560   35.4080 H   0  0  0  0  0  0  0  0  0  0  0  0
   38.5920   27.1750   36.4740 H   0  0  0  0  0  0  0  0  0  0  0  0
   38.4360   25.1540   35.8340 C   0  0  0  0  0  0  0  0  0  0  0  0
   38.0070   24.8090   37.1270 C   0  0  0  0  0  0  0  0  0  0  0  0
   37.6230   23.4830   37.3610 C   0  0  0  0  0  0  0  0  0  0  0  0
   37.6910   22.6060   36.3140 N   0  0  0  0  0  0  0  0  0  0  0  0
   38.1050   22.9650   35.0940 C   0  0  0  0  0  0  0  0  0  0  0  0
   38.4810   24.2410   34.8420 N   0  0  0  0  0  0  0  0  0  0  0  0
   37.9520   25.4970   37.9490 H   0  0  0  0  0  0  0  0  0  0  0  0
   37.2810   23.1230   38.3090 H   0  0  0  0  0  0  0  0  0  0  0  0
   38.1570   22.2660   34.2670 H   0  0  0  0  0  0  0  0  0  0  0  0
   38.2300   27.1170   34.3640 C   0  0  0  0  0  0  0  0  0  0  0  0
   36.9750   27.6880   34.5320 C   0  0  0  0  0  3  0  0  0  0  0  0
   36.2420   28.2630   33.4970 C   0  0  0  0  0  0  0  0  0  0  0  0
   35.2680   28.6970   33.6750 H   0  0  0  0  0  0  0  0  0  0  0  0
   36.8300   28.2410   32.2750 N   0  0  0  0  0  0  0  0  0  0  0  0
   38.0540   27.6840   32.1140 C   0  0  0  0  0  3  0  0  0  0  0  0
   38.7730   27.1190   33.1290 N   0  0  0  0  0  0  0  0  0  0  0  0
  1  4  1  0  0  0  0
  1  3  1  0  0  0  0
  2  1  1  0  0  0  0
  4  5  1  0  0  0  0
  5  6  2  0  0  0  0
  5 10  1  0  0  0  0
  6 11  1  0  0  0  0
  7  6  1  0  0  0  0
  8  7  2  0  0  0  0
  9  8  1  0  0  0  0
  9  4  2  0  0  0  0
 12  8  1  0  0  0  0
 13 14  1  0  0  0  0
 13  1  1  0  0  0  0
 15 16  1  0  0  0  0
 15 14  2  0  0  0  0
 17 15  1  0  0  0  0
 18 17  2  0  0  0  0
 18 19  1  0  0  0  0
 19 13  2  0  0  0  0
M  END
>  <minimizedAffinity>
-3.66138935

$$$$

 OpenBabel03262523503D

 19 20  0  0  0  0  0  0  0  0999 V2000
   39.0040   26.4900   35.3170 C   0  0  0  0  0  0  0  0  0  0  0  0
   38.8100   27.0590   36.2730 H   0  0  0  0  0  0  0  0  0  0  0  0
   40.0700   26.5140   35.0550 H   0  0  0  0  0  0  0  0  0  0  0  0
   38.2040   27.1430   34.2560 C   0  0  0  0  0  0  0  0  0  0  0  0
   36.9840   27.7330   34.6310 C   0  0  0  0  0  0  0  0  0  0  0  0
   36.2190   28.3530   33.6350 C   0  0  0  0  0  0  0  0  0  0  0  0
   36.7080   28.3440   32.3590 N   0  0  0  0  0  0  0  0  0  0  0  0
   37.8730   27.7750   32.0330 C   0  0  0  0  0  0  0  0  0  0  0  0
   38.6310   27.1680   32.9760 N   0  0  0  0  0  0  0  0  0  0  0  0
   36.6010   27.7400   35.6330 H   0  0  0  0  0  0  0  0  0  0  0  0
   35.2790   28.8300   33.8210 H   0  0  0  0  0  0  0  0  0  0  0  0
   38.2570   27.7700   31.0190 H   0  0  0  0  0  0  0  0  0  0  0  0
   38.5510   25.1020   35.5860 C   0  0  0  0  0  0  0  0  0  0  0  0
   38.0970   24.8700   36.8780 C   0  0  0  0  0  3  0  0  0  0  0  0
   37.6310   23.6360   37.3250 C   0  0  0  0  0  0  0  0  0  0  0  0
   37.2860   23.5010   38.3400 H   0  0  0  0  0  0  0  0  0  0  0  0
   37.6400   22.6350   36.4080 N   0  0  0  0  0  0  0  0  0  0  0  0
   38.0840   22.8640   35.1490 C   0  0  0  0  0  3  0  0  0  0  0  0
   38.5410   24.0750   34.7110 N   0  0  0  0  0  0  0  0  0  0  0  0
  1 13  1  0  0  0  0
  1  2  1  0  0  0  0
  3  1  1  0  0  0  0
  4  5  1  0  0  0  0
  4  1  1  0  0  0  0
  5 10  1  0  0  0  0
  6 11  1  0  0  0  0
  6  5  2  0  0  0  0
  7  6  1  0  0  0  0
  8  7  2  0  0  0  0
  8  9  1  0  0  0  0
  9  4  2  0  0  0  0
 12  8  1  0  0  0  0
 13 14  1  0  0  0  0
 14 15  2  0  0  0  0
 15 16  1  0  0  0  0
 17 15  1  0  0  0  0
 18 17  2  0  0  0  0
 19 18  1  0  0  0  0
 19 13  2  0  0  0  0
M  END
>  <minimizedAffinity>
-3.6597836

$$$$

 OpenBabel03262523503D

 19 20  0  0  0  0  0  0  0  0999 V2000
   37.8840   27.2450   31.6530 C   0  0  0  0  0  0  0  0  0  0  0  0
   38.7730   27.0170   30.9960 H   0  0  0  0  0  0  0  0  0  0  0  0
   37.4680   28.2350   31.4230 H   0  0  0  0  0  0  0  0  0  0  0  0
   38.3580   27.2040   33.0550 C   0  0  0  0  0  0  0  0  0  0  0  0
   37.4040   27.3930   34.0700 C   0  0  0  0  0  0  0  0  0  0  0  0
   37.8410   27.3560   35.3990 C   0  0  0  0  0  0  0  0  0  0  0  0
   39.1720   27.1400   35.6270 N   0  0  0  0  0  0  0  0  0  0  0  0
   40.0560   26.9640   34.6390 C   0  0  0  0  0  0  0  0  0  0  0  0
   39.6590   26.9950   33.3450 N   0  0  0  0  0  0  0  0  0  0  0  0
   36.3590   27.5620   33.8920 H   0  0  0  0  0  0  0  0  0  0  0  0
   37.1930   27.4870   36.2410 H   0  0  0  0  0  0  0  0  0  0  0  0
   41.1110   26.7930   34.8240 H   0  0  0  0  0  0  0  0  0  0  0  0
   36.8970   26.1720   31.3650 C   0  0  0  0  0  0  0  0  0  0  0  0
   37.4210   24.8860   31.3220 C   0  0  0  0  0  3  0  0  0  0  0  0
   36.6590   23.7490   31.0670 C   0  0  0  0  0  0  0  0  0  0  0  0
   37.1090   22.7670   31.0440 H   0  0  0  0  0  0  0  0  0  0  0  0
   35.3350   23.9610   30.8560 N   0  0  0  0  0  0  0  0  0  0  0  0
   34.8280   25.2160   30.8970 C   0  0  0  0  0  3  0  0  0  0  0  0
   35.5760   26.3320   31.1470 N   0  0  0  0  0  0  0  0  0  0  0  0
  1  4  1  0  0  0  0
  2  1  1  0  0  0  0
  3  1  1  0  0  0  0
  4  9  2  0  0  0  0
  4  5  1  0  0  0  0
  5  6  2  0  0  0  0
  6  7  1  0  0  0  0
  6 11  1  0  0  0  0
  8 12  1  0  0  0  0
  8  7  2  0  0  0  0
  9  8  1  0  0  0  0
 10  5  1  0  0  0  0
 13  1  1  0  0  0  0
 14 13  1  0  0  0  0
 15 14  2  0  0  0  0
 16 15  1  0  0  0  0
 17 18  2  0  0  0  0
 17 15  1  0  0  0  0
 18 19  1  0  0  0  0
 19 13  2  0  0  0  0
M  END
>  <minimizedAffinity>
-3.62392068

$$$$

 OpenBabel03262523503D

 19 20  0  0  0  0  0  0  0  0999 V2000
   38.9260   23.8540   34.3620 C   0  0  0  0  0  0  0  0  0  0  0  0
   39.9010   23.4400   33.9740 H   0  0  0  0  0  0  0  0  0  0  0  0
   38.8220   24.9180   34.1110 H   0  0  0  0  0  0  0  0  0  0  0  0
   38.9340   23.6770   35.8320 C   0  0  0  0  0  0  0  0  0  0  0  0
   37.9310   24.3280   36.5710 C   0  0  0  0  0  0  0  0  0  0  0  0
   37.9290   24.1670   37.9620 C   0  0  0  0  0  0  0  0  0  0  0  0
   38.9060   23.3860   38.5140 N   0  0  0  0  0  0  0  0  0  0  0  0
   39.8470   22.7790   37.7840 C   0  0  0  0  0  0  0  0  0  0  0  0
   39.8710   22.9190   36.4370 N   0  0  0  0  0  0  0  0  0  0  0  0
   37.1640   24.9410   36.1380 H   0  0  0  0  0  0  0  0  0  0  0  0
   37.2080   24.6200   38.6110 H   0  0  0  0  0  0  0  0  0  0  0  0
   40.6200   22.1610   38.2260 H   0  0  0  0  0  0  0  0  0  0  0  0
   37.8660   23.0450   33.7070 C   0  0  0  0  0  0  0  0  0  0  0  0
   37.2820   23.6310   32.5910 C   0  0  0  0  0  3  0  0  0  0  0  0
   36.2730   23.0310   31.8410 C   0  0  0  0  0  0  0  0  0  0  0  0
   35.8480   23.5250   30.9790 H   0  0  0  0  0  0  0  0  0  0  0  0
   35.8730   21.8060   32.2650 N   0  0  0  0  0  0  0  0  0  0  0  0
   36.4440   21.2370   33.3530 C   0  0  0  0  0  3  0  0  0  0  0  0
   37.4340   21.8260   34.0890 N   0  0  0  0  0  0  0  0  0  0  0  0
  1  4  1  0  0  0  0
  2  1  1  0  0  0  0
  3  1  1  0  0  0  0
  4  9  2  0  0  0  0
  4  5  1  0  0  0  0
  5  6  2  0  0  0  0
  6  7  1  0  0  0  0
  6 11  1  0  0  0  0
  8 12  1  0  0  0  0
  8  7  2  0  0  0  0
  9  8  1  0  0  0  0
 10  5  1  0  0  0  0
 13 19  1  0  0  0  0
 13  1  1  0  0  0  0
 14 13  2  0  0  0  0
 15 17  2  0  0  0  0
 15 14  1  0  0  0  0
 16 15  1  0  0  0  0
 17 18  1  0  0  0  0
 18 19  2  0  0  0  0
M  END
>  <minimizedAffinity>
-3.56403303

$$$$

 OpenBabel03262523503D

 19 20  0  0  0  0  0  0  0  0999 V2000
   39.1840   24.6600   34.4240 C   0  0  0  0  0  0  0  0  0  0  0  0
   39.1550   25.7880   34.4530 H   0  0  0  0  0  0  0  0  0  0  0  0
   40.1570   24.3000   34.0630 H   0  0  0  0  0  0  0  0  0  0  0  0
   38.1070   24.2230   33.5060 C   0  0  0  0  0  0  0  0  0  0  0  0
   37.3930   25.2210   32.8200 C   0  0  0  0  0  0  0  0  0  0  0  0
   36.3730   24.8210   31.9490 C   0  0  0  0  0  0  0  0  0  0  0  0
   36.1350   23.4810   31.8210 N   0  0  0  0  0  0  0  0  0  0  0  0
   36.8320   22.5540   32.4870 C   0  0  0  0  0  0  0  0  0  0  0  0
   37.8240   22.9160   33.3350 N   0  0  0  0  0  0  0  0  0  0  0  0
   37.5790   26.2740   32.9210 H   0  0  0  0  0  0  0  0  0  0  0  0
   35.7740   25.5040   31.3830 H   0  0  0  0  0  0  0  0  0  0  0  0
   36.6400   21.4920   32.3820 H   0  0  0  0  0  0  0  0  0  0  0  0
   38.9380   24.2240   35.8220 C   0  0  0  0  0  0  0  0  0  0  0  0
   39.8820   23.3460   36.3410 C   0  0  0  0  0  3  0  0  0  0  0  0
   39.8270   22.8250   37.6310 C   0  0  0  0  0  0  0  0  0  0  0  0
   40.5850   22.1440   37.9920 H   0  0  0  0  0  0  0  0  0  0  0  0
   38.7740   23.2280   38.3850 N   0  0  0  0  0  0  0  0  0  0  0  0
   37.8550   24.0830   37.8770 C   0  0  0  0  0  3  0  0  0  0  0  0
   37.9080   24.5940   36.6110 N   0  0  0  0  0  0  0  0  0  0  0  0
  1  2  1  0  0  0  0
  1 13  1  0  0  0  0
  3  1  1  0  0  0  0
  4  1  1  0  0  0  0
  5 10  1  0  0  0  0
  5  4  2  0  0  0  0
  6  5  1  0  0  0  0
  7  6  2  0  0  0  0
  7  8  1  0  0  0  0
  8  9  2  0  0  0  0
  9  4  1  0  0  0  0
 11  6  1  0  0  0  0
 12  8  1  0  0  0  0
 13 14  2  0  0  0  0
 13 19  1  0  0  0  0
 14 15  1  0  0  0  0
 15 16  1  0  0  0  0
 15 17  2  0  0  0  0
 18 17  1  0  0  0  0
 19 18  2  0  0  0  0
M  END
>  <minimizedAffinity>
-3.54326963

$$$$

 OpenBabel03262523503D

 19 20  0  0  0  0  0  0  0  0999 V2000
   38.5150   24.7560   33.1630 C   0  0  0  0  0  0  0  0  0  0  0  0
   38.9600   25.7550   33.4430 H   0  0  0  0  0  0  0  0  0  0  0  0
   39.2190   24.1660   32.5610 H   0  0  0  0  0  0  0  0  0  0  0  0
   37.2870   25.0320   32.3840 C   0  0  0  0  0  0  0  0  0  0  0  0
   36.9380   26.3780   32.1750 C   0  0  0  0  0  0  0  0  0  0  0  0
   35.7780   26.6510   31.4400 C   0  0  0  0  0  0  0  0  0  0  0  0
   35.0560   25.5890   30.9710 N   0  0  0  0  0  0  0  0  0  0  0  0
   35.4140   24.3180   31.1870 C   0  0  0  0  0  0  0  0  0  0  0  0
   36.5300   24.0270   31.8950 N   0  0  0  0  0  0  0  0  0  0  0  0
   37.5050   27.2120   32.5420 H   0  0  0  0  0  0  0  0  0  0  0  0
   35.4310   27.6410   31.2260 H   0  0  0  0  0  0  0  0  0  0  0  0
   34.8380   23.4790   30.8130 H   0  0  0  0  0  0  0  0  0  0  0  0
   38.2200   24.0810   34.4530 C   0  0  0  0  0  0  0  0  0  0  0  0
   38.0800   24.9300   35.5440 C   0  0  0  0  0  3  0  0  0  0  0  0
   37.8030   24.4900   36.8360 C   0  0  0  0  0  0  0  0  0  0  0  0
   37.7020   25.1880   37.6550 H   0  0  0  0  0  0  0  0  0  0  0  0
   37.6710   23.1480   36.9860 N   0  0  0  0  0  0  0  0  0  0  0  0
   37.8080   22.3230   35.9210 C   0  0  0  0  0  3  0  0  0  0  0  0
   38.0800   22.7540   34.6540 N   0  0  0  0  0  0  0  0  0  0  0  0
  1  2  1  0  0  0  0
  1 13  1  0  0  0  0
  3  1  1  0  0  0  0
  4  1  1  0  0  0  0
  5  4  1  0  0  0  0
  5 10  1  0  0  0  0
  6  5  2  0  0  0  0
  7  8  2  0  0  0  0
  7  6  1  0  0  0  0
  8  9  1  0  0  0  0
  9  4  2  0  0  0  0
 11  6  1  0  0  0  0
 12  8  1  0  0  0  0
 13 19  2  0  0  0  0
 13 14  1  0  0  0  0
 14 15  2  0  0  0  0
 15 17  1  0  0  0  0
 15 16  1  0  0  0  0
 18 17  2  0  0  0  0
 19 18  1  0  0  0  0
M  END
>  <minimizedAffinity>
-3.534235

$$$$

 OpenBabel03262523503D

 19 20  0  0  0  0  0  0  0  0999 V2000
   38.8880   22.7320   36.2340 C   0  0  0  0  0  0  0  0  0  0  0  0
   38.4970   22.6900   37.2930 H   0  0  0  0  0  0  0  0  0  0  0  0
   39.8470   22.2050   36.1470 H   0  0  0  0  0  0  0  0  0  0  0  0
   39.0600   24.1630   35.8940 C   0  0  0  0  0  0  0  0  0  0  0  0
   38.1010   25.0670   36.3820 C   0  0  0  0  0  0  0  0  0  0  0  0
   38.2530   26.4230   36.0660 C   0  0  0  0  0  0  0  0  0  0  0  0
   39.3280   26.7820   35.3010 N   0  0  0  0  0  0  0  0  0  0  0  0
   40.2240   25.8970   34.8510 C   0  0  0  0  0  0  0  0  0  0  0  0
   40.0990   24.5800   35.1420 N   0  0  0  0  0  0  0  0  0  0  0  0
   37.2570   24.7860   36.9830 H   0  0  0  0  0  0  0  0  0  0  0  0
   37.5780   27.1870   36.3910 H   0  0  0  0  0  0  0  0  0  0  0  0
   41.0750   26.1860   34.2450 H   0  0  0  0  0  0  0  0  0  0  0  0
   37.8430   22.0810   35.4030 C   0  0  0  0  0  0  0  0  0  0  0  0
   36.7710   21.5520   36.1120 C   0  0  0  0  0  3  0  0  0  0  0  0
   35.6930   20.9040   35.5140 C   0  0  0  0  0  0  0  0  0  0  0  0
   34.8800   20.5080   36.1050 H   0  0  0  0  0  0  0  0  0  0  0  0
   35.7390   20.8090   34.1610 N   0  0  0  0  0  0  0  0  0  0  0  0
   36.7850   21.3240   33.4740 C   0  0  0  0  0  3  0  0  0  0  0  0
   37.8430   21.9600   34.0600 N   0  0  0  0  0  0  0  0  0  0  0  0
  1  2  1  0  0  0  0
  3  1  1  0  0  0  0
  4  1  1  0  0  0  0
  4  5  1  0  0  0  0
  5 10  1  0  0  0  0
  6  5  2  0  0  0  0
  6 11  1  0  0  0  0
  7  6  1  0  0  0  0
  8  9  1  0  0  0  0
  8  7  2  0  0  0  0
  9  4  2  0  0  0  0
 12  8  1  0  0  0  0
 13 14  1  0  0  0  0
 13  1  1  0  0  0  0
 15 16  1  0  0  0  0
 15 14  2  0  0  0  0
 17 15  1  0  0  0  0
 18 19  1  0  0  0  0
 18 17  2  0  0  0  0
 19 13  2  0  0  0  0
M  END
>  <minimizedAffinity>
-3.52337074

$$$$

 OpenBabel03262523503D

 19 20  0  0  0  0  0  0  0  0999 V2000
   38.5820   24.6370   33.0800 C   0  0  0  0  0  0  0  0  0  0  0  0
   38.9790   23.7790   32.4630 H   0  0  0  0  0  0  0  0  0  0  0  0
   39.3260   25.4410   33.1610 H   0  0  0  0  0  0  0  0  0  0  0  0
   38.2670   24.0960   34.4220 C   0  0  0  0  0  0  0  0  0  0  0  0
   38.0740   25.0190   35.4650 C   0  0  0  0  0  0  0  0  0  0  0  0
   37.7750   24.5190   36.7390 C   0  0  0  0  0  0  0  0  0  0  0  0
   37.6910   23.1630   36.8870 N   0  0  0  0  0  0  0  0  0  0  0  0
   37.8800   22.3100   35.8740 C   0  0  0  0  0  0  0  0  0  0  0  0
   38.1710   22.7680   34.6330 N   0  0  0  0  0  0  0  0  0  0  0  0
   38.1390   26.0840   35.3490 H   0  0  0  0  0  0  0  0  0  0  0  0
   37.6100   25.1390   37.5950 H   0  0  0  0  0  0  0  0  0  0  0  0
   37.8130   21.2350   35.9970 H   0  0  0  0  0  0  0  0  0  0  0  0
   37.3670   25.1050   32.3660 C   0  0  0  0  0  0  0  0  0  0  0  0
   36.5690   24.0980   31.8370 C   0  0  0  0  0  3  0  0  0  0  0  0
   35.3900   24.3330   31.1350 C   0  0  0  0  0  0  0  0  0  0  0  0
   34.8000   23.5180   30.7410 H   0  0  0  0  0  0  0  0  0  0  0  0
   35.0430   25.6370   30.9850 N   0  0  0  0  0  0  0  0  0  0  0  0
   35.8230   26.6160   31.5000 C   0  0  0  0  0  3  0  0  0  0  0  0
   36.9800   26.3850   32.1900 N   0  0  0  0  0  0  0  0  0  0  0  0
  1  3  1  0  0  0  0
  1  4  1  0  0  0  0
  2  1  1  0  0  0  0
  4  9  2  0  0  0  0
  4  5  1  0  0  0  0
  5  6  2  0  0  0  0
  6  7  1  0  0  0  0
  6 11  1  0  0  0  0
  8 12  1  0  0  0  0
  8  7  2  0  0  0  0
  9  8  1  0  0  0  0
 10  5  1  0  0  0  0
 13  1  1  0  0  0  0
 14 13  2  0  0  0  0
 15 14  1  0  0  0  0
 16 15  1  0  0  0  0
 17 15  2  0  0  0  0
 17 18  1  0  0  0  0
 18 19  2  0  0  0  0
 19 13  1  0  0  0  0
M  END
>  <minimizedAffinity>
-3.52207232

$$$$

 OpenBabel03262523503D

 19 20  0  0  0  0  0  0  0  0999 V2000
   38.7780   22.7870   36.3920 C   0  0  0  0  0  0  0  0  0  0  0  0
   39.7530   22.2330   36.2610 H   0  0  0  0  0  0  0  0  0  0  0  0
   38.4490   22.7630   37.4390 H   0  0  0  0  0  0  0  0  0  0  0  0
   37.7790   22.1170   35.5280 C   0  0  0  0  0  0  0  0  0  0  0  0
   36.6610   21.5400   36.1540 C   0  0  0  0  0  0  0  0  0  0  0  0
   35.7100   20.9040   35.3470 C   0  0  0  0  0  0  0  0  0  0  0  0
   35.9300   20.8840   33.9980 N   0  0  0  0  0  0  0  0  0  0  0  0
   37.0050   21.4420   33.4310 C   0  0  0  0  0  0  0  0  0  0  0  0
   37.9390   22.0630   34.1890 N   0  0  0  0  0  0  0  0  0  0  0  0
   36.4870   21.5560   37.2130 H   0  0  0  0  0  0  0  0  0  0  0  0
   34.8250   20.4370   35.7290 H   0  0  0  0  0  0  0  0  0  0  0  0
   37.1750   21.4240   32.3610 H   0  0  0  0  0  0  0  0  0  0  0  0
   39.0550   24.1790   35.9520 C   0  0  0  0  0  0  0  0  0  0  0  0
   38.1530   25.1320   36.4070 C   0  0  0  0  0  3  0  0  0  0  0  0
   38.2410   26.4880   36.1040 C   0  0  0  0  0  0  0  0  0  0  0  0
   37.5160   27.1940   36.4820 H   0  0  0  0  0  0  0  0  0  0  0  0
   39.2850   26.8490   35.3170 N   0  0  0  0  0  0  0  0  0  0  0  0
   40.1630   25.9180   34.8740 C   0  0  0  0  0  3  0  0  0  0  0  0
   40.0760   24.5870   35.1710 N   0  0  0  0  0  0  0  0  0  0  0  0
  1  3  1  0  0  0  0
  2  1  1  0  0  0  0
  4  5  1  0  0  0  0
  4  1  1  0  0  0  0
  5 10  1  0  0  0  0
  6 11  1  0  0  0  0
  6  5  2  0  0  0  0
  7  6  1  0  0  0  0
  8  7  2  0  0  0  0
  8  9  1  0  0  0  0
  9  4  2  0  0  0  0
 12  8  1  0  0  0  0
 13  1  1  0  0  0  0
 13 14  1  0  0  0  0
 15 14  2  0  0  0  0
 15 16  1  0  0  0  0
 17 15  1  0  0  0  0
 18 19  1  0  0  0  0
 18 17  2  0  0  0  0
 19 13  2  0  0  0  0
M  END
>  <minimizedAffinity>
-3.51222396

$$$$
