
 OpenBabel03272502433D

 26 28  0  0  0  0  0  0  0  0999 V2000
   36.5350   28.7330   31.7830 C   0  0  0  0  0  0  0  0  0  0  0  0
   37.0750   27.5300   32.2700 C   0  0  0  0  0  0  0  0  0  0  0  0
   36.9730   27.3020   33.6490 C   0  0  0  0  0  0  0  0  0  0  0  0
   36.3750   28.2400   34.4030 N   0  0  0  0  0  0  0  0  0  0  0  0
   35.8660   29.3860   33.9050 C   0  0  0  0  0  0  0  0  0  0  0  0
   35.9490   29.6290   32.5900 N   0  0  0  0  0  0  0  0  0  0  0  0
   36.6280   28.8860   30.7050 H   0  0  0  0  0  0  0  0  0  0  0  0
   37.5510   26.7880   31.6620 H   0  0  0  0  0  0  0  0  0  0  0  0
   32.9040   29.2860   33.9450 Cl  0  0  0  0  0  0  0  0  0  0  0  0
   33.8650   30.3740   34.9090 C   0  0  0  0  0  0  0  0  0  0  0  0
   35.2350   30.3390   34.8150 C   0  0  0  0  0  0  0  0  0  0  0  0
   36.0250   31.1820   35.5590 C   0  0  0  0  0  0  0  0  0  0  0  0
   35.4380   32.0920   36.4270 C   0  0  0  0  0  0  0  0  0  0  0  0
   34.0660   32.1500   36.5430 C   0  0  0  0  0  0  0  0  0  0  0  0
   33.2150   33.2530   37.6010 Cl  0  0  0  0  0  0  0  0  0  0  0  0
   33.3170   31.2840   35.7750 C   0  0  0  0  0  0  0  0  0  0  0  0
   37.1090   31.1470   35.4780 H   0  0  0  0  0  0  0  0  0  0  0  0
   36.0220   32.7610   37.0190 H   0  0  0  0  0  0  0  0  0  0  0  0
   32.2330   31.3090   35.8470 H   0  0  0  0  0  0  0  0  0  0  0  0
   37.4800   26.1080   34.3110 C   0  0  0  0  0  0  0  0  0  0  0  0
   37.7490   26.0320   35.6580 C   0  0  0  0  0  3  0  0  0  0  0  0
   38.2270   24.9180   36.3110 C   0  0  0  0  0  0  0  0  0  0  0  0
   38.4280   24.8850   37.3530 H   0  0  0  0  0  0  0  0  0  0  0  0
   38.4490   23.8130   35.5650 N   0  0  0  0  0  0  0  0  0  0  0  0
   38.1910   23.8610   34.2290 C   0  0  0  0  0  3  0  0  0  0  0  0
   37.7240   24.9700   33.6310 N   0  0  0  0  0  0  0  0  0  0  0  0
  1  2  2  0  0  0  0
  1  6  1  0  0  0  0
  2  3  1  0  0  0  0
  3 20  1  0  0  0  0
  3  4  2  0  0  0  0
  5  4  1  0  0  0  0
  5 11  1  0  0  0  0
  6  5  2  0  0  0  0
  7  1  1  0  0  0  0
  8  2  1  0  0  0  0
  9 10  1  0  0  0  0
 10 16  1  0  0  0  0
 11 10  2  0  0  0  0
 11 12  1  0  0  0  0
 12 13  2  0  0  0  0
 13 14  1  0  0  0  0
 13 18  1  0  0  0  0
 14 15  1  0  0  0  0
 16 19  1  0  0  0  0
 16 14  2  0  0  0  0
 17 12  1  0  0  0  0
 20 21  1  0  0  0  0
 21 22  2  0  0  0  0
 22 23  1  0  0  0  0
 24 22  1  0  0  0  0
 25 24  2  0  0  0  0
 26 25  1  0  0  0  0
 26 20  2  0  0  0  0
M  END
>  <minimizedAffinity>
-5.4266963

$$$$

 OpenBabel03272502433D

 26 28  0  0  0  0  0  0  0  0999 V2000
   36.4660   29.6930   30.5270 C   0  0  0  0  0  0  0  0  0  0  0  0
   36.6270   28.2970   30.4870 C   0  0  0  0  0  0  0  0  0  0  0  0
   36.2260   27.5800   31.6230 C   0  0  0  0  0  0  0  0  0  0  0  0
   35.7230   28.2700   32.6610 N   0  0  0  0  0  0  0  0  0  0  0  0
   35.5820   29.6110   32.6680 C   0  0  0  0  0  0  0  0  0  0  0  0
   35.9560   30.3210   31.5950 N   0  0  0  0  0  0  0  0  0  0  0  0
   36.7860   30.2270   29.6280 H   0  0  0  0  0  0  0  0  0  0  0  0
   37.0300   27.7550   29.6550 H   0  0  0  0  0  0  0  0  0  0  0  0
   32.6200   29.6900   32.7560 Cl  0  0  0  0  0  0  0  0  0  0  0  0
   33.6590   30.3510   33.9890 C   0  0  0  0  0  0  0  0  0  0  0  0
   35.0220   30.2620   33.8500 C   0  0  0  0  0  0  0  0  0  0  0  0
   35.8730   30.7720   34.8030 C   0  0  0  0  0  0  0  0  0  0  0  0
   35.3540   31.3930   35.9300 C   0  0  0  0  0  0  0  0  0  0  0  0
   33.9910   31.4970   36.0960 C   0  0  0  0  0  0  0  0  0  0  0  0
   33.2230   32.2550   37.4730 Cl  0  0  0  0  0  0  0  0  0  0  0  0
   33.1790   30.9700   35.1140 C   0  0  0  0  0  0  0  0  0  0  0  0
   36.9510   30.6970   34.6850 H   0  0  0  0  0  0  0  0  0  0  0  0
   35.9860   31.7990   36.6890 H   0  0  0  0  0  0  0  0  0  0  0  0
   32.1000   31.0380   35.2200 H   0  0  0  0  0  0  0  0  0  0  0  0
   36.3250   26.1320   31.7430 C   0  0  0  0  0  0  0  0  0  0  0  0
   35.4810   25.2500   31.1090 C   0  0  0  0  0  3  0  0  0  0  0  0
   35.5510   23.8780   31.2030 C   0  0  0  0  0  0  0  0  0  0  0  0
   34.8870   23.2160   30.7040 H   0  0  0  0  0  0  0  0  0  0  0  0
   36.5280   23.3610   31.9810 N   0  0  0  0  0  0  0  0  0  0  0  0
   37.3770   24.2120   32.6200 C   0  0  0  0  0  3  0  0  0  0  0  0
   37.2740   25.5470   32.5010 N   0  0  0  0  0  0  0  0  0  0  0  0
  1  6  1  0  0  0  0
  2  1  2  0  0  0  0
  2  3  1  0  0  0  0
  3 20  1  0  0  0  0
  3  4  2  0  0  0  0
  4  5  1  0  0  0  0
  5 11  1  0  0  0  0
  6  5  2  0  0  0  0
  7  1  1  0  0  0  0
  8  2  1  0  0  0  0
  9 10  1  0  0  0  0
 10 16  1  0  0  0  0
 11 10  2  0  0  0  0
 11 12  1  0  0  0  0
 12 13  2  0  0  0  0
 13 14  1  0  0  0  0
 13 18  1  0  0  0  0
 14 15  1  0  0  0  0
 16 19  1  0  0  0  0
 16 14  2  0  0  0  0
 17 12  1  0  0  0  0
 20 26  1  0  0  0  0
 21 22  1  0  0  0  0
 21 20  2  0  0  0  0
 22 24  2  0  0  0  0
 23 22  1  0  0  0  0
 24 25  1  0  0  0  0
 26 25  2  0  0  0  0
M  END
>  <minimizedAffinity>
-5.20412683

$$$$

 OpenBabel03272502433D

 26 28  0  0  0  0  0  0  0  0999 V2000
   36.3730   30.2060   30.8270 C   0  0  0  0  0  0  0  0  0  0  0  0
   35.9110   30.8650   31.9800 C   0  0  0  0  0  0  0  0  0  0  0  0
   35.5430   30.0600   33.0660 C   0  0  0  0  0  0  0  0  0  0  0  0
   35.6540   28.7270   32.9310 N   0  0  0  0  0  0  0  0  0  0  0  0
   36.1020   28.1240   31.8100 C   0  0  0  0  0  0  0  0  0  0  0  0
   36.4610   28.8710   30.7570 N   0  0  0  0  0  0  0  0  0  0  0  0
   36.6540   30.8580   29.9950 H   0  0  0  0  0  0  0  0  0  0  0  0
   35.8250   31.9280   32.0770 H   0  0  0  0  0  0  0  0  0  0  0  0
   38.4880   26.9800   33.1470 Cl  0  0  0  0  0  0  0  0  0  0  0  0
   37.2510   26.0350   32.3610 C   0  0  0  0  0  0  0  0  0  0  0  0
   36.1840   26.6660   31.7710 C   0  0  0  0  0  0  0  0  0  0  0  0
   35.1910   25.9540   31.1420 C   0  0  0  0  0  0  0  0  0  0  0  0
   35.2570   24.5680   31.0970 C   0  0  0  0  0  0  0  0  0  0  0  0
   36.3150   23.9080   31.6810 C   0  0  0  0  0  0  0  0  0  0  0  0
   36.5060   22.1690   31.6890 Cl  0  0  0  0  0  0  0  0  0  0  0  0
   37.2870   24.6660   32.2990 C   0  0  0  0  0  0  0  0  0  0  0  0
   34.3500   26.4620   30.6770 H   0  0  0  0  0  0  0  0  0  0  0  0
   34.5030   23.9850   30.6170 H   0  0  0  0  0  0  0  0  0  0  0  0
   38.1330   24.1710   32.7680 H   0  0  0  0  0  0  0  0  0  0  0  0
   35.0460   30.5840   34.3300 C   0  0  0  0  0  0  0  0  0  0  0  0
   35.8140   31.2930   35.2220 C   0  0  0  0  0  3  0  0  0  0  0  0
   35.3720   31.8010   36.4240 C   0  0  0  0  0  0  0  0  0  0  0  0
   35.9850   32.3470   37.0970 H   0  0  0  0  0  0  0  0  0  0  0  0
   34.0780   31.5820   36.7470 N   0  0  0  0  0  0  0  0  0  0  0  0
   33.2950   30.8820   35.8820 C   0  0  0  0  0  3  0  0  0  0  0  0
   33.7670   30.4030   34.7180 N   0  0  0  0  0  0  0  0  0  0  0  0
  1  2  1  0  0  0  0
  2  8  1  0  0  0  0
  2  3  2  0  0  0  0
  3 20  1  0  0  0  0
  4  3  1  0  0  0  0
  5  4  2  0  0  0  0
  6  1  2  0  0  0  0
  6  5  1  0  0  0  0
  7  1  1  0  0  0  0
 10  9  1  0  0  0  0
 11  5  1  0  0  0  0
 11 10  2  0  0  0  0
 12 11  1  0  0  0  0
 13 12  2  0  0  0  0
 13 14  1  0  0  0  0
 14 15  1  0  0  0  0
 14 16  2  0  0  0  0
 16 10  1  0  0  0  0
 16 19  1  0  0  0  0
 17 12  1  0  0  0  0
 18 13  1  0  0  0  0
 20 26  2  0  0  0  0
 20 21  1  0  0  0  0
 21 22  2  0  0  0  0
 22 24  1  0  0  0  0
 22 23  1  0  0  0  0
 25 24  2  0  0  0  0
 26 25  1  0  0  0  0
M  END
>  <minimizedAffinity>
-5.1682539

$$$$

 OpenBabel03272502433D

 26 28  0  0  0  0  0  0  0  0999 V2000
   34.8950   29.9220   32.2890 C   0  0  0  0  0  0  0  0  0  0  0  0
   35.7090   28.8170   32.5960 C   0  0  0  0  0  0  0  0  0  0  0  0
   36.1780   28.7220   33.9130 C   0  0  0  0  0  0  0  0  0  0  0  0
   35.8230   29.6840   34.7820 N   0  0  0  0  0  0  0  0  0  0  0  0
   35.0390   30.7330   34.4560 C   0  0  0  0  0  0  0  0  0  0  0  0
   34.5760   30.8480   33.2040 N   0  0  0  0  0  0  0  0  0  0  0  0
   34.5430   29.9710   31.2550 H   0  0  0  0  0  0  0  0  0  0  0  0
   35.9880   28.0560   31.8960 H   0  0  0  0  0  0  0  0  0  0  0  0
   36.7370   33.1630   34.4180 Cl  0  0  0  0  0  0  0  0  0  0  0  0
   35.4390   32.8860   35.5480 C   0  0  0  0  0  0  0  0  0  0  0  0
   34.7130   31.7230   35.4790 C   0  0  0  0  0  0  0  0  0  0  0  0
   33.6830   31.4700   36.3540 C   0  0  0  0  0  0  0  0  0  0  0  0
   33.3620   32.4020   37.3310 C   0  0  0  0  0  0  0  0  0  0  0  0
   34.0740   33.5780   37.4240 C   0  0  0  0  0  0  0  0  0  0  0  0
   33.7620   34.8250   38.6110 Cl  0  0  0  0  0  0  0  0  0  0  0  0
   35.0980   33.7860   36.5240 C   0  0  0  0  0  0  0  0  0  0  0  0
   33.1130   30.5460   36.2930 H   0  0  0  0  0  0  0  0  0  0  0  0
   32.5690   32.2380   38.0260 H   0  0  0  0  0  0  0  0  0  0  0  0
   35.6750   34.7050   36.5750 H   0  0  0  0  0  0  0  0  0  0  0  0
   37.0290   27.6430   34.3930 C   0  0  0  0  0  0  0  0  0  0  0  0
   37.1290   26.4140   33.7820 C   0  0  0  0  0  3  0  0  0  0  0  0
   37.9250   25.3760   34.2120 C   0  0  0  0  0  0  0  0  0  0  0  0
   37.9860   24.4350   33.7230 H   0  0  0  0  0  0  0  0  0  0  0  0
   38.6650   25.5850   35.3240 N   0  0  0  0  0  0  0  0  0  0  0  0
   38.5840   26.7910   35.9490 C   0  0  0  0  0  3  0  0  0  0  0  0
   37.7940   27.7790   35.4950 N   0  0  0  0  0  0  0  0  0  0  0  0
  1  2  2  0  0  0  0
  1  6  1  0  0  0  0
  2  3  1  0  0  0  0
  3 20  1  0  0  0  0
  3  4  2  0  0  0  0
  5  4  1  0  0  0  0
  5 11  1  0  0  0  0
  6  5  2  0  0  0  0
  7  1  1  0  0  0  0
  8  2  1  0  0  0  0
  9 10  1  0  0  0  0
 10 16  1  0  0  0  0
 11 10  2  0  0  0  0
 11 12  1  0  0  0  0
 12 13  2  0  0  0  0
 13 14  1  0  0  0  0
 13 18  1  0  0  0  0
 14 15  1  0  0  0  0
 16 19  1  0  0  0  0
 16 14  2  0  0  0  0
 17 12  1  0  0  0  0
 20 26  1  0  0  0  0
 21 22  1  0  0  0  0
 21 20  2  0  0  0  0
 22 24  2  0  0  0  0
 23 22  1  0  0  0  0
 24 25  1  0  0  0  0
 26 25  2  0  0  0  0
M  END
>  <minimizedAffinity>
-5.07141447

$$$$

 OpenBabel03272502433D

 26 28  0  0  0  0  0  0  0  0999 V2000
   39.8570   27.1040   34.5010 C   0  0  0  0  0  0  0  0  0  0  0  0
   38.7670   26.9210   33.6320 C   0  0  0  0  0  0  0  0  0  0  0  0
   38.3560   25.6010   33.4010 C   0  0  0  0  0  0  0  0  0  0  0  0
   39.0260   24.6120   34.0170 N   0  0  0  0  0  0  0  0  0  0  0  0
   40.0700   24.8220   34.8470 C   0  0  0  0  0  0  0  0  0  0  0  0
   40.4830   26.0740   35.0860 N   0  0  0  0  0  0  0  0  0  0  0  0
   40.1560   28.1430   34.6640 H   0  0  0  0  0  0  0  0  0  0  0  0
   38.2390   27.7150   33.1440 H   0  0  0  0  0  0  0  0  0  0  0  0
   38.7280   23.7870   37.2790 Cl  0  0  0  0  0  0  0  0  0  0  0  0
   40.1870   23.1180   36.5990 C   0  0  0  0  0  0  0  0  0  0  0  0
   40.7280   23.6740   35.4660 C   0  0  0  0  0  0  0  0  0  0  0  0
   41.8770   23.1730   34.9020 C   0  0  0  0  0  0  0  0  0  0  0  0
   42.5120   22.0840   35.4810 C   0  0  0  0  0  0  0  0  0  0  0  0
   41.9920   21.5040   36.6180 C   0  0  0  0  0  0  0  0  0  0  0  0
   42.7030   20.1300   37.4340 Cl  0  0  0  0  0  0  0  0  0  0  0  0
   40.8380   22.0430   37.1460 C   0  0  0  0  0  0  0  0  0  0  0  0
   42.2990   23.6200   34.0050 H   0  0  0  0  0  0  0  0  0  0  0  0
   43.4060   21.6700   35.0690 H   0  0  0  0  0  0  0  0  0  0  0  0
   40.4070   21.6060   38.0430 H   0  0  0  0  0  0  0  0  0  0  0  0
   37.2460   25.2400   32.5310 C   0  0  0  0  0  0  0  0  0  0  0  0
   36.9110   23.9450   32.2110 C   0  0  0  0  0  3  0  0  0  0  0  0
   35.8680   23.5730   31.3920 C   0  0  0  0  0  0  0  0  0  0  0  0
   35.6280   22.5650   31.1600 H   0  0  0  0  0  0  0  0  0  0  0  0
   35.1160   24.5640   30.8620 N   0  0  0  0  0  0  0  0  0  0  0  0
   35.4270   25.8550   31.1610 C   0  0  0  0  0  3  0  0  0  0  0  0
   36.4550   26.1740   31.9660 N   0  0  0  0  0  0  0  0  0  0  0  0
  1  7  1  0  0  0  0
  1  6  1  0  0  0  0
  2  1  2  0  0  0  0
  3  2  1  0  0  0  0
  3  4  2  0  0  0  0
  4  5  1  0  0  0  0
  5  6  2  0  0  0  0
  5 11  1  0  0  0  0
  8  2  1  0  0  0  0
 10 16  1  0  0  0  0
 10  9  1  0  0  0  0
 11 10  2  0  0  0  0
 12 11  1  0  0  0  0
 12 13  2  0  0  0  0
 13 14  1  0  0  0  0
 14 16  2  0  0  0  0
 14 15  1  0  0  0  0
 16 19  1  0  0  0  0
 17 12  1  0  0  0  0
 18 13  1  0  0  0  0
 20  3  1  0  0  0  0
 21 20  1  0  0  0  0
 22 21  2  0  0  0  0
 23 22  1  0  0  0  0
 24 25  2  0  0  0  0
 24 22  1  0  0  0  0
 25 26  1  0  0  0  0
 26 20  2  0  0  0  0
M  END
>  <minimizedAffinity>
-4.9749794

$$$$

 OpenBabel03272502433D

 26 28  0  0  0  0  0  0  0  0999 V2000
   34.7110   29.8240   33.0870 C   0  0  0  0  0  0  0  0  0  0  0  0
   35.1630   30.2340   31.8210 C   0  0  0  0  0  0  0  0  0  0  0  0
   36.3150   29.6090   31.3260 C   0  0  0  0  0  0  0  0  0  0  0  0
   36.9040   28.6720   32.0890 N   0  0  0  0  0  0  0  0  0  0  0  0
   36.4450   28.3000   33.3020 C   0  0  0  0  0  0  0  0  0  0  0  0
   35.3440   28.8820   33.7990 N   0  0  0  0  0  0  0  0  0  0  0  0
   33.8100   30.3280   33.4480 H   0  0  0  0  0  0  0  0  0  0  0  0
   34.6880   30.9830   31.2190 H   0  0  0  0  0  0  0  0  0  0  0  0
   36.4260   25.6170   32.0430 Cl  0  0  0  0  0  0  0  0  0  0  0  0
   37.2130   25.9910   33.5530 C   0  0  0  0  0  0  0  0  0  0  0  0
   37.1610   27.2700   34.0490 C   0  0  0  0  0  0  0  0  0  0  0  0
   37.7700   27.6010   35.2370 C   0  0  0  0  0  0  0  0  0  0  0  0
   38.4530   26.6310   35.9560 C   0  0  0  0  0  0  0  0  0  0  0  0
   38.5230   25.3400   35.4830 C   0  0  0  0  0  0  0  0  0  0  0  0
   39.3540   24.0360   36.3000 Cl  0  0  0  0  0  0  0  0  0  0  0  0
   37.8970   25.0560   34.2870 C   0  0  0  0  0  0  0  0  0  0  0  0
   37.7230   28.6160   35.6230 H   0  0  0  0  0  0  0  0  0  0  0  0
   38.9370   26.8550   36.8820 H   0  0  0  0  0  0  0  0  0  0  0  0
   37.9350   24.0460   33.8910 H   0  0  0  0  0  0  0  0  0  0  0  0
   36.9120   29.9170   30.0340 C   0  0  0  0  0  0  0  0  0  0  0  0
   37.6220   29.0110   29.2810 C   0  0  0  0  0  3  0  0  0  0  0  0
   38.1970   29.2740   28.0560 C   0  0  0  0  0  0  0  0  0  0  0  0
   38.7410   28.5570   27.4930 H   0  0  0  0  0  0  0  0  0  0  0  0
   38.0490   30.5230   27.5610 N   0  0  0  0  0  0  0  0  0  0  0  0
   37.3510   31.4390   28.2860 C   0  0  0  0  0  3  0  0  0  0  0  0
   36.8060   31.1400   29.4780 N   0  0  0  0  0  0  0  0  0  0  0  0
  1  7  1  0  0  0  0
  1  6  1  0  0  0  0
  2  1  2  0  0  0  0
  3  2  1  0  0  0  0
  3  4  2  0  0  0  0
  4  5  1  0  0  0  0
  5  6  2  0  0  0  0
  5 11  1  0  0  0  0
  8  2  1  0  0  0  0
  9 10  1  0  0  0  0
 10 11  2  0  0  0  0
 10 16  1  0  0  0  0
 11 12  1  0  0  0  0
 12 17  1  0  0  0  0
 12 13  2  0  0  0  0
 13 18  1  0  0  0  0
 14 13  1  0  0  0  0
 14 15  1  0  0  0  0
 16 14  2  0  0  0  0
 19 16  1  0  0  0  0
 20  3  1  0  0  0  0
 21 20  2  0  0  0  0
 22 21  1  0  0  0  0
 23 22  1  0  0  0  0
 24 22  2  0  0  0  0
 24 25  1  0  0  0  0
 25 26  2  0  0  0  0
 26 20  1  0  0  0  0
M  END
>  <minimizedAffinity>
-4.97223186

$$$$

 OpenBabel03272502433D

 26 28  0  0  0  0  0  0  0  0999 V2000
   38.8470   25.0670   30.1450 C   0  0  0  0  0  0  0  0  0  0  0  0
   38.3310   23.7620   30.2260 C   0  0  0  0  0  0  0  0  0  0  0  0
   37.2330   23.5650   31.0740 C   0  0  0  0  0  0  0  0  0  0  0  0
   36.7540   24.6260   31.7450 N   0  0  0  0  0  0  0  0  0  0  0  0
   37.2710   25.8680   31.6450 C   0  0  0  0  0  0  0  0  0  0  0  0
   38.3220   26.0840   30.8420 N   0  0  0  0  0  0  0  0  0  0  0  0
   39.7030   25.1920   29.4770 H   0  0  0  0  0  0  0  0  0  0  0  0
   38.7200   22.9210   29.6880 H   0  0  0  0  0  0  0  0  0  0  0  0
   38.3000   26.1310   34.4130 Cl  0  0  0  0  0  0  0  0  0  0  0  0
   37.0800   27.1610   33.7140 C   0  0  0  0  0  0  0  0  0  0  0  0
   36.6730   26.9530   32.4200 C   0  0  0  0  0  0  0  0  0  0  0  0
   35.7130   27.7450   31.8360 C   0  0  0  0  0  0  0  0  0  0  0  0
   35.1370   28.7790   32.5600 C   0  0  0  0  0  0  0  0  0  0  0  0
   35.5260   29.0120   33.8610 C   0  0  0  0  0  0  0  0  0  0  0  0
   34.8720   30.2820   34.8700 Cl  0  0  0  0  0  0  0  0  0  0  0  0
   36.4910   28.1910   34.4020 C   0  0  0  0  0  0  0  0  0  0  0  0
   35.3960   27.5730   30.8100 H   0  0  0  0  0  0  0  0  0  0  0  0
   34.3890   29.4130   32.1370 H   0  0  0  0  0  0  0  0  0  0  0  0
   36.8160   28.3520   35.4270 H   0  0  0  0  0  0  0  0  0  0  0  0
   36.5820   22.2770   31.2690 C   0  0  0  0  0  0  0  0  0  0  0  0
   35.4540   22.0960   32.0350 C   0  0  0  0  0  3  0  0  0  0  0  0
   34.8170   20.8910   32.2380 C   0  0  0  0  0  0  0  0  0  0  0  0
   33.9460   20.7760   32.8350 H   0  0  0  0  0  0  0  0  0  0  0  0
   35.3460   19.8040   31.6340 N   0  0  0  0  0  0  0  0  0  0  0  0
   36.4630   19.9560   30.8710 C   0  0  0  0  0  3  0  0  0  0  0  0
   37.0540   21.1510   30.6990 N   0  0  0  0  0  0  0  0  0  0  0  0
  1  2  2  0  0  0  0
  1  6  1  0  0  0  0
  2  3  1  0  0  0  0
  3 20  1  0  0  0  0
  3  4  2  0  0  0  0
  5  4  1  0  0  0  0
  5 11  1  0  0  0  0
  6  5  2  0  0  0  0
  7  1  1  0  0  0  0
  8  2  1  0  0  0  0
 10 16  1  0  0  0  0
 10  9  1  0  0  0  0
 11 10  2  0  0  0  0
 12 11  1  0  0  0  0
 12 13  2  0  0  0  0
 13 14  1  0  0  0  0
 14 16  2  0  0  0  0
 14 15  1  0  0  0  0
 16 19  1  0  0  0  0
 17 12  1  0  0  0  0
 18 13  1  0  0  0  0
 20 21  1  0  0  0  0
 21 22  2  0  0  0  0
 22 23  1  0  0  0  0
 24 22  1  0  0  0  0
 25 24  2  0  0  0  0
 26 25  1  0  0  0  0
 26 20  2  0  0  0  0
M  END
>  <minimizedAffinity>
-4.96268845

$$$$

 OpenBabel03272502433D

 26 28  0  0  0  0  0  0  0  0999 V2000
   35.8000   29.6540   31.9270 C   0  0  0  0  0  0  0  0  0  0  0  0
   34.8280   30.2370   32.7580 C   0  0  0  0  0  0  0  0  0  0  0  0
   34.7470   29.7580   34.0720 C   0  0  0  0  0  0  0  0  0  0  0  0
   35.5950   28.7830   34.4430 N   0  0  0  0  0  0  0  0  0  0  0  0
   36.5190   28.2440   33.6210 C   0  0  0  0  0  0  0  0  0  0  0  0
   36.6180   28.6840   32.3590 N   0  0  0  0  0  0  0  0  0  0  0  0
   35.8420   30.0470   30.9070 H   0  0  0  0  0  0  0  0  0  0  0  0
   34.1550   31.0120   32.4530 H   0  0  0  0  0  0  0  0  0  0  0  0
   36.3180   25.6660   32.1720 Cl  0  0  0  0  0  0  0  0  0  0  0  0
   37.3780   25.9550   33.5260 C   0  0  0  0  0  0  0  0  0  0  0  0
   37.3930   27.1890   34.1270 C   0  0  0  0  0  0  0  0  0  0  0  0
   38.2160   27.4530   35.1960 C   0  0  0  0  0  0  0  0  0  0  0  0
   39.0510   26.4590   35.6870 C   0  0  0  0  0  0  0  0  0  0  0  0
   39.0580   25.2110   35.1030 C   0  0  0  0  0  0  0  0  0  0  0  0
   40.0650   23.8830   35.6330 Cl  0  0  0  0  0  0  0  0  0  0  0  0
   38.2150   24.9950   34.0340 C   0  0  0  0  0  0  0  0  0  0  0  0
   38.2220   28.4330   35.6670 H   0  0  0  0  0  0  0  0  0  0  0  0
   39.7030   26.6310   36.5150 H   0  0  0  0  0  0  0  0  0  0  0  0
   38.1990   24.0200   33.5550 H   0  0  0  0  0  0  0  0  0  0  0  0
   33.7970   30.2530   35.0570 C   0  0  0  0  0  0  0  0  0  0  0  0
   32.5040   29.7980   35.1740 C   0  0  0  0  0  3  0  0  0  0  0  0
   31.5840   30.2470   36.0960 C   0  0  0  0  0  0  0  0  0  0  0  0
   30.5910   29.8800   36.1670 H   0  0  0  0  0  0  0  0  0  0  0  0
   31.9890   31.2130   36.9510 N   0  0  0  0  0  0  0  0  0  0  0  0
   33.2630   31.6820   36.8570 C   0  0  0  0  0  3  0  0  0  0  0  0
   34.1300   31.2150   35.9420 N   0  0  0  0  0  0  0  0  0  0  0  0
  1  6  2  0  0  0  0
  1  2  1  0  0  0  0
  2  3  2  0  0  0  0
  3  4  1  0  0  0  0
  3 20  1  0  0  0  0
  5 11  1  0  0  0  0
  5  4  2  0  0  0  0
  6  5  1  0  0  0  0
  7  1  1  0  0  0  0
  8  2  1  0  0  0  0
  9 10  1  0  0  0  0
 10 16  2  0  0  0  0
 10 11  1  0  0  0  0
 11 12  2  0  0  0  0
 12 17  1  0  0  0  0
 12 13  1  0  0  0  0
 13 18  1  0  0  0  0
 14 15  1  0  0  0  0
 14 13  2  0  0  0  0
 16 14  1  0  0  0  0
 19 16  1  0  0  0  0
 20 21  2  0  0  0  0
 20 26  1  0  0  0  0
 21 22  1  0  0  0  0
 22 23  1  0  0  0  0
 22 24  2  0  0  0  0
 25 24  1  0  0  0  0
 26 25  2  0  0  0  0
M  END
>  <minimizedAffinity>
-4.94062614

$$$$

 OpenBabel03272502433D

 26 28  0  0  0  0  0  0  0  0999 V2000
   38.6750   26.1180   30.6560 C   0  0  0  0  0  0  0  0  0  0  0  0
   38.0140   27.2460   31.1710 C   0  0  0  0  0  0  0  0  0  0  0  0
   36.9190   27.0090   32.0130 C   0  0  0  0  0  0  0  0  0  0  0  0
   36.5800   25.7340   32.2660 N   0  0  0  0  0  0  0  0  0  0  0  0
   37.2360   24.6710   31.7570 C   0  0  0  0  0  0  0  0  0  0  0  0
   38.2870   24.8690   30.9490 N   0  0  0  0  0  0  0  0  0  0  0  0
   39.5260   26.3310   30.0020 H   0  0  0  0  0  0  0  0  0  0  0  0
   38.2900   28.2590   30.9620 H   0  0  0  0  0  0  0  0  0  0  0  0
   38.6710   23.4190   34.0290 Cl  0  0  0  0  0  0  0  0  0  0  0  0
   37.3830   22.6550   33.1360 C   0  0  0  0  0  0  0  0  0  0  0  0
   36.7840   23.3240   32.0980 C   0  0  0  0  0  0  0  0  0  0  0  0
   35.7660   22.7530   31.3710 C   0  0  0  0  0  0  0  0  0  0  0  0
   35.3280   21.4750   31.6850 C   0  0  0  0  0  0  0  0  0  0  0  0
   35.9090   20.7790   32.7220 C   0  0  0  0  0  0  0  0  0  0  0  0
   35.4410   19.1660   33.2090 Cl  0  0  0  0  0  0  0  0  0  0  0  0
   36.9260   21.3940   33.4200 C   0  0  0  0  0  0  0  0  0  0  0  0
   35.2980   23.2900   30.5500 H   0  0  0  0  0  0  0  0  0  0  0  0
   34.5390   21.0020   31.1420 H   0  0  0  0  0  0  0  0  0  0  0  0
   37.4040   20.8680   34.2430 H   0  0  0  0  0  0  0  0  0  0  0  0
   36.1280   28.0660   32.6280 C   0  0  0  0  0  0  0  0  0  0  0  0
   36.2700   28.4700   33.9340 C   0  0  0  0  0  3  0  0  0  0  0  0
   35.5370   29.4660   34.5420 C   0  0  0  0  0  0  0  0  0  0  0  0
   35.6650   29.7600   35.5540 H   0  0  0  0  0  0  0  0  0  0  0  0
   34.6050   30.0920   33.7900 N   0  0  0  0  0  0  0  0  0  0  0  0
   34.4430   29.7110   32.4930 C   0  0  0  0  0  3  0  0  0  0  0  0
   35.1810   28.7340   31.9390 N   0  0  0  0  0  0  0  0  0  0  0  0
  1  6  2  0  0  0  0
  1  2  1  0  0  0  0
  2  3  2  0  0  0  0
  3  4  1  0  0  0  0
  3 20  1  0  0  0  0
  5 11  1  0  0  0  0
  5  4  2  0  0  0  0
  6  5  1  0  0  0  0
  7  1  1  0  0  0  0
  8  2  1  0  0  0  0
 10 16  1  0  0  0  0
 10  9  1  0  0  0  0
 11 10  2  0  0  0  0
 12 13  2  0  0  0  0
 12 11  1  0  0  0  0
 13 14  1  0  0  0  0
 14 15  1  0  0  0  0
 14 16  2  0  0  0  0
 16 19  1  0  0  0  0
 17 12  1  0  0  0  0
 18 13  1  0  0  0  0
 20 21  1  0  0  0  0
 21 22  2  0  0  0  0
 22 23  1  0  0  0  0
 24 22  1  0  0  0  0
 25 24  2  0  0  0  0
 26 25  1  0  0  0  0
 26 20  2  0  0  0  0
M  END
>  <minimizedAffinity>
-4.92749357

$$$$
