REMARK  Name = 
REMARK  4 active torsions:
REMARK  status: ('A' for Active; 'I' for Inactive)
REMARK    1  A    between atoms: C_2  and  C_12
REMARK    2  A    between atoms: C_6  and  O_16
REMARK    3  A    between atoms: O_16  and  C_18
REMARK    4  A    between atoms: C_22  and  C_37
REMARK                            x       y       z     vdW  Elec       q    Type
REMARK                         _______ _______ _______ _____ _____    ______ ____
ROOT
ATOM      1  C   UNL     1      36.250  30.171  46.863  0.00  0.00    +0.000 A 
ATOM      2  C   UNL     1      37.082  30.765  47.812  0.00  0.00    +0.000 A 
ATOM      3  C   UNL     1      38.055  31.686  47.440  0.00  0.00    +0.000 A 
ATOM      4  C   UNL     1      38.147  31.975  46.083  0.00  0.00    +0.000 A 
ATOM      5  N   UNL     1      39.017  32.834  45.477  0.00  0.00    +0.000 N 
ATOM      6  C   UNL     1      38.745  32.790  44.165  0.00  0.00    +0.000 A 
ATOM      7  N   UNL     1      37.758  31.951  43.938  0.00  0.00    +0.000 NA
ATOM      8  C   UNL     1      37.349  31.415  45.114  0.00  0.00    +0.000 A 
ATOM      9  C   UNL     1      36.377  30.490  45.515  0.00  0.00    +0.000 A 
ATOM     10  H   UNL     1      35.489  29.456  47.121  0.00  0.00    +0.000 HD
ATOM     11  H   UNL     1      38.691  32.138  48.185  0.00  0.00    +0.000 HD
ATOM     12  H   UNL     1      39.753  33.411  45.972  0.00  0.00    +0.000 HD
ATOM     13  H   UNL     1      35.761  30.063  44.734  0.00  0.00    +0.000 HD
ENDROOT
BRANCH   2  16
ATOM     14  C   UNL     1      37.517  30.150  51.488  0.00  0.00    +0.000 A 
ATOM     15  C   UNL     1      37.802  30.581  50.206  0.00  0.00    +0.000 A 
ATOM     16  C   UNL     1      36.880  30.360  49.189  0.00  0.00    +0.000 A 
ATOM     17  N   UNL     1      35.717  29.717  49.510  0.00  0.00    +0.000 NA
ATOM     18  C   UNL     1      35.452  29.300  50.774  0.00  0.00    +0.000 A 
ATOM     19  N   UNL     1      36.330  29.512  51.731  0.00  0.00    +0.000 NA
ATOM     20  H   UNL     1      38.214  30.313  52.274  0.00  0.00    +0.000 HD
ATOM     21  H   UNL     1      38.724  31.091  49.955  0.00  0.00    +0.000 HD
ATOM     22  H   UNL     1      34.494  28.788  50.953  0.00  0.00    +0.000 HD
ENDBRANCH   2  16
BRANCH   6  23
ATOM     23  O   UNL     1      39.461  33.562  43.235  0.00  0.00    +0.000 OA
BRANCH  23  25
ATOM     24  N   UNL     1      39.561  31.854  41.723  0.00  0.00    +0.000 NA
ATOM     25  C   UNL     1      39.201  33.277  41.867  0.00  0.00    +0.000 C 
ATOM     26  C   UNL     1      37.795  33.445  41.523  0.00  0.00    +0.000 C 
ATOM     27  O   UNL     1      37.625  33.137  40.161  0.00  0.00    +0.000 OA
ATOM     28  C   UNL     1      38.069  31.899  39.787  0.00  0.00    +0.000 C 
ATOM     29  C   UNL     1      39.432  31.567  40.309  0.00  0.00    +0.000 C 
ATOM     30  H   UNL     1      40.574  31.804  41.977  0.00  0.00    +0.000 HD
ATOM     31  H   UNL     1      39.816  33.907  41.214  0.00  0.00    +0.000 HD
ATOM     32  H   UNL     1      36.986  32.954  41.992  0.00  0.00    +0.000 HD
ATOM     33  H   UNL     1      37.567  34.553  41.562  0.00  0.00    +0.000 HD
ATOM     34  H   UNL     1      37.356  31.155  40.224  0.00  0.00    +0.000 HD
ATOM     35  H   UNL     1      38.076  31.866  38.687  0.00  0.00    +0.000 HD
ATOM     36  H   UNL     1      39.508  30.441  40.246  0.00  0.00    +0.000 HD
BRANCH  29  37
ATOM     37  C   UNL     1      40.553  32.081  39.520  0.00  0.00    +0.000 A 
ATOM     38  C   UNL     1      41.891  31.818  39.568  0.00  0.00    +0.000 A 
ATOM     39  C   UNL     1      42.781  32.431  38.711  0.00  0.00    +0.000 A 
ATOM     40  H   UNL     1      43.820  32.137  38.849  0.00  0.00    +0.000 HD
ATOM     41  N   UNL     1      42.362  33.330  37.776  0.00  0.00    +0.000 NA
ATOM     42  C   UNL     1      41.037  33.571  37.752  0.00  0.00    +0.000 A 
ATOM     43  N   UNL     1      40.128  32.982  38.584  0.00  0.00    +0.000 NA
ENDBRANCH  29  37
ENDBRANCH  23  25
ENDBRANCH   6  23
TORSDOF 4
