
 OpenBabel03272508183D

 23 25  0  0  0  0  0  0  0  0999 V2000
   36.6420   27.9490   33.5740 C   0  0  0  0  0  0  0  0  0  0  0  0
   35.9340   29.1500   33.5550 C   0  0  0  0  0  0  0  0  0  0  0  0
   35.7370   29.6700   32.2480 C   0  0  0  0  0  0  0  0  0  0  0  0
   36.2080   29.0210   31.1390 N   0  0  0  0  0  0  0  0  0  0  0  0
   36.8810   27.8600   31.2450 C   0  0  0  0  0  0  0  0  0  0  0  0
   37.0930   27.3330   32.4750 N   0  0  0  0  0  0  0  0  0  0  0  0
   35.2240   30.5830   31.9840 H   0  0  0  0  0  0  0  0  0  0  0  0
   37.2930   27.2660   30.4480 H   0  0  0  0  0  0  0  0  0  0  0  0
   36.8320   27.3390   34.9400 C   0  0  0  0  0  0  0  0  0  0  0  0
   37.6990   26.1970   35.1390 C   0  0  0  0  0  0  0  0  0  0  0  0
   38.2720   27.5540   35.4620 C   0  0  0  0  0  0  0  0  0  0  0  0
   36.1140   27.7370   35.6840 H   0  0  0  0  0  0  0  0  0  0  0  0
   37.5250   25.4620   35.9520 H   0  0  0  0  0  0  0  0  0  0  0  0
   38.0620   25.7020   34.1970 H   0  0  0  0  0  0  0  0  0  0  0  0
   38.9980   28.0020   34.7910 H   0  0  0  0  0  0  0  0  0  0  0  0
   38.3160   27.7290   36.5500 H   0  0  0  0  0  0  0  0  0  0  0  0
   35.3820   30.0190   34.5250 C   0  0  0  0  0  0  0  0  0  0  0  0
   35.9540   30.9110   35.3830 C   0  0  0  0  0  3  0  0  0  0  0  0
   35.3420   31.6590   36.3280 C   0  0  0  0  0  0  0  0  0  0  0  0
   35.7980   32.3590   36.9980 H   0  0  0  0  0  0  0  0  0  0  0  0
   34.0040   31.5130   36.4450 N   0  0  0  0  0  0  0  0  0  0  0  0
   33.3550   30.6560   35.6450 C   0  0  0  0  0  3  0  0  0  0  0  0
   34.0360   29.9540   34.7360 N   0  0  0  0  0  0  0  0  0  0  0  0
  1  9  1  0  0  0  0
  2  1  1  0  0  0  0
  2 17  1  0  0  0  0
  3  2  2  0  0  0  0
  4  5  2  0  0  0  0
  4  3  1  0  0  0  0
  5  6  1  0  0  0  0
  6  1  2  0  0  0  0
  7  3  1  0  0  0  0
  8  5  1  0  0  0  0
  9 10  1  0  0  0  0
  9 11  1  0  0  0  0
  9 12  1  0  0  0  0
 10 11  1  0  0  0  0
 10 13  1  0  0  0  0
 11 16  1  0  0  0  0
 14 10  1  0  0  0  0
 15 11  1  0  0  0  0
 17 23  2  0  0  0  0
 17 18  1  0  0  0  0
 18 19  2  0  0  0  0
 19 21  1  0  0  0  0
 19 20  1  0  0  0  0
 22 21  2  0  0  0  0
 23 22  1  0  0  0  0
M  END
>  <minimizedAffinity>
-4.22972918

$$$$

 OpenBabel03272508183D

 23 25  0  0  0  0  0  0  0  0999 V2000
   39.2330   23.6480   36.6050 C   0  0  0  0  0  0  0  0  0  0  0  0
   39.3580   24.5940   35.5890 C   0  0  0  0  0  0  0  0  0  0  0  0
   40.5990   24.5250   34.9010 C   0  0  0  0  0  0  0  0  0  0  0  0
   41.5520   23.6000   35.2320 N   0  0  0  0  0  0  0  0  0  0  0  0
   41.3490   22.7170   36.2270 C   0  0  0  0  0  0  0  0  0  0  0  0
   40.1790   22.7530   36.9100 N   0  0  0  0  0  0  0  0  0  0  0  0
   40.9240   25.1530   34.0840 H   0  0  0  0  0  0  0  0  0  0  0  0
   42.0220   21.9500   36.5700 H   0  0  0  0  0  0  0  0  0  0  0  0
   37.9100   23.6570   37.3280 C   0  0  0  0  0  0  0  0  0  0  0  0
   37.7640   23.0480   38.6340 C   0  0  0  0  0  0  0  0  0  0  0  0
   37.9630   24.5430   38.5960 C   0  0  0  0  0  0  0  0  0  0  0  0
   37.0770   23.9990   36.6830 H   0  0  0  0  0  0  0  0  0  0  0  0
   36.7980   22.6280   38.9810 H   0  0  0  0  0  0  0  0  0  0  0  0
   38.6370   22.4260   38.9720 H   0  0  0  0  0  0  0  0  0  0  0  0
   38.9210   24.9630   38.8870 H   0  0  0  0  0  0  0  0  0  0  0  0
   37.0210   25.0840   38.7850 H   0  0  0  0  0  0  0  0  0  0  0  0
   38.5650   25.6500   35.0800 C   0  0  0  0  0  0  0  0  0  0  0  0
   38.2500   26.8790   35.5800 C   0  0  0  0  0  3  0  0  0  0  0  0
   37.4240   27.8040   35.0430 C   0  0  0  0  0  0  0  0  0  0  0  0
   37.1830   28.7680   35.4420 H   0  0  0  0  0  0  0  0  0  0  0  0
   36.8350   27.4830   33.8700 N   0  0  0  0  0  0  0  0  0  0  0  0
   37.0830   26.2950   33.3030 C   0  0  0  0  0  3  0  0  0  0  0  0
   37.9130   25.4360   33.9010 N   0  0  0  0  0  0  0  0  0  0  0  0
  1  6  1  0  0  0  0
  1  9  1  0  0  0  0
  2  1  2  0  0  0  0
  3  4  2  0  0  0  0
  3  2  1  0  0  0  0
  4  5  1  0  0  0  0
  5  8  1  0  0  0  0
  5  6  2  0  0  0  0
  7  3  1  0  0  0  0
  9 11  1  0  0  0  0
  9 10  1  0  0  0  0
 10 14  1  0  0  0  0
 10 13  1  0  0  0  0
 11 10  1  0  0  0  0
 11 16  1  0  0  0  0
 11 15  1  0  0  0  0
 12  9  1  0  0  0  0
 17 18  1  0  0  0  0
 17  2  1  0  0  0  0
 19 20  1  0  0  0  0
 19 18  2  0  0  0  0
 21 19  1  0  0  0  0
 22 21  2  0  0  0  0
 22 23  1  0  0  0  0
 23 17  2  0  0  0  0
M  END
>  <minimizedAffinity>
-4.16439152

$$$$

 OpenBabel03272508183D

 23 25  0  0  0  0  0  0  0  0999 V2000
   39.3160   24.8570   33.7370 C   0  0  0  0  0  0  0  0  0  0  0  0
   38.7000   23.9640   34.6120 C   0  0  0  0  0  0  0  0  0  0  0  0
   37.8790   23.0070   33.9570 C   0  0  0  0  0  0  0  0  0  0  0  0
   37.7370   22.9950   32.5970 N   0  0  0  0  0  0  0  0  0  0  0  0
   38.3720   23.8930   31.8220 C   0  0  0  0  0  0  0  0  0  0  0  0
   39.1620   24.8250   32.4080 N   0  0  0  0  0  0  0  0  0  0  0  0
   37.3010   22.2210   34.4230 H   0  0  0  0  0  0  0  0  0  0  0  0
   38.3350   23.9760   30.7490 H   0  0  0  0  0  0  0  0  0  0  0  0
   40.2340   25.8600   34.3880 C   0  0  0  0  0  0  0  0  0  0  0  0
   40.5270   27.1300   33.7580 C   0  0  0  0  0  0  0  0  0  0  0  0
   39.4670   27.1290   34.8310 C   0  0  0  0  0  0  0  0  0  0  0  0
   40.7710   25.4390   35.2620 H   0  0  0  0  0  0  0  0  0  0  0  0
   41.4850   27.6630   33.9290 H   0  0  0  0  0  0  0  0  0  0  0  0
   40.1760   27.2290   32.6950 H   0  0  0  0  0  0  0  0  0  0  0  0
   38.4220   27.2180   34.5510 H   0  0  0  0  0  0  0  0  0  0  0  0
   39.8440   27.5530   35.7760 H   0  0  0  0  0  0  0  0  0  0  0  0
   38.6530   23.7840   36.0150 C   0  0  0  0  0  0  0  0  0  0  0  0
   37.8130   24.2740   36.9700 C   0  0  0  0  0  3  0  0  0  0  0  0
   37.8870   24.0940   38.3080 C   0  0  0  0  0  0  0  0  0  0  0  0
   37.2230   24.4810   39.0520 H   0  0  0  0  0  0  0  0  0  0  0  0
   38.9130   23.3410   38.7630 N   0  0  0  0  0  0  0  0  0  0  0  0
   39.7910   22.8190   37.8960 C   0  0  0  0  0  3  0  0  0  0  0  0
   39.6450   23.0450   36.5880 N   0  0  0  0  0  0  0  0  0  0  0  0
  1  9  1  0  0  0  0
  1  2  1  0  0  0  0
  2 17  1  0  0  0  0
  3  7  1  0  0  0  0
  3  2  2  0  0  0  0
  4  3  1  0  0  0  0
  5  6  1  0  0  0  0
  5  4  2  0  0  0  0
  6  1  2  0  0  0  0
  8  5  1  0  0  0  0
  9 11  1  0  0  0  0
  9 12  1  0  0  0  0
 10 13  1  0  0  0  0
 10  9  1  0  0  0  0
 10 11  1  0  0  0  0
 11 16  1  0  0  0  0
 14 10  1  0  0  0  0
 15 11  1  0  0  0  0
 17 23  2  0  0  0  0
 17 18  1  0  0  0  0
 18 19  2  0  0  0  0
 19 21  1  0  0  0  0
 19 20  1  0  0  0  0
 22 21  2  0  0  0  0
 23 22  1  0  0  0  0
M  END
>  <minimizedAffinity>
-4.07490444

$$$$

 OpenBabel03272508183D

 23 25  0  0  0  0  0  0  0  0999 V2000
   37.2100   26.4970   33.8400 C   0  0  0  0  0  0  0  0  0  0  0  0
   36.5600   27.4070   33.0070 C   0  0  0  0  0  0  0  0  0  0  0  0
   36.1710   26.8520   31.7580 C   0  0  0  0  0  0  0  0  0  0  0  0
   36.4240   25.5440   31.4440 N   0  0  0  0  0  0  0  0  0  0  0  0
   37.0550   24.7300   32.3090 C   0  0  0  0  0  0  0  0  0  0  0  0
   37.4460   25.2220   33.5100 N   0  0  0  0  0  0  0  0  0  0  0  0
   35.6600   27.3610   30.9530 H   0  0  0  0  0  0  0  0  0  0  0  0
   37.3030   23.6920   32.1700 H   0  0  0  0  0  0  0  0  0  0  0  0
   37.5970   27.0330   35.1940 C   0  0  0  0  0  0  0  0  0  0  0  0
   38.3030   26.2110   36.1540 C   0  0  0  0  0  0  0  0  0  0  0  0
   39.1320   27.1680   35.3330 C   0  0  0  0  0  0  0  0  0  0  0  0
   37.1270   28.0130   35.4120 H   0  0  0  0  0  0  0  0  0  0  0  0
   38.2010   26.3660   37.2480 H   0  0  0  0  0  0  0  0  0  0  0  0
   38.3740   25.1210   35.8900 H   0  0  0  0  0  0  0  0  0  0  0  0
   39.7540   26.7850   34.5310 H   0  0  0  0  0  0  0  0  0  0  0  0
   39.4370   28.0490   35.9220 H   0  0  0  0  0  0  0  0  0  0  0  0
   36.2130   28.7770   33.0720 C   0  0  0  0  0  0  0  0  0  0  0  0
   35.6070   29.5200   34.0420 C   0  0  0  0  0  3  0  0  0  0  0  0
   35.2570   30.8240   33.9870 C   0  0  0  0  0  0  0  0  0  0  0  0
   34.7820   31.4010   34.7530 H   0  0  0  0  0  0  0  0  0  0  0  0
   35.5360   31.4790   32.8390 N   0  0  0  0  0  0  0  0  0  0  0  0
   36.1300   30.8300   31.8290 C   0  0  0  0  0  3  0  0  0  0  0  0
   36.4430   29.5390   31.9650 N   0  0  0  0  0  0  0  0  0  0  0  0
  1  9  1  0  0  0  0
  2 17  1  0  0  0  0
  2  1  2  0  0  0  0
  3  2  1  0  0  0  0
  4  3  2  0  0  0  0
  4  5  1  0  0  0  0
  5  6  2  0  0  0  0
  6  1  1  0  0  0  0
  7  3  1  0  0  0  0
  8  5  1  0  0  0  0
  9 11  1  0  0  0  0
  9 12  1  0  0  0  0
  9 10  1  0  0  0  0
 10 13  1  0  0  0  0
 11 16  1  0  0  0  0
 11 10  1  0  0  0  0
 14 10  1  0  0  0  0
 15 11  1  0  0  0  0
 17 18  1  0  0  0  0
 19 18  2  0  0  0  0
 19 20  1  0  0  0  0
 21 19  1  0  0  0  0
 22 23  1  0  0  0  0
 22 21  2  0  0  0  0
 23 17  2  0  0  0  0
M  END
>  <minimizedAffinity>
-4.03629255

$$$$

 OpenBabel03272508183D

 23 25  0  0  0  0  0  0  0  0999 V2000
   39.3010   22.7980   36.7770 C   0  0  0  0  0  0  0  0  0  0  0  0
   39.3550   22.5530   35.4060 C   0  0  0  0  0  0  0  0  0  0  0  0
   40.5740   21.9570   34.9860 C   0  0  0  0  0  0  0  0  0  0  0  0
   41.5730   21.6630   35.8740 N   0  0  0  0  0  0  0  0  0  0  0  0
   41.4380   21.9310   37.1860 C   0  0  0  0  0  0  0  0  0  0  0  0
   40.2910   22.5020   37.6270 N   0  0  0  0  0  0  0  0  0  0  0  0
   40.8470   21.6790   33.9780 H   0  0  0  0  0  0  0  0  0  0  0  0
   42.1520   21.7430   37.9700 H   0  0  0  0  0  0  0  0  0  0  0  0
   38.0040   23.3870   37.2710 C   0  0  0  0  0  0  0  0  0  0  0  0
   37.9470   24.1620   38.4920 C   0  0  0  0  0  0  0  0  0  0  0  0
   38.0180   24.9320   37.1970 C   0  0  0  0  0  0  0  0  0  0  0  0
   37.1260   23.0060   36.7120 H   0  0  0  0  0  0  0  0  0  0  0  0
   37.0310   24.2110   39.1150 H   0  0  0  0  0  0  0  0  0  0  0  0
   38.8800   24.1350   39.1200 H   0  0  0  0  0  0  0  0  0  0  0  0
   38.9430   25.4230   36.9160 H   0  0  0  0  0  0  0  0  0  0  0  0
   37.0390   25.3600   36.9250 H   0  0  0  0  0  0  0  0  0  0  0  0
   38.5050   22.7810   34.2980 C   0  0  0  0  0  0  0  0  0  0  0  0
   38.2600   23.8940   33.5490 C   0  0  0  0  0  3  0  0  0  0  0  0
   37.3740   24.0330   32.5380 C   0  0  0  0  0  0  0  0  0  0  0  0
   37.1880   24.9110   31.9540 H   0  0  0  0  0  0  0  0  0  0  0  0
   36.6360   22.9450   32.2250 N   0  0  0  0  0  0  0  0  0  0  0  0
   36.8060   21.8060   32.9090 C   0  0  0  0  0  3  0  0  0  0  0  0
   37.7050   21.7530   33.8950 N   0  0  0  0  0  0  0  0  0  0  0  0
  1  9  1  0  0  0  0
  1  6  1  0  0  0  0
  2  1  2  0  0  0  0
  3  2  1  0  0  0  0
  3  4  2  0  0  0  0
  4  5  1  0  0  0  0
  5  6  2  0  0  0  0
  5  8  1  0  0  0  0
  7  3  1  0  0  0  0
  9 10  1  0  0  0  0
 10 13  1  0  0  0  0
 10 14  1  0  0  0  0
 11  9  1  0  0  0  0
 11 10  1  0  0  0  0
 12  9  1  0  0  0  0
 15 11  1  0  0  0  0
 16 11  1  0  0  0  0
 17  2  1  0  0  0  0
 18 17  2  0  0  0  0
 19 18  1  0  0  0  0
 20 19  1  0  0  0  0
 21 19  2  0  0  0  0
 21 22  1  0  0  0  0
 22 23  2  0  0  0  0
 23 17  1  0  0  0  0
M  END
>  <minimizedAffinity>
-4.02418613

$$$$

 OpenBabel03272508183D

 23 25  0  0  0  0  0  0  0  0999 V2000
   37.6020   26.0750   33.8010 C   0  0  0  0  0  0  0  0  0  0  0  0
   36.8720   26.4980   32.6920 C   0  0  0  0  0  0  0  0  0  0  0  0
   36.5200   25.4420   31.8090 C   0  0  0  0  0  0  0  0  0  0  0  0
   36.8780   24.1460   32.0630 N   0  0  0  0  0  0  0  0  0  0  0  0
   37.5820   23.8210   33.1620 C   0  0  0  0  0  0  0  0  0  0  0  0
   37.9410   24.8000   34.0270 N   0  0  0  0  0  0  0  0  0  0  0  0
   35.9620   25.5260   30.8880 H   0  0  0  0  0  0  0  0  0  0  0  0
   37.9150   22.8420   33.4620 H   0  0  0  0  0  0  0  0  0  0  0  0
   37.9550   27.1590   34.7870 C   0  0  0  0  0  0  0  0  0  0  0  0
   38.3600   26.8410   36.1400 C   0  0  0  0  0  0  0  0  0  0  0  0
   39.4590   27.1300   35.1480 C   0  0  0  0  0  0  0  0  0  0  0  0
   37.6910   28.1700   34.4180 H   0  0  0  0  0  0  0  0  0  0  0  0
   38.1820   27.5370   36.9850 H   0  0  0  0  0  0  0  0  0  0  0  0
   38.2170   25.7680   36.4430 H   0  0  0  0  0  0  0  0  0  0  0  0
   40.0620   26.3140   34.7640 H   0  0  0  0  0  0  0  0  0  0  0  0
   39.8870   28.1360   35.2960 H   0  0  0  0  0  0  0  0  0  0  0  0
   36.4130   27.7390   32.1900 C   0  0  0  0  0  0  0  0  0  0  0  0
   35.4580   28.6060   32.6330 C   0  0  0  0  0  3  0  0  0  0  0  0
   35.0410   29.7490   32.0450 C   0  0  0  0  0  0  0  0  0  0  0  0
   34.2910   30.4250   32.4000 H   0  0  0  0  0  0  0  0  0  0  0  0
   35.6360   30.0830   30.8790 N   0  0  0  0  0  0  0  0  0  0  0  0
   36.5850   29.2900   30.3640 C   0  0  0  0  0  3  0  0  0  0  0  0
   36.9390   28.1760   31.0100 N   0  0  0  0  0  0  0  0  0  0  0  0
  1  6  1  0  0  0  0
  1  9  1  0  0  0  0
  2  1  2  0  0  0  0
  3  4  2  0  0  0  0
  3  2  1  0  0  0  0
  4  5  1  0  0  0  0
  5  8  1  0  0  0  0
  5  6  2  0  0  0  0
  7  3  1  0  0  0  0
  9 11  1  0  0  0  0
  9 10  1  0  0  0  0
 10 14  1  0  0  0  0
 10 13  1  0  0  0  0
 11 16  1  0  0  0  0
 11 10  1  0  0  0  0
 12  9  1  0  0  0  0
 15 11  1  0  0  0  0
 17 18  1  0  0  0  0
 17  2  1  0  0  0  0
 19 20  1  0  0  0  0
 19 18  2  0  0  0  0
 21 19  1  0  0  0  0
 22 21  2  0  0  0  0
 22 23  1  0  0  0  0
 23 17  2  0  0  0  0
M  END
>  <minimizedAffinity>
-4.01550245

$$$$

 OpenBabel03272508183D

 23 25  0  0  0  0  0  0  0  0999 V2000
   38.1340   24.8810   35.3170 C   0  0  0  0  0  0  0  0  0  0  0  0
   38.1490   23.9430   34.2860 C   0  0  0  0  0  0  0  0  0  0  0  0
   37.9730   22.6060   34.7350 C   0  0  0  0  0  0  0  0  0  0  0  0
   37.8020   22.3120   36.0600 N   0  0  0  0  0  0  0  0  0  0  0  0
   37.7960   23.2810   36.9940 C   0  0  0  0  0  0  0  0  0  0  0  0
   37.9650   24.5680   36.6070 N   0  0  0  0  0  0  0  0  0  0  0  0
   37.9520   21.7150   34.1250 H   0  0  0  0  0  0  0  0  0  0  0  0
   37.6700   23.1660   38.0570 H   0  0  0  0  0  0  0  0  0  0  0  0
   38.2710   26.3170   34.8770 C   0  0  0  0  0  0  0  0  0  0  0  0
   38.5690   27.3680   35.8270 C   0  0  0  0  0  0  0  0  0  0  0  0
   39.7260   26.8200   35.0290 C   0  0  0  0  0  0  0  0  0  0  0  0
   37.9420   26.4720   33.8310 H   0  0  0  0  0  0  0  0  0  0  0  0
   38.2350   28.4140   35.6690 H   0  0  0  0  0  0  0  0  0  0  0  0
   38.5080   27.0670   36.9080 H   0  0  0  0  0  0  0  0  0  0  0  0
   40.4460   26.1660   35.5100 H   0  0  0  0  0  0  0  0  0  0  0  0
   40.0300   27.5110   34.2260 H   0  0  0  0  0  0  0  0  0  0  0  0
   38.3350   23.9760   32.8840 C   0  0  0  0  0  0  0  0  0  0  0  0
   39.4530   24.0970   32.1130 C   0  0  0  0  0  3  0  0  0  0  0  0
   39.5240   24.1840   30.7660 C   0  0  0  0  0  0  0  0  0  0  0  0
   40.4070   24.2780   30.1680 H   0  0  0  0  0  0  0  0  0  0  0  0
   38.3530   24.1470   30.0930 N   0  0  0  0  0  0  0  0  0  0  0  0
   37.2010   24.0320   30.7670 C   0  0  0  0  0  3  0  0  0  0  0  0
   37.2190   23.9520   32.1000 N   0  0  0  0  0  0  0  0  0  0  0  0
  1  6  1  0  0  0  0
  2  3  1  0  0  0  0
  2  1  2  0  0  0  0
  3  4  2  0  0  0  0
  4  5  1  0  0  0  0
  5  8  1  0  0  0  0
  6  5  2  0  0  0  0
  7  3  1  0  0  0  0
  9 11  1  0  0  0  0
  9  1  1  0  0  0  0
  9 10  1  0  0  0  0
 10 14  1  0  0  0  0
 11 15  1  0  0  0  0
 11 10  1  0  0  0  0
 12  9  1  0  0  0  0
 13 10  1  0  0  0  0
 16 11  1  0  0  0  0
 17  2  1  0  0  0  0
 18 17  1  0  0  0  0
 19 18  2  0  0  0  0
 20 19  1  0  0  0  0
 21 19  1  0  0  0  0
 21 22  2  0  0  0  0
 22 23  1  0  0  0  0
 23 17  2  0  0  0  0
M  END
>  <minimizedAffinity>
-4.00801802

$$$$

 OpenBabel03272508183D

 23 25  0  0  0  0  0  0  0  0999 V2000
   37.0390   27.6260   33.8470 C   0  0  0  0  0  0  0  0  0  0  0  0
   36.8030   27.1230   32.5690 C   0  0  0  0  0  0  0  0  0  0  0  0
   35.7010   27.7380   31.9140 C   0  0  0  0  0  0  0  0  0  0  0  0
   34.9720   28.7280   32.5130 N   0  0  0  0  0  0  0  0  0  0  0  0
   35.2700   29.1590   33.7530 C   0  0  0  0  0  0  0  0  0  0  0  0
   36.3110   28.5960   34.4120 N   0  0  0  0  0  0  0  0  0  0  0  0
   35.3280   27.5130   30.9250 H   0  0  0  0  0  0  0  0  0  0  0  0
   34.7700   29.9270   34.3170 H   0  0  0  0  0  0  0  0  0  0  0  0
   38.2290   27.0340   34.5580 C   0  0  0  0  0  0  0  0  0  0  0  0
   38.4420   27.2480   35.9740 C   0  0  0  0  0  0  0  0  0  0  0  0
   37.8010   25.9440   35.5700 C   0  0  0  0  0  0  0  0  0  0  0  0
   38.9710   26.6040   33.8560 H   0  0  0  0  0  0  0  0  0  0  0  0
   39.4570   27.2500   36.4220 H   0  0  0  0  0  0  0  0  0  0  0  0
   37.7740   28.0190   36.4470 H   0  0  0  0  0  0  0  0  0  0  0  0
   36.7400   25.7940   35.7410 H   0  0  0  0  0  0  0  0  0  0  0  0
   38.5140   25.1050   35.6280 H   0  0  0  0  0  0  0  0  0  0  0  0
   37.3660   26.1130   31.7540 C   0  0  0  0  0  0  0  0  0  0  0  0
   38.4900   26.0850   30.9820 C   0  0  0  0  0  3  0  0  0  0  0  0
   38.9180   25.0840   30.1800 C   0  0  0  0  0  0  0  0  0  0  0  0
   39.8020   25.0690   29.5770 H   0  0  0  0  0  0  0  0  0  0  0  0
   38.1460   23.9760   30.1290 N   0  0  0  0  0  0  0  0  0  0  0  0
   37.0200   23.9150   30.8520 C   0  0  0  0  0  3  0  0  0  0  0  0
   36.6690   24.9490   31.6210 N   0  0  0  0  0  0  0  0  0  0  0  0
  1  6  1  0  0  0  0
  1  9  1  0  0  0  0
  2  1  2  0  0  0  0
  3  4  2  0  0  0  0
  3  2  1  0  0  0  0
  4  5  1  0  0  0  0
  5  8  1  0  0  0  0
  5  6  2  0  0  0  0
  7  3  1  0  0  0  0
  9 11  1  0  0  0  0
  9 10  1  0  0  0  0
 10 13  1  0  0  0  0
 10 14  1  0  0  0  0
 11 16  1  0  0  0  0
 11 15  1  0  0  0  0
 11 10  1  0  0  0  0
 12  9  1  0  0  0  0
 17  2  1  0  0  0  0
 18 17  2  0  0  0  0
 19 18  1  0  0  0  0
 20 19  1  0  0  0  0
 21 19  2  0  0  0  0
 21 22  1  0  0  0  0
 22 23  2  0  0  0  0
 23 17  1  0  0  0  0
M  END
>  <minimizedAffinity>
-3.97419167

$$$$

 OpenBabel03272508183D

 23 25  0  0  0  0  0  0  0  0999 V2000
   34.2340   30.1240   34.6300 C   0  0  0  0  0  0  0  0  0  0  0  0
   34.1570   29.6390   33.3260 C   0  0  0  0  0  0  0  0  0  0  0  0
   32.8560   29.1960   32.9630 C   0  0  0  0  0  0  0  0  0  0  0  0
   31.8060   29.2620   33.8370 N   0  0  0  0  0  0  0  0  0  0  0  0
   31.9660   29.7500   35.0820 C   0  0  0  0  0  0  0  0  0  0  0  0
   33.1920   30.1790   35.4680 N   0  0  0  0  0  0  0  0  0  0  0  0
   32.5550   28.7800   32.0130 H   0  0  0  0  0  0  0  0  0  0  0  0
   31.2160   29.8500   35.8470 H   0  0  0  0  0  0  0  0  0  0  0  0
   35.5870   30.6480   35.0390 C   0  0  0  0  0  0  0  0  0  0  0  0
   35.9510   32.0340   34.8280 C   0  0  0  0  0  0  0  0  0  0  0  0
   35.4760   31.6550   36.2090 C   0  0  0  0  0  0  0  0  0  0  0  0
   36.2860   29.8380   35.3250 H   0  0  0  0  0  0  0  0  0  0  0  0
   37.0040   32.3470   34.6730 H   0  0  0  0  0  0  0  0  0  0  0  0
   35.2400   32.6230   34.1880 H   0  0  0  0  0  0  0  0  0  0  0  0
   34.4850   31.9540   36.5340 H   0  0  0  0  0  0  0  0  0  0  0  0
   36.3130   31.5830   36.9220 H   0  0  0  0  0  0  0  0  0  0  0  0
   35.0670   29.4360   32.2610 C   0  0  0  0  0  0  0  0  0  0  0  0
   35.6100   30.2920   31.3490 C   0  0  0  0  0  3  0  0  0  0  0  0
   36.4310   29.9910   30.3180 C   0  0  0  0  0  0  0  0  0  0  0  0
   36.8540   30.6690   29.6070 H   0  0  0  0  0  0  0  0  0  0  0  0
   36.7570   28.6890   30.1640 N   0  0  0  0  0  0  0  0  0  0  0  0
   36.2680   27.7740   31.0120 C   0  0  0  0  0  3  0  0  0  0  0  0
   35.4630   28.1570   32.0060 N   0  0  0  0  0  0  0  0  0  0  0  0
  1  9  1  0  0  0  0
  1  6  1  0  0  0  0
  2  1  2  0  0  0  0
  3  2  1  0  0  0  0
  3  4  2  0  0  0  0
  4  5  1  0  0  0  0
  5  6  2  0  0  0  0
  5  8  1  0  0  0  0
  7  3  1  0  0  0  0
  9 12  1  0  0  0  0
  9 11  1  0  0  0  0
 10  9  1  0  0  0  0
 10 11  1  0  0  0  0
 11 15  1  0  0  0  0
 11 16  1  0  0  0  0
 13 10  1  0  0  0  0
 14 10  1  0  0  0  0
 17  2  1  0  0  0  0
 18 17  2  0  0  0  0
 19 18  1  0  0  0  0
 20 19  1  0  0  0  0
 21 19  2  0  0  0  0
 21 22  1  0  0  0  0
 22 23  2  0  0  0  0
 23 17  1  0  0  0  0
M  END
>  <minimizedAffinity>
-3.94121027

$$$$
