
 OpenBabel03262522203D

 17 18  0  0  0  0  0  0  0  0999 V2000
   36.5710   29.4500   50.3770 C   0  0  0  0  0  0  0  0  0  0  0  0
   36.7740   30.0910   49.1400 C   0  0  0  0  0  0  0  0  0  0  0  0
   35.6500   30.4560   48.4180 C   0  0  0  0  0  0  0  0  0  0  0  0
   34.4150   30.1870   48.9190 N   0  0  0  0  0  0  0  0  0  0  0  0
   34.2650   29.5670   50.1140 C   0  0  0  0  0  0  0  0  0  0  0  0
   35.3250   29.1930   50.8540 N   0  0  0  0  0  0  0  0  0  0  0  0
   37.3910   29.1280   51.0110 H   0  0  0  0  0  0  0  0  0  0  0  0
   35.8590   30.9330   47.4990 H   0  0  0  0  0  0  0  0  0  0  0  0
   33.2310   29.4060   50.4090 H   0  0  0  0  0  0  0  0  0  0  0  0
   38.0950   30.2710   48.8130 O   0  0  0  0  0  0  0  0  0  0  0  0
   38.5470   31.0290   47.7310 C   0  0  0  0  0  0  0  0  0  0  0  0
   38.6160   30.6050   46.4120 C   0  0  0  0  0  3  0  0  0  0  0  0
   39.0890   31.4750   45.4480 C   0  0  0  0  0  0  0  0  0  0  0  0
   39.1380   31.1330   44.4240 H   0  0  0  0  0  0  0  0  0  0  0  0
   39.4780   32.7190   45.7790 N   0  0  0  0  0  0  0  0  0  0  0  0
   39.3860   33.0700   47.0750 C   0  0  0  0  0  3  0  0  0  0  0  0
   38.9360   32.2730   48.0640 N   0  0  0  0  0  0  0  0  0  0  0  0
  1  6  1  0  0  0  0
  1  7  1  0  0  0  0
  2  1  2  0  0  0  0
  3  4  2  0  0  0  0
  3  2  1  0  0  0  0
  4  5  1  0  0  0  0
  5  9  1  0  0  0  0
  5  6  2  0  0  0  0
  8  3  1  0  0  0  0
 10  2  1  0  0  0  0
 11 17  1  0  0  0  0
 11 10  1  0  0  0  0
 12 11  2  0  0  0  0
 13 15  2  0  0  0  0
 13 12  1  0  0  0  0
 14 13  1  0  0  0  0
 15 16  1  0  0  0  0
 16 17  2  0  0  0  0
M  END
>  <minimizedAffinity>
-3.83263183

>  <minimizedRMSD>
3.19243336

$$$$
