
 OpenBabel03272508193D

 29 31  0  0  0  0  0  0  0  0999 V2000
   38.2020   24.9060   35.6340 C   0  0  0  0  0  0  0  0  0  0  0  0
   38.2710   23.7690   34.8150 C   0  0  0  0  0  0  0  0  0  0  0  0
   38.0500   22.5940   35.4940 C   0  0  0  0  0  0  0  0  0  0  0  0
   37.7950   22.5520   36.8160 N   0  0  0  0  0  0  0  0  0  0  0  0
   37.7360   23.6620   37.5780 C   0  0  0  0  0  0  0  0  0  0  0  0
   37.9410   24.8420   36.9850 N   0  0  0  0  0  0  0  0  0  0  0  0
   38.0860   21.6540   34.9240 H   0  0  0  0  0  0  0  0  0  0  0  0
   37.5290   23.5430   38.6190 H   0  0  0  0  0  0  0  0  0  0  0  0
   38.3180   26.2590   34.9400 C   0  0  0  0  0  0  0  0  0  0  0  0
   38.4860   27.4670   35.6560 C   0  0  0  0  0  0  0  0  0  0  0  0
   39.7660   26.8050   35.1750 C   0  0  0  0  0  0  0  0  0  0  0  0
   38.1180   26.2390   33.8280 H   0  0  0  0  0  0  0  0  0  0  0  0
   38.2070   28.4290   35.1850 H   0  0  0  0  0  0  0  0  0  0  0  0
   38.3750   27.4760   36.7670 H   0  0  0  0  0  0  0  0  0  0  0  0
   40.3990   26.3240   35.9090 H   0  0  0  0  0  0  0  0  0  0  0  0
   40.2120   27.2650   34.2870 H   0  0  0  0  0  0  0  0  0  0  0  0
   38.6070   23.8610   33.3990 C   0  0  0  0  0  0  0  0  0  0  0  0
   38.7220   24.9020   33.0160 H   0  0  0  0  0  0  0  0  0  0  0  0
   39.6200   23.4130   33.2710 H   0  0  0  0  0  0  0  0  0  0  0  0
   37.6700   23.1860   32.4730 C   0  0  0  0  0  0  0  0  0  0  0  0
   37.0080   22.4950   33.0420 H   0  0  0  0  0  0  0  0  0  0  0  0
   38.1510   22.6370   31.6580 H   0  0  0  0  0  0  0  0  0  0  0  0
   36.7730   24.1860   31.8450 C   0  0  0  0  0  0  0  0  0  0  0  0
   35.4630   24.1350   31.4210 C   0  0  0  0  0  3  0  0  0  0  0  0
   34.8650   25.2400   30.8790 C   0  0  0  0  0  0  0  0  0  0  0  0
   33.8300   25.0430   30.5910 H   0  0  0  0  0  0  0  0  0  0  0  0
   35.5630   26.3860   30.7590 N   0  0  0  0  0  0  0  0  0  0  0  0
   36.8300   26.4500   31.1650 C   0  0  0  0  0  3  0  0  0  0  0  0
   37.4180   25.3640   31.6990 N   0  0  0  0  0  0  0  0  0  0  0  0
  1  6  1  0  0  0  0
  2  3  1  0  0  0  0
  2  1  2  0  0  0  0
  3  4  2  0  0  0  0
  4  5  1  0  0  0  0
  5  8  1  0  0  0  0
  6  5  2  0  0  0  0
  7  3  1  0  0  0  0
  9 11  1  0  0  0  0
  9  1  1  0  0  0  0
  9 10  1  0  0  0  0
 10 14  1  0  0  0  0
 11 10  1  0  0  0  0
 11 15  1  0  0  0  0
 12  9  1  0  0  0  0
 13 10  1  0  0  0  0
 16 11  1  0  0  0  0
 17  2  1  0  0  0  0
 18 17  1  0  0  0  0
 19 17  1  0  0  0  0
 20 21  1  0  0  0  0
 20 17  1  0  0  0  0
 22 20  1  0  0  0  0
 23 20  1  0  0  0  0
 24 23  2  0  0  0  0
 25 24  1  0  0  0  0
 26 25  1  0  0  0  0
 27 25  2  0  0  0  0
 27 28  1  0  0  0  0
 28 29  2  0  0  0  0
 29 23  1  0  0  0  0
M  END
>  <minimizedAffinity>
-4.51812315

$$$$

 OpenBabel03272508193D

 29 31  0  0  0  0  0  0  0  0999 V2000
   36.5500   26.6400   32.2210 C   0  0  0  0  0  0  0  0  0  0  0  0
   37.2410   25.5870   32.8420 C   0  0  0  0  0  0  0  0  0  0  0  0
   36.8410   24.3440   32.4100 C   0  0  0  0  0  0  0  0  0  0  0  0
   35.8800   24.1670   31.4840 N   0  0  0  0  0  0  0  0  0  0  0  0
   35.2320   25.1980   30.9070 C   0  0  0  0  0  0  0  0  0  0  0  0
   35.5690   26.4370   31.2770 N   0  0  0  0  0  0  0  0  0  0  0  0
   37.3350   23.4640   32.8470 H   0  0  0  0  0  0  0  0  0  0  0  0
   34.4810   24.9730   30.1810 H   0  0  0  0  0  0  0  0  0  0  0  0
   37.0130   28.0530   32.5540 C   0  0  0  0  0  0  0  0  0  0  0  0
   36.3060   29.2030   32.1300 C   0  0  0  0  0  0  0  0  0  0  0  0
   35.9610   28.6960   33.5200 C   0  0  0  0  0  0  0  0  0  0  0  0
   38.0310   28.1160   33.0410 H   0  0  0  0  0  0  0  0  0  0  0  0
   36.8280   30.1760   32.0630 H   0  0  0  0  0  0  0  0  0  0  0  0
   35.4710   29.1030   31.3950 H   0  0  0  0  0  0  0  0  0  0  0  0
   35.0070   28.2050   33.6620 H   0  0  0  0  0  0  0  0  0  0  0  0
   36.4070   29.2680   34.3390 H   0  0  0  0  0  0  0  0  0  0  0  0
   38.2350   25.8270   33.8810 C   0  0  0  0  0  0  0  0  0  0  0  0
   39.1280   25.1600   33.8320 H   0  0  0  0  0  0  0  0  0  0  0  0
   38.6510   26.8460   33.7080 H   0  0  0  0  0  0  0  0  0  0  0  0
   37.7390   25.7460   35.2730 C   0  0  0  0  0  0  0  0  0  0  0  0
   36.6760   25.4170   35.2780 H   0  0  0  0  0  0  0  0  0  0  0  0
   37.8340   26.6740   35.8450 H   0  0  0  0  0  0  0  0  0  0  0  0
   38.4920   24.7060   36.0170 C   0  0  0  0  0  0  0  0  0  0  0  0
   39.6150   23.9680   35.7160 C   0  0  0  0  0  3  0  0  0  0  0  0
   40.1160   23.0660   36.6160 C   0  0  0  0  0  0  0  0  0  0  0  0
   41.0040   22.5600   36.2350 H   0  0  0  0  0  0  0  0  0  0  0  0
   39.5040   22.9010   37.8050 N   0  0  0  0  0  0  0  0  0  0  0  0
   38.4180   23.6090   38.1100 C   0  0  0  0  0  3  0  0  0  0  0  0
   37.9260   24.4960   37.2250 N   0  0  0  0  0  0  0  0  0  0  0  0
  1  9  1  0  0  0  0
  1  2  1  0  0  0  0
  2 17  1  0  0  0  0
  3  2  2  0  0  0  0
  3  7  1  0  0  0  0
  4  3  1  0  0  0  0
  5  6  1  0  0  0  0
  5  4  2  0  0  0  0
  6  1  2  0  0  0  0
  8  5  1  0  0  0  0
  9 12  1  0  0  0  0
  9 11  1  0  0  0  0
 10  9  1  0  0  0  0
 10 11  1  0  0  0  0
 11 15  1  0  0  0  0
 11 16  1  0  0  0  0
 13 10  1  0  0  0  0
 14 10  1  0  0  0  0
 17 20  1  0  0  0  0
 18 17  1  0  0  0  0
 19 17  1  0  0  0  0
 20 21  1  0  0  0  0
 20 22  1  0  0  0  0
 20 23  1  0  0  0  0
 23 29  1  0  0  0  0
 24 23  2  0  0  0  0
 24 25  1  0  0  0  0
 25 27  2  0  0  0  0
 26 25  1  0  0  0  0
 27 28  1  0  0  0  0
 29 28  2  0  0  0  0
M  END
>  <minimizedAffinity>
-4.51301813

$$$$

 OpenBabel03272508193D

 29 31  0  0  0  0  0  0  0  0999 V2000
   37.0680   27.1220   33.6880 C   0  0  0  0  0  0  0  0  0  0  0  0
   36.2700   28.2490   33.4360 C   0  0  0  0  0  0  0  0  0  0  0  0
   35.9160   28.3800   32.1130 C   0  0  0  0  0  0  0  0  0  0  0  0
   36.3050   27.5090   31.1630 N   0  0  0  0  0  0  0  0  0  0  0  0
   37.0740   26.4360   31.4360 C   0  0  0  0  0  0  0  0  0  0  0  0
   37.4560   26.2430   32.7010 N   0  0  0  0  0  0  0  0  0  0  0  0
   35.2880   29.2390   31.8310 H   0  0  0  0  0  0  0  0  0  0  0  0
   37.3400   25.7930   30.6250 H   0  0  0  0  0  0  0  0  0  0  0  0
   37.4070   26.8340   35.1460 C   0  0  0  0  0  0  0  0  0  0  0  0
   38.3060   25.8120   35.5290 C   0  0  0  0  0  0  0  0  0  0  0  0
   38.9120   27.1970   35.3780 C   0  0  0  0  0  0  0  0  0  0  0  0
   36.7820   27.4010   35.8980 H   0  0  0  0  0  0  0  0  0  0  0  0
   38.2570   25.3910   36.5510 H   0  0  0  0  0  0  0  0  0  0  0  0
   38.6690   25.0770   34.7710 H   0  0  0  0  0  0  0  0  0  0  0  0
   39.5470   27.3860   34.5220 H   0  0  0  0  0  0  0  0  0  0  0  0
   39.0990   27.7200   36.3210 H   0  0  0  0  0  0  0  0  0  0  0  0
   35.9210   29.1950   34.4880 C   0  0  0  0  0  0  0  0  0  0  0  0
   35.8180   28.7430   35.5030 H   0  0  0  0  0  0  0  0  0  0  0  0
   36.7780   29.8990   34.5940 H   0  0  0  0  0  0  0  0  0  0  0  0
   34.6870   29.9800   34.2620 C   0  0  0  0  0  0  0  0  0  0  0  0
   33.8040   29.3020   34.2510 H   0  0  0  0  0  0  0  0  0  0  0  0
   34.6910   30.5830   33.3490 H   0  0  0  0  0  0  0  0  0  0  0  0
   34.4690   30.9150   35.3930 C   0  0  0  0  0  0  0  0  0  0  0  0
   35.2670   31.8680   35.9860 C   0  0  0  0  0  3  0  0  0  0  0  0
   34.7950   32.6180   37.0300 C   0  0  0  0  0  0  0  0  0  0  0  0
   35.5410   33.3270   37.3930 H   0  0  0  0  0  0  0  0  0  0  0  0
   33.5390   32.4210   37.4790 N   0  0  0  0  0  0  0  0  0  0  0  0
   32.7570   31.5030   36.9130 C   0  0  0  0  0  3  0  0  0  0  0  0
   33.2210   30.7660   35.8870 N   0  0  0  0  0  0  0  0  0  0  0  0
  1  9  1  0  0  0  0
  2  1  1  0  0  0  0
  2 17  1  0  0  0  0
  3  2  2  0  0  0  0
  4  5  2  0  0  0  0
  4  3  1  0  0  0  0
  5  6  1  0  0  0  0
  6  1  2  0  0  0  0
  7  3  1  0  0  0  0
  8  5  1  0  0  0  0
  9 11  1  0  0  0  0
  9 10  1  0  0  0  0
  9 12  1  0  0  0  0
 10 13  1  0  0  0  0
 11 10  1  0  0  0  0
 11 16  1  0  0  0  0
 14 10  1  0  0  0  0
 15 11  1  0  0  0  0
 17 19  1  0  0  0  0
 17 18  1  0  0  0  0
 20 17  1  0  0  0  0
 20 23  1  0  0  0  0
 21 20  1  0  0  0  0
 22 20  1  0  0  0  0
 23 29  2  0  0  0  0
 23 24  1  0  0  0  0
 24 25  2  0  0  0  0
 25 26  1  0  0  0  0
 25 27  1  0  0  0  0
 28 27  2  0  0  0  0
 29 28  1  0  0  0  0
M  END
>  <minimizedAffinity>
-4.50797033

$$$$

 OpenBabel03272508193D

 29 31  0  0  0  0  0  0  0  0999 V2000
   36.3690   23.4210   32.0120 C   0  0  0  0  0  0  0  0  0  0  0  0
   37.3100   24.1120   32.7910 C   0  0  0  0  0  0  0  0  0  0  0  0
   37.2500   25.4770   32.6340 C   0  0  0  0  0  0  0  0  0  0  0  0
   36.3710   26.0800   31.8110 N   0  0  0  0  0  0  0  0  0  0  0  0
   35.4800   25.3880   31.0730 C   0  0  0  0  0  0  0  0  0  0  0  0
   35.4800   24.0560   31.1740 N   0  0  0  0  0  0  0  0  0  0  0  0
   37.9540   26.0930   33.2120 H   0  0  0  0  0  0  0  0  0  0  0  0
   34.8170   25.9410   30.4430 H   0  0  0  0  0  0  0  0  0  0  0  0
   36.2870   21.9120   32.2140 C   0  0  0  0  0  0  0  0  0  0  0  0
   35.4490   21.0860   31.4300 C   0  0  0  0  0  0  0  0  0  0  0  0
   36.8820   21.2170   30.9430 C   0  0  0  0  0  0  0  0  0  0  0  0
   36.8360   21.5260   33.1230 H   0  0  0  0  0  0  0  0  0  0  0  0
   35.1350   20.0970   31.8150 H   0  0  0  0  0  0  0  0  0  0  0  0
   34.6970   21.5460   30.7450 H   0  0  0  0  0  0  0  0  0  0  0  0
   37.0680   21.8090   30.0560 H   0  0  0  0  0  0  0  0  0  0  0  0
   37.5220   20.3590   31.1700 H   0  0  0  0  0  0  0  0  0  0  0  0
   38.2790   23.4120   33.6260 C   0  0  0  0  0  0  0  0  0  0  0  0
   37.8340   22.6710   34.3310 H   0  0  0  0  0  0  0  0  0  0  0  0
   38.9110   22.7940   32.9480 H   0  0  0  0  0  0  0  0  0  0  0  0
   39.1620   24.2750   34.4430 C   0  0  0  0  0  0  0  0  0  0  0  0
   38.9330   25.3460   34.2450 H   0  0  0  0  0  0  0  0  0  0  0  0
   40.2320   24.1000   34.2960 H   0  0  0  0  0  0  0  0  0  0  0  0
   38.8860   24.0580   35.8840 C   0  0  0  0  0  0  0  0  0  0  0  0
   37.9020   24.5200   36.7290 C   0  0  0  0  0  3  0  0  0  0  0  0
   37.8780   24.1380   38.0430 C   0  0  0  0  0  0  0  0  0  0  0  0
   37.0430   24.5870   38.5840 H   0  0  0  0  0  0  0  0  0  0  0  0
   38.8250   23.3010   38.5120 N   0  0  0  0  0  0  0  0  0  0  0  0
   39.7820   22.8450   37.7060 C   0  0  0  0  0  3  0  0  0  0  0  0
   39.8060   23.2220   36.4140 N   0  0  0  0  0  0  0  0  0  0  0  0
  1  9  1  0  0  0  0
  1  2  1  0  0  0  0
  2 17  1  0  0  0  0
  3  2  2  0  0  0  0
  3  7  1  0  0  0  0
  4  3  1  0  0  0  0
  5  6  1  0  0  0  0
  5  4  2  0  0  0  0
  6  1  2  0  0  0  0
  8  5  1  0  0  0  0
  9 12  1  0  0  0  0
 10 13  1  0  0  0  0
 10  9  1  0  0  0  0
 11 16  1  0  0  0  0
 11 10  1  0  0  0  0
 11  9  1  0  0  0  0
 14 10  1  0  0  0  0
 15 11  1  0  0  0  0
 17 18  1  0  0  0  0
 17 20  1  0  0  0  0
 19 17  1  0  0  0  0
 20 23  1  0  0  0  0
 21 20  1  0  0  0  0
 22 20  1  0  0  0  0
 23 29  2  0  0  0  0
 23 24  1  0  0  0  0
 24 25  2  0  0  0  0
 25 27  1  0  0  0  0
 25 26  1  0  0  0  0
 28 27  2  0  0  0  0
 29 28  1  0  0  0  0
M  END
>  <minimizedAffinity>
-4.47285366

$$$$

 OpenBabel03272508193D

 29 31  0  0  0  0  0  0  0  0999 V2000
   38.1280   25.0940   36.2860 C   0  0  0  0  0  0  0  0  0  0  0  0
   38.1070   23.7760   35.8020 C   0  0  0  0  0  0  0  0  0  0  0  0
   38.0170   22.8320   36.7970 C   0  0  0  0  0  0  0  0  0  0  0  0
   37.9570   23.1510   38.1040 N   0  0  0  0  0  0  0  0  0  0  0  0
   37.9810   24.4260   38.5390 C   0  0  0  0  0  0  0  0  0  0  0  0
   38.0670   25.3990   37.6270 N   0  0  0  0  0  0  0  0  0  0  0  0
   37.9930   21.7720   36.5010 H   0  0  0  0  0  0  0  0  0  0  0  0
   37.9300   24.5960   39.5930 H   0  0  0  0  0  0  0  0  0  0  0  0
   38.1070   26.2070   35.2450 C   0  0  0  0  0  0  0  0  0  0  0  0
   38.2380   27.5720   35.5910 C   0  0  0  0  0  0  0  0  0  0  0  0
   39.5260   26.8650   35.2060 C   0  0  0  0  0  0  0  0  0  0  0  0
   37.8380   25.8730   34.2000 H   0  0  0  0  0  0  0  0  0  0  0  0
   37.8650   28.3530   34.9010 H   0  0  0  0  0  0  0  0  0  0  0  0
   38.1980   27.8810   36.6630 H   0  0  0  0  0  0  0  0  0  0  0  0
   40.2360   26.6350   35.9900 H   0  0  0  0  0  0  0  0  0  0  0  0
   39.8830   27.0840   34.1950 H   0  0  0  0  0  0  0  0  0  0  0  0
   38.2310   23.4780   34.3800 C   0  0  0  0  0  0  0  0  0  0  0  0
   37.4040   23.8800   33.7480 H   0  0  0  0  0  0  0  0  0  0  0  0
   39.1360   24.0120   34.0100 H   0  0  0  0  0  0  0  0  0  0  0  0
   38.3500   22.0440   34.0340 C   0  0  0  0  0  0  0  0  0  0  0  0
   38.3700   21.4310   34.9630 H   0  0  0  0  0  0  0  0  0  0  0  0
   39.2190   21.7950   33.4170 H   0  0  0  0  0  0  0  0  0  0  0  0
   37.1500   21.6050   33.2820 C   0  0  0  0  0  0  0  0  0  0  0  0
   36.0870   20.7920   33.6060 C   0  0  0  0  0  3  0  0  0  0  0  0
   35.0840   20.5640   32.7020 C   0  0  0  0  0  0  0  0  0  0  0  0
   34.3160   19.9000   33.1030 H   0  0  0  0  0  0  0  0  0  0  0  0
   35.1390   21.1420   31.4860 N   0  0  0  0  0  0  0  0  0  0  0  0
   36.1600   21.9320   31.1590 C   0  0  0  0  0  3  0  0  0  0  0  0
   37.1460   22.1550   32.0480 N   0  0  0  0  0  0  0  0  0  0  0  0
  1  6  1  0  0  0  0
  2  1  2  0  0  0  0
  2  3  1  0  0  0  0
  3  4  2  0  0  0  0
  4  5  1  0  0  0  0
  5  8  1  0  0  0  0
  6  5  2  0  0  0  0
  7  3  1  0  0  0  0
  9 10  1  0  0  0  0
  9  1  1  0  0  0  0
 10 14  1  0  0  0  0
 11  9  1  0  0  0  0
 11 10  1  0  0  0  0
 11 15  1  0  0  0  0
 12  9  1  0  0  0  0
 13 10  1  0  0  0  0
 16 11  1  0  0  0  0
 17  2  1  0  0  0  0
 18 17  1  0  0  0  0
 19 17  1  0  0  0  0
 20 17  1  0  0  0  0
 20 21  1  0  0  0  0
 22 20  1  0  0  0  0
 23 24  1  0  0  0  0
 23 20  1  0  0  0  0
 25 26  1  0  0  0  0
 25 24  2  0  0  0  0
 27 25  1  0  0  0  0
 28 27  2  0  0  0  0
 28 29  1  0  0  0  0
 29 23  2  0  0  0  0
M  END
>  <minimizedAffinity>
-4.46831083

$$$$

 OpenBabel03272508193D

 29 31  0  0  0  0  0  0  0  0999 V2000
   37.9530   25.4590   33.4140 C   0  0  0  0  0  0  0  0  0  0  0  0
   37.7550   24.1260   33.0210 C   0  0  0  0  0  0  0  0  0  0  0  0
   36.7580   23.9770   32.0860 C   0  0  0  0  0  0  0  0  0  0  0  0
   36.0470   25.0140   31.6040 N   0  0  0  0  0  0  0  0  0  0  0  0
   36.2590   26.2840   32.0020 C   0  0  0  0  0  0  0  0  0  0  0  0
   37.2140   26.5060   32.9090 N   0  0  0  0  0  0  0  0  0  0  0  0
   36.5400   22.9610   31.7230 H   0  0  0  0  0  0  0  0  0  0  0  0
   35.6520   27.0500   31.5720 H   0  0  0  0  0  0  0  0  0  0  0  0
   39.1180   25.7290   34.3580 C   0  0  0  0  0  0  0  0  0  0  0  0
   39.4680   27.0340   34.7790 C   0  0  0  0  0  0  0  0  0  0  0  0
   38.5370   26.2710   35.7070 C   0  0  0  0  0  0  0  0  0  0  0  0
   39.7640   24.8290   34.5830 H   0  0  0  0  0  0  0  0  0  0  0  0
   40.4910   27.2370   35.1470 H   0  0  0  0  0  0  0  0  0  0  0  0
   38.9930   27.9200   34.2950 H   0  0  0  0  0  0  0  0  0  0  0  0
   37.4990   26.5740   35.7510 H   0  0  0  0  0  0  0  0  0  0  0  0
   39.0200   25.8520   36.5950 H   0  0  0  0  0  0  0  0  0  0  0  0
   38.5110   23.0300   33.6130 C   0  0  0  0  0  0  0  0  0  0  0  0
   38.8900   22.2780   32.8810 H   0  0  0  0  0  0  0  0  0  0  0  0
   39.4380   23.4680   34.0510 H   0  0  0  0  0  0  0  0  0  0  0  0
   37.8080   22.2600   34.6640 C   0  0  0  0  0  0  0  0  0  0  0  0
   37.9450   21.1690   34.4890 H   0  0  0  0  0  0  0  0  0  0  0  0
   36.7410   22.4810   34.7530 H   0  0  0  0  0  0  0  0  0  0  0  0
   38.4160   22.5410   35.9870 C   0  0  0  0  0  0  0  0  0  0  0  0
   39.6940   22.3990   36.4800 C   0  0  0  0  0  3  0  0  0  0  0  0
   39.9870   22.7600   37.7670 C   0  0  0  0  0  0  0  0  0  0  0  0
   41.0370   22.5880   38.0110 H   0  0  0  0  0  0  0  0  0  0  0  0
   39.0160   23.2600   38.5580 N   0  0  0  0  0  0  0  0  0  0  0  0
   37.7760   23.4030   38.0940 C   0  0  0  0  0  3  0  0  0  0  0  0
   37.4880   23.0480   36.8280 N   0  0  0  0  0  0  0  0  0  0  0  0
  1  9  1  0  0  0  0
  2  1  1  0  0  0  0
  2 17  1  0  0  0  0
  3  2  2  0  0  0  0
  4  5  2  0  0  0  0
  4  3  1  0  0  0  0
  5  6  1  0  0  0  0
  6  1  2  0  0  0  0
  7  3  1  0  0  0  0
  8  5  1  0  0  0  0
  9 12  1  0  0  0  0
  9 10  1  0  0  0  0
  9 11  1  0  0  0  0
 10 13  1  0  0  0  0
 10 11  1  0  0  0  0
 11 15  1  0  0  0  0
 11 16  1  0  0  0  0
 14 10  1  0  0  0  0
 17 19  1  0  0  0  0
 17 20  1  0  0  0  0
 18 17  1  0  0  0  0
 20 22  1  0  0  0  0
 20 23  1  0  0  0  0
 21 20  1  0  0  0  0
 23 24  2  0  0  0  0
 23 29  1  0  0  0  0
 24 25  1  0  0  0  0
 25 26  1  0  0  0  0
 25 27  2  0  0  0  0
 28 27  1  0  0  0  0
 29 28  2  0  0  0  0
M  END
>  <minimizedAffinity>
-4.36398172

$$$$

 OpenBabel03272508193D

 29 31  0  0  0  0  0  0  0  0999 V2000
   36.0760   28.8970   33.2270 C   0  0  0  0  0  0  0  0  0  0  0  0
   36.8580   27.7700   33.5280 C   0  0  0  0  0  0  0  0  0  0  0  0
   37.3410   27.1290   32.4110 C   0  0  0  0  0  0  0  0  0  0  0  0
   37.0810   27.5480   31.1580 N   0  0  0  0  0  0  0  0  0  0  0  0
   36.3240   28.6340   30.9010 C   0  0  0  0  0  0  0  0  0  0  0  0
   35.8210   29.3080   31.9380 N   0  0  0  0  0  0  0  0  0  0  0  0
   37.9650   26.2360   32.5600 H   0  0  0  0  0  0  0  0  0  0  0  0
   36.1650   28.9000   29.8790 H   0  0  0  0  0  0  0  0  0  0  0  0
   35.5990   29.7350   34.4070 C   0  0  0  0  0  0  0  0  0  0  0  0
   34.7790   30.8760   34.2460 C   0  0  0  0  0  0  0  0  0  0  0  0
   34.0460   29.5750   34.5240 C   0  0  0  0  0  0  0  0  0  0  0  0
   36.0630   29.4610   35.4010 H   0  0  0  0  0  0  0  0  0  0  0  0
   34.7510   31.6500   35.0370 H   0  0  0  0  0  0  0  0  0  0  0  0
   34.5940   31.2880   33.2250 H   0  0  0  0  0  0  0  0  0  0  0  0
   33.5010   29.1130   33.7100 H   0  0  0  0  0  0  0  0  0  0  0  0
   33.6910   29.4610   35.5520 H   0  0  0  0  0  0  0  0  0  0  0  0
   37.0650   27.3220   34.8990 C   0  0  0  0  0  0  0  0  0  0  0  0
   36.5320   27.9270   35.6700 H   0  0  0  0  0  0  0  0  0  0  0  0
   36.6070   26.3100   34.9870 H   0  0  0  0  0  0  0  0  0  0  0  0
   38.4750   27.2450   35.3430 C   0  0  0  0  0  0  0  0  0  0  0  0
   38.5910   27.7570   36.3240 H   0  0  0  0  0  0  0  0  0  0  0  0
   39.1990   27.6550   34.6330 H   0  0  0  0  0  0  0  0  0  0  0  0
   38.8540   25.8300   35.5730 C   0  0  0  0  0  0  0  0  0  0  0  0
   39.8980   25.0540   35.1190 C   0  0  0  0  0  3  0  0  0  0  0  0
   40.0170   23.7490   35.5130 C   0  0  0  0  0  0  0  0  0  0  0  0
   40.8910   23.2670   35.0700 H   0  0  0  0  0  0  0  0  0  0  0  0
   39.1050   23.2190   36.3520 N   0  0  0  0  0  0  0  0  0  0  0  0
   38.0910   23.9580   36.7990 C   0  0  0  0  0  3  0  0  0  0  0  0
   37.9740   25.2420   36.4120 N   0  0  0  0  0  0  0  0  0  0  0  0
  1  2  1  0  0  0  0
  1  9  1  0  0  0  0
  2 17  1  0  0  0  0
  3  7  1  0  0  0  0
  3  2  2  0  0  0  0
  4  3  1  0  0  0  0
  5  4  2  0  0  0  0
  5  6  1  0  0  0  0
  6  1  2  0  0  0  0
  8  5  1  0  0  0  0
  9 11  1  0  0  0  0
  9 12  1  0  0  0  0
 10  9  1  0  0  0  0
 10 11  1  0  0  0  0
 10 13  1  0  0  0  0
 11 16  1  0  0  0  0
 14 10  1  0  0  0  0
 15 11  1  0  0  0  0
 17 19  1  0  0  0  0
 17 20  1  0  0  0  0
 17 18  1  0  0  0  0
 20 23  1  0  0  0  0
 20 21  1  0  0  0  0
 22 20  1  0  0  0  0
 23 29  1  0  0  0  0
 24 25  1  0  0  0  0
 24 23  2  0  0  0  0
 25 27  2  0  0  0  0
 26 25  1  0  0  0  0
 27 28  1  0  0  0  0
 29 28  2  0  0  0  0
M  END
>  <minimizedAffinity>
-4.30293703

$$$$

 OpenBabel03272508193D

 29 31  0  0  0  0  0  0  0  0999 V2000
   38.9470   24.0890   36.4750 C   0  0  0  0  0  0  0  0  0  0  0  0
   38.8700   25.1270   35.5330 C   0  0  0  0  0  0  0  0  0  0  0  0
   39.9580   25.1820   34.6940 C   0  0  0  0  0  0  0  0  0  0  0  0
   40.9900   24.3210   34.7780 N   0  0  0  0  0  0  0  0  0  0  0  0
   41.0370   23.3350   35.6960 C   0  0  0  0  0  0  0  0  0  0  0  0
   40.0130   23.2200   36.5460 N   0  0  0  0  0  0  0  0  0  0  0  0
   39.9750   25.9680   33.9240 H   0  0  0  0  0  0  0  0  0  0  0  0
   41.8920   22.6940   35.6980 H   0  0  0  0  0  0  0  0  0  0  0  0
   37.7290   23.8820   37.3680 C   0  0  0  0  0  0  0  0  0  0  0  0
   37.7740   23.0990   38.5450 C   0  0  0  0  0  0  0  0  0  0  0  0
   38.0020   24.5880   38.7380 C   0  0  0  0  0  0  0  0  0  0  0  0
   36.7600   24.2820   36.9460 H   0  0  0  0  0  0  0  0  0  0  0  0
   36.8410   22.6730   38.9580 H   0  0  0  0  0  0  0  0  0  0  0  0
   38.6740   22.4740   38.7630 H   0  0  0  0  0  0  0  0  0  0  0  0
   39.0050   24.9260   38.9670 H   0  0  0  0  0  0  0  0  0  0  0  0
   37.1400   25.1350   39.1320 H   0  0  0  0  0  0  0  0  0  0  0  0
   37.7580   26.0690   35.5170 C   0  0  0  0  0  0  0  0  0  0  0  0
   36.8530   25.7100   34.9720 H   0  0  0  0  0  0  0  0  0  0  0  0
   37.4100   26.1860   36.5690 H   0  0  0  0  0  0  0  0  0  0  0  0
   38.0620   27.4090   34.9660 C   0  0  0  0  0  0  0  0  0  0  0  0
   39.0560   27.3970   34.4660 H   0  0  0  0  0  0  0  0  0  0  0  0
   38.0360   28.2200   35.7000 H   0  0  0  0  0  0  0  0  0  0  0  0
   37.0780   27.7550   33.9110 C   0  0  0  0  0  0  0  0  0  0  0  0
   36.0540   28.6740   33.8500 C   0  0  0  0  0  3  0  0  0  0  0  0
   35.2950   28.7950   32.7180 C   0  0  0  0  0  0  0  0  0  0  0  0
   34.5250   29.5610   32.8220 H   0  0  0  0  0  0  0  0  0  0  0  0
   35.5530   28.0090   31.6540 N   0  0  0  0  0  0  0  0  0  0  0  0
   36.5420   27.1170   31.6980 C   0  0  0  0  0  3  0  0  0  0  0  0
   37.2880   26.9980   32.8120 N   0  0  0  0  0  0  0  0  0  0  0  0
  1  6  1  0  0  0  0
  1  9  1  0  0  0  0
  2  1  2  0  0  0  0
  3  4  2  0  0  0  0
  3  2  1  0  0  0  0
  4  5  1  0  0  0  0
  5  8  1  0  0  0  0
  5  6  2  0  0  0  0
  7  3  1  0  0  0  0
  9 10  1  0  0  0  0
  9 11  1  0  0  0  0
 10 11  1  0  0  0  0
 10 14  1  0  0  0  0
 10 13  1  0  0  0  0
 11 15  1  0  0  0  0
 11 16  1  0  0  0  0
 12  9  1  0  0  0  0
 17  2  1  0  0  0  0
 17 19  1  0  0  0  0
 18 17  1  0  0  0  0
 20 17  1  0  0  0  0
 20 22  1  0  0  0  0
 21 20  1  0  0  0  0
 23 20  1  0  0  0  0
 24 23  1  0  0  0  0
 25 26  1  0  0  0  0
 25 24  2  0  0  0  0
 27 28  2  0  0  0  0
 27 25  1  0  0  0  0
 28 29  1  0  0  0  0
 29 23  2  0  0  0  0
M  END
>  <minimizedAffinity>
-4.29062414

$$$$

 OpenBabel03272508193D

 29 31  0  0  0  0  0  0  0  0999 V2000
   36.9670   25.6880   32.5450 C   0  0  0  0  0  0  0  0  0  0  0  0
   37.7740   25.2080   33.5880 C   0  0  0  0  0  0  0  0  0  0  0  0
   37.9530   26.1190   34.6020 C   0  0  0  0  0  0  0  0  0  0  0  0
   37.4040   27.3490   34.5840 N   0  0  0  0  0  0  0  0  0  0  0  0
   36.6330   27.7820   33.5670 C   0  0  0  0  0  0  0  0  0  0  0  0
   36.4150   26.9500   32.5450 N   0  0  0  0  0  0  0  0  0  0  0  0
   38.5740   25.8200   35.4590 H   0  0  0  0  0  0  0  0  0  0  0  0
   36.2350   28.7720   33.6290 H   0  0  0  0  0  0  0  0  0  0  0  0
   36.6200   24.7010   31.4360 C   0  0  0  0  0  0  0  0  0  0  0  0
   35.5620   23.7690   31.5530 C   0  0  0  0  0  0  0  0  0  0  0  0
   35.2110   25.0800   30.8690 C   0  0  0  0  0  0  0  0  0  0  0  0
   37.3550   24.6740   30.5790 H   0  0  0  0  0  0  0  0  0  0  0  0
   35.5610   22.8570   30.9270 H   0  0  0  0  0  0  0  0  0  0  0  0
   35.0540   23.6250   32.5370 H   0  0  0  0  0  0  0  0  0  0  0  0
   34.5980   25.7890   31.4100 H   0  0  0  0  0  0  0  0  0  0  0  0
   35.1450   25.0230   29.7780 H   0  0  0  0  0  0  0  0  0  0  0  0
   38.3940   23.8890   33.5350 C   0  0  0  0  0  0  0  0  0  0  0  0
   38.4040   23.4210   32.5230 H   0  0  0  0  0  0  0  0  0  0  0  0
   39.4720   24.0220   33.7810 H   0  0  0  0  0  0  0  0  0  0  0  0
   37.8210   22.8750   34.4490 C   0  0  0  0  0  0  0  0  0  0  0  0
   37.9090   21.8630   33.9940 H   0  0  0  0  0  0  0  0  0  0  0  0
   36.7800   23.0550   34.7330 H   0  0  0  0  0  0  0  0  0  0  0  0
   38.6070   22.8270   35.7060 C   0  0  0  0  0  0  0  0  0  0  0  0
   38.3650   23.2910   36.9800 C   0  0  0  0  0  3  0  0  0  0  0  0
   39.2800   23.0910   37.9780 C   0  0  0  0  0  0  0  0  0  0  0  0
   38.9480   23.5160   38.9270 H   0  0  0  0  0  0  0  0  0  0  0  0
   40.4260   22.4340   37.7110 N   0  0  0  0  0  0  0  0  0  0  0  0
   40.6720   21.9790   36.4830 C   0  0  0  0  0  3  0  0  0  0  0  0
   39.7720   22.1760   35.5020 N   0  0  0  0  0  0  0  0  0  0  0  0
  1  6  2  0  0  0  0
  1  2  1  0  0  0  0
  2  3  2  0  0  0  0
  3  7  1  0  0  0  0
  4  3  1  0  0  0  0
  5  8  1  0  0  0  0
  5  4  2  0  0  0  0
  6  5  1  0  0  0  0
  9 10  1  0  0  0  0
  9  1  1  0  0  0  0
 10 14  1  0  0  0  0
 11 15  1  0  0  0  0
 11  9  1  0  0  0  0
 11 10  1  0  0  0  0
 12  9  1  0  0  0  0
 13 10  1  0  0  0  0
 16 11  1  0  0  0  0
 17  2  1  0  0  0  0
 17 19  1  0  0  0  0
 17 20  1  0  0  0  0
 18 17  1  0  0  0  0
 20 22  1  0  0  0  0
 20 23  1  0  0  0  0
 21 20  1  0  0  0  0
 23 24  1  0  0  0  0
 24 25  2  0  0  0  0
 25 26  1  0  0  0  0
 27 25  1  0  0  0  0
 28 27  2  0  0  0  0
 29 23  2  0  0  0  0
 29 28  1  0  0  0  0
M  END
>  <minimizedAffinity>
-4.26407385

$$$$
