
 OpenBabel03272509503D

 31 33  0  0  0  0  0  0  0  0999 V2000
   34.6140   28.1970   49.7470 O   0  0  0  0  0  0  0  0  0  0  0  0
   37.1580   30.1180   51.4540 C   0  0  0  0  0  0  0  0  0  0  0  0
   37.7530   30.7780   50.3490 C   0  0  0  0  0  0  0  0  0  0  0  0
   37.2400   30.5170   49.0910 C   0  0  0  0  0  0  0  0  0  0  0  0
   36.1990   29.6480   48.9830 N   0  0  0  0  0  0  0  0  0  0  0  0
   35.6580   29.0390   50.0580 C   0  0  0  0  0  0  0  0  0  0  0  0
   36.1470   29.2800   51.3070 N   0  0  0  0  0  0  0  0  0  0  0  0
   37.5820   30.3430   52.4230 H   0  0  0  0  0  0  0  0  0  0  0  0
   38.5800   31.4640   50.4530 H   0  0  0  0  0  0  0  0  0  0  0  0
   37.7470   31.1180   47.8630 C   0  0  0  0  0  0  0  0  0  0  0  0
   38.8220   31.9640   47.8450 C   0  0  0  0  0  3  0  0  0  0  0  0
   39.2830   32.5210   46.6740 C   0  0  0  0  0  0  0  0  0  0  0  0
   40.1340   33.1920   46.6450 H   0  0  0  0  0  0  0  0  0  0  0  0
   38.6800   32.2390   45.5200 N   0  0  0  0  0  0  0  0  0  0  0  0
   37.6240   31.4100   45.5230 C   0  0  0  0  0  3  0  0  0  0  0  0
   37.1860   30.8770   46.6650 N   0  0  0  0  0  0  0  0  0  0  0  0
   33.7310   28.6090   48.7030 C   0  0  0  0  0  0  0  0  0  0  0  0
   33.1880   29.5070   49.0190 H   0  0  0  0  0  0  0  0  0  0  0  0
   34.3710   28.9010   47.8440 H   0  0  0  0  0  0  0  0  0  0  0  0
   32.8240   27.4640   48.3210 C   0  0  0  0  0  0  0  0  0  0  0  0
   32.9530   26.5920   48.9700 H   0  0  0  0  0  0  0  0  0  0  0  0
   33.0650   27.1510   47.2700 H   0  0  0  0  0  0  0  0  0  0  0  0
   31.3910   27.8660   48.3300 C   0  0  0  0  0  0  0  0  0  0  0  0
   30.7130   27.7380   49.5210 C   0  0  0  0  0  0  0  0  0  0  0  0
   29.3780   28.0780   49.6570 C   0  0  0  0  0  0  0  0  0  0  0  0
   28.7250   28.5450   48.6010 N   0  0  0  0  0  0  0  0  0  0  0  0
   29.3850   28.6740   47.4240 C   0  0  0  0  0  0  0  0  0  0  0  0
   30.6880   28.3480   47.2730 N   0  0  0  0  0  0  0  0  0  0  0  0
   31.2160   27.3580   50.4070 H   0  0  0  0  0  0  0  0  0  0  0  0
   28.8360   27.9850   50.5720 H   0  0  0  0  0  0  0  0  0  0  0  0
   28.9300   29.0520   46.4980 H   0  0  0  0  0  0  0  0  0  0  0  0
  1  6  1  0  0  0  0
  2  8  1  0  0  0  0
  3  9  1  0  0  0  0
  3  2  2  0  0  0  0
  4  3  1  0  0  0  0
  5  4  2  0  0  0  0
  5  6  1  0  0  0  0
  6  7  2  0  0  0  0
  7  2  1  0  0  0  0
 10  4  1  0  0  0  0
 11 10  1  0  0  0  0
 12 11  2  0  0  0  0
 13 12  1  0  0  0  0
 14 15  2  0  0  0  0
 14 12  1  0  0  0  0
 15 16  1  0  0  0  0
 16 10  2  0  0  0  0
 17 18  1  0  0  0  0
 17  1  1  0  0  0  0
 19 17  1  0  0  0  0
 20 23  1  0  0  0  0
 20 17  1  0  0  0  0
 20 21  1  0  0  0  0
 22 20  1  0  0  0  0
 23 24  1  0  0  0  0
 24 25  2  0  0  0  0
 24 29  1  0  0  0  0
 25 30  1  0  0  0  0
 26 25  1  0  0  0  0
 27 26  2  0  0  0  0
 28 27  1  0  0  0  0
 28 23  2  0  0  0  0
 31 27  1  0  0  0  0
M  END
>  <minimizedAffinity>
-5.66028786

>  <minimizedRMSD>
0.514353395

$$$$
