
 OpenBabel03272507283D

 39 41  0  0  1  0  0  0  0  0999 V2000
   34.9640   29.9720   47.6820 C   0  0  0  0  0  0  0  0  0  0  0  0
   35.6400   30.4560   46.5410 C   0  0  0  0  0  0  0  0  0  0  0  0
   35.3790   29.8080   45.3330 C   0  0  0  0  0  0  0  0  0  0  0  0
   34.5170   28.7780   45.3120 N   0  0  0  0  0  0  0  0  0  0  0  0
   33.8900   28.3440   46.4220 C   0  0  0  0  0  0  0  0  0  0  0  0
   34.1130   28.9360   47.5910 N   0  0  0  0  0  0  0  0  0  0  0  0
   36.0090   30.2220   44.1610 N   0  0  0  0  0  0  0  0  0  0  0  0
   36.4140   31.6180   43.8390 C   0  0  0  0  0  0  0  0  0  0  0  0
   36.7980   31.6600   42.4130 C   0  0  0  0  0  0  0  0  0  0  0  0
   36.2190   30.4410   41.8600 C   0  0  0  0  0  0  0  0  0  0  0  0
   36.4030   29.5040   42.9930 C   0  0  2  0  0  0  0  0  0  0  0  0
   35.2430   30.5510   48.5690 H   0  0  0  0  0  0  0  0  0  0  0  0
   36.3300   31.2680   46.5150 H   0  0  0  0  0  0  0  0  0  0  0  0
   33.1910   27.5300   46.4780 H   0  0  0  0  0  0  0  0  0  0  0  0
   36.9700   32.1390   44.5770 H   0  0  0  0  0  0  0  0  0  0  0  0
   35.3650   32.1190   43.9400 H   0  0  0  0  0  0  0  0  0  0  0  0
   36.0630   32.4790   41.9710 H   0  0  0  0  0  0  0  0  0  0  0  0
   37.7060   32.0910   42.0780 H   0  0  0  0  0  0  0  0  0  0  0  0
   35.1430   30.5190   41.6030 H   0  0  0  0  0  0  0  0  0  0  0  0
   36.7320   30.0220   40.9670 H   0  0  0  0  0  0  0  0  0  0  0  0
   35.6080   28.2190   42.7390 C   0  0  0  0  0  0  0  0  0  0  0  0
   34.2700   28.5010   42.9090 F   0  0  0  0  0  0  0  0  0  0  0  0
   35.8970   27.1790   43.5720 F   0  0  0  0  0  0  0  0  0  0  0  0
   35.7820   27.9060   41.4100 F   0  0  0  0  0  0  0  0  0  0  0  0
   37.7670   29.0980   43.1680 C   0  0  2  0  0  0  0  0  0  0  0  0
   37.8740   28.3060   43.8740 H   0  0  0  0  0  0  0  0  0  0  0  0
   38.7640   30.0870   43.9020 C   0  0  0  0  0  0  0  0  0  0  0  0
   39.6360   30.9450   43.2440 C   0  0  0  0  0  3  0  0  0  0  0  0
   40.5070   31.7070   43.9810 C   0  0  0  0  0  0  0  0  0  0  0  0
   41.1380   32.3370   43.3660 H   0  0  0  0  0  0  0  0  0  0  0  0
   40.5320   31.6410   45.3160 N   0  0  0  0  0  0  0  0  0  0  0  0
   39.7060   30.8260   45.9800 C   0  0  0  0  0  3  0  0  0  0  0  0
   38.8790   30.1040   45.2480 N   0  0  0  0  0  0  0  0  0  0  0  0
   38.3090   29.0440   42.0350 O   0  0  0  0  0  0  0  0  0  0  0  0
   39.0550   28.2100   41.2930 C   0  0  0  0  0  0  0  0  0  0  0  0
   38.6360   28.1180   40.1370 O   0  0  0  0  0  0  0  0  0  0  0  0
   40.1690   27.3340   41.2020 N   0  0  0  0  0  0  0  0  0  0  0  0
   40.2160   26.3320   41.5050 H   0  0  0  0  0  0  0  0  0  0  0  0
   41.1070   27.6300   40.7960 H   0  0  0  0  0  0  0  0  0  0  0  0
  1 12  1  0  0  0  0
  2  1  2  0  0  0  0
  3  2  1  0  0  0  0
  4  3  2  0  0  0  0
  4  5  1  0  0  0  0
  5 14  1  0  0  0  0
  5  6  2  0  0  0  0
  6  1  1  0  0  0  0
  7  3  1  0  0  0  0
  8 16  1  0  0  0  0
  8  7  1  0  0  0  0
  8 15  1  0  0  0  0
  9  8  1  0  0  0  0
 10  9  1  0  0  0  0
 10 11  1  0  0  0  0
 11 21  1  6  0  0  0
 11 25  1  0  0  0  0
 11  7  1  0  0  0  0
 13  2  1  0  0  0  0
 17  9  1  0  0  0  0
 18  9  1  0  0  0  0
 19 10  1  0  0  0  0
 20 10  1  0  0  0  0
 21 22  1  0  0  0  0
 21 23  1  0  0  0  0
 24 21  1  0  0  0  0
 25 26  1  1  0  0  0
 25 27  1  0  0  0  0
 27 33  1  0  0  0  0
 28 27  2  0  0  0  0
 28 29  1  0  0  0  0
 29 31  2  0  0  0  0
 30 29  1  0  0  0  0
 31 32  1  0  0  0  0
 33 32  2  0  0  0  0
 34 25  1  0  0  0  0
 35 34  1  0  0  0  0
 36 35  2  0  0  0  0
 37 35  1  0  0  0  0
 37 38  1  0  0  0  0
 39 37  1  0  0  0  0
M  END
>  <minimizedAffinity>
-3.60916281

>  <minimizedRMSD>
3.34402657

$$$$
