
     RDKit          3D

 45 47  0  0  0  0  0  0  0  0999 V2000
   37.6036   30.4594   48.5162 Cl  0  0  0  0  0  0  0  0  0  0  0  0
   36.4476   30.3193   47.1926 C   0  0  0  0  0  0  0  0  0  0  0  0
   36.8193   30.7015   45.9512 C   0  0  0  0  0  0  0  0  0  0  0  0
   35.9266   30.5979   44.9048 C   0  0  0  0  0  0  0  0  0  0  0  0
   34.6529   30.0979   45.1557 C   0  0  0  0  0  0  0  0  0  0  0  0
   34.3427   29.7215   46.4767 C   0  0  0  0  0  0  0  0  0  0  0  0
   35.2027   29.8169   47.5053 C   0  0  0  0  0  0  0  0  0  0  0  0
   39.8274   32.8317   45.9937 C   0  0  0  0  0  0  0  0  0  0  0  0
   40.6850   32.0923   45.1052 C   0  0  0  0  0  0  0  0  0  0  0  0
   40.1940   30.9125   44.5422 C   0  0  0  0  0  0  0  0  0  0  0  0
   38.9328   30.5108   44.8532 N   0  0  0  0  0  0  0  0  0  0  0  0
   38.1495   31.2264   45.6916 C   0  0  0  0  0  0  0  0  0  0  0  0
   38.5983   32.3650   46.2466 N   0  0  0  0  0  0  0  0  0  0  0  0
   41.0604   30.2246   43.6842 N   0  0  0  0  0  0  0  0  0  0  0  0
   34.8327   29.4200   48.8315 C   0  0  0  0  0  0  0  0  0  0  0  0
   34.1774   28.1275   49.0559 C   0  0  0  0  0  0  0  0  0  0  0  0
   32.8589   28.2871   49.3982 O   0  0  0  0  0  0  0  0  0  0  0  0
   32.6649   26.6954   47.3203 O   0  0  0  0  0  0  0  0  0  0  0  0
   31.8714   27.5203   48.3012 P   0  0  2  0  0  0  0  0  0  0  0  0
   31.0326   28.7703   47.4419 O   0  0  0  0  0  0  0  0  0  0  0  0
   30.6975   26.5886   49.0009 O   0  0  0  0  0  0  0  0  0  0  0  0
   29.8452   27.3557   49.7590 C   0  0  0  0  0  0  0  0  0  0  0  0
   29.3136   26.6504   50.8375 F   0  0  0  0  0  0  0  0  0  0  0  0
   30.4962   28.4502   50.3105 F   0  0  0  0  0  0  0  0  0  0  0  0
   28.7897   27.8108   48.9770 F   0  0  0  0  0  0  0  0  0  0  0  0
   36.2530   30.9146   43.9077 H   0  0  0  0  0  0  0  0  0  0  0  0
   34.0395   30.0579   44.2825 H   0  0  0  0  0  0  0  0  0  0  0  0
   33.3709   29.3865   46.4566 H   0  0  0  0  0  0  0  0  0  0  0  0
   40.1613   33.7369   46.4454 H   0  0  0  0  0  0  0  0  0  0  0  0
   41.6697   32.4953   44.9221 H   0  0  0  0  0  0  0  0  0  0  0  0
   42.0068   29.8560   43.8587 H   0  0  0  0  0  0  0  0  0  0  0  0
   40.8163   29.9947   42.6952 H   0  0  0  0  0  0  0  0  0  0  0  0
   35.7365   29.4592   49.4822 H   0  0  0  0  0  0  0  0  0  0  0  0
   34.1816   30.2401   49.2581 H   0  0  0  0  0  0  0  0  0  0  0  0
   34.6683   27.5056   49.8371 H   0  0  0  0  0  0  0  0  0  0  0  0
   34.2567   27.5089   48.1146 H   0  0  0  0  0  0  0  0  0  0  0  0
   30.3518   28.5193   46.2636 C   0  0  0  0  0  0  0  0  0  0  0  0
   29.2910   27.6524   46.0547 C   0  0  0  0  0  0  0  0  0  0  0  0
   28.7271   27.5243   44.8060 C   0  0  0  0  0  0  0  0  0  0  0  0
   27.8992   26.8379   44.6772 H   0  0  0  0  0  0  0  0  0  0  0  0
   29.2319   28.2651   43.7833 N   0  0  0  0  0  0  0  0  0  0  0  0
   30.2619   29.1051   43.9924 C   0  0  0  0  0  0  0  0  0  0  0  0
   30.8361   29.2480   45.2214 N   0  0  0  0  0  0  0  0  0  0  0  0
   28.9775   27.1243   46.9226 H   0  0  0  0  0  0  0  0  0  0  0  0
   30.6653   29.7013   43.1606 H   0  0  0  0  0  0  0  0  0  0  0  0
  2  7  2  0
  2  1  1  0
  3  2  1  0
  4  5  1  0
  4  3  2  0
  5  6  2  0
  6  7  1  0
  7 15  1  0
  8 13  2  0
  9  8  1  0
 10 11  1  0
 10  9  2  0
 11 12  2  0
 12  3  1  0
 12 13  1  0
 14 10  1  0
 15 16  1  0
 16 17  1  0
 19 18  2  0
 19 21  1  1
 19 17  1  0
 20 19  1  0
 21 22  1  0
 22 24  1  0
 22 23  1  0
 25 22  1  0
  4 26  1  0
  5 27  1  0
  6 28  1  0
  8 29  1  0
  9 30  1  0
 14 31  1  0
 14 32  1  0
 15 33  1  0
 15 34  1  0
 16 35  1  0
 16 36  1  0
 37 38  2  0
 38 39  1  0
 39 40  1  0
 39 41  2  0
 41 42  1  0
 42 43  2  0
 43 37  1  0
 38 44  1  0
 42 45  1  0
 20 37  1  0
M  ISO  8  26  14  27  14  28  14  29  14  30  14  33   8  34   8  35   8
M  ISO  2  36   8  40  14
M  END
>  <DihAtoms>  (1) 
18,19,36,37

>  <DihDeg>  (1) 
-0.0014139025965753753

$$$$
