
 OpenBabel03272510013D

 19 20  0  0  0  0  0  0  0  0999 V2000
   38.2760   31.2430   50.3710 C   0  0  0  0  0  0  0  0  0  0  0  0
   38.5160   31.4010   48.9950 C   0  0  0  0  0  0  0  0  0  0  0  0
   37.5870   30.8460   48.1270 C   0  0  0  0  0  0  0  0  0  0  0  0
   36.5120   30.1880   48.6240 N   0  0  0  0  0  0  0  0  0  0  0  0
   36.3200   30.0580   49.9570 C   0  0  0  0  0  0  0  0  0  0  0  0
   37.1950   30.5820   50.8220 N   0  0  0  0  0  0  0  0  0  0  0  0
   38.9770   31.6620   51.0830 H   0  0  0  0  0  0  0  0  0  0  0  0
   39.3910   31.9370   48.6520 H   0  0  0  0  0  0  0  0  0  0  0  0
   37.7750   30.9730   46.6860 C   0  0  0  0  0  0  0  0  0  0  0  0
   38.9900   31.3930   46.1860 C   0  0  0  0  0  3  0  0  0  0  0  0
   39.0970   31.4910   44.8140 C   0  0  0  0  0  0  0  0  0  0  0  0
   40.0310   31.8150   44.4000 H   0  0  0  0  0  0  0  0  0  0  0  0
   38.0410   31.1820   44.0460 N   0  0  0  0  0  0  0  0  0  0  0  0
   36.8590   30.7740   44.5160 C   0  0  0  0  0  3  0  0  0  0  0  0
   36.7540   30.6770   45.8660 N   0  0  0  0  0  0  0  0  0  0  0  0
   35.1160   29.3220   50.4150 C   0  0  0  0  0  0  0  0  0  0  0  0
   35.1430   29.0550   51.7780 F   0  0  0  0  0  0  0  0  0  0  0  0
   33.9640   30.0530   50.1780 F   0  0  0  0  0  0  0  0  0  0  0  0
   34.9370   28.1240   49.7650 F   0  0  0  0  0  0  0  0  0  0  0  0
  1  6  1  0  0  0  0
  1  7  1  0  0  0  0
  2  1  2  0  0  0  0
  3  4  2  0  0  0  0
  3  2  1  0  0  0  0
  4  5  1  0  0  0  0
  5 16  1  0  0  0  0
  5  6  2  0  0  0  0
  8  2  1  0  0  0  0
  9  3  1  0  0  0  0
 10  9  1  0  0  0  0
 11 10  2  0  0  0  0
 12 11  1  0  0  0  0
 13 14  2  0  0  0  0
 13 11  1  0  0  0  0
 14 15  1  0  0  0  0
 15  9  2  0  0  0  0
 16 17  1  0  0  0  0
 18 16  1  0  0  0  0
 19 16  1  0  0  0  0
M  END
>  <minimizedAffinity>
-5.14127064

>  <minimizedRMSD>
0.785703421

$$$$
