
 OpenBabel03272505353D

 33 35  0  0  1  0  0  0  0  0999 V2000
   39.0320   23.1330   37.4090 C   0  0  0  0  0  0  0  0  0  0  0  0
   40.2520   22.4440   37.5250 C   0  0  0  0  0  0  0  0  0  0  0  0
   40.8710   22.0050   36.3470 C   0  0  0  0  0  0  0  0  0  0  0  0
   40.2460   22.2750   35.1580 N   0  0  0  0  0  0  0  0  0  0  0  0
   39.0730   22.9400   35.0920 C   0  0  0  0  0  0  0  0  0  0  0  0
   38.4760   23.3620   36.2080 N   0  0  0  0  0  0  0  0  0  0  0  0
   38.5190   23.1620   33.8040 N   0  0  0  0  0  0  0  0  0  0  0  0
   37.6240   22.1730   33.2400 C   0  0  0  0  0  0  0  0  0  0  0  0
   37.9620   21.9120   31.7850 C   0  0  0  0  0  0  0  0  0  0  0  0
   38.0970   23.1250   31.0360 N   0  0  0  0  0  0  0  0  0  0  0  0
   37.9330   24.3210   31.7990 C   0  0  0  0  0  0  0  0  0  0  0  0
   38.8280   24.3630   33.0340 C   0  0  1  0  0  0  0  0  0  0  0  0
   40.7300   22.2390   38.4660 H   0  0  0  0  0  0  0  0  0  0  0  0
   41.8050   21.4710   36.3440 H   0  0  0  0  0  0  0  0  0  0  0  0
   36.5680   22.5080   33.2700 H   0  0  0  0  0  0  0  0  0  0  0  0
   37.6840   21.2170   33.7840 H   0  0  0  0  0  0  0  0  0  0  0  0
   37.2620   21.1810   31.3810 H   0  0  0  0  0  0  0  0  0  0  0  0
   38.9770   21.4300   31.8010 H   0  0  0  0  0  0  0  0  0  0  0  0
   37.3540   23.1250   30.3090 H   0  0  0  0  0  0  0  0  0  0  0  0
   36.8810   24.4980   32.1510 H   0  0  0  0  0  0  0  0  0  0  0  0
   38.1920   25.1750   31.1600 H   0  0  0  0  0  0  0  0  0  0  0  0
   39.8860   24.3570   32.7550 H   0  0  0  0  0  0  0  0  0  0  0  0
   38.4500   25.5680   33.8060 C   0  0  0  0  0  0  0  0  0  0  0  0
   39.3260   26.2750   34.6330 C   0  0  0  0  0  3  0  0  0  0  0  0
   38.9550   27.3910   35.3420 C   0  0  0  0  0  0  0  0  0  0  0  0
   39.7040   27.8880   35.9680 H   0  0  0  0  0  0  0  0  0  0  0  0
   37.6870   27.8290   35.2410 N   0  0  0  0  0  0  0  0  0  0  0  0
   36.8200   27.1480   34.4380 C   0  0  0  0  0  3  0  0  0  0  0  0
   37.2070   26.0550   33.7500 N   0  0  0  0  0  0  0  0  0  0  0  0
   38.3700   23.6010   38.6570 C   0  0  0  0  0  0  0  0  0  0  0  0
   37.8400   24.8820   38.4540 F   0  0  0  0  0  0  0  0  0  0  0  0
   37.4460   22.6680   39.0220 F   0  0  0  0  0  0  0  0  0  0  0  0
   39.3680   23.7390   39.6240 F   0  0  0  0  0  0  0  0  0  0  0  0
  1  2  1  0  0  0  0
  1 30  1  0  0  0  0
  2 13  1  0  0  0  0
  3  2  2  0  0  0  0
  4  3  1  0  0  0  0
  5  4  2  0  0  0  0
  5  6  1  0  0  0  0
  6  1  2  0  0  0  0
  7  5  1  0  0  0  0
  8 15  1  0  0  0  0
  8 16  1  0  0  0  0
  8  7  1  0  0  0  0
  9 18  1  0  0  0  0
  9  8  1  0  0  0  0
 10  9  1  0  0  0  0
 10 11  1  0  0  0  0
 11 20  1  0  0  0  0
 11 12  1  0  0  0  0
 12 22  1  6  0  0  0
 12  7  1  0  0  0  0
 12 23  1  0  0  0  0
 14  3  1  0  0  0  0
 17  9  1  0  0  0  0
 19 10  1  0  0  0  0
 21 11  1  0  0  0  0
 23 24  1  0  0  0  0
 24 25  2  0  0  0  0
 25 26  1  0  0  0  0
 27 25  1  0  0  0  0
 28 27  2  0  0  0  0
 29 23  2  0  0  0  0
 29 28  1  0  0  0  0
 30 32  1  0  0  0  0
 30 33  1  0  0  0  0
 31 30  1  0  0  0  0
M  END
>  <minimizedAffinity>
-5.84392023

$$$$

 OpenBabel03272505353D

 33 35  0  0  1  0  0  0  0  0999 V2000
   37.2200   26.1740   33.5690 C   0  0  0  0  0  0  0  0  0  0  0  0
   37.3420   27.4750   34.0860 C   0  0  0  0  0  0  0  0  0  0  0  0
   37.9170   27.6250   35.3550 C   0  0  0  0  0  0  0  0  0  0  0  0
   38.3220   26.4930   36.0100 N   0  0  0  0  0  0  0  0  0  0  0  0
   38.1840   25.2600   35.4770 C   0  0  0  0  0  0  0  0  0  0  0  0
   37.6380   25.1080   34.2690 N   0  0  0  0  0  0  0  0  0  0  0  0
   38.6400   24.1590   36.2490 N   0  0  0  0  0  0  0  0  0  0  0  0
   37.7250   23.5140   37.1680 C   0  0  0  0  0  0  0  0  0  0  0  0
   38.4010   23.2470   38.4990 C   0  0  0  0  0  0  0  0  0  0  0  0
   39.6730   22.6090   38.3390 N   0  0  0  0  0  0  0  0  0  0  0  0
   40.0680   22.3910   36.9850 C   0  0  0  0  0  0  0  0  0  0  0  0
   40.0070   23.6590   36.1390 C   0  0  1  0  0  0  0  0  0  0  0  0
   37.0200   28.3560   33.5590 H   0  0  0  0  0  0  0  0  0  0  0  0
   38.0500   28.5840   35.8260 H   0  0  0  0  0  0  0  0  0  0  0  0
   37.3750   22.5360   36.7830 H   0  0  0  0  0  0  0  0  0  0  0  0
   36.8340   24.1360   37.3530 H   0  0  0  0  0  0  0  0  0  0  0  0
   37.6980   22.7450   39.1620 H   0  0  0  0  0  0  0  0  0  0  0  0
   38.6050   24.2630   38.9340 H   0  0  0  0  0  0  0  0  0  0  0  0
   39.6100   21.6750   38.7910 H   0  0  0  0  0  0  0  0  0  0  0  0
   39.4600   21.6120   36.4500 H   0  0  0  0  0  0  0  0  0  0  0  0
   41.1030   22.0280   36.9830 H   0  0  0  0  0  0  0  0  0  0  0  0
   40.7040   24.4160   36.5110 H   0  0  0  0  0  0  0  0  0  0  0  0
   40.2880   23.2650   34.7390 C   0  0  0  0  0  0  0  0  0  0  0  0
   41.1480   23.9610   33.8880 C   0  0  0  0  0  3  0  0  0  0  0  0
   41.3950   23.5780   32.5920 C   0  0  0  0  0  0  0  0  0  0  0  0
   42.0840   24.1800   31.9890 H   0  0  0  0  0  0  0  0  0  0  0  0
   40.7800   22.4810   32.1140 N   0  0  0  0  0  0  0  0  0  0  0  0
   39.9370   21.7920   32.9340 C   0  0  0  0  0  3  0  0  0  0  0  0
   39.7100   22.1860   34.2030 N   0  0  0  0  0  0  0  0  0  0  0  0
   36.6100   26.0100   32.2220 C   0  0  0  0  0  0  0  0  0  0  0  0
   35.9840   24.7590   32.1400 F   0  0  0  0  0  0  0  0  0  0  0  0
   35.7750   27.0650   32.0040 F   0  0  0  0  0  0  0  0  0  0  0  0
   37.6560   25.9860   31.2980 F   0  0  0  0  0  0  0  0  0  0  0  0
  1  2  2  0  0  0  0
  1  6  1  0  0  0  0
  2  3  1  0  0  0  0
  3 14  1  0  0  0  0
  3  4  2  0  0  0  0
  5  4  1  0  0  0  0
  5  7  1  0  0  0  0
  6  5  2  0  0  0  0
  7  8  1  0  0  0  0
  8 16  1  0  0  0  0
  8  9  1  0  0  0  0
  9 18  1  0  0  0  0
  9 17  1  0  0  0  0
 10  9  1  0  0  0  0
 10 19  1  0  0  0  0
 11 10  1  0  0  0  0
 12  7  1  0  0  0  0
 12 22  1  1  0  0  0
 12 11  1  0  0  0  0
 13  2  1  0  0  0  0
 15  8  1  0  0  0  0
 20 11  1  0  0  0  0
 21 11  1  0  0  0  0
 23 12  1  0  0  0  0
 24 23  2  0  0  0  0
 25 24  1  0  0  0  0
 26 25  1  0  0  0  0
 27 25  2  0  0  0  0
 27 28  1  0  0  0  0
 28 29  2  0  0  0  0
 29 23  1  0  0  0  0
 30  1  1  0  0  0  0
 31 30  1  0  0  0  0
 32 30  1  0  0  0  0
 33 30  1  0  0  0  0
M  END
>  <minimizedAffinity>
-5.48912907

$$$$

 OpenBabel03272505353D

 33 35  0  0  1  0  0  0  0  0999 V2000
   37.0860   26.5960   32.3420 C   0  0  0  0  0  0  0  0  0  0  0  0
   38.2010   27.4440   32.2280 C   0  0  0  0  0  0  0  0  0  0  0  0
   39.3240   27.1590   33.0160 C   0  0  0  0  0  0  0  0  0  0  0  0
   39.2620   26.0730   33.8480 N   0  0  0  0  0  0  0  0  0  0  0  0
   38.1680   25.2840   33.9270 C   0  0  0  0  0  0  0  0  0  0  0  0
   37.0950   25.5470   33.1800 N   0  0  0  0  0  0  0  0  0  0  0  0
   38.2190   24.1850   34.8250 N   0  0  0  0  0  0  0  0  0  0  0  0
   37.7890   24.3730   36.1950 C   0  0  0  0  0  0  0  0  0  0  0  0
   38.7630   23.7200   37.1570 C   0  0  0  0  0  0  0  0  0  0  0  0
   39.0700   22.3730   36.7820 N   0  0  0  0  0  0  0  0  0  0  0  0
   38.4460   21.9300   35.5770 C   0  0  0  0  0  0  0  0  0  0  0  0
   38.6920   22.8700   34.4010 C   0  0  1  0  0  0  0  0  0  0  0  0
   38.2350   28.2940   31.5700 H   0  0  0  0  0  0  0  0  0  0  0  0
   40.2200   27.7550   32.9910 H   0  0  0  0  0  0  0  0  0  0  0  0
   36.7970   23.9160   36.3830 H   0  0  0  0  0  0  0  0  0  0  0  0
   37.7160   25.4420   36.4520 H   0  0  0  0  0  0  0  0  0  0  0  0
   38.4050   23.8590   38.1760 H   0  0  0  0  0  0  0  0  0  0  0  0
   39.7160   24.3080   37.0530 H   0  0  0  0  0  0  0  0  0  0  0  0
   38.7310   21.7540   37.5450 H   0  0  0  0  0  0  0  0  0  0  0  0
   37.3340   21.7940   35.6610 H   0  0  0  0  0  0  0  0  0  0  0  0
   38.8570   20.9450   35.3190 H   0  0  0  0  0  0  0  0  0  0  0  0
   39.7560   22.9260   34.1560 H   0  0  0  0  0  0  0  0  0  0  0  0
   37.8710   22.3810   33.2710 C   0  0  0  0  0  0  0  0  0  0  0  0
   38.2950   22.3760   31.9400 C   0  0  0  0  0  3  0  0  0  0  0  0
   37.5170   21.9170   30.9050 C   0  0  0  0  0  0  0  0  0  0  0  0
   37.9250   21.9480   29.8890 H   0  0  0  0  0  0  0  0  0  0  0  0
   36.2860   21.4490   31.1800 N   0  0  0  0  0  0  0  0  0  0  0  0
   35.8590   21.4480   32.4740 C   0  0  0  0  0  3  0  0  0  0  0  0
   36.6400   21.9030   33.4740 N   0  0  0  0  0  0  0  0  0  0  0  0
   35.8910   26.8940   31.5070 C   0  0  0  0  0  0  0  0  0  0  0  0
   36.2970   27.4620   30.2920 F   0  0  0  0  0  0  0  0  0  0  0  0
   35.1720   25.7440   31.3710 F   0  0  0  0  0  0  0  0  0  0  0  0
   35.1590   27.8790   32.1740 F   0  0  0  0  0  0  0  0  0  0  0  0
  1  6  1  0  0  0  0
  2  1  2  0  0  0  0
  2  3  1  0  0  0  0
  3  4  2  0  0  0  0
  4  5  1  0  0  0  0
  5  7  1  0  0  0  0
  6  5  2  0  0  0  0
  7  8  1  0  0  0  0
  8 15  1  0  0  0  0
  8 16  1  0  0  0  0
  8  9  1  0  0  0  0
  9 17  1  0  0  0  0
 10  9  1  0  0  0  0
 10 19  1  0  0  0  0
 11 20  1  0  0  0  0
 11 10  1  0  0  0  0
 12 22  1  6  0  0  0
 12  7  1  0  0  0  0
 12 11  1  0  0  0  0
 13  2  1  0  0  0  0
 14  3  1  0  0  0  0
 18  9  1  0  0  0  0
 21 11  1  0  0  0  0
 23 29  1  0  0  0  0
 23 12  1  0  0  0  0
 24 23  2  0  0  0  0
 25 27  2  0  0  0  0
 25 24  1  0  0  0  0
 26 25  1  0  0  0  0
 27 28  1  0  0  0  0
 28 29  2  0  0  0  0
 30 33  1  0  0  0  0
 30  1  1  0  0  0  0
 31 30  1  0  0  0  0
 32 30  1  0  0  0  0
M  END
>  <minimizedAffinity>
-5.10760498

$$$$

 OpenBabel03272505353D

 33 35  0  0  1  0  0  0  0  0999 V2000
   37.2120   21.5780   33.0830 C   0  0  0  0  0  0  0  0  0  0  0  0
   37.9720   20.8840   32.1260 C   0  0  0  0  0  0  0  0  0  0  0  0
   39.0920   21.5290   31.5840 C   0  0  0  0  0  0  0  0  0  0  0  0
   39.3730   22.7960   32.0220 N   0  0  0  0  0  0  0  0  0  0  0  0
   38.6150   23.4280   32.9440 C   0  0  0  0  0  0  0  0  0  0  0  0
   37.5470   22.8210   33.4660 N   0  0  0  0  0  0  0  0  0  0  0  0
   39.0030   24.7400   33.3220 N   0  0  0  0  0  0  0  0  0  0  0  0
   38.4810   25.8710   32.5830 C   0  0  0  0  0  0  0  0  0  0  0  0
   39.5810   26.8730   32.2880 C   0  0  0  0  0  0  0  0  0  0  0  0
   40.3460   27.1940   33.4540 N   0  0  0  0  0  0  0  0  0  0  0  0
   39.9610   26.4900   34.6360 C   0  0  0  0  0  0  0  0  0  0  0  0
   39.9160   24.9780   34.4370 C   0  0  1  0  0  0  0  0  0  0  0  0
   37.7390   19.8890   31.7920 H   0  0  0  0  0  0  0  0  0  0  0  0
   39.7290   21.0710   30.8470 H   0  0  0  0  0  0  0  0  0  0  0  0
   37.6990   26.4110   33.1550 H   0  0  0  0  0  0  0  0  0  0  0  0
   38.0350   25.5570   31.6260 H   0  0  0  0  0  0  0  0  0  0  0  0
   39.1560   27.7200   31.7510 H   0  0  0  0  0  0  0  0  0  0  0  0
   40.2770   26.3440   31.5820 H   0  0  0  0  0  0  0  0  0  0  0  0
   40.2100   28.2060   33.6460 H   0  0  0  0  0  0  0  0  0  0  0  0
   38.9600   26.7970   35.0450 H   0  0  0  0  0  0  0  0  0  0  0  0
   40.6950   26.7100   35.4220 H   0  0  0  0  0  0  0  0  0  0  0  0
   40.9050   24.5830   34.1910 H   0  0  0  0  0  0  0  0  0  0  0  0
   39.3590   24.3910   35.6770 C   0  0  0  0  0  0  0  0  0  0  0  0
   38.1840   24.8290   36.2920 C   0  0  0  0  0  3  0  0  0  0  0  0
   37.6840   24.2710   37.4430 C   0  0  0  0  0  0  0  0  0  0  0  0
   36.7550   24.6740   37.8610 H   0  0  0  0  0  0  0  0  0  0  0  0
   38.3550   23.2520   38.0110 N   0  0  0  0  0  0  0  0  0  0  0  0
   39.5030   22.8140   37.4220 C   0  0  0  0  0  3  0  0  0  0  0  0
   39.9750   23.3770   36.2910 N   0  0  0  0  0  0  0  0  0  0  0  0
   36.0220   20.8980   33.6610 C   0  0  0  0  0  0  0  0  0  0  0  0
   36.0170   19.5520   33.2710 F   0  0  0  0  0  0  0  0  0  0  0  0
   36.0410   21.0860   35.0110 F   0  0  0  0  0  0  0  0  0  0  0  0
   34.8940   21.4790   33.0790 F   0  0  0  0  0  0  0  0  0  0  0  0
  1  6  1  0  0  0  0
  1 30  1  0  0  0  0
  2  1  2  0  0  0  0
  3  4  2  0  0  0  0
  3  2  1  0  0  0  0
  4  5  1  0  0  0  0
  5  7  1  0  0  0  0
  5  6  2  0  0  0  0
  7 12  1  0  0  0  0
  8 15  1  0  0  0  0
  8  7  1  0  0  0  0
  9  8  1  0  0  0  0
  9 10  1  0  0  0  0
 10 19  1  0  0  0  0
 10 11  1  0  0  0  0
 11 20  1  0  0  0  0
 11 21  1  0  0  0  0
 12 22  1  6  0  0  0
 12 11  1  0  0  0  0
 12 23  1  0  0  0  0
 13  2  1  0  0  0  0
 14  3  1  0  0  0  0
 16  8  1  0  0  0  0
 17  9  1  0  0  0  0
 18  9  1  0  0  0  0
 23 29  2  0  0  0  0
 23 24  1  0  0  0  0
 24 25  2  0  0  0  0
 25 26  1  0  0  0  0
 25 27  1  0  0  0  0
 28 27  2  0  0  0  0
 29 28  1  0  0  0  0
 30 32  1  0  0  0  0
 31 30  1  0  0  0  0
 33 30  1  0  0  0  0
M  END
>  <minimizedAffinity>
-5.10563469

$$$$

 OpenBabel03272505353D

 33 35  0  0  1  0  0  0  0  0999 V2000
   38.1900   24.0630   35.6700 C   0  0  0  0  0  0  0  0  0  0  0  0
   37.7030   25.3200   36.0680 C   0  0  0  0  0  0  0  0  0  0  0  0
   37.5410   26.3010   35.0810 C   0  0  0  0  0  0  0  0  0  0  0  0
   37.8680   25.9720   33.7920 N   0  0  0  0  0  0  0  0  0  0  0  0
   38.3340   24.7500   33.4540 C   0  0  0  0  0  0  0  0  0  0  0  0
   38.4910   23.8090   34.3860 N   0  0  0  0  0  0  0  0  0  0  0  0
   38.6400   24.5230   32.0860 N   0  0  0  0  0  0  0  0  0  0  0  0
   39.9740   24.8140   31.6040 C   0  0  0  0  0  0  0  0  0  0  0  0
   39.9170   25.5470   30.2780 C   0  0  0  0  0  0  0  0  0  0  0  0
   39.0450   24.9030   29.3420 N   0  0  0  0  0  0  0  0  0  0  0  0
   38.3800   23.7440   29.8430 C   0  0  0  0  0  0  0  0  0  0  0  0
   37.6430   24.0040   31.1540 C   0  0  1  0  0  0  0  0  0  0  0  0
   37.4500   25.5640   37.0840 H   0  0  0  0  0  0  0  0  0  0  0  0
   37.1740   27.2900   35.2970 H   0  0  0  0  0  0  0  0  0  0  0  0
   40.5610   23.8890   31.4350 H   0  0  0  0  0  0  0  0  0  0  0  0
   40.5350   25.4370   32.3180 H   0  0  0  0  0  0  0  0  0  0  0  0
   40.9320   25.7340   29.9290 H   0  0  0  0  0  0  0  0  0  0  0  0
   39.4550   26.5440   30.5140 H   0  0  0  0  0  0  0  0  0  0  0  0
   39.6270   24.5950   28.5370 H   0  0  0  0  0  0  0  0  0  0  0  0
   39.0590   22.8660   30.0180 H   0  0  0  0  0  0  0  0  0  0  0  0
   37.6440   23.4200   29.0960 H   0  0  0  0  0  0  0  0  0  0  0  0
   36.8480   24.7420   31.0200 H   0  0  0  0  0  0  0  0  0  0  0  0
   37.1350   22.6990   31.6360 C   0  0  0  0  0  0  0  0  0  0  0  0
   35.8090   22.4640   32.0060 C   0  0  0  0  0  3  0  0  0  0  0  0
   35.3580   21.2450   32.4510 C   0  0  0  0  0  0  0  0  0  0  0  0
   34.3010   21.1440   32.7230 H   0  0  0  0  0  0  0  0  0  0  0  0
   36.2310   20.2250   32.5370 N   0  0  0  0  0  0  0  0  0  0  0  0
   37.5290   20.4400   32.1790 C   0  0  0  0  0  3  0  0  0  0  0  0
   37.9490   21.6450   31.7440 N   0  0  0  0  0  0  0  0  0  0  0  0
   38.3640   23.0170   36.7140 C   0  0  0  0  0  0  0  0  0  0  0  0
   39.2870   23.4580   37.6710 F   0  0  0  0  0  0  0  0  0  0  0  0
   37.1350   22.7180   37.2230 F   0  0  0  0  0  0  0  0  0  0  0  0
   38.9430   21.9090   36.0930 F   0  0  0  0  0  0  0  0  0  0  0  0
  1  2  1  0  0  0  0
  1 30  1  0  0  0  0
  2 13  1  0  0  0  0
  3 14  1  0  0  0  0
  3  2  2  0  0  0  0
  4  3  1  0  0  0  0
  5  4  2  0  0  0  0
  5  6  1  0  0  0  0
  6  1  2  0  0  0  0
  7  5  1  0  0  0  0
  8  7  1  0  0  0  0
  8 16  1  0  0  0  0
  9 18  1  0  0  0  0
  9  8  1  0  0  0  0
 10 11  1  0  0  0  0
 10  9  1  0  0  0  0
 11 20  1  0  0  0  0
 11 12  1  0  0  0  0
 12 22  1  6  0  0  0
 12 23  1  0  0  0  0
 12  7  1  0  0  0  0
 15  8  1  0  0  0  0
 17  9  1  0  0  0  0
 19 10  1  0  0  0  0
 21 11  1  0  0  0  0
 23 29  2  0  0  0  0
 23 24  1  0  0  0  0
 24 25  2  0  0  0  0
 25 27  1  0  0  0  0
 25 26  1  0  0  0  0
 28 27  2  0  0  0  0
 29 28  1  0  0  0  0
 30 32  1  0  0  0  0
 30 31  1  0  0  0  0
 33 30  1  0  0  0  0
M  END
>  <minimizedAffinity>
-5.07637358

$$$$

 OpenBabel03272505353D

 33 35  0  0  1  0  0  0  0  0999 V2000
   36.1550   21.0610   33.1570 C   0  0  0  0  0  0  0  0  0  0  0  0
   35.5180   20.6690   34.3460 C   0  0  0  0  0  0  0  0  0  0  0  0
   36.1230   21.0210   35.5600 C   0  0  0  0  0  0  0  0  0  0  0  0
   37.2980   21.7230   35.5090 N   0  0  0  0  0  0  0  0  0  0  0  0
   37.8770   22.0790   34.3420 C   0  0  0  0  0  0  0  0  0  0  0  0
   37.3080   21.7490   33.1810 N   0  0  0  0  0  0  0  0  0  0  0  0
   39.0940   22.8070   34.4120 N   0  0  0  0  0  0  0  0  0  0  0  0
   40.3480   22.0830   34.4450 C   0  0  0  0  0  0  0  0  0  0  0  0
   41.2780   22.6680   35.4910 C   0  0  0  0  0  0  0  0  0  0  0  0
   41.3860   24.0910   35.3810 N   0  0  0  0  0  0  0  0  0  0  0  0
   40.5810   24.6760   34.3560 C   0  0  0  0  0  0  0  0  0  0  0  0
   39.1140   24.2660   34.4500 C   0  0  1  0  0  0  0  0  0  0  0  0
   34.5960   20.1170   34.3720 H   0  0  0  0  0  0  0  0  0  0  0  0
   35.7040   20.7620   36.5170 H   0  0  0  0  0  0  0  0  0  0  0  0
   40.8810   22.1370   33.4750 H   0  0  0  0  0  0  0  0  0  0  0  0
   40.1930   21.0170   34.6790 H   0  0  0  0  0  0  0  0  0  0  0  0
   42.2180   22.1190   35.4800 H   0  0  0  0  0  0  0  0  0  0  0  0
   40.7790   22.4590   36.4760 H   0  0  0  0  0  0  0  0  0  0  0  0
   42.3760   24.3100   35.1520 H   0  0  0  0  0  0  0  0  0  0  0  0
   40.9220   24.4360   33.3140 H   0  0  0  0  0  0  0  0  0  0  0  0
   40.6380   25.7670   34.4550 H   0  0  0  0  0  0  0  0  0  0  0  0
   38.6660   24.6140   35.3850 H   0  0  0  0  0  0  0  0  0  0  0  0
   38.4320   24.8100   33.2530 C   0  0  0  0  0  0  0  0  0  0  0  0
   38.9260   24.6980   31.9520 C   0  0  0  0  0  3  0  0  0  0  0  0
   38.2780   25.2100   30.8550 C   0  0  0  0  0  0  0  0  0  0  0  0
   38.7340   25.0790   29.8680 H   0  0  0  0  0  0  0  0  0  0  0  0
   37.1090   25.8520   31.0360 N   0  0  0  0  0  0  0  0  0  0  0  0
   36.6150   25.9690   32.3010 C   0  0  0  0  0  3  0  0  0  0  0  0
   37.2690   25.4580   33.3640 N   0  0  0  0  0  0  0  0  0  0  0  0
   35.5170   20.6900   31.8650 C   0  0  0  0  0  0  0  0  0  0  0  0
   36.3170   19.7520   31.1990 F   0  0  0  0  0  0  0  0  0  0  0  0
   34.2520   20.2550   32.1270 F   0  0  0  0  0  0  0  0  0  0  0  0
   35.5100   21.8350   31.0670 F   0  0  0  0  0  0  0  0  0  0  0  0
  1  6  2  0  0  0  0
  1  2  1  0  0  0  0
  2 13  1  0  0  0  0
  2  3  2  0  0  0  0
  3 14  1  0  0  0  0
  4  3  1  0  0  0  0
  5  7  1  0  0  0  0
  5  4  2  0  0  0  0
  6  5  1  0  0  0  0
  7  8  1  0  0  0  0
  7 12  1  0  0  0  0
  8 16  1  0  0  0  0
  8  9  1  0  0  0  0
  9 18  1  0  0  0  0
 10  9  1  0  0  0  0
 11 12  1  0  0  0  0
 11 21  1  0  0  0  0
 11 10  1  0  0  0  0
 12 22  1  1  0  0  0
 15  8  1  0  0  0  0
 17  9  1  0  0  0  0
 19 10  1  0  0  0  0
 20 11  1  0  0  0  0
 23 29  1  0  0  0  0
 23 12  1  0  0  0  0
 24 23  2  0  0  0  0
 25 27  2  0  0  0  0
 25 24  1  0  0  0  0
 26 25  1  0  0  0  0
 27 28  1  0  0  0  0
 28 29  2  0  0  0  0
 30 32  1  0  0  0  0
 30  1  1  0  0  0  0
 31 30  1  0  0  0  0
 33 30  1  0  0  0  0
M  END
>  <minimizedAffinity>
-5.01291895

$$$$

 OpenBabel03272505353D

 33 35  0  0  1  0  0  0  0  0999 V2000
   38.0810   23.3450   36.0500 C   0  0  0  0  0  0  0  0  0  0  0  0
   37.6310   22.0420   35.7790 C   0  0  0  0  0  0  0  0  0  0  0  0
   37.2930   21.7270   34.4560 C   0  0  0  0  0  0  0  0  0  0  0  0
   37.4240   22.7110   33.5120 N   0  0  0  0  0  0  0  0  0  0  0  0
   37.8600   23.9520   33.8170 C   0  0  0  0  0  0  0  0  0  0  0  0
   38.1840   24.2610   35.0730 N   0  0  0  0  0  0  0  0  0  0  0  0
   37.9550   24.8900   32.7550 N   0  0  0  0  0  0  0  0  0  0  0  0
   36.8080   25.7160   32.4390 C   0  0  0  0  0  0  0  0  0  0  0  0
   36.5890   25.7790   30.9400 C   0  0  0  0  0  0  0  0  0  0  0  0
   37.7940   26.0910   30.2310 N   0  0  0  0  0  0  0  0  0  0  0  0
   38.9520   26.2380   31.0530 C   0  0  0  0  0  0  0  0  0  0  0  0
   39.1790   25.0430   31.9740 C   0  0  1  0  0  0  0  0  0  0  0  0
   37.5340   21.2790   36.5310 H   0  0  0  0  0  0  0  0  0  0  0  0
   36.9400   20.7540   34.1610 H   0  0  0  0  0  0  0  0  0  0  0  0
   36.9440   26.7600   32.7880 H   0  0  0  0  0  0  0  0  0  0  0  0
   35.8890   25.3270   32.9060 H   0  0  0  0  0  0  0  0  0  0  0  0
   35.7350   26.4230   30.7310 H   0  0  0  0  0  0  0  0  0  0  0  0
   36.3030   24.7340   30.6410 H   0  0  0  0  0  0  0  0  0  0  0  0
   37.6440   27.0020   29.7520 H   0  0  0  0  0  0  0  0  0  0  0  0
   38.9390   27.1540   31.7030 H   0  0  0  0  0  0  0  0  0  0  0  0
   39.8270   26.3370   30.3990 H   0  0  0  0  0  0  0  0  0  0  0  0
   39.3620   24.1300   31.3990 H   0  0  0  0  0  0  0  0  0  0  0  0
   40.3070   25.3890   32.8690 C   0  0  0  0  0  0  0  0  0  0  0  0
   40.4810   26.6420   33.4590 C   0  0  0  0  0  3  0  0  0  0  0  0
   41.5350   26.9440   34.2870 C   0  0  0  0  0  0  0  0  0  0  0  0
   41.5980   27.9530   34.7090 H   0  0  0  0  0  0  0  0  0  0  0  0
   42.4470   25.9890   34.5450 N   0  0  0  0  0  0  0  0  0  0  0  0
   42.2900   24.7610   33.9750 C   0  0  0  0  0  3  0  0  0  0  0  0
   41.2470   24.4880   33.1660 N   0  0  0  0  0  0  0  0  0  0  0  0
   38.4410   23.6850   37.4530 C   0  0  0  0  0  0  0  0  0  0  0  0
   39.7370   23.2290   37.7280 F   0  0  0  0  0  0  0  0  0  0  0  0
   38.2770   25.0270   37.6190 F   0  0  0  0  0  0  0  0  0  0  0  0
   37.5860   22.9580   38.2840 F   0  0  0  0  0  0  0  0  0  0  0  0
  1 30  1  0  0  0  0
  2  1  1  0  0  0  0
  2 13  1  0  0  0  0
  3  2  2  0  0  0  0
  4  5  2  0  0  0  0
  4  3  1  0  0  0  0
  5  6  1  0  0  0  0
  6  1  2  0  0  0  0
  7  5  1  0  0  0  0
  8  7  1  0  0  0  0
  8 15  1  0  0  0  0
  8 16  1  0  0  0  0
  9  8  1  0  0  0  0
 10  9  1  0  0  0  0
 10 11  1  0  0  0  0
 11 20  1  0  0  0  0
 11 12  1  0  0  0  0
 12 22  1  6  0  0  0
 12  7  1  0  0  0  0
 12 23  1  0  0  0  0
 14  3  1  0  0  0  0
 17  9  1  0  0  0  0
 18  9  1  0  0  0  0
 19 10  1  0  0  0  0
 21 11  1  0  0  0  0
 23 29  2  0  0  0  0
 23 24  1  0  0  0  0
 24 25  2  0  0  0  0
 25 27  1  0  0  0  0
 25 26  1  0  0  0  0
 28 27  2  0  0  0  0
 29 28  1  0  0  0  0
 30 32  1  0  0  0  0
 30 31  1  0  0  0  0
 30 33  1  0  0  0  0
M  END
>  <minimizedAffinity>
-4.98558521

$$$$

 OpenBabel03272505353D

 33 35  0  0  1  0  0  0  0  0999 V2000
   37.2590   22.8770   32.6420 C   0  0  0  0  0  0  0  0  0  0  0  0
   37.0600   21.9440   33.6750 C   0  0  0  0  0  0  0  0  0  0  0  0
   37.9060   22.0100   34.7890 C   0  0  0  0  0  0  0  0  0  0  0  0
   38.8740   22.9790   34.8000 N   0  0  0  0  0  0  0  0  0  0  0  0
   39.0320   23.8550   33.7850 C   0  0  0  0  0  0  0  0  0  0  0  0
   38.2310   23.8010   32.7200 N   0  0  0  0  0  0  0  0  0  0  0  0
   40.0700   24.8160   33.9070 N   0  0  0  0  0  0  0  0  0  0  0  0
   41.3920   24.4940   33.4110 C   0  0  0  0  0  0  0  0  0  0  0  0
   42.4560   24.9160   34.4060 C   0  0  0  0  0  0  0  0  0  0  0  0
   42.2720   26.2630   34.8540 N   0  0  0  0  0  0  0  0  0  0  0  0
   41.1220   26.9200   34.3200 C   0  0  0  0  0  0  0  0  0  0  0  0
   39.8380   26.1220   34.5190 C   0  0  1  0  0  0  0  0  0  0  0  0
   36.2950   21.1890   33.6520 H   0  0  0  0  0  0  0  0  0  0  0  0
   37.8240   21.3360   35.6240 H   0  0  0  0  0  0  0  0  0  0  0  0
   41.6150   25.0200   32.4610 H   0  0  0  0  0  0  0  0  0  0  0  0
   41.5020   23.4140   33.2260 H   0  0  0  0  0  0  0  0  0  0  0  0
   43.4380   24.6810   33.9990 H   0  0  0  0  0  0  0  0  0  0  0  0
   42.2970   24.2550   35.3010 H   0  0  0  0  0  0  0  0  0  0  0  0
   43.1030   26.8070   34.5480 H   0  0  0  0  0  0  0  0  0  0  0  0
   41.1970   27.1540   33.2240 H   0  0  0  0  0  0  0  0  0  0  0  0
   41.0080   27.8840   34.8330 H   0  0  0  0  0  0  0  0  0  0  0  0
   39.6130   25.9930   35.5810 H   0  0  0  0  0  0  0  0  0  0  0  0
   38.7630   26.8350   33.7920 C   0  0  0  0  0  0  0  0  0  0  0  0
   37.5430   27.2020   34.3620 C   0  0  0  0  0  3  0  0  0  0  0  0
   36.5580   27.8640   33.6690 C   0  0  0  0  0  0  0  0  0  0  0  0
   35.6280   28.1160   34.1910 H   0  0  0  0  0  0  0  0  0  0  0  0
   36.7740   28.1750   32.3780 N   0  0  0  0  0  0  0  0  0  0  0  0
   37.9610   27.8220   31.8080 C   0  0  0  0  0  3  0  0  0  0  0  0
   38.9130   27.1730   32.5080 N   0  0  0  0  0  0  0  0  0  0  0  0
   36.3630   22.8110   31.4560 C   0  0  0  0  0  0  0  0  0  0  0  0
   36.4650   21.5470   30.8610 F   0  0  0  0  0  0  0  0  0  0  0  0
   35.1030   23.1360   31.8600 F   0  0  0  0  0  0  0  0  0  0  0  0
   36.8530   23.7250   30.5210 F   0  0  0  0  0  0  0  0  0  0  0  0
  1  6  2  0  0  0  0
  1  2  1  0  0  0  0
  2  3  2  0  0  0  0
  3  4  1  0  0  0  0
  3 14  1  0  0  0  0
  5  7  1  0  0  0  0
  5  4  2  0  0  0  0
  6  5  1  0  0  0  0
  7 12  1  0  0  0  0
  8  7  1  0  0  0  0
  8  9  1  0  0  0  0
  9 10  1  0  0  0  0
  9 18  1  0  0  0  0
 11 12  1  0  0  0  0
 11 21  1  0  0  0  0
 11 10  1  0  0  0  0
 12 22  1  1  0  0  0
 13  2  1  0  0  0  0
 15  8  1  0  0  0  0
 16  8  1  0  0  0  0
 17  9  1  0  0  0  0
 19 10  1  0  0  0  0
 20 11  1  0  0  0  0
 23 24  1  0  0  0  0
 23 12  1  0  0  0  0
 25 26  1  0  0  0  0
 25 24  2  0  0  0  0
 27 25  1  0  0  0  0
 28 27  2  0  0  0  0
 28 29  1  0  0  0  0
 29 23  2  0  0  0  0
 30 32  1  0  0  0  0
 30  1  1  0  0  0  0
 31 30  1  0  0  0  0
 33 30  1  0  0  0  0
M  END
>  <minimizedAffinity>
-4.96075773

$$$$

 OpenBabel03272505353D

 33 35  0  0  1  0  0  0  0  0999 V2000
   40.0400   23.0740   36.8350 C   0  0  0  0  0  0  0  0  0  0  0  0
   39.1770   23.0930   37.9430 C   0  0  0  0  0  0  0  0  0  0  0  0
   37.9860   23.8240   37.8340 C   0  0  0  0  0  0  0  0  0  0  0  0
   37.7420   24.4730   36.6530 N   0  0  0  0  0  0  0  0  0  0  0  0
   38.6000   24.4290   35.6120 C   0  0  0  0  0  0  0  0  0  0  0  0
   39.7360   23.7350   35.7070 N   0  0  0  0  0  0  0  0  0  0  0  0
   38.2410   25.1410   34.4380 N   0  0  0  0  0  0  0  0  0  0  0  0
   38.6450   26.5250   34.3000 C   0  0  0  0  0  0  0  0  0  0  0  0
   37.5000   27.3690   33.7750 C   0  0  0  0  0  0  0  0  0  0  0  0
   36.8840   26.7850   32.6210 N   0  0  0  0  0  0  0  0  0  0  0  0
   37.4290   25.5260   32.2240 C   0  0  0  0  0  0  0  0  0  0  0  0
   37.4740   24.5140   33.3650 C   0  0  1  0  0  0  0  0  0  0  0  0
   39.3820   22.5780   38.8650 H   0  0  0  0  0  0  0  0  0  0  0  0
   37.2690   23.8920   38.6330 H   0  0  0  0  0  0  0  0  0  0  0  0
   39.4840   26.6400   33.5840 H   0  0  0  0  0  0  0  0  0  0  0  0
   38.9720   26.9480   35.2640 H   0  0  0  0  0  0  0  0  0  0  0  0
   37.8380   28.3980   33.6610 H   0  0  0  0  0  0  0  0  0  0  0  0
   36.7290   27.3570   34.5920 H   0  0  0  0  0  0  0  0  0  0  0  0
   37.0260   27.4410   31.8280 H   0  0  0  0  0  0  0  0  0  0  0  0
   38.4680   25.5900   31.8020 H   0  0  0  0  0  0  0  0  0  0  0  0
   36.7970   25.1140   31.4270 H   0  0  0  0  0  0  0  0  0  0  0  0
   36.4680   24.2780   33.7240 H   0  0  0  0  0  0  0  0  0  0  0  0
   38.1940   23.3220   32.8630 C   0  0  0  0  0  0  0  0  0  0  0  0
   37.7500   22.0090   33.0350 C   0  0  0  0  0  3  0  0  0  0  0  0
   38.4330   20.9160   32.5610 C   0  0  0  0  0  0  0  0  0  0  0  0
   38.0160   19.9190   32.7390 H   0  0  0  0  0  0  0  0  0  0  0  0
   39.5880   21.1130   31.8990 N   0  0  0  0  0  0  0  0  0  0  0  0
   40.0340   22.3890   31.7230 C   0  0  0  0  0  3  0  0  0  0  0  0
   39.3460   23.4470   32.1970 N   0  0  0  0  0  0  0  0  0  0  0  0
   41.3060   22.2990   36.9460 C   0  0  0  0  0  0  0  0  0  0  0  0
   42.3920   23.1820   37.0000 F   0  0  0  0  0  0  0  0  0  0  0  0
   41.2040   21.4750   38.0270 F   0  0  0  0  0  0  0  0  0  0  0  0
   41.4490   21.5740   35.7610 F   0  0  0  0  0  0  0  0  0  0  0  0
  1 30  1  0  0  0  0
  1  2  1  0  0  0  0
  2 13  1  0  0  0  0
  3  2  2  0  0  0  0
  3 14  1  0  0  0  0
  4  3  1  0  0  0  0
  5  6  1  0  0  0  0
  5  4  2  0  0  0  0
  6  1  2  0  0  0  0
  7  5  1  0  0  0  0
  8  7  1  0  0  0  0
  8 16  1  0  0  0  0
  9  8  1  0  0  0  0
  9 18  1  0  0  0  0
 10  9  1  0  0  0  0
 11 10  1  0  0  0  0
 11 12  1  0  0  0  0
 12 22  1  1  0  0  0
 12  7  1  0  0  0  0
 15  8  1  0  0  0  0
 17  9  1  0  0  0  0
 19 10  1  0  0  0  0
 20 11  1  0  0  0  0
 21 11  1  0  0  0  0
 23 24  1  0  0  0  0
 23 12  1  0  0  0  0
 25 26  1  0  0  0  0
 25 24  2  0  0  0  0
 27 25  1  0  0  0  0
 28 27  2  0  0  0  0
 28 29  1  0  0  0  0
 29 23  2  0  0  0  0
 30 31  1  0  0  0  0
 30 32  1  0  0  0  0
 33 30  1  0  0  0  0
M  END
>  <minimizedAffinity>
-4.96013546

$$$$
