
 OpenBabel03272509463D

 23 24  0  0  0  0  0  0  0  0999 V2000
   34.1110   28.4780   48.5780 C   0  0  0  0  0  0  0  0  0  0  0  0
   34.6530   29.1680   47.9190 H   0  0  0  0  0  0  0  0  0  0  0  0
   33.1300   28.9420   48.8140 H   0  0  0  0  0  0  0  0  0  0  0  0
   33.8520   27.1340   47.9610 C   0  0  0  0  0  0  0  0  0  0  0  0
   33.3370   26.4930   48.6750 H   0  0  0  0  0  0  0  0  0  0  0  0
   34.8280   26.6630   47.6620 H   0  0  0  0  0  0  0  0  0  0  0  0
   33.0740   27.2290   46.6970 C   0  0  0  0  0  0  0  0  0  0  0  0
   33.0470   26.1060   45.8960 C   0  0  0  0  0  3  0  0  0  0  0  0
   32.3590   26.0770   44.7020 C   0  0  0  0  0  0  0  0  0  0  0  0
   32.2960   25.2310   44.0260 H   0  0  0  0  0  0  0  0  0  0  0  0
   31.6980   27.1680   44.3050 N   0  0  0  0  0  0  0  0  0  0  0  0
   31.7290   28.2680   45.0960 C   0  0  0  0  0  3  0  0  0  0  0  0
   32.3930   28.3180   46.2630 N   0  0  0  0  0  0  0  0  0  0  0  0
   34.7540   28.3210   49.8380 O   0  0  0  0  0  0  0  0  0  0  0  0
   37.3790   30.2580   51.4240 C   0  0  0  0  0  0  0  0  0  0  0  0
   38.0810   30.6840   50.2800 C   0  0  0  0  0  0  0  0  0  0  0  0
   37.6100   30.2820   49.0350 C   0  0  0  0  0  0  0  0  0  0  0  0
   36.4900   29.4940   49.0090 N   0  0  0  0  0  0  0  0  0  0  0  0
   35.8450   29.1040   50.1140 C   0  0  0  0  0  0  0  0  0  0  0  0
   36.2950   29.4900   51.3300 N   0  0  0  0  0  0  0  0  0  0  0  0
   37.6900   30.5350   52.4280 H   0  0  0  0  0  0  0  0  0  0  0  0
   38.9590   31.3090   50.3950 H   0  0  0  0  0  0  0  0  0  0  0  0
   38.1220   30.5890   48.1300 H   0  0  0  0  0  0  0  0  0  0  0  0
  1  3  1  0  0  0  0
  1 14  1  0  0  0  0
  2  1  1  0  0  0  0
  4  1  1  0  0  0  0
  4  5  1  0  0  0  0
  6  4  1  0  0  0  0
  7  4  1  0  0  0  0
  8  7  2  0  0  0  0
  9  8  1  0  0  0  0
 10  9  1  0  0  0  0
 11  9  2  0  0  0  0
 11 12  1  0  0  0  0
 12 13  2  0  0  0  0
 13  7  1  0  0  0  0
 14 19  1  0  0  0  0
 15 21  1  0  0  0  0
 16 22  1  0  0  0  0
 16 15  2  0  0  0  0
 17 16  1  0  0  0  0
 18 17  2  0  0  0  0
 18 19  1  0  0  0  0
 19 20  2  0  0  0  0
 20 15  1  0  0  0  0
 23 17  1  0  0  0  0
M  END
>  <minimizedAffinity>
-3.64997959

>  <minimizedRMSD>
0.348498762

$$$$
