
 OpenBabel03262523193D

 28 30  0  0  1  0  0  0  0  0999 V2000
   39.1420   32.6400   46.6100 C   0  0  0  0  0  0  0  0  0  0  0  0
   40.1630   31.8440   46.0560 C   0  0  0  0  0  0  0  0  0  0  0  0
   39.8280   30.5800   45.5630 C   0  0  0  0  0  0  0  0  0  0  0  0
   38.5320   30.2010   45.6510 N   0  0  0  0  0  0  0  0  0  0  0  0
   37.5730   30.9680   46.1790 C   0  0  0  0  0  0  0  0  0  0  0  0
   37.8620   32.1850   46.6610 N   0  0  0  0  0  0  0  0  0  0  0  0
   36.2200   30.4850   46.2320 N   0  0  0  0  0  0  0  0  0  0  0  0
   35.4920   30.0730   45.0450 C   0  0  0  0  0  0  0  0  0  0  0  0
   34.2600   29.4140   45.5460 C   0  0  0  0  0  0  0  0  0  0  0  0
   34.5060   29.1790   47.0270 C   0  0  0  0  0  0  0  0  0  0  0  0
   35.3960   30.3330   47.3940 C   0  0  1  0  0  0  0  0  0  0  0  0
   39.4740   33.5860   46.9640 H   0  0  0  0  0  0  0  0  0  0  0  0
   41.1930   32.1670   45.9960 H   0  0  0  0  0  0  0  0  0  0  0  0
   40.5660   29.9150   45.1230 H   0  0  0  0  0  0  0  0  0  0  0  0
   35.3280   30.9350   44.3620 H   0  0  0  0  0  0  0  0  0  0  0  0
   36.1560   29.3830   44.4930 H   0  0  0  0  0  0  0  0  0  0  0  0
   33.9720   28.4850   45.0120 H   0  0  0  0  0  0  0  0  0  0  0  0
   33.3530   30.0830   45.5090 H   0  0  0  0  0  0  0  0  0  0  0  0
   35.1190   28.2620   47.1410 H   0  0  0  0  0  0  0  0  0  0  0  0
   33.6030   29.1350   47.6320 H   0  0  0  0  0  0  0  0  0  0  0  0
   34.6980   31.2100   47.5230 H   0  0  0  0  0  0  0  0  0  0  0  0
   36.1020   30.1310   48.6620 C   0  0  0  0  0  0  0  0  0  0  0  0
   35.4780   29.6640   49.8000 C   0  0  0  0  0  0  0  0  0  0  0  0
   36.1280   29.4690   51.0040 C   0  0  0  0  0  0  0  0  0  0  0  0
   35.6760   29.1090   51.9030 H   0  0  0  0  0  0  0  0  0  0  0  0
   37.4620   29.7490   51.0880 N   0  0  0  0  0  0  0  0  0  0  0  0
   38.0800   30.2110   49.9630 C   0  0  0  0  0  0  0  0  0  0  0  0
   37.4350   30.3980   48.7960 N   0  0  0  0  0  0  0  0  0  0  0  0
  1  6  1  0  0  0  0
  1 12  1  0  0  0  0
  2  1  2  0  0  0  0
  3  4  2  0  0  0  0
  3  2  1  0  0  0  0
  4  5  1  0  0  0  0
  5  7  1  0  0  0  0
  5  6  2  0  0  0  0
  7 11  1  0  0  0  0
  8  9  1  0  0  0  0
  8  7  1  0  0  0  0
  9 10  1  0  0  0  0
 10 19  1  0  0  0  0
 10 11  1  0  0  0  0
 10 20  1  0  0  0  0
 11 21  1  1  0  0  0
 11 22  1  0  0  0  0
 13  2  1  0  0  0  0
 14  3  1  0  0  0  0
 15  8  1  0  0  0  0
 16  8  1  0  0  0  0
 17  9  1  0  0  0  0
 18  9  1  0  0  0  0
 22 28  2  0  0  0  0
 22 23  1  0  0  0  0
 23 24  2  0  0  0  0
 24 26  1  0  0  0  0
 24 25  1  0  0  0  0
 27 26  2  0  0  0  0
 28 27  1  0  0  0  0
M  END
>  <minimizedAffinity>
-4.98400211

>  <minimizedRMSD>
2.68561053

$$$$
