
     RDKit          3D

 33 35  0  0  0  0  0  0  0  0999 V2000
   33.7287   28.6058   48.6963 C   0  0  0  0  0  0  0  0  0  0  0  0
   32.8189   27.4551   48.3385 C   0  0  0  0  0  0  0  0  0  0  0  0
   31.3873   27.8592   48.3407 C   0  0  0  0  0  0  0  0  0  0  0  0
   30.7009   27.7228   49.5273 C   0  0  0  0  0  0  0  0  0  0  0  0
   29.3647   28.0649   49.6555 C   0  0  0  0  0  0  0  0  0  0  0  0
   28.7202   28.5414   48.5990 N   0  0  0  0  0  0  0  0  0  0  0  0
   29.3891   28.6784   47.4278 C   0  0  0  0  0  0  0  0  0  0  0  0
   30.6919   28.3504   47.2832 N   0  0  0  0  0  0  0  0  0  0  0  0
   34.6053   28.2177   49.7552 O   0  0  0  0  0  0  0  0  0  0  0  0
   37.2158   30.1908   51.2936 C   0  0  0  0  0  0  0  0  0  0  0  0
   37.9115   30.6258   50.1374 C   0  0  0  0  0  0  0  0  0  0  0  0
   37.4357   30.2110   48.9060 C   0  0  0  0  0  0  0  0  0  0  0  0
   36.3337   29.4138   48.8716 N   0  0  0  0  0  0  0  0  0  0  0  0
   35.6981   29.0202   49.9936 C   0  0  0  0  0  0  0  0  0  0  0  0
   36.1480   29.4158   51.2175 N   0  0  0  0  0  0  0  0  0  0  0  0
   33.1869   29.5143   48.9863 H   0  0  0  0  0  0  0  0  0  0  0  0
   34.3740   28.8727   47.8332 H   0  0  0  0  0  0  0  0  0  0  0  0
   32.9480   26.5962   49.0058 H   0  0  0  0  0  0  0  0  0  0  0  0
   33.0586   27.1186   47.2948 H   0  0  0  0  0  0  0  0  0  0  0  0
   31.1974   27.3358   50.4128 H   0  0  0  0  0  0  0  0  0  0  0  0
   28.8171   27.9659   50.5670 H   0  0  0  0  0  0  0  0  0  0  0  0
   28.9406   29.0633   46.5012 H   0  0  0  0  0  0  0  0  0  0  0  0
   37.6119   30.5315   52.2397 H   0  0  0  0  0  0  0  0  0  0  0  0
   38.7854   31.2590   50.1831 H   0  0  0  0  0  0  0  0  0  0  0  0
   38.0441   30.5761   47.6317 C   0  0  0  0  0  0  0  0  0  0  0  0
   38.1692   31.8751   47.2197 C   0  0  0  0  0  0  0  0  0  0  0  0
   38.7470   32.1965   46.0127 C   0  0  0  0  0  0  0  0  0  0  0  0
   38.8526   33.2200   45.6740 H   0  0  0  0  0  0  0  0  0  0  0  0
   39.2007   31.2323   45.2136 N   0  0  0  0  0  0  0  0  0  0  0  0
   39.0841   29.9529   45.6057 C   0  0  0  0  0  0  0  0  0  0  0  0
   38.5221   29.6548   46.7781 N   0  0  0  0  0  0  0  0  0  0  0  0
   37.8252   32.6872   47.8156 H   0  0  0  0  0  0  0  0  0  0  0  0
   39.4075   29.0740   45.0596 H   0  0  0  0  0  0  0  0  0  0  0  0
  1  9  1  0
  2  1  1  0
  3  2  1  0
  3  4  2  0
  4  5  1  0
  6  5  2  0
  7  6  1  0
  8  7  2  0
  8  3  1  0
  9 14  1  0
 11 10  2  0
 12 11  1  0
 13 12  2  0
 13 14  1  0
 14 15  2  0
 15 10  1  0
  1 16  1  0
  1 17  1  0
  2 18  1  0
  2 19  1  0
  4 20  1  0
  5 21  1  0
  7 22  1  0
 10 23  1  0
 11 24  1  0
 25 26  2  0
 26 27  1  0
 27 28  1  0
 27 29  2  0
 29 30  1  0
 30 31  2  0
 31 25  1  0
 26 32  1  0
 30 33  1  0
 12 25  1  0
M  ISO  8  16   8  17   8  18   8  19   8  20  14  21  14  22  14  23  14
M  ISO  2  24  14  28  14
M  END
>  <DihAtoms>  (1) 
10,11,24,25

>  <DihDeg>  (1) 
1.9514935634805226e-06

$$$$
