
     RDKit          3D

 31 34  0  0  0  0  0  0  0  0999 V2000
   37.0635   30.7068   46.7712 C   0  0  0  0  0  0  0  0  0  0  0  0
   37.7061   31.1439   47.9226 C   0  0  0  0  0  0  0  0  0  0  0  0
   38.7188   32.0727   47.8458 C   0  0  0  0  0  0  0  0  0  0  0  0
   39.0597   32.5430   46.5776 C   0  0  0  0  0  0  0  0  0  0  0  0
   40.0176   33.4529   46.2552 N   0  0  0  0  0  0  0  0  0  0  0  0
   39.9798   33.5872   44.9245 C   0  0  0  0  0  0  0  0  0  0  0  0
   39.0412   32.8035   44.3892 N   0  0  0  0  0  0  0  0  0  0  0  0
   38.4379   32.1286   45.3957 C   0  0  0  0  0  0  0  0  0  0  0  0
   37.4246   31.1941   45.5138 C   0  0  0  0  0  0  0  0  0  0  0  0
   37.3986   30.1542   51.5349 C   0  0  0  0  0  0  0  0  0  0  0  0
   37.9209   30.7487   50.3807 C   0  0  0  0  0  0  0  0  0  0  0  0
   37.2526   30.5716   49.1831 C   0  0  0  0  0  0  0  0  0  0  0  0
   36.1139   29.8267   49.1737 N   0  0  0  0  0  0  0  0  0  0  0  0
   35.6224   29.2583   50.3001 C   0  0  0  0  0  0  0  0  0  0  0  0
   36.2534   29.4177   51.4669 N   0  0  0  0  0  0  0  0  0  0  0  0
   36.2603   29.9775   46.7748 H   0  0  0  0  0  0  0  0  0  0  0  0
   39.2152   32.4121   48.7224 H   0  0  0  0  0  0  0  0  0  0  0  0
   40.6377   33.9314   46.9188 H   0  0  0  0  0  0  0  0  0  0  0  0
   36.9326   30.8624   44.6086 H   0  0  0  0  0  0  0  0  0  0  0  0
   37.8899   30.2711   52.4762 H   0  0  0  0  0  0  0  0  0  0  0  0
   38.8206   31.3331   50.4072 H   0  0  0  0  0  0  0  0  0  0  0  0
   34.7080   28.6769   50.2156 H   0  0  0  0  0  0  0  0  0  0  0  0
   40.8492   34.4733   44.1569 C   0  0  0  0  0  0  0  0  0  0  0  0
   41.8032   35.2617   44.7665 C   0  0  0  0  0  0  0  0  0  0  0  0
   42.6285   36.1013   44.0509 C   0  0  0  0  0  0  0  0  0  0  0  0
   43.3692   36.7130   44.5274 H   0  0  0  0  0  0  0  0  0  0  0  0
   42.5363   36.1881   42.7063 N   0  0  0  0  0  0  0  0  0  0  0  0
   41.5974   35.4101   42.1222 C   0  0  0  0  0  0  0  0  0  0  0  0
   40.7727   34.5736   42.8175 N   0  0  0  0  0  0  0  0  0  0  0  0
   41.9016   35.2126   45.8586 H   0  0  0  0  0  0  0  0  0  0  0  0
   41.4852   35.4457   41.0376 H   0  0  0  0  0  0  0  0  0  0  0  0
  1  2  2  0
  2 12  1  0
  3  2  1  0
  4  3  2  0
  5  4  1  0
  6  5  1  0
  7  6  2  0
  7  8  1  0
  8  9  2  0
  8  4  1  0
  9  1  1  0
 11 10  2  0
 12 11  1  0
 13 12  2  0
 13 14  1  0
 14 15  2  0
 15 10  1  0
  1 16  1  0
  3 17  1  0
  5 18  1  0
  9 19  1  0
 10 20  1  0
 11 21  1  0
 14 22  1  0
 23 24  2  0
 24 25  1  0
 25 26  1  0
 25 27  2  0
 27 28  1  0
 28 29  2  0
 29 23  1  0
 24 30  1  0
 28 31  1  0
  6 23  1  0
M  ISO  8  16  14  17  14  18   9  19  14  20  14  21  14  22  14  26  14
M  END
>  <DihAtoms>  (1) 
4,5,22,23

>  <DihDeg>  (1) 
179.9970151350217

$$$$
