REMARK  Name = 
REMARK  3 active torsions:
REMARK  status: ('A' for Active; 'I' for Inactive)
REMARK    1  A    between atoms: C_2  and  C_14
REMARK    2  A    between atoms: C_3  and  C_8
REMARK    3  A    between atoms: C_12  and  C_24
REMARK                            x       y       z     vdW  Elec       q    Type
REMARK                         _______ _______ _______ _____ _____    ______ ____
ROOT
ATOM      1  C   UNL     1      37.230  31.465  48.594  0.00  0.00    +0.000 A 
ATOM      2  C   UNL     1      37.196  32.498  49.511  0.00  0.00    +0.000 A 
ATOM      3  C   UNL     1      38.151  33.502  49.453  0.00  0.00    +0.000 A 
ATOM      4  C   UNL     1      39.136  33.464  48.474  0.00  0.00    +0.000 A 
ATOM      5  C   UNL     1      39.135  32.420  47.581  0.00  0.00    +0.000 A 
ATOM      6  N   UNL     1      38.201  31.451  47.650  0.00  0.00    +0.000 NA
ATOM      7  H   UNL     1      36.502  32.674  50.326  0.00  0.00    +0.000 HD
ATOM      8  H   UNL     1      38.206  34.348  50.123  0.00  0.00    +0.000 HD
ATOM      9  H   UNL     1      39.901  34.225  48.388  0.00  0.00    +0.000 HD
ENDROOT
BRANCH   1  12
ATOM     10  C   UNL     1      35.165  28.675  50.029  0.00  0.00    +0.000 A 
ATOM     11  C   UNL     1      36.236  29.597  49.858  0.00  0.00    +0.000 A 
ATOM     12  C   UNL     1      36.156  30.503  48.806  0.00  0.00    +0.000 A 
ATOM     13  N   UNL     1      35.056  30.465  47.990  0.00  0.00    +0.000 NA
ATOM     14  C   UNL     1      34.063  29.558  48.205  0.00  0.00    +0.000 A 
ATOM     15  N   UNL     1      34.103  28.678  49.197  0.00  0.00    +0.000 NA
ATOM     16  N   UNL     1      33.030  29.695  47.227  0.00  0.00    +0.000 N 
ATOM     17  H   UNL     1      35.204  27.962  50.837  0.00  0.00    +0.000 HD
ATOM     18  H   UNL     1      32.429  30.555  47.320  0.00  0.00    +0.000 HD
ATOM     19  H   UNL     1      32.946  28.945  46.502  0.00  0.00    +0.000 HD
BRANCH  11  20
ATOM     20  C   UNL     1      37.380  29.549  50.801  0.00  0.00    +0.000 C 
ATOM     21  F   UNL     1      38.587  29.808  50.151  0.00  0.00    +0.000 F 
ATOM     22  F   UNL     1      37.191  30.498  51.755  0.00  0.00    +0.000 F 
ATOM     23  F   UNL     1      37.513  28.325  51.433  0.00  0.00    +0.000 F 
ENDBRANCH  11  20
ENDBRANCH   1  12
BRANCH   5  24
ATOM     24  C   UNL     1      40.148  32.337  46.536  0.00  0.00    +0.000 A 
ATOM     25  C   UNL     1      40.163  31.299  45.633  0.00  0.00    +0.000 A 
ATOM     26  C   UNL     1      41.173  31.336  44.694  0.00  0.00    +0.000 A 
ATOM     27  H   UNL     1      41.214  30.520  43.956  0.00  0.00    +0.000 HD
ATOM     28  N   UNL     1      42.090  32.318  44.653  0.00  0.00    +0.000 NA
ATOM     29  C   UNL     1      42.053  33.333  45.558  0.00  0.00    +0.000 A 
ATOM     30  N   UNL     1      41.084  33.300  46.461  0.00  0.00    +0.000 NA
ENDBRANCH   5  24
TORSDOF 3
