
 OpenBabel03272508023D

 26 28  0  0  0  0  0  0  0  0999 V2000
   33.1090   28.8590   41.6950 C   0  0  0  0  0  0  0  0  0  0  0  0
   34.2470   28.2530   41.2340 C   0  0  0  0  0  0  0  0  0  0  0  0
   34.1610   26.8780   41.4190 C   0  0  0  0  0  0  0  0  0  0  0  0
   32.9500   26.7000   41.9980 N   0  0  0  0  0  0  0  0  0  0  0  0
   32.3430   27.8540   42.1560 N   0  0  0  0  0  0  0  0  0  0  0  0
   35.0990   28.7440   40.7880 H   0  0  0  0  0  0  0  0  0  0  0  0
   34.8570   26.0880   41.1800 H   0  0  0  0  0  0  0  0  0  0  0  0
   32.7710   30.2810   41.7010 C   0  0  0  0  0  0  0  0  0  0  0  0
   33.7670   31.1830   41.2190 C   0  0  0  0  0  0  0  0  0  0  0  0
   33.4560   32.5420   41.2210 C   0  0  0  0  0  0  0  0  0  0  0  0
   32.2370   32.9250   41.6750 N   0  0  0  0  0  0  0  0  0  0  0  0
   31.3120   32.0460   42.1250 C   0  0  0  0  0  0  0  0  0  0  0  0
   31.6060   30.7300   42.1280 N   0  0  0  0  0  0  0  0  0  0  0  0
   34.7080   30.7840   40.8780 H   0  0  0  0  0  0  0  0  0  0  0  0
   30.3460   32.3800   42.4830 H   0  0  0  0  0  0  0  0  0  0  0  0
   34.4740   33.5090   40.7240 C   0  0  0  0  0  0  0  0  0  0  0  0
   33.9210   34.0800   39.6000 F   0  0  0  0  0  0  0  0  0  0  0  0
   34.7630   34.4990   41.6440 F   0  0  0  0  0  0  0  0  0  0  0  0
   35.6480   32.8720   40.3260 F   0  0  0  0  0  0  0  0  0  0  0  0
   32.3140   25.4990   42.4190 C   0  0  0  0  0  0  0  0  0  0  0  0
   31.3510   24.8860   41.6100 C   0  0  0  0  0  3  0  0  0  0  0  0
   30.6770   23.7230   41.9250 C   0  0  0  0  0  0  0  0  0  0  0  0
   29.9570   23.3580   41.2070 H   0  0  0  0  0  0  0  0  0  0  0  0
   30.9960   23.1670   43.1060 N   0  0  0  0  0  0  0  0  0  0  0  0
   31.9200   23.7240   43.9210 C   0  0  0  0  0  3  0  0  0  0  0  0
   32.5680   24.8730   43.5800 N   0  0  0  0  0  0  0  0  0  0  0  0
  1  8  1  0  0  0  0
  1  5  2  0  0  0  0
  2  3  2  0  0  0  0
  2  1  1  0  0  0  0
  3  4  1  0  0  0  0
  4  5  1  0  0  0  0
  4 20  1  0  0  0  0
  6  2  1  0  0  0  0
  7  3  1  0  0  0  0
  8 13  1  0  0  0  0
  9 10  1  0  0  0  0
  9  8  2  0  0  0  0
 10 11  2  0  0  0  0
 11 12  1  0  0  0  0
 12 13  2  0  0  0  0
 12 15  1  0  0  0  0
 14  9  1  0  0  0  0
 16 10  1  0  0  0  0
 16 18  1  0  0  0  0
 17 16  1  0  0  0  0
 19 16  1  0  0  0  0
 20 26  1  0  0  0  0
 21 22  1  0  0  0  0
 21 20  2  0  0  0  0
 22 24  2  0  0  0  0
 23 22  1  0  0  0  0
 24 25  1  0  0  0  0
 26 25  2  0  0  0  0
M  END
>  <minimizedAffinity>
-1.0384028

>  <minimizedRMSD>
9.74079609

$$$$
