
 OpenBabel03272510333D

 26 28  0  0  0  0  0  0  0  0999 V2000
   35.9790   30.1160   47.7860 C   0  0  0  0  0  0  0  0  0  0  0  0
   35.2820   30.0630   46.6080 C   0  0  0  0  0  0  0  0  0  0  0  0
   34.2330   29.1860   46.4200 C   0  0  0  0  0  0  0  0  0  0  0  0
   33.8950   28.3510   47.4540 C   0  0  0  0  0  0  0  0  0  0  0  0
   34.5760   28.3720   48.6610 C   0  0  0  0  0  0  0  0  0  0  0  0
   35.6280   29.2650   48.8250 C   0  0  0  0  0  0  0  0  0  0  0  0
   35.5230   30.7140   45.7620 H   0  0  0  0  0  0  0  0  0  0  0  0
   33.6940   29.1630   45.4770 H   0  0  0  0  0  0  0  0  0  0  0  0
   33.0670   27.6780   47.2670 H   0  0  0  0  0  0  0  0  0  0  0  0
   34.2720   27.6950   49.4450 H   0  0  0  0  0  0  0  0  0  0  0  0
   37.9710   32.8820   49.0440 C   0  0  0  0  0  0  0  0  0  0  0  0
   39.0690   32.9450   48.1880 C   0  0  0  0  0  0  0  0  0  0  0  0
   39.1110   31.9990   47.1500 C   0  0  0  0  0  0  0  0  0  0  0  0
   38.1050   31.0980   47.0390 N   0  0  0  0  0  0  0  0  0  0  0  0
   37.0690   31.0740   47.8860 C   0  0  0  0  0  0  0  0  0  0  0  0
   37.0040   31.9770   48.8970 N   0  0  0  0  0  0  0  0  0  0  0  0
   37.9820   33.6430   49.8400 H   0  0  0  0  0  0  0  0  0  0  0  0
   39.8920   33.6320   48.2240 H   0  0  0  0  0  0  0  0  0  0  0  0
   39.9010   31.9060   46.3870 H   0  0  0  0  0  0  0  0  0  0  0  0
   36.3700   29.3200   50.0800 C   0  0  0  0  0  0  0  0  0  0  0  0
   37.5930   28.6820   50.1390 C   0  0  0  0  0  3  0  0  0  0  0  0
   38.2910   28.7260   51.3050 C   0  0  0  0  0  0  0  0  0  0  0  0
   39.2610   28.2830   51.5240 H   0  0  0  0  0  0  0  0  0  0  0  0
   37.8150   29.3720   52.3730 N   0  0  0  0  0  0  0  0  0  0  0  0
   36.6080   30.0120   52.3410 C   0  0  0  0  0  3  0  0  0  0  0  0
   35.9560   29.9430   51.1790 N   0  0  0  0  0  0  0  0  0  0  0  0
  1 15  1  0  0  0  0
  1  6  1  0  0  0  0
  2  1  2  0  0  0  0
  3  2  1  0  0  0  0
  3  4  2  0  0  0  0
  4  5  1  0  0  0  0
  5  6  2  0  0  0  0
  5 10  1  0  0  0  0
  6 20  1  0  0  0  0
  7  2  1  0  0  0  0
  8  3  1  0  0  0  0
  9  4  1  0  0  0  0
 11 17  1  0  0  0  0
 12 18  1  0  0  0  0
 12 11  2  0  0  0  0
 13 12  1  0  0  0  0
 14 13  2  0  0  0  0
 14 15  1  0  0  0  0
 15 16  2  0  0  0  0
 16 11  1  0  0  0  0
 19 13  1  0  0  0  0
 20 21  2  0  0  0  0
 20 26  1  0  0  0  0
 21 22  1  0  0  0  0
 22 23  1  0  0  0  0
 22 24  2  0  0  0  0
 25 24  1  0  0  0  0
 26 25  2  0  0  0  0
M  END
>  <minimizedAffinity>
-3.2959559

>  <minimizedRMSD>
1.07426989

$$$$
