
 OpenBabel03272508313D

 30 32  0  0  1  0  0  0  0  0999 V2000
   36.8960   24.5840   31.9150 N   0  0  0  0  0  0  0  0  0  0  0  0
   35.5640   24.1640   31.4640 C   0  0  0  0  0  0  0  0  0  0  0  0
   34.8110   25.2610   30.8020 C   0  0  0  0  0  0  0  0  0  0  0  0
   35.6930   26.2700   30.3160 N   0  0  0  0  0  0  0  0  0  0  0  0
   36.2610   26.9220   31.5140 C   0  0  0  0  0  0  0  0  0  0  0  0
   37.3210   25.9740   31.9790 C   0  0  1  0  0  0  0  0  0  0  0  0
   35.0120   23.9050   32.4030 H   0  0  0  0  0  0  0  0  0  0  0  0
   35.6300   23.2580   30.8450 H   0  0  0  0  0  0  0  0  0  0  0  0
   34.1680   24.8190   30.0060 H   0  0  0  0  0  0  0  0  0  0  0  0
   34.0950   25.7660   31.5060 H   0  0  0  0  0  0  0  0  0  0  0  0
   35.1390   26.9850   29.7740 H   0  0  0  0  0  0  0  0  0  0  0  0
   36.7800   27.8630   31.1870 H   0  0  0  0  0  0  0  0  0  0  0  0
   35.4890   27.1360   32.2580 H   0  0  0  0  0  0  0  0  0  0  0  0
   38.1370   26.0430   31.1990 H   0  0  0  0  0  0  0  0  0  0  0  0
   37.6550   22.8390   33.4850 C   0  0  0  0  0  0  0  0  0  0  0  0
   37.8250   23.5960   32.3150 C   0  0  0  0  0  0  0  0  0  0  0  0
   38.9620   23.3370   31.5410 C   0  0  0  0  0  0  0  0  0  0  0  0
   39.8280   22.3590   31.9900 N   0  0  0  0  0  0  0  0  0  0  0  0
   39.6140   21.6710   33.1130 C   0  0  0  0  0  0  0  0  0  0  0  0
   38.5280   21.8940   33.8840 N   0  0  0  0  0  0  0  0  0  0  0  0
   36.7910   23.0110   34.1050 H   0  0  0  0  0  0  0  0  0  0  0  0
   39.1240   23.9010   30.6340 H   0  0  0  0  0  0  0  0  0  0  0  0
   40.4470   20.9750   33.2190 H   0  0  0  0  0  0  0  0  0  0  0  0
   37.9480   26.3600   33.2410 C   0  0  0  0  0  0  0  0  0  0  0  0
   39.2770   26.6600   33.3020 C   0  0  0  0  0  3  0  0  0  0  0  0
   39.9180   27.0300   34.4700 C   0  0  0  0  0  0  0  0  0  0  0  0
   40.9580   27.2480   34.4290 H   0  0  0  0  0  0  0  0  0  0  0  0
   39.1690   27.0910   35.6010 N   0  0  0  0  0  0  0  0  0  0  0  0
   37.8430   26.7970   35.5700 C   0  0  0  0  0  3  0  0  0  0  0  0
   37.2530   26.4390   34.4070 N   0  0  0  0  0  0  0  0  0  0  0  0
  1  6  1  0  0  0  0
  1 16  1  0  0  0  0
  2  1  1  0  0  0  0
  2  7  1  0  0  0  0
  3  2  1  0  0  0  0
  3 10  1  0  0  0  0
  4  3  1  0  0  0  0
  4  5  1  0  0  0  0
  5  6  1  0  0  0  0
  5 13  1  0  0  0  0
  6 14  1  6  0  0  0
  6 24  1  0  0  0  0
  8  2  1  0  0  0  0
  9  3  1  0  0  0  0
 11  4  1  0  0  0  0
 12  5  1  0  0  0  0
 15 20  1  0  0  0  0
 15 21  1  0  0  0  0
 16 15  2  0  0  0  0
 17 18  2  0  0  0  0
 17 16  1  0  0  0  0
 18 19  1  0  0  0  0
 19 23  1  0  0  0  0
 19 20  2  0  0  0  0
 22 17  1  0  0  0  0
 24 25  2  0  0  0  0
 24 30  1  0  0  0  0
 25 26  1  0  0  0  0
 26 28  2  0  0  0  0
 27 26  1  0  0  0  0
 29 28  1  0  0  0  0
 30 29  2  0  0  0  0
M  END
>  <minimizedAffinity>
-4.33206797

$$$$

 OpenBabel03272508313D

 30 32  0  0  1  0  0  0  0  0999 V2000
   38.0730   22.6470   34.6990 N   0  0  0  0  0  0  0  0  0  0  0  0
   37.1570   21.5640   34.3230 C   0  0  0  0  0  0  0  0  0  0  0  0
   37.1510   21.3000   32.8610 C   0  0  0  0  0  0  0  0  0  0  0  0
   38.3490   21.7720   32.2480 N   0  0  0  0  0  0  0  0  0  0  0  0
   38.2900   23.2450   32.3270 C   0  0  0  0  0  0  0  0  0  0  0  0
   38.6840   23.5530   33.7370 C   0  0  1  0  0  0  0  0  0  0  0  0
   36.1390   21.9450   34.5920 H   0  0  0  0  0  0  0  0  0  0  0  0
   37.3530   20.6620   34.9190 H   0  0  0  0  0  0  0  0  0  0  0  0
   36.9740   20.2120   32.6980 H   0  0  0  0  0  0  0  0  0  0  0  0
   36.2970   21.8130   32.3410 H   0  0  0  0  0  0  0  0  0  0  0  0
   38.3560   21.4880   31.2320 H   0  0  0  0  0  0  0  0  0  0  0  0
   39.0930   23.6640   31.6620 H   0  0  0  0  0  0  0  0  0  0  0  0
   37.3050   23.6240   32.0410 H   0  0  0  0  0  0  0  0  0  0  0  0
   39.7850   23.3040   33.7940 H   0  0  0  0  0  0  0  0  0  0  0  0
   39.6720   22.5760   36.5760 C   0  0  0  0  0  0  0  0  0  0  0  0
   38.3890   22.8310   36.0650 C   0  0  0  0  0  0  0  0  0  0  0  0
   37.4170   23.2820   36.9630 C   0  0  0  0  0  0  0  0  0  0  0  0
   37.7930   23.4410   38.2830 N   0  0  0  0  0  0  0  0  0  0  0  0
   39.0300   23.1810   38.7120 C   0  0  0  0  0  0  0  0  0  0  0  0
   39.9940   22.7440   37.8730 N   0  0  0  0  0  0  0  0  0  0  0  0
   40.4460   22.2280   35.9130 H   0  0  0  0  0  0  0  0  0  0  0  0
   36.4180   23.4890   36.6040 H   0  0  0  0  0  0  0  0  0  0  0  0
   39.0420   23.3920   39.7830 H   0  0  0  0  0  0  0  0  0  0  0  0
   38.5790   24.9670   34.0870 C   0  0  0  0  0  0  0  0  0  0  0  0
   39.6810   25.6850   34.4480 C   0  0  0  0  0  3  0  0  0  0  0  0
   39.6360   27.0240   34.7880 C   0  0  0  0  0  0  0  0  0  0  0  0
   40.5440   27.5080   35.0570 H   0  0  0  0  0  0  0  0  0  0  0  0
   38.4250   27.6370   34.7530 N   0  0  0  0  0  0  0  0  0  0  0  0
   37.3100   26.9470   34.3960 C   0  0  0  0  0  3  0  0  0  0  0  0
   37.3960   25.6380   34.0710 N   0  0  0  0  0  0  0  0  0  0  0  0
  1 16  1  0  0  0  0
  2  7  1  0  0  0  0
  2  1  1  0  0  0  0
  2  8  1  0  0  0  0
  3  2  1  0  0  0  0
  4  5  1  0  0  0  0
  4  3  1  0  0  0  0
  5  6  1  0  0  0  0
  6 14  1  1  0  0  0
  6 24  1  0  0  0  0
  6  1  1  0  0  0  0
  9  3  1  0  0  0  0
 10  3  1  0  0  0  0
 11  4  1  0  0  0  0
 12  5  1  0  0  0  0
 13  5  1  0  0  0  0
 15 20  1  0  0  0  0
 16 15  2  0  0  0  0
 16 17  1  0  0  0  0
 17 18  2  0  0  0  0
 18 19  1  0  0  0  0
 19 23  1  0  0  0  0
 20 19  2  0  0  0  0
 21 15  1  0  0  0  0
 22 17  1  0  0  0  0
 24 25  1  0  0  0  0
 25 26  2  0  0  0  0
 26 27  1  0  0  0  0
 28 26  1  0  0  0  0
 29 28  2  0  0  0  0
 30 24  2  0  0  0  0
 30 29  1  0  0  0  0
M  END
>  <minimizedAffinity>
-4.24203634

$$$$

 OpenBabel03272508313D

 30 32  0  0  1  0  0  0  0  0999 V2000
   40.3430   24.7990   35.0510 N   0  0  0  0  0  0  0  0  0  0  0  0
   41.6440   24.1390   34.8920 C   0  0  0  0  0  0  0  0  0  0  0  0
   42.7370   25.0960   34.5790 C   0  0  0  0  0  0  0  0  0  0  0  0
   42.3990   26.4170   34.9940 N   0  0  0  0  0  0  0  0  0  0  0  0
   41.3020   26.8520   34.1050 C   0  0  0  0  0  0  0  0  0  0  0  0
   40.0880   26.1780   34.6630 C   0  0  1  0  0  0  0  0  0  0  0  0
   41.5210   23.4770   33.9980 H   0  0  0  0  0  0  0  0  0  0  0  0
   41.8680   23.5030   35.7600 H   0  0  0  0  0  0  0  0  0  0  0  0
   43.6800   24.7200   35.0400 H   0  0  0  0  0  0  0  0  0  0  0  0
   42.9530   25.1470   33.4780 H   0  0  0  0  0  0  0  0  0  0  0  0
   43.2270   27.0520   34.8440 H   0  0  0  0  0  0  0  0  0  0  0  0
   41.1580   27.9580   34.2410 H   0  0  0  0  0  0  0  0  0  0  0  0
   41.5130   26.6080   33.0590 H   0  0  0  0  0  0  0  0  0  0  0  0
   39.8890   26.7020   35.6440 H   0  0  0  0  0  0  0  0  0  0  0  0
   38.5680   24.5160   36.7400 C   0  0  0  0  0  0  0  0  0  0  0  0
   39.2700   24.0670   35.6100 C   0  0  0  0  0  0  0  0  0  0  0  0
   38.8680   22.8530   35.0440 C   0  0  0  0  0  0  0  0  0  0  0  0
   37.8120   22.1900   35.6410 N   0  0  0  0  0  0  0  0  0  0  0  0
   37.1820   22.6670   36.7160 C   0  0  0  0  0  0  0  0  0  0  0  0
   37.5430   23.8350   37.2890 N   0  0  0  0  0  0  0  0  0  0  0  0
   38.8490   25.4470   37.2020 H   0  0  0  0  0  0  0  0  0  0  0  0
   39.3860   22.4770   34.1730 H   0  0  0  0  0  0  0  0  0  0  0  0
   36.4010   21.9470   36.9680 H   0  0  0  0  0  0  0  0  0  0  0  0
   38.8830   26.3690   33.8600 C   0  0  0  0  0  0  0  0  0  0  0  0
   37.9070   27.2360   34.2550 C   0  0  0  0  0  3  0  0  0  0  0  0
   36.7480   27.4530   33.5330 C   0  0  0  0  0  0  0  0  0  0  0  0
   36.0380   28.1470   33.9130 H   0  0  0  0  0  0  0  0  0  0  0  0
   36.5940   26.7590   32.3760 N   0  0  0  0  0  0  0  0  0  0  0  0
   37.5500   25.8890   31.9580 C   0  0  0  0  0  3  0  0  0  0  0  0
   38.6700   25.7050   32.6930 N   0  0  0  0  0  0  0  0  0  0  0  0
  1 16  1  0  0  0  0
  2  1  1  0  0  0  0
  2  8  1  0  0  0  0
  3  2  1  0  0  0  0
  3  4  1  0  0  0  0
  3  9  1  0  0  0  0
  5 12  1  0  0  0  0
  5  6  1  0  0  0  0
  5  4  1  0  0  0  0
  6  1  1  0  0  0  0
  6 14  1  1  0  0  0
  7  2  1  0  0  0  0
 10  3  1  0  0  0  0
 11  4  1  0  0  0  0
 13  5  1  0  0  0  0
 15 21  1  0  0  0  0
 15 20  1  0  0  0  0
 16 15  2  0  0  0  0
 17 16  1  0  0  0  0
 17 18  2  0  0  0  0
 18 19  1  0  0  0  0
 19 23  1  0  0  0  0
 19 20  2  0  0  0  0
 22 17  1  0  0  0  0
 24 25  1  0  0  0  0
 24  6  1  0  0  0  0
 26 27  1  0  0  0  0
 26 25  2  0  0  0  0
 28 26  1  0  0  0  0
 29 28  2  0  0  0  0
 29 30  1  0  0  0  0
 30 24  2  0  0  0  0
M  END
>  <minimizedAffinity>
-4.17990208

$$$$

 OpenBabel03272508313D

 30 32  0  0  1  0  0  0  0  0999 V2000
   34.7010   31.3610   35.0880 N   0  0  0  0  0  0  0  0  0  0  0  0
   35.3690   32.6640   35.1810 C   0  0  0  0  0  0  0  0  0  0  0  0
   35.1780   33.3130   36.5030 C   0  0  0  0  0  0  0  0  0  0  0  0
   34.8480   32.3540   37.5050 N   0  0  0  0  0  0  0  0  0  0  0  0
   33.4950   31.8670   37.1670 C   0  0  0  0  0  0  0  0  0  0  0  0
   33.7240   30.8880   36.0590 C   0  0  1  0  0  0  0  0  0  0  0  0
   34.8530   33.3040   34.4220 H   0  0  0  0  0  0  0  0  0  0  0  0
   36.4270   32.5800   34.8950 H   0  0  0  0  0  0  0  0  0  0  0  0
   36.0930   33.9020   36.7440 H   0  0  0  0  0  0  0  0  0  0  0  0
   34.3440   34.0670   36.4880 H   0  0  0  0  0  0  0  0  0  0  0  0
   34.8100   32.8310   38.4450 H   0  0  0  0  0  0  0  0  0  0  0  0
   33.1040   31.2850   38.0450 H   0  0  0  0  0  0  0  0  0  0  0  0
   32.8240   32.6910   36.9100 H   0  0  0  0  0  0  0  0  0  0  0  0
   34.2350   30.0070   36.5480 H   0  0  0  0  0  0  0  0  0  0  0  0
   35.6630   29.2780   34.1840 C   0  0  0  0  0  0  0  0  0  0  0  0
   35.0110   30.5080   34.0030 C   0  0  0  0  0  0  0  0  0  0  0  0
   34.6720   30.8710   32.6960 C   0  0  0  0  0  0  0  0  0  0  0  0
   35.0050   29.9920   31.6840 N   0  0  0  0  0  0  0  0  0  0  0  0
   35.6270   28.8340   31.9160 C   0  0  0  0  0  0  0  0  0  0  0  0
   35.9700   28.4510   33.1650 N   0  0  0  0  0  0  0  0  0  0  0  0
   35.9390   28.9660   35.1760 H   0  0  0  0  0  0  0  0  0  0  0  0
   34.1700   31.8120   32.5210 H   0  0  0  0  0  0  0  0  0  0  0  0
   35.7620   28.3500   30.9470 H   0  0  0  0  0  0  0  0  0  0  0  0
   32.4950   30.3580   35.4730 C   0  0  0  0  0  0  0  0  0  0  0  0
   32.1540   29.0460   35.6250 C   0  0  0  0  0  3  0  0  0  0  0  0
   31.0050   28.4950   35.0910 C   0  0  0  0  0  0  0  0  0  0  0  0
   30.8140   27.4620   35.2570 H   0  0  0  0  0  0  0  0  0  0  0  0
   30.1870   29.3170   34.3850 N   0  0  0  0  0  0  0  0  0  0  0  0
   30.5010   30.6290   34.2180 C   0  0  0  0  0  3  0  0  0  0  0  0
   31.6360   31.1300   34.7550 N   0  0  0  0  0  0  0  0  0  0  0  0
  1  2  1  0  0  0  0
  1  6  1  0  0  0  0
  2  3  1  0  0  0  0
  3  9  1  0  0  0  0
  3  4  1  0  0  0  0
  4 11  1  0  0  0  0
  5  4  1  0  0  0  0
  5 12  1  0  0  0  0
  6 14  1  1  0  0  0
  6  5  1  0  0  0  0
  7  2  1  0  0  0  0
  8  2  1  0  0  0  0
 10  3  1  0  0  0  0
 13  5  1  0  0  0  0
 15 21  1  0  0  0  0
 16 15  1  0  0  0  0
 16  1  1  0  0  0  0
 17 16  2  0  0  0  0
 18 19  2  0  0  0  0
 18 17  1  0  0  0  0
 19 20  1  0  0  0  0
 20 15  2  0  0  0  0
 22 17  1  0  0  0  0
 23 19  1  0  0  0  0
 24 25  1  0  0  0  0
 24  6  1  0  0  0  0
 26 27  1  0  0  0  0
 26 25  2  0  0  0  0
 28 26  1  0  0  0  0
 29 28  2  0  0  0  0
 29 30  1  0  0  0  0
 30 24  2  0  0  0  0
M  END
>  <minimizedAffinity>
-4.14799023

$$$$

 OpenBabel03272508313D

 30 32  0  0  1  0  0  0  0  0999 V2000
   40.6750   24.8810   34.4810 N   0  0  0  0  0  0  0  0  0  0  0  0
   41.8530   24.3220   33.8070 C   0  0  0  0  0  0  0  0  0  0  0  0
   42.9420   25.3170   33.6360 C   0  0  0  0  0  0  0  0  0  0  0  0
   42.8140   26.3860   34.5710 N   0  0  0  0  0  0  0  0  0  0  0  0
   41.6050   27.1330   34.1690 C   0  0  0  0  0  0  0  0  0  0  0  0
   40.4730   26.3070   34.6940 C   0  0  1  0  0  0  0  0  0  0  0  0
   41.4930   24.0480   32.7840 H   0  0  0  0  0  0  0  0  0  0  0  0
   42.1890   23.4030   34.3090 H   0  0  0  0  0  0  0  0  0  0  0  0
   43.9200   24.7880   33.7050 H   0  0  0  0  0  0  0  0  0  0  0  0
   42.9350   25.7800   32.6120 H   0  0  0  0  0  0  0  0  0  0  0  0
   43.6490   27.0250   34.4860 H   0  0  0  0  0  0  0  0  0  0  0  0
   41.5920   28.1050   34.7310 H   0  0  0  0  0  0  0  0  0  0  0  0
   41.5780   27.3010   33.0890 H   0  0  0  0  0  0  0  0  0  0  0  0
   40.5230   26.4220   35.8170 H   0  0  0  0  0  0  0  0  0  0  0  0
   39.4050   23.8430   36.3230 C   0  0  0  0  0  0  0  0  0  0  0  0
   39.6750   24.0000   34.9540 C   0  0  0  0  0  0  0  0  0  0  0  0
   38.9120   23.2460   34.0570 C   0  0  0  0  0  0  0  0  0  0  0  0
   37.9520   22.4050   34.5870 N   0  0  0  0  0  0  0  0  0  0  0  0
   37.7400   22.2970   35.9000 C   0  0  0  0  0  0  0  0  0  0  0  0
   38.4580   23.0090   36.7950 N   0  0  0  0  0  0  0  0  0  0  0  0
   39.9730   24.4080   37.0420 H   0  0  0  0  0  0  0  0  0  0  0  0
   39.0940   23.3420   32.9960 H   0  0  0  0  0  0  0  0  0  0  0  0
   36.9350   21.5720   36.0300 H   0  0  0  0  0  0  0  0  0  0  0  0
   39.1530   26.7960   34.3050 C   0  0  0  0  0  0  0  0  0  0  0  0
   38.2830   27.2830   35.2350 C   0  0  0  0  0  3  0  0  0  0  0  0
   37.0230   27.7570   34.9200 C   0  0  0  0  0  0  0  0  0  0  0  0
   36.4070   28.1200   35.7080 H   0  0  0  0  0  0  0  0  0  0  0  0
   36.6530   27.7290   33.6140 N   0  0  0  0  0  0  0  0  0  0  0  0
   37.5000   27.2490   32.6650 C   0  0  0  0  0  3  0  0  0  0  0  0
   38.7240   26.7940   33.0140 N   0  0  0  0  0  0  0  0  0  0  0  0
  1  6  1  0  0  0  0
  1 16  1  0  0  0  0
  2  8  1  0  0  0  0
  2  1  1  0  0  0  0
  3  9  1  0  0  0  0
  3  2  1  0  0  0  0
  3  4  1  0  0  0  0
  5  4  1  0  0  0  0
  5  6  1  0  0  0  0
  5 12  1  0  0  0  0
  6 14  1  1  0  0  0
  7  2  1  0  0  0  0
 10  3  1  0  0  0  0
 11  4  1  0  0  0  0
 13  5  1  0  0  0  0
 15 20  1  0  0  0  0
 15 21  1  0  0  0  0
 16 15  2  0  0  0  0
 17 18  2  0  0  0  0
 17 16  1  0  0  0  0
 18 19  1  0  0  0  0
 19 23  1  0  0  0  0
 19 20  2  0  0  0  0
 22 17  1  0  0  0  0
 24  6  1  0  0  0  0
 24 25  1  0  0  0  0
 26 25  2  0  0  0  0
 26 27  1  0  0  0  0
 28 26  1  0  0  0  0
 29 30  1  0  0  0  0
 29 28  2  0  0  0  0
 30 24  2  0  0  0  0
M  END
>  <minimizedAffinity>
-4.14593983

$$$$

 OpenBabel03272508313D

 30 32  0  0  1  0  0  0  0  0999 V2000
   39.1120   23.3890   33.6790 N   0  0  0  0  0  0  0  0  0  0  0  0
   39.5090   22.5240   32.5620 C   0  0  0  0  0  0  0  0  0  0  0  0
   38.5310   21.4350   32.3060 C   0  0  0  0  0  0  0  0  0  0  0  0
   37.2470   21.7620   32.8300 N   0  0  0  0  0  0  0  0  0  0  0  0
   37.3940   21.7480   34.2990 C   0  0  0  0  0  0  0  0  0  0  0  0
   38.0490   23.0550   34.6150 C   0  0  1  0  0  0  0  0  0  0  0  0
   40.4600   22.0400   32.8990 H   0  0  0  0  0  0  0  0  0  0  0  0
   39.7280   23.1210   31.6650 H   0  0  0  0  0  0  0  0  0  0  0  0
   38.5170   21.2210   31.2120 H   0  0  0  0  0  0  0  0  0  0  0  0
   38.8410   20.4670   32.7860 H   0  0  0  0  0  0  0  0  0  0  0  0
   36.5560   21.0150   32.5520 H   0  0  0  0  0  0  0  0  0  0  0  0
   36.3670   21.7750   34.7540 H   0  0  0  0  0  0  0  0  0  0  0  0
   37.9520   20.8700   34.6380 H   0  0  0  0  0  0  0  0  0  0  0  0
   37.2560   23.8350   34.4120 H   0  0  0  0  0  0  0  0  0  0  0  0
   39.1410   25.8530   33.7590 C   0  0  0  0  0  0  0  0  0  0  0  0
   39.7920   24.6140   33.8690 C   0  0  0  0  0  0  0  0  0  0  0  0
   41.1560   24.6290   34.1790 C   0  0  0  0  0  0  0  0  0  0  0  0
   41.7570   25.8610   34.3510 N   0  0  0  0  0  0  0  0  0  0  0  0
   41.0860   27.0090   34.2330 C   0  0  0  0  0  0  0  0  0  0  0  0
   39.7690   27.0330   33.9350 N   0  0  0  0  0  0  0  0  0  0  0  0
   38.0910   25.8810   33.5220 H   0  0  0  0  0  0  0  0  0  0  0  0
   41.6880   23.6930   34.2710 H   0  0  0  0  0  0  0  0  0  0  0  0
   41.8010   27.8120   34.4190 H   0  0  0  0  0  0  0  0  0  0  0  0
   38.4080   23.2130   36.0220 C   0  0  0  0  0  0  0  0  0  0  0  0
   37.6790   24.0180   36.8470 C   0  0  0  0  0  3  0  0  0  0  0  0
   37.9760   24.2020   38.1840 C   0  0  0  0  0  0  0  0  0  0  0  0
   37.3550   24.8480   38.7570 H   0  0  0  0  0  0  0  0  0  0  0  0
   39.0520   23.5400   38.6820 N   0  0  0  0  0  0  0  0  0  0  0  0
   39.7970   22.7310   37.8840 C   0  0  0  0  0  3  0  0  0  0  0  0
   39.4730   22.5770   36.5800 N   0  0  0  0  0  0  0  0  0  0  0  0
  1 16  1  0  0  0  0
  1  6  1  0  0  0  0
  2  7  1  0  0  0  0
  2  1  1  0  0  0  0
  3  2  1  0  0  0  0
  3 10  1  0  0  0  0
  3  4  1  0  0  0  0
  4  5  1  0  0  0  0
  5  6  1  0  0  0  0
  5 13  1  0  0  0  0
  5 12  1  0  0  0  0
  6 14  1  6  0  0  0
  6 24  1  0  0  0  0
  8  2  1  0  0  0  0
  9  3  1  0  0  0  0
 11  4  1  0  0  0  0
 15 16  2  0  0  0  0
 15 20  1  0  0  0  0
 16 17  1  0  0  0  0
 17 22  1  0  0  0  0
 17 18  2  0  0  0  0
 19 18  1  0  0  0  0
 19 23  1  0  0  0  0
 20 19  2  0  0  0  0
 21 15  1  0  0  0  0
 24 30  2  0  0  0  0
 24 25  1  0  0  0  0
 25 26  2  0  0  0  0
 26 28  1  0  0  0  0
 26 27  1  0  0  0  0
 29 28  2  0  0  0  0
 30 29  1  0  0  0  0
M  END
>  <minimizedAffinity>
-4.08767366

$$$$

 OpenBabel03272508313D

 30 32  0  0  1  0  0  0  0  0999 V2000
   40.5090   23.7970   35.4350 N   0  0  0  0  0  0  0  0  0  0  0  0
   41.2930   23.2060   36.5260 C   0  0  0  0  0  0  0  0  0  0  0  0
   40.4700   22.3600   37.4290 C   0  0  0  0  0  0  0  0  0  0  0  0
   39.2830   21.9160   36.7780 N   0  0  0  0  0  0  0  0  0  0  0  0
   38.4500   23.1210   36.5890 C   0  0  0  0  0  0  0  0  0  0  0  0
   39.0540   23.8020   35.4020 C   0  0  1  0  0  0  0  0  0  0  0  0
   41.6490   24.0800   37.1270 H   0  0  0  0  0  0  0  0  0  0  0  0
   42.1730   22.6800   36.1310 H   0  0  0  0  0  0  0  0  0  0  0  0
   41.1040   21.5240   37.8050 H   0  0  0  0  0  0  0  0  0  0  0  0
   40.1470   22.9160   38.3500 H   0  0  0  0  0  0  0  0  0  0  0  0
   38.7690   21.2460   37.4100 H   0  0  0  0  0  0  0  0  0  0  0  0
   37.4180   22.7900   36.2910 H   0  0  0  0  0  0  0  0  0  0  0  0
   38.4200   23.7340   37.4950 H   0  0  0  0  0  0  0  0  0  0  0  0
   38.8010   23.1370   34.5240 H   0  0  0  0  0  0  0  0  0  0  0  0
   41.0810   23.9140   33.0390 C   0  0  0  0  0  0  0  0  0  0  0  0
   41.1900   24.3990   34.3510 C   0  0  0  0  0  0  0  0  0  0  0  0
   42.0070   25.5150   34.5580 C   0  0  0  0  0  0  0  0  0  0  0  0
   42.6430   26.0530   33.4560 N   0  0  0  0  0  0  0  0  0  0  0  0
   42.5010   25.5470   32.2290 C   0  0  0  0  0  0  0  0  0  0  0  0
   41.7210   24.4700   31.9920 N   0  0  0  0  0  0  0  0  0  0  0  0
   40.4610   23.0560   32.8410 H   0  0  0  0  0  0  0  0  0  0  0  0
   42.1140   25.9150   35.5570 H   0  0  0  0  0  0  0  0  0  0  0  0
   43.1090   26.1620   31.5630 H   0  0  0  0  0  0  0  0  0  0  0  0
   38.4580   25.1010   35.0980 C   0  0  0  0  0  0  0  0  0  0  0  0
   38.5850   26.1500   35.9600 C   0  0  0  0  0  3  0  0  0  0  0  0
   38.0410   27.3980   35.7200 C   0  0  0  0  0  0  0  0  0  0  0  0
   38.1880   28.1620   36.4450 H   0  0  0  0  0  0  0  0  0  0  0  0
   37.3510   27.5670   34.5630 N   0  0  0  0  0  0  0  0  0  0  0  0
   37.2090   26.5400   33.6850 C   0  0  0  0  0  3  0  0  0  0  0  0
   37.7560   25.3330   33.9560 N   0  0  0  0  0  0  0  0  0  0  0  0
  1  2  1  0  0  0  0
  2  7  1  0  0  0  0
  2  3  1  0  0  0  0
  3  9  1  0  0  0  0
  3 10  1  0  0  0  0
  4 11  1  0  0  0  0
  4  3  1  0  0  0  0
  5  4  1  0  0  0  0
  5 13  1  0  0  0  0
  6 14  1  6  0  0  0
  6  1  1  0  0  0  0
  6  5  1  0  0  0  0
  8  2  1  0  0  0  0
 12  5  1  0  0  0  0
 15 16  1  0  0  0  0
 16 17  2  0  0  0  0
 16  1  1  0  0  0  0
 17 22  1  0  0  0  0
 18 17  1  0  0  0  0
 19 18  2  0  0  0  0
 20 19  1  0  0  0  0
 20 15  2  0  0  0  0
 21 15  1  0  0  0  0
 23 19  1  0  0  0  0
 24  6  1  0  0  0  0
 24 25  1  0  0  0  0
 26 25  2  0  0  0  0
 26 27  1  0  0  0  0
 28 26  1  0  0  0  0
 29 30  1  0  0  0  0
 29 28  2  0  0  0  0
 30 24  2  0  0  0  0
M  END
>  <minimizedAffinity>
-4.08001375

$$$$

 OpenBabel03272508313D

 30 32  0  0  1  0  0  0  0  0999 V2000
   39.4900   25.6770   33.1310 N   0  0  0  0  0  0  0  0  0  0  0  0
   39.9520   27.0480   32.8820 C   0  0  0  0  0  0  0  0  0  0  0  0
   41.2870   27.3200   33.4750 C   0  0  0  0  0  0  0  0  0  0  0  0
   42.0090   26.1100   33.6920 N   0  0  0  0  0  0  0  0  0  0  0  0
   41.2960   25.4000   34.7720 C   0  0  0  0  0  0  0  0  0  0  0  0
   40.1190   24.7790   34.0880 C   0  0  1  0  0  0  0  0  0  0  0  0
   39.2150   27.6990   33.4180 H   0  0  0  0  0  0  0  0  0  0  0  0
   39.9030   27.2870   31.8110 H   0  0  0  0  0  0  0  0  0  0  0  0
   41.8250   28.0420   32.8200 H   0  0  0  0  0  0  0  0  0  0  0  0
   41.2100   27.8350   34.4710 H   0  0  0  0  0  0  0  0  0  0  0  0
   42.9830   26.3410   34.0250 H   0  0  0  0  0  0  0  0  0  0  0  0
   41.9500   24.5600   35.1310 H   0  0  0  0  0  0  0  0  0  0  0  0
   41.0360   26.0750   35.5930 H   0  0  0  0  0  0  0  0  0  0  0  0
   40.5550   23.9600   33.4440 H   0  0  0  0  0  0  0  0  0  0  0  0
   38.4970   24.1770   31.4450 C   0  0  0  0  0  0  0  0  0  0  0  0
   38.3760   25.1890   32.4090 C   0  0  0  0  0  0  0  0  0  0  0  0
   37.0990   25.7100   32.6400 C   0  0  0  0  0  0  0  0  0  0  0  0
   36.0550   25.1880   31.9000 N   0  0  0  0  0  0  0  0  0  0  0  0
   36.2310   24.2230   30.9940 C   0  0  0  0  0  0  0  0  0  0  0  0
   37.4490   23.6980   30.7450 N   0  0  0  0  0  0  0  0  0  0  0  0
   39.4650   23.7520   31.2410 H   0  0  0  0  0  0  0  0  0  0  0  0
   36.9700   26.4910   33.3760 H   0  0  0  0  0  0  0  0  0  0  0  0
   35.2490   24.0090   30.5690 H   0  0  0  0  0  0  0  0  0  0  0  0
   39.1880   24.1140   34.9970 C   0  0  0  0  0  0  0  0  0  0  0  0
   38.6030   24.7950   36.0240 C   0  0  0  0  0  3  0  0  0  0  0  0
   37.7170   24.2140   36.9110 C   0  0  0  0  0  0  0  0  0  0  0  0
   37.3050   24.8170   37.6840 H   0  0  0  0  0  0  0  0  0  0  0  0
   37.4280   22.8990   36.7350 N   0  0  0  0  0  0  0  0  0  0  0  0
   37.9960   22.1950   35.7200 C   0  0  0  0  0  3  0  0  0  0  0  0
   38.8580   22.8010   34.8730 N   0  0  0  0  0  0  0  0  0  0  0  0
  1  6  1  0  0  0  0
  2  1  1  0  0  0  0
  2  7  1  0  0  0  0
  2  3  1  0  0  0  0
  3  4  1  0  0  0  0
  3 10  1  0  0  0  0
  4 11  1  0  0  0  0
  4  5  1  0  0  0  0
  5 12  1  0  0  0  0
  5 13  1  0  0  0  0
  6 14  1  6  0  0  0
  6  5  1  0  0  0  0
  6 24  1  0  0  0  0
  8  2  1  0  0  0  0
  9  3  1  0  0  0  0
 15 16  1  0  0  0  0
 16 17  2  0  0  0  0
 16  1  1  0  0  0  0
 17 22  1  0  0  0  0
 18 17  1  0  0  0  0
 19 18  2  0  0  0  0
 20 19  1  0  0  0  0
 20 15  2  0  0  0  0
 21 15  1  0  0  0  0
 23 19  1  0  0  0  0
 24 25  1  0  0  0  0
 25 26  2  0  0  0  0
 26 27  1  0  0  0  0
 28 26  1  0  0  0  0
 29 28  2  0  0  0  0
 30 24  2  0  0  0  0
 30 29  1  0  0  0  0
M  END
>  <minimizedAffinity>
-4.0250206

$$$$

 OpenBabel03272508313D

 30 32  0  0  1  0  0  0  0  0999 V2000
   38.1720   22.7890   33.8540 N   0  0  0  0  0  0  0  0  0  0  0  0
   37.0960   21.8200   33.6150 C   0  0  0  0  0  0  0  0  0  0  0  0
   36.3440   22.0960   32.3640 C   0  0  0  0  0  0  0  0  0  0  0  0
   37.1190   22.8800   31.4600 N   0  0  0  0  0  0  0  0  0  0  0  0
   37.2410   24.2130   32.0830 C   0  0  0  0  0  0  0  0  0  0  0  0
   38.3070   24.0380   33.1190 C   0  0  1  0  0  0  0  0  0  0  0  0
   36.3840   21.9700   34.4660 H   0  0  0  0  0  0  0  0  0  0  0  0
   37.4790   20.7920   33.6660 H   0  0  0  0  0  0  0  0  0  0  0  0
   36.0120   21.1250   31.9290 H   0  0  0  0  0  0  0  0  0  0  0  0
   35.3950   22.6660   32.5570 H   0  0  0  0  0  0  0  0  0  0  0  0
   36.5970   22.9790   30.5490 H   0  0  0  0  0  0  0  0  0  0  0  0
   37.6430   24.9250   31.3120 H   0  0  0  0  0  0  0  0  0  0  0  0
   36.2810   24.5610   32.4770 H   0  0  0  0  0  0  0  0  0  0  0  0
   39.2640   23.9050   32.5330 H   0  0  0  0  0  0  0  0  0  0  0  0
   38.8550   22.6270   36.2180 C   0  0  0  0  0  0  0  0  0  0  0  0
   39.1380   22.5070   34.8480 C   0  0  0  0  0  0  0  0  0  0  0  0
   40.4250   22.0930   34.4900 C   0  0  0  0  0  0  0  0  0  0  0  0
   41.3180   21.8350   35.5120 N   0  0  0  0  0  0  0  0  0  0  0  0
   40.9920   21.9670   36.8000 C   0  0  0  0  0  0  0  0  0  0  0  0
   39.7600   22.3650   37.1820 N   0  0  0  0  0  0  0  0  0  0  0  0
   37.8750   22.9440   36.5300 H   0  0  0  0  0  0  0  0  0  0  0  0
   40.6760   21.9900   33.4440 H   0  0  0  0  0  0  0  0  0  0  0  0
   41.8790   21.7000   37.3770 H   0  0  0  0  0  0  0  0  0  0  0  0
   38.5170   25.2150   33.9570 C   0  0  0  0  0  0  0  0  0  0  0  0
   37.4660   25.8490   34.5530 C   0  0  0  0  0  3  0  0  0  0  0  0
   37.6110   26.9660   35.3550 C   0  0  0  0  0  0  0  0  0  0  0  0
   36.7380   27.3990   35.7810 H   0  0  0  0  0  0  0  0  0  0  0  0
   38.8690   27.4390   35.5470 N   0  0  0  0  0  0  0  0  0  0  0  0
   39.9340   26.8270   34.9660 C   0  0  0  0  0  3  0  0  0  0  0  0
   39.7510   25.7370   34.1880 N   0  0  0  0  0  0  0  0  0  0  0  0
  1 16  1  0  0  0  0
  2  8  1  0  0  0  0
  2  1  1  0  0  0  0
  2  7  1  0  0  0  0
  3 10  1  0  0  0  0
  3  2  1  0  0  0  0
  4  5  1  0  0  0  0
  4  3  1  0  0  0  0
  5 13  1  0  0  0  0
  5  6  1  0  0  0  0
  6 14  1  6  0  0  0
  6  1  1  0  0  0  0
  6 24  1  0  0  0  0
  9  3  1  0  0  0  0
 11  4  1  0  0  0  0
 12  5  1  0  0  0  0
 15 21  1  0  0  0  0
 15 20  1  0  0  0  0
 16 15  2  0  0  0  0
 17 16  1  0  0  0  0
 17 18  2  0  0  0  0
 18 19  1  0  0  0  0
 19 20  2  0  0  0  0
 19 23  1  0  0  0  0
 22 17  1  0  0  0  0
 24 30  2  0  0  0  0
 24 25  1  0  0  0  0
 25 26  2  0  0  0  0
 26 28  1  0  0  0  0
 26 27  1  0  0  0  0
 29 28  2  0  0  0  0
 30 29  1  0  0  0  0
M  END
>  <minimizedAffinity>
-4.02337503

$$$$
