REMARK  Name = 
REMARK  4 active torsions:
REMARK  status: ('A' for Active; 'I' for Inactive)
REMARK    1  A    between atoms: C_3  and  C_10
REMARK    2  A    between atoms: C_8  and  C_15
REMARK    3  A    between atoms: C_15  and  O_17
REMARK    4  A    between atoms: O_17  and  C_23
REMARK                            x       y       z     vdW  Elec       q    Type
REMARK                         _______ _______ _______ _____ _____    ______ ____
ROOT
ATOM      1 CL   UNL     1      36.806  32.187  50.130  0.00  0.00    +0.000 Cl
ATOM      2  C   UNL     1      37.538  31.922  48.588  0.00  0.00    +0.000 A 
ATOM      3  C   UNL     1      36.964  30.910  47.887  0.00  0.00    +0.000 A 
ATOM      4  C   UNL     1      37.491  30.611  46.605  0.00  0.00    +0.000 A 
ATOM      5  C   UNL     1      38.539  31.308  46.083  0.00  0.00    +0.000 A 
ATOM      6  C   UNL     1      39.097  32.322  46.813  0.00  0.00    +0.000 A 
ATOM      7 CL   UNL     1      40.434  33.245  46.189  0.00  0.00    +0.000 Cl
ATOM      8  C   UNL     1      38.594  32.611  48.041  0.00  0.00    +0.000 A 
ATOM      9  H   UNL     1      37.099  29.823  45.976  0.00  0.00    +0.000 HD
ATOM     10  H   UNL     1      38.958  31.097  45.107  0.00  0.00    +0.000 HD
ENDROOT
BRANCH   3  12
ATOM     11  C   UNL     1      36.038  29.097  49.264  0.00  0.00    +0.000 A 
ATOM     12  C   UNL     1      35.833  30.026  48.241  0.00  0.00    +0.000 A 
ATOM     13  C   UNL     1      34.593  30.089  47.597  0.00  0.00    +0.000 A 
ATOM     14  N   UNL     1      33.639  29.214  48.024  0.00  0.00    +0.000 NA
ATOM     15  C   UNL     1      33.856  28.324  49.013  0.00  0.00    +0.000 A 
ATOM     16  N   UNL     1      35.075  28.263  49.645  0.00  0.00    +0.000 NA
ATOM     17  H   UNL     1      36.988  29.031  49.775  0.00  0.00    +0.000 HD
ATOM     18  H   UNL     1      34.456  30.807  46.817  0.00  0.00    +0.000 HD
ATOM     19  H   UNL     1      33.008  27.695  49.243  0.00  0.00    +0.000 HD
ENDBRANCH   3  12
BRANCH   8  20
ATOM     20  C   UNL     1      39.137  33.685  48.893  0.00  0.00    +0.000 C 
ATOM     21  O   UNL     1      39.279  34.888  48.673  0.00  0.00    +0.000 OA
BRANCH  20  22
ATOM     22  O   UNL     1      39.631  33.532  50.214  0.00  0.00    +0.000 OA
BRANCH  22  23
ATOM     23  C   UNL     1      40.117  34.633  50.908  0.00  0.00    +0.000 A 
ATOM     24  C   UNL     1      41.287  34.639  51.639  0.00  0.00    +0.000 A 
ATOM     25  C   UNL     1      41.591  35.825  52.251  0.00  0.00    +0.000 A 
ATOM     26  H   UNL     1      42.524  35.834  52.835  0.00  0.00    +0.000 HD
ATOM     27  N   UNL     1      40.817  36.921  52.159  0.00  0.00    +0.000 NA
ATOM     28  C   UNL     1      39.676  36.893  51.439  0.00  0.00    +0.000 A 
ATOM     29  N   UNL     1      39.343  35.730  50.817  0.00  0.00    +0.000 NA
ENDBRANCH  22  23
ENDBRANCH  20  22
ENDBRANCH   8  20
TORSDOF 4
