
 OpenBabel03272510273D

 43 47  0  0  1  0  0  0  0  0999 V2000
   35.8460   30.0170   46.4740 C   0  0  0  0  0  0  0  0  0  0  0  0
   36.9310   30.7490   46.9570 C   0  0  0  0  0  0  0  0  0  0  0  0
   37.6590   31.5900   46.1240 C   0  0  0  0  0  0  0  0  0  0  0  0
   37.2470   31.6570   44.7970 C   0  0  0  0  0  0  0  0  0  0  0  0
   37.7990   32.4000   43.7950 N   0  0  0  0  0  0  0  0  0  0  0  0
   37.0790   32.1490   42.6930 C   0  0  0  0  0  0  0  0  0  0  0  0
   36.1190   31.2920   42.9670 N   0  0  0  0  0  0  0  0  0  0  0  0
   36.1840   30.9550   44.2790 C   0  0  0  0  0  0  0  0  0  0  0  0
   35.4670   30.1150   45.1390 C   0  0  0  0  0  0  0  0  0  0  0  0
   35.2640   29.3590   47.0950 H   0  0  0  0  0  0  0  0  0  0  0  0
   38.4960   32.1510   46.5110 H   0  0  0  0  0  0  0  0  0  0  0  0
   38.6330   33.0430   43.8980 H   0  0  0  0  0  0  0  0  0  0  0  0
   34.6350   29.5730   44.7070 H   0  0  0  0  0  0  0  0  0  0  0  0
   38.3730   31.1370   50.3990 C   0  0  0  0  0  0  0  0  0  0  0  0
   38.1260   31.3940   49.0640 C   0  0  0  0  0  0  0  0  0  0  0  0
   37.2540   30.5720   48.3590 C   0  0  0  0  0  0  0  0  0  0  0  0
   36.6730   29.5320   49.0300 N   0  0  0  0  0  0  0  0  0  0  0  0
   36.9260   29.2930   50.3420 C   0  0  0  0  0  0  0  0  0  0  0  0
   37.7530   30.0750   51.0020 N   0  0  0  0  0  0  0  0  0  0  0  0
   39.0380   31.7580   50.9490 H   0  0  0  0  0  0  0  0  0  0  0  0
   38.5870   32.2190   48.5350 H   0  0  0  0  0  0  0  0  0  0  0  0
   36.4210   28.4350   50.8120 H   0  0  0  0  0  0  0  0  0  0  0  0
   37.3760   32.7550   41.4610 O   0  0  0  0  0  0  0  0  0  0  0  0
   35.6910   34.2560   41.8120 N   0  0  0  0  0  0  0  0  0  0  0  0
   36.2800   33.3660   40.7940 C   0  0  1  0  0  0  0  0  0  0  0  0
   36.7020   34.1680   39.6530 C   0  0  0  0  0  0  0  0  0  0  0  0
   35.5620   34.7390   39.0580 O   0  0  0  0  0  0  0  0  0  0  0  0
   34.7750   35.4740   39.9010 C   0  0  0  0  0  0  0  0  0  0  0  0
   34.4920   34.7940   41.2040 C   0  0  1  0  0  0  0  0  0  0  0  0
   35.4070   33.6220   42.5940 H   0  0  0  0  0  0  0  0  0  0  0  0
   35.5560   32.6120   40.4640 H   0  0  0  0  0  0  0  0  0  0  0  0
   37.3910   34.9670   39.6870 H   0  0  0  0  0  0  0  0  0  0  0  0
   37.0720   33.4550   38.8560 H   0  0  0  0  0  0  0  0  0  0  0  0
   35.3390   36.4130   40.1320 H   0  0  0  0  0  0  0  0  0  0  0  0
   33.8290   35.6810   39.3780 H   0  0  0  0  0  0  0  0  0  0  0  0
   34.1710   35.6190   41.9060 H   0  0  0  0  0  0  0  0  0  0  0  0
   33.3840   33.8380   41.1890 C   0  0  0  0  0  0  0  0  0  0  0  0
   32.5700   33.4080   40.1810 C   0  0  0  0  0  3  0  0  0  0  0  0
   31.5710   32.4830   40.4010 C   0  0  0  0  0  0  0  0  0  0  0  0
   30.9910   32.2230   39.5170 H   0  0  0  0  0  0  0  0  0  0  0  0
   31.3520   31.9550   41.6380 N   0  0  0  0  0  0  0  0  0  0  0  0
   32.1690   32.3960   42.6130 C   0  0  0  0  0  3  0  0  0  0  0  0
   33.1680   33.3110   42.4310 N   0  0  0  0  0  0  0  0  0  0  0  0
  1  2  1  0  0  0  0
  1 10  1  0  0  0  0
  2 16  1  0  0  0  0
  3 11  1  0  0  0  0
  3  2  2  0  0  0  0
  4  3  1  0  0  0  0
  5 12  1  0  0  0  0
  5  4  1  0  0  0  0
  6  7  2  0  0  0  0
  6  5  1  0  0  0  0
  7  8  1  0  0  0  0
  8  4  2  0  0  0  0
  8  9  1  0  0  0  0
  9  1  2  0  0  0  0
 13  9  1  0  0  0  0
 14 20  1  0  0  0  0
 14 19  1  0  0  0  0
 15 14  2  0  0  0  0
 16 17  2  0  0  0  0
 16 15  1  0  0  0  0
 17 18  1  0  0  0  0
 18 22  1  0  0  0  0
 18 19  2  0  0  0  0
 21 15  1  0  0  0  0
 23  6  1  0  0  0  0
 24 30  1  0  0  0  0
 25 31  1  6  0  0  0
 25 23  1  0  0  0  0
 25 24  1  0  0  0  0
 26 32  1  0  0  0  0
 26 25  1  0  0  0  0
 27 26  1  0  0  0  0
 27 28  1  0  0  0  0
 28 34  1  0  0  0  0
 28 29  1  0  0  0  0
 29 24  1  0  0  0  0
 29 36  1  1  0  0  0
 33 26  1  0  0  0  0
 35 28  1  0  0  0  0
 37 29  1  0  0  0  0
 37 43  1  0  0  0  0
 38 39  1  0  0  0  0
 38 37  2  0  0  0  0
 39 41  2  0  0  0  0
 40 39  1  0  0  0  0
 41 42  1  0  0  0  0
 43 42  2  0  0  0  0
M  END
>  <minimizedAffinity>
-5.15131283

>  <minimizedRMSD>
5.13672161

$$$$
