
 OpenBabel03272507153D

 38 42  0  0  0  0  0  0  0  0999 V2000
   37.2230   27.7940   32.4710 C   0  0  0  0  0  0  0  0  0  0  0  0
   36.5670   28.3980   31.4590 C   0  0  0  0  0  0  0  0  0  0  0  0
   35.6240   29.2510   32.0430 C   0  0  0  0  0  0  0  0  0  0  0  0
   35.7800   29.0990   33.4140 C   0  0  0  0  0  0  0  0  0  0  0  0
   36.7350   28.2300   33.5920 O   0  0  0  0  0  0  0  0  0  0  0  0
   36.7080   28.2770   30.3830 H   0  0  0  0  0  0  0  0  0  0  0  0
   34.9570   29.8610   31.4630 H   0  0  0  0  0  0  0  0  0  0  0  0
   33.6310   29.5750   34.5840 C   0  0  0  0  0  0  0  0  0  0  0  0
   34.9700   29.8280   34.3860 C   0  0  0  0  0  0  0  0  0  0  0  0
   35.6270   30.8110   35.1170 C   0  0  0  0  0  0  0  0  0  0  0  0
   34.9010   31.5210   36.0430 C   0  0  0  0  0  0  0  0  0  0  0  0
   35.2700   32.5100   36.8760 N   0  0  0  0  0  0  0  0  0  0  0  0
   34.1930   32.8640   37.5740 N   0  0  0  0  0  0  0  0  0  0  0  0
   33.1460   32.1150   37.1970 C   0  0  0  0  0  0  0  0  0  0  0  0
   33.5640   31.2400   36.2150 C   0  0  0  0  0  0  0  0  0  0  0  0
   32.8940   30.2620   35.4930 C   0  0  0  0  0  0  0  0  0  0  0  0
   33.1840   28.7920   33.9770 H   0  0  0  0  0  0  0  0  0  0  0  0
   36.6890   31.0660   35.0110 H   0  0  0  0  0  0  0  0  0  0  0  0
   36.2050   32.9630   37.0040 H   0  0  0  0  0  0  0  0  0  0  0  0
   32.1380   32.1680   37.5840 H   0  0  0  0  0  0  0  0  0  0  0  0
   31.8450   30.0550   35.6410 H   0  0  0  0  0  0  0  0  0  0  0  0
   38.2860   26.8280   32.2290 C   0  0  0  0  0  0  0  0  0  0  0  0
   39.2770   27.1710   31.5400 O   0  0  0  0  0  0  0  0  0  0  0  0
   38.1410   25.5160   32.8030 C   0  0  0  0  0  0  0  0  0  0  0  0
   37.7100   24.4860   31.9630 C   0  0  0  0  0  0  0  0  0  0  0  0
   37.5590   23.2120   32.4820 C   0  0  0  0  0  0  0  0  0  0  0  0
   37.8450   23.0380   33.8020 N   0  0  0  0  0  0  0  0  0  0  0  0
   38.2530   24.0270   34.5890 C   0  0  0  0  0  0  0  0  0  0  0  0
   38.4020   25.2650   34.0940 N   0  0  0  0  0  0  0  0  0  0  0  0
   37.4750   24.5990   30.9080 H   0  0  0  0  0  0  0  0  0  0  0  0
   37.2320   22.3660   31.9030 H   0  0  0  0  0  0  0  0  0  0  0  0
   38.5430   23.7700   35.9960 C   0  0  0  0  0  0  0  0  0  0  0  0
   37.7520   24.3220   36.9830 C   0  0  0  0  0  3  0  0  0  0  0  0
   37.9410   24.1400   38.3570 C   0  0  0  0  0  0  0  0  0  0  0  0
   37.2750   24.6090   39.0640 H   0  0  0  0  0  0  0  0  0  0  0  0
   38.9960   23.3520   38.6870 N   0  0  0  0  0  0  0  0  0  0  0  0
   39.7810   22.8020   37.7440 C   0  0  0  0  0  3  0  0  0  0  0  0
   39.5790   22.9930   36.4080 N   0  0  0  0  0  0  0  0  0  0  0  0
  1  5  1  0  0  0  0
  2  3  1  0  0  0  0
  2  1  2  0  0  0  0
  3  4  2  0  0  0  0
  4  5  1  0  0  0  0
  4  9  1  0  0  0  0
  6  2  1  0  0  0  0
  7  3  1  0  0  0  0
  8 16  1  0  0  0  0
  9  8  2  0  0  0  0
  9 10  1  0  0  0  0
 10 11  2  0  0  0  0
 11 15  1  0  0  0  0
 11 12  1  0  0  0  0
 12 19  1  0  0  0  0
 12 13  1  0  0  0  0
 14 13  2  0  0  0  0
 14 20  1  0  0  0  0
 15 14  1  0  0  0  0
 16 21  1  0  0  0  0
 16 15  2  0  0  0  0
 17  8  1  0  0  0  0
 18 10  1  0  0  0  0
 22  1  1  0  0  0  0
 22 24  1  0  0  0  0
 23 22  2  0  0  0  0
 24 29  1  0  0  0  0
 25 26  1  0  0  0  0
 25 24  2  0  0  0  0
 26 27  2  0  0  0  0
 27 28  1  0  0  0  0
 28 32  1  0  0  0  0
 29 28  2  0  0  0  0
 30 25  1  0  0  0  0
 31 26  1  0  0  0  0
 32 38  2  0  0  0  0
 32 33  1  0  0  0  0
 33 34  2  0  0  0  0
 34 36  1  0  0  0  0
 34 35  1  0  0  0  0
 37 36  2  0  0  0  0
 38 37  1  0  0  0  0
M  END
>  <minimizedAffinity>
-6.83096123

$$$$

 OpenBabel03272507153D

 38 42  0  0  0  0  0  0  0  0999 V2000
   37.4780   26.3910   33.8150 C   0  0  0  0  0  0  0  0  0  0  0  0
   37.2600   26.7250   35.1040 C   0  0  0  0  0  0  0  0  0  0  0  0
   38.2100   26.0340   35.8640 C   0  0  0  0  0  0  0  0  0  0  0  0
   38.9620   25.3050   34.9530 C   0  0  0  0  0  0  0  0  0  0  0  0
   38.4760   25.5630   33.7710 O   0  0  0  0  0  0  0  0  0  0  0  0
   36.5060   27.3970   35.5190 H   0  0  0  0  0  0  0  0  0  0  0  0
   38.2670   26.1170   36.9340 H   0  0  0  0  0  0  0  0  0  0  0  0
   41.3590   24.6240   34.9060 C   0  0  0  0  0  0  0  0  0  0  0  0
   40.0690   24.4420   35.3550 C   0  0  0  0  0  0  0  0  0  0  0  0
   39.7550   23.4080   36.2270 C   0  0  0  0  0  0  0  0  0  0  0  0
   40.7690   22.5720   36.6300 C   0  0  0  0  0  0  0  0  0  0  0  0
   40.7550   21.5080   37.4530 N   0  0  0  0  0  0  0  0  0  0  0  0
   41.9990   21.0400   37.5170 N   0  0  0  0  0  0  0  0  0  0  0  0
   42.8030   21.7880   36.7480 C   0  0  0  0  0  0  0  0  0  0  0  0
   42.0470   22.7830   36.1620 C   0  0  0  0  0  0  0  0  0  0  0  0
   42.3760   23.8120   35.2900 C   0  0  0  0  0  0  0  0  0  0  0  0
   41.5310   25.4530   34.2260 H   0  0  0  0  0  0  0  0  0  0  0  0
   38.7520   23.2040   36.6230 H   0  0  0  0  0  0  0  0  0  0  0  0
   39.9570   21.0780   37.9760 H   0  0  0  0  0  0  0  0  0  0  0  0
   43.8650   21.6560   36.5980 H   0  0  0  0  0  0  0  0  0  0  0  0
   43.3840   23.9630   34.9340 H   0  0  0  0  0  0  0  0  0  0  0  0
   36.6650   26.9300   32.7330 C   0  0  0  0  0  0  0  0  0  0  0  0
   36.2990   26.1670   31.8070 O   0  0  0  0  0  0  0  0  0  0  0  0
   36.3200   28.3260   32.7880 C   0  0  0  0  0  0  0  0  0  0  0  0
   36.6450   29.1170   31.6840 C   0  0  0  0  0  0  0  0  0  0  0  0
   36.3270   30.4640   31.7030 C   0  0  0  0  0  0  0  0  0  0  0  0
   35.7080   30.9430   32.8180 N   0  0  0  0  0  0  0  0  0  0  0  0
   35.4060   30.1790   33.8610 C   0  0  0  0  0  0  0  0  0  0  0  0
   35.7100   28.8720   33.8500 N   0  0  0  0  0  0  0  0  0  0  0  0
   37.1380   28.7600   30.7840 H   0  0  0  0  0  0  0  0  0  0  0  0
   36.5430   31.1400   30.8950 H   0  0  0  0  0  0  0  0  0  0  0  0
   34.7410   30.7590   35.0240 C   0  0  0  0  0  0  0  0  0  0  0  0
   35.4280   31.6050   35.8700 C   0  0  0  0  0  3  0  0  0  0  0  0
   34.8880   32.2130   37.0090 C   0  0  0  0  0  0  0  0  0  0  0  0
   35.4950   32.8630   37.6180 H   0  0  0  0  0  0  0  0  0  0  0  0
   33.5860   31.9120   37.2510 N   0  0  0  0  0  0  0  0  0  0  0  0
   32.8960   31.0890   36.4410 C   0  0  0  0  0  3  0  0  0  0  0  0
   33.4420   30.5070   35.3350 N   0  0  0  0  0  0  0  0  0  0  0  0
  1  2  2  0  0  0  0
  2  6  1  0  0  0  0
  2  3  1  0  0  0  0
  3  7  1  0  0  0  0
  4  9  1  0  0  0  0
  4  3  2  0  0  0  0
  5  1  1  0  0  0  0
  5  4  1  0  0  0  0
  8 16  2  0  0  0  0
  8  9  1  0  0  0  0
  9 10  2  0  0  0  0
 10 18  1  0  0  0  0
 10 11  1  0  0  0  0
 11 12  1  0  0  0  0
 12 13  1  0  0  0  0
 12 19  1  0  0  0  0
 14 13  2  0  0  0  0
 15 11  2  0  0  0  0
 15 14  1  0  0  0  0
 16 15  1  0  0  0  0
 17  8  1  0  0  0  0
 20 14  1  0  0  0  0
 21 16  1  0  0  0  0
 22 24  1  0  0  0  0
 22  1  1  0  0  0  0
 23 22  2  0  0  0  0
 24 29  1  0  0  0  0
 25 26  1  0  0  0  0
 25 24  2  0  0  0  0
 26 27  2  0  0  0  0
 27 28  1  0  0  0  0
 28 32  1  0  0  0  0
 29 28  2  0  0  0  0
 30 25  1  0  0  0  0
 31 26  1  0  0  0  0
 32 38  2  0  0  0  0
 32 33  1  0  0  0  0
 33 34  2  0  0  0  0
 34 36  1  0  0  0  0
 34 35  1  0  0  0  0
 37 36  2  0  0  0  0
 38 37  1  0  0  0  0
M  END
>  <minimizedAffinity>
-6.71666718

$$$$

 OpenBabel03272507153D

 38 42  0  0  0  0  0  0  0  0999 V2000
   37.2720   27.8830   32.4230 C   0  0  0  0  0  0  0  0  0  0  0  0
   36.6360   28.5770   31.4560 C   0  0  0  0  0  0  0  0  0  0  0  0
   35.7700   29.4660   32.1030 C   0  0  0  0  0  0  0  0  0  0  0  0
   35.9470   29.2410   33.4610 C   0  0  0  0  0  0  0  0  0  0  0  0
   36.8420   28.3000   33.5740 O   0  0  0  0  0  0  0  0  0  0  0  0
   36.7430   28.4960   30.3720 H   0  0  0  0  0  0  0  0  0  0  0  0
   35.1350   30.1470   31.5680 H   0  0  0  0  0  0  0  0  0  0  0  0
   35.8090   30.9180   35.3000 C   0  0  0  0  0  0  0  0  0  0  0  0
   35.2140   29.9790   34.4850 C   0  0  0  0  0  0  0  0  0  0  0  0
   33.8620   29.6850   34.6030 C   0  0  0  0  0  0  0  0  0  0  0  0
   33.1350   30.3590   35.5560 C   0  0  0  0  0  0  0  0  0  0  0  0
   31.8340   30.2790   35.8870 N   0  0  0  0  0  0  0  0  0  0  0  0
   31.6220   31.1420   36.8780 N   0  0  0  0  0  0  0  0  0  0  0  0
   32.7680   31.7680   37.1820 C   0  0  0  0  0  0  0  0  0  0  0  0
   33.7620   31.2910   36.3530 C   0  0  0  0  0  0  0  0  0  0  0  0
   35.1120   31.5950   36.2470 C   0  0  0  0  0  0  0  0  0  0  0  0
   36.8710   31.0960   35.1510 H   0  0  0  0  0  0  0  0  0  0  0  0
   33.3240   28.9520   33.9910 H   0  0  0  0  0  0  0  0  0  0  0  0
   31.0780   29.6770   35.4840 H   0  0  0  0  0  0  0  0  0  0  0  0
   32.9130   32.5230   37.9430 H   0  0  0  0  0  0  0  0  0  0  0  0
   35.5880   32.3290   36.8800 H   0  0  0  0  0  0  0  0  0  0  0  0
   38.2580   26.8570   32.1110 C   0  0  0  0  0  0  0  0  0  0  0  0
   39.2130   27.1420   31.3480 O   0  0  0  0  0  0  0  0  0  0  0  0
   38.0810   25.5570   32.7020 C   0  0  0  0  0  0  0  0  0  0  0  0
   37.6530   24.5200   31.8700 C   0  0  0  0  0  0  0  0  0  0  0  0
   37.4730   23.2560   32.4070 C   0  0  0  0  0  0  0  0  0  0  0  0
   37.7280   23.1010   33.7360 N   0  0  0  0  0  0  0  0  0  0  0  0
   38.1330   24.0970   34.5140 C   0  0  0  0  0  0  0  0  0  0  0  0
   38.3110   25.3240   34.0020 N   0  0  0  0  0  0  0  0  0  0  0  0
   37.4440   24.6170   30.8090 H   0  0  0  0  0  0  0  0  0  0  0  0
   37.1470   22.4060   31.8350 H   0  0  0  0  0  0  0  0  0  0  0  0
   38.3880   23.8590   35.9320 C   0  0  0  0  0  0  0  0  0  0  0  0
   39.4720   23.1020   36.3280 C   0  0  0  0  0  3  0  0  0  0  0  0
   39.8070   22.8140   37.6560 C   0  0  0  0  0  0  0  0  0  0  0  0
   40.6740   22.2130   37.8800 H   0  0  0  0  0  0  0  0  0  0  0  0
   38.9680   23.3450   38.5820 N   0  0  0  0  0  0  0  0  0  0  0  0
   37.9050   24.0860   38.2210 C   0  0  0  0  0  3  0  0  0  0  0  0
   37.5970   24.3550   36.9190 N   0  0  0  0  0  0  0  0  0  0  0  0
  1  5  1  0  0  0  0
  2  3  1  0  0  0  0
  2  1  2  0  0  0  0
  3  4  2  0  0  0  0
  4  5  1  0  0  0  0
  4  9  1  0  0  0  0
  6  2  1  0  0  0  0
  7  3  1  0  0  0  0
  8 16  1  0  0  0  0
  9 10  1  0  0  0  0
  9  8  2  0  0  0  0
 10 11  2  0  0  0  0
 11 12  1  0  0  0  0
 11 15  1  0  0  0  0
 12 13  1  0  0  0  0
 13 14  2  0  0  0  0
 14 20  1  0  0  0  0
 15 14  1  0  0  0  0
 16 15  2  0  0  0  0
 16 21  1  0  0  0  0
 17  8  1  0  0  0  0
 18 10  1  0  0  0  0
 19 12  1  0  0  0  0
 22  1  1  0  0  0  0
 22 24  1  0  0  0  0
 23 22  2  0  0  0  0
 24 29  1  0  0  0  0
 25 26  1  0  0  0  0
 25 24  2  0  0  0  0
 26 27  2  0  0  0  0
 27 28  1  0  0  0  0
 28 32  1  0  0  0  0
 29 28  2  0  0  0  0
 30 25  1  0  0  0  0
 31 26  1  0  0  0  0
 32 33  2  0  0  0  0
 32 38  1  0  0  0  0
 33 34  1  0  0  0  0
 34 35  1  0  0  0  0
 34 36  2  0  0  0  0
 37 36  1  0  0  0  0
 38 37  2  0  0  0  0
M  END
>  <minimizedAffinity>
-6.64404488

$$$$

 OpenBabel03272507153D

 38 42  0  0  0  0  0  0  0  0999 V2000
   36.9540   27.9330   32.3370 C   0  0  0  0  0  0  0  0  0  0  0  0
   36.3950   28.7390   31.4090 C   0  0  0  0  0  0  0  0  0  0  0  0
   35.6530   29.6990   32.1060 C   0  0  0  0  0  0  0  0  0  0  0  0
   35.8190   29.3980   33.4500 C   0  0  0  0  0  0  0  0  0  0  0  0
   36.5940   28.3520   33.5110 O   0  0  0  0  0  0  0  0  0  0  0  0
   36.4770   28.6900   30.3220 H   0  0  0  0  0  0  0  0  0  0  0  0
   35.0990   30.4740   31.6100 H   0  0  0  0  0  0  0  0  0  0  0  0
   35.9130   30.9960   35.3620 C   0  0  0  0  0  0  0  0  0  0  0  0
   35.1960   30.1780   34.5170 C   0  0  0  0  0  0  0  0  0  0  0  0
   33.8180   30.0530   34.6420 C   0  0  0  0  0  0  0  0  0  0  0  0
   33.1920   30.7700   35.6330 C   0  0  0  0  0  0  0  0  0  0  0  0
   31.8940   30.8410   35.9790 N   0  0  0  0  0  0  0  0  0  0  0  0
   31.8030   31.6790   37.0090 N   0  0  0  0  0  0  0  0  0  0  0  0
   33.0220   32.1410   37.3230 C   0  0  0  0  0  0  0  0  0  0  0  0
   33.9390   31.5790   36.4600 C   0  0  0  0  0  0  0  0  0  0  0  0
   35.3160   31.7140   36.3470 C   0  0  0  0  0  0  0  0  0  0  0  0
   36.9870   31.0450   35.2040 H   0  0  0  0  0  0  0  0  0  0  0  0
   33.1850   29.4210   34.0060 H   0  0  0  0  0  0  0  0  0  0  0  0
   31.0640   30.3580   35.5630 H   0  0  0  0  0  0  0  0  0  0  0  0
   33.2690   32.8370   38.1130 H   0  0  0  0  0  0  0  0  0  0  0  0
   35.8880   32.3530   37.0030 H   0  0  0  0  0  0  0  0  0  0  0  0
   37.8040   26.8100   31.9660 C   0  0  0  0  0  0  0  0  0  0  0  0
   37.6020   26.2260   30.8740 O   0  0  0  0  0  0  0  0  0  0  0  0
   38.8430   26.4260   32.8850 C   0  0  0  0  0  0  0  0  0  0  0  0
   40.1430   26.8550   32.6090 C   0  0  0  0  0  0  0  0  0  0  0  0
   41.1670   26.5030   33.4710 C   0  0  0  0  0  0  0  0  0  0  0  0
   40.8370   25.7460   34.5550 N   0  0  0  0  0  0  0  0  0  0  0  0
   39.5970   25.3440   34.8040 C   0  0  0  0  0  0  0  0  0  0  0  0
   38.5990   25.6810   33.9730 N   0  0  0  0  0  0  0  0  0  0  0  0
   40.4320   27.4590   31.7530 H   0  0  0  0  0  0  0  0  0  0  0  0
   42.1930   26.7940   33.3300 H   0  0  0  0  0  0  0  0  0  0  0  0
   39.3140   24.5340   35.9850 C   0  0  0  0  0  0  0  0  0  0  0  0
   38.2200   24.8150   36.7780 C   0  0  0  0  0  3  0  0  0  0  0  0
   37.8590   24.1050   37.9280 C   0  0  0  0  0  0  0  0  0  0  0  0
   36.9860   24.3910   38.4920 H   0  0  0  0  0  0  0  0  0  0  0  0
   38.6830   23.0710   38.2390 N   0  0  0  0  0  0  0  0  0  0  0  0
   39.7550   22.7780   37.4830 C   0  0  0  0  0  3  0  0  0  0  0  0
   40.0890   23.4840   36.3650 N   0  0  0  0  0  0  0  0  0  0  0  0
  1  5  1  0  0  0  0
  2  3  1  0  0  0  0
  2  1  2  0  0  0  0
  3  4  2  0  0  0  0
  4  5  1  0  0  0  0
  4  9  1  0  0  0  0
  6  2  1  0  0  0  0
  7  3  1  0  0  0  0
  8 16  1  0  0  0  0
  9 10  1  0  0  0  0
  9  8  2  0  0  0  0
 10 11  2  0  0  0  0
 11 12  1  0  0  0  0
 11 15  1  0  0  0  0
 12 13  1  0  0  0  0
 13 14  2  0  0  0  0
 14 20  1  0  0  0  0
 15 14  1  0  0  0  0
 16 15  2  0  0  0  0
 16 21  1  0  0  0  0
 17  8  1  0  0  0  0
 18 10  1  0  0  0  0
 19 12  1  0  0  0  0
 22  1  1  0  0  0  0
 22 24  1  0  0  0  0
 23 22  2  0  0  0  0
 24 29  1  0  0  0  0
 25 24  2  0  0  0  0
 25 26  1  0  0  0  0
 26 27  2  0  0  0  0
 27 28  1  0  0  0  0
 28 32  1  0  0  0  0
 29 28  2  0  0  0  0
 30 25  1  0  0  0  0
 31 26  1  0  0  0  0
 32 38  2  0  0  0  0
 32 33  1  0  0  0  0
 33 34  2  0  0  0  0
 34 36  1  0  0  0  0
 34 35  1  0  0  0  0
 37 36  2  0  0  0  0
 38 37  1  0  0  0  0
M  END
>  <minimizedAffinity>
-6.547153

$$$$

 OpenBabel03272507153D

 38 42  0  0  0  0  0  0  0  0999 V2000
   38.4020   26.4330   33.6650 C   0  0  0  0  0  0  0  0  0  0  0  0
   38.7000   27.2010   34.7340 C   0  0  0  0  0  0  0  0  0  0  0  0
   39.6260   26.4830   35.4980 C   0  0  0  0  0  0  0  0  0  0  0  0
   39.8320   25.2910   34.8170 C   0  0  0  0  0  0  0  0  0  0  0  0
   39.0810   25.3310   33.7520 O   0  0  0  0  0  0  0  0  0  0  0  0
   38.3190   28.1910   34.9930 H   0  0  0  0  0  0  0  0  0  0  0  0
   40.0390   26.8630   36.4140 H   0  0  0  0  0  0  0  0  0  0  0  0
   42.0190   24.0960   34.8030 C   0  0  0  0  0  0  0  0  0  0  0  0
   40.7430   24.2550   35.2960 C   0  0  0  0  0  0  0  0  0  0  0  0
   40.2510   23.4200   36.2920 C   0  0  0  0  0  0  0  0  0  0  0  0
   41.0770   22.4310   36.7700 C   0  0  0  0  0  0  0  0  0  0  0  0
   40.8710   21.4960   37.7140 N   0  0  0  0  0  0  0  0  0  0  0  0
   41.9850   20.7740   37.8090 N   0  0  0  0  0  0  0  0  0  0  0  0
   42.8960   21.2360   36.9400 C   0  0  0  0  0  0  0  0  0  0  0  0
   42.3480   22.3010   36.2550 C   0  0  0  0  0  0  0  0  0  0  0  0
   42.8520   23.1270   35.2600 C   0  0  0  0  0  0  0  0  0  0  0  0
   42.3350   24.7860   34.0250 H   0  0  0  0  0  0  0  0  0  0  0  0
   39.2480   23.4890   36.7290 H   0  0  0  0  0  0  0  0  0  0  0  0
   40.0230   21.3130   38.3010 H   0  0  0  0  0  0  0  0  0  0  0  0
   43.8970   20.8560   36.7840 H   0  0  0  0  0  0  0  0  0  0  0  0
   43.8510   23.0110   34.8670 H   0  0  0  0  0  0  0  0  0  0  0  0
   37.4580   26.8700   32.6450 C   0  0  0  0  0  0  0  0  0  0  0  0
   37.4240   28.0830   32.3250 O   0  0  0  0  0  0  0  0  0  0  0  0
   36.6070   25.8730   32.0510 C   0  0  0  0  0  0  0  0  0  0  0  0
   35.5600   26.3160   31.2390 C   0  0  0  0  0  0  0  0  0  0  0  0
   34.7210   25.3840   30.6520 C   0  0  0  0  0  0  0  0  0  0  0  0
   34.9730   24.0700   30.9090 N   0  0  0  0  0  0  0  0  0  0  0  0
   35.9710   23.6640   31.6840 C   0  0  0  0  0  0  0  0  0  0  0  0
   36.7890   24.5610   32.2560 N   0  0  0  0  0  0  0  0  0  0  0  0
   35.3380   27.3570   31.0190 H   0  0  0  0  0  0  0  0  0  0  0  0
   33.8950   25.6430   30.0150 H   0  0  0  0  0  0  0  0  0  0  0  0
   36.1830   22.2380   31.9160 C   0  0  0  0  0  0  0  0  0  0  0  0
   35.1420   21.4380   32.3410 C   0  0  0  0  0  3  0  0  0  0  0  0
   35.2370   20.0650   32.5920 C   0  0  0  0  0  0  0  0  0  0  0  0
   34.3720   19.5120   32.9230 H   0  0  0  0  0  0  0  0  0  0  0  0
   36.4690   19.5330   32.3850 N   0  0  0  0  0  0  0  0  0  0  0  0
   37.4990   20.2920   31.9710 C   0  0  0  0  0  3  0  0  0  0  0  0
   37.3850   21.6300   31.7320 N   0  0  0  0  0  0  0  0  0  0  0  0
  1  5  1  0  0  0  0
  1  2  2  0  0  0  0
  2  6  1  0  0  0  0
  2  3  1  0  0  0  0
  3  7  1  0  0  0  0
  4  9  1  0  0  0  0
  4  3  2  0  0  0  0
  5  4  1  0  0  0  0
  8 16  2  0  0  0  0
  8  9  1  0  0  0  0
  9 10  2  0  0  0  0
 10 18  1  0  0  0  0
 10 11  1  0  0  0  0
 11 12  1  0  0  0  0
 12 13  1  0  0  0  0
 12 19  1  0  0  0  0
 14 13  2  0  0  0  0
 15 11  2  0  0  0  0
 15 14  1  0  0  0  0
 16 15  1  0  0  0  0
 17  8  1  0  0  0  0
 20 14  1  0  0  0  0
 21 16  1  0  0  0  0
 22  1  1  0  0  0  0
 23 22  2  0  0  0  0
 24 29  1  0  0  0  0
 24 22  1  0  0  0  0
 25 24  2  0  0  0  0
 26 27  2  0  0  0  0
 26 25  1  0  0  0  0
 27 28  1  0  0  0  0
 28 32  1  0  0  0  0
 28 29  2  0  0  0  0
 30 25  1  0  0  0  0
 31 26  1  0  0  0  0
 32 33  1  0  0  0  0
 33 34  2  0  0  0  0
 34 35  1  0  0  0  0
 36 34  1  0  0  0  0
 37 36  2  0  0  0  0
 38 32  2  0  0  0  0
 38 37  1  0  0  0  0
M  END
>  <minimizedAffinity>
-6.44100142

$$$$

 OpenBabel03272507153D

 38 42  0  0  0  0  0  0  0  0999 V2000
   36.3560   25.8010   31.8670 C   0  0  0  0  0  0  0  0  0  0  0  0
   35.3030   25.7170   31.0270 C   0  0  0  0  0  0  0  0  0  0  0  0
   35.0310   24.3550   30.8580 C   0  0  0  0  0  0  0  0  0  0  0  0
   35.9690   23.6870   31.6330 C   0  0  0  0  0  0  0  0  0  0  0  0
   36.7120   24.5970   32.1960 O   0  0  0  0  0  0  0  0  0  0  0  0
   34.7430   26.5240   30.5490 H   0  0  0  0  0  0  0  0  0  0  0  0
   34.2340   23.9970   30.2330 H   0  0  0  0  0  0  0  0  0  0  0  0
   35.0160   21.4820   32.3000 C   0  0  0  0  0  0  0  0  0  0  0  0
   36.0210   22.2300   31.7270 C   0  0  0  0  0  0  0  0  0  0  0  0
   37.1540   21.6220   31.2010 C   0  0  0  0  0  0  0  0  0  0  0  0
   37.2420   20.2520   31.2700 C   0  0  0  0  0  0  0  0  0  0  0  0
   38.2060   19.4130   30.8500 N   0  0  0  0  0  0  0  0  0  0  0  0
   37.8150   18.1770   31.1520 N   0  0  0  0  0  0  0  0  0  0  0  0
   36.6190   18.2180   31.7570 C   0  0  0  0  0  0  0  0  0  0  0  0
   36.2200   19.5350   31.8500 C   0  0  0  0  0  0  0  0  0  0  0  0
   35.0820   20.1290   32.3790 C   0  0  0  0  0  0  0  0  0  0  0  0
   34.1600   22.0250   32.6900 H   0  0  0  0  0  0  0  0  0  0  0  0
   37.9910   22.1540   30.7320 H   0  0  0  0  0  0  0  0  0  0  0  0
   39.1130   19.6220   30.3720 H   0  0  0  0  0  0  0  0  0  0  0  0
   36.0440   17.3760   32.1180 H   0  0  0  0  0  0  0  0  0  0  0  0
   34.2880   19.5510   32.8300 H   0  0  0  0  0  0  0  0  0  0  0  0
   36.9170   27.0830   32.2700 C   0  0  0  0  0  0  0  0  0  0  0  0
   36.6220   28.1110   31.6140 O   0  0  0  0  0  0  0  0  0  0  0  0
   37.7900   27.1020   33.4140 C   0  0  0  0  0  0  0  0  0  0  0  0
   37.2220   27.3880   34.6580 C   0  0  0  0  0  0  0  0  0  0  0  0
   38.0330   27.4140   35.7790 C   0  0  0  0  0  0  0  0  0  0  0  0
   39.3580   27.1550   35.5970 N   0  0  0  0  0  0  0  0  0  0  0  0
   39.8840   26.8850   34.4080 C   0  0  0  0  0  0  0  0  0  0  0  0
   39.1050   26.8580   33.3160 N   0  0  0  0  0  0  0  0  0  0  0  0
   36.1700   27.5980   34.8290 H   0  0  0  0  0  0  0  0  0  0  0  0
   37.6740   27.6260   36.7710 H   0  0  0  0  0  0  0  0  0  0  0  0
   41.3140   26.6170   34.2850 C   0  0  0  0  0  0  0  0  0  0  0  0
   42.0890   27.3510   33.4100 C   0  0  0  0  0  3  0  0  0  0  0  0
   43.4630   27.1750   33.2150 C   0  0  0  0  0  0  0  0  0  0  0  0
   43.9950   27.7930   32.5090 H   0  0  0  0  0  0  0  0  0  0  0  0
   44.0240   26.1960   33.9700 N   0  0  0  0  0  0  0  0  0  0  0  0
   43.2900   25.4670   34.8300 C   0  0  0  0  0  3  0  0  0  0  0  0
   41.9500   25.6550   35.0040 N   0  0  0  0  0  0  0  0  0  0  0  0
  1  5  1  0  0  0  0
  1 22  1  0  0  0  0
  2  1  2  0  0  0  0
  3  2  1  0  0  0  0
  3  4  2  0  0  0  0
  4  9  1  0  0  0  0
  4  5  1  0  0  0  0
  6  2  1  0  0  0  0
  7  3  1  0  0  0  0
  8 16  1  0  0  0  0
  8 17  1  0  0  0  0
  9  8  2  0  0  0  0
 10 11  2  0  0  0  0
 10  9  1  0  0  0  0
 11 15  1  0  0  0  0
 12 13  1  0  0  0  0
 12 11  1  0  0  0  0
 13 14  2  0  0  0  0
 14 15  1  0  0  0  0
 14 20  1  0  0  0  0
 15 16  2  0  0  0  0
 16 21  1  0  0  0  0
 18 10  1  0  0  0  0
 19 12  1  0  0  0  0
 22 24  1  0  0  0  0
 23 22  2  0  0  0  0
 24 25  1  0  0  0  0
 25 30  1  0  0  0  0
 25 26  2  0  0  0  0
 26 31  1  0  0  0  0
 27 26  1  0  0  0  0
 28 27  2  0  0  0  0
 29 24  2  0  0  0  0
 29 28  1  0  0  0  0
 32 28  1  0  0  0  0
 32 38  1  0  0  0  0
 33 32  2  0  0  0  0
 34 33  1  0  0  0  0
 34 36  2  0  0  0  0
 35 34  1  0  0  0  0
 36 37  1  0  0  0  0
 37 38  2  0  0  0  0
M  END
>  <minimizedAffinity>
-6.39685059

$$$$

 OpenBabel03272507153D

 38 42  0  0  0  0  0  0  0  0999 V2000
   36.7050   25.9250   31.8070 C   0  0  0  0  0  0  0  0  0  0  0  0
   35.5040   25.9720   31.1940 C   0  0  0  0  0  0  0  0  0  0  0  0
   35.0760   24.6480   31.0450 C   0  0  0  0  0  0  0  0  0  0  0  0
   36.0800   23.8660   31.5970 C   0  0  0  0  0  0  0  0  0  0  0  0
   37.0030   24.6810   32.0240 O   0  0  0  0  0  0  0  0  0  0  0  0
   34.9390   26.8460   30.8610 H   0  0  0  0  0  0  0  0  0  0  0  0
   34.1410   24.3910   30.5830 H   0  0  0  0  0  0  0  0  0  0  0  0
   35.0050   21.7240   32.2850 C   0  0  0  0  0  0  0  0  0  0  0  0
   36.0110   22.4070   31.6390 C   0  0  0  0  0  0  0  0  0  0  0  0
   37.0300   21.7270   30.9830 C   0  0  0  0  0  0  0  0  0  0  0  0
   37.0020   20.3530   30.9980 C   0  0  0  0  0  0  0  0  0  0  0  0
   37.8410   19.4520   30.4560 N   0  0  0  0  0  0  0  0  0  0  0  0
   37.3730   18.2430   30.7560 N   0  0  0  0  0  0  0  0  0  0  0  0
   36.2500   18.3610   31.4780 C   0  0  0  0  0  0  0  0  0  0  0  0
   35.9810   19.7030   31.6540 C   0  0  0  0  0  0  0  0  0  0  0  0
   34.9570   20.3690   32.3130 C   0  0  0  0  0  0  0  0  0  0  0  0
   34.2420   22.3220   32.7770 H   0  0  0  0  0  0  0  0  0  0  0  0
   37.8610   22.2040   30.4490 H   0  0  0  0  0  0  0  0  0  0  0  0
   38.7130   19.6030   29.8960 H   0  0  0  0  0  0  0  0  0  0  0  0
   35.6410   17.5570   31.8680 H   0  0  0  0  0  0  0  0  0  0  0  0
   34.1630   19.8430   32.8230 H   0  0  0  0  0  0  0  0  0  0  0  0
   37.4530   27.1330   32.1250 C   0  0  0  0  0  0  0  0  0  0  0  0
   38.6830   27.0460   32.3560 O   0  0  0  0  0  0  0  0  0  0  0  0
   36.7320   28.3780   32.1550 C   0  0  0  0  0  0  0  0  0  0  0  0
   36.5740   29.0650   30.9490 C   0  0  0  0  0  0  0  0  0  0  0  0
   35.8860   30.2660   30.9420 C   0  0  0  0  0  0  0  0  0  0  0  0
   35.3980   30.7120   32.1330 N   0  0  0  0  0  0  0  0  0  0  0  0
   35.5570   30.0490   33.2720 C   0  0  0  0  0  0  0  0  0  0  0  0
   36.2220   28.8840   33.2870 N   0  0  0  0  0  0  0  0  0  0  0  0
   36.9530   28.7310   29.9870 H   0  0  0  0  0  0  0  0  0  0  0  0
   35.7210   30.8550   30.0570 H   0  0  0  0  0  0  0  0  0  0  0  0
   35.0070   30.5850   34.5140 C   0  0  0  0  0  0  0  0  0  0  0  0
   33.6890   30.3510   34.8510 C   0  0  0  0  0  3  0  0  0  0  0  0
   33.0640   30.8180   36.0120 C   0  0  0  0  0  0  0  0  0  0  0  0
   32.0260   30.5890   36.2000 H   0  0  0  0  0  0  0  0  0  0  0  0
   33.8610   31.5490   36.8330 N   0  0  0  0  0  0  0  0  0  0  0  0
   35.1470   31.7910   36.5260 C   0  0  0  0  0  3  0  0  0  0  0  0
   35.7380   31.3260   35.3880 N   0  0  0  0  0  0  0  0  0  0  0  0
  1  5  1  0  0  0  0
  1 22  1  0  0  0  0
  2  1  2  0  0  0  0
  3  2  1  0  0  0  0
  3  4  2  0  0  0  0
  4  9  1  0  0  0  0
  4  5  1  0  0  0  0
  6  2  1  0  0  0  0
  7  3  1  0  0  0  0
  8 16  1  0  0  0  0
  8 17  1  0  0  0  0
  9  8  2  0  0  0  0
 10 11  2  0  0  0  0
 10  9  1  0  0  0  0
 11 15  1  0  0  0  0
 12 13  1  0  0  0  0
 12 11  1  0  0  0  0
 13 14  2  0  0  0  0
 14 15  1  0  0  0  0
 14 20  1  0  0  0  0
 15 16  2  0  0  0  0
 16 21  1  0  0  0  0
 18 10  1  0  0  0  0
 19 12  1  0  0  0  0
 22 24  1  0  0  0  0
 22 23  2  0  0  0  0
 24 29  1  0  0  0  0
 25 24  2  0  0  0  0
 26 25  1  0  0  0  0
 26 27  2  0  0  0  0
 27 28  1  0  0  0  0
 28 29  2  0  0  0  0
 28 32  1  0  0  0  0
 30 25  1  0  0  0  0
 31 26  1  0  0  0  0
 32 33  2  0  0  0  0
 32 38  1  0  0  0  0
 33 34  1  0  0  0  0
 34 35  1  0  0  0  0
 34 36  2  0  0  0  0
 37 36  1  0  0  0  0
 38 37  2  0  0  0  0
M  END
>  <minimizedAffinity>
-6.3720932

$$$$

 OpenBabel03272507153D

 38 42  0  0  0  0  0  0  0  0999 V2000
   35.7760   27.0800   31.2800 C   0  0  0  0  0  0  0  0  0  0  0  0
   36.6120   27.7020   30.4230 C   0  0  0  0  0  0  0  0  0  0  0  0
   36.7730   29.0090   30.8970 C   0  0  0  0  0  0  0  0  0  0  0  0
   35.9980   29.0900   32.0450 C   0  0  0  0  0  0  0  0  0  0  0  0
   35.4420   27.9220   32.2080 O   0  0  0  0  0  0  0  0  0  0  0  0
   37.0930   27.3060   29.5260 H   0  0  0  0  0  0  0  0  0  0  0  0
   37.3950   29.7310   30.4020 H   0  0  0  0  0  0  0  0  0  0  0  0
   36.0420   31.5680   32.3090 C   0  0  0  0  0  0  0  0  0  0  0  0
   35.8960   30.3070   32.8450 C   0  0  0  0  0  0  0  0  0  0  0  0
   35.6400   30.1310   34.1990 C   0  0  0  0  0  0  0  0  0  0  0  0
   35.5370   31.2520   34.9880 C   0  0  0  0  0  0  0  0  0  0  0  0
   35.2990   31.3800   36.3050 N   0  0  0  0  0  0  0  0  0  0  0  0
   35.2970   32.6810   36.5850 N   0  0  0  0  0  0  0  0  0  0  0  0
   35.5290   33.3820   35.4660 C   0  0  0  0  0  0  0  0  0  0  0  0
   35.6880   32.4970   34.4190 C   0  0  0  0  0  0  0  0  0  0  0  0
   35.9440   32.6890   33.0680 C   0  0  0  0  0  0  0  0  0  0  0  0
   36.2410   31.6290   31.2430 H   0  0  0  0  0  0  0  0  0  0  0  0
   35.5130   29.1600   34.6920 H   0  0  0  0  0  0  0  0  0  0  0  0
   35.1380   30.6410   37.0300 H   0  0  0  0  0  0  0  0  0  0  0  0
   35.5860   34.4580   35.3730 H   0  0  0  0  0  0  0  0  0  0  0  0
   36.0600   33.6720   32.6380 H   0  0  0  0  0  0  0  0  0  0  0  0
   35.3810   25.6900   31.0940 C   0  0  0  0  0  0  0  0  0  0  0  0
   34.4150   25.4260   30.3370 O   0  0  0  0  0  0  0  0  0  0  0  0
   36.1290   24.6820   31.7970 C   0  0  0  0  0  0  0  0  0  0  0  0
   37.1580   25.1090   32.6410 C   0  0  0  0  0  0  0  0  0  0  0  0
   37.8980   24.1660   33.3320 C   0  0  0  0  0  0  0  0  0  0  0  0
   37.5740   22.8570   33.1430 N   0  0  0  0  0  0  0  0  0  0  0  0
   36.5940   22.4660   32.3360 C   0  0  0  0  0  0  0  0  0  0  0  0
   35.8710   23.3730   31.6630 N   0  0  0  0  0  0  0  0  0  0  0  0
   37.4360   26.1460   32.8090 H   0  0  0  0  0  0  0  0  0  0  0  0
   38.7040   24.4130   34.0000 H   0  0  0  0  0  0  0  0  0  0  0  0
   36.3000   21.0440   32.1800 C   0  0  0  0  0  0  0  0  0  0  0  0
   36.6270   20.3880   31.0110 C   0  0  0  0  0  3  0  0  0  0  0  0
   36.3900   19.0330   30.7580 C   0  0  0  0  0  0  0  0  0  0  0  0
   36.6780   18.5970   29.8150 H   0  0  0  0  0  0  0  0  0  0  0  0
   35.7910   18.3610   31.7750 N   0  0  0  0  0  0  0  0  0  0  0  0
   35.4620   18.9780   32.9240 C   0  0  0  0  0  3  0  0  0  0  0  0
   35.7020   20.3020   33.1490 N   0  0  0  0  0  0  0  0  0  0  0  0
  1  5  1  0  0  0  0
  2  3  1  0  0  0  0
  2  1  2  0  0  0  0
  3  4  2  0  0  0  0
  4  5  1  0  0  0  0
  4  9  1  0  0  0  0
  6  2  1  0  0  0  0
  7  3  1  0  0  0  0
  8  9  2  0  0  0  0
  8 16  1  0  0  0  0
  9 10  1  0  0  0  0
 10 18  1  0  0  0  0
 10 11  2  0  0  0  0
 11 12  1  0  0  0  0
 12 13  1  0  0  0  0
 12 19  1  0  0  0  0
 14 13  2  0  0  0  0
 15 11  1  0  0  0  0
 15 14  1  0  0  0  0
 16 15  2  0  0  0  0
 17  8  1  0  0  0  0
 20 14  1  0  0  0  0
 21 16  1  0  0  0  0
 22  1  1  0  0  0  0
 22 24  1  0  0  0  0
 23 22  2  0  0  0  0
 24 25  1  0  0  0  0
 25 30  1  0  0  0  0
 25 26  2  0  0  0  0
 26 31  1  0  0  0  0
 27 26  1  0  0  0  0
 28 27  2  0  0  0  0
 29 24  2  0  0  0  0
 29 28  1  0  0  0  0
 32 28  1  0  0  0  0
 32 38  1  0  0  0  0
 33 32  2  0  0  0  0
 34 33  1  0  0  0  0
 34 36  2  0  0  0  0
 35 34  1  0  0  0  0
 36 37  1  0  0  0  0
 37 38  2  0  0  0  0
M  END
>  <minimizedAffinity>
-6.33368921

$$$$

 OpenBabel03272507153D

 38 42  0  0  0  0  0  0  0  0999 V2000
   36.9290   27.5220   32.6130 C   0  0  0  0  0  0  0  0  0  0  0  0
   35.9390   27.8400   31.7530 C   0  0  0  0  0  0  0  0  0  0  0  0
   35.1430   28.7960   32.3930 C   0  0  0  0  0  0  0  0  0  0  0  0
   35.7250   28.9980   33.6360 C   0  0  0  0  0  0  0  0  0  0  0  0
   36.7680   28.2180   33.6960 O   0  0  0  0  0  0  0  0  0  0  0  0
   35.7550   27.4540   30.7480 H   0  0  0  0  0  0  0  0  0  0  0  0
   34.2750   29.2290   31.9320 H   0  0  0  0  0  0  0  0  0  0  0  0
   35.9780   30.7990   35.3410 C   0  0  0  0  0  0  0  0  0  0  0  0
   35.1860   29.9340   34.6190 C   0  0  0  0  0  0  0  0  0  0  0  0
   33.8080   29.9120   34.7940 C   0  0  0  0  0  0  0  0  0  0  0  0
   33.2590   30.7790   35.7090 C   0  0  0  0  0  0  0  0  0  0  0  0
   31.9810   30.9720   36.0780 N   0  0  0  0  0  0  0  0  0  0  0  0
   31.9740   31.9290   37.0040 N   0  0  0  0  0  0  0  0  0  0  0  0
   33.2290   32.3460   37.2280 C   0  0  0  0  0  0  0  0  0  0  0  0
   34.0820   31.6290   36.4140 C   0  0  0  0  0  0  0  0  0  0  0  0
   35.4590   31.6630   36.2500 C   0  0  0  0  0  0  0  0  0  0  0  0
   37.0470   30.7600   35.1510 H   0  0  0  0  0  0  0  0  0  0  0  0
   33.1170   29.2520   34.2550 H   0  0  0  0  0  0  0  0  0  0  0  0
   31.1090   30.4980   35.7440 H   0  0  0  0  0  0  0  0  0  0  0  0
   33.5440   33.1130   37.9230 H   0  0  0  0  0  0  0  0  0  0  0  0
   36.0900   32.3370   36.8110 H   0  0  0  0  0  0  0  0  0  0  0  0
   37.9560   26.5460   32.2750 C   0  0  0  0  0  0  0  0  0  0  0  0
   38.8060   26.8330   31.3970 O   0  0  0  0  0  0  0  0  0  0  0  0
   37.9400   25.2890   32.9760 C   0  0  0  0  0  0  0  0  0  0  0  0
   38.5490   25.2410   34.2330 C   0  0  0  0  0  0  0  0  0  0  0  0
   38.5520   24.0480   34.9340 C   0  0  0  0  0  0  0  0  0  0  0  0
   37.9520   22.9760   34.3460 N   0  0  0  0  0  0  0  0  0  0  0  0
   37.3790   23.0370   33.1500 C   0  0  0  0  0  0  0  0  0  0  0  0
   37.3710   24.1890   32.4630 N   0  0  0  0  0  0  0  0  0  0  0  0
   39.0330   26.0800   34.7240 H   0  0  0  0  0  0  0  0  0  0  0  0
   38.9980   23.9280   35.9060 H   0  0  0  0  0  0  0  0  0  0  0  0
   36.7530   21.8480   32.5780 C   0  0  0  0  0  0  0  0  0  0  0  0
   36.1080   20.9390   33.3920 C   0  0  0  0  0  3  0  0  0  0  0  0
   35.4780   19.7720   32.9480 C   0  0  0  0  0  0  0  0  0  0  0  0
   34.9950   19.1130   33.6530 H   0  0  0  0  0  0  0  0  0  0  0  0
   35.5360   19.5680   31.6070 N   0  0  0  0  0  0  0  0  0  0  0  0
   36.1590   20.4390   30.7930 C   0  0  0  0  0  3  0  0  0  0  0  0
   36.7680   21.5720   31.2470 N   0  0  0  0  0  0  0  0  0  0  0  0
  1  5  1  0  0  0  0
  2  3  1  0  0  0  0
  2  1  2  0  0  0  0
  3  4  2  0  0  0  0
  4  5  1  0  0  0  0
  4  9  1  0  0  0  0
  6  2  1  0  0  0  0
  7  3  1  0  0  0  0
  8 16  1  0  0  0  0
  9 10  1  0  0  0  0
  9  8  2  0  0  0  0
 10 11  2  0  0  0  0
 11 12  1  0  0  0  0
 11 15  1  0  0  0  0
 12 13  1  0  0  0  0
 13 14  2  0  0  0  0
 14 20  1  0  0  0  0
 15 14  1  0  0  0  0
 16 15  2  0  0  0  0
 16 21  1  0  0  0  0
 17  8  1  0  0  0  0
 18 10  1  0  0  0  0
 19 12  1  0  0  0  0
 22  1  1  0  0  0  0
 22 24  1  0  0  0  0
 23 22  2  0  0  0  0
 24 25  1  0  0  0  0
 25 30  1  0  0  0  0
 25 26  2  0  0  0  0
 26 31  1  0  0  0  0
 27 26  1  0  0  0  0
 28 27  2  0  0  0  0
 29 24  2  0  0  0  0
 29 28  1  0  0  0  0
 32 28  1  0  0  0  0
 32 33  1  0  0  0  0
 34 33  2  0  0  0  0
 34 35  1  0  0  0  0
 36 34  1  0  0  0  0
 37 38  1  0  0  0  0
 37 36  2  0  0  0  0
 38 32  2  0  0  0  0
M  END
>  <minimizedAffinity>
-6.31973934

$$$$
