
 OpenBabel03272508193D

 29 31  0  0  0  0  0  0  0  0999 V2000
   36.7120   31.0870   48.5060 C   0  0  0  0  0  0  0  0  0  0  0  0
   36.3730   30.5630   47.2490 C   0  0  0  0  0  0  0  0  0  0  0  0
   35.1300   29.9740   47.2230 C   0  0  0  0  0  0  0  0  0  0  0  0
   34.3280   29.9110   48.3020 N   0  0  0  0  0  0  0  0  0  0  0  0
   34.6830   30.4230   49.4980 C   0  0  0  0  0  0  0  0  0  0  0  0
   35.8780   31.0120   49.5990 N   0  0  0  0  0  0  0  0  0  0  0  0
   34.7870   29.5380   46.2720 H   0  0  0  0  0  0  0  0  0  0  0  0
   33.9890   30.3330   50.3060 H   0  0  0  0  0  0  0  0  0  0  0  0
   38.0220   31.8620   48.5950 C   0  0  0  0  0  0  0  0  0  0  0  0
   38.1870   32.9790   49.4470 C   0  0  0  0  0  0  0  0  0  0  0  0
   38.6230   31.6420   50.0230 C   0  0  0  0  0  0  0  0  0  0  0  0
   38.7990   31.5660   47.8300 H   0  0  0  0  0  0  0  0  0  0  0  0
   38.9810   33.7200   49.2340 H   0  0  0  0  0  0  0  0  0  0  0  0
   37.3010   33.4230   49.9600 H   0  0  0  0  0  0  0  0  0  0  0  0
   38.0070   31.1930   50.7920 H   0  0  0  0  0  0  0  0  0  0  0  0
   39.7050   31.4770   50.0260 H   0  0  0  0  0  0  0  0  0  0  0  0
   37.2980   30.6040   46.1240 C   0  0  0  0  0  0  0  0  0  0  0  0
   38.1210   31.3500   46.2270 H   0  0  0  0  0  0  0  0  0  0  0  0
   37.8260   29.6230   46.0960 H   0  0  0  0  0  0  0  0  0  0  0  0
   36.6860   30.8510   44.7990 C   0  0  0  0  0  0  0  0  0  0  0  0
   35.7700   31.4730   44.9160 H   0  0  0  0  0  0  0  0  0  0  0  0
   36.4390   29.9460   44.2360 H   0  0  0  0  0  0  0  0  0  0  0  0
   37.6130   31.6430   43.9550 C   0  0  0  0  0  0  0  0  0  0  0  0
   38.9770   31.8340   43.9870 C   0  0  0  0  0  3  0  0  0  0  0  0
   39.5900   32.6240   43.0520 C   0  0  0  0  0  0  0  0  0  0  0  0
   40.6690   32.6790   43.2090 H   0  0  0  0  0  0  0  0  0  0  0  0
   38.8520   33.2180   42.0930 N   0  0  0  0  0  0  0  0  0  0  0  0
   37.5320   33.0400   42.0500 C   0  0  0  0  0  3  0  0  0  0  0  0
   36.9300   32.2640   42.9680 N   0  0  0  0  0  0  0  0  0  0  0  0
  1  9  1  0  0  0  0
  1  6  1  0  0  0  0
  2  1  2  0  0  0  0
  3  2  1  0  0  0  0
  3  4  2  0  0  0  0
  4  5  1  0  0  0  0
  5  6  2  0  0  0  0
  5  8  1  0  0  0  0
  7  3  1  0  0  0  0
  9 10  1  0  0  0  0
  9 11  1  0  0  0  0
 10 14  1  0  0  0  0
 10 11  1  0  0  0  0
 11 16  1  0  0  0  0
 11 15  1  0  0  0  0
 12  9  1  0  0  0  0
 13 10  1  0  0  0  0
 17 18  1  0  0  0  0
 17  2  1  0  0  0  0
 19 17  1  0  0  0  0
 20 21  1  0  0  0  0
 20 17  1  0  0  0  0
 22 20  1  0  0  0  0
 23 24  1  0  0  0  0
 23 20  1  0  0  0  0
 25 26  1  0  0  0  0
 25 24  2  0  0  0  0
 27 25  1  0  0  0  0
 28 27  2  0  0  0  0
 28 29  1  0  0  0  0
 29 23  2  0  0  0  0
M  END
>  <minimizedAffinity>
-4.59969425

>  <minimizedRMSD>
4.67175913

$$$$
