
 OpenBabel03272509463D

 23 24  0  0  0  0  0  0  0  0999 V2000
   34.0090   28.5030   48.7210 C   0  0  0  0  0  0  0  0  0  0  0  0
   34.4320   29.3000   48.0980 H   0  0  0  0  0  0  0  0  0  0  0  0
   33.0260   28.8590   49.0970 H   0  0  0  0  0  0  0  0  0  0  0  0
   33.7830   27.2150   47.9820 C   0  0  0  0  0  0  0  0  0  0  0  0
   33.0240   26.6240   48.4930 H   0  0  0  0  0  0  0  0  0  0  0  0
   34.7450   26.6370   47.9320 H   0  0  0  0  0  0  0  0  0  0  0  0
   33.3970   27.4350   46.5620 C   0  0  0  0  0  0  0  0  0  0  0  0
   34.0090   28.4850   45.9060 C   0  0  0  0  0  3  0  0  0  0  0  0
   33.7300   28.7820   44.5890 C   0  0  0  0  0  0  0  0  0  0  0  0
   34.1720   29.5890   44.0150 H   0  0  0  0  0  0  0  0  0  0  0  0
   32.8430   28.0350   43.9270 N   0  0  0  0  0  0  0  0  0  0  0  0
   32.2460   27.0070   44.5770 C   0  0  0  0  0  3  0  0  0  0  0  0
   32.5030   26.6990   45.8600 N   0  0  0  0  0  0  0  0  0  0  0  0
   34.7840   28.2650   49.8900 O   0  0  0  0  0  0  0  0  0  0  0  0
   37.3970   30.2830   51.3930 C   0  0  0  0  0  0  0  0  0  0  0  0
   38.0660   30.7070   50.2280 C   0  0  0  0  0  0  0  0  0  0  0  0
   37.5790   30.2750   48.9990 C   0  0  0  0  0  0  0  0  0  0  0  0
   36.4770   29.4620   49.0080 N   0  0  0  0  0  0  0  0  0  0  0  0
   35.8630   29.0760   50.1320 C   0  0  0  0  0  0  0  0  0  0  0  0
   36.3280   29.4910   51.3330 N   0  0  0  0  0  0  0  0  0  0  0  0
   37.7220   30.5830   52.3850 H   0  0  0  0  0  0  0  0  0  0  0  0
   38.9320   31.3520   50.3160 H   0  0  0  0  0  0  0  0  0  0  0  0
   38.0660   30.5780   48.0790 H   0  0  0  0  0  0  0  0  0  0  0  0
  1  3  1  0  0  0  0
  1 14  1  0  0  0  0
  2  1  1  0  0  0  0
  4  5  1  0  0  0  0
  4  1  1  0  0  0  0
  6  4  1  0  0  0  0
  7  4  1  0  0  0  0
  8  7  1  0  0  0  0
  9  8  2  0  0  0  0
 10  9  1  0  0  0  0
 11 12  2  0  0  0  0
 11  9  1  0  0  0  0
 12 13  1  0  0  0  0
 13  7  2  0  0  0  0
 14 19  1  0  0  0  0
 15 21  1  0  0  0  0
 16 22  1  0  0  0  0
 16 15  2  0  0  0  0
 17 18  2  0  0  0  0
 17 16  1  0  0  0  0
 18 19  1  0  0  0  0
 19 20  2  0  0  0  0
 20 15  1  0  0  0  0
 23 17  1  0  0  0  0
M  END
>  <minimizedAffinity>
-3.67937779

>  <minimizedRMSD>
0.444879532

$$$$
