REMARK  Name = 
REMARK  5 active torsions:
REMARK  status: ('A' for Active; 'I' for Inactive)
REMARK    1  A    between atoms: C_5  and  O_7
REMARK    2  A    between atoms: O_7  and  P_9
REMARK    3  A    between atoms: P_9  and  O_10
REMARK    4  A    between atoms: P_9  and  O_11
REMARK    5  A    between atoms: O_11  and  C_16
REMARK                            x       y       z     vdW  Elec       q    Type
REMARK                         _______ _______ _______ _____ _____    ______ ____
ROOT
ATOM      1  O   UNL     1      32.518  28.076  49.044  0.00  0.00    +0.000 OA
ATOM      2  P   UNL     1      33.848  28.504  48.460  0.00  0.00    +0.000 P 
ENDROOT
BRANCH   2   3
ATOM      3  O   UNL     1      34.064  27.583  47.050  0.00  0.00    +0.000 OA
ATOM      4  H   UNL     1      34.150  26.615  47.297  0.00  0.00    +0.000 HD
ENDBRANCH   2   3
BRANCH   2   5
ATOM      5  O   UNL     1      35.070  28.186  49.596  0.00  0.00    +0.000 OA
BRANCH   5  10
ATOM      6  C   UNL     1      37.436  30.313  51.387  0.00  0.00    +0.000 A 
ATOM      7  C   UNL     1      38.125  30.881  50.267  0.00  0.00    +0.000 A 
ATOM      8  C   UNL     1      37.724  30.489  48.984  0.00  0.00    +0.000 A 
ATOM      9  N   UNL     1      36.708  29.597  48.871  0.00  0.00    +0.000 NA
ATOM     10  C   UNL     1      36.078  29.079  49.945  0.00  0.00    +0.000 A 
ATOM     11  N   UNL     1      36.441  29.436  51.195  0.00  0.00    +0.000 NA
ATOM     12  H   UNL     1      37.725  30.597  52.392  0.00  0.00    +0.000 HD
ATOM     13  H   UNL     1      38.931  31.591  50.440  0.00  0.00    +0.000 HD
ATOM     14  H   UNL     1      38.233  30.908  48.118  0.00  0.00    +0.000 HD
ENDBRANCH   5  10
ENDBRANCH   2   5
BRANCH   2  15
ATOM     15  O   UNL     1      33.733  30.116  48.042  0.00  0.00    +0.000 OA
BRANCH  15  16
ATOM     16  C   UNL     1      33.167  30.640  46.896  0.00  0.00    +0.000 A 
ATOM     17  C   UNL     1      33.619  30.680  45.594  0.00  0.00    +0.000 A 
ATOM     18  C   UNL     1      32.842  31.274  44.624  0.00  0.00    +0.000 A 
ATOM     19  H   UNL     1      33.282  31.257  43.627  0.00  0.00    +0.000 HD
ATOM     20  N   UNL     1      31.671  31.798  44.958  0.00  0.00    +0.000 NA
ATOM     21  C   UNL     1      31.203  31.776  46.209  0.00  0.00    +0.000 A 
ATOM     22  N   UNL     1      31.951  31.198  47.172  0.00  0.00    +0.000 NA
ENDBRANCH  15  16
ENDBRANCH   2  15
TORSDOF 5
