REMARK  Name = 
REMARK  4 active torsions:
REMARK  status: ('A' for Active; 'I' for Inactive)
REMARK    1  A    between atoms: C_5  and  O_7
REMARK    2  A    between atoms: O_7  and  C_8
REMARK    3  A    between atoms: C_8  and  C_9
REMARK    4  A    between atoms: C_9  and  C_17
REMARK                            x       y       z     vdW  Elec       q    Type
REMARK                         _______ _______ _______ _____ _____    ______ ____
ROOT
ATOM      1  C   UNL     1      34.184  28.407  48.452  0.00  0.00    +0.000 C 
ATOM      2  H   UNL     1      34.810  29.002  47.776  0.00  0.00    +0.000 HD
ATOM      3  H   UNL     1      33.236  28.964  48.608  0.00  0.00    +0.000 HD
ENDROOT
BRANCH   1   4
ATOM      4  C   UNL     1      33.839  27.048  47.914  0.00  0.00    +0.000 C 
ATOM      5  H   UNL     1      33.168  26.537  48.603  0.00  0.00    +0.000 HD
ATOM      6  H   UNL     1      34.779  26.446  47.782  0.00  0.00    +0.000 HD
BRANCH   4   7
ATOM      7  C   UNL     1      33.235  27.111  46.556  0.00  0.00    +0.000 A 
ATOM      8  C   UNL     1      31.962  26.597  46.417  0.00  0.00    +0.000 A 
ATOM      9  C   UNL     1      31.302  26.601  45.206  0.00  0.00    +0.000 A 
ATOM     10  H   UNL     1      30.304  26.215  45.026  0.00  0.00    +0.000 HD
ATOM     11  N   UNL     1      31.911  27.117  44.135  0.00  0.00    +0.000 NA
ATOM     12  C   UNL     1      33.161  27.620  44.278  0.00  0.00    +0.000 A 
ATOM     13  N   UNL     1      33.822  27.626  45.449  0.00  0.00    +0.000 NA
ENDBRANCH   4   7
ENDBRANCH   1   4
BRANCH   1  14
ATOM     14  O   UNL     1      34.756  28.287  49.749  0.00  0.00    +0.000 OA
BRANCH  14  19
ATOM     15  C   UNL     1      37.324  30.228  51.421  0.00  0.00    +0.000 A 
ATOM     16  C   UNL     1      38.051  30.672  50.299  0.00  0.00    +0.000 A 
ATOM     17  C   UNL     1      37.615  30.279  49.039  0.00  0.00    +0.000 A 
ATOM     18  N   UNL     1      36.503  29.482  48.976  0.00  0.00    +0.000 NA
ATOM     19  C   UNL     1      35.833  29.076  50.061  0.00  0.00    +0.000 A 
ATOM     20  N   UNL     1      36.249  29.453  51.292  0.00  0.00    +0.000 NA
ATOM     21  H   UNL     1      37.608  30.497  52.435  0.00  0.00    +0.000 HD
ATOM     22  H   UNL     1      38.921  31.302  50.443  0.00  0.00    +0.000 HD
ATOM     23  H   UNL     1      38.147  30.599  48.150  0.00  0.00    +0.000 HD
ENDBRANCH  14  19
ENDBRANCH   1  14
TORSDOF 4
