
 OpenBabel03272510013D

 19 20  0  0  0  0  0  0  0  0999 V2000
   38.3090   31.2900   50.2030 C   0  0  0  0  0  0  0  0  0  0  0  0
   38.4190   31.5540   48.8260 C   0  0  0  0  0  0  0  0  0  0  0  0
   37.4080   31.0690   48.0100 C   0  0  0  0  0  0  0  0  0  0  0  0
   36.3790   30.3750   48.5540 N   0  0  0  0  0  0  0  0  0  0  0  0
   36.3120   30.1430   49.8850 C   0  0  0  0  0  0  0  0  0  0  0  0
   37.2690   30.5970   50.7010 N   0  0  0  0  0  0  0  0  0  0  0  0
   39.0760   31.6520   50.8750 H   0  0  0  0  0  0  0  0  0  0  0  0
   39.2630   32.1140   48.4450 H   0  0  0  0  0  0  0  0  0  0  0  0
   37.4610   31.3070   46.5710 C   0  0  0  0  0  0  0  0  0  0  0  0
   36.6980   30.5320   45.7200 C   0  0  0  0  0  3  0  0  0  0  0  0
   36.7960   30.8110   44.3720 C   0  0  0  0  0  0  0  0  0  0  0  0
   36.2150   30.2230   43.6900 H   0  0  0  0  0  0  0  0  0  0  0  0
   37.6060   31.7990   43.9590 N   0  0  0  0  0  0  0  0  0  0  0  0
   38.3480   32.5560   44.7710 C   0  0  0  0  0  3  0  0  0  0  0  0
   38.2530   32.2820   46.0970 N   0  0  0  0  0  0  0  0  0  0  0  0
   35.1500   29.3750   50.3960 C   0  0  0  0  0  0  0  0  0  0  0  0
   35.2450   29.1110   51.7570 F   0  0  0  0  0  0  0  0  0  0  0  0
   33.9690   30.0740   50.2100 F   0  0  0  0  0  0  0  0  0  0  0  0
   34.9760   28.1710   49.7550 F   0  0  0  0  0  0  0  0  0  0  0  0
  1  6  1  0  0  0  0
  1  7  1  0  0  0  0
  2  1  2  0  0  0  0
  3  4  2  0  0  0  0
  3  2  1  0  0  0  0
  4  5  1  0  0  0  0
  5 16  1  0  0  0  0
  5  6  2  0  0  0  0
  8  2  1  0  0  0  0
  9  3  1  0  0  0  0
 10  9  2  0  0  0  0
 11 10  1  0  0  0  0
 12 11  1  0  0  0  0
 13 11  2  0  0  0  0
 13 14  1  0  0  0  0
 14 15  2  0  0  0  0
 15  9  1  0  0  0  0
 16 17  1  0  0  0  0
 18 16  1  0  0  0  0
 19 16  1  0  0  0  0
M  END
>  <minimizedAffinity>
-5.39774561

>  <minimizedRMSD>
0.514943421

$$$$
