
 OpenBabel03262520143D

 40 42  0  0  0  0  0  0  0  0999 V2000
   38.7600   25.9820   32.0520 C   0  0  0  0  0  0  0  0  0  0  0  0
   39.5510   25.2750   32.3720 H   0  0  0  0  0  0  0  0  0  0  0  0
   39.1160   26.4170   31.0920 H   0  0  0  0  0  0  0  0  0  0  0  0
   38.8780   22.8690   32.6000 Br  0  0  0  0  0  0  0  0  0  0  0  0
   37.3700   23.8880   31.9740 C   0  0  0  0  0  0  0  0  0  0  0  0
   36.1700   23.2710   31.7120 C   0  0  0  0  0  0  0  0  0  0  0  0
   35.1390   24.0430   31.2630 C   0  0  0  0  0  0  0  0  0  0  0  0
   35.2600   25.4110   31.0650 C   0  0  0  0  0  0  0  0  0  0  0  0
   36.4980   26.0030   31.3430 C   0  0  0  0  0  0  0  0  0  0  0  0
   37.5350   25.2350   31.7940 C   0  0  0  0  0  0  0  0  0  0  0  0
   34.2010   23.4960   31.0700 H   0  0  0  0  0  0  0  0  0  0  0  0
   34.3550   25.8640   30.7080 H   0  0  0  0  0  0  0  0  0  0  0  0
   36.3860   27.0340   31.1150 H   0  0  0  0  0  0  0  0  0  0  0  0
   36.0810   19.7020   30.9470 C   0  0  0  0  0  0  0  0  0  0  0  0
   35.7110   19.1030   32.1970 C   0  0  0  0  0  0  0  0  0  0  0  0
   35.5050   19.9470   33.2540 C   0  0  0  0  0  0  0  0  0  0  0  0
   35.6530   21.3090   33.1000 N   0  0  0  0  0  0  0  0  0  0  0  0
   36.0030   21.8240   31.9060 C   0  0  0  0  0  0  0  0  0  0  0  0
   36.2110   21.0180   30.8530 N   0  0  0  0  0  0  0  0  0  0  0  0
   36.2480   19.0520   30.0980 H   0  0  0  0  0  0  0  0  0  0  0  0
   35.6150   18.0270   32.2330 H   0  0  0  0  0  0  0  0  0  0  0  0
   35.2240   19.5090   34.2040 H   0  0  0  0  0  0  0  0  0  0  0  0
   38.6860   27.0900   33.0370 C   0  0  0  0  0  0  0  0  0  0  0  0
   37.7090   27.5200   33.1350 H   0  0  0  0  0  0  0  0  0  0  0  0
   39.2890   27.9260   32.5340 H   0  0  0  0  0  0  0  0  0  0  0  0
   39.4520   26.7580   34.1820 N   0  0  0  0  0  0  0  0  0  0  0  0
   40.0160   25.8840   34.0840 H   0  0  0  0  0  0  0  0  0  0  0  0
   38.8270   26.9060   35.4440 C   0  0  0  0  0  0  0  0  0  0  0  0
   39.5290   26.7620   36.3050 H   0  0  0  0  0  0  0  0  0  0  0  0
   38.3590   27.9030   35.4990 H   0  0  0  0  0  0  0  0  0  0  0  0
   37.7660   25.8720   35.5890 C   0  0  0  0  0  0  0  0  0  0  0  0
   36.9470   26.1710   36.2810 H   0  0  0  0  0  0  0  0  0  0  0  0
   37.4260   25.3210   34.7210 H   0  0  0  0  0  0  0  0  0  0  0  0
   38.4650   24.7610   36.3880 C   0  0  0  0  0  0  0  0  0  0  0  0
   37.9760   24.4090   37.6340 C   0  0  0  0  0  3  0  0  0  0  0  0
   38.6330   23.4050   38.3230 C   0  0  0  0  0  0  0  0  0  0  0  0
   38.1630   23.2050   39.2970 H   0  0  0  0  0  0  0  0  0  0  0  0
   39.7120   22.7830   37.8110 N   0  0  0  0  0  0  0  0  0  0  0  0
   40.1650   23.1490   36.5940 C   0  0  0  0  0  3  0  0  0  0  0  0
   39.5580   24.1190   35.8900 N   0  0  0  0  0  0  0  0  0  0  0  0
  1  2  1  0  0  0  0
  1 23  1  0  0  0  0
  3  1  1  0  0  0  0
  5  4  1  0  0  0  0
  6 18  1  0  0  0  0
  6  5  2  0  0  0  0
  7  6  1  0  0  0  0
  8  7  2  0  0  0  0
  8  9  1  0  0  0  0
  9 10  2  0  0  0  0
 10  5  1  0  0  0  0
 10  1  1  0  0  0  0
 11  7  1  0  0  0  0
 12  8  1  0  0  0  0
 13  9  1  0  0  0  0
 14 15  1  0  0  0  0
 15 21  1  0  0  0  0
 15 16  2  0  0  0  0
 16 22  1  0  0  0  0
 17 16  1  0  0  0  0
 18 17  2  0  0  0  0
 19 14  2  0  0  0  0
 19 18  1  0  0  0  0
 20 14  1  0  0  0  0
 23 24  1  0  0  0  0
 23 26  1  0  0  0  0
 25 23  1  0  0  0  0
 26 28  1  0  0  0  0
 27 26  1  0  0  0  0
 28 30  1  0  0  0  0
 28 31  1  0  0  0  0
 28 29  1  0  0  0  0
 31 32  1  0  0  0  0
 31 34  1  0  0  0  0
 33 31  1  0  0  0  0
 34 35  1  0  0  0  0
 35 36  2  0  0  0  0
 36 37  1  0  0  0  0
 38 36  1  0  0  0  0
 39 38  2  0  0  0  0
 40 34  2  0  0  0  0
 40 39  1  0  0  0  0
M  END
>  <minimizedAffinity>
-5.31878281

$$$$

 OpenBabel03262520143D

 40 42  0  0  0  0  0  0  0  0999 V2000
   37.3140   27.7570   32.6300 C   0  0  0  0  0  0  0  0  0  0  0  0
   37.0950   28.3170   33.5610 H   0  0  0  0  0  0  0  0  0  0  0  0
   38.2820   28.1580   32.2570 H   0  0  0  0  0  0  0  0  0  0  0  0
   38.3420   27.1220   35.5530 Br  0  0  0  0  0  0  0  0  0  0  0  0
   37.9200   25.8590   34.1640 C   0  0  0  0  0  0  0  0  0  0  0  0
   38.0520   24.5080   34.3840 C   0  0  0  0  0  0  0  0  0  0  0  0
   37.7460   23.6610   33.3590 C   0  0  0  0  0  0  0  0  0  0  0  0
   37.3120   24.1110   32.1210 C   0  0  0  0  0  0  0  0  0  0  0  0
   37.1900   25.4940   31.9350 C   0  0  0  0  0  0  0  0  0  0  0  0
   37.4950   26.3470   32.9580 C   0  0  0  0  0  0  0  0  0  0  0  0
   37.8690   22.5900   33.5920 H   0  0  0  0  0  0  0  0  0  0  0  0
   37.1160   23.3130   31.4310 H   0  0  0  0  0  0  0  0  0  0  0  0
   36.8650   25.6260   30.9330 H   0  0  0  0  0  0  0  0  0  0  0  0
   40.2680   23.0760   36.9080 C   0  0  0  0  0  0  0  0  0  0  0  0
   39.4420   23.0160   38.0790 C   0  0  0  0  0  0  0  0  0  0  0  0
   38.1560   23.4680   37.9580 C   0  0  0  0  0  0  0  0  0  0  0  0
   37.6980   23.9560   36.7530 N   0  0  0  0  0  0  0  0  0  0  0  0
   38.5120   23.9930   35.6800 C   0  0  0  0  0  0  0  0  0  0  0  0
   39.7770   23.5550   35.7720 N   0  0  0  0  0  0  0  0  0  0  0  0
   41.2890   22.7230   36.9820 H   0  0  0  0  0  0  0  0  0  0  0  0
   39.8790   22.6180   38.9850 H   0  0  0  0  0  0  0  0  0  0  0  0
   37.5210   23.4270   38.8340 H   0  0  0  0  0  0  0  0  0  0  0  0
   36.2790   28.0920   31.6200 C   0  0  0  0  0  0  0  0  0  0  0  0
   36.2400   27.4090   30.7950 H   0  0  0  0  0  0  0  0  0  0  0  0
   36.6830   29.0540   31.1430 H   0  0  0  0  0  0  0  0  0  0  0  0
   35.0940   28.5080   32.2760 N   0  0  0  0  0  0  0  0  0  0  0  0
   34.3820   28.9420   31.6450 H   0  0  0  0  0  0  0  0  0  0  0  0
   35.2400   29.1630   33.5230 C   0  0  0  0  0  0  0  0  0  0  0  0
   35.6810   28.5070   34.3170 H   0  0  0  0  0  0  0  0  0  0  0  0
   35.8600   30.0640   33.3860 H   0  0  0  0  0  0  0  0  0  0  0  0
   33.8980   29.5770   34.0180 C   0  0  0  0  0  0  0  0  0  0  0  0
   33.3360   30.2100   33.2950 H   0  0  0  0  0  0  0  0  0  0  0  0
   33.2780   28.8700   34.5550 H   0  0  0  0  0  0  0  0  0  0  0  0
   34.2290   30.5830   35.1300 C   0  0  0  0  0  0  0  0  0  0  0  0
   35.4770   31.1810   35.1560 C   0  0  0  0  0  3  0  0  0  0  0  0
   35.7380   32.0820   36.1730 C   0  0  0  0  0  0  0  0  0  0  0  0
   36.7550   32.4970   36.0990 H   0  0  0  0  0  0  0  0  0  0  0  0
   34.8200   32.3760   37.1130 N   0  0  0  0  0  0  0  0  0  0  0  0
   33.6130   31.7760   37.0610 C   0  0  0  0  0  3  0  0  0  0  0  0
   33.3160   30.8950   36.0900 N   0  0  0  0  0  0  0  0  0  0  0  0
  1 10  1  0  0  0  0
  1  2  1  0  0  0  0
  3  1  1  0  0  0  0
  5  6  1  0  0  0  0
  5  4  1  0  0  0  0
  6 18  1  0  0  0  0
  7 11  1  0  0  0  0
  7  6  2  0  0  0  0
  8  7  1  0  0  0  0
  9  8  2  0  0  0  0
  9 10  1  0  0  0  0
 10  5  2  0  0  0  0
 12  8  1  0  0  0  0
 13  9  1  0  0  0  0
 14 20  1  0  0  0  0
 14 15  1  0  0  0  0
 15 21  1  0  0  0  0
 16 15  2  0  0  0  0
 16 22  1  0  0  0  0
 17 16  1  0  0  0  0
 18 19  1  0  0  0  0
 18 17  2  0  0  0  0
 19 14  2  0  0  0  0
 23 26  1  0  0  0  0
 23  1  1  0  0  0  0
 24 23  1  0  0  0  0
 25 23  1  0  0  0  0
 26 28  1  0  0  0  0
 27 26  1  0  0  0  0
 28 31  1  0  0  0  0
 28 29  1  0  0  0  0
 30 28  1  0  0  0  0
 31 33  1  0  0  0  0
 31 34  1  0  0  0  0
 32 31  1  0  0  0  0
 34 35  2  0  0  0  0
 34 40  1  0  0  0  0
 35 36  1  0  0  0  0
 36 38  2  0  0  0  0
 37 36  1  0  0  0  0
 39 38  1  0  0  0  0
 40 39  2  0  0  0  0
M  END
>  <minimizedAffinity>
-5.2631135

$$$$

 OpenBabel03262520143D

 40 42  0  0  0  0  0  0  0  0999 V2000
   37.3300   26.9590   31.6050 C   0  0  0  0  0  0  0  0  0  0  0  0
   37.4600   27.9830   31.2000 H   0  0  0  0  0  0  0  0  0  0  0  0
   37.9170   26.2930   30.9340 H   0  0  0  0  0  0  0  0  0  0  0  0
   39.9740   25.2490   31.8990 Br  0  0  0  0  0  0  0  0  0  0  0  0
   39.0570   26.2270   33.2790 C   0  0  0  0  0  0  0  0  0  0  0  0
   39.5390   26.2370   34.5670 C   0  0  0  0  0  0  0  0  0  0  0  0
   38.8420   26.9410   35.5050 C   0  0  0  0  0  0  0  0  0  0  0  0
   37.6800   27.6380   35.2060 C   0  0  0  0  0  0  0  0  0  0  0  0
   37.2210   27.6040   33.8830 C   0  0  0  0  0  0  0  0  0  0  0  0
   37.9150   26.9000   32.9390 C   0  0  0  0  0  0  0  0  0  0  0  0
   39.2740   26.9150   36.5180 H   0  0  0  0  0  0  0  0  0  0  0  0
   37.2600   28.1350   36.0580 H   0  0  0  0  0  0  0  0  0  0  0  0
   36.3270   28.1760   33.8700 H   0  0  0  0  0  0  0  0  0  0  0  0
   41.7000   23.5260   35.7120 C   0  0  0  0  0  0  0  0  0  0  0  0
   43.0180   24.0840   35.6070 C   0  0  0  0  0  0  0  0  0  0  0  0
   43.1130   25.3700   35.1490 C   0  0  0  0  0  0  0  0  0  0  0  0
   41.9800   26.0770   34.8080 N   0  0  0  0  0  0  0  0  0  0  0  0
   40.7640   25.5090   34.9230 C   0  0  0  0  0  0  0  0  0  0  0  0
   40.6420   24.2500   35.3710 N   0  0  0  0  0  0  0  0  0  0  0  0
   41.6020   22.5100   36.0730 H   0  0  0  0  0  0  0  0  0  0  0  0
   43.8540   23.4620   35.8960 H   0  0  0  0  0  0  0  0  0  0  0  0
   44.1020   25.8050   35.0650 H   0  0  0  0  0  0  0  0  0  0  0  0
   35.9030   26.5730   31.4700 C   0  0  0  0  0  0  0  0  0  0  0  0
   35.2420   27.4000   31.3040 H   0  0  0  0  0  0  0  0  0  0  0  0
   35.6260   26.2270   32.5280 H   0  0  0  0  0  0  0  0  0  0  0  0
   35.8030   25.3950   30.6880 N   0  0  0  0  0  0  0  0  0  0  0  0
   35.1880   25.4860   29.8480 H   0  0  0  0  0  0  0  0  0  0  0  0
   35.6610   24.1680   31.3810 C   0  0  0  0  0  0  0  0  0  0  0  0
   35.6290   24.2900   32.4950 H   0  0  0  0  0  0  0  0  0  0  0  0
   34.7470   23.6600   31.0290 H   0  0  0  0  0  0  0  0  0  0  0  0
   36.8340   23.3000   31.0860 C   0  0  0  0  0  0  0  0  0  0  0  0
   37.1220   23.2960   30.0110 H   0  0  0  0  0  0  0  0  0  0  0  0
   37.6770   23.2820   31.7660 H   0  0  0  0  0  0  0  0  0  0  0  0
   36.2760   21.8810   31.2700 C   0  0  0  0  0  0  0  0  0  0  0  0
   35.2020   21.6780   32.1190 C   0  0  0  0  0  3  0  0  0  0  0  0
   34.7270   20.3860   32.2590 C   0  0  0  0  0  0  0  0  0  0  0  0
   33.8760   20.3380   32.9540 H   0  0  0  0  0  0  0  0  0  0  0  0
   35.2820   19.3520   31.5980 N   0  0  0  0  0  0  0  0  0  0  0  0
   36.3280   19.5820   30.7780 C   0  0  0  0  0  3  0  0  0  0  0  0
   36.8210   20.8210   30.6120 N   0  0  0  0  0  0  0  0  0  0  0  0
  1 10  1  0  0  0  0
  2  1  1  0  0  0  0
  3  1  1  0  0  0  0
  4  5  1  0  0  0  0
  5  6  1  0  0  0  0
  6 18  1  0  0  0  0
  6  7  2  0  0  0  0
  7 11  1  0  0  0  0
  8  7  1  0  0  0  0
  8 12  1  0  0  0  0
  9  8  2  0  0  0  0
 10  5  2  0  0  0  0
 10  9  1  0  0  0  0
 13  9  1  0  0  0  0
 14 20  1  0  0  0  0
 15 14  1  0  0  0  0
 15 21  1  0  0  0  0
 16 15  2  0  0  0  0
 17 18  2  0  0  0  0
 17 16  1  0  0  0  0
 18 19  1  0  0  0  0
 19 14  2  0  0  0  0
 22 16  1  0  0  0  0
 23  1  1  0  0  0  0
 23 25  1  0  0  0  0
 24 23  1  0  0  0  0
 26 28  1  0  0  0  0
 26 23  1  0  0  0  0
 27 26  1  0  0  0  0
 28 29  1  0  0  0  0
 30 28  1  0  0  0  0
 31 34  1  0  0  0  0
 31 28  1  0  0  0  0
 31 33  1  0  0  0  0
 32 31  1  0  0  0  0
 34 35  1  0  0  0  0
 35 36  2  0  0  0  0
 36 37  1  0  0  0  0
 38 36  1  0  0  0  0
 39 38  2  0  0  0  0
 40 39  1  0  0  0  0
 40 34  2  0  0  0  0
M  END
>  <minimizedAffinity>
-5.17940044

$$$$

 OpenBabel03262520143D

 40 42  0  0  0  0  0  0  0  0999 V2000
   36.5800   23.7530   30.9850 C   0  0  0  0  0  0  0  0  0  0  0  0
   37.5570   24.2630   30.8730 H   0  0  0  0  0  0  0  0  0  0  0  0
   36.4700   23.1090   30.0850 H   0  0  0  0  0  0  0  0  0  0  0  0
   38.6590   24.5660   33.2270 Br  0  0  0  0  0  0  0  0  0  0  0  0
   37.4440   23.0730   33.2470 C   0  0  0  0  0  0  0  0  0  0  0  0
   37.4120   22.2140   34.3190 C   0  0  0  0  0  0  0  0  0  0  0  0
   36.5360   21.1680   34.2740 C   0  0  0  0  0  0  0  0  0  0  0  0
   35.6900   20.9480   33.1970 C   0  0  0  0  0  0  0  0  0  0  0  0
   35.7530   21.8450   32.1240 C   0  0  0  0  0  0  0  0  0  0  0  0
   36.6270   22.8940   32.1630 C   0  0  0  0  0  0  0  0  0  0  0  0
   36.5520   20.5130   35.1600 H   0  0  0  0  0  0  0  0  0  0  0  0
   35.0680   20.0830   33.3230 H   0  0  0  0  0  0  0  0  0  0  0  0
   35.0490   21.4950   31.4100 H   0  0  0  0  0  0  0  0  0  0  0  0
   38.5340   23.2790   37.6260 C   0  0  0  0  0  0  0  0  0  0  0  0
   39.8920   22.8190   37.6810 C   0  0  0  0  0  0  0  0  0  0  0  0
   40.3700   22.1610   36.5810 C   0  0  0  0  0  0  0  0  0  0  0  0
   39.5630   21.9610   35.4810 N   0  0  0  0  0  0  0  0  0  0  0  0
   38.2940   22.4120   35.4770 C   0  0  0  0  0  0  0  0  0  0  0  0
   37.8010   23.0610   36.5430 N   0  0  0  0  0  0  0  0  0  0  0  0
   38.1360   23.8030   38.4860 H   0  0  0  0  0  0  0  0  0  0  0  0
   40.4560   23.0170   38.5820 H   0  0  0  0  0  0  0  0  0  0  0  0
   41.3940   21.8080   36.6080 H   0  0  0  0  0  0  0  0  0  0  0  0
   35.5040   24.7730   30.9310 C   0  0  0  0  0  0  0  0  0  0  0  0
   34.7570   24.6590   31.6920 H   0  0  0  0  0  0  0  0  0  0  0  0
   34.9390   24.5050   29.9690 H   0  0  0  0  0  0  0  0  0  0  0  0
   36.0680   26.0430   30.6530 N   0  0  0  0  0  0  0  0  0  0  0  0
   37.0750   26.0160   30.3740 H   0  0  0  0  0  0  0  0  0  0  0  0
   35.7390   27.1040   31.5310 C   0  0  0  0  0  0  0  0  0  0  0  0
   35.1450   27.9170   31.0390 H   0  0  0  0  0  0  0  0  0  0  0  0
   35.1850   26.6990   32.3940 H   0  0  0  0  0  0  0  0  0  0  0  0
   36.9920   27.7390   32.0240 C   0  0  0  0  0  0  0  0  0  0  0  0
   36.8330   28.7440   32.4750 H   0  0  0  0  0  0  0  0  0  0  0  0
   37.7340   27.1410   32.5380 H   0  0  0  0  0  0  0  0  0  0  0  0
   37.7410   28.0880   30.7290 C   0  0  0  0  0  0  0  0  0  0  0  0
   39.1000   27.8370   30.6400 C   0  0  0  0  0  3  0  0  0  0  0  0
   39.7390   28.1650   29.4580 C   0  0  0  0  0  0  0  0  0  0  0  0
   40.8120   27.9250   29.4950 H   0  0  0  0  0  0  0  0  0  0  0  0
   39.0750   28.7110   28.4210 N   0  0  0  0  0  0  0  0  0  0  0  0
   37.7520   28.9440   28.5390 C   0  0  0  0  0  3  0  0  0  0  0  0
   37.0910   28.6410   29.6680 N   0  0  0  0  0  0  0  0  0  0  0  0
  1 10  1  0  0  0  0
  2  1  1  0  0  0  0
  3  1  1  0  0  0  0
  4  5  1  0  0  0  0
  5  6  1  0  0  0  0
  6 18  1  0  0  0  0
  7  6  2  0  0  0  0
  7 11  1  0  0  0  0
  8 12  1  0  0  0  0
  8  7  1  0  0  0  0
  9 10  1  0  0  0  0
  9  8  2  0  0  0  0
 10  5  2  0  0  0  0
 13  9  1  0  0  0  0
 14 15  1  0  0  0  0
 14 20  1  0  0  0  0
 15 21  1  0  0  0  0
 16 22  1  0  0  0  0
 16 15  2  0  0  0  0
 17 16  1  0  0  0  0
 18 17  2  0  0  0  0
 18 19  1  0  0  0  0
 19 14  2  0  0  0  0
 23  1  1  0  0  0  0
 23 24  1  0  0  0  0
 25 23  1  0  0  0  0
 26 23  1  0  0  0  0
 26 28  1  0  0  0  0
 27 26  1  0  0  0  0
 28 31  1  0  0  0  0
 28 30  1  0  0  0  0
 29 28  1  0  0  0  0
 31 32  1  0  0  0  0
 31 33  1  0  0  0  0
 34 31  1  0  0  0  0
 35 34  1  0  0  0  0
 36 37  1  0  0  0  0
 36 35  2  0  0  0  0
 38 39  2  0  0  0  0
 38 36  1  0  0  0  0
 39 40  1  0  0  0  0
 40 34  2  0  0  0  0
M  END
>  <minimizedAffinity>
-5.08956766

$$$$

 OpenBabel03262520143D

 40 42  0  0  0  0  0  0  0  0999 V2000
   36.8830   24.4040   31.1470 C   0  0  0  0  0  0  0  0  0  0  0  0
   37.5480   25.2480   31.4200 H   0  0  0  0  0  0  0  0  0  0  0  0
   37.3090   23.9760   30.2130 H   0  0  0  0  0  0  0  0  0  0  0  0
   38.7640   25.0580   33.6050 Br  0  0  0  0  0  0  0  0  0  0  0  0
   37.6950   23.4790   33.3400 C   0  0  0  0  0  0  0  0  0  0  0  0
   37.6910   22.4730   34.2770 C   0  0  0  0  0  0  0  0  0  0  0  0
   36.9200   21.3740   34.0300 C   0  0  0  0  0  0  0  0  0  0  0  0
   36.1530   21.2410   32.8820 C   0  0  0  0  0  0  0  0  0  0  0  0
   36.1840   22.2870   31.9520 C   0  0  0  0  0  0  0  0  0  0  0  0
   36.9530   23.3900   32.1930 C   0  0  0  0  0  0  0  0  0  0  0  0
   36.9540   20.6000   34.8140 H   0  0  0  0  0  0  0  0  0  0  0  0
   35.6090   20.3170   32.8470 H   0  0  0  0  0  0  0  0  0  0  0  0
   35.5520   21.9860   31.1530 H   0  0  0  0  0  0  0  0  0  0  0  0
   38.6020   23.3110   37.7110 C   0  0  0  0  0  0  0  0  0  0  0  0
   39.9380   22.8020   37.8350 C   0  0  0  0  0  0  0  0  0  0  0  0
   40.4750   22.1920   36.7340 C   0  0  0  0  0  0  0  0  0  0  0  0
   39.7440   22.0820   35.5700 N   0  0  0  0  0  0  0  0  0  0  0  0
   38.4930   22.5750   35.5030 C   0  0  0  0  0  0  0  0  0  0  0  0
   37.9430   23.1790   36.5680 N   0  0  0  0  0  0  0  0  0  0  0  0
   38.1590   23.7990   38.5700 H   0  0  0  0  0  0  0  0  0  0  0  0
   40.4410   22.9300   38.7830 H   0  0  0  0  0  0  0  0  0  0  0  0
   41.4830   21.8040   36.8120 H   0  0  0  0  0  0  0  0  0  0  0  0
   35.5420   24.9450   30.8130 C   0  0  0  0  0  0  0  0  0  0  0  0
   34.7660   24.6250   31.4790 H   0  0  0  0  0  0  0  0  0  0  0  0
   35.2820   24.4080   29.8330 H   0  0  0  0  0  0  0  0  0  0  0  0
   35.6610   26.3060   30.4360 N   0  0  0  0  0  0  0  0  0  0  0  0
   35.7710   26.4610   29.4080 H   0  0  0  0  0  0  0  0  0  0  0  0
   36.4860   27.1300   31.2390 C   0  0  0  0  0  0  0  0  0  0  0  0
   36.1950   27.1270   32.3210 H   0  0  0  0  0  0  0  0  0  0  0  0
   37.5340   26.8090   31.1250 H   0  0  0  0  0  0  0  0  0  0  0  0
   36.3660   28.5410   30.7760 C   0  0  0  0  0  0  0  0  0  0  0  0
   37.3350   28.9870   30.4580 H   0  0  0  0  0  0  0  0  0  0  0  0
   35.5250   28.8380   30.1620 H   0  0  0  0  0  0  0  0  0  0  0  0
   36.0720   29.3120   32.0720 C   0  0  0  0  0  0  0  0  0  0  0  0
   36.0700   28.6350   33.2790 C   0  0  0  0  0  3  0  0  0  0  0  0
   35.8020   29.3630   34.4250 C   0  0  0  0  0  0  0  0  0  0  0  0
   35.8260   28.7310   35.3240 H   0  0  0  0  0  0  0  0  0  0  0  0
   35.5470   30.6850   34.3810 N   0  0  0  0  0  0  0  0  0  0  0  0
   35.5550   31.3160   33.1880 C   0  0  0  0  0  3  0  0  0  0  0  0
   35.8120   30.6480   32.0510 N   0  0  0  0  0  0  0  0  0  0  0  0
  1  2  1  0  0  0  0
  1 10  1  0  0  0  0
  3  1  1  0  0  0  0
  5  4  1  0  0  0  0
  5  6  1  0  0  0  0
  6 18  1  0  0  0  0
  7  6  2  0  0  0  0
  7 11  1  0  0  0  0
  8  7  1  0  0  0  0
  9 10  1  0  0  0  0
  9  8  2  0  0  0  0
 10  5  2  0  0  0  0
 12  8  1  0  0  0  0
 13  9  1  0  0  0  0
 14 15  1  0  0  0  0
 14 20  1  0  0  0  0
 15 21  1  0  0  0  0
 16 22  1  0  0  0  0
 16 15  2  0  0  0  0
 17 16  1  0  0  0  0
 18 17  2  0  0  0  0
 18 19  1  0  0  0  0
 19 14  2  0  0  0  0
 23  1  1  0  0  0  0
 23 24  1  0  0  0  0
 25 23  1  0  0  0  0
 26 23  1  0  0  0  0
 26 28  1  0  0  0  0
 27 26  1  0  0  0  0
 28 29  1  0  0  0  0
 30 28  1  0  0  0  0
 31 28  1  0  0  0  0
 31 34  1  0  0  0  0
 32 31  1  0  0  0  0
 33 31  1  0  0  0  0
 34 35  1  0  0  0  0
 35 36  2  0  0  0  0
 36 37  1  0  0  0  0
 38 36  1  0  0  0  0
 39 38  2  0  0  0  0
 40 34  2  0  0  0  0
 40 39  1  0  0  0  0
M  END
>  <minimizedAffinity>
-5.07395601

$$$$

 OpenBabel03262520143D

 40 42  0  0  0  0  0  0  0  0999 V2000
   37.0190   27.7530   31.7160 C   0  0  0  0  0  0  0  0  0  0  0  0
   36.8500   28.8420   31.6050 H   0  0  0  0  0  0  0  0  0  0  0  0
   37.6540   27.4570   30.8520 H   0  0  0  0  0  0  0  0  0  0  0  0
   39.9960   26.7420   31.3600 Br  0  0  0  0  0  0  0  0  0  0  0  0
   39.0680   27.0850   33.0110 C   0  0  0  0  0  0  0  0  0  0  0  0
   39.6990   26.8940   34.2180 C   0  0  0  0  0  0  0  0  0  0  0  0
   38.9890   27.1450   35.3560 C   0  0  0  0  0  0  0  0  0  0  0  0
   37.6710   27.5800   35.3350 C   0  0  0  0  0  0  0  0  0  0  0  0
   37.0640   27.7620   34.0860 C   0  0  0  0  0  0  0  0  0  0  0  0
   37.7700   27.5120   32.9430 C   0  0  0  0  0  0  0  0  0  0  0  0
   39.5430   26.9770   36.2940 H   0  0  0  0  0  0  0  0  0  0  0  0
   37.2640   27.7280   36.3160 H   0  0  0  0  0  0  0  0  0  0  0  0
   36.0700   28.0770   34.2880 H   0  0  0  0  0  0  0  0  0  0  0  0
   42.5520   24.6920   34.8020 C   0  0  0  0  0  0  0  0  0  0  0  0
   43.6770   25.4990   34.4250 C   0  0  0  0  0  0  0  0  0  0  0  0
   43.4130   26.7680   33.9860 C   0  0  0  0  0  0  0  0  0  0  0  0
   42.1150   27.2280   33.9180 N   0  0  0  0  0  0  0  0  0  0  0  0
   41.0910   26.4320   34.2820 C   0  0  0  0  0  0  0  0  0  0  0  0
   41.3230   25.1840   34.7160 N   0  0  0  0  0  0  0  0  0  0  0  0
   42.7380   23.6850   35.1530 H   0  0  0  0  0  0  0  0  0  0  0  0
   44.6620   25.0610   34.5100 H   0  0  0  0  0  0  0  0  0  0  0  0
   44.2530   27.3880   33.6990 H   0  0  0  0  0  0  0  0  0  0  0  0
   35.7190   27.0530   31.5670 C   0  0  0  0  0  0  0  0  0  0  0  0
   34.8720   27.7090   31.5410 H   0  0  0  0  0  0  0  0  0  0  0  0
   35.5990   26.5110   32.5700 H   0  0  0  0  0  0  0  0  0  0  0  0
   35.8520   26.0020   30.6250 N   0  0  0  0  0  0  0  0  0  0  0  0
   35.3230   26.1500   29.7360 H   0  0  0  0  0  0  0  0  0  0  0  0
   35.7940   24.6770   31.1200 C   0  0  0  0  0  0  0  0  0  0  0  0
   35.5000   24.6210   32.2000 H   0  0  0  0  0  0  0  0  0  0  0  0
   35.0900   24.0930   30.5040 H   0  0  0  0  0  0  0  0  0  0  0  0
   37.1440   24.0570   31.0200 C   0  0  0  0  0  0  0  0  0  0  0  0
   37.2090   23.2600   30.2460 H   0  0  0  0  0  0  0  0  0  0  0  0
   38.0300   24.6780   31.0840 H   0  0  0  0  0  0  0  0  0  0  0  0
   37.2560   23.2470   32.3200 C   0  0  0  0  0  0  0  0  0  0  0  0
   38.0010   23.7500   33.3730 C   0  0  0  0  0  3  0  0  0  0  0  0
   38.0780   22.9910   34.5270 C   0  0  0  0  0  0  0  0  0  0  0  0
   38.6920   23.4830   35.2970 H   0  0  0  0  0  0  0  0  0  0  0  0
   37.4560   21.8020   34.6360 N   0  0  0  0  0  0  0  0  0  0  0  0
   36.7380   21.3390   33.5930 C   0  0  0  0  0  3  0  0  0  0  0  0
   36.6360   22.0420   32.4530 N   0  0  0  0  0  0  0  0  0  0  0  0
  1 10  1  0  0  0  0
  2  1  1  0  0  0  0
  3  1  1  0  0  0  0
  4  5  1  0  0  0  0
  5  6  1  0  0  0  0
  6 18  1  0  0  0  0
  6  7  2  0  0  0  0
  7 11  1  0  0  0  0
  8  7  1  0  0  0  0
  8 12  1  0  0  0  0
  9 13  1  0  0  0  0
  9  8  2  0  0  0  0
 10  5  2  0  0  0  0
 10  9  1  0  0  0  0
 14 20  1  0  0  0  0
 15 21  1  0  0  0  0
 15 14  2  0  0  0  0
 16 15  1  0  0  0  0
 17 16  2  0  0  0  0
 17 18  1  0  0  0  0
 18 19  2  0  0  0  0
 19 14  1  0  0  0  0
 22 16  1  0  0  0  0
 23  1  1  0  0  0  0
 23 25  1  0  0  0  0
 24 23  1  0  0  0  0
 26 28  1  0  0  0  0
 26 23  1  0  0  0  0
 27 26  1  0  0  0  0
 28 29  1  0  0  0  0
 30 28  1  0  0  0  0
 31 33  1  0  0  0  0
 31 28  1  0  0  0  0
 31 34  1  0  0  0  0
 32 31  1  0  0  0  0
 34 40  2  0  0  0  0
 34 35  1  0  0  0  0
 35 36  2  0  0  0  0
 36 38  1  0  0  0  0
 36 37  1  0  0  0  0
 39 38  2  0  0  0  0
 40 39  1  0  0  0  0
M  END
>  <minimizedAffinity>
-5.06673002

$$$$

 OpenBabel03262520143D

 40 42  0  0  0  0  0  0  0  0999 V2000
   38.1650   23.5710   33.5170 C   0  0  0  0  0  0  0  0  0  0  0  0
   39.1220   23.4490   32.9730 H   0  0  0  0  0  0  0  0  0  0  0  0
   38.3870   24.2510   34.3680 H   0  0  0  0  0  0  0  0  0  0  0  0
   38.3000   26.7300   33.4120 Br  0  0  0  0  0  0  0  0  0  0  0  0
   37.0990   25.5790   32.4430 C   0  0  0  0  0  0  0  0  0  0  0  0
   36.1630   26.1090   31.5860 C   0  0  0  0  0  0  0  0  0  0  0  0
   35.3340   25.2460   30.9320 C   0  0  0  0  0  0  0  0  0  0  0  0
   35.4030   23.8700   31.1010 C   0  0  0  0  0  0  0  0  0  0  0  0
   36.3690   23.3690   31.9830 C   0  0  0  0  0  0  0  0  0  0  0  0
   37.2030   24.2290   32.6400 C   0  0  0  0  0  0  0  0  0  0  0  0
   34.6050   25.7250   30.2580 H   0  0  0  0  0  0  0  0  0  0  0  0
   34.6790   23.3400   30.5140 H   0  0  0  0  0  0  0  0  0  0  0  0
   36.2460   22.3140   31.9800 H   0  0  0  0  0  0  0  0  0  0  0  0
   35.1030   29.5670   32.0830 C   0  0  0  0  0  0  0  0  0  0  0  0
   35.8120   30.2830   31.0610 C   0  0  0  0  0  0  0  0  0  0  0  0
   36.6270   29.5510   30.2410 C   0  0  0  0  0  0  0  0  0  0  0  0
   36.7440   28.1880   30.4080 N   0  0  0  0  0  0  0  0  0  0  0  0
   36.0580   27.5600   31.3830 C   0  0  0  0  0  0  0  0  0  0  0  0
   35.2520   28.2550   32.2010 N   0  0  0  0  0  0  0  0  0  0  0  0
   34.4520   30.1280   32.7420 H   0  0  0  0  0  0  0  0  0  0  0  0
   35.6630   31.3520   30.9980 H   0  0  0  0  0  0  0  0  0  0  0  0
   37.1680   30.0780   29.4640 H   0  0  0  0  0  0  0  0  0  0  0  0
   37.7740   22.2590   34.0910 C   0  0  0  0  0  0  0  0  0  0  0  0
   38.0480   21.4200   33.4840 H   0  0  0  0  0  0  0  0  0  0  0  0
   36.6300   22.2730   34.0170 H   0  0  0  0  0  0  0  0  0  0  0  0
   38.0260   22.2600   35.4860 N   0  0  0  0  0  0  0  0  0  0  0  0
   37.4410   21.5860   36.0300 H   0  0  0  0  0  0  0  0  0  0  0  0
   38.1940   23.5180   36.1130 C   0  0  0  0  0  0  0  0  0  0  0  0
   38.7620   24.2530   35.4860 H   0  0  0  0  0  0  0  0  0  0  0  0
   37.2030   23.9270   36.3730 H   0  0  0  0  0  0  0  0  0  0  0  0
   38.9790   23.3390   37.3660 C   0  0  0  0  0  0  0  0  0  0  0  0
   39.2430   24.2980   37.8640 H   0  0  0  0  0  0  0  0  0  0  0  0
   38.7220   22.5440   38.0550 H   0  0  0  0  0  0  0  0  0  0  0  0
   40.3470   22.8580   36.8570 C   0  0  0  0  0  0  0  0  0  0  0  0
   40.9760   21.8020   37.4940 C   0  0  0  0  0  3  0  0  0  0  0  0
   42.2060   21.3980   37.0060 C   0  0  0  0  0  0  0  0  0  0  0  0
   42.6150   20.5550   37.5830 H   0  0  0  0  0  0  0  0  0  0  0  0
   42.7840   22.0030   35.9510 N   0  0  0  0  0  0  0  0  0  0  0  0
   42.1460   23.0300   35.3530 C   0  0  0  0  0  3  0  0  0  0  0  0
   40.9500   23.4550   35.7930 N   0  0  0  0  0  0  0  0  0  0  0  0
  1 23  1  0  0  0  0
  1  3  1  0  0  0  0
  2  1  1  0  0  0  0
  5 10  1  0  0  0  0
  5  4  1  0  0  0  0
  6  5  2  0  0  0  0
  7  8  2  0  0  0  0
  7  6  1  0  0  0  0
  8  9  1  0  0  0  0
  9 10  2  0  0  0  0
 10  1  1  0  0  0  0
 11  7  1  0  0  0  0
 12  8  1  0  0  0  0
 13  9  1  0  0  0  0
 14 19  1  0  0  0  0
 14 20  1  0  0  0  0
 15 14  2  0  0  0  0
 16 17  2  0  0  0  0
 16 15  1  0  0  0  0
 17 18  1  0  0  0  0
 18  6  1  0  0  0  0
 18 19  2  0  0  0  0
 21 15  1  0  0  0  0
 22 16  1  0  0  0  0
 23 26  1  0  0  0  0
 24 23  1  0  0  0  0
 25 23  1  0  0  0  0
 26 27  1  0  0  0  0
 26 28  1  0  0  0  0
 28 30  1  0  0  0  0
 28 31  1  0  0  0  0
 29 28  1  0  0  0  0
 31 32  1  0  0  0  0
 31 33  1  0  0  0  0
 34 31  1  0  0  0  0
 34 35  1  0  0  0  0
 36 35  2  0  0  0  0
 36 37  1  0  0  0  0
 38 36  1  0  0  0  0
 39 40  1  0  0  0  0
 39 38  2  0  0  0  0
 40 34  2  0  0  0  0
M  END
>  <minimizedAffinity>
-5.0001688

$$$$

 OpenBabel03262520143D

 40 42  0  0  0  0  0  0  0  0999 V2000
   37.1270   27.7670   32.8890 C   0  0  0  0  0  0  0  0  0  0  0  0
   36.0870   28.0060   33.1880 H   0  0  0  0  0  0  0  0  0  0  0  0
   37.7800   28.3480   33.5770 H   0  0  0  0  0  0  0  0  0  0  0  0
   38.6160   27.0110   35.5760 Br  0  0  0  0  0  0  0  0  0  0  0  0
   37.9850   25.8080   34.2120 C   0  0  0  0  0  0  0  0  0  0  0  0
   38.1610   24.4510   34.3420 C   0  0  0  0  0  0  0  0  0  0  0  0
   37.7010   23.6480   33.3400 C   0  0  0  0  0  0  0  0  0  0  0  0
   37.0710   24.1490   32.2100 C   0  0  0  0  0  0  0  0  0  0  0  0
   36.9110   25.5370   32.1140 C   0  0  0  0  0  0  0  0  0  0  0  0
   37.3690   26.3460   33.1150 C   0  0  0  0  0  0  0  0  0  0  0  0
   37.8680   22.5700   33.4970 H   0  0  0  0  0  0  0  0  0  0  0  0
   36.7730   23.3820   31.5220 H   0  0  0  0  0  0  0  0  0  0  0  0
   36.4280   25.7110   31.1840 H   0  0  0  0  0  0  0  0  0  0  0  0
   38.6430   23.2640   37.7610 C   0  0  0  0  0  0  0  0  0  0  0  0
   40.0090   22.8250   37.7720 C   0  0  0  0  0  0  0  0  0  0  0  0
   40.7120   22.9540   36.6050 C   0  0  0  0  0  0  0  0  0  0  0  0
   40.1130   23.4850   35.4830 N   0  0  0  0  0  0  0  0  0  0  0  0
   38.8270   23.8820   35.5220 C   0  0  0  0  0  0  0  0  0  0  0  0
   38.1150   23.7670   36.6540 N   0  0  0  0  0  0  0  0  0  0  0  0
   38.0690   23.1720   38.6750 H   0  0  0  0  0  0  0  0  0  0  0  0
   40.4030   22.4210   38.6940 H   0  0  0  0  0  0  0  0  0  0  0  0
   41.7450   22.6270   36.5980 H   0  0  0  0  0  0  0  0  0  0  0  0
   37.3580   28.2860   31.5180 C   0  0  0  0  0  0  0  0  0  0  0  0
   37.8180   27.5790   30.8570 H   0  0  0  0  0  0  0  0  0  0  0  0
   38.1800   29.0710   31.6720 H   0  0  0  0  0  0  0  0  0  0  0  0
   36.2350   29.0440   31.1030 N   0  0  0  0  0  0  0  0  0  0  0  0
   35.8890   28.8130   30.1450 H   0  0  0  0  0  0  0  0  0  0  0  0
   36.2440   30.4290   31.3980 C   0  0  0  0  0  0  0  0  0  0  0  0
   37.0980   30.7360   32.0540 H   0  0  0  0  0  0  0  0  0  0  0  0
   36.2670   30.9980   30.4530 H   0  0  0  0  0  0  0  0  0  0  0  0
   34.9990   30.7800   32.1350 C   0  0  0  0  0  0  0  0  0  0  0  0
   34.4390   31.6280   31.6810 H   0  0  0  0  0  0  0  0  0  0  0  0
   34.3640   29.9950   32.5270 H   0  0  0  0  0  0  0  0  0  0  0  0
   35.5270   31.4090   33.4340 C   0  0  0  0  0  0  0  0  0  0  0  0
   35.5000   30.6710   34.6060 C   0  0  0  0  0  3  0  0  0  0  0  0
   35.9840   31.2710   35.7550 C   0  0  0  0  0  0  0  0  0  0  0  0
   35.9160   30.6000   36.6240 H   0  0  0  0  0  0  0  0  0  0  0  0
   36.4660   32.5290   35.7480 N   0  0  0  0  0  0  0  0  0  0  0  0
   36.4770   33.2220   34.5910 C   0  0  0  0  0  3  0  0  0  0  0  0
   36.0180   32.6780   33.4520 N   0  0  0  0  0  0  0  0  0  0  0  0
  1 10  1  0  0  0  0
  1  2  1  0  0  0  0
  1  3  1  0  0  0  0
  5  6  1  0  0  0  0
  5  4  1  0  0  0  0
  6 18  1  0  0  0  0
  7 11  1  0  0  0  0
  7  6  2  0  0  0  0
  8  7  1  0  0  0  0
  9  8  2  0  0  0  0
  9 10  1  0  0  0  0
 10  5  2  0  0  0  0
 12  8  1  0  0  0  0
 13  9  1  0  0  0  0
 14 15  1  0  0  0  0
 14 20  1  0  0  0  0
 15 21  1  0  0  0  0
 16 15  2  0  0  0  0
 17 18  2  0  0  0  0
 17 16  1  0  0  0  0
 18 19  1  0  0  0  0
 19 14  2  0  0  0  0
 22 16  1  0  0  0  0
 23 25  1  0  0  0  0
 23  1  1  0  0  0  0
 24 23  1  0  0  0  0
 26 28  1  0  0  0  0
 26 23  1  0  0  0  0
 27 26  1  0  0  0  0
 28 29  1  0  0  0  0
 28 31  1  0  0  0  0
 30 28  1  0  0  0  0
 31 33  1  0  0  0  0
 31 34  1  0  0  0  0
 32 31  1  0  0  0  0
 34 40  2  0  0  0  0
 34 35  1  0  0  0  0
 35 36  2  0  0  0  0
 36 37  1  0  0  0  0
 38 36  1  0  0  0  0
 39 38  2  0  0  0  0
 40 39  1  0  0  0  0
M  END
>  <minimizedAffinity>
-4.99055672

$$$$

 OpenBabel03262520143D

 40 42  0  0  0  0  0  0  0  0999 V2000
   37.8160   23.7420   37.4930 C   0  0  0  0  0  0  0  0  0  0  0  0
   37.0030   24.2080   38.0840 H   0  0  0  0  0  0  0  0  0  0  0  0
   37.4030   22.7790   37.1200 H   0  0  0  0  0  0  0  0  0  0  0  0
   37.8240   22.3210   34.6670 Br  0  0  0  0  0  0  0  0  0  0  0  0
   38.1570   24.1800   35.0410 C   0  0  0  0  0  0  0  0  0  0  0  0
   38.4380   25.0580   34.0200 C   0  0  0  0  0  0  0  0  0  0  0  0
   38.6750   26.3620   34.3460 C   0  0  0  0  0  0  0  0  0  0  0  0
   38.6410   26.8230   35.6540 C   0  0  0  0  0  0  0  0  0  0  0  0
   38.3510   25.8980   36.6650 C   0  0  0  0  0  0  0  0  0  0  0  0
   38.1140   24.5910   36.3450 C   0  0  0  0  0  0  0  0  0  0  0  0
   38.8930   27.0200   33.4900 H   0  0  0  0  0  0  0  0  0  0  0  0
   38.8500   27.8720   35.7330 H   0  0  0  0  0  0  0  0  0  0  0  0
   38.3890   26.4410   37.5770 H   0  0  0  0  0  0  0  0  0  0  0  0
   39.8090   23.8730   30.8510 C   0  0  0  0  0  0  0  0  0  0  0  0
   38.6510   23.7510   30.0120 C   0  0  0  0  0  0  0  0  0  0  0  0
   37.4440   24.0820   30.5670 C   0  0  0  0  0  0  0  0  0  0  0  0
   37.3700   24.5090   31.8760 N   0  0  0  0  0  0  0  0  0  0  0  0
   38.4860   24.6060   32.6240 C   0  0  0  0  0  0  0  0  0  0  0  0
   39.6820   24.2890   32.1030 N   0  0  0  0  0  0  0  0  0  0  0  0
   40.7740   23.6170   30.4310 H   0  0  0  0  0  0  0  0  0  0  0  0
   38.7960   23.4090   28.9970 H   0  0  0  0  0  0  0  0  0  0  0  0
   36.5610   23.9960   29.9450 H   0  0  0  0  0  0  0  0  0  0  0  0
   38.9390   23.4160   38.4060 C   0  0  0  0  0  0  0  0  0  0  0  0
   38.6990   23.5190   39.4460 H   0  0  0  0  0  0  0  0  0  0  0  0
   39.6800   24.2730   38.2250 H   0  0  0  0  0  0  0  0  0  0  0  0
   39.6200   22.2680   37.9290 N   0  0  0  0  0  0  0  0  0  0  0  0
   39.3810   21.3850   38.4320 H   0  0  0  0  0  0  0  0  0  0  0  0
   40.9970   22.4110   37.6280 C   0  0  0  0  0  0  0  0  0  0  0  0
   41.4270   23.3850   37.9770 H   0  0  0  0  0  0  0  0  0  0  0  0
   41.5510   21.5690   38.0740 H   0  0  0  0  0  0  0  0  0  0  0  0
   41.1810   22.3750   36.1510 C   0  0  0  0  0  0  0  0  0  0  0  0
   41.7960   21.5160   35.8020 H   0  0  0  0  0  0  0  0  0  0  0  0
   40.3510   22.6140   35.4970 H   0  0  0  0  0  0  0  0  0  0  0  0
   42.1180   23.5630   35.8850 C   0  0  0  0  0  0  0  0  0  0  0  0
   43.3280   23.6370   36.5530 C   0  0  0  0  0  3  0  0  0  0  0  0
   44.1450   24.7220   36.2870 C   0  0  0  0  0  0  0  0  0  0  0  0
   45.0780   24.6810   36.8690 H   0  0  0  0  0  0  0  0  0  0  0  0
   43.7870   25.6810   35.4130 N   0  0  0  0  0  0  0  0  0  0  0  0
   42.6010   25.5810   34.7780 C   0  0  0  0  0  3  0  0  0  0  0  0
   41.7770   24.5450   35.0060 N   0  0  0  0  0  0  0  0  0  0  0  0
  1  2  1  0  0  0  0
  1 23  1  0  0  0  0
  3  1  1  0  0  0  0
  4  5  1  0  0  0  0
  5 10  1  0  0  0  0
  6  7  1  0  0  0  0
  6  5  2  0  0  0  0
  7  8  2  0  0  0  0
  8 12  1  0  0  0  0
  8  9  1  0  0  0  0
  9 13  1  0  0  0  0
 10  9  2  0  0  0  0
 10  1  1  0  0  0  0
 11  7  1  0  0  0  0
 14 19  1  0  0  0  0
 15 16  1  0  0  0  0
 15 14  2  0  0  0  0
 16 17  2  0  0  0  0
 17 18  1  0  0  0  0
 18  6  1  0  0  0  0
 19 18  2  0  0  0  0
 20 14  1  0  0  0  0
 21 15  1  0  0  0  0
 22 16  1  0  0  0  0
 23 24  1  0  0  0  0
 25 23  1  0  0  0  0
 26 23  1  0  0  0  0
 26 27  1  0  0  0  0
 28 26  1  0  0  0  0
 28 29  1  0  0  0  0
 28 30  1  0  0  0  0
 31 28  1  0  0  0  0
 32 31  1  0  0  0  0
 33 31  1  0  0  0  0
 34 31  1  0  0  0  0
 34 35  1  0  0  0  0
 36 35  2  0  0  0  0
 36 37  1  0  0  0  0
 38 36  1  0  0  0  0
 39 40  1  0  0  0  0
 39 38  2  0  0  0  0
 40 34  2  0  0  0  0
M  END
>  <minimizedAffinity>
-4.98769283

$$$$
