
 OpenBabel03272508163D

 29 31  0  0  0  0  0  0  0  0999 V2000
   35.4890   30.6470   47.5040 Cl  0  0  0  0  0  0  0  0  0  0  0  0
   35.6450   30.0110   45.9050 C   0  0  0  0  0  0  0  0  0  0  0  0
   34.7050   29.0790   45.6020 C   0  0  0  0  0  0  0  0  0  0  0  0
   34.7440   28.4940   44.3110 C   0  0  0  0  0  0  0  0  0  0  0  0
   35.6900   28.8470   43.3960 C   0  0  0  0  0  0  0  0  0  0  0  0
   36.6240   29.7890   43.7290 C   0  0  0  0  0  0  0  0  0  0  0  0
   37.8500   30.2770   42.5940 Cl  0  0  0  0  0  0  0  0  0  0  0  0
   36.5890   30.3510   44.9650 C   0  0  0  0  0  0  0  0  0  0  0  0
   34.0370   27.7440   43.9820 H   0  0  0  0  0  0  0  0  0  0  0  0
   35.7390   28.4140   42.4040 H   0  0  0  0  0  0  0  0  0  0  0  0
   33.8880   27.4920   47.2920 C   0  0  0  0  0  0  0  0  0  0  0  0
   33.5950   28.5430   46.4200 C   0  0  0  0  0  0  0  0  0  0  0  0
   32.2910   29.0450   46.3470 C   0  0  0  0  0  0  0  0  0  0  0  0
   31.3660   28.4560   47.1570 N   0  0  0  0  0  0  0  0  0  0  0  0
   31.6670   27.4420   47.9920 C   0  0  0  0  0  0  0  0  0  0  0  0
   32.9490   26.9500   48.0620 N   0  0  0  0  0  0  0  0  0  0  0  0
   34.8880   27.0890   47.3640 H   0  0  0  0  0  0  0  0  0  0  0  0
   32.0880   29.8500   45.6740 H   0  0  0  0  0  0  0  0  0  0  0  0
   30.8320   27.0760   48.5710 H   0  0  0  0  0  0  0  0  0  0  0  0
   37.5580   31.3710   45.4060 C   0  0  0  0  0  0  0  0  0  0  0  0
   37.7060   32.5410   45.0540 O   0  0  0  0  0  0  0  0  0  0  0  0
   38.5720   31.1910   46.3820 O   0  0  0  0  0  0  0  0  0  0  0  0
   38.9540   32.2520   47.1930 C   0  0  0  0  0  0  0  0  0  0  0  0
   39.9150   33.1830   46.8570 C   0  0  0  0  0  3  0  0  0  0  0  0
   40.1480   34.1520   47.7950 C   0  0  0  0  0  0  0  0  0  0  0  0
   40.9140   34.8970   47.5310 H   0  0  0  0  0  0  0  0  0  0  0  0
   39.4960   34.2110   48.9700 N   0  0  0  0  0  0  0  0  0  0  0  0
   38.5600   33.2900   49.2790 C   0  0  0  0  0  3  0  0  0  0  0  0
   38.3030   32.3120   48.3690 N   0  0  0  0  0  0  0  0  0  0  0  0
  2  1  1  0  0  0  0
  3  2  1  0  0  0  0
  3 12  1  0  0  0  0
  4  3  2  0  0  0  0
  5  6  2  0  0  0  0
  5  4  1  0  0  0  0
  6  8  1  0  0  0  0
  7  6  1  0  0  0  0
  8 20  1  0  0  0  0
  8  2  2  0  0  0  0
  9  4  1  0  0  0  0
 10  5  1  0  0  0  0
 11 17  1  0  0  0  0
 11 16  1  0  0  0  0
 12 11  2  0  0  0  0
 13 12  1  0  0  0  0
 13 14  2  0  0  0  0
 14 15  1  0  0  0  0
 15 16  2  0  0  0  0
 15 19  1  0  0  0  0
 18 13  1  0  0  0  0
 20 22  1  0  0  0  0
 21 20  2  0  0  0  0
 22 23  1  0  0  0  0
 23 29  1  0  0  0  0
 24 23  2  0  0  0  0
 24 25  1  0  0  0  0
 25 27  2  0  0  0  0
 26 25  1  0  0  0  0
 27 28  1  0  0  0  0
 29 28  2  0  0  0  0
M  END
>  <minimizedAffinity>
-4.47544241

>  <minimizedRMSD>
4.11758423

$$$$
