
 OpenBabel03272507283D

 39 41  0  0  1  0  0  0  0  0999 V2000
   34.8820   30.0270   47.7080 C   0  0  0  0  0  0  0  0  0  0  0  0
   35.5960   30.4640   46.5720 C   0  0  0  0  0  0  0  0  0  0  0  0
   35.3410   29.7960   45.3730 C   0  0  0  0  0  0  0  0  0  0  0  0
   34.4480   28.7930   45.3570 N   0  0  0  0  0  0  0  0  0  0  0  0
   33.7850   28.4040   46.4620 C   0  0  0  0  0  0  0  0  0  0  0  0
   34.0020   29.0160   47.6220 N   0  0  0  0  0  0  0  0  0  0  0  0
   36.0080   30.1640   44.2070 N   0  0  0  0  0  0  0  0  0  0  0  0
   36.4630   31.5380   43.8620 C   0  0  0  0  0  0  0  0  0  0  0  0
   36.8780   31.5350   42.4440 C   0  0  0  0  0  0  0  0  0  0  0  0
   36.2740   30.3220   41.9060 C   0  0  0  0  0  0  0  0  0  0  0  0
   36.4050   29.4070   43.0640 C   0  0  2  0  0  0  0  0  0  0  0  0
   35.1590   30.6180   48.5880 H   0  0  0  0  0  0  0  0  0  0  0  0
   36.3110   31.2530   46.5430 H   0  0  0  0  0  0  0  0  0  0  0  0
   33.0600   27.6130   46.5210 H   0  0  0  0  0  0  0  0  0  0  0  0
   37.0190   32.0600   44.6000 H   0  0  0  0  0  0  0  0  0  0  0  0
   35.4280   32.0730   43.9290 H   0  0  0  0  0  0  0  0  0  0  0  0
   36.1790   32.3660   41.9680 H   0  0  0  0  0  0  0  0  0  0  0  0
   37.8060   31.9310   42.1190 H   0  0  0  0  0  0  0  0  0  0  0  0
   35.2060   30.4270   41.6240 H   0  0  0  0  0  0  0  0  0  0  0  0
   36.7930   29.8680   41.0350 H   0  0  0  0  0  0  0  0  0  0  0  0
   35.5760   28.1420   42.8220 C   0  0  0  0  0  0  0  0  0  0  0  0
   34.2450   28.4640   42.9680 F   0  0  0  0  0  0  0  0  0  0  0  0
   35.8220   27.1090   43.6770 F   0  0  0  0  0  0  0  0  0  0  0  0
   35.7580   27.8000   41.5000 F   0  0  0  0  0  0  0  0  0  0  0  0
   37.7510   28.9640   43.2780 C   0  0  2  0  0  0  0  0  0  0  0  0
   37.8260   28.2300   44.0480 H   0  0  0  0  0  0  0  0  0  0  0  0
   38.7860   29.9710   43.9310 C   0  0  0  0  0  0  0  0  0  0  0  0
   39.7010   30.7250   43.2080 C   0  0  0  0  0  3  0  0  0  0  0  0
   40.5990   31.5130   43.8830 C   0  0  0  0  0  0  0  0  0  0  0  0
   41.2630   32.0550   43.2200 H   0  0  0  0  0  0  0  0  0  0  0  0
   40.6110   31.5680   45.2190 N   0  0  0  0  0  0  0  0  0  0  0  0
   39.7430   30.8540   45.9440 C   0  0  0  0  0  3  0  0  0  0  0  0
   38.8910   30.1060   45.2700 N   0  0  0  0  0  0  0  0  0  0  0  0
   38.2920   28.7940   42.1550 O   0  0  0  0  0  0  0  0  0  0  0  0
   39.0060   27.8720   41.4890 C   0  0  0  0  0  0  0  0  0  0  0  0
   38.8530   27.9600   40.2700 O   0  0  0  0  0  0  0  0  0  0  0  0
   39.9130   26.7800   41.5270 N   0  0  0  0  0  0  0  0  0  0  0  0
   39.6900   25.7730   41.7100 H   0  0  0  0  0  0  0  0  0  0  0  0
   40.9590   26.8900   41.3640 H   0  0  0  0  0  0  0  0  0  0  0  0
  1 12  1  0  0  0  0
  2  1  2  0  0  0  0
  3  2  1  0  0  0  0
  4  3  2  0  0  0  0
  4  5  1  0  0  0  0
  5 14  1  0  0  0  0
  5  6  2  0  0  0  0
  6  1  1  0  0  0  0
  7  3  1  0  0  0  0
  8 16  1  0  0  0  0
  8  7  1  0  0  0  0
  8 15  1  0  0  0  0
  9  8  1  0  0  0  0
 10  9  1  0  0  0  0
 10 11  1  0  0  0  0
 11 21  1  6  0  0  0
 11 25  1  0  0  0  0
 11  7  1  0  0  0  0
 13  2  1  0  0  0  0
 17  9  1  0  0  0  0
 18  9  1  0  0  0  0
 19 10  1  0  0  0  0
 20 10  1  0  0  0  0
 21 22  1  0  0  0  0
 21 23  1  0  0  0  0
 24 21  1  0  0  0  0
 25 27  1  0  0  0  0
 25 26  1  1  0  0  0
 27 33  1  0  0  0  0
 28 29  1  0  0  0  0
 28 27  2  0  0  0  0
 29 31  2  0  0  0  0
 30 29  1  0  0  0  0
 31 32  1  0  0  0  0
 33 32  2  0  0  0  0
 34 25  1  0  0  0  0
 35 37  1  0  0  0  0
 35 34  1  0  0  0  0
 36 35  2  0  0  0  0
 37 38  1  0  0  0  0
 39 37  1  0  0  0  0
M  END
>  <minimizedAffinity>
-3.6883471

>  <minimizedRMSD>
3.41260219

$$$$
