REMARK  Name = 
REMARK  3 active torsions:
REMARK  status: ('A' for Active; 'I' for Inactive)
REMARK    1  A    between atoms: N_1  and  C_10
REMARK    2  A    between atoms: C_13  and  O_15
REMARK    3  A    between atoms: O_15  and  C_21
REMARK                            x       y       z     vdW  Elec       q    Type
REMARK                         _______ _______ _______ _____ _____    ______ ____
ROOT
ATOM      1  C   UNL     1      36.163  29.255  49.301  0.00  0.00    +0.000 A 
ATOM      2  C   UNL     1      35.995  30.390  48.485  0.00  0.00    +0.000 A 
ATOM      3  C   UNL     1      34.880  30.437  47.673  0.00  0.00    +0.000 A 
ATOM      4  N   UNL     1      33.997  29.410  47.683  0.00  0.00    +0.000 NA
ATOM      5  C   UNL     1      34.177  28.336  48.470  0.00  0.00    +0.000 A 
ATOM      6  N   UNL     1      35.258  28.248  49.283  0.00  0.00    +0.000 NA
ATOM      7  H   UNL     1      37.028  29.189  49.949  0.00  0.00    +0.000 HD
ATOM      8  H   UNL     1      34.747  31.301  47.048  0.00  0.00    +0.000 HD
ENDROOT
BRANCH   2   9
ATOM      9  N   UNL     1      36.992  31.414  48.556  0.00  0.00    +0.000 N 
ATOM     10  C   UNL     1      37.167  32.157  49.667  0.00  0.00    +0.000 A 
ATOM     11  C   UNL     1      38.151  33.141  49.685  0.00  0.00    +0.000 A 
ATOM     12  C   UNL     1      38.870  33.260  48.525  0.00  0.00    +0.000 A 
ATOM     13  O   UNL     1      39.770  34.150  48.519  0.00  0.00    +0.000 OA
ATOM     14  N   UNL     1      38.712  32.533  47.410  0.00  0.00    +0.000 N 
ATOM     15  C   UNL     1      37.740  31.586  47.442  0.00  0.00    +0.000 A 
ATOM     16  O   UNL     1      37.585  30.896  46.395  0.00  0.00    +0.000 OA
ATOM     17  H   UNL     1      36.551  31.994  50.542  0.00  0.00    +0.000 HD
ATOM     18  H   UNL     1      38.338  33.764  50.539  0.00  0.00    +0.000 HD
ATOM     19  H   UNL     1      39.286  32.670  46.566  0.00  0.00    +0.000 HD
ENDBRANCH   2   9
BRANCH   5  20
ATOM     20  O   UNL     1      33.299  27.259  48.515  0.00  0.00    +0.000 OA
BRANCH  20  21
ATOM     21  C   UNL     1      32.142  27.215  47.729  0.00  0.00    +0.000 A 
ATOM     22  C   UNL     1      32.032  26.167  46.837  0.00  0.00    +0.000 A 
ATOM     23  C   UNL     1      30.878  26.166  46.087  0.00  0.00    +0.000 A 
ATOM     24  H   UNL     1      30.718  25.377  45.366  0.00  0.00    +0.000 HD
ATOM     25  N   UNL     1      29.898  27.109  46.188  0.00  0.00    +0.000 NA
ATOM     26  C   UNL     1      30.063  28.117  47.085  0.00  0.00    +0.000 A 
ATOM     27  N   UNL     1      31.177  28.161  47.843  0.00  0.00    +0.000 NA
ENDBRANCH  20  21
ENDBRANCH   5  20
TORSDOF 3
