REMARK  Name = 
REMARK  5 active torsions:
REMARK  status: ('A' for Active; 'I' for Inactive)
REMARK    1  A    between atoms: C_1  and  C_2
REMARK    2  A    between atoms: C_1  and  O_9
REMARK    3  A    between atoms: C_2  and  C_3
REMARK    4  A    between atoms: O_9  and  C_14
REMARK    5  A    between atoms: C_12  and  C_25
REMARK                            x       y       z     vdW  Elec       q    Type
REMARK                         _______ _______ _______ _____ _____    ______ ____
ROOT
ATOM      1  O   UNL     1      34.605  28.218  49.755  0.00  0.00    +0.000 OA
ENDROOT
BRANCH   1   6
ATOM      2  C   UNL     1      37.216  30.191  51.294  0.00  0.00    +0.000 A 
ATOM      3  C   UNL     1      37.911  30.626  50.137  0.00  0.00    +0.000 A 
ATOM      4  C   UNL     1      37.436  30.211  48.906  0.00  0.00    +0.000 A 
ATOM      5  N   UNL     1      36.334  29.414  48.872  0.00  0.00    +0.000 NA
ATOM      6  C   UNL     1      35.698  29.020  49.994  0.00  0.00    +0.000 A 
ATOM      7  N   UNL     1      36.148  29.416  51.218  0.00  0.00    +0.000 NA
ATOM      8  H   UNL     1      37.612  30.532  52.240  0.00  0.00    +0.000 HD
ATOM      9  H   UNL     1      38.785  31.259  50.183  0.00  0.00    +0.000 HD
BRANCH   4  10
ATOM     10  C   UNL     1      38.044  30.576  47.632  0.00  0.00    +0.000 A 
ATOM     11  C   UNL     1      37.908  31.821  47.080  0.00  0.00    +0.000 A 
ATOM     12  C   UNL     1      38.492  32.144  45.876  0.00  0.00    +0.000 A 
ATOM     13  H   UNL     1      38.393  33.124  45.427  0.00  0.00    +0.000 HD
ATOM     14  N   UNL     1      39.209  31.234  45.218  0.00  0.00    +0.000 NA
ATOM     15  C   UNL     1      39.350  30.008  45.748  0.00  0.00    +0.000 A 
ATOM     16  N   UNL     1      38.780  29.708  46.916  0.00  0.00    +0.000 NA
ENDBRANCH   4  10
ENDBRANCH   1   6
BRANCH   1  17
ATOM     17  C   UNL     1      33.729  28.606  48.696  0.00  0.00    +0.000 C 
ATOM     18  H   UNL     1      33.187  29.514  48.986  0.00  0.00    +0.000 HD
ATOM     19  H   UNL     1      34.374  28.873  47.833  0.00  0.00    +0.000 HD
BRANCH  17  20
ATOM     20  C   UNL     1      32.819  27.455  48.339  0.00  0.00    +0.000 C 
ATOM     21  H   UNL     1      32.948  26.596  49.006  0.00  0.00    +0.000 HD
ATOM     22  H   UNL     1      33.059  27.119  47.295  0.00  0.00    +0.000 HD
BRANCH  20  23
ATOM     23  C   UNL     1      31.387  27.859  48.341  0.00  0.00    +0.000 A 
ATOM     24  C   UNL     1      30.701  27.723  49.527  0.00  0.00    +0.000 A 
ATOM     25  C   UNL     1      29.365  28.065  49.656  0.00  0.00    +0.000 A 
ATOM     26  N   UNL     1      28.720  28.541  48.599  0.00  0.00    +0.000 NA
ATOM     27  C   UNL     1      29.389  28.678  47.428  0.00  0.00    +0.000 A 
ATOM     28  N   UNL     1      30.692  28.350  47.283  0.00  0.00    +0.000 NA
ATOM     29  H   UNL     1      31.197  27.336  50.413  0.00  0.00    +0.000 HD
ATOM     30  H   UNL     1      28.817  27.966  50.567  0.00  0.00    +0.000 HD
ATOM     31  H   UNL     1      28.941  29.063  46.501  0.00  0.00    +0.000 HD
ENDBRANCH  20  23
ENDBRANCH  17  20
ENDBRANCH   1  17
TORSDOF 5
