
 OpenBabel03272507583D

 30 32  0  0  0  0  0  0  0  0999 V2000
   36.9580   31.2050   48.5430 C   0  0  0  0  0  0  0  0  0  0  0  0
   37.1670   32.1710   49.5090 C   0  0  0  0  0  0  0  0  0  0  0  0
   38.1040   33.1710   49.2920 C   0  0  0  0  0  0  0  0  0  0  0  0
   38.8260   33.1960   48.1050 C   0  0  0  0  0  0  0  0  0  0  0  0
   38.5890   32.2170   47.1700 C   0  0  0  0  0  0  0  0  0  0  0  0
   37.6760   31.2520   47.3960 N   0  0  0  0  0  0  0  0  0  0  0  0
   36.6910   32.2940   50.4760 H   0  0  0  0  0  0  0  0  0  0  0  0
   38.3360   33.9670   49.9840 H   0  0  0  0  0  0  0  0  0  0  0  0
   39.5660   33.9560   47.8900 H   0  0  0  0  0  0  0  0  0  0  0  0
   35.1340   28.5050   50.4110 C   0  0  0  0  0  0  0  0  0  0  0  0
   36.1510   29.4360   50.0580 C   0  0  0  0  0  0  0  0  0  0  0  0
   35.9430   30.2380   48.9400 C   0  0  0  0  0  0  0  0  0  0  0  0
   34.7760   30.0930   48.2380 N   0  0  0  0  0  0  0  0  0  0  0  0
   33.8400   29.1830   48.6260 C   0  0  0  0  0  0  0  0  0  0  0  0
   34.0020   28.4000   49.6850 N   0  0  0  0  0  0  0  0  0  0  0  0
   32.7180   29.1990   47.7410 N   0  0  0  0  0  0  0  0  0  0  0  0
   35.2730   27.8710   51.2730 H   0  0  0  0  0  0  0  0  0  0  0  0
   32.0970   30.0470   47.8120 H   0  0  0  0  0  0  0  0  0  0  0  0
   32.5960   28.3830   47.0970 H   0  0  0  0  0  0  0  0  0  0  0  0
   37.3770   29.5080   50.8900 C   0  0  0  0  0  0  0  0  0  0  0  0
   38.5040   29.7810   50.1140 F   0  0  0  0  0  0  0  0  0  0  0  0
   37.2240   30.5090   51.7960 F   0  0  0  0  0  0  0  0  0  0  0  0
   37.6340   28.3380   51.5820 F   0  0  0  0  0  0  0  0  0  0  0  0
   39.3220   32.2020   45.9100 C   0  0  0  0  0  0  0  0  0  0  0  0
   39.6850   33.3670   45.2780 C   0  0  0  0  0  3  0  0  0  0  0  0
   40.3750   33.2170   44.0930 C   0  0  0  0  0  0  0  0  0  0  0  0
   40.6810   34.1310   43.5600 H   0  0  0  0  0  0  0  0  0  0  0  0
   40.6800   32.0130   43.5790 N   0  0  0  0  0  0  0  0  0  0  0  0
   40.3090   30.8740   44.2250 C   0  0  0  0  0  3  0  0  0  0  0  0
   39.6450   31.0160   45.3620 N   0  0  0  0  0  0  0  0  0  0  0  0
  1 12  1  0  0  0  0
  1  2  1  0  0  0  0
  2  7  1  0  0  0  0
  3  2  2  0  0  0  0
  3  8  1  0  0  0  0
  4  3  1  0  0  0  0
  5  6  1  0  0  0  0
  5  4  2  0  0  0  0
  6  1  2  0  0  0  0
  9  4  1  0  0  0  0
 10 17  1  0  0  0  0
 11 10  1  0  0  0  0
 11 20  1  0  0  0  0
 12 11  2  0  0  0  0
 13 14  2  0  0  0  0
 13 12  1  0  0  0  0
 14 15  1  0  0  0  0
 15 10  2  0  0  0  0
 16 18  1  0  0  0  0
 16 14  1  0  0  0  0
 19 16  1  0  0  0  0
 20 23  1  0  0  0  0
 20 22  1  0  0  0  0
 21 20  1  0  0  0  0
 24  5  1  0  0  0  0
 25 24  2  0  0  0  0
 26 25  1  0  0  0  0
 27 26  1  0  0  0  0
 28 26  2  0  0  0  0
 28 29  1  0  0  0  0
 29 30  2  0  0  0  0
 30 24  1  0  0  0  0
M  END
>  <minimizedAffinity>
-6.66755152

>  <minimizedRMSD>
0.838521183

$$$$
