
 OpenBabel03272508053D

 33 36  0  0  0  0  0  0  0  0999 V2000
   38.9150   30.8900   45.7650 C   0  0  0  0  0  0  0  0  0  0  0  0
   40.1200   31.5300   46.0240 C   0  0  0  0  0  0  0  0  0  0  0  0
   40.9350   31.4620   44.9060 C   0  0  0  0  0  0  0  0  0  0  0  0
   40.1830   30.7720   43.9990 N   0  0  0  0  0  0  0  0  0  0  0  0
   39.0080   30.4380   44.4950 N   0  0  0  0  0  0  0  0  0  0  0  0
   40.4320   32.0290   46.9460 H   0  0  0  0  0  0  0  0  0  0  0  0
   41.9310   31.8400   44.7280 H   0  0  0  0  0  0  0  0  0  0  0  0
   37.7940   30.7440   46.6750 C   0  0  0  0  0  0  0  0  0  0  0  0
   38.0170   30.9700   48.0570 C   0  0  0  0  0  0  0  0  0  0  0  0
   36.9320   30.8270   48.9190 C   0  0  0  0  0  0  0  0  0  0  0  0
   35.7260   30.4800   48.3840 N   0  0  0  0  0  0  0  0  0  0  0  0
   35.5400   30.2690   47.0600 C   0  0  0  0  0  0  0  0  0  0  0  0
   36.5800   30.4040   46.2140 N   0  0  0  0  0  0  0  0  0  0  0  0
   38.9820   31.2450   48.4620 H   0  0  0  0  0  0  0  0  0  0  0  0
   34.5550   29.9970   46.7140 H   0  0  0  0  0  0  0  0  0  0  0  0
   37.1430   31.0610   50.3780 C   0  0  0  0  0  0  0  0  0  0  0  0
   36.6160   32.3070   50.6260 F   0  0  0  0  0  0  0  0  0  0  0  0
   36.4740   30.1370   51.1590 F   0  0  0  0  0  0  0  0  0  0  0  0
   38.4870   31.0750   50.7050 F   0  0  0  0  0  0  0  0  0  0  0  0
   40.5450   30.4100   42.6320 C   0  0  0  0  0  0  0  0  0  0  0  0
   40.1730   31.2180   41.5460 C   0  0  0  0  0  0  0  0  0  0  0  0
   40.5490   30.8370   40.2920 C   0  0  0  0  0  0  0  0  0  0  0  0
   41.3040   29.6360   40.1200 C   0  0  0  0  0  0  0  0  0  0  0  0
   41.4710   29.0380   41.8750 S   0  0  0  0  0  0  0  0  0  0  0  0
   39.6000   32.1300   41.6540 H   0  0  0  0  0  0  0  0  0  0  0  0
   40.3440   31.3460   39.3620 H   0  0  0  0  0  0  0  0  0  0  0  0
   41.8230   29.0050   38.9560 C   0  0  0  0  0  0  0  0  0  0  0  0
   41.1080   28.8720   37.7580 C   0  0  0  0  0  0  0  0  0  0  0  0
   41.7710   28.2320   36.7340 C   0  0  0  0  0  0  0  0  0  0  0  0
   41.1610   28.1590   35.8280 H   0  0  0  0  0  0  0  0  0  0  0  0
   43.0110   27.7790   36.8970 N   0  0  0  0  0  0  0  0  0  0  0  0
   43.6930   27.9070   38.0390 C   0  0  0  0  0  0  0  0  0  0  0  0
   43.0750   28.5270   39.0600 N   0  0  0  0  0  0  0  0  0  0  0  0
  1  2  1  0  0  0  0
  1  8  1  0  0  0  0
  2  6  1  0  0  0  0
  3  2  2  0  0  0  0
  4  5  1  0  0  0  0
  4  3  1  0  0  0  0
  5  1  2  0  0  0  0
  7  3  1  0  0  0  0
  8  9  1  0  0  0  0
  9 14  1  0  0  0  0
  9 10  2  0  0  0  0
 10 16  1  0  0  0  0
 11 10  1  0  0  0  0
 12 11  2  0  0  0  0
 13  8  2  0  0  0  0
 13 12  1  0  0  0  0
 15 12  1  0  0  0  0
 16 17  1  0  0  0  0
 16 19  1  0  0  0  0
 16 18  1  0  0  0  0
 20  4  1  0  0  0  0
 21 25  1  0  0  0  0
 21 20  2  0  0  0  0
 22 21  1  0  0  0  0
 23 22  2  0  0  0  0
 23 24  1  0  0  0  0
 24 20  1  0  0  0  0
 26 22  1  0  0  0  0
 27 33  1  0  0  0  0
 27 23  1  0  0  0  0
 28 27  2  0  0  0  0
 29 31  2  0  0  0  0
 29 28  1  0  0  0  0
 30 29  1  0  0  0  0
 31 32  1  0  0  0  0
 32 33  2  0  0  0  0
M  END
>  <minimizedAffinity>
-6.32338285

>  <minimizedRMSD>
0.0232780259

$$$$
