
 OpenBabel03272507053D

 29 32  0  0  0  0  0  0  0  0999 V2000
   38.1130   32.6730   49.3890 C   0  0  0  0  0  0  0  0  0  0  0  0
   38.8470   32.8050   48.1920 C   0  0  0  0  0  0  0  0  0  0  0  0
   38.4460   31.9850   47.1260 C   0  0  0  0  0  0  0  0  0  0  0  0
   37.4070   31.1310   47.2860 N   0  0  0  0  0  0  0  0  0  0  0  0
   36.7350   31.0450   48.4600 C   0  0  0  0  0  0  0  0  0  0  0  0
   37.0820   31.8070   49.5050 N   0  0  0  0  0  0  0  0  0  0  0  0
   38.4290   33.3100   50.2070 H   0  0  0  0  0  0  0  0  0  0  0  0
   39.6620   33.4670   48.0480 H   0  0  0  0  0  0  0  0  0  0  0  0
   35.6520   29.1320   49.5480 C   0  0  0  0  0  0  0  0  0  0  0  0
   35.6250   30.0970   48.5510 C   0  0  0  0  0  0  0  0  0  0  0  0
   34.5760   30.1560   47.6720 C   0  0  0  0  0  0  0  0  0  0  0  0
   33.5350   29.2650   47.7590 C   0  0  0  0  0  0  0  0  0  0  0  0
   32.4010   29.1060   47.0340 N   0  0  0  0  0  0  0  0  0  0  0  0
   31.7760   28.0460   47.6170 C   0  0  0  0  0  0  0  0  0  0  0  0
   32.4930   27.5750   48.6520 N   0  0  0  0  0  0  0  0  0  0  0  0
   33.6050   28.3200   48.7680 C   0  0  0  0  0  0  0  0  0  0  0  0
   34.6230   28.2170   49.6680 C   0  0  0  0  0  0  0  0  0  0  0  0
   36.5070   29.1260   50.2220 H   0  0  0  0  0  0  0  0  0  0  0  0
   34.5370   30.8940   46.8960 H   0  0  0  0  0  0  0  0  0  0  0  0
   32.0740   29.6620   46.2160 H   0  0  0  0  0  0  0  0  0  0  0  0
   30.8340   27.6000   47.3310 H   0  0  0  0  0  0  0  0  0  0  0  0
   34.6610   27.4760   50.4460 H   0  0  0  0  0  0  0  0  0  0  0  0
   39.0900   31.9880   45.8180 C   0  0  0  0  0  0  0  0  0  0  0  0
   38.6960   32.7910   44.7700 C   0  0  0  0  0  0  0  0  0  0  0  0
   39.2930   32.8080   43.5260 C   0  0  0  0  0  0  0  0  0  0  0  0
   38.9360   33.4670   42.7330 H   0  0  0  0  0  0  0  0  0  0  0  0
   40.3320   31.9760   43.3380 N   0  0  0  0  0  0  0  0  0  0  0  0
   40.7360   31.1880   44.3320 C   0  0  0  0  0  0  0  0  0  0  0  0
   40.1430   31.1940   45.5130 N   0  0  0  0  0  0  0  0  0  0  0  0
  1  6  1  0  0  0  0
  1  7  1  0  0  0  0
  2  1  2  0  0  0  0
  3  4  2  0  0  0  0
  3  2  1  0  0  0  0
  4  5  1  0  0  0  0
  5 10  1  0  0  0  0
  5  6  2  0  0  0  0
  8  2  1  0  0  0  0
  9 17  1  0  0  0  0
  9 18  1  0  0  0  0
 10  9  2  0  0  0  0
 11 12  2  0  0  0  0
 11 10  1  0  0  0  0
 12 16  1  0  0  0  0
 13 14  1  0  0  0  0
 13 12  1  0  0  0  0
 14 15  2  0  0  0  0
 15 16  1  0  0  0  0
 16 17  2  0  0  0  0
 17 22  1  0  0  0  0
 19 11  1  0  0  0  0
 20 13  1  0  0  0  0
 21 14  1  0  0  0  0
 23  3  1  0  0  0  0
 24 23  2  0  0  0  0
 25 24  1  0  0  0  0
 26 25  1  0  0  0  0
 27 25  2  0  0  0  0
 27 28  1  0  0  0  0
 28 29  2  0  0  0  0
 29 23  1  0  0  0  0
M  END
>  <minimizedAffinity>
-6.72254181

>  <minimizedRMSD>
2.15663767

$$$$
