
 OpenBabel03272507283D

 39 41  0  0  1  0  0  0  0  0999 V2000
   36.7050   30.4680   48.5710 C   0  0  0  0  0  0  0  0  0  0  0  0
   36.9090   30.8270   47.2220 C   0  0  0  0  0  0  0  0  0  0  0  0
   35.9690   30.3660   46.2990 C   0  0  0  0  0  0  0  0  0  0  0  0
   34.9390   29.6180   46.7280 N   0  0  0  0  0  0  0  0  0  0  0  0
   34.7770   29.2960   48.0250 C   0  0  0  0  0  0  0  0  0  0  0  0
   35.6520   29.7180   48.9330 N   0  0  0  0  0  0  0  0  0  0  0  0
   36.1000   30.6730   44.9460 N   0  0  0  0  0  0  0  0  0  0  0  0
   36.6910   31.9210   44.3920 C   0  0  0  0  0  0  0  0  0  0  0  0
   36.3960   31.9580   42.9450 C   0  0  0  0  0  0  0  0  0  0  0  0
   35.3180   30.9890   42.7840 C   0  0  0  0  0  0  0  0  0  0  0  0
   35.7170   29.9590   43.7720 C   0  0  2  0  0  0  0  0  0  0  0  0
   37.4980   30.8820   49.2040 H   0  0  0  0  0  0  0  0  0  0  0  0
   37.7110   31.4160   46.8410 H   0  0  0  0  0  0  0  0  0  0  0  0
   33.9800   28.7050   48.4370 H   0  0  0  0  0  0  0  0  0  0  0  0
   37.6380   32.2140   44.7710 H   0  0  0  0  0  0  0  0  0  0  0  0
   35.9830   32.6840   44.9190 H   0  0  0  0  0  0  0  0  0  0  0  0
   35.8030   32.9770   42.8270 H   0  0  0  0  0  0  0  0  0  0  0  0
   37.1410   32.1440   42.2140 H   0  0  0  0  0  0  0  0  0  0  0  0
   34.3090   31.3800   43.0290 H   0  0  0  0  0  0  0  0  0  0  0  0
   35.2420   30.5110   41.7840 H   0  0  0  0  0  0  0  0  0  0  0  0
   34.5690   28.9660   43.9780 C   0  0  0  0  0  0  0  0  0  0  0  0
   33.6050   29.5770   44.7500 F   0  0  0  0  0  0  0  0  0  0  0  0
   34.9040   27.8100   44.6180 F   0  0  0  0  0  0  0  0  0  0  0  0
   34.0080   28.7510   42.7390 F   0  0  0  0  0  0  0  0  0  0  0  0
   36.8420   29.1810   43.3450 C   0  0  2  0  0  0  0  0  0  0  0  0
   37.0730   28.3860   44.0180 H   0  0  0  0  0  0  0  0  0  0  0  0
   38.2820   29.8400   43.3950 C   0  0  0  0  0  0  0  0  0  0  0  0
   38.9650   30.3030   42.2770 C   0  0  0  0  0  3  0  0  0  0  0  0
   40.2390   30.7920   42.4280 C   0  0  0  0  0  0  0  0  0  0  0  0
   40.6750   31.1250   41.4940 H   0  0  0  0  0  0  0  0  0  0  0  0
   40.8330   30.8300   43.6250 N   0  0  0  0  0  0  0  0  0  0  0  0
   40.2030   30.3920   44.7200 C   0  0  0  0  0  3  0  0  0  0  0  0
   38.9800   29.9270   44.5460 N   0  0  0  0  0  0  0  0  0  0  0  0
   36.7360   28.9820   42.1080 O   0  0  0  0  0  0  0  0  0  0  0  0
   36.7760   27.9730   41.2230 C   0  0  0  0  0  0  0  0  0  0  0  0
   35.9470   28.1130   40.3220 O   0  0  0  0  0  0  0  0  0  0  0  0
   37.3610   26.7470   40.8060 N   0  0  0  0  0  0  0  0  0  0  0  0
   37.1460   25.7860   41.1630 H   0  0  0  0  0  0  0  0  0  0  0  0
   38.1110   26.6900   40.0540 H   0  0  0  0  0  0  0  0  0  0  0  0
  1  6  1  0  0  0  0
  1 12  1  0  0  0  0
  2  1  2  0  0  0  0
  3  4  2  0  0  0  0
  3  2  1  0  0  0  0
  4  5  1  0  0  0  0
  5 14  1  0  0  0  0
  5  6  2  0  0  0  0
  7  3  1  0  0  0  0
  8 15  1  0  0  0  0
  8 16  1  0  0  0  0
  8  7  1  0  0  0  0
  9  8  1  0  0  0  0
 10  9  1  0  0  0  0
 10 19  1  0  0  0  0
 10 11  1  0  0  0  0
 11 21  1  1  0  0  0
 11  7  1  0  0  0  0
 13  2  1  0  0  0  0
 17  9  1  0  0  0  0
 18  9  1  0  0  0  0
 20 10  1  0  0  0  0
 21 23  1  0  0  0  0
 21 22  1  0  0  0  0
 24 21  1  0  0  0  0
 25 27  1  0  0  0  0
 25 11  1  0  0  0  0
 25 26  1  1  0  0  0
 27 33  1  0  0  0  0
 28 29  1  0  0  0  0
 28 27  2  0  0  0  0
 29 31  2  0  0  0  0
 30 29  1  0  0  0  0
 31 32  1  0  0  0  0
 33 32  2  0  0  0  0
 34 25  1  0  0  0  0
 35 34  1  0  0  0  0
 36 35  2  0  0  0  0
 37 38  1  0  0  0  0
 37 35  1  0  0  0  0
 39 37  1  0  0  0  0
M  END
>  <minimizedAffinity>
-3.23815346

>  <minimizedRMSD>
3.71140122

$$$$
