
 OpenBabel03272505283D

 29 31  0  0  0  0  0  0  0  0999 V2000
   38.0740   23.5800   34.2730 N   0  0  0  0  0  0  0  0  0  0  0  0
   38.0640   24.8540   33.7930 C   0  0  0  0  0  0  0  0  0  0  0  0
   37.3900   25.1870   32.6270 C   0  0  0  0  0  0  0  0  0  0  0  0
   36.7150   24.1640   31.9560 C   0  0  0  0  0  0  0  0  0  0  0  0
   36.0930   24.4200   30.8990 O   0  0  0  0  0  0  0  0  0  0  0  0
   36.7290   22.8850   32.4460 N   0  0  0  0  0  0  0  0  0  0  0  0
   37.4100   22.6810   33.5740 C   0  0  0  0  0  0  0  0  0  0  0  0
   37.4030   21.5060   33.9890 O   0  0  0  0  0  0  0  0  0  0  0  0
   38.5950   25.6230   34.3350 H   0  0  0  0  0  0  0  0  0  0  0  0
   38.9240   23.2110   37.8730 C   0  0  0  0  0  0  0  0  0  0  0  0
   38.2370   23.5440   36.6970 C   0  0  0  0  0  0  0  0  0  0  0  0
   38.7570   23.2580   35.4480 C   0  0  0  0  0  0  0  0  0  0  0  0
   39.9720   22.6370   35.4080 N   0  0  0  0  0  0  0  0  0  0  0  0
   40.6570   22.3070   36.5330 C   0  0  0  0  0  0  0  0  0  0  0  0
   40.1380   22.5910   37.7510 N   0  0  0  0  0  0  0  0  0  0  0  0
   38.5650   23.4100   38.8730 H   0  0  0  0  0  0  0  0  0  0  0  0
   37.3240   24.0250   36.9250 H   0  0  0  0  0  0  0  0  0  0  0  0
   41.6200   21.8150   36.4880 H   0  0  0  0  0  0  0  0  0  0  0  0
   37.3450   26.5290   32.0680 C   0  0  0  0  0  0  0  0  0  0  0  0
   36.4630   27.4940   32.4960 C   0  0  0  0  0  3  0  0  0  0  0  0
   36.4160   28.7700   31.9690 C   0  0  0  0  0  0  0  0  0  0  0  0
   35.6940   29.5130   32.3390 H   0  0  0  0  0  0  0  0  0  0  0  0
   37.2690   29.1080   30.9830 N   0  0  0  0  0  0  0  0  0  0  0  0
   38.1360   28.1380   30.5730 C   0  0  0  0  0  3  0  0  0  0  0  0
   38.1810   26.8950   31.0870 N   0  0  0  0  0  0  0  0  0  0  0  0
   36.0280   21.8370   31.7470 C   0  0  0  0  0  0  0  0  0  0  0  0
   35.2930   22.3400   30.7240 F   0  0  0  0  0  0  0  0  0  0  0  0
   35.1520   21.1310   32.5570 F   0  0  0  0  0  0  0  0  0  0  0  0
   36.9700   20.9520   31.1950 F   0  0  0  0  0  0  0  0  0  0  0  0
  1 12  1  0  0  0  0
  2  1  1  0  0  0  0
  2  9  1  0  0  0  0
  3  2  2  0  0  0  0
  4  6  1  0  0  0  0
  4  3  1  0  0  0  0
  5  4  2  0  0  0  0
  6  7  1  0  0  0  0
  7  8  2  0  0  0  0
  7  1  1  0  0  0  0
 10 16  1  0  0  0  0
 11 17  1  0  0  0  0
 11 10  2  0  0  0  0
 12 11  1  0  0  0  0
 13 12  2  0  0  0  0
 13 14  1  0  0  0  0
 14 15  2  0  0  0  0
 15 10  1  0  0  0  0
 18 14  1  0  0  0  0
 19 20  1  0  0  0  0
 19  3  1  0  0  0  0
 21 22  1  0  0  0  0
 21 20  2  0  0  0  0
 23 21  1  0  0  0  0
 24 23  2  0  0  0  0
 24 25  1  0  0  0  0
 25 19  2  0  0  0  0
 26  6  1  0  0  0  0
 26 28  1  0  0  0  0
 27 26  1  0  0  0  0
 29 26  1  0  0  0  0
M  END
>  <minimizedAffinity>
-5.57770777

$$$$

 OpenBabel03272505283D

 29 31  0  0  0  0  0  0  0  0999 V2000
   37.6050   25.0790   32.4000 N   0  0  0  0  0  0  0  0  0  0  0  0
   38.2410   24.8180   33.5750 C   0  0  0  0  0  0  0  0  0  0  0  0
   38.1570   23.5760   34.1870 C   0  0  0  0  0  0  0  0  0  0  0  0
   37.3940   22.5920   33.5540 C   0  0  0  0  0  0  0  0  0  0  0  0
   37.2920   21.4560   34.0710 O   0  0  0  0  0  0  0  0  0  0  0  0
   36.7570   22.8620   32.3710 N   0  0  0  0  0  0  0  0  0  0  0  0
   36.9080   24.0910   31.8750 C   0  0  0  0  0  0  0  0  0  0  0  0
   36.3140   24.3010   30.8000 O   0  0  0  0  0  0  0  0  0  0  0  0
   38.8230   25.5990   34.0400 H   0  0  0  0  0  0  0  0  0  0  0  0
   36.9830   28.6450   31.5570 C   0  0  0  0  0  0  0  0  0  0  0  0
   36.8810   27.3860   32.1650 C   0  0  0  0  0  0  0  0  0  0  0  0
   37.6960   26.3340   31.7930 C   0  0  0  0  0  0  0  0  0  0  0  0
   38.6080   26.5720   30.8050 N   0  0  0  0  0  0  0  0  0  0  0  0
   38.7240   27.7830   30.2000 C   0  0  0  0  0  0  0  0  0  0  0  0
   37.9210   28.8060   30.5730 N   0  0  0  0  0  0  0  0  0  0  0  0
   36.3730   29.5010   31.8080 H   0  0  0  0  0  0  0  0  0  0  0  0
   36.1170   27.3880   32.8950 H   0  0  0  0  0  0  0  0  0  0  0  0
   39.4510   27.9590   29.4180 H   0  0  0  0  0  0  0  0  0  0  0  0
   38.8150   23.2410   35.4420 C   0  0  0  0  0  0  0  0  0  0  0  0
   38.3040   23.5820   36.6730 C   0  0  0  0  0  3  0  0  0  0  0  0
   38.9230   23.2670   37.8670 C   0  0  0  0  0  0  0  0  0  0  0  0
   38.4820   23.5570   38.8310 H   0  0  0  0  0  0  0  0  0  0  0  0
   40.0900   22.5930   37.8470 N   0  0  0  0  0  0  0  0  0  0  0  0
   40.5790   22.2650   36.6170 C   0  0  0  0  0  3  0  0  0  0  0  0
   39.9750   22.5720   35.4540 N   0  0  0  0  0  0  0  0  0  0  0  0
   35.9740   21.8400   31.7240 C   0  0  0  0  0  0  0  0  0  0  0  0
   35.2200   22.3620   30.7250 F   0  0  0  0  0  0  0  0  0  0  0  0
   35.1000   21.1940   32.5840 F   0  0  0  0  0  0  0  0  0  0  0  0
   36.8440   20.8990   31.1480 F   0  0  0  0  0  0  0  0  0  0  0  0
  1  2  1  0  0  0  0
  2  9  1  0  0  0  0
  2  3  2  0  0  0  0
  3 19  1  0  0  0  0
  4  5  2  0  0  0  0
  4  3  1  0  0  0  0
  6  4  1  0  0  0  0
  7  6  1  0  0  0  0
  7  1  1  0  0  0  0
  8  7  2  0  0  0  0
 10 16  1  0  0  0  0
 10 11  1  0  0  0  0
 11 17  1  0  0  0  0
 12 11  2  0  0  0  0
 12  1  1  0  0  0  0
 13 12  1  0  0  0  0
 14 15  1  0  0  0  0
 14 13  2  0  0  0  0
 15 10  2  0  0  0  0
 18 14  1  0  0  0  0
 19 25  2  0  0  0  0
 19 20  1  0  0  0  0
 20 21  2  0  0  0  0
 21 22  1  0  0  0  0
 23 21  1  0  0  0  0
 24 23  2  0  0  0  0
 25 24  1  0  0  0  0
 26  6  1  0  0  0  0
 26 28  1  0  0  0  0
 27 26  1  0  0  0  0
 29 26  1  0  0  0  0
M  END
>  <minimizedAffinity>
-5.45262671

$$$$

 OpenBabel03272505283D

 29 31  0  0  0  0  0  0  0  0999 V2000
   38.0370   23.8170   34.7610 N   0  0  0  0  0  0  0  0  0  0  0  0
   37.8750   22.7560   33.9230 C   0  0  0  0  0  0  0  0  0  0  0  0
   37.5250   22.9270   32.5920 C   0  0  0  0  0  0  0  0  0  0  0  0
   37.3420   24.2340   32.1340 C   0  0  0  0  0  0  0  0  0  0  0  0
   37.0250   24.4350   30.9390 O   0  0  0  0  0  0  0  0  0  0  0  0
   37.5070   25.2970   32.9830 N   0  0  0  0  0  0  0  0  0  0  0  0
   37.8440   25.0130   34.2420 C   0  0  0  0  0  0  0  0  0  0  0  0
   37.9840   26.0030   34.9850 O   0  0  0  0  0  0  0  0  0  0  0  0
   38.0240   21.7580   34.3080 H   0  0  0  0  0  0  0  0  0  0  0  0
   39.9600   22.9140   37.8110 C   0  0  0  0  0  0  0  0  0  0  0  0
   39.6090   23.0910   36.4650 C   0  0  0  0  0  0  0  0  0  0  0  0
   38.3900   23.6320   36.1000 C   0  0  0  0  0  0  0  0  0  0  0  0
   37.5400   23.9870   37.1070 N   0  0  0  0  0  0  0  0  0  0  0  0
   37.8580   23.8240   38.4180 C   0  0  0  0  0  0  0  0  0  0  0  0
   39.0540   23.2940   38.7640 N   0  0  0  0  0  0  0  0  0  0  0  0
   40.8970   22.4970   38.1530 H   0  0  0  0  0  0  0  0  0  0  0  0
   40.3830   22.7500   35.8320 H   0  0  0  0  0  0  0  0  0  0  0  0
   37.1750   24.1090   39.2070 H   0  0  0  0  0  0  0  0  0  0  0  0
   37.3380   21.8320   31.6530 C   0  0  0  0  0  0  0  0  0  0  0  0
   36.1650   21.1190   31.5510 C   0  0  0  0  0  3  0  0  0  0  0  0
   35.9830   20.0790   30.6610 C   0  0  0  0  0  0  0  0  0  0  0  0
   35.0280   19.5340   30.6100 H   0  0  0  0  0  0  0  0  0  0  0  0
   36.9930   19.7260   29.8420 N   0  0  0  0  0  0  0  0  0  0  0  0
   38.1460   20.4440   29.9600 C   0  0  0  0  0  3  0  0  0  0  0  0
   38.3240   21.4580   30.8270 N   0  0  0  0  0  0  0  0  0  0  0  0
   37.3180   26.6410   32.5000 C   0  0  0  0  0  0  0  0  0  0  0  0
   37.2710   27.5270   33.5270 F   0  0  0  0  0  0  0  0  0  0  0  0
   36.1450   26.8050   31.7810 F   0  0  0  0  0  0  0  0  0  0  0  0
   38.4140   26.9910   31.6920 F   0  0  0  0  0  0  0  0  0  0  0  0
  1 12  1  0  0  0  0
  2  9  1  0  0  0  0
  2  1  1  0  0  0  0
  3  2  2  0  0  0  0
  4  3  1  0  0  0  0
  4  6  1  0  0  0  0
  5  4  2  0  0  0  0
  6  7  1  0  0  0  0
  7  1  1  0  0  0  0
  7  8  2  0  0  0  0
 10 16  1  0  0  0  0
 10 15  1  0  0  0  0
 11 10  2  0  0  0  0
 12 11  1  0  0  0  0
 12 13  2  0  0  0  0
 13 14  1  0  0  0  0
 14 15  2  0  0  0  0
 14 18  1  0  0  0  0
 17 11  1  0  0  0  0
 19  3  1  0  0  0  0
 20 19  1  0  0  0  0
 21 20  2  0  0  0  0
 22 21  1  0  0  0  0
 23 24  2  0  0  0  0
 23 21  1  0  0  0  0
 24 25  1  0  0  0  0
 25 19  2  0  0  0  0
 26  6  1  0  0  0  0
 26 27  1  0  0  0  0
 28 26  1  0  0  0  0
 29 26  1  0  0  0  0
M  END
>  <minimizedAffinity>
-5.35370159

$$$$

 OpenBabel03272505283D

 29 31  0  0  0  0  0  0  0  0999 V2000
   36.7080   26.8660   32.6880 N   0  0  0  0  0  0  0  0  0  0  0  0
   36.5990   25.6880   32.0130 C   0  0  0  0  0  0  0  0  0  0  0  0
   37.0590   24.4960   32.5530 C   0  0  0  0  0  0  0  0  0  0  0  0
   37.6410   24.5420   33.8220 C   0  0  0  0  0  0  0  0  0  0  0  0
   38.0690   23.4890   34.3480 O   0  0  0  0  0  0  0  0  0  0  0  0
   37.7460   25.7310   34.4950 N   0  0  0  0  0  0  0  0  0  0  0  0
   37.2700   26.8140   33.8790 C   0  0  0  0  0  0  0  0  0  0  0  0
   37.3840   27.8770   34.5190 O   0  0  0  0  0  0  0  0  0  0  0  0
   36.1440   25.6860   31.0340 H   0  0  0  0  0  0  0  0  0  0  0  0
   36.4300   29.8920   30.5460 C   0  0  0  0  0  0  0  0  0  0  0  0
   36.9080   28.6960   31.1030 C   0  0  0  0  0  0  0  0  0  0  0  0
   36.2410   28.0600   32.1340 C   0  0  0  0  0  0  0  0  0  0  0  0
   35.0950   28.6470   32.5890 N   0  0  0  0  0  0  0  0  0  0  0  0
   34.6140   29.8050   32.0670 C   0  0  0  0  0  0  0  0  0  0  0  0
   35.2750   30.4180   31.0570 N   0  0  0  0  0  0  0  0  0  0  0  0
   36.9090   30.4300   29.7410 H   0  0  0  0  0  0  0  0  0  0  0  0
   37.8070   28.4020   30.6320 H   0  0  0  0  0  0  0  0  0  0  0  0
   33.7050   30.2590   32.4370 H   0  0  0  0  0  0  0  0  0  0  0  0
   36.9690   23.2100   31.8780 C   0  0  0  0  0  0  0  0  0  0  0  0
   35.8220   22.4510   31.8530 C   0  0  0  0  0  3  0  0  0  0  0  0
   35.7320   21.2300   31.2150 C   0  0  0  0  0  0  0  0  0  0  0  0
   34.7950   20.6530   31.2180 H   0  0  0  0  0  0  0  0  0  0  0  0
   36.8120   20.7370   30.5770 N   0  0  0  0  0  0  0  0  0  0  0  0
   37.9390   21.5040   30.6140 C   0  0  0  0  0  3  0  0  0  0  0  0
   38.0260   22.6940   31.2360 N   0  0  0  0  0  0  0  0  0  0  0  0
   38.3460   25.7680   35.8040 C   0  0  0  0  0  0  0  0  0  0  0  0
   37.6850   24.9560   36.6670 F   0  0  0  0  0  0  0  0  0  0  0  0
   38.3470   27.0330   36.3710 F   0  0  0  0  0  0  0  0  0  0  0  0
   39.6670   25.2980   35.7110 F   0  0  0  0  0  0  0  0  0  0  0  0
  1  7  1  0  0  0  0
  2  3  2  0  0  0  0
  2  1  1  0  0  0  0
  3  4  1  0  0  0  0
  4  5  2  0  0  0  0
  4  6  1  0  0  0  0
  6 26  1  0  0  0  0
  7  6  1  0  0  0  0
  7  8  2  0  0  0  0
  9  2  1  0  0  0  0
 10 15  2  0  0  0  0
 10 11  1  0  0  0  0
 11 12  2  0  0  0  0
 12 13  1  0  0  0  0
 12  1  1  0  0  0  0
 14 18  1  0  0  0  0
 14 13  2  0  0  0  0
 15 14  1  0  0  0  0
 16 10  1  0  0  0  0
 17 11  1  0  0  0  0
 19  3  1  0  0  0  0
 20 19  1  0  0  0  0
 21 22  1  0  0  0  0
 21 20  2  0  0  0  0
 23 24  2  0  0  0  0
 23 21  1  0  0  0  0
 24 25  1  0  0  0  0
 25 19  2  0  0  0  0
 26 28  1  0  0  0  0
 26 27  1  0  0  0  0
 29 26  1  0  0  0  0
M  END
>  <minimizedAffinity>
-5.33669806

$$$$

 OpenBabel03272505283D

 29 31  0  0  0  0  0  0  0  0999 V2000
   38.0130   24.7920   32.3540 N   0  0  0  0  0  0  0  0  0  0  0  0
   38.3930   24.6990   33.6590 C   0  0  0  0  0  0  0  0  0  0  0  0
   38.0740   23.5920   34.4310 C   0  0  0  0  0  0  0  0  0  0  0  0
   37.3460   22.5670   33.8240 C   0  0  0  0  0  0  0  0  0  0  0  0
   37.0360   21.5480   34.4840 O   0  0  0  0  0  0  0  0  0  0  0  0
   36.9680   22.6680   32.5100 N   0  0  0  0  0  0  0  0  0  0  0  0
   37.3300   23.7770   31.8650 C   0  0  0  0  0  0  0  0  0  0  0  0
   36.9680   23.8360   30.6740 O   0  0  0  0  0  0  0  0  0  0  0  0
   38.9550   25.5080   34.1000 H   0  0  0  0  0  0  0  0  0  0  0  0
   37.9210   28.1910   30.8530 C   0  0  0  0  0  0  0  0  0  0  0  0
   37.5830   27.0680   31.6210 C   0  0  0  0  0  0  0  0  0  0  0  0
   38.3410   25.9120   31.5860 C   0  0  0  0  0  0  0  0  0  0  0  0
   39.4350   25.9100   30.7690 N   0  0  0  0  0  0  0  0  0  0  0  0
   39.7810   26.9850   30.0160 C   0  0  0  0  0  0  0  0  0  0  0  0
   39.0320   28.1120   30.0580 N   0  0  0  0  0  0  0  0  0  0  0  0
   37.3660   29.1190   30.8420 H   0  0  0  0  0  0  0  0  0  0  0  0
   36.7040   27.2520   32.1780 H   0  0  0  0  0  0  0  0  0  0  0  0
   40.6510   26.9710   29.3720 H   0  0  0  0  0  0  0  0  0  0  0  0
   38.4520   23.4390   35.8280 C   0  0  0  0  0  0  0  0  0  0  0  0
   39.6460   22.8850   36.2280 C   0  0  0  0  0  3  0  0  0  0  0  0
   40.0110   22.7370   37.5520 C   0  0  0  0  0  0  0  0  0  0  0  0
   40.9760   22.2900   37.8310 H   0  0  0  0  0  0  0  0  0  0  0  0
   39.1670   23.1480   38.5180 N   0  0  0  0  0  0  0  0  0  0  0  0
   37.9880   23.6940   38.1010 C   0  0  0  0  0  3  0  0  0  0  0  0
   37.6340   23.8380   36.8110 N   0  0  0  0  0  0  0  0  0  0  0  0
   36.2190   21.6040   31.8910 C   0  0  0  0  0  0  0  0  0  0  0  0
   35.4030   22.0820   30.9190 F   0  0  0  0  0  0  0  0  0  0  0  0
   35.4120   20.9120   32.7820 F   0  0  0  0  0  0  0  0  0  0  0  0
   37.1180   20.7090   31.2850 F   0  0  0  0  0  0  0  0  0  0  0  0
  1  2  1  0  0  0  0
  2  9  1  0  0  0  0
  2  3  2  0  0  0  0
  3 19  1  0  0  0  0
  4  3  1  0  0  0  0
  4  5  2  0  0  0  0
  6  4  1  0  0  0  0
  7  1  1  0  0  0  0
  7  6  1  0  0  0  0
  8  7  2  0  0  0  0
 10 11  1  0  0  0  0
 11 17  1  0  0  0  0
 12 11  2  0  0  0  0
 12  1  1  0  0  0  0
 13 12  1  0  0  0  0
 14 15  1  0  0  0  0
 14 13  2  0  0  0  0
 15 10  2  0  0  0  0
 16 10  1  0  0  0  0
 18 14  1  0  0  0  0
 19 20  2  0  0  0  0
 19 25  1  0  0  0  0
 20 21  1  0  0  0  0
 21 22  1  0  0  0  0
 21 23  2  0  0  0  0
 24 23  1  0  0  0  0
 25 24  2  0  0  0  0
 26  6  1  0  0  0  0
 26 28  1  0  0  0  0
 27 26  1  0  0  0  0
 29 26  1  0  0  0  0
M  END
>  <minimizedAffinity>
-5.31850767

$$$$

 OpenBabel03272505283D

 29 31  0  0  0  0  0  0  0  0999 V2000
   37.1180   24.0990   32.5250 N   0  0  0  0  0  0  0  0  0  0  0  0
   36.6690   25.2600   31.9710 C   0  0  0  0  0  0  0  0  0  0  0  0
   36.8790   26.4870   32.5820 C   0  0  0  0  0  0  0  0  0  0  0  0
   37.5740   26.4950   33.7940 C   0  0  0  0  0  0  0  0  0  0  0  0
   37.7870   27.5810   34.3800 O   0  0  0  0  0  0  0  0  0  0  0  0
   38.0240   25.3240   34.3440 N   0  0  0  0  0  0  0  0  0  0  0  0
   37.7640   24.2040   33.6690 C   0  0  0  0  0  0  0  0  0  0  0  0
   38.1860   23.1590   34.2000 O   0  0  0  0  0  0  0  0  0  0  0  0
   36.1350   25.2200   31.0330 H   0  0  0  0  0  0  0  0  0  0  0  0
   35.4670   20.9890   31.3340 C   0  0  0  0  0  0  0  0  0  0  0  0
   35.6820   22.2200   31.9700 C   0  0  0  0  0  0  0  0  0  0  0  0
   36.9000   22.8700   31.8990 C   0  0  0  0  0  0  0  0  0  0  0  0
   37.8900   22.2600   31.1830 N   0  0  0  0  0  0  0  0  0  0  0  0
   37.7060   21.0670   30.5590 C   0  0  0  0  0  0  0  0  0  0  0  0
   36.5080   20.4410   30.6350 N   0  0  0  0  0  0  0  0  0  0  0  0
   34.5370   20.4390   31.3560 H   0  0  0  0  0  0  0  0  0  0  0  0
   34.8110   22.5290   32.4820 H   0  0  0  0  0  0  0  0  0  0  0  0
   38.4980   20.5940   29.9940 H   0  0  0  0  0  0  0  0  0  0  0  0
   36.4210   27.7560   32.0370 C   0  0  0  0  0  0  0  0  0  0  0  0
   37.0660   28.4120   31.0140 C   0  0  0  0  0  3  0  0  0  0  0  0
   36.6360   29.6170   30.4930 C   0  0  0  0  0  0  0  0  0  0  0  0
   37.1800   30.1090   29.6730 H   0  0  0  0  0  0  0  0  0  0  0  0
   35.5310   30.1980   30.9990 N   0  0  0  0  0  0  0  0  0  0  0  0
   34.9080   29.5320   32.0130 C   0  0  0  0  0  3  0  0  0  0  0  0
   35.3270   28.3580   32.5200 N   0  0  0  0  0  0  0  0  0  0  0  0
   38.7410   25.3430   35.5940 C   0  0  0  0  0  0  0  0  0  0  0  0
   38.7430   24.1180   36.1750 F   0  0  0  0  0  0  0  0  0  0  0  0
   38.2030   26.2220   36.5210 F   0  0  0  0  0  0  0  0  0  0  0  0
   40.0790   25.6920   35.3430 F   0  0  0  0  0  0  0  0  0  0  0  0
  1  7  1  0  0  0  0
  2  1  1  0  0  0  0
  2  3  2  0  0  0  0
  3  4  1  0  0  0  0
  4  6  1  0  0  0  0
  4  5  2  0  0  0  0
  6 26  1  0  0  0  0
  7  8  2  0  0  0  0
  7  6  1  0  0  0  0
  9  2  1  0  0  0  0
 10 16  1  0  0  0  0
 10 11  1  0  0  0  0
 11 17  1  0  0  0  0
 12 11  2  0  0  0  0
 12  1  1  0  0  0  0
 13 12  1  0  0  0  0
 14 15  1  0  0  0  0
 14 13  2  0  0  0  0
 15 10  2  0  0  0  0
 18 14  1  0  0  0  0
 19 25  1  0  0  0  0
 19  3  1  0  0  0  0
 20 19  2  0  0  0  0
 21 23  2  0  0  0  0
 21 20  1  0  0  0  0
 22 21  1  0  0  0  0
 23 24  1  0  0  0  0
 24 25  2  0  0  0  0
 26 27  1  0  0  0  0
 26 28  1  0  0  0  0
 29 26  1  0  0  0  0
M  END
>  <minimizedAffinity>
-5.25445175

$$$$

 OpenBabel03272505283D

 29 31  0  0  0  0  0  0  0  0999 V2000
   38.7920   24.6100   34.7440 N   0  0  0  0  0  0  0  0  0  0  0  0
   39.9090   23.8860   34.4530 C   0  0  0  0  0  0  0  0  0  0  0  0
   40.5500   23.1190   35.4140 C   0  0  0  0  0  0  0  0  0  0  0  0
   40.0090   23.1120   36.7020 C   0  0  0  0  0  0  0  0  0  0  0  0
   40.5560   22.4330   37.6020 O   0  0  0  0  0  0  0  0  0  0  0  0
   38.8850   23.8420   36.9870 N   0  0  0  0  0  0  0  0  0  0  0  0
   38.3530   24.5420   35.9850 C   0  0  0  0  0  0  0  0  0  0  0  0
   37.3340   25.1950   36.2810 O   0  0  0  0  0  0  0  0  0  0  0  0
   40.3020   23.9120   33.4470 H   0  0  0  0  0  0  0  0  0  0  0  0
   36.6240   25.6000   31.8910 C   0  0  0  0  0  0  0  0  0  0  0  0
   37.2660   24.8220   32.8660 C   0  0  0  0  0  0  0  0  0  0  0  0
   38.1550   25.3780   33.7660 C   0  0  0  0  0  0  0  0  0  0  0  0
   38.3850   26.7200   33.6660 N   0  0  0  0  0  0  0  0  0  0  0  0
   37.7770   27.4930   32.7300 C   0  0  0  0  0  0  0  0  0  0  0  0
   36.9070   26.9390   31.8540 N   0  0  0  0  0  0  0  0  0  0  0  0
   35.9210   25.2190   31.1650 H   0  0  0  0  0  0  0  0  0  0  0  0
   36.9730   23.8100   32.7830 H   0  0  0  0  0  0  0  0  0  0  0  0
   37.9680   28.5560   32.6610 H   0  0  0  0  0  0  0  0  0  0  0  0
   41.7440   22.3280   35.1600 C   0  0  0  0  0  0  0  0  0  0  0  0
   43.0070   22.7310   35.5290 C   0  0  0  0  0  3  0  0  0  0  0  0
   44.1440   21.9840   35.2910 C   0  0  0  0  0  0  0  0  0  0  0  0
   45.1360   22.3420   35.6030 H   0  0  0  0  0  0  0  0  0  0  0  0
   44.0340   20.7970   34.6650 N   0  0  0  0  0  0  0  0  0  0  0  0
   42.7740   20.4150   34.3070 C   0  0  0  0  0  3  0  0  0  0  0  0
   41.6660   21.1430   34.5400 N   0  0  0  0  0  0  0  0  0  0  0  0
   38.3330   23.8270   38.3190 C   0  0  0  0  0  0  0  0  0  0  0  0
   39.2700   23.4660   39.2310 F   0  0  0  0  0  0  0  0  0  0  0  0
   37.2760   22.9410   38.4630 F   0  0  0  0  0  0  0  0  0  0  0  0
   37.9030   25.1240   38.6460 F   0  0  0  0  0  0  0  0  0  0  0  0
  1  7  1  0  0  0  0
  2  1  1  0  0  0  0
  2  3  2  0  0  0  0
  3  4  1  0  0  0  0
  4  6  1  0  0  0  0
  4  5  2  0  0  0  0
  6 26  1  0  0  0  0
  7  8  2  0  0  0  0
  7  6  1  0  0  0  0
  9  2  1  0  0  0  0
 10 11  1  0  0  0  0
 11 12  2  0  0  0  0
 12  1  1  0  0  0  0
 13 12  1  0  0  0  0
 14 13  2  0  0  0  0
 15 10  2  0  0  0  0
 15 14  1  0  0  0  0
 16 10  1  0  0  0  0
 17 11  1  0  0  0  0
 18 14  1  0  0  0  0
 19  3  1  0  0  0  0
 19 20  1  0  0  0  0
 21 20  2  0  0  0  0
 21 22  1  0  0  0  0
 23 21  1  0  0  0  0
 24 25  1  0  0  0  0
 24 23  2  0  0  0  0
 25 19  2  0  0  0  0
 26 28  1  0  0  0  0
 26 29  1  0  0  0  0
 26 27  1  0  0  0  0
M  END
>  <minimizedAffinity>
-5.24130917

$$$$

 OpenBabel03272505283D

 29 31  0  0  0  0  0  0  0  0999 V2000
   37.5290   22.8920   32.4850 N   0  0  0  0  0  0  0  0  0  0  0  0
   37.8050   22.7130   33.8070 C   0  0  0  0  0  0  0  0  0  0  0  0
   38.1280   23.7790   34.6330 C   0  0  0  0  0  0  0  0  0  0  0  0
   38.1610   25.0540   34.0620 C   0  0  0  0  0  0  0  0  0  0  0  0
   38.4470   26.0450   34.7720 O   0  0  0  0  0  0  0  0  0  0  0  0
   37.8810   25.2260   32.7320 N   0  0  0  0  0  0  0  0  0  0  0  0
   37.5840   24.1290   32.0340 C   0  0  0  0  0  0  0  0  0  0  0  0
   37.3370   24.3230   30.8280 O   0  0  0  0  0  0  0  0  0  0  0  0
   37.7720   21.7150   34.2180 H   0  0  0  0  0  0  0  0  0  0  0  0
   37.8140   20.1160   30.0300 C   0  0  0  0  0  0  0  0  0  0  0  0
   38.1440   21.2070   30.8470 C   0  0  0  0  0  0  0  0  0  0  0  0
   37.2050   21.8100   31.6630 C   0  0  0  0  0  0  0  0  0  0  0  0
   35.9390   21.3000   31.6380 N   0  0  0  0  0  0  0  0  0  0  0  0
   35.5960   20.2460   30.8540 C   0  0  0  0  0  0  0  0  0  0  0  0
   36.5230   19.6620   30.0600 N   0  0  0  0  0  0  0  0  0  0  0  0
   38.5060   19.6060   29.3750 H   0  0  0  0  0  0  0  0  0  0  0  0
   39.1610   21.4660   30.7250 H   0  0  0  0  0  0  0  0  0  0  0  0
   34.5880   19.8510   30.8430 H   0  0  0  0  0  0  0  0  0  0  0  0
   38.4320   23.6470   36.0500 C   0  0  0  0  0  0  0  0  0  0  0  0
   37.6180   24.1400   37.0430 C   0  0  0  0  0  3  0  0  0  0  0  0
   37.9010   24.0180   38.3900 C   0  0  0  0  0  0  0  0  0  0  0  0
   37.2230   24.4250   39.1540 H   0  0  0  0  0  0  0  0  0  0  0  0
   39.0290   23.3880   38.7720 N   0  0  0  0  0  0  0  0  0  0  0  0
   39.8230   22.9080   37.7720 C   0  0  0  0  0  3  0  0  0  0  0  0
   39.5460   23.0270   36.4600 N   0  0  0  0  0  0  0  0  0  0  0  0
   37.9140   26.5450   32.1530 C   0  0  0  0  0  0  0  0  0  0  0  0
   37.3380   27.4550   32.9760 F   0  0  0  0  0  0  0  0  0  0  0  0
   37.2480   26.6280   30.9400 F   0  0  0  0  0  0  0  0  0  0  0  0
   39.2550   26.9270   31.9740 F   0  0  0  0  0  0  0  0  0  0  0  0
  1  2  1  0  0  0  0
  2  9  1  0  0  0  0
  2  3  2  0  0  0  0
  3 19  1  0  0  0  0
  4  3  1  0  0  0  0
  4  5  2  0  0  0  0
  6  4  1  0  0  0  0
  7  1  1  0  0  0  0
  7  6  1  0  0  0  0
  8  7  2  0  0  0  0
 10 15  2  0  0  0  0
 10 11  1  0  0  0  0
 11 12  2  0  0  0  0
 12  1  1  0  0  0  0
 13 12  1  0  0  0  0
 14 13  2  0  0  0  0
 15 14  1  0  0  0  0
 16 10  1  0  0  0  0
 17 11  1  0  0  0  0
 18 14  1  0  0  0  0
 19 25  2  0  0  0  0
 19 20  1  0  0  0  0
 20 21  2  0  0  0  0
 21 23  1  0  0  0  0
 21 22  1  0  0  0  0
 24 23  2  0  0  0  0
 25 24  1  0  0  0  0
 26  6  1  0  0  0  0
 26 27  1  0  0  0  0
 28 26  1  0  0  0  0
 29 26  1  0  0  0  0
M  END
>  <minimizedAffinity>
-5.23310184

$$$$

 OpenBabel03272505283D

 29 31  0  0  0  0  0  0  0  0999 V2000
   37.1610   22.9120   32.9150 N   0  0  0  0  0  0  0  0  0  0  0  0
   37.0080   24.1130   32.2910 C   0  0  0  0  0  0  0  0  0  0  0  0
   37.4950   25.2880   32.8430 C   0  0  0  0  0  0  0  0  0  0  0  0
   38.1540   25.2010   34.0720 C   0  0  0  0  0  0  0  0  0  0  0  0
   38.6110   26.2370   34.6080 O   0  0  0  0  0  0  0  0  0  0  0  0
   38.3050   23.9890   34.6940 N   0  0  0  0  0  0  0  0  0  0  0  0
   37.7960   22.9260   34.0700 C   0  0  0  0  0  0  0  0  0  0  0  0
   37.9500   21.8420   34.6660 O   0  0  0  0  0  0  0  0  0  0  0  0
   36.4940   24.1470   31.3410 H   0  0  0  0  0  0  0  0  0  0  0  0
   34.8830   20.1200   32.0050 C   0  0  0  0  0  0  0  0  0  0  0  0
   35.3760   21.2990   32.5830 C   0  0  0  0  0  0  0  0  0  0  0  0
   36.6660   21.7360   32.3480 C   0  0  0  0  0  0  0  0  0  0  0  0
   37.4440   20.9690   31.5280 N   0  0  0  0  0  0  0  0  0  0  0  0
   36.9880   19.8240   30.9580 C   0  0  0  0  0  0  0  0  0  0  0  0
   35.7230   19.4060   31.1940 N   0  0  0  0  0  0  0  0  0  0  0  0
   33.8850   19.7320   32.1530 H   0  0  0  0  0  0  0  0  0  0  0  0
   34.6390   21.7480   33.1930 H   0  0  0  0  0  0  0  0  0  0  0  0
   37.6140   19.2250   30.3100 H   0  0  0  0  0  0  0  0  0  0  0  0
   37.3610   26.5970   32.2220 C   0  0  0  0  0  0  0  0  0  0  0  0
   38.2310   27.0690   31.2670 C   0  0  0  0  0  3  0  0  0  0  0  0
   38.1090   28.3110   30.6740 C   0  0  0  0  0  0  0  0  0  0  0  0
   38.8270   28.6520   29.9130 H   0  0  0  0  0  0  0  0  0  0  0  0
   37.0910   29.1160   31.0340 N   0  0  0  0  0  0  0  0  0  0  0  0
   36.2390   28.6290   31.9820 C   0  0  0  0  0  3  0  0  0  0  0  0
   36.3590   27.4190   32.5590 N   0  0  0  0  0  0  0  0  0  0  0  0
   38.9880   23.9090   35.9610 C   0  0  0  0  0  0  0  0  0  0  0  0
   38.8350   22.6830   36.5210 F   0  0  0  0  0  0  0  0  0  0  0  0
   38.5300   24.8300   36.8890 F   0  0  0  0  0  0  0  0  0  0  0  0
   40.3630   24.1060   35.7470 F   0  0  0  0  0  0  0  0  0  0  0  0
  1  7  1  0  0  0  0
  2  3  2  0  0  0  0
  2  1  1  0  0  0  0
  3  4  1  0  0  0  0
  4  5  2  0  0  0  0
  4  6  1  0  0  0  0
  6 26  1  0  0  0  0
  7  8  2  0  0  0  0
  7  6  1  0  0  0  0
  9  2  1  0  0  0  0
 10 16  1  0  0  0  0
 10 11  1  0  0  0  0
 11 17  1  0  0  0  0
 12 11  2  0  0  0  0
 12  1  1  0  0  0  0
 13 12  1  0  0  0  0
 14 15  1  0  0  0  0
 14 13  2  0  0  0  0
 15 10  2  0  0  0  0
 18 14  1  0  0  0  0
 19 25  1  0  0  0  0
 19  3  1  0  0  0  0
 20 19  2  0  0  0  0
 21 23  2  0  0  0  0
 21 20  1  0  0  0  0
 22 21  1  0  0  0  0
 23 24  1  0  0  0  0
 24 25  2  0  0  0  0
 26 27  1  0  0  0  0
 26 28  1  0  0  0  0
 29 26  1  0  0  0  0
M  END
>  <minimizedAffinity>
-5.22282267

$$$$
