
 OpenBabel03272510073D

 28 30  0  0  0  0  0  0  0  0999 V2000
   36.5310   31.1920   49.0360 C   0  0  0  0  0  0  0  0  0  0  0  0
   37.2190   31.5070   47.8600 C   0  0  0  0  0  0  0  0  0  0  0  0
   36.8340   30.8670   46.6840 C   0  0  0  0  0  0  0  0  0  0  0  0
   35.8160   29.9760   46.7470 N   0  0  0  0  0  0  0  0  0  0  0  0
   35.1660   29.6850   47.8850 C   0  0  0  0  0  0  0  0  0  0  0  0
   35.5090   30.2850   49.0480 N   0  0  0  0  0  0  0  0  0  0  0  0
   34.0970   28.7260   47.8560 N   0  0  0  0  0  0  0  0  0  0  0  0
   32.8990   28.9250   47.0390 C   0  0  0  0  0  0  0  0  0  0  0  0
   32.1850   27.6210   47.1210 C   0  0  0  0  0  0  0  0  0  0  0  0
   33.1320   26.6490   47.7880 C   0  0  0  0  0  0  0  0  0  0  0  0
   34.0590   27.4880   48.5970 C   0  0  0  0  0  0  0  0  0  0  0  0
   36.7340   31.6170   49.9980 H   0  0  0  0  0  0  0  0  0  0  0  0
   37.3560   31.1030   45.7800 H   0  0  0  0  0  0  0  0  0  0  0  0
   32.2860   29.7010   47.5340 H   0  0  0  0  0  0  0  0  0  0  0  0
   33.2040   29.1870   46.0030 H   0  0  0  0  0  0  0  0  0  0  0  0
   32.0320   27.2320   46.0790 H   0  0  0  0  0  0  0  0  0  0  0  0
   31.2200   27.7150   47.6620 H   0  0  0  0  0  0  0  0  0  0  0  0
   33.6170   25.9460   47.0880 H   0  0  0  0  0  0  0  0  0  0  0  0
   32.4990   26.0200   48.4730 H   0  0  0  0  0  0  0  0  0  0  0  0
   35.0900   27.0580   48.5220 H   0  0  0  0  0  0  0  0  0  0  0  0
   33.8250   27.5940   49.6560 H   0  0  0  0  0  0  0  0  0  0  0  0
   38.2940   32.4860   47.9460 C   0  0  0  0  0  0  0  0  0  0  0  0
   39.1910   32.7020   46.9230 C   0  0  0  0  0  3  0  0  0  0  0  0
   40.2010   33.6470   47.0480 C   0  0  0  0  0  0  0  0  0  0  0  0
   40.9320   33.8590   46.2800 H   0  0  0  0  0  0  0  0  0  0  0  0
   40.2800   34.3360   48.1780 N   0  0  0  0  0  0  0  0  0  0  0  0
   39.3950   34.1090   49.1630 C   0  0  0  0  0  3  0  0  0  0  0  0
   38.3860   33.1920   49.0850 N   0  0  0  0  0  0  0  0  0  0  0  0
  1  6  1  0  0  0  0
  1 12  1  0  0  0  0
  2 22  1  0  0  0  0
  2  1  2  0  0  0  0
  3  4  2  0  0  0  0
  3  2  1  0  0  0  0
  4  5  1  0  0  0  0
  5  6  2  0  0  0  0
  7  5  1  0  0  0  0
  7 11  1  0  0  0  0
  8  9  1  0  0  0  0
  8 14  1  0  0  0  0
  8  7  1  0  0  0  0
  9 17  1  0  0  0  0
  9 10  1  0  0  0  0
 10 19  1  0  0  0  0
 10 11  1  0  0  0  0
 11 21  1  0  0  0  0
 13  3  1  0  0  0  0
 15  8  1  0  0  0  0
 16  9  1  0  0  0  0
 18 10  1  0  0  0  0
 20 11  1  0  0  0  0
 22 28  1  0  0  0  0
 23 24  1  0  0  0  0
 23 22  2  0  0  0  0
 24 26  2  0  0  0  0
 25 24  1  0  0  0  0
 26 27  1  0  0  0  0
 28 27  2  0  0  0  0
M  END
>  <minimizedAffinity>
-4.37571383

>  <minimizedRMSD>
2.53475809

$$$$
