
 OpenBabel03272506473D

 40 43  0  0  1  0  0  0  0  0999 V2000
   32.0320   28.3900   47.4900 C   0  0  2  0  0  0  0  0  0  0  0  0
   33.2890   28.1680   48.2800 C   0  0  1  0  0  0  0  0  0  0  0  0
   33.6330   26.8560   48.1600 O   0  0  0  0  0  0  0  0  0  0  0  0
   32.8790   26.2690   47.1500 C   0  0  0  0  0  0  0  0  0  0  0  0
   32.2960   27.3910   46.3230 C   0  0  1  0  0  0  0  0  0  0  0  0
   31.1100   28.0770   47.9730 H   0  0  0  0  0  0  0  0  0  0  0  0
   33.1530   28.4750   49.3410 H   0  0  0  0  0  0  0  0  0  0  0  0
   32.1690   25.6170   47.6400 H   0  0  0  0  0  0  0  0  0  0  0  0
   33.5740   25.6490   46.5000 H   0  0  0  0  0  0  0  0  0  0  0  0
   33.0400   27.8370   45.6690 H   0  0  0  0  0  0  0  0  0  0  0  0
   31.9960   29.7010   46.9750 O   0  0  0  0  0  0  0  0  0  0  0  0
   32.4300   30.3170   47.6160 H   0  0  0  0  0  0  0  0  0  0  0  0
   34.6180   29.1710   47.5000 S   0  0  0  0  0  0  0  0  0  0  0  0
   37.0180   29.2550   50.6500 C   0  0  0  0  0  0  0  0  0  0  0  0
   37.4210   30.5840   50.7670 C   0  0  0  0  0  0  0  0  0  0  0  0
   36.9270   31.5000   49.8220 C   0  0  0  0  0  0  0  0  0  0  0  0
   36.0870   31.0450   48.8530 N   0  0  0  0  0  0  0  0  0  0  0  0
   35.7230   29.7470   48.7820 C   0  0  0  0  0  0  0  0  0  0  0  0
   36.1830   28.8340   49.6770 N   0  0  0  0  0  0  0  0  0  0  0  0
   37.4290   28.5960   51.4030 H   0  0  0  0  0  0  0  0  0  0  0  0
   38.0910   30.9000   51.5530 H   0  0  0  0  0  0  0  0  0  0  0  0
   37.2090   32.5430   49.8680 H   0  0  0  0  0  0  0  0  0  0  0  0
   31.1210   26.9690   45.7550 O   0  0  0  0  0  0  0  0  0  0  0  0
   29.9090   29.2760   44.3870 Cl  0  0  0  0  0  0  0  0  0  0  0  0
   29.2300   28.2820   45.6560 C   0  0  0  0  0  0  0  0  0  0  0  0
   29.8960   27.2130   46.2110 C   0  0  0  0  0  0  0  0  0  0  0  0
   29.2410   26.4750   47.1990 C   0  0  0  0  0  0  0  0  0  0  0  0
   27.9650   26.8140   47.5990 C   0  0  0  0  0  0  0  0  0  0  0  0
   27.2890   27.8870   47.0450 C   0  0  0  0  0  0  0  0  0  0  0  0
   27.9360   28.6180   46.0680 C   0  0  0  0  0  0  0  0  0  0  0  0
   29.6740   25.6210   47.6890 H   0  0  0  0  0  0  0  0  0  0  0  0
   27.4600   26.2420   48.3630 H   0  0  0  0  0  0  0  0  0  0  0  0
   26.2950   28.1010   47.4000 H   0  0  0  0  0  0  0  0  0  0  0  0
   27.2760   29.7590   45.4480 C   0  0  0  0  0  0  0  0  0  0  0  0
   26.6290   29.6990   44.2410 C   0  0  0  0  0  3  0  0  0  0  0  0
   25.9990   30.7780   43.6410 C   0  0  0  0  0  0  0  0  0  0  0  0
   25.5000   30.6980   42.6930 H   0  0  0  0  0  0  0  0  0  0  0  0
   26.0120   31.9730   44.2700 N   0  0  0  0  0  0  0  0  0  0  0  0
   26.6410   32.0530   45.4570 C   0  0  0  0  0  3  0  0  0  0  0  0
   27.2440   30.9870   46.0120 N   0  0  0  0  0  0  0  0  0  0  0  0
  1  6  1  1  0  0  0
  1  2  1  0  0  0  0
  2  7  1  1  0  0  0
  3  2  1  0  0  0  0
  4  8  1  0  0  0  0
  4  3  1  0  0  0  0
  5 10  1  6  0  0  0
  5  4  1  0  0  0  0
  5  1  1  0  0  0  0
  9  4  1  0  0  0  0
 11  1  1  0  0  0  0
 11 12  1  0  0  0  0
 13  2  1  0  0  0  0
 13 18  1  0  0  0  0
 14 15  1  0  0  0  0
 14 20  1  0  0  0  0
 15 21  1  0  0  0  0
 16 22  1  0  0  0  0
 16 15  2  0  0  0  0
 17 16  1  0  0  0  0
 18 17  2  0  0  0  0
 18 19  1  0  0  0  0
 19 14  2  0  0  0  0
 23 26  1  0  0  0  0
 23  5  1  0  0  0  0
 24 25  1  0  0  0  0
 25 30  2  0  0  0  0
 25 26  1  0  0  0  0
 26 27  2  0  0  0  0
 27 28  1  0  0  0  0
 27 31  1  0  0  0  0
 28 32  1  0  0  0  0
 29 33  1  0  0  0  0
 29 28  2  0  0  0  0
 30 29  1  0  0  0  0
 34 40  1  0  0  0  0
 34 30  1  0  0  0  0
 35 34  2  0  0  0  0
 36 35  1  0  0  0  0
 36 38  2  0  0  0  0
 37 36  1  0  0  0  0
 38 39  1  0  0  0  0
 39 40  2  0  0  0  0
M  END
>  <minimizedAffinity>
-5.42611599

>  <minimizedRMSD>
0.368419707

$$$$
