
     RDKit          3D

 34 36  0  0  0  0  0  0  0  0999 V2000
   34.7521   29.4281   48.8110 C   0  0  0  0  0  0  0  0  0  0  0  0
   34.2280   30.0535   47.6573 C   0  0  0  0  0  0  0  0  0  0  0  0
   33.5138   29.2579   46.7750 C   0  0  0  0  0  0  0  0  0  0  0  0
   33.3417   27.9140   47.0468 N   0  0  0  0  0  0  0  0  0  0  0  0
   33.8703   27.3567   48.1807 C   0  0  0  0  0  0  0  0  0  0  0  0
   34.5602   28.1059   49.0397 N   0  0  0  0  0  0  0  0  0  0  0  0
   35.5166   30.3037   49.7496 C   0  0  0  0  0  0  0  0  0  0  0  0
   36.4700   31.1811   48.9660 C   0  0  0  0  0  0  0  0  0  0  0  0
   37.9106   30.8043   49.1512 C   0  0  0  0  0  0  0  0  0  0  0  0
   38.3216   30.7561   50.5985 C   0  0  0  0  0  0  0  0  0  0  0  0
   37.2842   30.1555   51.4961 C   0  0  0  0  0  0  0  0  0  0  0  0
   36.2158   29.4122   50.7192 C   0  0  0  0  0  0  0  0  0  0  0  0
   34.3151   31.0694   47.3892 H   0  0  0  0  0  0  0  0  0  0  0  0
   33.7134   26.3014   48.3576 H   0  0  0  0  0  0  0  0  0  0  0  0
   34.7560   30.9077   50.2856 H   0  0  0  0  0  0  0  0  0  0  0  0
   36.3682   32.2332   49.3474 H   0  0  0  0  0  0  0  0  0  0  0  0
   36.2423   31.2228   47.9053 H   0  0  0  0  0  0  0  0  0  0  0  0
   38.1016   29.8119   48.6677 H   0  0  0  0  0  0  0  0  0  0  0  0
   38.5182   31.5843   48.6506 H   0  0  0  0  0  0  0  0  0  0  0  0
   38.7068   31.7380   50.9475 H   0  0  0  0  0  0  0  0  0  0  0  0
   39.2107   30.0713   50.6447 H   0  0  0  0  0  0  0  0  0  0  0  0
   36.7598   31.0203   51.9833 H   0  0  0  0  0  0  0  0  0  0  0  0
   37.6824   29.5373   52.3084 H   0  0  0  0  0  0  0  0  0  0  0  0
   36.7262   28.5468   50.2257 H   0  0  0  0  0  0  0  0  0  0  0  0
   35.5035   28.9763   51.4237 H   0  0  0  0  0  0  0  0  0  0  0  0
   32.9045   29.7288   45.5391 C   0  0  0  0  0  0  0  0  0  0  0  0
   33.2404   29.2293   44.2994 C   0  0  0  0  0  0  0  0  0  0  0  0
   32.6860   29.6486   43.1035 C   0  0  0  0  0  0  0  0  0  0  0  0
   32.9692   29.2386   42.1483 H   0  0  0  0  0  0  0  0  0  0  0  0
   31.7371   30.6279   43.1488 N   0  0  0  0  0  0  0  0  0  0  0  0
   31.4015   31.1254   44.3741 C   0  0  0  0  0  0  0  0  0  0  0  0
   31.9645   30.6897   45.5112 N   0  0  0  0  0  0  0  0  0  0  0  0
   33.9701   28.4666   44.1893 H   0  0  0  0  0  0  0  0  0  0  0  0
   30.6563   31.8904   44.3773 H   0  0  0  0  0  0  0  0  0  0  0  0
  1  6  1  0
  1  7  1  0
  2  1  2  0
  3  4  2  0
  3  2  1  0
  4  5  1  0
  5  6  2  0
  7 12  1  0
  8  9  1  0
  8  7  1  0
  9 10  1  0
 10 11  1  0
 12 11  1  0
  2 13  1  0
  5 14  1  0
  7 15  1  0
  8 16  1  0
  8 17  1  0
  9 18  1  0
  9 19  1  0
 10 20  1  0
 10 21  1  0
 11 22  1  0
 11 23  1  0
 12 24  1  0
 12 25  1  0
 26 27  2  0
 27 28  1  0
 28 29  1  0
 28 30  2  0
 30 31  1  0
 31 32  2  0
 32 26  1  0
 27 33  1  0
 31 34  1  0
  3 26  1  0
M  ISO  8  13  14  14  14  15  13  16  13  17  13  18  13  19  13  20  13
M  ISO  6  21  13  22  13  23  13  24  13  25  13  29  14
M  END
>  <DihAtoms>  (1) 
3,2,25,26

>  <DihDeg>  (1) 
-179.99344098770865

$$$$
