
 OpenBabel03272505223D

 26 28  0  0  0  0  0  0  0  0999 V2000
   37.9670   23.0300   33.5710 Br  0  0  0  0  0  0  0  0  0  0  0  0
   36.8470   24.1390   32.4830 C   0  0  0  0  0  0  0  0  0  0  0  0
   35.9460   23.5640   31.5940 C   0  0  0  0  0  0  0  0  0  0  0  0
   35.1610   24.3850   30.8260 C   0  0  0  0  0  0  0  0  0  0  0  0
   35.2780   25.7580   30.9510 C   0  0  0  0  0  0  0  0  0  0  0  0
   36.1780   26.3460   31.8400 C   0  0  0  0  0  0  0  0  0  0  0  0
   36.9580   25.5020   32.6020 C   0  0  0  0  0  0  0  0  0  0  0  0
   34.4630   23.9310   30.1370 H   0  0  0  0  0  0  0  0  0  0  0  0
   34.6520   26.3910   30.3390 H   0  0  0  0  0  0  0  0  0  0  0  0
   36.2320   27.4200   31.9000 H   0  0  0  0  0  0  0  0  0  0  0  0
   34.9880   19.9460   32.2070 C   0  0  0  0  0  0  0  0  0  0  0  0
   35.0090   21.3370   32.2660 C   0  0  0  0  0  0  0  0  0  0  0  0
   35.9070   22.1040   31.5480 C   0  0  0  0  0  0  0  0  0  0  0  0
   36.7730   21.3840   30.7770 N   0  0  0  0  0  0  0  0  0  0  0  0
   36.7570   20.0420   30.7180 C   0  0  0  0  0  0  0  0  0  0  0  0
   35.8810   19.3290   31.4200 N   0  0  0  0  0  0  0  0  0  0  0  0
   34.2610   19.3890   32.7930 H   0  0  0  0  0  0  0  0  0  0  0  0
   34.2870   21.8530   32.9040 H   0  0  0  0  0  0  0  0  0  0  0  0
   37.4730   19.5250   30.0840 H   0  0  0  0  0  0  0  0  0  0  0  0
   37.9250   26.0340   33.5550 C   0  0  0  0  0  0  0  0  0  0  0  0
   37.6430   26.3890   34.8540 C   0  0  0  0  0  3  0  0  0  0  0  0
   38.5700   26.8900   35.7370 C   0  0  0  0  0  0  0  0  0  0  0  0
   38.2710   27.1470   36.7460 H   0  0  0  0  0  0  0  0  0  0  0  0
   39.8480   27.0440   35.3000 N   0  0  0  0  0  0  0  0  0  0  0  0
   40.1600   26.7070   34.0360 C   0  0  0  0  0  3  0  0  0  0  0  0
   39.2220   26.2260   33.2190 N   0  0  0  0  0  0  0  0  0  0  0  0
  2  7  1  0  0  0  0
  2  1  1  0  0  0  0
  3  2  2  0  0  0  0
  4  5  2  0  0  0  0
  4  3  1  0  0  0  0
  5  6  1  0  0  0  0
  6 10  1  0  0  0  0
  6  7  2  0  0  0  0
  7 20  1  0  0  0  0
  8  4  1  0  0  0  0
  9  5  1  0  0  0  0
 11 12  1  0  0  0  0
 11 17  1  0  0  0  0
 12 18  1  0  0  0  0
 13  3  1  0  0  0  0
 13 12  2  0  0  0  0
 14 13  1  0  0  0  0
 15 14  2  0  0  0  0
 15 16  1  0  0  0  0
 16 11  2  0  0  0  0
 19 15  1  0  0  0  0
 20 21  1  0  0  0  0
 21 22  2  0  0  0  0
 22 23  1  0  0  0  0
 24 22  1  0  0  0  0
 25 24  2  0  0  0  0
 26 20  2  0  0  0  0
 26 25  1  0  0  0  0
M  END
>  <minimizedAffinity>
-4.9913044

$$$$

 OpenBabel03272505223D

 26 28  0  0  0  0  0  0  0  0999 V2000
   37.9600   23.0310   33.5720 Br  0  0  0  0  0  0  0  0  0  0  0  0
   36.8560   24.1640   32.4920 C   0  0  0  0  0  0  0  0  0  0  0  0
   36.9620   25.5470   32.5940 C   0  0  0  0  0  0  0  0  0  0  0  0
   36.1540   26.3300   31.8090 C   0  0  0  0  0  0  0  0  0  0  0  0
   35.2610   25.7350   30.9380 C   0  0  0  0  0  0  0  0  0  0  0  0
   35.1460   24.3500   30.8260 C   0  0  0  0  0  0  0  0  0  0  0  0
   35.9670   23.5810   31.6240 C   0  0  0  0  0  0  0  0  0  0  0  0
   36.2410   27.4040   31.8950 H   0  0  0  0  0  0  0  0  0  0  0  0
   34.6320   26.3670   30.3260 H   0  0  0  0  0  0  0  0  0  0  0  0
   34.4350   23.9340   30.1320 H   0  0  0  0  0  0  0  0  0  0  0  0
   38.5860   26.9010   35.7420 C   0  0  0  0  0  0  0  0  0  0  0  0
   37.6360   26.4120   34.8490 C   0  0  0  0  0  0  0  0  0  0  0  0
   37.9410   26.0630   33.5470 C   0  0  0  0  0  0  0  0  0  0  0  0
   39.2520   26.2370   33.2100 N   0  0  0  0  0  0  0  0  0  0  0  0
   40.1720   26.7090   34.0680 C   0  0  0  0  0  0  0  0  0  0  0  0
   39.8490   27.0370   35.3150 N   0  0  0  0  0  0  0  0  0  0  0  0
   38.2930   27.1630   36.7560 H   0  0  0  0  0  0  0  0  0  0  0  0
   36.6020   26.2970   35.1830 H   0  0  0  0  0  0  0  0  0  0  0  0
   41.2020   26.8250   33.7400 H   0  0  0  0  0  0  0  0  0  0  0  0
   35.9110   22.1240   31.5700 C   0  0  0  0  0  0  0  0  0  0  0  0
   35.0240   21.3400   32.2680 C   0  0  0  0  0  3  0  0  0  0  0  0
   34.9880   19.9660   32.2030 C   0  0  0  0  0  0  0  0  0  0  0  0
   34.2580   19.4160   32.7840 H   0  0  0  0  0  0  0  0  0  0  0  0
   35.8870   19.3430   31.3950 N   0  0  0  0  0  0  0  0  0  0  0  0
   36.7700   20.0800   30.6970 C   0  0  0  0  0  3  0  0  0  0  0  0
   36.7620   21.4100   30.7970 N   0  0  0  0  0  0  0  0  0  0  0  0
  2  3  1  0  0  0  0
  2  1  1  0  0  0  0
  3 13  1  0  0  0  0
  4  8  1  0  0  0  0
  4  3  2  0  0  0  0
  5  4  1  0  0  0  0
  6  5  2  0  0  0  0
  6  7  1  0  0  0  0
  7  2  2  0  0  0  0
  9  5  1  0  0  0  0
 10  6  1  0  0  0  0
 11 17  1  0  0  0  0
 12 18  1  0  0  0  0
 12 11  2  0  0  0  0
 13 12  1  0  0  0  0
 14 13  2  0  0  0  0
 14 15  1  0  0  0  0
 15 16  2  0  0  0  0
 16 11  1  0  0  0  0
 19 15  1  0  0  0  0
 20  7  1  0  0  0  0
 20 21  1  0  0  0  0
 22 21  2  0  0  0  0
 22 23  1  0  0  0  0
 24 22  1  0  0  0  0
 25 26  1  0  0  0  0
 25 24  2  0  0  0  0
 26 20  2  0  0  0  0
M  END
>  <minimizedAffinity>
-4.98978758

$$$$

 OpenBabel03272505223D

 26 28  0  0  0  0  0  0  0  0999 V2000
   40.6230   24.5710   34.0860 Br  0  0  0  0  0  0  0  0  0  0  0  0
   39.7780   24.0630   35.7280 C   0  0  0  0  0  0  0  0  0  0  0  0
   40.4000   23.1620   36.5850 C   0  0  0  0  0  0  0  0  0  0  0  0
   39.7680   22.8160   37.7510 C   0  0  0  0  0  0  0  0  0  0  0  0
   38.5350   23.3670   38.0520 C   0  0  0  0  0  0  0  0  0  0  0  0
   37.9020   24.2720   37.2010 C   0  0  0  0  0  0  0  0  0  0  0  0
   38.5550   24.6060   36.0330 C   0  0  0  0  0  0  0  0  0  0  0  0
   40.2570   22.1140   38.4120 H   0  0  0  0  0  0  0  0  0  0  0  0
   38.0500   23.0830   38.9750 H   0  0  0  0  0  0  0  0  0  0  0  0
   36.9420   24.6730   37.4790 H   0  0  0  0  0  0  0  0  0  0  0  0
   44.1320   22.7550   36.0490 C   0  0  0  0  0  0  0  0  0  0  0  0
   42.9020   23.2640   36.4580 C   0  0  0  0  0  0  0  0  0  0  0  0
   41.7010   22.6460   36.1650 C   0  0  0  0  0  0  0  0  0  0  0  0
   41.8210   21.4950   35.4430 N   0  0  0  0  0  0  0  0  0  0  0  0
   43.0060   21.0000   35.0460 C   0  0  0  0  0  0  0  0  0  0  0  0
   44.1460   21.6170   35.3420 N   0  0  0  0  0  0  0  0  0  0  0  0
   45.0490   23.2810   36.3050 H   0  0  0  0  0  0  0  0  0  0  0  0
   42.8770   24.1920   37.0350 H   0  0  0  0  0  0  0  0  0  0  0  0
   43.0360   20.0780   34.4720 H   0  0  0  0  0  0  0  0  0  0  0  0
   37.9620   25.5450   35.0880 C   0  0  0  0  0  0  0  0  0  0  0  0
   37.7520   26.8830   35.3280 C   0  0  0  0  0  3  0  0  0  0  0  0
   37.1910   27.7530   34.4220 C   0  0  0  0  0  0  0  0  0  0  0  0
   37.0560   28.7950   34.6850 H   0  0  0  0  0  0  0  0  0  0  0  0
   36.8220   27.2590   33.2100 N   0  0  0  0  0  0  0  0  0  0  0  0
   37.0140   25.9560   32.9410 C   0  0  0  0  0  3  0  0  0  0  0  0
   37.5620   25.1550   33.8560 N   0  0  0  0  0  0  0  0  0  0  0  0
  1  2  1  0  0  0  0
  2  7  2  0  0  0  0
  2  3  1  0  0  0  0
  3  4  2  0  0  0  0
  4  5  1  0  0  0  0
  4  8  1  0  0  0  0
  5  9  1  0  0  0  0
  6 10  1  0  0  0  0
  6  5  2  0  0  0  0
  7  6  1  0  0  0  0
 11 17  1  0  0  0  0
 11 12  1  0  0  0  0
 12 18  1  0  0  0  0
 13 12  2  0  0  0  0
 13  3  1  0  0  0  0
 14 13  1  0  0  0  0
 15 16  1  0  0  0  0
 15 14  2  0  0  0  0
 16 11  2  0  0  0  0
 19 15  1  0  0  0  0
 20 21  1  0  0  0  0
 20  7  1  0  0  0  0
 22 23  1  0  0  0  0
 22 21  2  0  0  0  0
 24 22  1  0  0  0  0
 25 24  2  0  0  0  0
 25 26  1  0  0  0  0
 26 20  2  0  0  0  0
M  END
>  <minimizedAffinity>
-4.92018032

$$$$

 OpenBabel03272505223D

 26 28  0  0  0  0  0  0  0  0999 V2000
   38.5780   26.0510   34.9150 Br  0  0  0  0  0  0  0  0  0  0  0  0
   38.0140   24.5060   33.9340 C   0  0  0  0  0  0  0  0  0  0  0  0
   38.0060   23.2550   34.5430 C   0  0  0  0  0  0  0  0  0  0  0  0
   37.6010   22.1680   33.8120 C   0  0  0  0  0  0  0  0  0  0  0  0
   37.2080   22.3350   32.4960 C   0  0  0  0  0  0  0  0  0  0  0  0
   37.2100   23.5830   31.8750 C   0  0  0  0  0  0  0  0  0  0  0  0
   37.6220   24.6630   32.6280 C   0  0  0  0  0  0  0  0  0  0  0  0
   37.5980   21.2000   34.2910 H   0  0  0  0  0  0  0  0  0  0  0  0
   36.8910   21.4670   31.9350 H   0  0  0  0  0  0  0  0  0  0  0  0
   36.8950   23.6620   30.8490 H   0  0  0  0  0  0  0  0  0  0  0  0
   40.0930   22.7470   37.6680 C   0  0  0  0  0  0  0  0  0  0  0  0
   39.7000   22.7910   36.3330 C   0  0  0  0  0  0  0  0  0  0  0  0
   38.4400   23.2000   35.9360 C   0  0  0  0  0  0  0  0  0  0  0  0
   37.6150   23.5570   36.9620 N   0  0  0  0  0  0  0  0  0  0  0  0
   37.9910   23.5160   38.2520 C   0  0  0  0  0  0  0  0  0  0  0  0
   39.2090   23.1170   38.6040 N   0  0  0  0  0  0  0  0  0  0  0  0
   41.0960   22.4160   37.9260 H   0  0  0  0  0  0  0  0  0  0  0  0
   40.4110   22.4910   35.5580 H   0  0  0  0  0  0  0  0  0  0  0  0
   37.2870   23.8130   39.0250 H   0  0  0  0  0  0  0  0  0  0  0  0
   37.6550   26.0040   32.0550 C   0  0  0  0  0  0  0  0  0  0  0  0
   38.7240   26.5530   31.3860 C   0  0  0  0  0  3  0  0  0  0  0  0
   38.7340   27.8210   30.8530 C   0  0  0  0  0  0  0  0  0  0  0  0
   39.6160   28.1840   30.3390 H   0  0  0  0  0  0  0  0  0  0  0  0
   37.6160   28.5810   30.9960 N   0  0  0  0  0  0  0  0  0  0  0  0
   36.5520   28.0770   31.6450 C   0  0  0  0  0  3  0  0  0  0  0  0
   36.5950   26.8400   32.1440 N   0  0  0  0  0  0  0  0  0  0  0  0
  2  3  1  0  0  0  0
  2  1  1  0  0  0  0
  3 13  1  0  0  0  0
  4  8  1  0  0  0  0
  4  3  2  0  0  0  0
  5  4  1  0  0  0  0
  6  5  2  0  0  0  0
  6  7  1  0  0  0  0
  7  2  2  0  0  0  0
  9  5  1  0  0  0  0
 10  6  1  0  0  0  0
 11 17  1  0  0  0  0
 11 16  1  0  0  0  0
 12 11  2  0  0  0  0
 13 12  1  0  0  0  0
 13 14  2  0  0  0  0
 14 15  1  0  0  0  0
 15 16  2  0  0  0  0
 15 19  1  0  0  0  0
 18 12  1  0  0  0  0
 20 26  1  0  0  0  0
 20  7  1  0  0  0  0
 21 20  2  0  0  0  0
 22 24  2  0  0  0  0
 22 21  1  0  0  0  0
 23 22  1  0  0  0  0
 24 25  1  0  0  0  0
 25 26  2  0  0  0  0
M  END
>  <minimizedAffinity>
-4.67104578

$$$$

 OpenBabel03272505223D

 26 28  0  0  0  0  0  0  0  0999 V2000
   38.5210   26.0600   34.9520 Br  0  0  0  0  0  0  0  0  0  0  0  0
   38.0020   24.5180   33.9410 C   0  0  0  0  0  0  0  0  0  0  0  0
   37.6120   24.6510   32.6130 C   0  0  0  0  0  0  0  0  0  0  0  0
   37.2420   23.5280   31.9180 C   0  0  0  0  0  0  0  0  0  0  0  0
   37.2660   22.2950   32.5450 C   0  0  0  0  0  0  0  0  0  0  0  0
   37.6550   22.1490   33.8760 C   0  0  0  0  0  0  0  0  0  0  0  0
   38.0220   23.2910   34.5570 C   0  0  0  0  0  0  0  0  0  0  0  0
   36.9400   23.6390   30.8870 H   0  0  0  0  0  0  0  0  0  0  0  0
   36.9710   21.4200   31.9830 H   0  0  0  0  0  0  0  0  0  0  0  0
   37.6560   21.1680   34.3200 H   0  0  0  0  0  0  0  0  0  0  0  0
   38.7040   27.8330   30.8630 C   0  0  0  0  0  0  0  0  0  0  0  0
   38.7110   26.5430   31.3890 C   0  0  0  0  0  0  0  0  0  0  0  0
   37.6280   26.0010   32.0550 C   0  0  0  0  0  0  0  0  0  0  0  0
   36.5520   26.8340   32.1540 N   0  0  0  0  0  0  0  0  0  0  0  0
   36.5420   28.0790   31.6490 C   0  0  0  0  0  0  0  0  0  0  0  0
   37.5990   28.5750   31.0130 N   0  0  0  0  0  0  0  0  0  0  0  0
   39.5840   28.2130   30.3490 H   0  0  0  0  0  0  0  0  0  0  0  0
   39.6060   25.9270   31.2750 H   0  0  0  0  0  0  0  0  0  0  0  0
   35.6540   28.6960   31.7600 H   0  0  0  0  0  0  0  0  0  0  0  0
   38.4430   23.2270   35.9520 C   0  0  0  0  0  0  0  0  0  0  0  0
   39.6880   22.8390   36.3860 C   0  0  0  0  0  3  0  0  0  0  0  0
   40.0650   22.7860   37.7080 C   0  0  0  0  0  0  0  0  0  0  0  0
   41.0660   22.4680   37.9730 H   0  0  0  0  0  0  0  0  0  0  0  0
   39.1470   23.1410   38.6470 N   0  0  0  0  0  0  0  0  0  0  0  0
   37.9190   23.5260   38.2580 C   0  0  0  0  0  3  0  0  0  0  0  0
   37.6050   23.5590   36.9620 N   0  0  0  0  0  0  0  0  0  0  0  0
  2  7  1  0  0  0  0
  2  1  1  0  0  0  0
  3  2  2  0  0  0  0
  4  5  2  0  0  0  0
  4  3  1  0  0  0  0
  5  6  1  0  0  0  0
  6 10  1  0  0  0  0
  6  7  2  0  0  0  0
  7 20  1  0  0  0  0
  8  4  1  0  0  0  0
  9  5  1  0  0  0  0
 11 16  2  0  0  0  0
 11 12  1  0  0  0  0
 12 13  2  0  0  0  0
 13 14  1  0  0  0  0
 13  3  1  0  0  0  0
 15 19  1  0  0  0  0
 15 14  2  0  0  0  0
 16 15  1  0  0  0  0
 17 11  1  0  0  0  0
 18 12  1  0  0  0  0
 20 21  2  0  0  0  0
 20 26  1  0  0  0  0
 21 22  1  0  0  0  0
 22 23  1  0  0  0  0
 22 24  2  0  0  0  0
 25 24  1  0  0  0  0
 26 25  2  0  0  0  0
M  END
>  <minimizedAffinity>
-4.66855717

$$$$

 OpenBabel03272505223D

 26 28  0  0  0  0  0  0  0  0999 V2000
   38.1700   27.0700   33.4420 Br  0  0  0  0  0  0  0  0  0  0  0  0
   37.1240   25.7590   32.5180 C   0  0  0  0  0  0  0  0  0  0  0  0
   37.3460   24.4050   32.7390 C   0  0  0  0  0  0  0  0  0  0  0  0
   36.5820   23.4910   32.0590 C   0  0  0  0  0  0  0  0  0  0  0  0
   35.6130   23.9310   31.1750 C   0  0  0  0  0  0  0  0  0  0  0  0
   35.3810   25.2860   30.9460 C   0  0  0  0  0  0  0  0  0  0  0  0
   36.1600   26.1880   31.6390 C   0  0  0  0  0  0  0  0  0  0  0  0
   36.7610   22.4400   32.2350 H   0  0  0  0  0  0  0  0  0  0  0  0
   35.0200   23.1970   30.6470 H   0  0  0  0  0  0  0  0  0  0  0  0
   34.6150   25.5780   30.2480 H   0  0  0  0  0  0  0  0  0  0  0  0
   40.6890   23.4730   34.2670 C   0  0  0  0  0  0  0  0  0  0  0  0
   39.7040   23.8010   33.3390 C   0  0  0  0  0  0  0  0  0  0  0  0
   38.3940   24.0580   33.6960 C   0  0  0  0  0  0  0  0  0  0  0  0
   38.1460   23.9640   35.0340 N   0  0  0  0  0  0  0  0  0  0  0  0
   39.0930   23.6470   35.9330 C   0  0  0  0  0  0  0  0  0  0  0  0
   40.3460   23.4050   35.5610 N   0  0  0  0  0  0  0  0  0  0  0  0
   41.7050   23.2790   33.9340 H   0  0  0  0  0  0  0  0  0  0  0  0
   39.9700   23.8600   32.2800 H   0  0  0  0  0  0  0  0  0  0  0  0
   38.8330   23.5870   36.9870 H   0  0  0  0  0  0  0  0  0  0  0  0
   35.9830   27.6240   31.4580 C   0  0  0  0  0  0  0  0  0  0  0  0
   36.6020   28.3820   30.4920 C   0  0  0  0  0  3  0  0  0  0  0  0
   36.4210   29.7370   30.3380 C   0  0  0  0  0  0  0  0  0  0  0  0
   36.9450   30.2660   29.5520 H   0  0  0  0  0  0  0  0  0  0  0  0
   35.5740   30.3680   31.1940 N   0  0  0  0  0  0  0  0  0  0  0  0
   34.9510   29.6580   32.1510 C   0  0  0  0  0  3  0  0  0  0  0  0
   35.1630   28.3450   32.2580 N   0  0  0  0  0  0  0  0  0  0  0  0
  2  3  1  0  0  0  0
  2  1  1  0  0  0  0
  3 13  1  0  0  0  0
  4  8  1  0  0  0  0
  4  3  2  0  0  0  0
  5  4  1  0  0  0  0
  6  5  2  0  0  0  0
  6  7  1  0  0  0  0
  7  2  2  0  0  0  0
  9  5  1  0  0  0  0
 10  6  1  0  0  0  0
 11 16  1  0  0  0  0
 12 13  1  0  0  0  0
 12 11  2  0  0  0  0
 13 14  2  0  0  0  0
 14 15  1  0  0  0  0
 15 19  1  0  0  0  0
 16 15  2  0  0  0  0
 17 11  1  0  0  0  0
 18 12  1  0  0  0  0
 20  7  1  0  0  0  0
 20 26  1  0  0  0  0
 21 20  2  0  0  0  0
 22 21  1  0  0  0  0
 22 24  2  0  0  0  0
 23 22  1  0  0  0  0
 24 25  1  0  0  0  0
 25 26  2  0  0  0  0
M  END
>  <minimizedAffinity>
-4.66356611

$$$$

 OpenBabel03272505223D

 26 28  0  0  0  0  0  0  0  0999 V2000
   38.1460   27.0510   33.5290 Br  0  0  0  0  0  0  0  0  0  0  0  0
   37.1370   25.7410   32.5630 C   0  0  0  0  0  0  0  0  0  0  0  0
   36.1790   26.1380   31.6370 C   0  0  0  0  0  0  0  0  0  0  0  0
   35.4710   25.1750   30.9640 C   0  0  0  0  0  0  0  0  0  0  0  0
   35.7240   23.8390   31.2160 C   0  0  0  0  0  0  0  0  0  0  0  0
   36.6830   23.4280   32.1410 C   0  0  0  0  0  0  0  0  0  0  0  0
   37.3820   24.4120   32.8070 C   0  0  0  0  0  0  0  0  0  0  0  0
   34.7280   25.4920   30.2470 H   0  0  0  0  0  0  0  0  0  0  0  0
   35.1570   23.0920   30.6770 H   0  0  0  0  0  0  0  0  0  0  0  0
   36.8420   22.3750   32.3020 H   0  0  0  0  0  0  0  0  0  0  0  0
   36.4540   29.6810   30.3130 C   0  0  0  0  0  0  0  0  0  0  0  0
   36.6400   28.3100   30.4720 C   0  0  0  0  0  0  0  0  0  0  0  0
   36.0000   27.5760   31.4530 C   0  0  0  0  0  0  0  0  0  0  0  0
   35.1690   28.3070   32.2510 N   0  0  0  0  0  0  0  0  0  0  0  0
   34.9870   29.6300   32.1010 C   0  0  0  0  0  0  0  0  0  0  0  0
   35.6170   30.3110   31.1490 N   0  0  0  0  0  0  0  0  0  0  0  0
   36.9840   30.2120   29.5260 H   0  0  0  0  0  0  0  0  0  0  0  0
   37.3210   27.7840   29.7980 H   0  0  0  0  0  0  0  0  0  0  0  0
   34.3110   30.1570   32.7700 H   0  0  0  0  0  0  0  0  0  0  0  0
   38.4020   24.0690   33.7910 C   0  0  0  0  0  0  0  0  0  0  0  0
   39.7260   23.8250   33.5070 C   0  0  0  0  0  3  0  0  0  0  0  0
   40.6730   23.5030   34.4510 C   0  0  0  0  0  0  0  0  0  0  0  0
   41.6970   23.3240   34.1500 H   0  0  0  0  0  0  0  0  0  0  0  0
   40.2760   23.4210   35.7490 N   0  0  0  0  0  0  0  0  0  0  0  0
   38.9890   23.6530   36.0630 C   0  0  0  0  0  3  0  0  0  0  0  0
   38.1110   23.9620   35.1080 N   0  0  0  0  0  0  0  0  0  0  0  0
  2  7  1  0  0  0  0
  2  1  1  0  0  0  0
  3  2  2  0  0  0  0
  4  5  2  0  0  0  0
  4  3  1  0  0  0  0
  5  6  1  0  0  0  0
  6 10  1  0  0  0  0
  6  7  2  0  0  0  0
  7 20  1  0  0  0  0
  8  4  1  0  0  0  0
  9  5  1  0  0  0  0
 11 12  2  0  0  0  0
 11 16  1  0  0  0  0
 12 13  1  0  0  0  0
 13  3  1  0  0  0  0
 13 14  2  0  0  0  0
 15 14  1  0  0  0  0
 15 19  1  0  0  0  0
 16 15  2  0  0  0  0
 17 11  1  0  0  0  0
 18 12  1  0  0  0  0
 20 26  1  0  0  0  0
 21 20  2  0  0  0  0
 21 22  1  0  0  0  0
 22 24  2  0  0  0  0
 23 22  1  0  0  0  0
 24 25  1  0  0  0  0
 26 25  2  0  0  0  0
M  END
>  <minimizedAffinity>
-4.65865231

$$$$

 OpenBabel03272505223D

 26 28  0  0  0  0  0  0  0  0999 V2000
   38.2430   27.0100   33.3660 Br  0  0  0  0  0  0  0  0  0  0  0  0
   37.1410   25.7270   32.4670 C   0  0  0  0  0  0  0  0  0  0  0  0
   36.1510   26.1510   31.5860 C   0  0  0  0  0  0  0  0  0  0  0  0
   35.3770   25.2080   30.9610 C   0  0  0  0  0  0  0  0  0  0  0  0
   35.5940   23.8650   31.2130 C   0  0  0  0  0  0  0  0  0  0  0  0
   36.5840   23.4290   32.0920 C   0  0  0  0  0  0  0  0  0  0  0  0
   37.3510   24.3930   32.7120 C   0  0  0  0  0  0  0  0  0  0  0  0
   34.6090   25.5440   30.2790 H   0  0  0  0  0  0  0  0  0  0  0  0
   34.9750   23.1350   30.7110 H   0  0  0  0  0  0  0  0  0  0  0  0
   36.7150   22.3720   32.2560 H   0  0  0  0  0  0  0  0  0  0  0  0
   35.1100   29.7740   31.9990 C   0  0  0  0  0  0  0  0  0  0  0  0
   35.2270   28.4000   32.1960 C   0  0  0  0  0  0  0  0  0  0  0  0
   36.0130   27.5930   31.3970 C   0  0  0  0  0  0  0  0  0  0  0  0
   36.6660   28.2540   30.3980 N   0  0  0  0  0  0  0  0  0  0  0  0
   36.5560   29.5790   30.2030 C   0  0  0  0  0  0  0  0  0  0  0  0
   35.7920   30.3310   30.9880 N   0  0  0  0  0  0  0  0  0  0  0  0
   34.4770   30.3640   32.6560 H   0  0  0  0  0  0  0  0  0  0  0  0
   34.6760   27.9330   33.0160 H   0  0  0  0  0  0  0  0  0  0  0  0
   37.1030   30.0480   29.3890 H   0  0  0  0  0  0  0  0  0  0  0  0
   38.4080   24.0220   33.6460 C   0  0  0  0  0  0  0  0  0  0  0  0
   39.7090   23.7420   33.2990 C   0  0  0  0  0  3  0  0  0  0  0  0
   40.6910   23.3940   34.1970 C   0  0  0  0  0  0  0  0  0  0  0  0
   41.6940   23.1870   33.8470 H   0  0  0  0  0  0  0  0  0  0  0  0
   40.3550   23.3230   35.5130 N   0  0  0  0  0  0  0  0  0  0  0  0
   39.0920   23.5920   35.8880 C   0  0  0  0  0  3  0  0  0  0  0  0
   38.1770   23.9240   34.9760 N   0  0  0  0  0  0  0  0  0  0  0  0
  2  7  1  0  0  0  0
  2  1  1  0  0  0  0
  3  2  2  0  0  0  0
  4  5  2  0  0  0  0
  4  3  1  0  0  0  0
  5  6  1  0  0  0  0
  6 10  1  0  0  0  0
  6  7  2  0  0  0  0
  7 20  1  0  0  0  0
  8  4  1  0  0  0  0
  9  5  1  0  0  0  0
 11 12  1  0  0  0  0
 11 17  1  0  0  0  0
 12 18  1  0  0  0  0
 13  3  1  0  0  0  0
 13 12  2  0  0  0  0
 14 13  1  0  0  0  0
 15 14  2  0  0  0  0
 15 16  1  0  0  0  0
 16 11  2  0  0  0  0
 19 15  1  0  0  0  0
 20 26  1  0  0  0  0
 21 20  2  0  0  0  0
 21 22  1  0  0  0  0
 22 24  2  0  0  0  0
 23 22  1  0  0  0  0
 24 25  1  0  0  0  0
 26 25  2  0  0  0  0
M  END
>  <minimizedAffinity>
-4.59937954

$$$$

 OpenBabel03272505223D

 26 28  0  0  0  0  0  0  0  0999 V2000
   37.2180   25.5200   32.9350 Br  0  0  0  0  0  0  0  0  0  0  0  0
   38.9780   26.1070   33.4100 C   0  0  0  0  0  0  0  0  0  0  0  0
   39.6350   27.0520   32.6290 C   0  0  0  0  0  0  0  0  0  0  0  0
   40.8950   27.4490   32.9940 C   0  0  0  0  0  0  0  0  0  0  0  0
   41.4840   26.9090   34.1230 C   0  0  0  0  0  0  0  0  0  0  0  0
   40.8350   25.9620   34.9150 C   0  0  0  0  0  0  0  0  0  0  0  0
   39.5680   25.5760   34.5300 C   0  0  0  0  0  0  0  0  0  0  0  0
   41.4000   28.1830   32.3810 H   0  0  0  0  0  0  0  0  0  0  0  0
   42.4780   27.2340   34.3970 H   0  0  0  0  0  0  0  0  0  0  0  0
   41.3350   25.5720   35.7850 H   0  0  0  0  0  0  0  0  0  0  0  0
   38.6200   27.8210   29.0570 C   0  0  0  0  0  0  0  0  0  0  0  0
   39.3210   27.3350   30.1570 C   0  0  0  0  0  0  0  0  0  0  0  0
   38.9160   27.5530   31.4600 C   0  0  0  0  0  0  0  0  0  0  0  0
   37.7700   28.2840   31.5780 N   0  0  0  0  0  0  0  0  0  0  0  0
   37.0900   28.7550   30.5190 C   0  0  0  0  0  0  0  0  0  0  0  0
   37.5040   28.5300   29.2760 N   0  0  0  0  0  0  0  0  0  0  0  0
   38.9830   27.6220   28.0510 H   0  0  0  0  0  0  0  0  0  0  0  0
   40.2330   26.7550   29.9920 H   0  0  0  0  0  0  0  0  0  0  0  0
   36.1820   29.3330   30.6780 H   0  0  0  0  0  0  0  0  0  0  0  0
   38.8200   24.5910   35.3020 C   0  0  0  0  0  0  0  0  0  0  0  0
   38.1180   24.8550   36.4550 C   0  0  0  0  0  3  0  0  0  0  0  0
   37.4180   23.9100   37.1680 C   0  0  0  0  0  0  0  0  0  0  0  0
   36.8890   24.1960   38.0690 H   0  0  0  0  0  0  0  0  0  0  0  0
   37.4190   22.6320   36.7040 N   0  0  0  0  0  0  0  0  0  0  0  0
   38.0940   22.3380   35.5790 C   0  0  0  0  0  3  0  0  0  0  0  0
   38.7580   23.2920   34.9250 N   0  0  0  0  0  0  0  0  0  0  0  0
  1  2  1  0  0  0  0
  2  7  1  0  0  0  0
  3  4  1  0  0  0  0
  3  2  2  0  0  0  0
  4  5  2  0  0  0  0
  5  9  1  0  0  0  0
  5  6  1  0  0  0  0
  6 10  1  0  0  0  0
  7  6  2  0  0  0  0
  7 20  1  0  0  0  0
  8  4  1  0  0  0  0
 11 16  2  0  0  0  0
 11 12  1  0  0  0  0
 12 13  2  0  0  0  0
 13 14  1  0  0  0  0
 13  3  1  0  0  0  0
 15 19  1  0  0  0  0
 15 14  2  0  0  0  0
 16 15  1  0  0  0  0
 17 11  1  0  0  0  0
 18 12  1  0  0  0  0
 20 21  1  0  0  0  0
 21 22  2  0  0  0  0
 22 23  1  0  0  0  0
 24 22  1  0  0  0  0
 25 24  2  0  0  0  0
 26 20  2  0  0  0  0
 26 25  1  0  0  0  0
M  END
>  <minimizedAffinity>
-4.52962351

$$$$
