
     RDKit          3D

 28 30  0  0  0  0  0  0  0  0999 V2000
   37.9705   33.1746   49.4368 C   0  0  0  0  0  0  0  0  0  0  0  0
   39.0129   33.1556   48.4587 C   0  0  0  0  0  0  0  0  0  0  0  0
   39.0146   32.1219   47.5370 C   0  0  0  0  0  0  0  0  0  0  0  0
   38.0292   31.1763   47.6039 N   0  0  0  0  0  0  0  0  0  0  0  0
   37.0564   31.2175   48.5375 C   0  0  0  0  0  0  0  0  0  0  0  0
   37.0327   32.2240   49.4553 N   0  0  0  0  0  0  0  0  0  0  0  0
   37.2746   29.3524   51.0506 Br  0  0  0  0  0  0  0  0  0  0  0  0
   35.9603   29.3084   49.6711 C   0  0  0  0  0  0  0  0  0  0  0  0
   36.0047   30.2137   48.6138 C   0  0  0  0  0  0  0  0  0  0  0  0
   35.0230   30.1248   47.6556 C   0  0  0  0  0  0  0  0  0  0  0  0
   34.0073   29.1892   47.6953 C   0  0  0  0  0  0  0  0  0  0  0  0
   33.9895   28.3121   48.7473 C   0  0  0  0  0  0  0  0  0  0  0  0
   34.9624   28.3805   49.7201 C   0  0  0  0  0  0  0  0  0  0  0  0
   37.8975   33.9414   50.1867 H   0  0  0  0  0  0  0  0  0  0  0  0
   39.7464   33.9402   48.4808 H   0  0  0  0  0  0  0  0  0  0  0  0
   39.7933   32.0874   46.7882 H   0  0  0  0  0  0  0  0  0  0  0  0
   35.0725   30.8348   46.8419 H   0  0  0  0  0  0  0  0  0  0  0  0
   33.2417   27.5409   48.8772 H   0  0  0  0  0  0  0  0  0  0  0  0
   34.9522   27.6874   50.5552 H   0  0  0  0  0  0  0  0  0  0  0  0
   32.9675   29.0933   46.6833 C   0  0  0  0  0  0  0  0  0  0  0  0
   33.1938   28.8508   45.3444 C   0  0  0  0  0  0  0  0  0  0  0  0
   32.1685   28.7678   44.4153 C   0  0  0  0  0  0  0  0  0  0  0  0
   32.4422   28.5747   43.3883 H   0  0  0  0  0  0  0  0  0  0  0  0
   30.9020   28.9265   44.8144 N   0  0  0  0  0  0  0  0  0  0  0  0
   30.6672   29.1639   46.1202 C   0  0  0  0  0  0  0  0  0  0  0  0
   31.6690   29.2407   47.0024 N   0  0  0  0  0  0  0  0  0  0  0  0
   34.2124   28.7203   45.0060 H   0  0  0  0  0  0  0  0  0  0  0  0
   29.6374   29.2898   46.4259 H   0  0  0  0  0  0  0  0  0  0  0  0
  1  6  2  0
  2  1  1  0
  3  4  1  0
  3  2  2  0
  4  5  2  0
  5  9  1  0
  5  6  1  0
  8 13  2  0
  8  7  1  0
  9  8  1  0
 10 11  1  0
 10  9  2  0
 11 12  2  0
 12 13  1  0
  1 14  1  0
  2 15  1  0
  3 16  1  0
 10 17  1  0
 12 18  1  0
 13 19  1  0
 20 21  2  0
 21 22  1  0
 22 23  1  0
 22 24  2  0
 24 25  1  0
 25 26  2  0
 26 20  1  0
 21 27  1  0
 25 28  1  0
 11 20  1  0
M  ISO  7  14  14  15  14  16  14  17  14  18  14  19  14  23  14
M  END
>  <DihAtoms>  (1) 
9,10,19,20

>  <DihDeg>  (1) 
-0.0003420020754212437

$$$$
