
 OpenBabel03272510163D

 26 28  0  0  0  0  0  0  0  0999 V2000
   37.4140   29.1930   50.8600 Br  0  0  0  0  0  0  0  0  0  0  0  0
   36.0130   29.2670   49.5690 C   0  0  0  0  0  0  0  0  0  0  0  0
   36.0020   30.2520   48.5840 C   0  0  0  0  0  0  0  0  0  0  0  0
   34.9590   30.2460   47.6880 C   0  0  0  0  0  0  0  0  0  0  0  0
   33.9350   29.3180   47.7210 C   0  0  0  0  0  0  0  0  0  0  0  0
   33.9740   28.3620   48.7020 C   0  0  0  0  0  0  0  0  0  0  0  0
   35.0080   28.3480   49.6120 C   0  0  0  0  0  0  0  0  0  0  0  0
   34.9650   31.0160   46.9300 H   0  0  0  0  0  0  0  0  0  0  0  0
   33.2260   27.5900   48.8200 H   0  0  0  0  0  0  0  0  0  0  0  0
   35.0420   27.5910   50.3900 H   0  0  0  0  0  0  0  0  0  0  0  0
   38.0010   33.1790   49.4500 C   0  0  0  0  0  0  0  0  0  0  0  0
   39.0290   33.1760   48.4570 C   0  0  0  0  0  0  0  0  0  0  0  0
   39.0100   32.1650   47.5110 C   0  0  0  0  0  0  0  0  0  0  0  0
   38.0180   31.2240   47.5690 N   0  0  0  0  0  0  0  0  0  0  0  0
   37.0590   31.2500   48.5170 C   0  0  0  0  0  0  0  0  0  0  0  0
   37.0560   32.2340   49.4580 N   0  0  0  0  0  0  0  0  0  0  0  0
   37.9440   33.9270   50.2190 H   0  0  0  0  0  0  0  0  0  0  0  0
   39.7680   33.9540   48.4870 H   0  0  0  0  0  0  0  0  0  0  0  0
   39.7770   32.1420   46.7500 H   0  0  0  0  0  0  0  0  0  0  0  0
   32.8320   29.3090   46.7750 C   0  0  0  0  0  0  0  0  0  0  0  0
   32.4750   30.3760   45.9740 C   0  0  0  0  0  3  0  0  0  0  0  0
   31.4130   30.3210   45.0850 C   0  0  0  0  0  0  0  0  0  0  0  0
   31.2080   31.2050   44.5000 H   0  0  0  0  0  0  0  0  0  0  0  0
   30.6940   29.1980   44.9850 N   0  0  0  0  0  0  0  0  0  0  0  0
   31.0330   28.1480   45.7610 C   0  0  0  0  0  3  0  0  0  0  0  0
   32.0600   28.2200   46.6140 N   0  0  0  0  0  0  0  0  0  0  0  0
  2  7  1  0  0  0  0
  2  1  1  0  0  0  0
  3  2  2  0  0  0  0
  4  5  2  0  0  0  0
  4  3  1  0  0  0  0
  5  6  1  0  0  0  0
  6  9  1  0  0  0  0
  6  7  2  0  0  0  0
  7 10  1  0  0  0  0
  8  4  1  0  0  0  0
 11 16  1  0  0  0  0
 11 17  1  0  0  0  0
 12 18  1  0  0  0  0
 12 11  2  0  0  0  0
 13 14  2  0  0  0  0
 13 12  1  0  0  0  0
 14 15  1  0  0  0  0
 15  3  1  0  0  0  0
 15 16  2  0  0  0  0
 19 13  1  0  0  0  0
 20  5  1  0  0  0  0
 21 20  2  0  0  0  0
 22 21  1  0  0  0  0
 23 22  1  0  0  0  0
 24 22  2  0  0  0  0
 24 25  1  0  0  0  0
 25 26  2  0  0  0  0
 26 20  1  0  0  0  0
M  END
>  <minimizedAffinity>
-5.87218571

>  <minimizedRMSD>
0.546247363

$$$$
