
 OpenBabel03272510163D

 26 28  0  0  0  0  0  0  0  0999 V2000
   37.4150   29.1940   50.8600 Br  0  0  0  0  0  0  0  0  0  0  0  0
   36.0130   29.2670   49.5690 C   0  0  0  0  0  0  0  0  0  0  0  0
   36.0020   30.2520   48.5840 C   0  0  0  0  0  0  0  0  0  0  0  0
   34.9600   30.2460   47.6880 C   0  0  0  0  0  0  0  0  0  0  0  0
   33.9360   29.3180   47.7210 C   0  0  0  0  0  0  0  0  0  0  0  0
   33.9740   28.3620   48.7020 C   0  0  0  0  0  0  0  0  0  0  0  0
   35.0080   28.3480   49.6120 C   0  0  0  0  0  0  0  0  0  0  0  0
   34.9660   31.0160   46.9300 H   0  0  0  0  0  0  0  0  0  0  0  0
   33.2270   27.5900   48.8200 H   0  0  0  0  0  0  0  0  0  0  0  0
   35.0430   27.5910   50.3900 H   0  0  0  0  0  0  0  0  0  0  0  0
   38.0010   33.1790   49.4500 C   0  0  0  0  0  0  0  0  0  0  0  0
   39.0290   33.1760   48.4570 C   0  0  0  0  0  0  0  0  0  0  0  0
   39.0110   32.1650   47.5110 C   0  0  0  0  0  0  0  0  0  0  0  0
   38.0190   31.2240   47.5690 N   0  0  0  0  0  0  0  0  0  0  0  0
   37.0590   31.2510   48.5170 C   0  0  0  0  0  0  0  0  0  0  0  0
   37.0560   32.2350   49.4580 N   0  0  0  0  0  0  0  0  0  0  0  0
   37.9440   33.9280   50.2190 H   0  0  0  0  0  0  0  0  0  0  0  0
   39.7680   33.9540   48.4870 H   0  0  0  0  0  0  0  0  0  0  0  0
   39.7780   32.1420   46.7500 H   0  0  0  0  0  0  0  0  0  0  0  0
   32.8330   29.3090   46.7750 C   0  0  0  0  0  0  0  0  0  0  0  0
   32.4760   30.3750   45.9740 C   0  0  0  0  0  3  0  0  0  0  0  0
   31.4140   30.3200   45.0850 C   0  0  0  0  0  0  0  0  0  0  0  0
   31.2090   31.2040   44.5000 H   0  0  0  0  0  0  0  0  0  0  0  0
   30.6940   29.1970   44.9850 N   0  0  0  0  0  0  0  0  0  0  0  0
   31.0320   28.1490   45.7620 C   0  0  0  0  0  3  0  0  0  0  0  0
   32.0610   28.2200   46.6140 N   0  0  0  0  0  0  0  0  0  0  0  0
  2  7  1  0  0  0  0
  2  1  1  0  0  0  0
  3  2  2  0  0  0  0
  4  5  2  0  0  0  0
  4  3  1  0  0  0  0
  5  6  1  0  0  0  0
  6  9  1  0  0  0  0
  6  7  2  0  0  0  0
  7 10  1  0  0  0  0
  8  4  1  0  0  0  0
 11 16  1  0  0  0  0
 11 17  1  0  0  0  0
 12 18  1  0  0  0  0
 12 11  2  0  0  0  0
 13 14  2  0  0  0  0
 13 12  1  0  0  0  0
 14 15  1  0  0  0  0
 15  3  1  0  0  0  0
 15 16  2  0  0  0  0
 19 13  1  0  0  0  0
 20  5  1  0  0  0  0
 21 20  2  0  0  0  0
 22 21  1  0  0  0  0
 23 22  1  0  0  0  0
 24 22  2  0  0  0  0
 24 25  1  0  0  0  0
 25 26  2  0  0  0  0
 26 20  1  0  0  0  0
M  END
>  <minimizedAffinity>
-5.87201548

>  <minimizedRMSD>
0.437901527

$$$$
