
     RDKit          3D

 34 36  0  0  0  0  0  0  0  0999 V2000
   36.8028   31.1750   48.6964 C   0  0  0  0  0  0  0  0  0  0  0  0
   35.8703   30.4665   49.4948 C   0  0  0  0  0  0  0  0  0  0  0  0
   36.3077   30.0659   50.7424 C   0  0  0  0  0  0  0  0  0  0  0  0
   37.5712   30.3537   51.1475 N   0  0  0  0  0  0  0  0  0  0  0  0
   38.4294   31.0358   50.3461 C   0  0  0  0  0  0  0  0  0  0  0  0
   38.0347   31.4471   49.1109 N   0  0  0  0  0  0  0  0  0  0  0  0
   34.4856   30.1572   49.0714 C   0  0  1  0  0  0  0  0  0  0  0  0
   34.2167   30.3441   47.6352 C   0  0  0  0  0  0  0  0  0  0  0  0
   34.3915   29.1448   46.7482 C   0  0  0  0  0  0  0  0  0  0  0  0
   33.9867   27.8484   47.3455 C   0  0  0  0  0  0  0  0  0  0  0  0
   34.2732   27.6436   48.7876 C   0  0  0  0  0  0  0  0  0  0  0  0
   33.9762   28.8660   49.6060 C   0  0  2  0  0  0  0  0  0  0  0  0
   36.5221   31.5137   47.7136 H   0  0  0  0  0  0  0  0  0  0  0  0
   35.7807   29.5319   51.5083 H   0  0  0  0  0  0  0  0  0  0  0  0
   39.4421   31.2817   50.6373 H   0  0  0  0  0  0  0  0  0  0  0  0
   33.8832   30.9464   49.6329 H   0  0  0  0  0  0  0  0  0  0  0  0
   34.6478   31.1984   47.1426 H   0  0  0  0  0  0  0  0  0  0  0  0
   33.0975   30.5383   47.5709 H   0  0  0  0  0  0  0  0  0  0  0  0
   35.4653   29.0887   46.4686 H   0  0  0  0  0  0  0  0  0  0  0  0
   33.8194   29.3087   45.8207 H   0  0  0  0  0  0  0  0  0  0  0  0
   32.8923   27.7111   47.1421 H   0  0  0  0  0  0  0  0  0  0  0  0
   34.4819   27.0301   46.7738 H   0  0  0  0  0  0  0  0  0  0  0  0
   35.3032   27.2858   48.9999 H   0  0  0  0  0  0  0  0  0  0  0  0
   33.5934   26.8432   49.1457 H   0  0  0  0  0  0  0  0  0  0  0  0
   34.3362   28.6288   50.6175 H   0  0  0  0  0  0  0  0  0  0  0  0
   32.4807   28.9993   49.7929 C   0  0  0  0  0  0  0  0  0  0  0  0
   31.6305   28.3573   48.8844 C   0  0  0  0  0  0  0  0  0  0  0  0
   30.2359   28.4298   48.9821 C   0  0  0  0  0  0  0  0  0  0  0  0
   29.6198   27.9160   48.2551 H   0  0  0  0  0  0  0  0  0  0  0  0
   29.7151   29.1477   49.9930 N   0  0  0  0  0  0  0  0  0  0  0  0
   30.5317   29.7718   50.8763 C   0  0  0  0  0  0  0  0  0  0  0  0
   31.8457   29.6854   50.7587 N   0  0  0  0  0  0  0  0  0  0  0  0
   32.0089   27.7734   48.0618 H   0  0  0  0  0  0  0  0  0  0  0  0
   30.2042   30.3604   51.7054 H   0  0  0  0  0  0  0  0  0  0  0  0
  1  6  2  0
  1  2  1  0
  2  3  2  0
  3  4  1  0
  5  4  2  0
  6  5  1  0
  7  2  1  0
  7 12  1  0
  8  7  1  0
  9 10  1  0
  9  8  1  0
 10 11  1  0
 11 12  1  0
  1 13  1  0
  3 14  1  0
  5 15  1  0
  7 16  1  1
  8 17  1  0
  8 18  1  0
  9 19  1  0
  9 20  1  0
 10 21  1  0
 10 22  1  0
 11 23  1  0
 11 24  1  0
 12 25  1  1
 26 27  2  0
 27 28  1  0
 28 29  1  0
 28 30  2  0
 30 31  1  0
 31 32  2  0
 32 26  1  0
 27 33  1  0
 31 34  1  0
 12 26  1  0
M  ISO  8  13  14  14  14  15  14  16  13  17  13  18  13  19  13  20  13
M  ISO  6  21  13  22  13  23  13  24  13  25  13  29  14
M  END
>  <DihAtoms>  (1) 
6,11,25,26

>  <DihDeg>  (1) 
-119.31730919807431

$$$$
