
 OpenBabel03272506473D

 40 43  0  0  1  0  0  0  0  0999 V2000
   32.0100   28.4010   47.4840 C   0  0  2  0  0  0  0  0  0  0  0  0
   33.2640   28.1710   48.2750 C   0  0  1  0  0  0  0  0  0  0  0  0
   33.5970   26.8550   48.1630 O   0  0  0  0  0  0  0  0  0  0  0  0
   32.8370   26.2700   47.1550 C   0  0  0  0  0  0  0  0  0  0  0  0
   32.2650   27.3940   46.3230 C   0  0  1  0  0  0  0  0  0  0  0  0
   31.0850   28.0990   47.9690 H   0  0  0  0  0  0  0  0  0  0  0  0
   33.1310   28.4850   49.3350 H   0  0  0  0  0  0  0  0  0  0  0  0
   32.1210   25.6280   47.6480 H   0  0  0  0  0  0  0  0  0  0  0  0
   33.5260   25.6410   46.5080 H   0  0  0  0  0  0  0  0  0  0  0  0
   33.0140   27.8300   45.6670 H   0  0  0  0  0  0  0  0  0  0  0  0
   31.9860   29.7100   46.9630 O   0  0  0  0  0  0  0  0  0  0  0  0
   32.4260   30.3250   47.6010 H   0  0  0  0  0  0  0  0  0  0  0  0
   34.6030   29.1580   47.4910 S   0  0  0  0  0  0  0  0  0  0  0  0
   36.9970   29.2540   50.6460 C   0  0  0  0  0  0  0  0  0  0  0  0
   37.4040   30.5830   50.7540 C   0  0  0  0  0  0  0  0  0  0  0  0
   36.9150   31.4950   49.8040 C   0  0  0  0  0  0  0  0  0  0  0  0
   36.0750   31.0360   48.8360 N   0  0  0  0  0  0  0  0  0  0  0  0
   35.7070   29.7380   48.7720 C   0  0  0  0  0  0  0  0  0  0  0  0
   36.1630   28.8290   49.6730 N   0  0  0  0  0  0  0  0  0  0  0  0
   37.4050   28.5980   51.4020 H   0  0  0  0  0  0  0  0  0  0  0  0
   38.0740   30.9020   51.5400 H   0  0  0  0  0  0  0  0  0  0  0  0
   37.2000   32.5370   49.8430 H   0  0  0  0  0  0  0  0  0  0  0  0
   31.0860   26.9800   45.7560 O   0  0  0  0  0  0  0  0  0  0  0  0
   29.8780   29.2830   44.3790 Cl  0  0  0  0  0  0  0  0  0  0  0  0
   29.1990   28.2990   45.6560 C   0  0  0  0  0  0  0  0  0  0  0  0
   29.8640   27.2310   46.2150 C   0  0  0  0  0  0  0  0  0  0  0  0
   29.2090   26.5010   47.2090 C   0  0  0  0  0  0  0  0  0  0  0  0
   27.9360   26.8470   47.6110 C   0  0  0  0  0  0  0  0  0  0  0  0
   27.2620   27.9200   47.0540 C   0  0  0  0  0  0  0  0  0  0  0  0
   27.9090   28.6430   46.0710 C   0  0  0  0  0  0  0  0  0  0  0  0
   29.6400   25.6480   47.7030 H   0  0  0  0  0  0  0  0  0  0  0  0
   27.4310   26.2820   48.3800 H   0  0  0  0  0  0  0  0  0  0  0  0
   26.2700   28.1390   47.4100 H   0  0  0  0  0  0  0  0  0  0  0  0
   27.2510   29.7830   45.4450 C   0  0  0  0  0  0  0  0  0  0  0  0
   27.1700   31.0230   46.0220 C   0  0  0  0  0  3  0  0  0  0  0  0
   26.5470   32.1150   45.4380 C   0  0  0  0  0  0  0  0  0  0  0  0
   26.5010   33.0750   45.9170 H   0  0  0  0  0  0  0  0  0  0  0  0
   25.9790   31.9680   44.2230 N   0  0  0  0  0  0  0  0  0  0  0  0
   26.0470   30.7570   43.6380 C   0  0  0  0  0  3  0  0  0  0  0  0
   26.6590   29.7180   44.2330 N   0  0  0  0  0  0  0  0  0  0  0  0
  1  6  1  1  0  0  0
  1  2  1  0  0  0  0
  2  7  1  1  0  0  0
  3  2  1  0  0  0  0
  4  8  1  0  0  0  0
  4  3  1  0  0  0  0
  5 10  1  6  0  0  0
  5  4  1  0  0  0  0
  5  1  1  0  0  0  0
  9  4  1  0  0  0  0
 11  1  1  0  0  0  0
 11 12  1  0  0  0  0
 13  2  1  0  0  0  0
 13 18  1  0  0  0  0
 14 15  1  0  0  0  0
 14 20  1  0  0  0  0
 15 21  1  0  0  0  0
 16 22  1  0  0  0  0
 16 15  2  0  0  0  0
 17 16  1  0  0  0  0
 18 17  2  0  0  0  0
 18 19  1  0  0  0  0
 19 14  2  0  0  0  0
 23 26  1  0  0  0  0
 23  5  1  0  0  0  0
 24 25  1  0  0  0  0
 25 30  2  0  0  0  0
 25 26  1  0  0  0  0
 26 27  2  0  0  0  0
 27 28  1  0  0  0  0
 27 31  1  0  0  0  0
 28 32  1  0  0  0  0
 29 33  1  0  0  0  0
 29 28  2  0  0  0  0
 30 29  1  0  0  0  0
 34 35  1  0  0  0  0
 34 30  1  0  0  0  0
 36 37  1  0  0  0  0
 36 35  2  0  0  0  0
 38 36  1  0  0  0  0
 39 38  2  0  0  0  0
 39 40  1  0  0  0  0
 40 34  2  0  0  0  0
M  END
>  <minimizedAffinity>
-5.43294334

>  <minimizedRMSD>
0.42488879

$$$$
