
 OpenBabel03272509293D

 32 34  0  0  1  0  0  0  0  0999 V2000
   38.1620   25.5340   33.5000 C   0  0  2  0  0  0  0  0  0  0  0  0
   38.7120   24.8620   34.7370 C   0  0  0  0  0  0  0  0  0  0  0  0
   38.1240   25.4080   36.0030 C   0  0  0  0  0  0  0  0  0  0  0  0
   38.3220   26.9020   36.1090 C   0  0  0  0  0  0  0  0  0  0  0  0
   37.9070   27.6240   34.8760 C   0  0  0  0  0  0  0  0  0  0  0  0
   37.3540   26.7480   33.7820 C   0  0  1  0  0  0  0  0  0  0  0  0
   39.0170   25.7260   32.8230 H   0  0  0  0  0  0  0  0  0  0  0  0
   39.8070   25.0290   34.8030 H   0  0  0  0  0  0  0  0  0  0  0  0
   38.5020   23.7950   34.6670 H   0  0  0  0  0  0  0  0  0  0  0  0
   38.6870   24.9390   36.8390 H   0  0  0  0  0  0  0  0  0  0  0  0
   37.0580   25.1090   36.0310 H   0  0  0  0  0  0  0  0  0  0  0  0
   39.4330   27.0550   36.2010 H   0  0  0  0  0  0  0  0  0  0  0  0
   37.8810   27.2680   37.0320 H   0  0  0  0  0  0  0  0  0  0  0  0
   37.0380   28.2800   35.1790 H   0  0  0  0  0  0  0  0  0  0  0  0
   38.6590   28.3470   34.5120 H   0  0  0  0  0  0  0  0  0  0  0  0
   36.2810   26.5130   33.9210 H   0  0  0  0  0  0  0  0  0  0  0  0
   37.2870   24.5770   32.7520 C   0  0  0  0  0  0  0  0  0  0  0  0
   37.6370   23.2150   32.8470 C   0  0  0  0  0  0  0  0  0  0  0  0
   36.8480   22.3040   32.1580 C   0  0  0  0  0  0  0  0  0  0  0  0
   35.7750   22.7650   31.4220 N   0  0  0  0  0  0  0  0  0  0  0  0
   35.4730   24.0920   31.3570 C   0  0  0  0  0  0  0  0  0  0  0  0
   36.2240   24.9780   32.0160 N   0  0  0  0  0  0  0  0  0  0  0  0
   38.4390   22.7820   33.3810 H   0  0  0  0  0  0  0  0  0  0  0  0
   37.0310   21.2310   32.1650 H   0  0  0  0  0  0  0  0  0  0  0  0
   34.6220   24.3960   30.7660 H   0  0  0  0  0  0  0  0  0  0  0  0
   37.4760   27.6070   32.5470 C   0  0  0  0  0  0  0  0  0  0  0  0
   36.4440   28.4940   32.3080 C   0  0  0  0  0  3  0  0  0  0  0  0
   36.5480   29.2830   31.1800 C   0  0  0  0  0  0  0  0  0  0  0  0
   35.7440   29.9990   30.9630 H   0  0  0  0  0  0  0  0  0  0  0  0
   37.6220   29.1860   30.3440 N   0  0  0  0  0  0  0  0  0  0  0  0
   38.6070   28.2950   30.6290 C   0  0  0  0  0  3  0  0  0  0  0  0
   38.5220   27.5060   31.7400 N   0  0  0  0  0  0  0  0  0  0  0  0
  1  7  1  6  0  0  0
  1  6  1  0  0  0  0
  1  2  1  0  0  0  0
  2  8  1  0  0  0  0
  2  3  1  0  0  0  0
  3 11  1  0  0  0  0
  3  4  1  0  0  0  0
  3 10  1  0  0  0  0
  4 12  1  0  0  0  0
  4 13  1  0  0  0  0
  5 14  1  0  0  0  0
  5  4  1  0  0  0  0
  6 16  1  1  0  0  0
  6  5  1  0  0  0  0
  9  2  1  0  0  0  0
 15  5  1  0  0  0  0
 17 18  1  0  0  0  0
 17  1  1  0  0  0  0
 18 23  1  0  0  0  0
 19 24  1  0  0  0  0
 19 18  2  0  0  0  0
 20 19  1  0  0  0  0
 21 20  2  0  0  0  0
 21 22  1  0  0  0  0
 22 17  2  0  0  0  0
 25 21  1  0  0  0  0
 26  6  1  0  0  0  0
 27 26  1  0  0  0  0
 28 27  2  0  0  0  0
 29 28  1  0  0  0  0
 30 31  2  0  0  0  0
 30 28  1  0  0  0  0
 31 32  1  0  0  0  0
 32 26  2  0  0  0  0
M  END
>  <minimizedAffinity>
-4.64951134

$$$$

 OpenBabel03272509293D

 32 34  0  0  1  0  0  0  0  0999 V2000
   39.6600   24.8870   34.3840 C   0  0  2  0  0  0  0  0  0  0  0  0
   41.0310   24.2540   34.3350 C   0  0  0  0  0  0  0  0  0  0  0  0
   42.0910   25.1190   34.9490 C   0  0  0  0  0  0  0  0  0  0  0  0
   42.1400   26.4820   34.3010 C   0  0  0  0  0  0  0  0  0  0  0  0
   40.8000   27.1220   34.2100 C   0  0  0  0  0  0  0  0  0  0  0  0
   39.6690   26.3160   34.7930 C   0  0  1  0  0  0  0  0  0  0  0  0
   39.1850   24.7180   33.3980 H   0  0  0  0  0  0  0  0  0  0  0  0
   41.3350   24.0890   33.2800 H   0  0  0  0  0  0  0  0  0  0  0  0
   40.9870   23.3010   34.8630 H   0  0  0  0  0  0  0  0  0  0  0  0
   43.0630   24.6190   34.7440 H   0  0  0  0  0  0  0  0  0  0  0  0
   41.8950   25.1630   36.0380 H   0  0  0  0  0  0  0  0  0  0  0  0
   42.4730   26.3030   33.2410 H   0  0  0  0  0  0  0  0  0  0  0  0
   42.9120   27.0870   34.7700 H   0  0  0  0  0  0  0  0  0  0  0  0
   40.8520   28.0450   34.8590 H   0  0  0  0  0  0  0  0  0  0  0  0
   40.5700   27.5280   33.2070 H   0  0  0  0  0  0  0  0  0  0  0  0
   39.5750   26.4370   35.8890 H   0  0  0  0  0  0  0  0  0  0  0  0
   38.7970   24.1470   35.3590 C   0  0  0  0  0  0  0  0  0  0  0  0
   38.2710   22.9180   34.9120 C   0  0  0  0  0  0  0  0  0  0  0  0
   37.4620   22.2130   35.7910 C   0  0  0  0  0  0  0  0  0  0  0  0
   37.2110   22.7380   37.0430 N   0  0  0  0  0  0  0  0  0  0  0  0
   37.7400   23.9310   37.4350 C   0  0  0  0  0  0  0  0  0  0  0  0
   38.5210   24.6190   36.5980 N   0  0  0  0  0  0  0  0  0  0  0  0
   38.4100   22.4500   33.9750 H   0  0  0  0  0  0  0  0  0  0  0  0
   37.0070   21.2550   35.5460 H   0  0  0  0  0  0  0  0  0  0  0  0
   37.5100   24.2940   38.4250 H   0  0  0  0  0  0  0  0  0  0  0  0
   38.4400   26.9210   34.1600 C   0  0  0  0  0  0  0  0  0  0  0  0
   37.5950   27.6210   34.9990 C   0  0  0  0  0  3  0  0  0  0  0  0
   36.4680   28.1780   34.4280 C   0  0  0  0  0  0  0  0  0  0  0  0
   35.7770   28.7410   35.0690 H   0  0  0  0  0  0  0  0  0  0  0  0
   36.2070   28.0400   33.0960 N   0  0  0  0  0  0  0  0  0  0  0  0
   37.0740   27.3400   32.3180 C   0  0  0  0  0  3  0  0  0  0  0  0
   38.1940   26.7820   32.8660 N   0  0  0  0  0  0  0  0  0  0  0  0
  1  7  1  6  0  0  0
  1  6  1  0  0  0  0
  1 17  1  0  0  0  0
  2  1  1  0  0  0  0
  2  9  1  0  0  0  0
  2  3  1  0  0  0  0
  3 11  1  0  0  0  0
  4 13  1  0  0  0  0
  4  3  1  0  0  0  0
  5  4  1  0  0  0  0
  5  6  1  0  0  0  0
  5 14  1  0  0  0  0
  6 16  1  1  0  0  0
  8  2  1  0  0  0  0
 10  3  1  0  0  0  0
 12  4  1  0  0  0  0
 15  5  1  0  0  0  0
 17 22  1  0  0  0  0
 18 17  2  0  0  0  0
 18 19  1  0  0  0  0
 19 20  2  0  0  0  0
 20 21  1  0  0  0  0
 21 25  1  0  0  0  0
 22 21  2  0  0  0  0
 23 18  1  0  0  0  0
 24 19  1  0  0  0  0
 26  6  1  0  0  0  0
 26 27  1  0  0  0  0
 28 27  2  0  0  0  0
 28 29  1  0  0  0  0
 30 28  1  0  0  0  0
 31 32  1  0  0  0  0
 31 30  2  0  0  0  0
 32 26  2  0  0  0  0
M  END
>  <minimizedAffinity>
-4.64732981

$$$$

 OpenBabel03272509293D

 32 34  0  0  1  0  0  0  0  0999 V2000
   39.2690   25.5380   34.6070 C   0  0  2  0  0  0  0  0  0  0  0  0
   39.4140   26.8750   35.2960 C   0  0  0  0  0  0  0  0  0  0  0  0
   38.0930   27.4930   35.6450 C   0  0  0  0  0  0  0  0  0  0  0  0
   37.2100   27.6430   34.4290 C   0  0  0  0  0  0  0  0  0  0  0  0
   37.1130   26.3890   33.6340 C   0  0  0  0  0  0  0  0  0  0  0  0
   37.8780   25.2190   34.1940 C   0  0  1  0  0  0  0  0  0  0  0  0
   39.9890   25.5220   33.7660 H   0  0  0  0  0  0  0  0  0  0  0  0
   39.9260   27.5940   34.6220 H   0  0  0  0  0  0  0  0  0  0  0  0
   40.0010   26.7310   36.2030 H   0  0  0  0  0  0  0  0  0  0  0  0
   38.3140   28.5160   36.0220 H   0  0  0  0  0  0  0  0  0  0  0  0
   37.6350   26.8720   36.4390 H   0  0  0  0  0  0  0  0  0  0  0  0
   37.7280   28.3920   33.7670 H   0  0  0  0  0  0  0  0  0  0  0  0
   36.2600   28.0870   34.7140 H   0  0  0  0  0  0  0  0  0  0  0  0
   36.0290   26.0710   33.6900 H   0  0  0  0  0  0  0  0  0  0  0  0
   37.2800   26.5370   32.5510 H   0  0  0  0  0  0  0  0  0  0  0  0
   37.3210   24.6800   34.9830 H   0  0  0  0  0  0  0  0  0  0  0  0
   39.7250   24.4460   35.5260 C   0  0  0  0  0  0  0  0  0  0  0  0
   38.8080   24.0510   36.5210 C   0  0  0  0  0  0  0  0  0  0  0  0
   39.2060   23.0450   37.3910 C   0  0  0  0  0  0  0  0  0  0  0  0
   40.4610   22.4880   37.2460 N   0  0  0  0  0  0  0  0  0  0  0  0
   41.3160   22.9010   36.2690 C   0  0  0  0  0  0  0  0  0  0  0  0
   40.9450   23.8670   35.4250 N   0  0  0  0  0  0  0  0  0  0  0  0
   37.8380   24.4260   36.7010 H   0  0  0  0  0  0  0  0  0  0  0  0
   38.5760   22.6670   38.1930 H   0  0  0  0  0  0  0  0  0  0  0  0
   42.2850   22.4300   36.2030 H   0  0  0  0  0  0  0  0  0  0  0  0
   38.0140   24.2880   33.0140 C   0  0  0  0  0  0  0  0  0  0  0  0
   38.7220   24.7670   31.9290 C   0  0  0  0  0  3  0  0  0  0  0  0
   38.8510   23.9210   30.8450 C   0  0  0  0  0  0  0  0  0  0  0  0
   39.4080   24.2730   29.9670 H   0  0  0  0  0  0  0  0  0  0  0  0
   38.3020   22.6720   30.8520 N   0  0  0  0  0  0  0  0  0  0  0  0
   37.6160   22.2540   31.9480 C   0  0  0  0  0  3  0  0  0  0  0  0
   37.4780   23.0770   33.0290 N   0  0  0  0  0  0  0  0  0  0  0  0
  1  7  1  6  0  0  0
  1  2  1  0  0  0  0
  1 17  1  0  0  0  0
  2  3  1  0  0  0  0
  2  9  1  0  0  0  0
  3 10  1  0  0  0  0
  3 11  1  0  0  0  0
  4 13  1  0  0  0  0
  4  3  1  0  0  0  0
  5 14  1  0  0  0  0
  5  6  1  0  0  0  0
  5  4  1  0  0  0  0
  6  1  1  0  0  0  0
  6 16  1  1  0  0  0
  8  2  1  0  0  0  0
 12  4  1  0  0  0  0
 15  5  1  0  0  0  0
 17 18  1  0  0  0  0
 18 23  1  0  0  0  0
 18 19  2  0  0  0  0
 19 24  1  0  0  0  0
 20 19  1  0  0  0  0
 21 20  2  0  0  0  0
 22 17  2  0  0  0  0
 22 21  1  0  0  0  0
 25 21  1  0  0  0  0
 26 32  1  0  0  0  0
 26  6  1  0  0  0  0
 27 26  2  0  0  0  0
 28 30  2  0  0  0  0
 28 27  1  0  0  0  0
 29 28  1  0  0  0  0
 30 31  1  0  0  0  0
 31 32  2  0  0  0  0
M  END
>  <minimizedAffinity>
-4.60414743

$$$$

 OpenBabel03272509293D

 32 34  0  0  1  0  0  0  0  0999 V2000
   36.4240   21.8190   33.4240 C   0  0  2  0  0  0  0  0  0  0  0  0
   35.7590   20.5780   33.9740 C   0  0  0  0  0  0  0  0  0  0  0  0
   35.6230   19.4920   32.9490 C   0  0  0  0  0  0  0  0  0  0  0  0
   34.8730   19.9690   31.7290 C   0  0  0  0  0  0  0  0  0  0  0  0
   35.4030   21.2540   31.1970 C   0  0  0  0  0  0  0  0  0  0  0  0
   36.5830   21.8150   31.9470 C   0  0  1  0  0  0  0  0  0  0  0  0
   35.8540   22.6910   33.8000 H   0  0  0  0  0  0  0  0  0  0  0  0
   34.7300   20.8190   34.3120 H   0  0  0  0  0  0  0  0  0  0  0  0
   36.3520   20.2170   34.8140 H   0  0  0  0  0  0  0  0  0  0  0  0
   35.0140   18.6900   33.4210 H   0  0  0  0  0  0  0  0  0  0  0  0
   36.6420   19.1250   32.7170 H   0  0  0  0  0  0  0  0  0  0  0  0
   33.8260   20.1850   32.0810 H   0  0  0  0  0  0  0  0  0  0  0  0
   34.7960   19.1630   31.0040 H   0  0  0  0  0  0  0  0  0  0  0  0
   35.8080   21.0200   30.1680 H   0  0  0  0  0  0  0  0  0  0  0  0
   34.6190   22.0070   30.9970 H   0  0  0  0  0  0  0  0  0  0  0  0
   37.5440   21.3680   31.6310 H   0  0  0  0  0  0  0  0  0  0  0  0
   37.7900   21.9660   34.0210 C   0  0  0  0  0  0  0  0  0  0  0  0
   38.8570   21.4450   33.2610 C   0  0  0  0  0  0  0  0  0  0  0  0
   40.1340   21.5600   33.7920 C   0  0  0  0  0  0  0  0  0  0  0  0
   40.3000   22.1690   35.0200 N   0  0  0  0  0  0  0  0  0  0  0  0
   39.2390   22.6590   35.7210 C   0  0  0  0  0  0  0  0  0  0  0  0
   38.0050   22.5540   35.2210 N   0  0  0  0  0  0  0  0  0  0  0  0
   38.8160   20.9640   32.3210 H   0  0  0  0  0  0  0  0  0  0  0  0
   41.0250   21.1920   33.2870 H   0  0  0  0  0  0  0  0  0  0  0  0
   39.4270   23.1240   36.6770 H   0  0  0  0  0  0  0  0  0  0  0  0
   36.6000   23.2680   31.5420 C   0  0  0  0  0  0  0  0  0  0  0  0
   35.3870   23.9300   31.5660 C   0  0  0  0  0  3  0  0  0  0  0  0
   35.3940   25.2610   31.1960 C   0  0  0  0  0  0  0  0  0  0  0  0
   34.4470   25.8140   31.2050 H   0  0  0  0  0  0  0  0  0  0  0  0
   36.5490   25.8870   30.8260 N   0  0  0  0  0  0  0  0  0  0  0  0
   37.7130   25.1860   30.8210 C   0  0  0  0  0  3  0  0  0  0  0  0
   37.7250   23.8690   31.1830 N   0  0  0  0  0  0  0  0  0  0  0  0
  1  7  1  1  0  0  0
  1  2  1  0  0  0  0
  1 17  1  0  0  0  0
  2  8  1  0  0  0  0
  2  9  1  0  0  0  0
  3 10  1  0  0  0  0
  3  2  1  0  0  0  0
  4 12  1  0  0  0  0
  4  3  1  0  0  0  0
  5  4  1  0  0  0  0
  5  6  1  0  0  0  0
  6 16  1  6  0  0  0
  6  1  1  0  0  0  0
 11  3  1  0  0  0  0
 13  4  1  0  0  0  0
 14  5  1  0  0  0  0
 15  5  1  0  0  0  0
 17 22  1  0  0  0  0
 18 19  1  0  0  0  0
 18 17  2  0  0  0  0
 19 20  2  0  0  0  0
 20 21  1  0  0  0  0
 21 25  1  0  0  0  0
 22 21  2  0  0  0  0
 23 18  1  0  0  0  0
 24 19  1  0  0  0  0
 26 27  1  0  0  0  0
 26  6  1  0  0  0  0
 28 29  1  0  0  0  0
 28 27  2  0  0  0  0
 30 28  1  0  0  0  0
 31 30  2  0  0  0  0
 31 32  1  0  0  0  0
 32 26  2  0  0  0  0
M  END
>  <minimizedAffinity>
-4.52382994

$$$$

 OpenBabel03272509293D

 32 34  0  0  1  0  0  0  0  0999 V2000
   39.5750   24.8010   33.9110 C   0  0  2  0  0  0  0  0  0  0  0  0
   41.0000   25.0090   34.3690 C   0  0  0  0  0  0  0  0  0  0  0  0
   41.3250   26.4530   34.6130 C   0  0  0  0  0  0  0  0  0  0  0  0
   41.0590   27.2970   33.3890 C   0  0  0  0  0  0  0  0  0  0  0  0
   39.7090   27.0590   32.8120 C   0  0  0  0  0  0  0  0  0  0  0  0
   38.8650   26.0570   33.5560 C   0  0  1  0  0  0  0  0  0  0  0  0
   39.6000   24.0650   33.0830 H   0  0  0  0  0  0  0  0  0  0  0  0
   41.7040   24.6580   33.5860 H   0  0  0  0  0  0  0  0  0  0  0  0
   41.1500   24.4410   35.2870 H   0  0  0  0  0  0  0  0  0  0  0  0
   42.4180   26.4980   34.8160 H   0  0  0  0  0  0  0  0  0  0  0  0
   40.7470   26.7780   35.4990 H   0  0  0  0  0  0  0  0  0  0  0  0
   41.7960   26.9480   32.6130 H   0  0  0  0  0  0  0  0  0  0  0  0
   41.2980   28.3360   33.5980 H   0  0  0  0  0  0  0  0  0  0  0  0
   39.1490   28.0350   32.9200 H   0  0  0  0  0  0  0  0  0  0  0  0
   39.7170   26.8890   31.7190 H   0  0  0  0  0  0  0  0  0  0  0  0
   38.3400   26.4990   34.4250 H   0  0  0  0  0  0  0  0  0  0  0  0
   38.7890   24.1320   34.9960 C   0  0  0  0  0  0  0  0  0  0  0  0
   38.4760   24.9300   36.1150 C   0  0  0  0  0  0  0  0  0  0  0  0
   37.7530   24.3350   37.1400 C   0  0  0  0  0  0  0  0  0  0  0  0
   37.3810   23.0110   37.0200 N   0  0  0  0  0  0  0  0  0  0  0  0
   37.7050   22.2760   35.9200 C   0  0  0  0  0  0  0  0  0  0  0  0
   38.4000   22.8370   34.9260 N   0  0  0  0  0  0  0  0  0  0  0  0
   38.7240   25.9420   36.2860 H   0  0  0  0  0  0  0  0  0  0  0  0
   37.4610   24.8610   38.0460 H   0  0  0  0  0  0  0  0  0  0  0  0
   37.3890   21.2450   35.8800 H   0  0  0  0  0  0  0  0  0  0  0  0
   37.8190   25.6550   32.5460 C   0  0  0  0  0  0  0  0  0  0  0  0
   36.6950   26.4560   32.4700 C   0  0  0  0  0  3  0  0  0  0  0  0
   35.7330   26.0950   31.5480 C   0  0  0  0  0  0  0  0  0  0  0  0
   34.8290   26.7110   31.4630 H   0  0  0  0  0  0  0  0  0  0  0  0
   35.8910   24.9970   30.7520 N   0  0  0  0  0  0  0  0  0  0  0  0
   37.0170   24.2460   30.8710 C   0  0  0  0  0  3  0  0  0  0  0  0
   37.9790   24.5880   31.7780 N   0  0  0  0  0  0  0  0  0  0  0  0
  1  7  1  6  0  0  0
  1  2  1  0  0  0  0
  1 17  1  0  0  0  0
  2  3  1  0  0  0  0
  2  9  1  0  0  0  0
  3 10  1  0  0  0  0
  3 11  1  0  0  0  0
  4 13  1  0  0  0  0
  4  3  1  0  0  0  0
  5 14  1  0  0  0  0
  5  4  1  0  0  0  0
  5  6  1  0  0  0  0
  6  1  1  0  0  0  0
  6 16  1  1  0  0  0
  8  2  1  0  0  0  0
 12  4  1  0  0  0  0
 15  5  1  0  0  0  0
 17 18  1  0  0  0  0
 18 23  1  0  0  0  0
 18 19  2  0  0  0  0
 19 24  1  0  0  0  0
 20 19  1  0  0  0  0
 21 20  2  0  0  0  0
 22 17  2  0  0  0  0
 22 21  1  0  0  0  0
 25 21  1  0  0  0  0
 26  6  1  0  0  0  0
 27 26  1  0  0  0  0
 28 27  2  0  0  0  0
 29 28  1  0  0  0  0
 30 31  2  0  0  0  0
 30 28  1  0  0  0  0
 31 32  1  0  0  0  0
 32 26  2  0  0  0  0
M  END
>  <minimizedAffinity>
-4.51197815

$$$$

 OpenBabel03272509293D

 32 34  0  0  1  0  0  0  0  0999 V2000
   38.5130   26.7680   33.0910 C   0  0  2  0  0  0  0  0  0  0  0  0
   39.5240   26.2950   34.1090 C   0  0  0  0  0  0  0  0  0  0  0  0
   38.9330   26.1260   35.4770 C   0  0  0  0  0  0  0  0  0  0  0  0
   38.2830   27.4000   35.9630 C   0  0  0  0  0  0  0  0  0  0  0  0
   37.3550   27.9880   34.9590 C   0  0  0  0  0  0  0  0  0  0  0  0
   37.2210   27.2040   33.6800 C   0  0  1  0  0  0  0  0  0  0  0  0
   39.0030   27.5520   32.4820 H   0  0  0  0  0  0  0  0  0  0  0  0
   40.3370   27.0440   34.2110 H   0  0  0  0  0  0  0  0  0  0  0  0
   39.9340   25.3450   33.7690 H   0  0  0  0  0  0  0  0  0  0  0  0
   39.7810   25.9050   36.1610 H   0  0  0  0  0  0  0  0  0  0  0  0
   38.2310   25.2710   35.4330 H   0  0  0  0  0  0  0  0  0  0  0  0
   39.1200   28.1410   36.0860 H   0  0  0  0  0  0  0  0  0  0  0  0
   37.8590   27.2440   36.9520 H   0  0  0  0  0  0  0  0  0  0  0  0
   36.3260   27.9450   35.4250 H   0  0  0  0  0  0  0  0  0  0  0  0
   37.5130   29.0690   34.7900 H   0  0  0  0  0  0  0  0  0  0  0  0
   36.4960   26.3720   33.7590 H   0  0  0  0  0  0  0  0  0  0  0  0
   38.2150   25.6620   32.1260 C   0  0  0  0  0  0  0  0  0  0  0  0
   37.1770   24.7820   32.4940 C   0  0  0  0  0  0  0  0  0  0  0  0
   36.8820   23.7430   31.6220 C   0  0  0  0  0  0  0  0  0  0  0  0
   37.6080   23.6180   30.4540 N   0  0  0  0  0  0  0  0  0  0  0  0
   38.6050   24.4920   30.1380 C   0  0  0  0  0  0  0  0  0  0  0  0
   38.8970   25.4970   30.9680 N   0  0  0  0  0  0  0  0  0  0  0  0
   36.5790   24.8050   33.3640 H   0  0  0  0  0  0  0  0  0  0  0  0
   36.1010   23.0100   31.8110 H   0  0  0  0  0  0  0  0  0  0  0  0
   39.1400   24.3460   29.2120 H   0  0  0  0  0  0  0  0  0  0  0  0
   36.6570   28.2100   32.7070 C   0  0  0  0  0  0  0  0  0  0  0  0
   35.4100   28.7250   33.0050 C   0  0  0  0  0  3  0  0  0  0  0  0
   34.8860   29.6460   32.1200 C   0  0  0  0  0  0  0  0  0  0  0  0
   33.8970   30.0730   32.3300 H   0  0  0  0  0  0  0  0  0  0  0  0
   35.5730   30.0250   31.0040 N   0  0  0  0  0  0  0  0  0  0  0  0
   36.7960   29.4850   30.7600 C   0  0  0  0  0  3  0  0  0  0  0  0
   37.3300   28.5730   31.6250 N   0  0  0  0  0  0  0  0  0  0  0  0
  1  7  1  6  0  0  0
  1  6  1  0  0  0  0
  1  2  1  0  0  0  0
  2  8  1  0  0  0  0
  2  3  1  0  0  0  0
  3  4  1  0  0  0  0
  3 10  1  0  0  0  0
  4 12  1  0  0  0  0
  4 13  1  0  0  0  0
  5 14  1  0  0  0  0
  5  4  1  0  0  0  0
  6 16  1  1  0  0  0
  6  5  1  0  0  0  0
  9  2  1  0  0  0  0
 11  3  1  0  0  0  0
 15  5  1  0  0  0  0
 17 18  1  0  0  0  0
 17  1  1  0  0  0  0
 18 23  1  0  0  0  0
 19 24  1  0  0  0  0
 19 18  2  0  0  0  0
 20 19  1  0  0  0  0
 21 20  2  0  0  0  0
 21 22  1  0  0  0  0
 22 17  2  0  0  0  0
 25 21  1  0  0  0  0
 26 27  1  0  0  0  0
 26  6  1  0  0  0  0
 28 29  1  0  0  0  0
 28 27  2  0  0  0  0
 30 28  1  0  0  0  0
 31 30  2  0  0  0  0
 31 32  1  0  0  0  0
 32 26  2  0  0  0  0
M  END
>  <minimizedAffinity>
-4.48989105

$$$$

 OpenBabel03272509293D

 32 34  0  0  1  0  0  0  0  0999 V2000
   34.6870   30.9440   34.2980 C   0  0  2  0  0  0  0  0  0  0  0  0
   35.7710   31.9810   34.4810 C   0  0  0  0  0  0  0  0  0  0  0  0
   36.1350   32.1900   35.9210 C   0  0  0  0  0  0  0  0  0  0  0  0
   34.9300   32.5670   36.7500 C   0  0  0  0  0  0  0  0  0  0  0  0
   33.7770   31.6520   36.5330 C   0  0  0  0  0  0  0  0  0  0  0  0
   34.0310   30.5270   35.5640 C   0  0  1  0  0  0  0  0  0  0  0  0
   33.9760   31.3420   33.5480 H   0  0  0  0  0  0  0  0  0  0  0  0
   35.4230   32.9640   34.1010 H   0  0  0  0  0  0  0  0  0  0  0  0
   36.6510   31.6570   33.9250 H   0  0  0  0  0  0  0  0  0  0  0  0
   36.8370   33.0530   35.9450 H   0  0  0  0  0  0  0  0  0  0  0  0
   36.6340   31.2680   36.2750 H   0  0  0  0  0  0  0  0  0  0  0  0
   34.6040   33.5750   36.3710 H   0  0  0  0  0  0  0  0  0  0  0  0
   35.2240   32.7060   37.7870 H   0  0  0  0  0  0  0  0  0  0  0  0
   33.6000   31.1360   37.5240 H   0  0  0  0  0  0  0  0  0  0  0  0
   32.8230   32.1780   36.3450 H   0  0  0  0  0  0  0  0  0  0  0  0
   34.5390   29.6620   36.0330 H   0  0  0  0  0  0  0  0  0  0  0  0
   35.2650   29.7160   33.6660 C   0  0  0  0  0  0  0  0  0  0  0  0
   36.0970   28.9300   34.4890 C   0  0  0  0  0  0  0  0  0  0  0  0
   36.6540   27.7880   33.9280 C   0  0  0  0  0  0  0  0  0  0  0  0
   36.3730   27.4800   32.6120 N   0  0  0  0  0  0  0  0  0  0  0  0
   35.5620   28.2690   31.8530 C   0  0  0  0  0  0  0  0  0  0  0  0
   35.0200   29.3690   32.3810 N   0  0  0  0  0  0  0  0  0  0  0  0
   36.3650   29.0960   35.4970 H   0  0  0  0  0  0  0  0  0  0  0  0
   37.3090   27.1140   34.4760 H   0  0  0  0  0  0  0  0  0  0  0  0
   35.3770   27.9790   30.8300 H   0  0  0  0  0  0  0  0  0  0  0  0
   32.6450   30.0810   35.1690 C   0  0  0  0  0  0  0  0  0  0  0  0
   32.1950   28.8980   35.7230 C   0  0  0  0  0  3  0  0  0  0  0  0
   30.9280   28.4830   35.3660 C   0  0  0  0  0  0  0  0  0  0  0  0
   30.5420   27.5460   35.7900 H   0  0  0  0  0  0  0  0  0  0  0  0
   30.1590   29.2120   34.5070 N   0  0  0  0  0  0  0  0  0  0  0  0
   30.6530   30.3690   33.9920 C   0  0  0  0  0  3  0  0  0  0  0  0
   31.9050   30.7950   34.3340 N   0  0  0  0  0  0  0  0  0  0  0  0
  1  7  1  6  0  0  0
  1  2  1  0  0  0  0
  1  6  1  0  0  0  0
  2  3  1  0  0  0  0
  3 10  1  0  0  0  0
  3 11  1  0  0  0  0
  3  4  1  0  0  0  0
  4 13  1  0  0  0  0
  5  4  1  0  0  0  0
  5 14  1  0  0  0  0
  6 16  1  1  0  0  0
  6  5  1  0  0  0  0
  8  2  1  0  0  0  0
  9  2  1  0  0  0  0
 12  4  1  0  0  0  0
 15  5  1  0  0  0  0
 17  1  1  0  0  0  0
 17 18  1  0  0  0  0
 18 23  1  0  0  0  0
 19 24  1  0  0  0  0
 19 18  2  0  0  0  0
 20 19  1  0  0  0  0
 21 22  1  0  0  0  0
 21 20  2  0  0  0  0
 22 17  2  0  0  0  0
 25 21  1  0  0  0  0
 26  6  1  0  0  0  0
 26 27  1  0  0  0  0
 28 27  2  0  0  0  0
 28 29  1  0  0  0  0
 30 28  1  0  0  0  0
 31 32  1  0  0  0  0
 31 30  2  0  0  0  0
 32 26  2  0  0  0  0
M  END
>  <minimizedAffinity>
-4.48158026

$$$$

 OpenBabel03272509293D

 32 34  0  0  1  0  0  0  0  0999 V2000
   37.0590   26.7840   33.3410 C   0  0  2  0  0  0  0  0  0  0  0  0
   37.0690   27.7210   34.5270 C   0  0  0  0  0  0  0  0  0  0  0  0
   38.2040   27.4500   35.4690 C   0  0  0  0  0  0  0  0  0  0  0  0
   38.1960   26.0200   35.9540 C   0  0  0  0  0  0  0  0  0  0  0  0
   38.0710   25.0390   34.8430 C   0  0  0  0  0  0  0  0  0  0  0  0
   38.0040   25.6430   33.4650 C   0  0  1  0  0  0  0  0  0  0  0  0
   36.0100   26.4670   33.1820 H   0  0  0  0  0  0  0  0  0  0  0  0
   36.1370   27.5940   35.1170 H   0  0  0  0  0  0  0  0  0  0  0  0
   37.1390   28.7420   34.1550 H   0  0  0  0  0  0  0  0  0  0  0  0
   38.0390   28.1020   36.3550 H   0  0  0  0  0  0  0  0  0  0  0  0
   39.1420   27.7260   34.9480 H   0  0  0  0  0  0  0  0  0  0  0  0
   37.2600   25.9140   36.5710 H   0  0  0  0  0  0  0  0  0  0  0  0
   39.0320   25.8540   36.6290 H   0  0  0  0  0  0  0  0  0  0  0  0
   39.0340   24.4460   34.8440 H   0  0  0  0  0  0  0  0  0  0  0  0
   37.2970   24.2690   35.0160 H   0  0  0  0  0  0  0  0  0  0  0  0
   39.0020   25.8810   33.0500 H   0  0  0  0  0  0  0  0  0  0  0  0
   37.4260   27.5370   32.1000 C   0  0  0  0  0  0  0  0  0  0  0  0
   36.3830   28.2560   31.4820 C   0  0  0  0  0  0  0  0  0  0  0  0
   36.6920   28.9590   30.3250 C   0  0  0  0  0  0  0  0  0  0  0  0
   37.9840   28.9220   29.8400 N   0  0  0  0  0  0  0  0  0  0  0  0
   38.9620   28.2130   30.4700 C   0  0  0  0  0  0  0  0  0  0  0  0
   38.6780   27.5330   31.5840 N   0  0  0  0  0  0  0  0  0  0  0  0
   35.3740   28.3330   31.7830 H   0  0  0  0  0  0  0  0  0  0  0  0
   35.9620   29.5450   29.7710 H   0  0  0  0  0  0  0  0  0  0  0  0
   39.9540   28.2190   30.0460 H   0  0  0  0  0  0  0  0  0  0  0  0
   37.4110   24.5400   32.6230 C   0  0  0  0  0  0  0  0  0  0  0  0
   38.2140   23.4390   32.3950 C   0  0  0  0  0  3  0  0  0  0  0  0
   37.6800   22.4250   31.6260 C   0  0  0  0  0  0  0  0  0  0  0  0
   38.2930   21.5370   31.4270 H   0  0  0  0  0  0  0  0  0  0  0  0
   36.4170   22.5110   31.1180 N   0  0  0  0  0  0  0  0  0  0  0  0
   35.6720   23.6180   31.3750 C   0  0  0  0  0  3  0  0  0  0  0  0
   36.1840   24.6320   32.1330 N   0  0  0  0  0  0  0  0  0  0  0  0
  1  7  1  6  0  0  0
  1  6  1  0  0  0  0
  1  2  1  0  0  0  0
  2  8  1  0  0  0  0
  2  3  1  0  0  0  0
  3  4  1  0  0  0  0
  3 10  1  0  0  0  0
  4 12  1  0  0  0  0
  4 13  1  0  0  0  0
  5 14  1  0  0  0  0
  5 15  1  0  0  0  0
  5  4  1  0  0  0  0
  6 16  1  6  0  0  0
  6  5  1  0  0  0  0
  9  2  1  0  0  0  0
 11  3  1  0  0  0  0
 17  1  1  0  0  0  0
 18 23  1  0  0  0  0
 18 17  2  0  0  0  0
 19 18  1  0  0  0  0
 20 19  2  0  0  0  0
 20 21  1  0  0  0  0
 21 22  2  0  0  0  0
 22 17  1  0  0  0  0
 24 19  1  0  0  0  0
 25 21  1  0  0  0  0
 26  6  1  0  0  0  0
 27 26  1  0  0  0  0
 28 27  2  0  0  0  0
 29 28  1  0  0  0  0
 30 31  2  0  0  0  0
 30 28  1  0  0  0  0
 31 32  1  0  0  0  0
 32 26  2  0  0  0  0
M  END
>  <minimizedAffinity>
-4.46748495

$$$$

 OpenBabel03272509293D

 32 34  0  0  1  0  0  0  0  0999 V2000
   36.9750   27.8360   32.3090 C   0  0  2  0  0  0  0  0  0  0  0  0
   36.2920   28.2980   33.5760 C   0  0  0  0  0  0  0  0  0  0  0  0
   35.2240   29.3200   33.3190 C   0  0  0  0  0  0  0  0  0  0  0  0
   35.7670   30.5150   32.5720 C   0  0  0  0  0  0  0  0  0  0  0  0
   36.5530   30.1290   31.3680 C   0  0  0  0  0  0  0  0  0  0  0  0
   36.6390   28.6480   31.1110 C   0  0  1  0  0  0  0  0  0  0  0  0
   38.0620   27.7960   32.5190 H   0  0  0  0  0  0  0  0  0  0  0  0
   37.0310   28.7810   34.2490 H   0  0  0  0  0  0  0  0  0  0  0  0
   35.8550   27.4280   34.0650 H   0  0  0  0  0  0  0  0  0  0  0  0
   34.8860   29.6770   34.3160 H   0  0  0  0  0  0  0  0  0  0  0  0
   34.4000   28.8110   32.7830 H   0  0  0  0  0  0  0  0  0  0  0  0
   36.4940   31.0080   33.2740 H   0  0  0  0  0  0  0  0  0  0  0  0
   34.9700   31.2330   32.3950 H   0  0  0  0  0  0  0  0  0  0  0  0
   35.9830   30.5370   30.4820 H   0  0  0  0  0  0  0  0  0  0  0  0
   37.5320   30.6380   31.2980 H   0  0  0  0  0  0  0  0  0  0  0  0
   35.7550   28.2530   30.5740 H   0  0  0  0  0  0  0  0  0  0  0  0
   36.5870   26.4200   32.0150 C   0  0  0  0  0  0  0  0  0  0  0  0
   35.4220   26.2460   31.2400 C   0  0  0  0  0  0  0  0  0  0  0  0
   35.0340   24.9430   30.9570 C   0  0  0  0  0  0  0  0  0  0  0  0
   35.7920   23.8950   31.4400 N   0  0  0  0  0  0  0  0  0  0  0  0
   36.9110   24.1100   32.1860 C   0  0  0  0  0  0  0  0  0  0  0  0
   37.2960   25.3580   32.4650 N   0  0  0  0  0  0  0  0  0  0  0  0
   34.7880   26.9880   30.8380 H   0  0  0  0  0  0  0  0  0  0  0  0
   34.1520   24.6990   30.3670 H   0  0  0  0  0  0  0  0  0  0  0  0
   37.4650   23.2530   32.5380 H   0  0  0  0  0  0  0  0  0  0  0  0
   37.8270   28.5160   30.1920 C   0  0  0  0  0  0  0  0  0  0  0  0
   37.6150   28.8210   28.8610 C   0  0  0  0  0  3  0  0  0  0  0  0
   38.6980   28.7030   28.0120 C   0  0  0  0  0  0  0  0  0  0  0  0
   38.5610   28.9390   26.9490 H   0  0  0  0  0  0  0  0  0  0  0  0
   39.9180   28.3050   28.4730 N   0  0  0  0  0  0  0  0  0  0  0  0
   40.0690   28.0170   29.7930 C   0  0  0  0  0  3  0  0  0  0  0  0
   39.0090   28.1280   30.6470 N   0  0  0  0  0  0  0  0  0  0  0  0
  1  7  1  1  0  0  0
  1  2  1  0  0  0  0
  2  9  1  0  0  0  0
  2  8  1  0  0  0  0
  3  2  1  0  0  0  0
  3 10  1  0  0  0  0
  4 12  1  0  0  0  0
  4  3  1  0  0  0  0
  5  4  1  0  0  0  0
  6 16  1  6  0  0  0
  6  5  1  0  0  0  0
  6  1  1  0  0  0  0
 11  3  1  0  0  0  0
 13  4  1  0  0  0  0
 14  5  1  0  0  0  0
 15  5  1  0  0  0  0
 17  1  1  0  0  0  0
 17 22  1  0  0  0  0
 18 17  2  0  0  0  0
 19 18  1  0  0  0  0
 19 20  2  0  0  0  0
 20 21  1  0  0  0  0
 21 22  2  0  0  0  0
 21 25  1  0  0  0  0
 23 18  1  0  0  0  0
 24 19  1  0  0  0  0
 26 32  1  0  0  0  0
 26  6  1  0  0  0  0
 27 26  2  0  0  0  0
 28 30  2  0  0  0  0
 28 27  1  0  0  0  0
 29 28  1  0  0  0  0
 30 31  1  0  0  0  0
 31 32  2  0  0  0  0
M  END
>  <minimizedAffinity>
-4.44730186

$$$$
