
 OpenBabel03272506183D

 32 34  0  0  0  0  0  0  0  0999 V2000
   35.5220   30.3270   49.8640 C   0  0  0  0  0  0  0  0  0  0  0  0
   36.4610   31.2530   49.1210 C   0  0  0  0  0  0  0  0  0  0  0  0
   37.9050   30.8620   49.2500 C   0  0  0  0  0  0  0  0  0  0  0  0
   38.3450   30.7160   50.6830 C   0  0  0  0  0  0  0  0  0  0  0  0
   37.3240   30.0580   51.5590 C   0  0  0  0  0  0  0  0  0  0  0  0
   36.2380   29.3710   50.7560 C   0  0  0  0  0  0  0  0  0  0  0  0
   34.7740   30.8950   50.4550 H   0  0  0  0  0  0  0  0  0  0  0  0
   36.3710   32.2770   49.5740 H   0  0  0  0  0  0  0  0  0  0  0  0
   36.2120   31.3670   48.0700 H   0  0  0  0  0  0  0  0  0  0  0  0
   38.0830   29.9050   48.6980 H   0  0  0  0  0  0  0  0  0  0  0  0
   38.5040   31.6730   48.7910 H   0  0  0  0  0  0  0  0  0  0  0  0
   38.7400   31.6720   51.0880 H   0  0  0  0  0  0  0  0  0  0  0  0
   39.2330   30.0280   50.6640 H   0  0  0  0  0  0  0  0  0  0  0  0
   36.8130   30.8890   52.1130 H   0  0  0  0  0  0  0  0  0  0  0  0
   37.7370   29.3860   52.3190 H   0  0  0  0  0  0  0  0  0  0  0  0
   36.7350   28.5400   50.1950 H   0  0  0  0  0  0  0  0  0  0  0  0
   35.5390   28.8890   51.4440 H   0  0  0  0  0  0  0  0  0  0  0  0
   34.7350   29.5180   48.8840 C   0  0  0  0  0  0  0  0  0  0  0  0
   34.1480   30.2280   47.8120 C   0  0  0  0  0  0  0  0  0  0  0  0
   33.4130   29.4950   46.8940 C   0  0  0  0  0  0  0  0  0  0  0  0
   33.2810   28.1290   47.0530 N   0  0  0  0  0  0  0  0  0  0  0  0
   33.8700   27.4880   48.1110 C   0  0  0  0  0  0  0  0  0  0  0  0
   34.5810   28.1760   49.0030 N   0  0  0  0  0  0  0  0  0  0  0  0
   34.2030   31.2650   47.6310 H   0  0  0  0  0  0  0  0  0  0  0  0
   33.7430   26.4170   48.2010 H   0  0  0  0  0  0  0  0  0  0  0  0
   32.7400   30.0570   45.7310 C   0  0  0  0  0  0  0  0  0  0  0  0
   33.3940   30.3390   44.5510 C   0  0  0  0  0  3  0  0  0  0  0  0
   32.7930   30.8720   43.4240 C   0  0  0  0  0  0  0  0  0  0  0  0
   33.3300   31.0820   42.5140 H   0  0  0  0  0  0  0  0  0  0  0  0
   31.4560   31.1400   43.4810 N   0  0  0  0  0  0  0  0  0  0  0  0
   30.8060   30.8620   44.6480 C   0  0  0  0  0  3  0  0  0  0  0  0
   31.4270   30.3440   45.7180 N   0  0  0  0  0  0  0  0  0  0  0  0
  1  7  1  0  0  0  0
  1  6  1  0  0  0  0
  2  3  1  0  0  0  0
  2  8  1  0  0  0  0
  2  1  1  0  0  0  0
  3  4  1  0  0  0  0
  4 12  1  0  0  0  0
  4  5  1  0  0  0  0
  5 14  1  0  0  0  0
  5 15  1  0  0  0  0
  6 17  1  0  0  0  0
  6  5  1  0  0  0  0
  9  2  1  0  0  0  0
 10  3  1  0  0  0  0
 11  3  1  0  0  0  0
 13  4  1  0  0  0  0
 16  6  1  0  0  0  0
 18 23  1  0  0  0  0
 18  1  1  0  0  0  0
 19 18  2  0  0  0  0
 20 21  2  0  0  0  0
 20 19  1  0  0  0  0
 21 22  1  0  0  0  0
 22 25  1  0  0  0  0
 22 23  2  0  0  0  0
 24 19  1  0  0  0  0
 26 20  1  0  0  0  0
 27 26  2  0  0  0  0
 28 30  2  0  0  0  0
 28 27  1  0  0  0  0
 29 28  1  0  0  0  0
 30 31  1  0  0  0  0
 31 32  2  0  0  0  0
 32 26  1  0  0  0  0
M  END
>  <minimizedAffinity>
-5.23931551

>  <minimizedRMSD>
0.362263769

$$$$
