
 OpenBabel03272506483D

 40 43  0  0  1  0  0  0  0  0999 V2000
   32.1790   28.4720   47.4740 C   0  0  2  0  0  0  0  0  0  0  0  0
   33.4360   28.2690   48.2680 C   0  0  1  0  0  0  0  0  0  0  0  0
   33.8090   26.9650   48.1370 O   0  0  0  0  0  0  0  0  0  0  0  0
   33.0720   26.3730   47.1170 C   0  0  0  0  0  0  0  0  0  0  0  0
   32.4700   27.4900   46.2990 C   0  0  1  0  0  0  0  0  0  0  0  0
   31.2610   28.1350   47.9500 H   0  0  0  0  0  0  0  0  0  0  0  0
   33.2890   28.5620   49.3310 H   0  0  0  0  0  0  0  0  0  0  0  0
   32.3730   25.7010   47.5970 H   0  0  0  0  0  0  0  0  0  0  0  0
   33.7830   25.7730   46.4650 H   0  0  0  0  0  0  0  0  0  0  0  0
   33.2070   27.9580   45.6530 H   0  0  0  0  0  0  0  0  0  0  0  0
   32.1170   29.7870   46.9710 O   0  0  0  0  0  0  0  0  0  0  0  0
   32.5350   30.4050   47.6210 H   0  0  0  0  0  0  0  0  0  0  0  0
   34.7470   29.3070   47.5040 S   0  0  0  0  0  0  0  0  0  0  0  0
   37.1340   29.2940   50.6660 C   0  0  0  0  0  0  0  0  0  0  0  0
   37.6020   30.6020   50.7760 C   0  0  0  0  0  0  0  0  0  0  0  0
   37.1580   31.5350   49.8230 C   0  0  0  0  0  0  0  0  0  0  0  0
   36.3010   31.1160   48.8530 N   0  0  0  0  0  0  0  0  0  0  0  0
   35.8740   29.8360   48.7880 C   0  0  0  0  0  0  0  0  0  0  0  0
   36.2840   28.9080   49.6920 N   0  0  0  0  0  0  0  0  0  0  0  0
   37.5080   28.6200   51.4250 H   0  0  0  0  0  0  0  0  0  0  0  0
   38.2830   30.8900   51.5630 H   0  0  0  0  0  0  0  0  0  0  0  0
   37.4910   32.5630   49.8630 H   0  0  0  0  0  0  0  0  0  0  0  0
   31.3060   27.0490   45.7210 O   0  0  0  0  0  0  0  0  0  0  0  0
   30.0200   29.3380   44.3930 Cl  0  0  0  0  0  0  0  0  0  0  0  0
   29.3750   28.3030   45.6470 C   0  0  0  0  0  0  0  0  0  0  0  0
   30.0760   27.2470   46.1830 C   0  0  0  0  0  0  0  0  0  0  0  0
   29.4460   26.4720   47.1590 C   0  0  0  0  0  0  0  0  0  0  0  0
   28.1610   26.7640   47.5670 C   0  0  0  0  0  0  0  0  0  0  0  0
   27.4500   27.8250   47.0320 C   0  0  0  0  0  0  0  0  0  0  0  0
   28.0720   28.5920   46.0660 C   0  0  0  0  0  0  0  0  0  0  0  0
   29.9060   25.6240   47.6350 H   0  0  0  0  0  0  0  0  0  0  0  0
   27.6750   26.1650   48.3220 H   0  0  0  0  0  0  0  0  0  0  0  0
   26.4510   28.0020   47.3910 H   0  0  0  0  0  0  0  0  0  0  0  0
   27.3760   29.7220   45.4650 C   0  0  0  0  0  0  0  0  0  0  0  0
   26.7100   29.6570   44.2690 C   0  0  0  0  0  3  0  0  0  0  0  0
   26.0450   30.7250   43.6890 C   0  0  0  0  0  0  0  0  0  0  0  0
   25.5320   30.6400   42.7480 H   0  0  0  0  0  0  0  0  0  0  0  0
   26.0410   31.9150   44.3260 N   0  0  0  0  0  0  0  0  0  0  0  0
   26.6880   32.0010   45.5030 C   0  0  0  0  0  3  0  0  0  0  0  0
   27.3250   30.9450   46.0390 N   0  0  0  0  0  0  0  0  0  0  0  0
  1  6  1  1  0  0  0
  1  2  1  0  0  0  0
  2  7  1  1  0  0  0
  3  2  1  0  0  0  0
  4  8  1  0  0  0  0
  4  3  1  0  0  0  0
  5 10  1  6  0  0  0
  5  4  1  0  0  0  0
  5  1  1  0  0  0  0
  9  4  1  0  0  0  0
 11  1  1  0  0  0  0
 11 12  1  0  0  0  0
 13  2  1  0  0  0  0
 13 18  1  0  0  0  0
 14 15  1  0  0  0  0
 14 20  1  0  0  0  0
 15 21  1  0  0  0  0
 16 22  1  0  0  0  0
 16 15  2  0  0  0  0
 17 16  1  0  0  0  0
 18 17  2  0  0  0  0
 18 19  1  0  0  0  0
 19 14  2  0  0  0  0
 23 26  1  0  0  0  0
 23  5  1  0  0  0  0
 24 25  1  0  0  0  0
 25 30  2  0  0  0  0
 25 26  1  0  0  0  0
 26 27  2  0  0  0  0
 27 28  1  0  0  0  0
 27 31  1  0  0  0  0
 28 32  1  0  0  0  0
 29 33  1  0  0  0  0
 29 28  2  0  0  0  0
 30 29  1  0  0  0  0
 34 40  1  0  0  0  0
 34 30  1  0  0  0  0
 35 34  2  0  0  0  0
 36 35  1  0  0  0  0
 36 38  2  0  0  0  0
 37 36  1  0  0  0  0
 38 39  1  0  0  0  0
 39 40  2  0  0  0  0
M  END
>  <minimizedAffinity>
-5.40070343

>  <minimizedRMSD>
0.314387441

$$$$
