REMARK  Name = 
REMARK  2 active torsions:
REMARK  status: ('A' for Active; 'I' for Inactive)
REMARK    1  A    between atoms: C_1  and  C_7
REMARK    2  A    between atoms: C_3  and  C_26
REMARK                            x       y       z     vdW  Elec       q    Type
REMARK                         _______ _______ _______ _____ _____    ______ ____
ROOT
ATOM      1  C   UNL     1      35.517  30.304  49.750  0.00  0.00    +0.000 C 
ATOM      2  C   UNL     1      36.470  31.181  48.966  0.00  0.00    +0.000 C 
ATOM      3  C   UNL     1      37.911  30.804  49.151  0.00  0.00    +0.000 C 
ATOM      4  C   UNL     1      38.322  30.756  50.599  0.00  0.00    +0.000 C 
ATOM      5  C   UNL     1      37.284  30.155  51.496  0.00  0.00    +0.000 C 
ATOM      6  C   UNL     1      36.216  29.412  50.719  0.00  0.00    +0.000 C 
ATOM      7  H   UNL     1      34.756  30.908  50.286  0.00  0.00    +0.000 HD
ATOM      8  H   UNL     1      36.368  32.233  49.347  0.00  0.00    +0.000 HD
ATOM      9  H   UNL     1      36.242  31.223  47.905  0.00  0.00    +0.000 HD
ATOM     10  H   UNL     1      38.102  29.812  48.668  0.00  0.00    +0.000 HD
ATOM     11  H   UNL     1      38.518  31.584  48.651  0.00  0.00    +0.000 HD
ATOM     12  H   UNL     1      38.707  31.738  50.947  0.00  0.00    +0.000 HD
ATOM     13  H   UNL     1      39.211  30.071  50.645  0.00  0.00    +0.000 HD
ATOM     14  H   UNL     1      36.760  31.020  51.983  0.00  0.00    +0.000 HD
ATOM     15  H   UNL     1      37.682  29.537  52.308  0.00  0.00    +0.000 HD
ATOM     16  H   UNL     1      36.726  28.547  50.226  0.00  0.00    +0.000 HD
ATOM     17  H   UNL     1      35.504  28.976  51.424  0.00  0.00    +0.000 HD
ENDROOT
BRANCH   1  18
ATOM     18  C   UNL     1      34.752  29.428  48.811  0.00  0.00    +0.000 A 
ATOM     19  C   UNL     1      34.228  30.053  47.657  0.00  0.00    +0.000 A 
ATOM     20  C   UNL     1      33.514  29.258  46.775  0.00  0.00    +0.000 A 
ATOM     21  N   UNL     1      33.342  27.914  47.047  0.00  0.00    +0.000 NA
ATOM     22  C   UNL     1      33.870  27.357  48.181  0.00  0.00    +0.000 A 
ATOM     23  N   UNL     1      34.560  28.106  49.040  0.00  0.00    +0.000 NA
ATOM     24  H   UNL     1      34.315  31.069  47.389  0.00  0.00    +0.000 HD
ATOM     25  H   UNL     1      33.713  26.301  48.358  0.00  0.00    +0.000 HD
BRANCH  20  26
ATOM     26  C   UNL     1      32.904  29.729  45.539  0.00  0.00    +0.000 A 
ATOM     27  C   UNL     1      33.005  29.047  44.346  0.00  0.00    +0.000 A 
ATOM     28  C   UNL     1      32.442  29.459  43.152  0.00  0.00    +0.000 A 
ATOM     29  H   UNL     1      32.537  28.904  42.234  0.00  0.00    +0.000 HD
ATOM     30  N   UNL     1      31.734  30.626  43.149  0.00  0.00    +0.000 NA
ATOM     31  C   UNL     1      31.633  31.305  44.328  0.00  0.00    +0.000 A 
ATOM     32  N   UNL     1      32.195  30.868  45.466  0.00  0.00    +0.000 NA
ENDBRANCH  20  26
ENDBRANCH   1  18
TORSDOF 2
