REMARK  Name = 
REMARK  2 active torsions:
REMARK  status: ('A' for Active; 'I' for Inactive)
REMARK    1  A    between atoms: C_5  and  C_9
REMARK    2  A    between atoms: C_11  and  C_20
REMARK                            x       y       z     vdW  Elec       q    Type
REMARK                         _______ _______ _______ _____ _____    ______ ____
ROOT
ATOM      1 BR   UNL     1      37.275  29.352  51.051  0.00  0.00    +0.000 Br
ATOM      2  C   UNL     1      35.960  29.308  49.671  0.00  0.00    +0.000 A 
ATOM      3  C   UNL     1      36.005  30.214  48.614  0.00  0.00    +0.000 A 
ATOM      4  C   UNL     1      35.023  30.125  47.656  0.00  0.00    +0.000 A 
ATOM      5  C   UNL     1      34.007  29.189  47.695  0.00  0.00    +0.000 A 
ATOM      6  C   UNL     1      33.989  28.312  48.747  0.00  0.00    +0.000 A 
ATOM      7  C   UNL     1      34.962  28.381  49.720  0.00  0.00    +0.000 A 
ATOM      8  H   UNL     1      35.072  30.835  46.842  0.00  0.00    +0.000 HD
ATOM      9  H   UNL     1      33.242  27.541  48.877  0.00  0.00    +0.000 HD
ATOM     10  H   UNL     1      34.952  27.687  50.555  0.00  0.00    +0.000 HD
ENDROOT
BRANCH   3  15
ATOM     11  C   UNL     1      37.971  33.175  49.437  0.00  0.00    +0.000 A 
ATOM     12  C   UNL     1      39.013  33.156  48.459  0.00  0.00    +0.000 A 
ATOM     13  C   UNL     1      39.015  32.122  47.537  0.00  0.00    +0.000 A 
ATOM     14  N   UNL     1      38.029  31.176  47.604  0.00  0.00    +0.000 NA
ATOM     15  C   UNL     1      37.056  31.218  48.538  0.00  0.00    +0.000 A 
ATOM     16  N   UNL     1      37.033  32.224  49.455  0.00  0.00    +0.000 NA
ATOM     17  H   UNL     1      37.898  33.941  50.187  0.00  0.00    +0.000 HD
ATOM     18  H   UNL     1      39.746  33.940  48.481  0.00  0.00    +0.000 HD
ATOM     19  H   UNL     1      39.793  32.087  46.788  0.00  0.00    +0.000 HD
ENDBRANCH   3  15
BRANCH   5  20
ATOM     20  C   UNL     1      32.968  29.093  46.683  0.00  0.00    +0.000 A 
ATOM     21  C   UNL     1      32.486  30.156  45.948  0.00  0.00    +0.000 A 
ATOM     22  C   UNL     1      31.492  30.016  44.992  0.00  0.00    +0.000 A 
ATOM     23  H   UNL     1      31.178  30.906  44.466  0.00  0.00    +0.000 HD
ATOM     24  N   UNL     1      30.966  28.808  44.760  0.00  0.00    +0.000 NA
ATOM     25  C   UNL     1      31.428  27.761  45.471  0.00  0.00    +0.000 A 
ATOM     26  N   UNL     1      32.388  27.916  46.389  0.00  0.00    +0.000 NA
ENDBRANCH   5  20
TORSDOF 2
