
 OpenBabel03262523403D

 30 32  0  0  1  0  0  0  0  0999 V2000
   37.2420   29.3020   50.4000 C   0  0  0  0  0  0  0  0  0  0  0  0
   36.5370   29.1950   49.1970 C   0  0  0  0  0  0  0  0  0  0  0  0
   36.0820   30.3450   48.5520 C   0  0  0  0  0  0  0  0  0  0  0  0
   36.3580   31.5290   49.1470 N   0  0  0  0  0  0  0  0  0  0  0  0
   37.0370   31.6410   50.3060 C   0  0  0  0  0  0  0  0  0  0  0  0
   37.4780   30.5180   50.9290 N   0  0  0  0  0  0  0  0  0  0  0  0
   35.3660   30.2400   47.3330 N   0  0  0  0  0  0  0  0  0  0  0  0
   33.9490   30.4870   47.3990 C   0  0  0  0  0  0  0  0  0  0  0  0
   33.2550   30.4910   46.0810 C   0  0  0  0  0  0  0  0  0  0  0  0
   34.0310   30.4200   44.9220 N   0  0  0  0  0  0  0  0  0  0  0  0
   35.2470   29.7030   44.9330 C   0  0  0  0  0  0  0  0  0  0  0  0
   36.0990   29.9010   46.1440 C   0  0  1  0  0  0  0  0  0  0  0  0
   37.6080   28.4270   50.9240 H   0  0  0  0  0  0  0  0  0  0  0  0
   36.3680   28.2160   48.8080 H   0  0  0  0  0  0  0  0  0  0  0  0
   37.2230   32.6310   50.7260 H   0  0  0  0  0  0  0  0  0  0  0  0
   33.8300   31.4430   47.9550 H   0  0  0  0  0  0  0  0  0  0  0  0
   33.5280   29.7100   48.0970 H   0  0  0  0  0  0  0  0  0  0  0  0
   32.5140   29.6610   46.0820 H   0  0  0  0  0  0  0  0  0  0  0  0
   32.6290   31.4180   46.0340 H   0  0  0  0  0  0  0  0  0  0  0  0
   33.4510   30.0370   44.1320 H   0  0  0  0  0  0  0  0  0  0  0  0
   34.9940   28.6220   44.7420 H   0  0  0  0  0  0  0  0  0  0  0  0
   35.8470   30.0060   44.0480 H   0  0  0  0  0  0  0  0  0  0  0  0
   36.5400   28.8830   46.3630 H   0  0  0  0  0  0  0  0  0  0  0  0
   37.2700   30.7850   45.9040 C   0  0  0  0  0  0  0  0  0  0  0  0
   38.4960   30.5600   46.5180 C   0  0  0  0  0  0  0  0  0  0  0  0
   39.6230   31.3360   46.3450 C   0  0  0  0  0  0  0  0  0  0  0  0
   40.5300   31.0750   46.8710 H   0  0  0  0  0  0  0  0  0  0  0  0
   39.4870   32.3940   45.4980 N   0  0  0  0  0  0  0  0  0  0  0  0
   38.2930   32.6270   44.8880 C   0  0  0  0  0  0  0  0  0  0  0  0
   37.2450   31.8410   45.0990 N   0  0  0  0  0  0  0  0  0  0  0  0
  1 13  1  0  0  0  0
  1  6  1  0  0  0  0
  2  1  2  0  0  0  0
  3  4  2  0  0  0  0
  3  2  1  0  0  0  0
  4  5  1  0  0  0  0
  5 15  1  0  0  0  0
  5  6  2  0  0  0  0
  7  8  1  0  0  0  0
  7  3  1  0  0  0  0
  8 16  1  0  0  0  0
  8 17  1  0  0  0  0
  9 18  1  0  0  0  0
  9  8  1  0  0  0  0
 10 11  1  0  0  0  0
 10  9  1  0  0  0  0
 11 12  1  0  0  0  0
 12 23  1  1  0  0  0
 12  7  1  0  0  0  0
 14  2  1  0  0  0  0
 19  9  1  0  0  0  0
 20 10  1  0  0  0  0
 21 11  1  0  0  0  0
 22 11  1  0  0  0  0
 24 12  1  0  0  0  0
 24 25  1  0  0  0  0
 26 25  2  0  0  0  0
 26 27  1  0  0  0  0
 28 26  1  0  0  0  0
 29 30  1  0  0  0  0
 29 28  2  0  0  0  0
 30 24  2  0  0  0  0
M  END
>  <minimizedAffinity>
-4.75042582

>  <minimizedRMSD>
5.07575512

$$$$
