
 OpenBabel03262523373D

 32 34  0  0  1  0  0  0  0  0999 V2000
   37.7610   26.2520   33.2700 C   0  0  2  0  0  0  0  0  0  0  0  0
   38.4290   25.2320   34.1660 C   0  0  0  0  0  0  0  0  0  0  0  0
   37.9850   25.3480   35.5950 C   0  0  2  0  0  0  0  0  0  0  0  0
   38.1690   26.7320   36.1610 C   0  0  0  0  0  0  0  0  0  0  0  0
   37.7920   27.8240   35.2080 C   0  0  0  0  0  0  0  0  0  0  0  0
   37.0150   27.3060   34.0110 C   0  0  0  0  0  0  0  0  0  0  0  0
   38.5040   26.7420   32.6000 H   0  0  0  0  0  0  0  0  0  0  0  0
   39.5120   25.4820   34.1620 H   0  0  0  0  0  0  0  0  0  0  0  0
   38.2570   24.1850   33.8620 H   0  0  0  0  0  0  0  0  0  0  0  0
   36.8920   25.0720   35.6030 H   0  0  0  0  0  0  0  0  0  0  0  0
   39.2220   26.8100   36.5150 H   0  0  0  0  0  0  0  0  0  0  0  0
   37.5060   26.8180   37.0550 H   0  0  0  0  0  0  0  0  0  0  0  0
   38.7000   28.3660   34.8340 H   0  0  0  0  0  0  0  0  0  0  0  0
   37.1400   28.5990   35.6740 H   0  0  0  0  0  0  0  0  0  0  0  0
   36.8320   28.1740   33.3730 H   0  0  0  0  0  0  0  0  0  0  0  0
   36.0590   26.8570   34.4030 H   0  0  0  0  0  0  0  0  0  0  0  0
   36.8070   25.5720   32.3520 C   0  0  0  0  0  0  0  0  0  0  0  0
   36.9590   24.1810   32.1910 C   0  0  0  0  0  0  0  0  0  0  0  0
   36.0780   23.5390   31.3290 C   0  0  0  0  0  0  0  0  0  0  0  0
   35.1080   24.2720   30.6760 N   0  0  0  0  0  0  0  0  0  0  0  0
   34.9980   25.6240   30.8610 C   0  0  0  0  0  0  0  0  0  0  0  0
   35.8450   26.2470   31.6920 N   0  0  0  0  0  0  0  0  0  0  0  0
   37.6850   23.5630   32.6630 H   0  0  0  0  0  0  0  0  0  0  0  0
   36.0840   22.4910   31.1190 H   0  0  0  0  0  0  0  0  0  0  0  0
   34.2280   26.1700   30.3360 H   0  0  0  0  0  0  0  0  0  0  0  0
   38.7110   24.3940   36.4320 C   0  0  0  0  0  0  0  0  0  0  0  0
   38.3410   24.0910   37.7260 C   0  0  0  0  0  3  0  0  0  0  0  0
   39.0420   23.1830   38.5060 C   0  0  0  0  0  0  0  0  0  0  0  0
   38.7790   22.9230   39.5220 H   0  0  0  0  0  0  0  0  0  0  0  0
   40.1370   22.5570   37.9970 N   0  0  0  0  0  0  0  0  0  0  0  0
   40.4860   22.8630   36.7360 C   0  0  0  0  0  3  0  0  0  0  0  0
   39.8110   23.7420   35.9750 N   0  0  0  0  0  0  0  0  0  0  0  0
  1  7  1  6  0  0  0
  1  6  1  0  0  0  0
  1  2  1  0  0  0  0
  2  3  1  0  0  0  0
  3 10  1  1  0  0  0
  3  4  1  0  0  0  0
  3 26  1  0  0  0  0
  4 11  1  0  0  0  0
  4 12  1  0  0  0  0
  5 14  1  0  0  0  0
  5  4  1  0  0  0  0
  6 16  1  0  0  0  0
  6  5  1  0  0  0  0
  8  2  1  0  0  0  0
  9  2  1  0  0  0  0
 13  5  1  0  0  0  0
 15  6  1  0  0  0  0
 17  1  1  0  0  0  0
 18 17  1  0  0  0  0
 18 23  1  0  0  0  0
 19 18  2  0  0  0  0
 20 21  2  0  0  0  0
 20 19  1  0  0  0  0
 21 22  1  0  0  0  0
 22 17  2  0  0  0  0
 24 19  1  0  0  0  0
 25 21  1  0  0  0  0
 26 27  1  0  0  0  0
 27 28  2  0  0  0  0
 28 29  1  0  0  0  0
 30 28  1  0  0  0  0
 31 30  2  0  0  0  0
 32 26  2  0  0  0  0
 32 31  1  0  0  0  0
M  END
>  <minimizedAffinity>
-5.23130894

$$$$

 OpenBabel03262523373D

 32 34  0  0  1  0  0  0  0  0999 V2000
   39.2830   22.4390   36.6430 C   0  0  2  0  0  0  0  0  0  0  0  0
   38.6870   23.3640   35.6040 C   0  0  0  0  0  0  0  0  0  0  0  0
   38.6140   24.7860   36.0800 C   0  0  2  0  0  0  0  0  0  0  0  0
   37.8790   24.9360   37.3860 C   0  0  0  0  0  0  0  0  0  0  0  0
   38.2080   23.8680   38.3830 C   0  0  0  0  0  0  0  0  0  0  0  0
   39.4310   23.0620   37.9870 C   0  0  0  0  0  0  0  0  0  0  0  0
   38.6780   21.5090   36.7430 H   0  0  0  0  0  0  0  0  0  0  0  0
   37.6350   23.0340   35.4660 H   0  0  0  0  0  0  0  0  0  0  0  0
   39.2340   23.3760   34.6460 H   0  0  0  0  0  0  0  0  0  0  0  0
   39.6810   25.1280   36.1980 H   0  0  0  0  0  0  0  0  0  0  0  0
   36.7920   24.9910   37.1530 H   0  0  0  0  0  0  0  0  0  0  0  0
   38.1790   25.9160   37.8280 H   0  0  0  0  0  0  0  0  0  0  0  0
   37.3460   23.1630   38.5200 H   0  0  0  0  0  0  0  0  0  0  0  0
   38.4360   24.2770   39.3960 H   0  0  0  0  0  0  0  0  0  0  0  0
   39.5500   22.2960   38.7590 H   0  0  0  0  0  0  0  0  0  0  0  0
   40.3050   23.7730   37.9570 H   0  0  0  0  0  0  0  0  0  0  0  0
   40.6260   21.9760   36.1990 C   0  0  0  0  0  0  0  0  0  0  0  0
   41.5110   21.5340   37.2000 C   0  0  0  0  0  0  0  0  0  0  0  0
   42.7700   21.1080   36.7960 C   0  0  0  0  0  0  0  0  0  0  0  0
   43.1010   21.1340   35.4560 N   0  0  0  0  0  0  0  0  0  0  0  0
   42.2080   21.5740   34.5160 C   0  0  0  0  0  0  0  0  0  0  0  0
   40.9920   21.9860   34.9010 N   0  0  0  0  0  0  0  0  0  0  0  0
   41.3170   21.4910   38.2460 H   0  0  0  0  0  0  0  0  0  0  0  0
   43.5330   20.7490   37.4530 H   0  0  0  0  0  0  0  0  0  0  0  0
   42.4970   21.5830   33.4750 H   0  0  0  0  0  0  0  0  0  0  0  0
   37.9660   25.6250   35.0730 C   0  0  0  0  0  0  0  0  0  0  0  0
   37.5530   26.9190   35.3210 C   0  0  0  0  0  3  0  0  0  0  0  0
   36.9390   27.7010   34.3530 C   0  0  0  0  0  0  0  0  0  0  0  0
   36.6050   28.7170   34.5150 H   0  0  0  0  0  0  0  0  0  0  0  0
   36.7260   27.1950   33.1090 N   0  0  0  0  0  0  0  0  0  0  0  0
   37.1320   25.9340   32.8820 C   0  0  0  0  0  3  0  0  0  0  0  0
   37.7280   25.1710   33.8160 N   0  0  0  0  0  0  0  0  0  0  0  0
  1  7  1  1  0  0  0
  1  6  1  0  0  0  0
  2  3  1  0  0  0  0
  2  1  1  0  0  0  0
  3 10  1  1  0  0  0
  3  4  1  0  0  0  0
  4 12  1  0  0  0  0
  4  5  1  0  0  0  0
  5 13  1  0  0  0  0
  5 14  1  0  0  0  0
  6  5  1  0  0  0  0
  6 15  1  0  0  0  0
  8  2  1  0  0  0  0
  9  2  1  0  0  0  0
 11  4  1  0  0  0  0
 16  6  1  0  0  0  0
 17  1  1  0  0  0  0
 17 18  1  0  0  0  0
 18 23  1  0  0  0  0
 19 18  2  0  0  0  0
 19 24  1  0  0  0  0
 20 19  1  0  0  0  0
 21 22  1  0  0  0  0
 21 20  2  0  0  0  0
 22 17  2  0  0  0  0
 25 21  1  0  0  0  0
 26 27  1  0  0  0  0
 26  3  1  0  0  0  0
 28 29  1  0  0  0  0
 28 27  2  0  0  0  0
 30 28  1  0  0  0  0
 31 30  2  0  0  0  0
 31 32  1  0  0  0  0
 32 26  2  0  0  0  0
M  END
>  <minimizedAffinity>
-4.96047592

$$$$

 OpenBabel03262523373D

 32 34  0  0  1  0  0  0  0  0999 V2000
   37.4670   26.9460   33.2230 C   0  0  2  0  0  0  0  0  0  0  0  0
   38.9680   26.7600   33.1630 C   0  0  0  0  0  0  0  0  0  0  0  0
   39.5430   26.3270   34.4800 C   0  0  2  0  0  0  0  0  0  0  0  0
   39.1820   27.2480   35.6160 C   0  0  0  0  0  0  0  0  0  0  0  0
   37.7590   27.7140   35.5800 C   0  0  0  0  0  0  0  0  0  0  0  0
   36.9130   26.9150   34.6050 C   0  0  0  0  0  0  0  0  0  0  0  0
   37.1630   27.9000   32.7360 H   0  0  0  0  0  0  0  0  0  0  0  0
   39.3940   27.7660   32.9600 H   0  0  0  0  0  0  0  0  0  0  0  0
   39.2990   26.0240   32.4120 H   0  0  0  0  0  0  0  0  0  0  0  0
   39.1290   25.2970   34.6740 H   0  0  0  0  0  0  0  0  0  0  0  0
   39.9130   28.0890   35.6090 H   0  0  0  0  0  0  0  0  0  0  0  0
   39.3300   26.6820   36.5660 H   0  0  0  0  0  0  0  0  0  0  0  0
   37.6950   28.7980   35.3010 H   0  0  0  0  0  0  0  0  0  0  0  0
   37.2480   27.6180   36.5670 H   0  0  0  0  0  0  0  0  0  0  0  0
   35.9160   27.3640   34.6340 H   0  0  0  0  0  0  0  0  0  0  0  0
   36.9080   25.8470   34.9640 H   0  0  0  0  0  0  0  0  0  0  0  0
   36.7920   25.8800   32.4330 C   0  0  0  0  0  0  0  0  0  0  0  0
   35.7820   26.2900   31.5430 C   0  0  0  0  0  0  0  0  0  0  0  0
   35.1410   25.3010   30.8070 C   0  0  0  0  0  0  0  0  0  0  0  0
   35.5090   23.9820   30.9720 N   0  0  0  0  0  0  0  0  0  0  0  0
   36.4980   23.6280   31.8500 C   0  0  0  0  0  0  0  0  0  0  0  0
   37.1200   24.5790   32.5620 N   0  0  0  0  0  0  0  0  0  0  0  0
   35.4510   27.2880   31.3730 H   0  0  0  0  0  0  0  0  0  0  0  0
   34.3590   25.4770   30.0980 H   0  0  0  0  0  0  0  0  0  0  0  0
   36.7650   22.5870   31.9570 H   0  0  0  0  0  0  0  0  0  0  0  0
   40.9990   26.2330   34.3910 C   0  0  0  0  0  0  0  0  0  0  0  0
   41.7750   27.1460   33.7050 C   0  0  0  0  0  3  0  0  0  0  0  0
   43.1560   27.0400   33.6320 C   0  0  0  0  0  0  0  0  0  0  0  0
   43.7920   27.7380   33.1030 H   0  0  0  0  0  0  0  0  0  0  0  0
   43.7910   26.0090   34.2500 N   0  0  0  0  0  0  0  0  0  0  0  0
   43.0230   25.1280   34.9140 C   0  0  0  0  0  3  0  0  0  0  0  0
   41.6840   25.2240   34.9890 N   0  0  0  0  0  0  0  0  0  0  0  0
  1  7  1  6  0  0  0
  1  6  1  0  0  0  0
  2  1  1  0  0  0  0
  2  3  1  0  0  0  0
  3 10  1  1  0  0  0
  3  4  1  0  0  0  0
  4 12  1  0  0  0  0
  5  4  1  0  0  0  0
  5 14  1  0  0  0  0
  6 15  1  0  0  0  0
  6 16  1  0  0  0  0
  6  5  1  0  0  0  0
  8  2  1  0  0  0  0
  9  2  1  0  0  0  0
 11  4  1  0  0  0  0
 13  5  1  0  0  0  0
 17 22  1  0  0  0  0
 17  1  1  0  0  0  0
 18 17  2  0  0  0  0
 19 20  2  0  0  0  0
 19 18  1  0  0  0  0
 20 21  1  0  0  0  0
 21 25  1  0  0  0  0
 21 22  2  0  0  0  0
 23 18  1  0  0  0  0
 24 19  1  0  0  0  0
 26  3  1  0  0  0  0
 26 32  1  0  0  0  0
 27 26  2  0  0  0  0
 28 27  1  0  0  0  0
 28 30  2  0  0  0  0
 29 28  1  0  0  0  0
 30 31  1  0  0  0  0
 31 32  2  0  0  0  0
M  END
>  <minimizedAffinity>
-4.9391098

$$$$

 OpenBabel03262523373D

 32 34  0  0  1  0  0  0  0  0999 V2000
   38.7210   26.0950   35.5990 C   0  0  2  0  0  0  0  0  0  0  0  0
   37.5840   25.8650   34.6280 C   0  0  0  0  0  0  0  0  0  0  0  0
   38.0690   25.5650   33.2400 C   0  0  2  0  0  0  0  0  0  0  0  0
   39.0040   26.6150   32.7000 C   0  0  0  0  0  0  0  0  0  0  0  0
   39.9940   27.1100   33.7080 C   0  0  0  0  0  0  0  0  0  0  0  0
   40.0520   26.2310   34.9440 C   0  0  0  0  0  0  0  0  0  0  0  0
   38.5350   26.9970   36.2250 H   0  0  0  0  0  0  0  0  0  0  0  0
   37.0390   26.8300   34.5590 H   0  0  0  0  0  0  0  0  0  0  0  0
   36.9080   25.0410   34.9150 H   0  0  0  0  0  0  0  0  0  0  0  0
   38.6020   24.5740   33.3050 H   0  0  0  0  0  0  0  0  0  0  0  0
   38.3780   27.4310   32.2710 H   0  0  0  0  0  0  0  0  0  0  0  0
   39.5770   26.1540   31.8600 H   0  0  0  0  0  0  0  0  0  0  0  0
   39.7560   28.1590   34.0280 H   0  0  0  0  0  0  0  0  0  0  0  0
   41.0370   27.1380   33.3130 H   0  0  0  0  0  0  0  0  0  0  0  0
   40.7700   26.7060   35.6180 H   0  0  0  0  0  0  0  0  0  0  0  0
   40.3920   25.2100   34.6120 H   0  0  0  0  0  0  0  0  0  0  0  0
   38.7980   24.9660   36.5660 C   0  0  0  0  0  0  0  0  0  0  0  0
   38.0050   25.0640   37.7250 C   0  0  0  0  0  0  0  0  0  0  0  0
   38.0760   24.0190   38.6370 C   0  0  0  0  0  0  0  0  0  0  0  0
   38.9040   22.9460   38.3810 N   0  0  0  0  0  0  0  0  0  0  0  0
   39.6600   22.8920   37.2410 C   0  0  0  0  0  0  0  0  0  0  0  0
   39.5940   23.8980   36.3570 N   0  0  0  0  0  0  0  0  0  0  0  0
   37.3500   25.8640   37.9800 H   0  0  0  0  0  0  0  0  0  0  0  0
   37.5270   23.9700   39.5540 H   0  0  0  0  0  0  0  0  0  0  0  0
   40.2990   22.0390   37.0680 H   0  0  0  0  0  0  0  0  0  0  0  0
   36.9370   25.4240   32.3250 C   0  0  0  0  0  0  0  0  0  0  0  0
   36.4760   24.2040   31.8760 C   0  0  0  0  0  3  0  0  0  0  0  0
   35.4000   24.0900   31.0080 C   0  0  0  0  0  0  0  0  0  0  0  0
   35.0150   23.1490   30.6370 H   0  0  0  0  0  0  0  0  0  0  0  0
   34.7610   25.2080   30.5700 N   0  0  0  0  0  0  0  0  0  0  0  0
   35.2210   26.3890   31.0160 C   0  0  0  0  0  3  0  0  0  0  0  0
   36.2640   26.5070   31.8570 N   0  0  0  0  0  0  0  0  0  0  0  0
  1  7  1  1  0  0  0
  1 17  1  0  0  0  0
  2  9  1  0  0  0  0
  2  1  1  0  0  0  0
  3 10  1  1  0  0  0
  3  2  1  0  0  0  0
  4  3  1  0  0  0  0
  4  5  1  0  0  0  0
  5 13  1  0  0  0  0
  5  6  1  0  0  0  0
  6  1  1  0  0  0  0
  6 15  1  0  0  0  0
  8  2  1  0  0  0  0
 11  4  1  0  0  0  0
 12  4  1  0  0  0  0
 14  5  1  0  0  0  0
 16  6  1  0  0  0  0
 17 18  1  0  0  0  0
 18 23  1  0  0  0  0
 18 19  2  0  0  0  0
 19 24  1  0  0  0  0
 20 19  1  0  0  0  0
 21 20  2  0  0  0  0
 22 17  2  0  0  0  0
 22 21  1  0  0  0  0
 25 21  1  0  0  0  0
 26  3  1  0  0  0  0
 27 26  1  0  0  0  0
 28 27  2  0  0  0  0
 29 28  1  0  0  0  0
 30 28  1  0  0  0  0
 30 31  2  0  0  0  0
 31 32  1  0  0  0  0
 32 26  2  0  0  0  0
M  END
>  <minimizedAffinity>
-4.76100492

$$$$

 OpenBabel03262523373D

 32 34  0  0  1  0  0  0  0  0999 V2000
   37.0520   27.8870   31.9960 C   0  0  2  0  0  0  0  0  0  0  0  0
   36.4350   28.5020   33.2340 C   0  0  0  0  0  0  0  0  0  0  0  0
   35.3830   29.5190   32.9020 C   0  0  2  0  0  0  0  0  0  0  0  0
   35.8760   30.6020   31.9780 C   0  0  0  0  0  0  0  0  0  0  0  0
   36.7480   30.0940   30.8720 C   0  0  0  0  0  0  0  0  0  0  0  0
   36.6850   28.5830   30.7330 C   0  0  0  0  0  0  0  0  0  0  0  0
   38.1620   27.8530   32.0790 H   0  0  0  0  0  0  0  0  0  0  0  0
   37.2520   29.0610   33.7380 H   0  0  0  0  0  0  0  0  0  0  0  0
   35.9690   27.7700   33.9150 H   0  0  0  0  0  0  0  0  0  0  0  0
   34.5440   28.9480   32.4110 H   0  0  0  0  0  0  0  0  0  0  0  0
   36.3790   31.3730   32.6060 H   0  0  0  0  0  0  0  0  0  0  0  0
   34.9800   31.0780   31.5130 H   0  0  0  0  0  0  0  0  0  0  0  0
   37.8170   30.3920   31.0290 H   0  0  0  0  0  0  0  0  0  0  0  0
   36.4580   30.4970   29.8730 H   0  0  0  0  0  0  0  0  0  0  0  0
   37.3830   28.3260   29.9300 H   0  0  0  0  0  0  0  0  0  0  0  0
   35.6220   28.3150   30.4730 H   0  0  0  0  0  0  0  0  0  0  0  0
   36.6330   26.4630   31.8760 C   0  0  0  0  0  0  0  0  0  0  0  0
   35.4780   26.2010   31.1150 C   0  0  0  0  0  0  0  0  0  0  0  0
   35.0750   24.8760   31.0040 C   0  0  0  0  0  0  0  0  0  0  0  0
   35.8050   23.8870   31.6300 N   0  0  0  0  0  0  0  0  0  0  0  0
   36.9220   24.1880   32.3620 C   0  0  0  0  0  0  0  0  0  0  0  0
   37.3150   25.4650   32.4720 N   0  0  0  0  0  0  0  0  0  0  0  0
   34.8730   26.9170   30.6110 H   0  0  0  0  0  0  0  0  0  0  0  0
   34.2200   24.5420   30.4570 H   0  0  0  0  0  0  0  0  0  0  0  0
   37.4730   23.3920   32.8410 H   0  0  0  0  0  0  0  0  0  0  0  0
   34.8710   30.1370   34.1240 C   0  0  0  0  0  0  0  0  0  0  0  0
   35.6390   30.9380   34.9450 C   0  0  0  0  0  3  0  0  0  0  0  0
   35.1350   31.5160   36.1010 C   0  0  0  0  0  0  0  0  0  0  0  0
   35.7100   32.1470   36.7650 H   0  0  0  0  0  0  0  0  0  0  0  0
   33.8410   31.2990   36.4590 N   0  0  0  0  0  0  0  0  0  0  0  0
   33.1050   30.5170   35.6510 C   0  0  0  0  0  3  0  0  0  0  0  0
   33.5870   29.9540   34.5280 N   0  0  0  0  0  0  0  0  0  0  0  0
  1  7  1  1  0  0  0
  1  2  1  0  0  0  0
  2  8  1  0  0  0  0
  2  9  1  0  0  0  0
  3 10  1  6  0  0  0
  3  2  1  0  0  0  0
  3 26  1  0  0  0  0
  4 11  1  0  0  0  0
  4  3  1  0  0  0  0
  5 13  1  0  0  0  0
  5  4  1  0  0  0  0
  6  5  1  0  0  0  0
  6  1  1  0  0  0  0
 12  4  1  0  0  0  0
 14  5  1  0  0  0  0
 15  6  1  0  0  0  0
 16  6  1  0  0  0  0
 17  1  1  0  0  0  0
 17 22  1  0  0  0  0
 18 17  2  0  0  0  0
 19 18  1  0  0  0  0
 19 20  2  0  0  0  0
 20 21  1  0  0  0  0
 21 22  2  0  0  0  0
 21 25  1  0  0  0  0
 23 18  1  0  0  0  0
 24 19  1  0  0  0  0
 26 32  2  0  0  0  0
 26 27  1  0  0  0  0
 27 28  2  0  0  0  0
 28 30  1  0  0  0  0
 28 29  1  0  0  0  0
 31 30  2  0  0  0  0
 32 31  1  0  0  0  0
M  END
>  <minimizedAffinity>
-4.75078678

$$$$

 OpenBabel03262523373D

 32 34  0  0  1  0  0  0  0  0999 V2000
   38.5790   25.2710   36.0160 C   0  0  2  0  0  0  0  0  0  0  0  0
   39.7550   24.3350   35.8420 C   0  0  0  0  0  0  0  0  0  0  0  0
   39.5060   22.9860   36.4520 C   0  0  2  0  0  0  0  0  0  0  0  0
   39.1130   23.0560   37.9050 C   0  0  0  0  0  0  0  0  0  0  0  0
   38.1530   24.1640   38.2110 C   0  0  0  0  0  0  0  0  0  0  0  0
   37.5430   24.7660   36.9580 C   0  0  0  0  0  0  0  0  0  0  0  0
   38.9160   26.2760   36.3580 H   0  0  0  0  0  0  0  0  0  0  0  0
   40.5910   24.7820   36.4210 H   0  0  0  0  0  0  0  0  0  0  0  0
   40.0400   24.1620   34.7910 H   0  0  0  0  0  0  0  0  0  0  0  0
   38.6740   22.5230   35.8500 H   0  0  0  0  0  0  0  0  0  0  0  0
   40.0510   23.1190   38.5020 H   0  0  0  0  0  0  0  0  0  0  0  0
   38.6130   22.0930   38.1630 H   0  0  0  0  0  0  0  0  0  0  0  0
   38.6510   24.9830   38.7920 H   0  0  0  0  0  0  0  0  0  0  0  0
   37.2880   23.8270   38.8310 H   0  0  0  0  0  0  0  0  0  0  0  0
   36.8970   25.5800   37.2990 H   0  0  0  0  0  0  0  0  0  0  0  0
   36.9610   23.9490   36.4440 H   0  0  0  0  0  0  0  0  0  0  0  0
   37.9260   25.5130   34.7000 C   0  0  0  0  0  0  0  0  0  0  0  0
   37.3940   26.7980   34.4800 C   0  0  0  0  0  0  0  0  0  0  0  0
   36.7760   27.0310   33.2580 C   0  0  0  0  0  0  0  0  0  0  0  0
   36.7050   26.0170   32.3250 N   0  0  0  0  0  0  0  0  0  0  0  0
   37.2350   24.7810   32.5830 C   0  0  0  0  0  0  0  0  0  0  0  0
   37.8340   24.5520   33.7600 N   0  0  0  0  0  0  0  0  0  0  0  0
   37.4150   27.6190   35.1570 H   0  0  0  0  0  0  0  0  0  0  0  0
   36.3330   27.9600   32.9650 H   0  0  0  0  0  0  0  0  0  0  0  0
   37.1640   24.0070   31.8320 H   0  0  0  0  0  0  0  0  0  0  0  0
   40.6950   22.1440   36.3240 C   0  0  0  0  0  0  0  0  0  0  0  0
   41.3080   21.8810   35.1160 C   0  0  0  0  0  3  0  0  0  0  0  0
   42.4360   21.0790   35.0150 C   0  0  0  0  0  0  0  0  0  0  0  0
   42.9400   20.8540   34.0840 H   0  0  0  0  0  0  0  0  0  0  0  0
   42.9740   20.5220   36.1320 N   0  0  0  0  0  0  0  0  0  0  0  0
   42.3660   20.7860   37.3020 C   0  0  0  0  0  3  0  0  0  0  0  0
   41.2730   21.5620   37.4070 N   0  0  0  0  0  0  0  0  0  0  0  0
  1  7  1  1  0  0  0
  1  6  1  0  0  0  0
  2  1  1  0  0  0  0
  2  8  1  0  0  0  0
  2  3  1  0  0  0  0
  3 10  1  6  0  0  0
  3  4  1  0  0  0  0
  4 12  1  0  0  0  0
  4  5  1  0  0  0  0
  4 11  1  0  0  0  0
  5 13  1  0  0  0  0
  5 14  1  0  0  0  0
  6 15  1  0  0  0  0
  6  5  1  0  0  0  0
  9  2  1  0  0  0  0
 16  6  1  0  0  0  0
 17  1  1  0  0  0  0
 18 17  1  0  0  0  0
 18 23  1  0  0  0  0
 19 18  2  0  0  0  0
 20 21  2  0  0  0  0
 20 19  1  0  0  0  0
 21 22  1  0  0  0  0
 22 17  2  0  0  0  0
 24 19  1  0  0  0  0
 25 21  1  0  0  0  0
 26  3  1  0  0  0  0
 26 32  1  0  0  0  0
 27 26  2  0  0  0  0
 28 27  1  0  0  0  0
 28 30  2  0  0  0  0
 29 28  1  0  0  0  0
 30 31  1  0  0  0  0
 31 32  2  0  0  0  0
M  END
>  <minimizedAffinity>
-4.73186779

$$$$

 OpenBabel03262523373D

 32 34  0  0  1  0  0  0  0  0999 V2000
   39.6740   26.4370   35.0640 C   0  0  2  0  0  0  0  0  0  0  0  0
   38.8230   26.9780   33.9360 C   0  0  0  0  0  0  0  0  0  0  0  0
   39.4860   26.8310   32.5980 C   0  0  2  0  0  0  0  0  0  0  0  0
   40.8600   27.4460   32.5480 C   0  0  0  0  0  0  0  0  0  0  0  0
   41.6750   27.1910   33.7780 C   0  0  0  0  0  0  0  0  0  0  0  0
   41.0710   26.1150   34.6610 C   0  0  0  0  0  0  0  0  0  0  0  0
   39.7030   27.1500   35.9200 H   0  0  0  0  0  0  0  0  0  0  0  0
   38.7340   28.0710   34.1150 H   0  0  0  0  0  0  0  0  0  0  0  0
   37.8310   26.5020   33.8550 H   0  0  0  0  0  0  0  0  0  0  0  0
   39.5540   25.7220   32.4070 H   0  0  0  0  0  0  0  0  0  0  0  0
   40.7320   28.5310   32.3300 H   0  0  0  0  0  0  0  0  0  0  0  0
   41.3990   26.9900   31.6830 H   0  0  0  0  0  0  0  0  0  0  0  0
   41.7930   28.1260   34.3870 H   0  0  0  0  0  0  0  0  0  0  0  0
   42.7090   26.8410   33.5470 H   0  0  0  0  0  0  0  0  0  0  0  0
   41.7220   26.0430   35.5370 H   0  0  0  0  0  0  0  0  0  0  0  0
   41.0580   25.1600   34.0630 H   0  0  0  0  0  0  0  0  0  0  0  0
   39.0570   25.2000   35.6170 C   0  0  0  0  0  0  0  0  0  0  0  0
   39.4850   23.9750   35.0700 C   0  0  0  0  0  0  0  0  0  0  0  0
   38.9080   22.8160   35.5740 C   0  0  0  0  0  0  0  0  0  0  0  0
   37.9580   22.9050   36.5700 N   0  0  0  0  0  0  0  0  0  0  0  0
   37.5710   24.1190   37.0720 C   0  0  0  0  0  0  0  0  0  0  0  0
   38.1250   25.2400   36.5900 N   0  0  0  0  0  0  0  0  0  0  0  0
   40.2090   23.8410   34.3020 H   0  0  0  0  0  0  0  0  0  0  0  0
   39.1430   21.8260   35.2470 H   0  0  0  0  0  0  0  0  0  0  0  0
   36.8240   24.1560   37.8520 H   0  0  0  0  0  0  0  0  0  0  0  0
   38.6600   27.4330   31.5530 C   0  0  0  0  0  0  0  0  0  0  0  0
   37.3360   27.7740   31.7390 C   0  0  0  0  0  3  0  0  0  0  0  0
   36.5670   28.3440   30.7350 C   0  0  0  0  0  0  0  0  0  0  0  0
   35.5280   28.6230   30.8490 H   0  0  0  0  0  0  0  0  0  0  0  0
   37.1170   28.5850   29.5150 N   0  0  0  0  0  0  0  0  0  0  0  0
   38.4070   28.2470   29.3470 C   0  0  0  0  0  3  0  0  0  0  0  0
   39.1580   27.6930   30.3160 N   0  0  0  0  0  0  0  0  0  0  0  0
  1 17  1  0  0  0  0
  1  7  1  1  0  0  0
  2  8  1  0  0  0  0
  2  1  1  0  0  0  0
  3 10  1  6  0  0  0
  3  2  1  0  0  0  0
  4  3  1  0  0  0  0
  4  5  1  0  0  0  0
  5 13  1  0  0  0  0
  5  6  1  0  0  0  0
  6  1  1  0  0  0  0
  6 15  1  0  0  0  0
  9  2  1  0  0  0  0
 11  4  1  0  0  0  0
 12  4  1  0  0  0  0
 14  5  1  0  0  0  0
 16  6  1  0  0  0  0
 17 22  1  0  0  0  0
 18 19  1  0  0  0  0
 18 17  2  0  0  0  0
 19 20  2  0  0  0  0
 20 21  1  0  0  0  0
 21 25  1  0  0  0  0
 22 21  2  0  0  0  0
 23 18  1  0  0  0  0
 24 19  1  0  0  0  0
 26 27  1  0  0  0  0
 26  3  1  0  0  0  0
 28 29  1  0  0  0  0
 28 27  2  0  0  0  0
 30 28  1  0  0  0  0
 31 30  2  0  0  0  0
 31 32  1  0  0  0  0
 32 26  2  0  0  0  0
M  END
>  <minimizedAffinity>
-4.71424389

$$$$

 OpenBabel03262523373D

 32 34  0  0  1  0  0  0  0  0999 V2000
   36.6440   28.5300   32.6040 C   0  0  2  0  0  0  0  0  0  0  0  0
   35.8360   28.8830   33.8330 C   0  0  0  0  0  0  0  0  0  0  0  0
   34.7030   29.8180   33.5240 C   0  0  2  0  0  0  0  0  0  0  0  0
   35.1480   31.0740   32.8190 C   0  0  0  0  0  0  0  0  0  0  0  0
   36.1810   30.8330   31.7630 C   0  0  0  0  0  0  0  0  0  0  0  0
   36.3210   29.3630   31.4130 C   0  0  0  0  0  0  0  0  0  0  0  0
   37.7360   28.6050   32.8090 H   0  0  0  0  0  0  0  0  0  0  0  0
   36.5230   29.4470   34.5010 H   0  0  0  0  0  0  0  0  0  0  0  0
   35.3990   28.0120   34.3490 H   0  0  0  0  0  0  0  0  0  0  0  0
   33.9950   29.2390   32.8660 H   0  0  0  0  0  0  0  0  0  0  0  0
   35.4860   31.7920   33.6000 H   0  0  0  0  0  0  0  0  0  0  0  0
   34.2500   31.5140   32.3230 H   0  0  0  0  0  0  0  0  0  0  0  0
   37.1840   31.2190   32.0820 H   0  0  0  0  0  0  0  0  0  0  0  0
   35.9440   31.3470   30.8010 H   0  0  0  0  0  0  0  0  0  0  0  0
   37.1210   29.3050   30.6690 H   0  0  0  0  0  0  0  0  0  0  0  0
   35.3300   29.0230   30.9970 H   0  0  0  0  0  0  0  0  0  0  0  0
   36.4190   27.1030   32.2430 C   0  0  0  0  0  0  0  0  0  0  0  0
   37.2300   26.1480   32.8840 C   0  0  0  0  0  0  0  0  0  0  0  0
   37.0330   24.8150   32.5470 C   0  0  0  0  0  0  0  0  0  0  0  0
   36.0710   24.4820   31.6160 N   0  0  0  0  0  0  0  0  0  0  0  0
   35.3040   25.4450   31.0160 C   0  0  0  0  0  0  0  0  0  0  0  0
   35.4910   26.7330   31.3380 N   0  0  0  0  0  0  0  0  0  0  0  0
   37.9880   26.3400   33.6060 H   0  0  0  0  0  0  0  0  0  0  0  0
   37.5800   23.9940   32.9590 H   0  0  0  0  0  0  0  0  0  0  0  0
   34.5590   25.1530   30.2910 H   0  0  0  0  0  0  0  0  0  0  0  0
   34.0000   30.1880   34.7510 C   0  0  0  0  0  0  0  0  0  0  0  0
   34.4010   31.2250   35.5680 C   0  0  0  0  0  3  0  0  0  0  0  0
   33.7210   31.5610   36.7300 C   0  0  0  0  0  0  0  0  0  0  0  0
   34.0090   32.3670   37.3910 H   0  0  0  0  0  0  0  0  0  0  0  0
   32.6160   30.8580   37.0960 N   0  0  0  0  0  0  0  0  0  0  0  0
   32.2370   29.8510   36.2900 C   0  0  0  0  0  3  0  0  0  0  0  0
   32.8920   29.5190   35.1640 N   0  0  0  0  0  0  0  0  0  0  0  0
  1  7  1  1  0  0  0
  1  2  1  0  0  0  0
  2  9  1  0  0  0  0
  2  8  1  0  0  0  0
  3 10  1  6  0  0  0
  3  2  1  0  0  0  0
  3 26  1  0  0  0  0
  4  3  1  0  0  0  0
  4 11  1  0  0  0  0
  5 13  1  0  0  0  0
  5  4  1  0  0  0  0
  6  5  1  0  0  0  0
  6  1  1  0  0  0  0
 12  4  1  0  0  0  0
 14  5  1  0  0  0  0
 15  6  1  0  0  0  0
 16  6  1  0  0  0  0
 17  1  1  0  0  0  0
 17 18  1  0  0  0  0
 18 23  1  0  0  0  0
 19 18  2  0  0  0  0
 19 24  1  0  0  0  0
 20 19  1  0  0  0  0
 21 22  1  0  0  0  0
 21 20  2  0  0  0  0
 22 17  2  0  0  0  0
 25 21  1  0  0  0  0
 26 32  2  0  0  0  0
 26 27  1  0  0  0  0
 27 28  2  0  0  0  0
 28 30  1  0  0  0  0
 28 29  1  0  0  0  0
 31 30  2  0  0  0  0
 32 31  1  0  0  0  0
M  END
>  <minimizedAffinity>
-4.66828489

$$$$

 OpenBabel03262523373D

 32 34  0  0  1  0  0  0  0  0999 V2000
   38.8920   26.2190   34.7610 C   0  0  2  0  0  0  0  0  0  0  0  0
   37.7860   27.2520   34.7150 C   0  0  0  0  0  0  0  0  0  0  0  0
   37.1590   27.3570   33.3560 C   0  0  2  0  0  0  0  0  0  0  0  0
   38.1590   27.6230   32.2610 C   0  0  0  0  0  0  0  0  0  0  0  0
   39.4240   26.8340   32.4020 C   0  0  0  0  0  0  0  0  0  0  0  0
   39.2990   25.7160   33.4200 C   0  0  0  0  0  0  0  0  0  0  0  0
   39.7910   26.6200   35.2820 H   0  0  0  0  0  0  0  0  0  0  0  0
   38.2740   28.2320   34.9030 H   0  0  0  0  0  0  0  0  0  0  0  0
   36.9680   27.0650   35.4320 H   0  0  0  0  0  0  0  0  0  0  0  0
   36.6450   26.3700   33.1750 H   0  0  0  0  0  0  0  0  0  0  0  0
   38.3350   28.7220   32.2300 H   0  0  0  0  0  0  0  0  0  0  0  0
   37.6820   27.3310   31.2950 H   0  0  0  0  0  0  0  0  0  0  0  0
   40.2810   27.4930   32.7000 H   0  0  0  0  0  0  0  0  0  0  0  0
   39.7320   26.3380   31.4510 H   0  0  0  0  0  0  0  0  0  0  0  0
   40.2830   25.2400   33.4660 H   0  0  0  0  0  0  0  0  0  0  0  0
   38.5030   25.0110   33.0470 H   0  0  0  0  0  0  0  0  0  0  0  0
   38.4630   25.0530   35.5800 C   0  0  0  0  0  0  0  0  0  0  0  0
   38.3560   23.8150   34.9190 C   0  0  0  0  0  0  0  0  0  0  0  0
   37.9480   22.7220   35.6740 C   0  0  0  0  0  0  0  0  0  0  0  0
   37.6680   22.8860   37.0150 N   0  0  0  0  0  0  0  0  0  0  0  0
   37.7850   24.1110   37.6170 C   0  0  0  0  0  0  0  0  0  0  0  0
   38.1780   25.1680   36.8930 N   0  0  0  0  0  0  0  0  0  0  0  0
   38.5550   23.6240   33.8910 H   0  0  0  0  0  0  0  0  0  0  0  0
   37.8270   21.7300   35.2960 H   0  0  0  0  0  0  0  0  0  0  0  0
   37.5580   24.2080   38.6690 H   0  0  0  0  0  0  0  0  0  0  0  0
   36.1500   28.4150   33.3430 C   0  0  0  0  0  0  0  0  0  0  0  0
   35.8460   29.1830   34.4490 C   0  0  0  0  0  3  0  0  0  0  0  0
   34.8850   30.1830   34.4180 C   0  0  0  0  0  0  0  0  0  0  0  0
   34.6240   30.8010   35.2660 H   0  0  0  0  0  0  0  0  0  0  0  0
   34.2060   30.4340   33.2670 N   0  0  0  0  0  0  0  0  0  0  0  0
   34.5130   29.6790   32.1980 C   0  0  0  0  0  3  0  0  0  0  0  0
   35.4420   28.7080   32.2210 N   0  0  0  0  0  0  0  0  0  0  0  0
  1  7  1  1  0  0  0
  1 17  1  0  0  0  0
  2  1  1  0  0  0  0
  2  8  1  0  0  0  0
  2  9  1  0  0  0  0
  3 10  1  6  0  0  0
  3  2  1  0  0  0  0
  4  5  1  0  0  0  0
  4  3  1  0  0  0  0
  5 13  1  0  0  0  0
  5  6  1  0  0  0  0
  6 15  1  0  0  0  0
  6  1  1  0  0  0  0
 11  4  1  0  0  0  0
 12  4  1  0  0  0  0
 14  5  1  0  0  0  0
 16  6  1  0  0  0  0
 17 22  1  0  0  0  0
 18 17  2  0  0  0  0
 18 19  1  0  0  0  0
 19 20  2  0  0  0  0
 20 21  1  0  0  0  0
 21 25  1  0  0  0  0
 22 21  2  0  0  0  0
 23 18  1  0  0  0  0
 24 19  1  0  0  0  0
 26  3  1  0  0  0  0
 26 27  1  0  0  0  0
 28 27  2  0  0  0  0
 28 29  1  0  0  0  0
 30 28  1  0  0  0  0
 31 32  1  0  0  0  0
 31 30  2  0  0  0  0
 32 26  2  0  0  0  0
M  END
>  <minimizedAffinity>
-4.63598537

$$$$
