
 OpenBabel03272506303D

 32 34  0  0  1  0  0  0  0  0999 V2000
   33.6760   29.2180   48.6250 C   0  0  1  0  0  0  0  0  0  0  0  0
   33.5550   29.7180   47.2450 C   0  0  0  0  0  0  0  0  0  0  0  0
   34.0920   28.8380   46.1530 C   0  0  0  0  0  0  0  0  0  0  0  0
   33.9030   27.3800   46.3610 C   0  0  0  0  0  0  0  0  0  0  0  0
   34.0420   26.8660   47.7460 C   0  0  0  0  0  0  0  0  0  0  0  0
   33.3910   27.7640   48.7560 C   0  0  2  0  0  0  0  0  0  0  0  0
   32.8520   29.7170   49.2380 H   0  0  0  0  0  0  0  0  0  0  0  0
   33.8520   30.7320   47.0420 H   0  0  0  0  0  0  0  0  0  0  0  0
   32.4370   29.7210   47.0320 H   0  0  0  0  0  0  0  0  0  0  0  0
   35.1790   29.0460   46.0600 H   0  0  0  0  0  0  0  0  0  0  0  0
   33.6190   29.1310   45.2020 H   0  0  0  0  0  0  0  0  0  0  0  0
   32.8970   27.1090   45.9440 H   0  0  0  0  0  0  0  0  0  0  0  0
   34.6290   26.8380   45.7130 H   0  0  0  0  0  0  0  0  0  0  0  0
   35.0900   26.6530   48.0470 H   0  0  0  0  0  0  0  0  0  0  0  0
   33.5100   25.8930   47.7890 H   0  0  0  0  0  0  0  0  0  0  0  0
   33.6630   27.3420   49.7330 H   0  0  0  0  0  0  0  0  0  0  0  0
   35.8180   30.6010   48.8380 C   0  0  0  0  0  0  0  0  0  0  0  0
   34.8970   29.6470   49.3430 C   0  0  0  0  0  0  0  0  0  0  0  0
   35.1820   29.1160   50.5850 C   0  0  0  0  0  0  0  0  0  0  0  0
   36.2920   29.5100   51.2590 N   0  0  0  0  0  0  0  0  0  0  0  0
   37.1450   30.4280   50.7340 C   0  0  0  0  0  0  0  0  0  0  0  0
   36.8990   30.9740   49.5130 N   0  0  0  0  0  0  0  0  0  0  0  0
   35.6520   31.0520   47.8750 H   0  0  0  0  0  0  0  0  0  0  0  0
   34.6310   28.3960   51.1580 H   0  0  0  0  0  0  0  0  0  0  0  0
   38.0390   30.7640   51.2430 H   0  0  0  0  0  0  0  0  0  0  0  0
   31.8900   27.5780   48.7050 C   0  0  0  0  0  0  0  0  0  0  0  0
   31.3460   26.7830   47.6890 C   0  0  0  0  0  0  0  0  0  0  0  0
   29.9690   26.5600   47.5660 C   0  0  0  0  0  0  0  0  0  0  0  0
   29.5960   25.9370   46.7650 H   0  0  0  0  0  0  0  0  0  0  0  0
   29.1580   27.1420   48.4680 N   0  0  0  0  0  0  0  0  0  0  0  0
   29.6770   27.9130   49.4540 C   0  0  0  0  0  0  0  0  0  0  0  0
   30.9820   28.1050   49.5440 N   0  0  0  0  0  0  0  0  0  0  0  0
  1  6  1  0  0  0  0
  1  7  1  1  0  0  0
  1 18  1  0  0  0  0
  2  1  1  0  0  0  0
  3  4  1  0  0  0  0
  3  2  1  0  0  0  0
  4  5  1  0  0  0  0
  5 15  1  0  0  0  0
  5 14  1  0  0  0  0
  5  6  1  0  0  0  0
  6 16  1  1  0  0  0
  8  2  1  0  0  0  0
  9  2  1  0  0  0  0
 10  3  1  0  0  0  0
 11  3  1  0  0  0  0
 12  4  1  0  0  0  0
 13  4  1  0  0  0  0
 17 18  2  0  0  0  0
 17 22  1  0  0  0  0
 18 19  1  0  0  0  0
 19 24  1  0  0  0  0
 19 20  2  0  0  0  0
 21 25  1  0  0  0  0
 21 20  1  0  0  0  0
 22 21  2  0  0  0  0
 23 17  1  0  0  0  0
 26  6  1  0  0  0  0
 26 32  1  0  0  0  0
 27 26  2  0  0  0  0
 28 27  1  0  0  0  0
 28 30  2  0  0  0  0
 29 28  1  0  0  0  0
 30 31  1  0  0  0  0
 31 32  2  0  0  0  0
M  END
>  <minimizedAffinity>
-4.73953247

>  <minimizedRMSD>
1.67888224

$$$$
