
 OpenBabel03272509063D

 31 33  0  0  0  0  0  0  0  0999 V2000
   36.5310   28.5860   34.5430 C   0  0  0  0  0  3  0  0  0  0  0  0
   35.8370   29.2570   33.6690 C   0  0  0  0  0  3  0  0  0  0  0  0
   37.2600   25.4860   32.7460 C   0  0  0  0  0  0  0  0  0  0  0  0
   37.8030   24.6760   33.7670 C   0  0  0  0  0  0  0  0  0  0  0  0
   37.8940   25.2460   35.0550 C   0  0  0  0  0  0  0  0  0  0  0  0
   37.4620   26.5170   35.2270 N   0  0  0  0  0  0  0  0  0  0  0  0
   36.9520   27.2440   34.2130 C   0  0  0  0  0  0  0  0  0  0  0  0
   36.8540   26.7220   32.9750 N   0  0  0  0  0  0  0  0  0  0  0  0
   37.1960   25.0260   31.7530 H   0  0  0  0  0  0  0  0  0  0  0  0
   38.1410   23.6630   33.6010 H   0  0  0  0  0  0  0  0  0  0  0  0
   38.4490   24.4430   36.1370 C   0  0  0  0  0  0  0  0  0  0  0  0
   39.5750   23.6880   35.9100 C   0  0  0  0  0  3  0  0  0  0  0  0
   39.9890   22.9750   37.0320 C   0  0  0  0  0  0  0  0  0  0  0  0
   40.8850   22.3450   36.9340 H   0  0  0  0  0  0  0  0  0  0  0  0
   39.3710   23.0050   38.2190 N   0  0  0  0  0  0  0  0  0  0  0  0
   38.2830   23.7570   38.3730 C   0  0  0  0  0  3  0  0  0  0  0  0
   37.8190   24.4810   37.3240 N   0  0  0  0  0  0  0  0  0  0  0  0
   35.3120   30.6220   33.7970 C   0  0  0  0  0  0  0  0  0  0  0  0
   36.1400   31.3650   33.8900 H   0  0  0  0  0  0  0  0  0  0  0  0
   34.7210   30.9130   32.9090 H   0  0  0  0  0  0  0  0  0  0  0  0
   34.3890   30.7630   34.9730 C   0  0  0  0  0  0  0  0  0  0  0  0
   33.1970   30.1040   35.1250 C   0  0  0  0  0  0  0  0  0  0  0  0
   32.4130   30.2970   36.2450 C   0  0  0  0  0  0  0  0  0  0  0  0
   32.8280   31.1820   37.2570 C   0  0  0  0  0  0  0  0  0  0  0  0
   34.0160   31.8440   37.1150 C   0  0  0  0  0  0  0  0  0  0  0  0
   34.7830   31.6380   35.9910 C   0  0  0  0  0  0  0  0  0  0  0  0
   32.9030   29.4360   34.3420 H   0  0  0  0  0  0  0  0  0  0  0  0
   31.4710   29.7750   36.3640 H   0  0  0  0  0  0  0  0  0  0  0  0
   32.2500   31.3680   38.1540 H   0  0  0  0  0  0  0  0  0  0  0  0
   34.3910   32.5400   37.8610 H   0  0  0  0  0  0  0  0  0  0  0  0
   35.7090   32.1600   35.8890 H   0  0  0  0  0  0  0  0  0  0  0  0
  2 18  1  0  0  0  0
  2  1  2  0  0  0  0
  3  8  2  0  0  0  0
  3  4  1  0  0  0  0
  4  5  2  0  0  0  0
  5  6  1  0  0  0  0
  5 11  1  0  0  0  0
  7  1  1  0  0  0  0
  7  6  2  0  0  0  0
  8  7  1  0  0  0  0
  9  3  1  0  0  0  0
 10  4  1  0  0  0  0
 11 17  1  0  0  0  0
 12 11  2  0  0  0  0
 12 13  1  0  0  0  0
 13 15  2  0  0  0  0
 14 13  1  0  0  0  0
 15 16  1  0  0  0  0
 17 16  2  0  0  0  0
 18 19  1  0  0  0  0
 18 21  1  0  0  0  0
 20 18  1  0  0  0  0
 21 22  2  0  0  0  0
 21 26  1  0  0  0  0
 22 23  1  0  0  0  0
 23 28  1  0  0  0  0
 23 24  2  0  0  0  0
 24 29  1  0  0  0  0
 25 24  1  0  0  0  0
 25 30  1  0  0  0  0
 26 25  2  0  0  0  0
 27 22  1  0  0  0  0
 31 26  1  0  0  0  0
M  END
>  <minimizedAffinity>
-5.6779952

$$$$

 OpenBabel03272509063D

 31 33  0  0  0  0  0  0  0  0999 V2000
   36.8090   24.4570   31.6700 C   0  0  0  0  0  3  0  0  0  0  0  0
   36.3570   23.2680   31.9510 C   0  0  0  0  0  3  0  0  0  0  0  0
   38.9500   26.8930   33.3600 C   0  0  0  0  0  0  0  0  0  0  0  0
   39.1520   26.2820   34.6180 C   0  0  0  0  0  0  0  0  0  0  0  0
   38.5280   25.0340   34.8300 C   0  0  0  0  0  0  0  0  0  0  0  0
   37.7860   24.5080   33.8280 N   0  0  0  0  0  0  0  0  0  0  0  0
   37.6280   25.1360   32.6470 C   0  0  0  0  0  0  0  0  0  0  0  0
   38.2140   26.3280   32.4200 N   0  0  0  0  0  0  0  0  0  0  0  0
   39.4420   27.8600   33.2140 H   0  0  0  0  0  0  0  0  0  0  0  0
   39.7500   26.7270   35.4010 H   0  0  0  0  0  0  0  0  0  0  0  0
   38.7120   24.3710   36.1160 C   0  0  0  0  0  0  0  0  0  0  0  0
   39.7100   23.4360   36.2570 C   0  0  0  0  0  3  0  0  0  0  0  0
   39.7660   22.8880   37.5350 C   0  0  0  0  0  0  0  0  0  0  0  0
   40.5380   22.1300   37.7310 H   0  0  0  0  0  0  0  0  0  0  0  0
   38.9450   23.2210   38.5390 N   0  0  0  0  0  0  0  0  0  0  0  0
   37.9980   24.1350   38.3360 C   0  0  0  0  0  3  0  0  0  0  0  0
   37.8810   24.7140   37.1150 N   0  0  0  0  0  0  0  0  0  0  0  0
   35.5140   22.4070   31.1100 C   0  0  0  0  0  0  0  0  0  0  0  0
   34.4340   22.6600   31.2320 H   0  0  0  0  0  0  0  0  0  0  0  0
   35.7530   22.5320   30.0380 H   0  0  0  0  0  0  0  0  0  0  0  0
   35.7180   20.9510   31.4140 C   0  0  0  0  0  0  0  0  0  0  0  0
   36.3290   20.0490   30.5830 C   0  0  0  0  0  0  0  0  0  0  0  0
   36.4710   18.7250   30.9480 C   0  0  0  0  0  0  0  0  0  0  0  0
   35.9860   18.2770   32.1900 C   0  0  0  0  0  0  0  0  0  0  0  0
   35.3760   19.1690   33.0270 C   0  0  0  0  0  0  0  0  0  0  0  0
   35.2430   20.4840   32.6450 C   0  0  0  0  0  0  0  0  0  0  0  0
   36.6890   20.4140   29.6430 H   0  0  0  0  0  0  0  0  0  0  0  0
   36.9540   18.0130   30.2890 H   0  0  0  0  0  0  0  0  0  0  0  0
   36.0730   17.2490   32.5240 H   0  0  0  0  0  0  0  0  0  0  0  0
   34.9810   18.8850   33.9990 H   0  0  0  0  0  0  0  0  0  0  0  0
   34.7650   21.1730   33.3050 H   0  0  0  0  0  0  0  0  0  0  0  0
  1  2  2  0  0  0  0
  1  7  1  0  0  0  0
  3  4  1  0  0  0  0
  4  5  2  0  0  0  0
  4 10  1  0  0  0  0
  5 11  1  0  0  0  0
  6  5  1  0  0  0  0
  7  6  2  0  0  0  0
  8  7  1  0  0  0  0
  8  3  2  0  0  0  0
  9  3  1  0  0  0  0
 11 12  2  0  0  0  0
 11 17  1  0  0  0  0
 12 13  1  0  0  0  0
 13 14  1  0  0  0  0
 13 15  2  0  0  0  0
 16 15  1  0  0  0  0
 17 16  2  0  0  0  0
 18 19  1  0  0  0  0
 18 21  1  0  0  0  0
 18  2  1  0  0  0  0
 20 18  1  0  0  0  0
 21 26  1  0  0  0  0
 22 23  1  0  0  0  0
 22 21  2  0  0  0  0
 23 24  2  0  0  0  0
 24 29  1  0  0  0  0
 24 25  1  0  0  0  0
 25 30  1  0  0  0  0
 26 25  2  0  0  0  0
 26 31  1  0  0  0  0
 27 22  1  0  0  0  0
 28 23  1  0  0  0  0
M  END
>  <minimizedAffinity>
-5.6774888

$$$$

 OpenBabel03272509063D

 31 33  0  0  0  0  0  0  0  0999 V2000
   36.4220   28.6330   34.5910 C   0  0  0  0  0  3  0  0  0  0  0  0
   35.7820   29.3240   33.6930 C   0  0  0  0  0  3  0  0  0  0  0  0
   37.3000   25.6000   32.7460 C   0  0  0  0  0  0  0  0  0  0  0  0
   37.8310   24.7800   33.7670 C   0  0  0  0  0  0  0  0  0  0  0  0
   37.8630   25.3200   35.0700 C   0  0  0  0  0  0  0  0  0  0  0  0
   37.3880   26.5740   35.2570 N   0  0  0  0  0  0  0  0  0  0  0  0
   36.8930   27.3120   34.2440 C   0  0  0  0  0  0  0  0  0  0  0  0
   36.8520   26.8180   32.9910 N   0  0  0  0  0  0  0  0  0  0  0  0
   37.2830   25.1630   31.7420 H   0  0  0  0  0  0  0  0  0  0  0  0
   38.2030   23.7810   33.5880 H   0  0  0  0  0  0  0  0  0  0  0  0
   38.4020   24.5050   36.1520 C   0  0  0  0  0  0  0  0  0  0  0  0
   37.7890   24.5240   37.3820 C   0  0  0  0  0  3  0  0  0  0  0  0
   38.4130   23.7000   38.3150 C   0  0  0  0  0  0  0  0  0  0  0  0
   37.9840   23.6570   39.3260 H   0  0  0  0  0  0  0  0  0  0  0  0
   39.4980   22.9570   38.0620 N   0  0  0  0  0  0  0  0  0  0  0  0
   40.0440   22.9840   36.8480 C   0  0  0  0  0  3  0  0  0  0  0  0
   39.4920   23.7640   35.8870 N   0  0  0  0  0  0  0  0  0  0  0  0
   35.2220   30.6750   33.8320 C   0  0  0  0  0  0  0  0  0  0  0  0
   36.0310   31.4420   33.8910 H   0  0  0  0  0  0  0  0  0  0  0  0
   34.5910   30.9420   32.9640 H   0  0  0  0  0  0  0  0  0  0  0  0
   34.3380   30.7960   35.0410 C   0  0  0  0  0  0  0  0  0  0  0  0
   34.5660   31.6260   36.1060 C   0  0  0  0  0  0  0  0  0  0  0  0
   33.6960   31.6700   37.1760 C   0  0  0  0  0  0  0  0  0  0  0  0
   32.5480   30.8550   37.1900 C   0  0  0  0  0  0  0  0  0  0  0  0
   32.3110   30.0230   36.1310 C   0  0  0  0  0  0  0  0  0  0  0  0
   33.1910   29.9940   35.0740 C   0  0  0  0  0  0  0  0  0  0  0  0
   35.4450   32.2370   36.0730 H   0  0  0  0  0  0  0  0  0  0  0  0
   33.8770   32.3270   38.0190 H   0  0  0  0  0  0  0  0  0  0  0  0
   31.8340   30.8520   38.0050 H   0  0  0  0  0  0  0  0  0  0  0  0
   31.4440   29.3710   36.0830 H   0  0  0  0  0  0  0  0  0  0  0  0
   32.9970   29.3410   34.2520 H   0  0  0  0  0  0  0  0  0  0  0  0
  2 18  1  0  0  0  0
  2  1  2  0  0  0  0
  3  8  2  0  0  0  0
  3  4  1  0  0  0  0
  4  5  2  0  0  0  0
  5  6  1  0  0  0  0
  5 11  1  0  0  0  0
  7  1  1  0  0  0  0
  7  6  2  0  0  0  0
  8  7  1  0  0  0  0
  9  3  1  0  0  0  0
 10  4  1  0  0  0  0
 11 12  1  0  0  0  0
 12 13  2  0  0  0  0
 13 14  1  0  0  0  0
 15 13  1  0  0  0  0
 16 15  2  0  0  0  0
 17 11  2  0  0  0  0
 17 16  1  0  0  0  0
 18 19  1  0  0  0  0
 18 21  1  0  0  0  0
 20 18  1  0  0  0  0
 21 26  2  0  0  0  0
 21 22  1  0  0  0  0
 22 23  2  0  0  0  0
 23 24  1  0  0  0  0
 23 28  1  0  0  0  0
 24 29  1  0  0  0  0
 25 24  2  0  0  0  0
 26 25  1  0  0  0  0
 27 22  1  0  0  0  0
 30 25  1  0  0  0  0
 31 26  1  0  0  0  0
M  END
>  <minimizedAffinity>
-5.65672731

$$$$

 OpenBabel03272509063D

 31 33  0  0  0  0  0  0  0  0999 V2000
   36.3700   28.5780   34.7280 C   0  0  0  0  0  3  0  0  0  0  0  0
   35.3230   29.0200   34.0930 C   0  0  0  0  0  3  0  0  0  0  0  0
   37.5620   25.7550   32.7330 C   0  0  0  0  0  0  0  0  0  0  0  0
   38.0860   24.8950   33.7250 C   0  0  0  0  0  0  0  0  0  0  0  0
   38.0020   25.3370   35.0620 C   0  0  0  0  0  0  0  0  0  0  0  0
   37.4330   26.5400   35.3070 N   0  0  0  0  0  0  0  0  0  0  0  0
   36.9500   27.3190   34.3190 C   0  0  0  0  0  0  0  0  0  0  0  0
   37.0180   26.9200   33.0340 N   0  0  0  0  0  0  0  0  0  0  0  0
   37.6360   25.3940   31.7010 H   0  0  0  0  0  0  0  0  0  0  0  0
   38.5360   23.9390   33.5000 H   0  0  0  0  0  0  0  0  0  0  0  0
   38.5310   24.4790   36.1160 C   0  0  0  0  0  0  0  0  0  0  0  0
   37.9180   24.4650   37.3460 C   0  0  0  0  0  3  0  0  0  0  0  0
   38.5300   23.6020   38.2500 C   0  0  0  0  0  0  0  0  0  0  0  0
   38.1000   23.5310   39.2600 H   0  0  0  0  0  0  0  0  0  0  0  0
   39.6050   22.8530   37.9730 N   0  0  0  0  0  0  0  0  0  0  0  0
   40.1520   22.9130   36.7610 C   0  0  0  0  0  3  0  0  0  0  0  0
   39.6100   23.7330   35.8260 N   0  0  0  0  0  0  0  0  0  0  0  0
   34.5820   30.2630   34.3420 C   0  0  0  0  0  0  0  0  0  0  0  0
   33.7770   30.4100   33.5820 H   0  0  0  0  0  0  0  0  0  0  0  0
   34.0880   30.2480   35.3310 H   0  0  0  0  0  0  0  0  0  0  0  0
   35.4830   31.4650   34.3460 C   0  0  0  0  0  0  0  0  0  0  0  0
   35.9650   32.0870   35.4670 C   0  0  0  0  0  0  0  0  0  0  0  0
   36.7900   33.1900   35.3720 C   0  0  0  0  0  0  0  0  0  0  0  0
   37.1510   33.6980   34.1110 C   0  0  0  0  0  0  0  0  0  0  0  0
   36.6750   33.0850   32.9850 C   0  0  0  0  0  0  0  0  0  0  0  0
   35.8530   31.9870   33.1010 C   0  0  0  0  0  0  0  0  0  0  0  0
   35.6770   31.6820   36.4150 H   0  0  0  0  0  0  0  0  0  0  0  0
   37.1710   33.6810   36.2600 H   0  0  0  0  0  0  0  0  0  0  0  0
   37.7950   34.5600   33.9820 H   0  0  0  0  0  0  0  0  0  0  0  0
   36.9170   33.4290   31.9840 H   0  0  0  0  0  0  0  0  0  0  0  0
   35.4870   31.5150   32.2170 H   0  0  0  0  0  0  0  0  0  0  0  0
  2 18  1  0  0  0  0
  2  1  2  0  0  0  0
  3  8  2  0  0  0  0
  3  4  1  0  0  0  0
  4  5  2  0  0  0  0
  5  6  1  0  0  0  0
  5 11  1  0  0  0  0
  7  1  1  0  0  0  0
  7  6  2  0  0  0  0
  8  7  1  0  0  0  0
  9  3  1  0  0  0  0
 10  4  1  0  0  0  0
 11 12  1  0  0  0  0
 12 13  2  0  0  0  0
 13 14  1  0  0  0  0
 15 13  1  0  0  0  0
 16 15  2  0  0  0  0
 17 11  2  0  0  0  0
 17 16  1  0  0  0  0
 18 21  1  0  0  0  0
 18 20  1  0  0  0  0
 19 18  1  0  0  0  0
 21 22  1  0  0  0  0
 22 27  1  0  0  0  0
 23 22  2  0  0  0  0
 23 28  1  0  0  0  0
 24 23  1  0  0  0  0
 25 26  1  0  0  0  0
 25 24  2  0  0  0  0
 26 21  2  0  0  0  0
 29 24  1  0  0  0  0
 30 25  1  0  0  0  0
 31 26  1  0  0  0  0
M  END
>  <minimizedAffinity>
-5.51885509

$$$$

 OpenBabel03272509063D

 31 33  0  0  0  0  0  0  0  0999 V2000
   38.3480   26.6240   33.8390 C   0  0  0  0  0  3  0  0  0  0  0  0
   38.2390   25.3350   33.9880 C   0  0  0  0  0  3  0  0  0  0  0  0
   35.5560   27.9160   31.8630 C   0  0  0  0  0  0  0  0  0  0  0  0
   35.0040   28.8830   32.7330 C   0  0  0  0  0  0  0  0  0  0  0  0
   35.6330   29.0490   33.9850 C   0  0  0  0  0  0  0  0  0  0  0  0
   36.7100   28.2810   34.2700 N   0  0  0  0  0  0  0  0  0  0  0  0
   37.1930   27.3720   33.4000 C   0  0  0  0  0  0  0  0  0  0  0  0
   36.6110   27.1960   32.1980 N   0  0  0  0  0  0  0  0  0  0  0  0
   35.0550   27.8020   30.8950 H   0  0  0  0  0  0  0  0  0  0  0  0
   34.1420   29.4830   32.4780 H   0  0  0  0  0  0  0  0  0  0  0  0
   35.0950   30.0370   34.9120 C   0  0  0  0  0  0  0  0  0  0  0  0
   35.9570   30.8650   35.5920 C   0  0  0  0  0  3  0  0  0  0  0  0
   35.3020   31.7550   36.4400 C   0  0  0  0  0  0  0  0  0  0  0  0
   35.9210   32.4530   37.0220 H   0  0  0  0  0  0  0  0  0  0  0  0
   33.9730   31.8180   36.5920 N   0  0  0  0  0  0  0  0  0  0  0  0
   33.1940   30.9870   35.9020 C   0  0  0  0  0  3  0  0  0  0  0  0
   33.7590   30.0910   35.0570 N   0  0  0  0  0  0  0  0  0  0  0  0
   39.2770   24.3900   34.4200 C   0  0  0  0  0  0  0  0  0  0  0  0
   39.2690   23.4680   33.7910 H   0  0  0  0  0  0  0  0  0  0  0  0
   40.2870   24.8310   34.3280 H   0  0  0  0  0  0  0  0  0  0  0  0
   39.1230   24.0050   35.8630 C   0  0  0  0  0  0  0  0  0  0  0  0
   39.9650   23.1730   36.5530 C   0  0  0  0  0  0  0  0  0  0  0  0
   39.7420   22.8750   37.8820 C   0  0  0  0  0  0  0  0  0  0  0  0
   38.6360   23.4240   38.5560 C   0  0  0  0  0  0  0  0  0  0  0  0
   37.7890   24.2550   37.8770 C   0  0  0  0  0  0  0  0  0  0  0  0
   38.0280   24.5400   36.5520 C   0  0  0  0  0  0  0  0  0  0  0  0
   40.8000   22.7680   36.0190 H   0  0  0  0  0  0  0  0  0  0  0  0
   40.4090   22.2170   38.4270 H   0  0  0  0  0  0  0  0  0  0  0  0
   38.4170   23.2220   39.5980 H   0  0  0  0  0  0  0  0  0  0  0  0
   36.9190   24.7100   38.3410 H   0  0  0  0  0  0  0  0  0  0  0  0
   37.3620   25.1900   36.0300 H   0  0  0  0  0  0  0  0  0  0  0  0
  1  2  2  0  0  0  0
  2 18  1  0  0  0  0
  3  8  2  0  0  0  0
  3  4  1  0  0  0  0
  4  5  2  0  0  0  0
  5  6  1  0  0  0  0
  5 11  1  0  0  0  0
  7  1  1  0  0  0  0
  7  6  2  0  0  0  0
  8  7  1  0  0  0  0
  9  3  1  0  0  0  0
 10  4  1  0  0  0  0
 11 17  2  0  0  0  0
 11 12  1  0  0  0  0
 12 13  2  0  0  0  0
 13 15  1  0  0  0  0
 13 14  1  0  0  0  0
 16 15  2  0  0  0  0
 17 16  1  0  0  0  0
 18 21  1  0  0  0  0
 19 18  1  0  0  0  0
 20 18  1  0  0  0  0
 21 26  2  0  0  0  0
 21 22  1  0  0  0  0
 22 23  2  0  0  0  0
 23 28  1  0  0  0  0
 23 24  1  0  0  0  0
 24 29  1  0  0  0  0
 25 30  1  0  0  0  0
 25 24  2  0  0  0  0
 26 25  1  0  0  0  0
 27 22  1  0  0  0  0
 31 26  1  0  0  0  0
M  END
>  <minimizedAffinity>
-5.50625658

$$$$

 OpenBabel03272509063D

 31 33  0  0  0  0  0  0  0  0999 V2000
   37.3600   27.5270   33.9120 C   0  0  0  0  0  3  0  0  0  0  0  0
   37.8480   27.4980   35.1190 C   0  0  0  0  0  3  0  0  0  0  0  0
   34.5580   29.2220   32.2850 C   0  0  0  0  0  0  0  0  0  0  0  0
   34.1440   30.1300   33.2850 C   0  0  0  0  0  0  0  0  0  0  0  0
   34.8650   30.1170   34.4980 C   0  0  0  0  0  0  0  0  0  0  0  0
   35.8930   29.2460   34.6260 N   0  0  0  0  0  0  0  0  0  0  0  0
   36.2430   28.4010   33.6360 C   0  0  0  0  0  0  0  0  0  0  0  0
   35.5710   28.3940   32.4690 N   0  0  0  0  0  0  0  0  0  0  0  0
   33.9870   29.2470   31.3500 H   0  0  0  0  0  0  0  0  0  0  0  0
   33.3180   30.8150   33.1560 H   0  0  0  0  0  0  0  0  0  0  0  0
   34.4700   31.0400   35.5560 C   0  0  0  0  0  0  0  0  0  0  0  0
   35.3780   31.9610   36.0220 C   0  0  0  0  0  3  0  0  0  0  0  0
   34.8630   32.7720   37.0290 C   0  0  0  0  0  0  0  0  0  0  0  0
   35.5260   33.5370   37.4570 H   0  0  0  0  0  0  0  0  0  0  0  0
   33.6160   32.6840   37.5090 N   0  0  0  0  0  0  0  0  0  0  0  0
   32.7850   31.7700   37.0130 C   0  0  0  0  0  3  0  0  0  0  0  0
   33.2160   30.9410   36.0290 N   0  0  0  0  0  0  0  0  0  0  0  0
   38.9710   26.6900   35.6130 C   0  0  0  0  0  0  0  0  0  0  0  0
   39.8220   26.7000   34.8910 H   0  0  0  0  0  0  0  0  0  0  0  0
   39.3600   27.0830   36.5710 H   0  0  0  0  0  0  0  0  0  0  0  0
   38.5670   25.2690   35.8810 C   0  0  0  0  0  0  0  0  0  0  0  0
   37.9800   24.8180   37.0350 C   0  0  0  0  0  0  0  0  0  0  0  0
   37.6430   23.4890   37.1920 C   0  0  0  0  0  0  0  0  0  0  0  0
   37.9000   22.5660   36.1610 C   0  0  0  0  0  0  0  0  0  0  0  0
   38.4850   23.0050   35.0060 C   0  0  0  0  0  0  0  0  0  0  0  0
   38.8140   24.3350   34.8690 C   0  0  0  0  0  0  0  0  0  0  0  0
   37.7950   25.5390   37.8040 H   0  0  0  0  0  0  0  0  0  0  0  0
   37.1790   23.1340   38.1040 H   0  0  0  0  0  0  0  0  0  0  0  0
   37.6550   21.5130   36.2340 H   0  0  0  0  0  0  0  0  0  0  0  0
   38.7080   22.3430   34.1740 H   0  0  0  0  0  0  0  0  0  0  0  0
   39.2710   24.6680   33.9630 H   0  0  0  0  0  0  0  0  0  0  0  0
  1  2  2  0  0  0  0
  2 18  1  0  0  0  0
  3  8  2  0  0  0  0
  3  4  1  0  0  0  0
  4  5  2  0  0  0  0
  5  6  1  0  0  0  0
  5 11  1  0  0  0  0
  7  1  1  0  0  0  0
  7  6  2  0  0  0  0
  8  7  1  0  0  0  0
  9  3  1  0  0  0  0
 10  4  1  0  0  0  0
 11 12  2  0  0  0  0
 11 17  1  0  0  0  0
 12 13  1  0  0  0  0
 13 14  1  0  0  0  0
 13 15  2  0  0  0  0
 16 15  1  0  0  0  0
 17 16  2  0  0  0  0
 18 21  1  0  0  0  0
 18 20  1  0  0  0  0
 19 18  1  0  0  0  0
 21 22  1  0  0  0  0
 22 23  2  0  0  0  0
 22 27  1  0  0  0  0
 23 28  1  0  0  0  0
 24 29  1  0  0  0  0
 24 23  1  0  0  0  0
 25 24  2  0  0  0  0
 26 25  1  0  0  0  0
 26 21  2  0  0  0  0
 30 25  1  0  0  0  0
 31 26  1  0  0  0  0
M  END
>  <minimizedAffinity>
-5.40015745

$$$$

 OpenBabel03272509063D

 31 33  0  0  0  0  0  0  0  0999 V2000
   36.6150   28.4730   32.4240 C   0  0  0  0  0  3  0  0  0  0  0  0
   35.7570   28.7010   33.3770 C   0  0  0  0  0  3  0  0  0  0  0  0
   39.6970   26.5240   32.1540 C   0  0  0  0  0  0  0  0  0  0  0  0
   39.5680   25.6220   33.2340 C   0  0  0  0  0  0  0  0  0  0  0  0
   38.4020   25.7290   34.0210 C   0  0  0  0  0  0  0  0  0  0  0  0
   37.4920   26.6770   33.6960 N   0  0  0  0  0  0  0  0  0  0  0  0
   37.6680   27.5120   32.6530 C   0  0  0  0  0  0  0  0  0  0  0  0
   38.7730   27.4290   31.8860 N   0  0  0  0  0  0  0  0  0  0  0  0
   40.6080   26.4250   31.5540 H   0  0  0  0  0  0  0  0  0  0  0  0
   40.3120   24.8740   33.4710 H   0  0  0  0  0  0  0  0  0  0  0  0
   38.2310   24.8160   35.1450 C   0  0  0  0  0  0  0  0  0  0  0  0
   38.1180   25.3260   36.4170 C   0  0  0  0  0  3  0  0  0  0  0  0
   37.9600   24.3390   37.3870 C   0  0  0  0  0  0  0  0  0  0  0  0
   37.8620   24.6630   38.4330 H   0  0  0  0  0  0  0  0  0  0  0  0
   37.9200   23.0250   37.1310 N   0  0  0  0  0  0  0  0  0  0  0  0
   38.0350   22.5980   35.8750 C   0  0  0  0  0  3  0  0  0  0  0  0
   38.1930   23.5000   34.8760 N   0  0  0  0  0  0  0  0  0  0  0  0
   34.6190   29.6290   33.3570 C   0  0  0  0  0  0  0  0  0  0  0  0
   34.6780   30.3180   32.4810 H   0  0  0  0  0  0  0  0  0  0  0  0
   33.6580   29.0890   33.2750 H   0  0  0  0  0  0  0  0  0  0  0  0
   34.5320   30.4410   34.6180 C   0  0  0  0  0  0  0  0  0  0  0  0
   33.4020   30.6060   35.3750 C   0  0  0  0  0  0  0  0  0  0  0  0
   33.4170   31.3740   36.5220 C   0  0  0  0  0  0  0  0  0  0  0  0
   34.6050   32.0040   36.9370 C   0  0  0  0  0  0  0  0  0  0  0  0
   35.7390   31.8460   36.1890 C   0  0  0  0  0  0  0  0  0  0  0  0
   35.7030   31.0770   35.0480 C   0  0  0  0  0  0  0  0  0  0  0  0
   32.5110   30.1170   35.0390 H   0  0  0  0  0  0  0  0  0  0  0  0
   32.5230   31.5040   37.1190 H   0  0  0  0  0  0  0  0  0  0  0  0
   34.6700   32.6170   37.8290 H   0  0  0  0  0  0  0  0  0  0  0  0
   36.6850   32.3060   36.4560 H   0  0  0  0  0  0  0  0  0  0  0  0
   36.5930   30.9590   34.4710 H   0  0  0  0  0  0  0  0  0  0  0  0
  1  7  1  0  0  0  0
  1  2  2  0  0  0  0
  3  4  1  0  0  0  0
  4 10  1  0  0  0  0
  4  5  2  0  0  0  0
  5 11  1  0  0  0  0
  6  5  1  0  0  0  0
  7  6  2  0  0  0  0
  8  3  2  0  0  0  0
  8  7  1  0  0  0  0
  9  3  1  0  0  0  0
 11 12  1  0  0  0  0
 12 13  2  0  0  0  0
 13 14  1  0  0  0  0
 15 13  1  0  0  0  0
 16 15  2  0  0  0  0
 17 11  2  0  0  0  0
 17 16  1  0  0  0  0
 18  2  1  0  0  0  0
 18 21  1  0  0  0  0
 19 18  1  0  0  0  0
 20 18  1  0  0  0  0
 21 26  2  0  0  0  0
 21 22  1  0  0  0  0
 22 23  2  0  0  0  0
 23 24  1  0  0  0  0
 23 28  1  0  0  0  0
 24 29  1  0  0  0  0
 25 30  1  0  0  0  0
 25 24  2  0  0  0  0
 26 25  1  0  0  0  0
 27 22  1  0  0  0  0
 31 26  1  0  0  0  0
M  END
>  <minimizedAffinity>
-5.37093401

$$$$

 OpenBabel03272509063D

 31 33  0  0  0  0  0  0  0  0999 V2000
   36.8030   25.2730   32.4120 C   0  0  0  0  0  3  0  0  0  0  0  0
   36.9870   23.9950   32.2470 C   0  0  0  0  0  3  0  0  0  0  0  0
   37.6510   27.2670   35.3580 C   0  0  0  0  0  0  0  0  0  0  0  0
   39.0600   27.1640   35.3850 C   0  0  0  0  0  0  0  0  0  0  0  0
   39.6650   26.3980   34.3670 C   0  0  0  0  0  0  0  0  0  0  0  0
   38.8680   25.8170   33.4400 N   0  0  0  0  0  0  0  0  0  0  0  0
   37.5270   25.9490   33.4640 C   0  0  0  0  0  0  0  0  0  0  0  0
   36.9260   26.6750   34.4260 N   0  0  0  0  0  0  0  0  0  0  0  0
   37.2000   27.8660   36.1570 H   0  0  0  0  0  0  0  0  0  0  0  0
   39.6720   27.6390   36.1390 H   0  0  0  0  0  0  0  0  0  0  0  0
   41.1170   26.2670   34.3590 C   0  0  0  0  0  0  0  0  0  0  0  0
   41.8760   27.2100   33.7070 C   0  0  0  0  0  3  0  0  0  0  0  0
   43.2430   26.9570   33.7830 C   0  0  0  0  0  0  0  0  0  0  0  0
   43.9220   27.6650   33.2870 H   0  0  0  0  0  0  0  0  0  0  0  0
   43.7850   25.9110   34.4210 N   0  0  0  0  0  0  0  0  0  0  0  0
   42.9930   25.0340   35.0330 C   0  0  0  0  0  3  0  0  0  0  0  0
   41.6500   25.2140   35.0020 N   0  0  0  0  0  0  0  0  0  0  0  0
   36.3590   23.1200   31.2490 C   0  0  0  0  0  0  0  0  0  0  0  0
   35.4150   23.5700   30.8570 H   0  0  0  0  0  0  0  0  0  0  0  0
   37.0220   22.9590   30.3780 H   0  0  0  0  0  0  0  0  0  0  0  0
   36.0630   21.7550   31.8020 C   0  0  0  0  0  0  0  0  0  0  0  0
   35.8050   21.4760   33.1180 C   0  0  0  0  0  0  0  0  0  0  0  0
   35.5430   20.1860   33.5360 C   0  0  0  0  0  0  0  0  0  0  0  0
   35.5380   19.1280   32.6080 C   0  0  0  0  0  0  0  0  0  0  0  0
   35.7950   19.3960   31.2920 C   0  0  0  0  0  0  0  0  0  0  0  0
   36.0540   20.6890   30.8960 C   0  0  0  0  0  0  0  0  0  0  0  0
   35.8140   22.2970   33.8050 H   0  0  0  0  0  0  0  0  0  0  0  0
   35.3390   19.9670   34.5770 H   0  0  0  0  0  0  0  0  0  0  0  0
   35.3380   18.1000   32.8840 H   0  0  0  0  0  0  0  0  0  0  0  0
   35.8050   18.6240   30.5290 H   0  0  0  0  0  0  0  0  0  0  0  0
   36.2530   20.8880   29.8660 H   0  0  0  0  0  0  0  0  0  0  0  0
  1  7  1  0  0  0  0
  2  1  2  0  0  0  0
  3  4  1  0  0  0  0
  3  9  1  0  0  0  0
  4 10  1  0  0  0  0
  5  4  2  0  0  0  0
  6  7  2  0  0  0  0
  6  5  1  0  0  0  0
  7  8  1  0  0  0  0
  8  3  2  0  0  0  0
 11  5  1  0  0  0  0
 11 17  1  0  0  0  0
 12 13  1  0  0  0  0
 12 11  2  0  0  0  0
 13 15  2  0  0  0  0
 14 13  1  0  0  0  0
 15 16  1  0  0  0  0
 17 16  2  0  0  0  0
 18 21  1  0  0  0  0
 18  2  1  0  0  0  0
 19 18  1  0  0  0  0
 20 18  1  0  0  0  0
 21 22  1  0  0  0  0
 22 23  2  0  0  0  0
 22 27  1  0  0  0  0
 23 28  1  0  0  0  0
 24 29  1  0  0  0  0
 24 23  1  0  0  0  0
 25 24  2  0  0  0  0
 26 25  1  0  0  0  0
 26 21  2  0  0  0  0
 30 25  1  0  0  0  0
 31 26  1  0  0  0  0
M  END
>  <minimizedAffinity>
-5.24554443

$$$$

 OpenBabel03272509063D

 31 33  0  0  0  0  0  0  0  0999 V2000
   38.0520   26.5510   35.8050 C   0  0  0  0  0  3  0  0  0  0  0  0
   37.8270   25.2790   35.9730 C   0  0  0  0  0  3  0  0  0  0  0  0
   37.8860   27.5720   32.2970 C   0  0  0  0  0  0  0  0  0  0  0  0
   36.7550   28.4190   32.2920 C   0  0  0  0  0  0  0  0  0  0  0  0
   36.0890   28.6030   33.5220 C   0  0  0  0  0  0  0  0  0  0  0  0
   36.5690   27.9650   34.6150 N   0  0  0  0  0  0  0  0  0  0  0  0
   37.6530   27.1670   34.5600 C   0  0  0  0  0  0  0  0  0  0  0  0
   38.3070   26.9750   33.3980 N   0  0  0  0  0  0  0  0  0  0  0  0
   38.3900   27.4420   31.3330 H   0  0  0  0  0  0  0  0  0  0  0  0
   36.3940   28.9160   31.4030 H   0  0  0  0  0  0  0  0  0  0  0  0
   34.9170   29.4700   33.5590 C   0  0  0  0  0  0  0  0  0  0  0  0
   34.6430   30.1860   34.7010 C   0  0  0  0  0  3  0  0  0  0  0  0
   33.4970   30.9680   34.5910 C   0  0  0  0  0  0  0  0  0  0  0  0
   33.2070   31.5730   35.4620 H   0  0  0  0  0  0  0  0  0  0  0  0
   32.7260   31.0330   33.4980 N   0  0  0  0  0  0  0  0  0  0  0  0
   33.0470   30.3130   32.4250 C   0  0  0  0  0  3  0  0  0  0  0  0
   34.1510   29.5260   32.4570 N   0  0  0  0  0  0  0  0  0  0  0  0
   38.1480   24.4600   37.1490 C   0  0  0  0  0  0  0  0  0  0  0  0
   38.4180   25.0990   38.0230 H   0  0  0  0  0  0  0  0  0  0  0  0
   37.2850   23.8420   37.4590 H   0  0  0  0  0  0  0  0  0  0  0  0
   39.2690   23.4980   36.8760 C   0  0  0  0  0  0  0  0  0  0  0  0
   39.9480   22.7850   37.8290 C   0  0  0  0  0  0  0  0  0  0  0  0
   40.9680   21.9220   37.4830 C   0  0  0  0  0  0  0  0  0  0  0  0
   41.3310   21.7600   36.1330 C   0  0  0  0  0  0  0  0  0  0  0  0
   40.6600   22.4670   35.1740 C   0  0  0  0  0  0  0  0  0  0  0  0
   39.6460   23.3230   35.5400 C   0  0  0  0  0  0  0  0  0  0  0  0
   39.6530   22.9260   38.8490 H   0  0  0  0  0  0  0  0  0  0  0  0
   41.5040   21.3590   38.2370 H   0  0  0  0  0  0  0  0  0  0  0  0
   42.1240   21.0960   35.8090 H   0  0  0  0  0  0  0  0  0  0  0  0
   40.8930   22.3850   34.1160 H   0  0  0  0  0  0  0  0  0  0  0  0
   39.1280   23.8700   34.7840 H   0  0  0  0  0  0  0  0  0  0  0  0
  1  2  2  0  0  0  0
  2 18  1  0  0  0  0
  3  8  1  0  0  0  0
  4  3  2  0  0  0  0
  4  5  1  0  0  0  0
  5 11  1  0  0  0  0
  5  6  2  0  0  0  0
  7  6  1  0  0  0  0
  7  1  1  0  0  0  0
  8  7  2  0  0  0  0
  9  3  1  0  0  0  0
 10  4  1  0  0  0  0
 11 12  1  0  0  0  0
 13 12  2  0  0  0  0
 13 14  1  0  0  0  0
 15 13  1  0  0  0  0
 16 17  1  0  0  0  0
 16 15  2  0  0  0  0
 17 11  2  0  0  0  0
 18 20  1  0  0  0  0
 18 19  1  0  0  0  0
 21 18  1  0  0  0  0
 21 22  1  0  0  0  0
 22 27  1  0  0  0  0
 23 22  2  0  0  0  0
 23 28  1  0  0  0  0
 24 23  1  0  0  0  0
 25 26  1  0  0  0  0
 25 24  2  0  0  0  0
 26 21  2  0  0  0  0
 29 24  1  0  0  0  0
 30 25  1  0  0  0  0
 31 26  1  0  0  0  0
M  END
>  <minimizedAffinity>
-5.21027994

$$$$
