
 OpenBabel03272506493D

 40 43  0  0  1  0  0  0  0  0999 V2000
   38.1000   24.9890   31.3690 C   0  0  2  0  0  0  0  0  0  0  0  0
   37.8680   23.6060   31.9030 C   0  0  1  0  0  0  0  0  0  0  0  0
   37.7710   23.6910   33.2590 O   0  0  0  0  0  0  0  0  0  0  0  0
   37.6410   25.0250   33.6320 C   0  0  0  0  0  0  0  0  0  0  0  0
   37.2450   25.7940   32.3930 C   0  0  1  0  0  0  0  0  0  0  0  0
   39.1190   25.3600   31.4450 H   0  0  0  0  0  0  0  0  0  0  0  0
   38.6760   22.9130   31.5800 H   0  0  0  0  0  0  0  0  0  0  0  0
   38.5800   25.3060   34.0890 H   0  0  0  0  0  0  0  0  0  0  0  0
   36.8090   25.1020   34.4010 H   0  0  0  0  0  0  0  0  0  0  0  0
   36.1990   25.6410   32.1430 H   0  0  0  0  0  0  0  0  0  0  0  0
   37.5320   25.1260   30.0870 O   0  0  0  0  0  0  0  0  0  0  0  0
   37.6030   24.2650   29.6030 H   0  0  0  0  0  0  0  0  0  0  0  0
   36.2470   23.0270   31.2590 S   0  0  0  0  0  0  0  0  0  0  0  0
   35.4350   19.8720   33.5130 C   0  0  0  0  0  0  0  0  0  0  0  0
   35.5840   18.7730   32.6690 C   0  0  0  0  0  0  0  0  0  0  0  0
   35.9530   19.0190   31.3360 C   0  0  0  0  0  0  0  0  0  0  0  0
   36.1450   20.3070   30.9420 N   0  0  0  0  0  0  0  0  0  0  0  0
   35.9900   21.3410   31.7980 C   0  0  0  0  0  0  0  0  0  0  0  0
   35.6320   21.1390   33.0930 N   0  0  0  0  0  0  0  0  0  0  0  0
   35.1490   19.6230   34.5260 H   0  0  0  0  0  0  0  0  0  0  0  0
   35.4200   17.7660   33.0260 H   0  0  0  0  0  0  0  0  0  0  0  0
   36.0810   18.2010   30.6400 H   0  0  0  0  0  0  0  0  0  0  0  0
   37.6900   27.0870   32.5040 O   0  0  0  0  0  0  0  0  0  0  0  0
   36.6620   28.1870   35.0330 Cl  0  0  0  0  0  0  0  0  0  0  0  0
   36.4210   28.7860   33.4070 C   0  0  0  0  0  0  0  0  0  0  0  0
   36.9690   28.1850   32.2970 C   0  0  0  0  0  0  0  0  0  0  0  0
   36.7310   28.7710   31.0520 C   0  0  0  0  0  0  0  0  0  0  0  0
   35.9680   29.9150   30.9480 C   0  0  0  0  0  0  0  0  0  0  0  0
   35.4130   30.5240   32.0610 C   0  0  0  0  0  0  0  0  0  0  0  0
   35.6490   29.9460   33.2920 C   0  0  0  0  0  0  0  0  0  0  0  0
   37.1180   28.3820   30.1270 H   0  0  0  0  0  0  0  0  0  0  0  0
   35.7840   30.3660   29.9850 H   0  0  0  0  0  0  0  0  0  0  0  0
   34.8280   31.4160   31.9140 H   0  0  0  0  0  0  0  0  0  0  0  0
   35.0920   30.5410   34.5010 C   0  0  0  0  0  0  0  0  0  0  0  0
   35.7850   31.4000   35.3140 C   0  0  0  0  0  3  0  0  0  0  0  0
   35.2670   31.9710   36.4640 C   0  0  0  0  0  0  0  0  0  0  0  0
   35.8360   32.6410   37.0810 H   0  0  0  0  0  0  0  0  0  0  0  0
   34.0000   31.6760   36.8260 N   0  0  0  0  0  0  0  0  0  0  0  0
   33.3010   30.8340   36.0420 C   0  0  0  0  0  3  0  0  0  0  0  0
   33.8350   30.2960   34.9300 N   0  0  0  0  0  0  0  0  0  0  0  0
  1  6  1  1  0  0  0
  1  2  1  0  0  0  0
  1  5  1  0  0  0  0
  2  7  1  6  0  0  0
  2  3  1  0  0  0  0
  3  4  1  0  0  0  0
  4  8  1  0  0  0  0
  4  9  1  0  0  0  0
  5 10  1  6  0  0  0
  5 23  1  0  0  0  0
  5  4  1  0  0  0  0
 11  1  1  0  0  0  0
 12 11  1  0  0  0  0
 13 18  1  0  0  0  0
 13  2  1  0  0  0  0
 14 20  1  0  0  0  0
 15 21  1  0  0  0  0
 15 14  2  0  0  0  0
 16 15  1  0  0  0  0
 17 16  2  0  0  0  0
 17 18  1  0  0  0  0
 18 19  2  0  0  0  0
 19 14  1  0  0  0  0
 22 16  1  0  0  0  0
 25 24  1  0  0  0  0
 26 23  1  0  0  0  0
 26 25  2  0  0  0  0
 27 26  1  0  0  0  0
 28 27  2  0  0  0  0
 28 29  1  0  0  0  0
 29 30  2  0  0  0  0
 30 25  1  0  0  0  0
 30 34  1  0  0  0  0
 31 27  1  0  0  0  0
 32 28  1  0  0  0  0
 33 29  1  0  0  0  0
 34 40  2  0  0  0  0
 34 35  1  0  0  0  0
 35 36  2  0  0  0  0
 36 38  1  0  0  0  0
 36 37  1  0  0  0  0
 39 38  2  0  0  0  0
 40 39  1  0  0  0  0
M  END
>  <minimizedAffinity>
-5.84977341

$$$$

 OpenBabel03272506493D

 40 43  0  0  1  0  0  0  0  0999 V2000
   37.1040   28.0320   32.9430 C   0  0  2  0  0  0  0  0  0  0  0  0
   36.2040   29.0750   32.3500 C   0  0  1  0  0  0  0  0  0  0  0  0
   35.9600   28.7320   31.0550 O   0  0  0  0  0  0  0  0  0  0  0  0
   36.3890   27.4280   30.8320 C   0  0  0  0  0  0  0  0  0  0  0  0
   36.5630   26.7820   32.1860 C   0  0  1  0  0  0  0  0  0  0  0  0
   38.1590   28.1220   32.6930 H   0  0  0  0  0  0  0  0  0  0  0  0
   36.6530   30.0890   32.4420 H   0  0  0  0  0  0  0  0  0  0  0  0
   37.2770   27.5000   30.2190 H   0  0  0  0  0  0  0  0  0  0  0  0
   35.5780   26.8780   30.2580 H   0  0  0  0  0  0  0  0  0  0  0  0
   35.6080   26.5150   32.6300 H   0  0  0  0  0  0  0  0  0  0  0  0
   36.8500   27.8820   34.3210 O   0  0  0  0  0  0  0  0  0  0  0  0
   36.5970   28.7590   34.7040 H   0  0  0  0  0  0  0  0  0  0  0  0
   34.6070   29.0090   33.2590 S   0  0  0  0  0  0  0  0  0  0  0  0
   33.5160   31.4410   36.1900 C   0  0  0  0  0  0  0  0  0  0  0  0
   34.7010   32.0090   36.6530 C   0  0  0  0  0  0  0  0  0  0  0  0
   35.8990   31.6210   36.0280 C   0  0  0  0  0  0  0  0  0  0  0  0
   35.8370   30.7180   35.0110 N   0  0  0  0  0  0  0  0  0  0  0  0
   34.6640   30.1950   34.5970 C   0  0  0  0  0  0  0  0  0  0  0  0
   33.4880   30.5470   35.1800 N   0  0  0  0  0  0  0  0  0  0  0  0
   32.6280   31.7760   36.7080 H   0  0  0  0  0  0  0  0  0  0  0  0
   34.7020   32.7230   37.4640 H   0  0  0  0  0  0  0  0  0  0  0  0
   36.8450   32.0320   36.3480 H   0  0  0  0  0  0  0  0  0  0  0  0
   37.5190   25.8010   32.0990 O   0  0  0  0  0  0  0  0  0  0  0  0
   39.1220   25.5310   34.5520 Cl  0  0  0  0  0  0  0  0  0  0  0  0
   38.1530   24.3190   33.7450 C   0  0  0  0  0  0  0  0  0  0  0  0
   37.4310   24.5730   32.6010 C   0  0  0  0  0  0  0  0  0  0  0  0
   36.6710   23.5330   32.0630 C   0  0  0  0  0  0  0  0  0  0  0  0
   36.6490   22.2930   32.6660 C   0  0  0  0  0  0  0  0  0  0  0  0
   37.3720   22.0300   33.8170 C   0  0  0  0  0  0  0  0  0  0  0  0
   38.1250   23.0580   34.3500 C   0  0  0  0  0  0  0  0  0  0  0  0
   36.0700   23.6320   31.1760 H   0  0  0  0  0  0  0  0  0  0  0  0
   36.0610   21.4900   32.2490 H   0  0  0  0  0  0  0  0  0  0  0  0
   37.3140   21.0430   34.2410 H   0  0  0  0  0  0  0  0  0  0  0  0
   38.9070   22.8440   35.5610 C   0  0  0  0  0  0  0  0  0  0  0  0
   40.1490   22.2640   35.5700 C   0  0  0  0  0  3  0  0  0  0  0  0
   40.9020   22.0540   36.7130 C   0  0  0  0  0  0  0  0  0  0  0  0
   41.8730   21.5970   36.6870 H   0  0  0  0  0  0  0  0  0  0  0  0
   40.3990   22.4380   37.9060 N   0  0  0  0  0  0  0  0  0  0  0  0
   39.1800   23.0090   37.9200 C   0  0  0  0  0  3  0  0  0  0  0  0
   38.4740   23.1990   36.7900 N   0  0  0  0  0  0  0  0  0  0  0  0
  1  6  1  6  0  0  0
  1 11  1  0  0  0  0
  2  7  1  1  0  0  0
  2  1  1  0  0  0  0
  2 13  1  0  0  0  0
  3  2  1  0  0  0  0
  4  3  1  0  0  0  0
  4  5  1  0  0  0  0
  5 10  1  1  0  0  0
  5  1  1  0  0  0  0
  8  4  1  0  0  0  0
  9  4  1  0  0  0  0
 11 12  1  0  0  0  0
 13 18  1  0  0  0  0
 14 15  1  0  0  0  0
 14 20  1  0  0  0  0
 15 21  1  0  0  0  0
 16 22  1  0  0  0  0
 16 15  2  0  0  0  0
 17 16  1  0  0  0  0
 18 17  2  0  0  0  0
 18 19  1  0  0  0  0
 19 14  2  0  0  0  0
 23  5  1  0  0  0  0
 23 26  1  0  0  0  0
 25 30  1  0  0  0  0
 25 24  1  0  0  0  0
 26 25  2  0  0  0  0
 27 26  1  0  0  0  0
 27 28  2  0  0  0  0
 28 29  1  0  0  0  0
 29 33  1  0  0  0  0
 29 30  2  0  0  0  0
 30 34  1  0  0  0  0
 31 27  1  0  0  0  0
 32 28  1  0  0  0  0
 34 35  2  0  0  0  0
 34 40  1  0  0  0  0
 35 36  1  0  0  0  0
 36 38  2  0  0  0  0
 37 36  1  0  0  0  0
 38 39  1  0  0  0  0
 40 39  2  0  0  0  0
M  END
>  <minimizedAffinity>
-5.63056898

$$$$

 OpenBabel03272506493D

 40 43  0  0  1  0  0  0  0  0999 V2000
   37.0550   28.1790   33.0130 C   0  0  2  0  0  0  0  0  0  0  0  0
   36.1170   29.2020   32.4430 C   0  0  1  0  0  0  0  0  0  0  0  0
   35.8610   28.8620   31.1490 O   0  0  0  0  0  0  0  0  0  0  0  0
   36.3220   27.5720   30.9090 C   0  0  0  0  0  0  0  0  0  0  0  0
   36.5350   26.9200   32.2550 C   0  0  1  0  0  0  0  0  0  0  0  0
   38.1030   28.2990   32.7470 H   0  0  0  0  0  0  0  0  0  0  0  0
   36.5400   30.2270   32.5350 H   0  0  0  0  0  0  0  0  0  0  0  0
   37.1980   27.6730   30.2830 H   0  0  0  0  0  0  0  0  0  0  0  0
   35.5170   27.0040   30.3430 H   0  0  0  0  0  0  0  0  0  0  0  0
   35.5950   26.6250   32.7120 H   0  0  0  0  0  0  0  0  0  0  0  0
   36.8280   28.0120   34.3930 O   0  0  0  0  0  0  0  0  0  0  0  0
   36.5580   28.8790   34.7880 H   0  0  0  0  0  0  0  0  0  0  0  0
   34.5380   29.0860   33.3770 S   0  0  0  0  0  0  0  0  0  0  0  0
   35.8390   31.7190   36.0350 C   0  0  0  0  0  0  0  0  0  0  0  0
   34.7220   32.0450   36.8030 C   0  0  0  0  0  0  0  0  0  0  0  0
   33.5050   31.4200   36.4820 C   0  0  0  0  0  0  0  0  0  0  0  0
   33.4820   30.5360   35.4480 N   0  0  0  0  0  0  0  0  0  0  0  0
   34.5910   30.2510   34.7330 C   0  0  0  0  0  0  0  0  0  0  0  0
   35.7840   30.8380   35.0150 N   0  0  0  0  0  0  0  0  0  0  0  0
   36.7460   32.2300   36.3270 H   0  0  0  0  0  0  0  0  0  0  0  0
   34.7880   32.7540   37.6160 H   0  0  0  0  0  0  0  0  0  0  0  0
   32.6090   31.6370   37.0470 H   0  0  0  0  0  0  0  0  0  0  0  0
   37.5160   25.9670   32.1440 O   0  0  0  0  0  0  0  0  0  0  0  0
   36.3610   23.5710   30.8830 Cl  0  0  0  0  0  0  0  0  0  0  0  0
   37.1450   23.7120   32.4410 C   0  0  0  0  0  0  0  0  0  0  0  0
   37.6600   24.8950   32.9180 C   0  0  0  0  0  0  0  0  0  0  0  0
   38.2890   24.8790   34.1650 C   0  0  0  0  0  0  0  0  0  0  0  0
   38.3860   23.7090   34.8880 C   0  0  0  0  0  0  0  0  0  0  0  0
   37.8700   22.5150   34.4140 C   0  0  0  0  0  0  0  0  0  0  0  0
   37.2480   22.5300   33.1810 C   0  0  0  0  0  0  0  0  0  0  0  0
   38.7270   25.7490   34.6220 H   0  0  0  0  0  0  0  0  0  0  0  0
   38.8730   23.6980   35.8510 H   0  0  0  0  0  0  0  0  0  0  0  0
   37.9780   21.6350   35.0250 H   0  0  0  0  0  0  0  0  0  0  0  0
   36.6850   21.3040   32.6290 C   0  0  0  0  0  0  0  0  0  0  0  0
   37.4320   20.3380   32.0070 C   0  0  0  0  0  3  0  0  0  0  0  0
   36.9080   19.1700   31.4780 C   0  0  0  0  0  0  0  0  0  0  0  0
   37.5210   18.4310   30.9970 H   0  0  0  0  0  0  0  0  0  0  0  0
   35.5790   18.9490   31.5700 N   0  0  0  0  0  0  0  0  0  0  0  0
   34.8270   19.8870   32.1770 C   0  0  0  0  0  3  0  0  0  0  0  0
   35.3670   21.0110   32.6800 N   0  0  0  0  0  0  0  0  0  0  0  0
  1  6  1  6  0  0  0
  1 11  1  0  0  0  0
  2  7  1  1  0  0  0
  2  1  1  0  0  0  0
  2 13  1  0  0  0  0
  3  2  1  0  0  0  0
  4  3  1  0  0  0  0
  4  5  1  0  0  0  0
  5 10  1  1  0  0  0
  5  1  1  0  0  0  0
  8  4  1  0  0  0  0
  9  4  1  0  0  0  0
 11 12  1  0  0  0  0
 13 18  1  0  0  0  0
 14 20  1  0  0  0  0
 14 15  1  0  0  0  0
 15 21  1  0  0  0  0
 16 15  2  0  0  0  0
 16 22  1  0  0  0  0
 17 16  1  0  0  0  0
 18 19  1  0  0  0  0
 18 17  2  0  0  0  0
 19 14  2  0  0  0  0
 23  5  1  0  0  0  0
 23 26  1  0  0  0  0
 24 25  1  0  0  0  0
 25 26  2  0  0  0  0
 25 30  1  0  0  0  0
 26 27  1  0  0  0  0
 27 31  1  0  0  0  0
 27 28  2  0  0  0  0
 28 32  1  0  0  0  0
 29 28  1  0  0  0  0
 29 33  1  0  0  0  0
 30 29  2  0  0  0  0
 34 40  1  0  0  0  0
 34 30  1  0  0  0  0
 35 34  2  0  0  0  0
 36 38  2  0  0  0  0
 36 35  1  0  0  0  0
 37 36  1  0  0  0  0
 38 39  1  0  0  0  0
 39 40  2  0  0  0  0
M  END
>  <minimizedAffinity>
-5.37476492

$$$$

 OpenBabel03272506493D

 40 43  0  0  1  0  0  0  0  0999 V2000
   38.6630   24.5510   32.3520 C   0  0  2  0  0  0  0  0  0  0  0  0
   39.2550   23.3980   33.1090 C   0  0  1  0  0  0  0  0  0  0  0  0
   40.2290   23.8880   33.9250 O   0  0  0  0  0  0  0  0  0  0  0  0
   40.1390   25.2750   33.9740 C   0  0  0  0  0  0  0  0  0  0  0  0
   38.7710   25.6480   33.4530 C   0  0  1  0  0  0  0  0  0  0  0  0
   39.2390   24.9000   31.4990 H   0  0  0  0  0  0  0  0  0  0  0  0
   39.6380   22.6180   32.4140 H   0  0  0  0  0  0  0  0  0  0  0  0
   40.9830   25.6540   33.4150 H   0  0  0  0  0  0  0  0  0  0  0  0
   40.2280   25.6010   35.0580 H   0  0  0  0  0  0  0  0  0  0  0  0
   37.9950   25.4550   34.1890 H   0  0  0  0  0  0  0  0  0  0  0  0
   37.3030   24.3120   32.0710 O   0  0  0  0  0  0  0  0  0  0  0  0
   37.1660   23.3450   31.9140 H   0  0  0  0  0  0  0  0  0  0  0  0
   37.9310   22.6960   34.1740 S   0  0  0  0  0  0  0  0  0  0  0  0
   37.9060   24.0810   37.8850 C   0  0  0  0  0  0  0  0  0  0  0  0
   38.9860   23.4630   38.5130 C   0  0  0  0  0  0  0  0  0  0  0  0
   39.7610   22.5730   37.7510 C   0  0  0  0  0  0  0  0  0  0  0  0
   39.4190   22.3630   36.4500 N   0  0  0  0  0  0  0  0  0  0  0  0
   38.3630   22.9870   35.8850 C   0  0  0  0  0  0  0  0  0  0  0  0
   37.5910   23.8530   36.5930 N   0  0  0  0  0  0  0  0  0  0  0  0
   37.3460   24.7550   38.5200 H   0  0  0  0  0  0  0  0  0  0  0  0
   39.2200   23.6600   39.5500 H   0  0  0  0  0  0  0  0  0  0  0  0
   40.6100   22.0670   38.1890 H   0  0  0  0  0  0  0  0  0  0  0  0
   38.8260   26.9030   32.9010 O   0  0  0  0  0  0  0  0  0  0  0  0
   37.3310   28.1820   35.0890 Cl  0  0  0  0  0  0  0  0  0  0  0  0
   37.0070   28.2380   33.3710 C   0  0  0  0  0  0  0  0  0  0  0  0
   37.7940   27.6020   32.4380 C   0  0  0  0  0  0  0  0  0  0  0  0
   37.4530   27.7420   31.0910 C   0  0  0  0  0  0  0  0  0  0  0  0
   36.3600   28.4950   30.7170 C   0  0  0  0  0  0  0  0  0  0  0  0
   35.5630   29.1360   31.6510 C   0  0  0  0  0  0  0  0  0  0  0  0
   35.9000   28.9990   32.9830 C   0  0  0  0  0  0  0  0  0  0  0  0
   38.0060   27.2900   30.2870 H   0  0  0  0  0  0  0  0  0  0  0  0
   36.0970   28.6020   29.6760 H   0  0  0  0  0  0  0  0  0  0  0  0
   34.7240   29.7090   31.2970 H   0  0  0  0  0  0  0  0  0  0  0  0
   35.1010   29.6500   34.0130 C   0  0  0  0  0  0  0  0  0  0  0  0
   33.8480   29.2320   34.3810 C   0  0  0  0  0  3  0  0  0  0  0  0
   33.0790   29.8420   35.3570 C   0  0  0  0  0  0  0  0  0  0  0  0
   32.1000   29.4900   35.6230 H   0  0  0  0  0  0  0  0  0  0  0  0
   33.5760   30.9200   36.0010 N   0  0  0  0  0  0  0  0  0  0  0  0
   34.8050   31.3490   35.6550 C   0  0  0  0  0  3  0  0  0  0  0  0
   35.5260   30.7320   34.7010 N   0  0  0  0  0  0  0  0  0  0  0  0
  1  6  1  6  0  0  0
  1  2  1  0  0  0  0
  1  5  1  0  0  0  0
  2  7  1  6  0  0  0
  2  3  1  0  0  0  0
  2 13  1  0  0  0  0
  3  4  1  0  0  0  0
  4  9  1  0  0  0  0
  5  4  1  0  0  0  0
  5 10  1  1  0  0  0
  8  4  1  0  0  0  0
 11  1  1  0  0  0  0
 12 11  1  0  0  0  0
 13 18  1  0  0  0  0
 14 15  1  0  0  0  0
 14 20  1  0  0  0  0
 15 21  1  0  0  0  0
 16 22  1  0  0  0  0
 16 15  2  0  0  0  0
 17 16  1  0  0  0  0
 18 17  2  0  0  0  0
 18 19  1  0  0  0  0
 19 14  2  0  0  0  0
 23  5  1  0  0  0  0
 25 24  1  0  0  0  0
 26 23  1  0  0  0  0
 26 25  2  0  0  0  0
 27 26  1  0  0  0  0
 28 27  2  0  0  0  0
 28 29  1  0  0  0  0
 29 30  2  0  0  0  0
 30 25  1  0  0  0  0
 30 34  1  0  0  0  0
 31 27  1  0  0  0  0
 32 28  1  0  0  0  0
 33 29  1  0  0  0  0
 34 35  2  0  0  0  0
 34 40  1  0  0  0  0
 35 36  1  0  0  0  0
 36 37  1  0  0  0  0
 36 38  2  0  0  0  0
 39 38  1  0  0  0  0
 40 39  2  0  0  0  0
M  END
>  <minimizedAffinity>
-5.3006506

$$$$

 OpenBabel03272506493D

 40 43  0  0  1  0  0  0  0  0999 V2000
   37.9940   27.3250   30.3700 C   0  0  2  0  0  0  0  0  0  0  0  0
   36.6650   28.0140   30.2720 C   0  0  1  0  0  0  0  0  0  0  0  0
   35.7480   27.2550   30.9330 O   0  0  0  0  0  0  0  0  0  0  0  0
   36.4050   26.2840   31.6820 C   0  0  0  0  0  0  0  0  0  0  0  0
   37.8490   26.7130   31.7960 C   0  0  1  0  0  0  0  0  0  0  0  0
   38.1470   26.4960   29.6830 H   0  0  0  0  0  0  0  0  0  0  0  0
   36.3830   28.1890   29.2090 H   0  0  0  0  0  0  0  0  0  0  0  0
   36.2240   25.3410   31.1840 H   0  0  0  0  0  0  0  0  0  0  0  0
   35.9410   26.2580   32.7190 H   0  0  0  0  0  0  0  0  0  0  0  0
   37.9730   27.5190   32.5140 H   0  0  0  0  0  0  0  0  0  0  0  0
   39.0420   28.2670   30.3770 O   0  0  0  0  0  0  0  0  0  0  0  0
   38.7950   29.0360   29.8060 H   0  0  0  0  0  0  0  0  0  0  0  0
   36.8070   29.6200   31.1560 S   0  0  0  0  0  0  0  0  0  0  0  0
   33.2290   30.3850   32.6740 C   0  0  0  0  0  0  0  0  0  0  0  0
   33.3110   30.0030   34.0120 C   0  0  0  0  0  0  0  0  0  0  0  0
   34.5340   29.4820   34.4680 C   0  0  0  0  0  0  0  0  0  0  0  0
   35.5660   29.3790   33.5860 N   0  0  0  0  0  0  0  0  0  0  0  0
   35.4380   29.7640   32.2980 C   0  0  0  0  0  0  0  0  0  0  0  0
   34.2710   30.2710   31.8230 N   0  0  0  0  0  0  0  0  0  0  0  0
   32.2660   30.7780   32.3800 H   0  0  0  0  0  0  0  0  0  0  0  0
   32.4650   30.1020   34.6770 H   0  0  0  0  0  0  0  0  0  0  0  0
   34.6500   29.1700   35.4970 H   0  0  0  0  0  0  0  0  0  0  0  0
   38.6390   25.6020   31.9430 O   0  0  0  0  0  0  0  0  0  0  0  0
   39.2130   25.7960   34.8230 Cl  0  0  0  0  0  0  0  0  0  0  0  0
   38.5440   24.4460   33.9340 C   0  0  0  0  0  0  0  0  0  0  0  0
   38.3080   24.4820   32.5790 C   0  0  0  0  0  0  0  0  0  0  0  0
   37.7430   23.3530   31.9830 C   0  0  0  0  0  0  0  0  0  0  0  0
   37.4350   22.2400   32.7370 C   0  0  0  0  0  0  0  0  0  0  0  0
   37.6700   22.1960   34.1010 C   0  0  0  0  0  0  0  0  0  0  0  0
   38.2280   23.3130   34.6910 C   0  0  0  0  0  0  0  0  0  0  0  0
   37.5160   23.2830   30.9340 H   0  0  0  0  0  0  0  0  0  0  0  0
   36.9990   21.3670   32.2750 H   0  0  0  0  0  0  0  0  0  0  0  0
   37.4070   21.2990   34.6350 H   0  0  0  0  0  0  0  0  0  0  0  0
   38.4990   23.3280   36.1230 C   0  0  0  0  0  0  0  0  0  0  0  0
   39.6360   22.8110   36.6870 C   0  0  0  0  0  3  0  0  0  0  0  0
   39.9050   22.8190   38.0460 C   0  0  0  0  0  0  0  0  0  0  0  0
   40.8060   22.4050   38.4570 H   0  0  0  0  0  0  0  0  0  0  0  0
   39.0010   23.3680   38.8860 N   0  0  0  0  0  0  0  0  0  0  0  0
   37.8770   23.8810   38.3540 C   0  0  0  0  0  3  0  0  0  0  0  0
   37.6470   23.8570   37.0280 N   0  0  0  0  0  0  0  0  0  0  0  0
  1  6  1  6  0  0  0
  1 11  1  0  0  0  0
  1  5  1  0  0  0  0
  2  7  1  6  0  0  0
  2  1  1  0  0  0  0
  2  3  1  0  0  0  0
  2 13  1  0  0  0  0
  3  4  1  0  0  0  0
  4  5  1  0  0  0  0
  4  9  1  0  0  0  0
  5 23  1  0  0  0  0
  5 10  1  1  0  0  0
  8  4  1  0  0  0  0
 12 11  1  0  0  0  0
 13 18  1  0  0  0  0
 14 15  1  0  0  0  0
 15 16  2  0  0  0  0
 15 21  1  0  0  0  0
 16 22  1  0  0  0  0
 17 16  1  0  0  0  0
 18 17  2  0  0  0  0
 19 18  1  0  0  0  0
 19 14  2  0  0  0  0
 20 14  1  0  0  0  0
 23 26  1  0  0  0  0
 25 30  1  0  0  0  0
 25 24  1  0  0  0  0
 26 25  2  0  0  0  0
 27 26  1  0  0  0  0
 27 28  2  0  0  0  0
 28 29  1  0  0  0  0
 29 33  1  0  0  0  0
 29 30  2  0  0  0  0
 30 34  1  0  0  0  0
 31 27  1  0  0  0  0
 32 28  1  0  0  0  0
 34 35  2  0  0  0  0
 34 40  1  0  0  0  0
 35 36  1  0  0  0  0
 36 37  1  0  0  0  0
 36 38  2  0  0  0  0
 39 38  1  0  0  0  0
 40 39  2  0  0  0  0
M  END
>  <minimizedAffinity>
-5.28189135

$$$$

 OpenBabel03272506493D

 40 43  0  0  1  0  0  0  0  0999 V2000
   37.8680   23.9170   34.6540 C   0  0  2  0  0  0  0  0  0  0  0  0
   38.1960   22.8050   35.6060 C   0  0  1  0  0  0  0  0  0  0  0  0
   38.8720   21.8460   34.9140 O   0  0  0  0  0  0  0  0  0  0  0  0
   39.2540   22.3510   33.6760 C   0  0  0  0  0  0  0  0  0  0  0  0
   39.1400   23.8550   33.7560 C   0  0  1  0  0  0  0  0  0  0  0  0
   37.0130   23.7450   34.0040 H   0  0  0  0  0  0  0  0  0  0  0  0
   37.2750   22.4080   36.0890 H   0  0  0  0  0  0  0  0  0  0  0  0
   38.6280   21.8620   32.9420 H   0  0  0  0  0  0  0  0  0  0  0  0
   40.3390   22.0680   33.4940 H   0  0  0  0  0  0  0  0  0  0  0  0
   39.9620   24.2910   34.3180 H   0  0  0  0  0  0  0  0  0  0  0  0
   37.8390   25.1540   35.3280 O   0  0  0  0  0  0  0  0  0  0  0  0
   37.5000   25.0180   36.2470 H   0  0  0  0  0  0  0  0  0  0  0  0
   39.3320   23.4840   36.8810 S   0  0  0  0  0  0  0  0  0  0  0  0
   42.2960   20.8820   37.2520 C   0  0  0  0  0  0  0  0  0  0  0  0
   43.3390   21.4060   36.4910 C   0  0  0  0  0  0  0  0  0  0  0  0
   43.1150   22.6250   35.8280 C   0  0  0  0  0  0  0  0  0  0  0  0
   41.9010   23.2250   35.9650 N   0  0  0  0  0  0  0  0  0  0  0  0
   40.9200   22.6780   36.7160 C   0  0  0  0  0  0  0  0  0  0  0  0
   41.1020   21.5010   37.3680 N   0  0  0  0  0  0  0  0  0  0  0  0
   42.5250   19.9440   37.7380 H   0  0  0  0  0  0  0  0  0  0  0  0
   44.2880   20.8940   36.4100 H   0  0  0  0  0  0  0  0  0  0  0  0
   43.8910   23.0750   35.2250 H   0  0  0  0  0  0  0  0  0  0  0  0
   38.8900   24.3560   32.5040 O   0  0  0  0  0  0  0  0  0  0  0  0
   38.5740   27.2810   32.5210 Cl  0  0  0  0  0  0  0  0  0  0  0  0
   37.4310   26.0660   31.9960 C   0  0  0  0  0  0  0  0  0  0  0  0
   37.7030   24.7170   32.0250 C   0  0  0  0  0  0  0  0  0  0  0  0
   36.7230   23.8420   31.5530 C   0  0  0  0  0  0  0  0  0  0  0  0
   35.5220   24.3230   31.0750 C   0  0  0  0  0  0  0  0  0  0  0  0
   35.2420   25.6790   31.0430 C   0  0  0  0  0  0  0  0  0  0  0  0
   36.2110   26.5450   31.5100 C   0  0  0  0  0  0  0  0  0  0  0  0
   36.8410   22.7730   31.5290 H   0  0  0  0  0  0  0  0  0  0  0  0
   34.7660   23.6450   30.7110 H   0  0  0  0  0  0  0  0  0  0  0  0
   34.2870   25.9920   30.6580 H   0  0  0  0  0  0  0  0  0  0  0  0
   35.9740   27.9830   31.5020 C   0  0  0  0  0  0  0  0  0  0  0  0
   35.3120   28.6490   32.4990 C   0  0  0  0  0  3  0  0  0  0  0  0
   35.0810   30.0150   32.5030 C   0  0  0  0  0  0  0  0  0  0  0  0
   34.5580   30.5080   33.3010 H   0  0  0  0  0  0  0  0  0  0  0  0
   35.5290   30.7560   31.4670 N   0  0  0  0  0  0  0  0  0  0  0  0
   36.1830   30.1210   30.4760 C   0  0  0  0  0  3  0  0  0  0  0  0
   36.3900   28.7920   30.5030 N   0  0  0  0  0  0  0  0  0  0  0  0
  1  6  1  6  0  0  0
  1 11  1  0  0  0  0
  1  2  1  0  0  0  0
  2  7  1  1  0  0  0
  2 13  1  0  0  0  0
  3  2  1  0  0  0  0
  4  5  1  0  0  0  0
  4  3  1  0  0  0  0
  5 10  1  1  0  0  0
  5  1  1  0  0  0  0
  8  4  1  0  0  0  0
  9  4  1  0  0  0  0
 11 12  1  0  0  0  0
 14 19  1  0  0  0  0
 14 20  1  0  0  0  0
 15 14  2  0  0  0  0
 16 17  2  0  0  0  0
 16 15  1  0  0  0  0
 17 18  1  0  0  0  0
 18 13  1  0  0  0  0
 18 19  2  0  0  0  0
 21 15  1  0  0  0  0
 22 16  1  0  0  0  0
 23  5  1  0  0  0  0
 25 26  1  0  0  0  0
 25 24  1  0  0  0  0
 26 23  1  0  0  0  0
 27 26  2  0  0  0  0
 28 27  1  0  0  0  0
 29 28  2  0  0  0  0
 29 30  1  0  0  0  0
 30 25  2  0  0  0  0
 31 27  1  0  0  0  0
 32 28  1  0  0  0  0
 33 29  1  0  0  0  0
 34 30  1  0  0  0  0
 34 35  1  0  0  0  0
 35 36  2  0  0  0  0
 36 37  1  0  0  0  0
 38 36  1  0  0  0  0
 39 40  1  0  0  0  0
 39 38  2  0  0  0  0
 40 34  2  0  0  0  0
M  END
>  <minimizedAffinity>
-5.28042316

$$$$

 OpenBabel03272506493D

 40 43  0  0  1  0  0  0  0  0999 V2000
   37.4300   25.5310   33.2780 C   0  0  2  0  0  0  0  0  0  0  0  0
   38.6480   24.7040   32.9890 C   0  0  1  0  0  0  0  0  0  0  0  0
   39.0060   24.9210   31.6920 O   0  0  0  0  0  0  0  0  0  0  0  0
   38.3040   26.0150   31.1960 C   0  0  0  0  0  0  0  0  0  0  0  0
   37.7560   26.7670   32.3860 C   0  0  1  0  0  0  0  0  0  0  0  0
   36.4880   25.1230   32.9220 H   0  0  0  0  0  0  0  0  0  0  0  0
   38.4600   23.6280   33.2010 H   0  0  0  0  0  0  0  0  0  0  0  0
   37.5750   25.6190   30.5020 H   0  0  0  0  0  0  0  0  0  0  0  0
   39.0340   26.6820   30.6360 H   0  0  0  0  0  0  0  0  0  0  0  0
   38.5290   27.3420   32.8880 H   0  0  0  0  0  0  0  0  0  0  0  0
   37.4120   25.9300   34.6290 O   0  0  0  0  0  0  0  0  0  0  0  0
   37.8110   25.2170   35.1870 H   0  0  0  0  0  0  0  0  0  0  0  0
   40.0080   25.3270   34.0580 S   0  0  0  0  0  0  0  0  0  0  0  0
   41.5900   22.8300   36.6960 C   0  0  0  0  0  0  0  0  0  0  0  0
   40.5430   22.4950   37.5540 C   0  0  0  0  0  0  0  0  0  0  0  0
   39.2860   23.0700   37.3050 C   0  0  0  0  0  0  0  0  0  0  0  0
   39.1570   23.9170   36.2470 N   0  0  0  0  0  0  0  0  0  0  0  0
   40.2000   24.2110   35.4420 C   0  0  0  0  0  0  0  0  0  0  0  0
   41.4300   23.6740   35.6550 N   0  0  0  0  0  0  0  0  0  0  0  0
   42.5330   22.3590   36.9360 H   0  0  0  0  0  0  0  0  0  0  0  0
   40.6930   21.8170   38.3830 H   0  0  0  0  0  0  0  0  0  0  0  0
   38.4410   22.8430   37.9400 H   0  0  0  0  0  0  0  0  0  0  0  0
   36.6130   27.4270   32.0140 O   0  0  0  0  0  0  0  0  0  0  0  0
   35.5280   28.6800   34.4450 Cl  0  0  0  0  0  0  0  0  0  0  0  0
   35.9650   29.4390   32.9310 C   0  0  0  0  0  0  0  0  0  0  0  0
   36.4790   28.7410   31.8620 C   0  0  0  0  0  0  0  0  0  0  0  0
   36.8190   29.4600   30.7140 C   0  0  0  0  0  0  0  0  0  0  0  0
   36.6400   30.8270   30.6630 C   0  0  0  0  0  0  0  0  0  0  0  0
   36.1240   31.5350   31.7340 C   0  0  0  0  0  0  0  0  0  0  0  0
   35.7880   30.8250   32.8700 C   0  0  0  0  0  0  0  0  0  0  0  0
   37.2310   29.0090   29.8290 H   0  0  0  0  0  0  0  0  0  0  0  0
   36.9030   31.3810   29.7740 H   0  0  0  0  0  0  0  0  0  0  0  0
   36.0090   32.6000   31.6330 H   0  0  0  0  0  0  0  0  0  0  0  0
   35.2400   31.5140   34.0310 C   0  0  0  0  0  0  0  0  0  0  0  0
   36.0080   32.0300   35.0410 C   0  0  0  0  0  3  0  0  0  0  0  0
   35.4990   32.6870   36.1490 C   0  0  0  0  0  0  0  0  0  0  0  0
   36.1290   33.0810   36.9250 H   0  0  0  0  0  0  0  0  0  0  0  0
   34.1620   32.8400   36.2610 N   0  0  0  0  0  0  0  0  0  0  0  0
   33.3880   32.3390   35.2790 C   0  0  0  0  0  3  0  0  0  0  0  0
   33.9150   31.7070   34.2160 N   0  0  0  0  0  0  0  0  0  0  0  0
  1  6  1  6  0  0  0
  1 11  1  0  0  0  0
  2  7  1  1  0  0  0
  2  1  1  0  0  0  0
  2 13  1  0  0  0  0
  3  2  1  0  0  0  0
  4  3  1  0  0  0  0
  4  5  1  0  0  0  0
  5 10  1  1  0  0  0
  5  1  1  0  0  0  0
  8  4  1  0  0  0  0
  9  4  1  0  0  0  0
 11 12  1  0  0  0  0
 13 18  1  0  0  0  0
 14 20  1  0  0  0  0
 14 15  1  0  0  0  0
 15 21  1  0  0  0  0
 16 15  2  0  0  0  0
 16 22  1  0  0  0  0
 17 16  1  0  0  0  0
 18 19  1  0  0  0  0
 18 17  2  0  0  0  0
 19 14  2  0  0  0  0
 23  5  1  0  0  0  0
 25 24  1  0  0  0  0
 26 23  1  0  0  0  0
 26 25  2  0  0  0  0
 27 26  1  0  0  0  0
 28 27  2  0  0  0  0
 28 29  1  0  0  0  0
 29 30  2  0  0  0  0
 30 25  1  0  0  0  0
 30 34  1  0  0  0  0
 31 27  1  0  0  0  0
 32 28  1  0  0  0  0
 33 29  1  0  0  0  0
 34 40  2  0  0  0  0
 34 35  1  0  0  0  0
 35 36  2  0  0  0  0
 36 38  1  0  0  0  0
 36 37  1  0  0  0  0
 39 38  2  0  0  0  0
 40 39  1  0  0  0  0
M  END
>  <minimizedAffinity>
-5.26710749

$$$$

 OpenBabel03272506493D

 40 43  0  0  1  0  0  0  0  0999 V2000
   37.9840   25.0720   32.1550 C   0  0  2  0  0  0  0  0  0  0  0  0
   38.8970   24.4530   33.1720 C   0  0  1  0  0  0  0  0  0  0  0  0
   39.2610   25.4230   34.0560 O   0  0  0  0  0  0  0  0  0  0  0  0
   38.4570   26.5430   33.8720 C   0  0  0  0  0  0  0  0  0  0  0  0
   37.2540   26.0980   33.0740 C   0  0  1  0  0  0  0  0  0  0  0  0
   38.4730   25.6420   31.3690 H   0  0  0  0  0  0  0  0  0  0  0  0
   39.7750   23.9760   32.6830 H   0  0  0  0  0  0  0  0  0  0  0  0
   39.0840   27.2950   33.4130 H   0  0  0  0  0  0  0  0  0  0  0  0
   38.1140   26.9080   34.8910 H   0  0  0  0  0  0  0  0  0  0  0  0
   36.5470   25.5460   33.6870 H   0  0  0  0  0  0  0  0  0  0  0  0
   37.0510   24.1270   31.6870 O   0  0  0  0  0  0  0  0  0  0  0  0
   37.4740   23.2330   31.6620 H   0  0  0  0  0  0  0  0  0  0  0  0
   37.9270   23.1910   34.0920 S   0  0  0  0  0  0  0  0  0  0  0  0
   37.8750   23.9940   37.9710 C   0  0  0  0  0  0  0  0  0  0  0  0
   39.0390   23.4180   38.4780 C   0  0  0  0  0  0  0  0  0  0  0  0
   39.8810   22.7460   37.5760 C   0  0  0  0  0  0  0  0  0  0  0  0
   39.5200   22.6960   36.2650 N   0  0  0  0  0  0  0  0  0  0  0  0
   38.3820   23.2700   35.8200 C   0  0  0  0  0  0  0  0  0  0  0  0
   37.5440   23.9260   36.6640 N   0  0  0  0  0  0  0  0  0  0  0  0
   37.2660   24.4960   38.7100 H   0  0  0  0  0  0  0  0  0  0  0  0
   39.2850   23.4830   39.5290 H   0  0  0  0  0  0  0  0  0  0  0  0
   40.7950   22.2820   37.9180 H   0  0  0  0  0  0  0  0  0  0  0  0
   36.7750   27.1600   32.3500 O   0  0  0  0  0  0  0  0  0  0  0  0
   36.8590   29.2700   30.3000 Cl  0  0  0  0  0  0  0  0  0  0  0  0
   36.3870   29.4020   31.9790 C   0  0  0  0  0  0  0  0  0  0  0  0
   36.3770   28.3300   32.8420 C   0  0  0  0  0  0  0  0  0  0  0  0
   35.9530   28.5510   34.1540 C   0  0  0  0  0  0  0  0  0  0  0  0
   35.5580   29.8080   34.5630 C   0  0  0  0  0  0  0  0  0  0  0  0
   35.5660   30.8900   33.7000 C   0  0  0  0  0  0  0  0  0  0  0  0
   35.9850   30.6720   32.4020 C   0  0  0  0  0  0  0  0  0  0  0  0
   35.9050   27.7800   34.9020 H   0  0  0  0  0  0  0  0  0  0  0  0
   35.2310   29.9770   35.5770 H   0  0  0  0  0  0  0  0  0  0  0  0
   35.2460   31.8460   34.0780 H   0  0  0  0  0  0  0  0  0  0  0  0
   36.0150   31.7720   31.4460 C   0  0  0  0  0  0  0  0  0  0  0  0
   34.9310   32.1640   30.7050 C   0  0  0  0  0  3  0  0  0  0  0  0
   34.9470   33.2070   29.7930 C   0  0  0  0  0  0  0  0  0  0  0  0
   34.0790   33.4900   29.2280 H   0  0  0  0  0  0  0  0  0  0  0  0
   36.0940   33.8950   29.6080 N   0  0  0  0  0  0  0  0  0  0  0  0
   37.1720   33.5260   30.3260 C   0  0  0  0  0  3  0  0  0  0  0  0
   37.1220   32.5070   31.2040 N   0  0  0  0  0  0  0  0  0  0  0  0
  1  6  1  6  0  0  0
  1  5  1  0  0  0  0
  1  2  1  0  0  0  0
  2  7  1  6  0  0  0
  2  3  1  0  0  0  0
  2 13  1  0  0  0  0
  4  3  1  0  0  0  0
  4  9  1  0  0  0  0
  5 10  1  1  0  0  0
  5  4  1  0  0  0  0
  8  4  1  0  0  0  0
 11  1  1  0  0  0  0
 12 11  1  0  0  0  0
 13 18  1  0  0  0  0
 14 15  1  0  0  0  0
 14 20  1  0  0  0  0
 15 21  1  0  0  0  0
 16 22  1  0  0  0  0
 16 15  2  0  0  0  0
 17 16  1  0  0  0  0
 18 17  2  0  0  0  0
 18 19  1  0  0  0  0
 19 14  2  0  0  0  0
 23 26  1  0  0  0  0
 23  5  1  0  0  0  0
 24 25  1  0  0  0  0
 25 30  2  0  0  0  0
 25 26  1  0  0  0  0
 26 27  2  0  0  0  0
 27 28  1  0  0  0  0
 27 31  1  0  0  0  0
 28 32  1  0  0  0  0
 29 33  1  0  0  0  0
 29 28  2  0  0  0  0
 30 29  1  0  0  0  0
 34 30  1  0  0  0  0
 35 34  2  0  0  0  0
 36 35  1  0  0  0  0
 37 36  1  0  0  0  0
 38 36  2  0  0  0  0
 38 39  1  0  0  0  0
 39 40  2  0  0  0  0
 40 34  1  0  0  0  0
M  END
>  <minimizedAffinity>
-5.21306467

$$$$

 OpenBabel03272506493D

 40 43  0  0  1  0  0  0  0  0999 V2000
   37.0130   25.2800   32.7850 C   0  0  2  0  0  0  0  0  0  0  0  0
   37.8990   24.0920   33.0170 C   0  0  1  0  0  0  0  0  0  0  0  0
   38.3470   23.6590   31.8050 O   0  0  0  0  0  0  0  0  0  0  0  0
   38.0600   24.6150   30.8370 C   0  0  0  0  0  0  0  0  0  0  0  0
   37.7540   25.9030   31.5630 C   0  0  1  0  0  0  0  0  0  0  0  0
   36.0000   25.0570   32.4610 H   0  0  0  0  0  0  0  0  0  0  0  0
   37.3610   23.2950   33.5770 H   0  0  0  0  0  0  0  0  0  0  0  0
   37.2620   24.2060   30.2320 H   0  0  0  0  0  0  0  0  0  0  0  0
   38.9840   24.7600   30.1930 H   0  0  0  0  0  0  0  0  0  0  0  0
   38.6570   26.3800   31.9340 H   0  0  0  0  0  0  0  0  0  0  0  0
   37.0860   26.1720   33.8730 O   0  0  0  0  0  0  0  0  0  0  0  0
   37.2120   25.6590   34.7090 H   0  0  0  0  0  0  0  0  0  0  0  0
   39.3550   24.6660   33.9810 S   0  0  0  0  0  0  0  0  0  0  0  0
   37.9670   24.2020   37.6620 C   0  0  0  0  0  0  0  0  0  0  0  0
   38.8430   23.3060   38.2720 C   0  0  0  0  0  0  0  0  0  0  0  0
   39.9170   22.8200   37.5070 C   0  0  0  0  0  0  0  0  0  0  0  0
   40.0440   23.2470   36.2210 N   0  0  0  0  0  0  0  0  0  0  0  0
   39.1690   24.1180   35.6730 C   0  0  0  0  0  0  0  0  0  0  0  0
   38.1190   24.6070   36.3840 N   0  0  0  0  0  0  0  0  0  0  0  0
   37.1610   24.5420   38.2980 H   0  0  0  0  0  0  0  0  0  0  0  0
   38.7030   22.9940   39.2980 H   0  0  0  0  0  0  0  0  0  0  0  0
   40.6250   22.1230   37.9330 H   0  0  0  0  0  0  0  0  0  0  0  0
   36.9030   26.6610   30.7990 O   0  0  0  0  0  0  0  0  0  0  0  0
   35.1030   28.4380   32.3040 Cl  0  0  0  0  0  0  0  0  0  0  0  0
   36.2810   28.8620   31.0820 C   0  0  0  0  0  0  0  0  0  0  0  0
   37.0790   27.9330   30.4540 C   0  0  0  0  0  0  0  0  0  0  0  0
   38.0040   28.3930   29.5150 C   0  0  0  0  0  0  0  0  0  0  0  0
   38.1070   29.7390   29.2320 C   0  0  0  0  0  0  0  0  0  0  0  0
   37.3080   30.6790   29.8590 C   0  0  0  0  0  0  0  0  0  0  0  0
   36.3930   30.2250   30.7890 C   0  0  0  0  0  0  0  0  0  0  0  0
   38.6750   27.7490   28.9750 H   0  0  0  0  0  0  0  0  0  0  0  0
   38.8230   30.0940   28.5050 H   0  0  0  0  0  0  0  0  0  0  0  0
   37.4360   31.7150   29.5960 H   0  0  0  0  0  0  0  0  0  0  0  0
   35.5230   31.1650   31.4830 C   0  0  0  0  0  0  0  0  0  0  0  0
   35.8960   31.8610   32.6030 C   0  0  0  0  0  3  0  0  0  0  0  0
   35.0790   32.7570   33.2720 C   0  0  0  0  0  0  0  0  0  0  0  0
   35.4020   33.2880   34.1480 H   0  0  0  0  0  0  0  0  0  0  0  0
   33.8300   32.9740   32.8060 N   0  0  0  0  0  0  0  0  0  0  0  0
   33.4420   32.3010   31.7070 C   0  0  0  0  0  3  0  0  0  0  0  0
   34.2620   31.4370   31.0810 N   0  0  0  0  0  0  0  0  0  0  0  0
  1  6  1  6  0  0  0
  1  2  1  0  0  0  0
  1 11  1  0  0  0  0
  2  7  1  1  0  0  0
  2 13  1  0  0  0  0
  3  2  1  0  0  0  0
  4  5  1  0  0  0  0
  4  3  1  0  0  0  0
  5 10  1  1  0  0  0
  5  1  1  0  0  0  0
  8  4  1  0  0  0  0
  9  4  1  0  0  0  0
 11 12  1  0  0  0  0
 13 18  1  0  0  0  0
 14 15  1  0  0  0  0
 14 20  1  0  0  0  0
 15 21  1  0  0  0  0
 16 22  1  0  0  0  0
 16 15  2  0  0  0  0
 17 16  1  0  0  0  0
 18 17  2  0  0  0  0
 18 19  1  0  0  0  0
 19 14  2  0  0  0  0
 23  5  1  0  0  0  0
 25 24  1  0  0  0  0
 26 23  1  0  0  0  0
 26 25  2  0  0  0  0
 27 26  1  0  0  0  0
 28 27  2  0  0  0  0
 28 29  1  0  0  0  0
 29 30  2  0  0  0  0
 30 25  1  0  0  0  0
 30 34  1  0  0  0  0
 31 27  1  0  0  0  0
 32 28  1  0  0  0  0
 33 29  1  0  0  0  0
 34 35  1  0  0  0  0
 35 36  2  0  0  0  0
 36 37  1  0  0  0  0
 38 36  1  0  0  0  0
 39 38  2  0  0  0  0
 40 34  2  0  0  0  0
 40 39  1  0  0  0  0
M  END
>  <minimizedAffinity>
-5.20896006

$$$$
