
 OpenBabel03272506303D

 32 34  0  0  1  0  0  0  0  0999 V2000
   33.5720   29.0570   48.3640 C   0  0  1  0  0  0  0  0  0  0  0  0
   33.5030   29.4800   46.9540 C   0  0  0  0  0  0  0  0  0  0  0  0
   34.0690   28.5370   45.9320 C   0  0  0  0  0  0  0  0  0  0  0  0
   33.8600   27.0940   46.2140 C   0  0  0  0  0  0  0  0  0  0  0  0
   33.9480   26.6570   47.6290 C   0  0  0  0  0  0  0  0  0  0  0  0
   33.2700   27.6140   48.5650 C   0  0  2  0  0  0  0  0  0  0  0  0
   32.7330   29.5950   48.9190 H   0  0  0  0  0  0  0  0  0  0  0  0
   33.8150   30.4790   46.7060 H   0  0  0  0  0  0  0  0  0  0  0  0
   32.3930   29.4790   46.7040 H   0  0  0  0  0  0  0  0  0  0  0  0
   35.1600   28.7310   45.8650 H   0  0  0  0  0  0  0  0  0  0  0  0
   33.6310   28.7800   44.9510 H   0  0  0  0  0  0  0  0  0  0  0  0
   32.8660   26.8070   45.7780 H   0  0  0  0  0  0  0  0  0  0  0  0
   34.6030   26.5110   45.6230 H   0  0  0  0  0  0  0  0  0  0  0  0
   34.9830   26.4540   47.9780 H   0  0  0  0  0  0  0  0  0  0  0  0
   33.4060   25.6910   47.7080 H   0  0  0  0  0  0  0  0  0  0  0  0
   33.5050   27.2460   49.5730 H   0  0  0  0  0  0  0  0  0  0  0  0
   35.6950   30.4660   48.5900 C   0  0  0  0  0  0  0  0  0  0  0  0
   34.7720   29.5160   49.0980 C   0  0  0  0  0  0  0  0  0  0  0  0
   35.0320   29.0210   50.3600 C   0  0  0  0  0  0  0  0  0  0  0  0
   36.1230   29.4440   51.0500 N   0  0  0  0  0  0  0  0  0  0  0  0
   36.9790   30.3560   50.5210 C   0  0  0  0  0  0  0  0  0  0  0  0
   36.7570   30.8670   49.2800 N   0  0  0  0  0  0  0  0  0  0  0  0
   35.5480   30.8900   47.6120 H   0  0  0  0  0  0  0  0  0  0  0  0
   34.4750   28.3100   50.9390 H   0  0  0  0  0  0  0  0  0  0  0  0
   37.8570   30.7140   51.0410 H   0  0  0  0  0  0  0  0  0  0  0  0
   31.7710   27.4370   48.4720 C   0  0  0  0  0  0  0  0  0  0  0  0
   30.9660   27.9900   49.4760 C   0  0  0  0  0  3  0  0  0  0  0  0
   29.5710   27.8710   49.4690 C   0  0  0  0  0  0  0  0  0  0  0  0
   28.9910   28.3170   50.2670 H   0  0  0  0  0  0  0  0  0  0  0  0
   29.0040   27.1980   48.4520 N   0  0  0  0  0  0  0  0  0  0  0  0
   29.7760   26.6600   47.4770 C   0  0  0  0  0  3  0  0  0  0  0  0
   31.0920   26.7880   47.5110 N   0  0  0  0  0  0  0  0  0  0  0  0
  1  6  1  0  0  0  0
  1  7  1  1  0  0  0
  1 18  1  0  0  0  0
  2  1  1  0  0  0  0
  3  4  1  0  0  0  0
  3  2  1  0  0  0  0
  4  5  1  0  0  0  0
  5 15  1  0  0  0  0
  5 14  1  0  0  0  0
  5  6  1  0  0  0  0
  6 16  1  1  0  0  0
  8  2  1  0  0  0  0
  9  2  1  0  0  0  0
 10  3  1  0  0  0  0
 11  3  1  0  0  0  0
 12  4  1  0  0  0  0
 13  4  1  0  0  0  0
 17 18  2  0  0  0  0
 17 22  1  0  0  0  0
 18 19  1  0  0  0  0
 19 24  1  0  0  0  0
 19 20  2  0  0  0  0
 21 25  1  0  0  0  0
 21 20  1  0  0  0  0
 22 21  2  0  0  0  0
 23 17  1  0  0  0  0
 26  6  1  0  0  0  0
 26 27  1  0  0  0  0
 28 27  2  0  0  0  0
 28 29  1  0  0  0  0
 30 28  1  0  0  0  0
 31 32  1  0  0  0  0
 31 30  2  0  0  0  0
 32 26  2  0  0  0  0
M  END
>  <minimizedAffinity>
-4.67055273

>  <minimizedRMSD>
1.95502543

$$$$
