
 OpenBabel03272508563D

 38 41  0  0  1  0  0  0  0  0999 V2000
   38.3850   31.8550   44.5750 C   0  0  0  0  0  0  0  0  0  0  0  0
   37.3010   32.4670   44.4550 O   0  0  0  0  0  0  0  0  0  0  0  0
   38.9260   31.5310   45.8880 N   0  0  0  0  0  0  0  0  0  0  0  0
   39.8900   31.2160   46.0550 H   0  0  0  0  0  0  0  0  0  0  0  0
   39.1760   31.4240   43.3980 C   0  0  0  0  0  0  0  0  0  0  0  0
   40.1470   30.4760   43.5560 C   0  0  0  0  0  0  0  0  0  0  0  0
   40.8550   30.1170   42.4210 C   0  0  0  0  0  0  0  0  0  0  0  0
   40.5580   30.7110   41.2310 C   0  0  0  0  0  0  0  0  0  0  0  0
   39.5750   31.6690   41.0720 C   0  0  0  0  0  0  0  0  0  0  0  0
   38.9130   31.9890   42.1910 N   0  0  0  0  0  0  0  0  0  0  0  0
   40.3680   30.0180   44.5100 H   0  0  0  0  0  0  0  0  0  0  0  0
   41.6320   29.3700   42.5060 H   0  0  0  0  0  0  0  0  0  0  0  0
   41.1480   30.3870   40.3670 H   0  0  0  0  0  0  0  0  0  0  0  0
   39.2930   32.2780   39.7700 C   0  0  0  0  0  0  0  0  0  0  0  0
   38.7800   33.4190   39.7420 O   0  0  0  0  0  0  0  0  0  0  0  0
   39.5840   31.6110   38.5120 C   0  0  0  0  0  0  0  0  0  0  0  0
   38.6590   30.6980   38.0520 C   0  0  0  0  0  3  0  0  0  0  0  0
   38.9040   30.0390   36.8510 C   0  0  0  0  0  0  0  0  0  0  0  0
   38.1940   29.3120   36.4590 H   0  0  0  0  0  0  0  0  0  0  0  0
   40.0490   30.3290   36.1850 N   0  0  0  0  0  0  0  0  0  0  0  0
   40.9400   31.2180   36.6430 C   0  0  0  0  0  3  0  0  0  0  0  0
   40.7060   31.8590   37.8100 N   0  0  0  0  0  0  0  0  0  0  0  0
   38.2820   30.9490   48.2180 C   0  0  2  0  0  0  0  0  0  0  0  0
   38.6870   32.3790   48.2230 C   0  0  0  0  0  0  0  0  0  0  0  0
   38.0300   31.6680   47.0110 C   0  0  1  0  0  0  0  0  0  0  0  0
   39.1520   30.2440   48.2880 H   0  0  0  0  0  0  0  0  0  0  0  0
   38.0310   33.0370   48.8380 H   0  0  0  0  0  0  0  0  0  0  0  0
   39.7420   32.6690   48.1440 H   0  0  0  0  0  0  0  0  0  0  0  0
   36.9890   32.0430   46.8080 H   0  0  0  0  0  0  0  0  0  0  0  0
   34.8280   30.1360   49.2840 C   0  0  0  0  0  0  0  0  0  0  0  0
   35.0450   29.5680   50.5760 C   0  0  0  0  0  0  0  0  0  0  0  0
   36.4030   29.4860   51.0610 C   0  0  0  0  0  0  0  0  0  0  0  0
   37.4320   29.9480   50.2770 N   0  0  0  0  0  0  0  0  0  0  0  0
   37.1430   30.4730   49.0670 C   0  0  0  0  0  0  0  0  0  0  0  0
   35.8610   30.5810   48.5420 N   0  0  0  0  0  0  0  0  0  0  0  0
   33.7890   30.1650   48.9860 H   0  0  0  0  0  0  0  0  0  0  0  0
   34.2540   29.2020   51.1980 H   0  0  0  0  0  0  0  0  0  0  0  0
   36.5670   29.0550   52.0390 H   0  0  0  0  0  0  0  0  0  0  0  0
  1  3  1  0  0  0  0
  2  1  2  0  0  0  0
  3  4  1  0  0  0  0
  3 25  1  0  0  0  0
  5  6  1  0  0  0  0
  5  1  1  0  0  0  0
  6 11  1  0  0  0  0
  7 12  1  0  0  0  0
  7  6  2  0  0  0  0
  8  7  1  0  0  0  0
  9  8  2  0  0  0  0
  9 10  1  0  0  0  0
 10  5  2  0  0  0  0
 13  8  1  0  0  0  0
 14  9  1  0  0  0  0
 15 14  2  0  0  0  0
 16 14  1  0  0  0  0
 17 16  1  0  0  0  0
 18 17  2  0  0  0  0
 19 18  1  0  0  0  0
 20 21  2  0  0  0  0
 20 18  1  0  0  0  0
 21 22  1  0  0  0  0
 22 16  2  0  0  0  0
 23 24  1  0  0  0  0
 23 26  1  6  0  0  0
 23 34  1  0  0  0  0
 24 27  1  0  0  0  0
 25 29  1  6  0  0  0
 25 23  1  0  0  0  0
 25 24  1  0  0  0  0
 28 24  1  0  0  0  0
 30 31  1  0  0  0  0
 31 32  2  0  0  0  0
 31 37  1  0  0  0  0
 32 38  1  0  0  0  0
 33 32  1  0  0  0  0
 34 33  2  0  0  0  0
 35 34  1  0  0  0  0
 35 30  2  0  0  0  0
 36 30  1  0  0  0  0
M  END
>  <minimizedAffinity>
-4.93388414

>  <minimizedRMSD>
0.444793105

$$$$
