
 OpenBabel03272508563D

 38 41  0  0  1  0  0  0  0  0999 V2000
   38.3850   31.8540   44.5750 C   0  0  0  0  0  0  0  0  0  0  0  0
   37.3030   32.4690   44.4550 O   0  0  0  0  0  0  0  0  0  0  0  0
   38.9250   31.5290   45.8880 N   0  0  0  0  0  0  0  0  0  0  0  0
   39.8890   31.2130   46.0550 H   0  0  0  0  0  0  0  0  0  0  0  0
   39.1760   31.4240   43.3980 C   0  0  0  0  0  0  0  0  0  0  0  0
   40.1470   30.4760   43.5560 C   0  0  0  0  0  0  0  0  0  0  0  0
   40.8550   30.1160   42.4210 C   0  0  0  0  0  0  0  0  0  0  0  0
   40.5580   30.7100   41.2300 C   0  0  0  0  0  0  0  0  0  0  0  0
   39.5750   31.6680   41.0710 C   0  0  0  0  0  0  0  0  0  0  0  0
   38.9130   31.9890   42.1910 N   0  0  0  0  0  0  0  0  0  0  0  0
   40.3680   30.0170   44.5100 H   0  0  0  0  0  0  0  0  0  0  0  0
   41.6320   29.3690   42.5060 H   0  0  0  0  0  0  0  0  0  0  0  0
   41.1480   30.3860   40.3670 H   0  0  0  0  0  0  0  0  0  0  0  0
   39.2920   32.2770   39.7700 C   0  0  0  0  0  0  0  0  0  0  0  0
   38.7780   33.4170   39.7420 O   0  0  0  0  0  0  0  0  0  0  0  0
   39.5850   31.6100   38.5120 C   0  0  0  0  0  0  0  0  0  0  0  0
   38.6600   30.6970   38.0510 C   0  0  0  0  0  3  0  0  0  0  0  0
   38.9080   30.0390   36.8490 C   0  0  0  0  0  0  0  0  0  0  0  0
   38.1980   29.3130   36.4550 H   0  0  0  0  0  0  0  0  0  0  0  0
   40.0520   30.3280   36.1850 N   0  0  0  0  0  0  0  0  0  0  0  0
   40.9440   31.2170   36.6440 C   0  0  0  0  0  3  0  0  0  0  0  0
   40.7070   31.8580   37.8110 N   0  0  0  0  0  0  0  0  0  0  0  0
   38.2810   30.9480   48.2180 C   0  0  2  0  0  0  0  0  0  0  0  0
   38.6850   32.3780   48.2230 C   0  0  0  0  0  0  0  0  0  0  0  0
   38.0290   31.6670   47.0110 C   0  0  1  0  0  0  0  0  0  0  0  0
   39.1510   30.2430   48.2880 H   0  0  0  0  0  0  0  0  0  0  0  0
   38.0290   33.0360   48.8360 H   0  0  0  0  0  0  0  0  0  0  0  0
   39.7410   32.6680   48.1430 H   0  0  0  0  0  0  0  0  0  0  0  0
   36.9880   32.0410   46.8070 H   0  0  0  0  0  0  0  0  0  0  0  0
   34.8270   30.1350   49.2830 C   0  0  0  0  0  0  0  0  0  0  0  0
   35.0450   29.5670   50.5760 C   0  0  0  0  0  0  0  0  0  0  0  0
   36.4020   29.4850   51.0610 C   0  0  0  0  0  0  0  0  0  0  0  0
   37.4310   29.9480   50.2770 N   0  0  0  0  0  0  0  0  0  0  0  0
   37.1420   30.4720   49.0670 C   0  0  0  0  0  0  0  0  0  0  0  0
   35.8600   30.5800   48.5420 N   0  0  0  0  0  0  0  0  0  0  0  0
   33.7880   30.1640   48.9850 H   0  0  0  0  0  0  0  0  0  0  0  0
   34.2530   29.2010   51.1980 H   0  0  0  0  0  0  0  0  0  0  0  0
   36.5660   29.0540   52.0390 H   0  0  0  0  0  0  0  0  0  0  0  0
  1  3  1  0  0  0  0
  2  1  2  0  0  0  0
  3  4  1  0  0  0  0
  3 25  1  0  0  0  0
  5  6  1  0  0  0  0
  5  1  1  0  0  0  0
  6 11  1  0  0  0  0
  7 12  1  0  0  0  0
  7  6  2  0  0  0  0
  8  7  1  0  0  0  0
  9  8  2  0  0  0  0
  9 10  1  0  0  0  0
 10  5  2  0  0  0  0
 13  8  1  0  0  0  0
 14  9  1  0  0  0  0
 15 14  2  0  0  0  0
 16 14  1  0  0  0  0
 17 16  1  0  0  0  0
 18 17  2  0  0  0  0
 19 18  1  0  0  0  0
 20 21  2  0  0  0  0
 20 18  1  0  0  0  0
 21 22  1  0  0  0  0
 22 16  2  0  0  0  0
 23 24  1  0  0  0  0
 23 26  1  6  0  0  0
 23 34  1  0  0  0  0
 24 27  1  0  0  0  0
 25 29  1  6  0  0  0
 25 23  1  0  0  0  0
 25 24  1  0  0  0  0
 28 24  1  0  0  0  0
 30 31  1  0  0  0  0
 31 32  2  0  0  0  0
 31 37  1  0  0  0  0
 32 38  1  0  0  0  0
 33 32  1  0  0  0  0
 34 33  2  0  0  0  0
 35 34  1  0  0  0  0
 35 30  2  0  0  0  0
 36 30  1  0  0  0  0
M  END
>  <minimizedAffinity>
-4.93710279

>  <minimizedRMSD>
0.748782933

$$$$
