REMARK  Name = 
REMARK  5 active torsions:
REMARK  status: ('A' for Active; 'I' for Inactive)
REMARK    1  A    between atoms: C_2  and  S_8
REMARK    2  A    between atoms: C_6  and  N_7
REMARK    3  A    between atoms: S_8  and  C_11
REMARK    4  A    between atoms: C_13  and  C_15
REMARK    5  A    between atoms: C_15  and  C_29
REMARK                            x       y       z     vdW  Elec       q    Type
REMARK                         _______ _______ _______ _____ _____    ______ ____
ROOT
ATOM      1  S   UNL     1      38.115  30.607  46.569  0.00  0.00    +0.000 S 
ENDROOT
BRANCH   1   3
ATOM      2  N   UNL     1      39.584  32.869  46.289  0.00  0.00    +0.000 NA
ATOM      3  C   UNL     1      38.268  32.358  46.073  0.00  0.00    +0.000 C 
ATOM      4  C   UNL     1      37.936  32.410  44.604  0.00  0.00    +0.000 C 
ATOM      5  N   UNL     1      38.934  31.586  43.909  0.00  0.00    +0.000 NA
ATOM      6  C   UNL     1      40.190  32.341  44.023  0.00  0.00    +0.000 C 
ATOM      7  C   UNL     1      40.593  32.268  45.481  0.00  0.00    +0.000 C 
ATOM      8  H   UNL     1      39.837  33.090  47.254  0.00  0.00    +0.000 HD
ATOM      9  H   UNL     1      37.552  32.928  46.683  0.00  0.00    +0.000 HD
ATOM     10  H   UNL     1      36.913  32.134  44.361  0.00  0.00    +0.000 HD
ATOM     11  H   UNL     1      38.161  33.456  44.264  0.00  0.00    +0.000 HD
ATOM     12  H   UNL     1      38.669  31.445  42.909  0.00  0.00    +0.000 HD
ATOM     13  H   UNL     1      40.973  31.898  43.374  0.00  0.00    +0.000 HD
ATOM     14  H   UNL     1      39.941  33.374  43.774  0.00  0.00    +0.000 HD
ATOM     15  H   UNL     1      41.525  32.859  45.589  0.00  0.00    +0.000 HD
BRANCH   7  16
ATOM     16  N   UNL     1      40.853  30.885  45.816  0.00  0.00    +0.000 NA
ATOM     17  H   UNL     1      40.669  30.752  46.835  0.00  0.00    +0.000 HD
ATOM     18  H   UNL     1      40.333  30.210  45.213  0.00  0.00    +0.000 HD
ENDBRANCH   7  16
ENDBRANCH   1   3
BRANCH   1  21
ATOM     19  C   UNL     1      37.890  30.939  50.604  0.00  0.00    +0.000 A 
ATOM     20  C   UNL     1      38.348  31.095  49.314  0.00  0.00    +0.000 A 
ATOM     21  C   UNL     1      37.652  30.497  48.276  0.00  0.00    +0.000 A 
ATOM     22  N   UNL     1      36.525  29.769  48.588  0.00  0.00    +0.000 NA
ATOM     23  C   UNL     1      36.126  29.651  49.862  0.00  0.00    +0.000 A 
ATOM     24  N   UNL     1      36.794  30.226  50.863  0.00  0.00    +0.000 NA
ATOM     25  H   UNL     1      38.440  31.409  51.408  0.00  0.00    +0.000 HD
ATOM     26  H   UNL     1      39.219  31.659  49.081  0.00  0.00    +0.000 HD
BRANCH  23  27
ATOM     27  C   UNL     1      34.936  28.880  50.177  0.00  0.00    +0.000 C 
ATOM     28  O   UNL     1      34.465  27.996  49.430  0.00  0.00    +0.000 OA
BRANCH  27  29
ATOM     29  C   UNL     1      34.217  29.118  51.426  0.00  0.00    +0.000 A 
ATOM     30  C   UNL     1      33.685  30.361  51.697  0.00  0.00    +0.000 A 
ATOM     31  C   UNL     1      32.989  30.647  52.871  0.00  0.00    +0.000 A 
ATOM     32  H   UNL     1      32.573  31.637  53.074  0.00  0.00    +0.000 HD
ATOM     33  N   UNL     1      32.852  29.624  53.764  0.00  0.00    +0.000 NA
ATOM     34  C   UNL     1      33.364  28.413  53.511  0.00  0.00    +0.000 A 
ATOM     35  N   UNL     1      34.044  28.138  52.361  0.00  0.00    +0.000 NA
ENDBRANCH  27  29
ENDBRANCH  23  27
ENDBRANCH   1  21
TORSDOF 5
