
 OpenBabel03272508153D

 28 30  0  0  0  0  0  0  0  0999 V2000
   35.3900   30.3540   44.5130 Cl  0  0  0  0  0  0  0  0  0  0  0  0
   36.9770   29.8590   44.0190 C   0  0  0  0  0  0  0  0  0  0  0  0
   36.9870   28.7450   43.2300 C   0  0  0  0  0  0  0  0  0  0  0  0
   38.2320   28.2680   42.7640 C   0  0  0  0  0  0  0  0  0  0  0  0
   39.3970   28.8940   43.0850 C   0  0  0  0  0  0  0  0  0  0  0  0
   39.3530   30.0220   43.8880 C   0  0  0  0  0  0  0  0  0  0  0  0
   40.8420   30.8400   44.3040 Cl  0  0  0  0  0  0  0  0  0  0  0  0
   38.1440   30.4840   44.3400 C   0  0  0  0  0  0  0  0  0  0  0  0
   38.3450   27.3950   42.1350 H   0  0  0  0  0  0  0  0  0  0  0  0
   40.3710   28.5430   42.7350 H   0  0  0  0  0  0  0  0  0  0  0  0
   35.3190   28.2280   41.4880 C   0  0  0  0  0  0  0  0  0  0  0  0
   35.8750   27.9110   42.7640 C   0  0  0  0  0  0  0  0  0  0  0  0
   35.3250   26.8520   43.4550 C   0  0  0  0  0  0  0  0  0  0  0  0
   34.2940   26.1810   42.8800 N   0  0  0  0  0  0  0  0  0  0  0  0
   33.7880   26.4970   41.6790 C   0  0  0  0  0  0  0  0  0  0  0  0
   34.3040   27.5250   40.9840 N   0  0  0  0  0  0  0  0  0  0  0  0
   35.7200   29.0500   40.9110 H   0  0  0  0  0  0  0  0  0  0  0  0
   35.7530   26.6200   44.4200 H   0  0  0  0  0  0  0  0  0  0  0  0
   32.9620   25.8930   41.3150 H   0  0  0  0  0  0  0  0  0  0  0  0
   38.0630   31.6550   45.2050 C   0  0  0  0  0  0  0  0  0  0  0  0
   37.9750   32.8720   44.8560 O   0  0  0  0  0  0  0  0  0  0  0  0
   38.0810   31.4910   46.6800 C   0  0  0  0  0  0  0  0  0  0  0  0
   38.5910   32.4990   47.4700 C   0  0  0  0  0  3  0  0  0  0  0  0
   38.6730   32.4540   48.8660 C   0  0  0  0  0  0  0  0  0  0  0  0
   39.0720   33.2490   49.4590 H   0  0  0  0  0  0  0  0  0  0  0  0
   38.2130   31.3350   49.4600 N   0  0  0  0  0  0  0  0  0  0  0  0
   37.7170   30.3540   48.6840 C   0  0  0  0  0  3  0  0  0  0  0  0
   37.6570   30.4360   47.3490 N   0  0  0  0  0  0  0  0  0  0  0  0
  2  8  1  0  0  0  0
  2  1  1  0  0  0  0
  3  2  2  0  0  0  0
  4  5  2  0  0  0  0
  4  3  1  0  0  0  0
  5  6  1  0  0  0  0
  6  7  1  0  0  0  0
  6  8  2  0  0  0  0
  8 20  1  0  0  0  0
  9  4  1  0  0  0  0
 10  5  1  0  0  0  0
 11 12  1  0  0  0  0
 12  3  1  0  0  0  0
 12 13  2  0  0  0  0
 13 18  1  0  0  0  0
 14 13  1  0  0  0  0
 15 14  2  0  0  0  0
 16 11  2  0  0  0  0
 16 15  1  0  0  0  0
 17 11  1  0  0  0  0
 19 15  1  0  0  0  0
 20 22  1  0  0  0  0
 21 20  2  0  0  0  0
 22 28  2  0  0  0  0
 22 23  1  0  0  0  0
 23 24  2  0  0  0  0
 24 25  1  0  0  0  0
 24 26  1  0  0  0  0
 27 26  2  0  0  0  0
 28 27  1  0  0  0  0
M  END
>  <minimizedAffinity>
-4.10877371

>  <minimizedRMSD>
5.19341087

$$$$
