REMARK  Name = 
REMARK  3 active torsions:
REMARK  status: ('A' for Active; 'I' for Inactive)
REMARK    1  A    between atoms: C_3  and  C_10
REMARK    2  A    between atoms: C_8  and  C_15
REMARK    3  A    between atoms: C_15  and  C_22
REMARK                            x       y       z     vdW  Elec       q    Type
REMARK                         _______ _______ _______ _____ _____    ______ ____
ROOT
ATOM      1 CL   UNL     1      36.737  31.810  50.234  0.00  0.00    +0.000 Cl
ATOM      2  C   UNL     1      37.387  31.733  48.628  0.00  0.00    +0.000 A 
ATOM      3  C   UNL     1      36.733  30.857  47.809  0.00  0.00    +0.000 A 
ATOM      4  C   UNL     1      37.178  30.730  46.475  0.00  0.00    +0.000 A 
ATOM      5  C   UNL     1      38.229  31.456  46.006  0.00  0.00    +0.000 A 
ATOM      6  C   UNL     1      38.872  32.336  46.861  0.00  0.00    +0.000 A 
ATOM      7 CL   UNL     1      40.221  33.280  46.270  0.00  0.00    +0.000 Cl
ATOM      8  C   UNL     1      38.439  32.458  48.156  0.00  0.00    +0.000 A 
ATOM      9  H   UNL     1      36.727  30.065  45.751  0.00  0.00    +0.000 HD
ATOM     10  H   UNL     1      38.590  31.375  44.977  0.00  0.00    +0.000 HD
ENDROOT
BRANCH   3  12
ATOM     11  C   UNL     1      35.776  28.989  49.105  0.00  0.00    +0.000 A 
ATOM     12  C   UNL     1      35.595  29.976  48.090  0.00  0.00    +0.000 A 
ATOM     13  C   UNL     1      34.372  30.023  47.455  0.00  0.00    +0.000 A 
ATOM     14  N   UNL     1      33.421  29.131  47.835  0.00  0.00    +0.000 NA
ATOM     15  C   UNL     1      33.614  28.212  48.792  0.00  0.00    +0.000 A 
ATOM     16  N   UNL     1      34.797  28.143  49.427  0.00  0.00    +0.000 NA
ATOM     17  H   UNL     1      36.719  28.916  49.629  0.00  0.00    +0.000 HD
ATOM     18  H   UNL     1      34.245  30.774  46.688  0.00  0.00    +0.000 HD
ATOM     19  H   UNL     1      32.784  27.548  49.015  0.00  0.00    +0.000 HD
ENDBRANCH   3  12
BRANCH   8  20
ATOM     20  C   UNL     1      39.106  33.358  49.090  0.00  0.00    +0.000 C 
ATOM     21  O   UNL     1      39.372  34.588  48.926  0.00  0.00    +0.000 OA
BRANCH  20  22
ATOM     22  C   UNL     1      39.562  32.853  50.409  0.00  0.00    +0.000 A 
ATOM     23  C   UNL     1      40.787  33.248  50.902  0.00  0.00    +0.000 A 
ATOM     24  C   UNL     1      41.328  32.830  52.123  0.00  0.00    +0.000 A 
ATOM     25  H   UNL     1      42.282  33.150  52.486  0.00  0.00    +0.000 HD
ATOM     26  N   UNL     1      40.579  31.981  52.854  0.00  0.00    +0.000 NA
ATOM     27  C   UNL     1      39.384  31.599  52.368  0.00  0.00    +0.000 A 
ATOM     28  N   UNL     1      38.902  32.022  51.193  0.00  0.00    +0.000 NA
ENDBRANCH  20  22
ENDBRANCH   8  20
TORSDOF 3
