
 OpenBabel03272509303D

 36 38  0  0  1  0  0  0  0  0999 V2000
   36.4000   30.7470   49.0000 C   0  0  2  0  0  0  0  0  0  0  0  0
   37.4220   31.5780   49.7200 C   0  0  0  0  0  0  0  0  0  0  0  0
   38.2850   30.7620   50.6580 C   0  0  0  0  0  0  0  0  0  0  0  0
   37.4150   30.0310   51.6760 C   0  0  0  0  0  0  0  0  0  0  0  0
   36.1250   29.4940   51.1010 C   0  0  0  0  0  0  0  0  0  0  0  0
   36.2850   29.3720   49.5740 C   0  0  1  0  0  0  0  0  0  0  0  0
   35.3540   31.1710   49.0490 H   0  0  0  0  0  0  0  0  0  0  0  0
   36.8030   32.2230   50.4300 H   0  0  0  0  0  0  0  0  0  0  0  0
   37.9860   32.2820   49.1390 H   0  0  0  0  0  0  0  0  0  0  0  0
   38.9450   31.4560   51.1870 H   0  0  0  0  0  0  0  0  0  0  0  0
   38.8560   29.9660   50.1320 H   0  0  0  0  0  0  0  0  0  0  0  0
   38.0400   29.2240   52.1430 H   0  0  0  0  0  0  0  0  0  0  0  0
   37.1870   30.7500   52.4890 H   0  0  0  0  0  0  0  0  0  0  0  0
   35.9990   28.4600   51.4930 H   0  0  0  0  0  0  0  0  0  0  0  0
   35.2850   30.1620   51.3400 H   0  0  0  0  0  0  0  0  0  0  0  0
   37.2150   28.8580   49.5280 H   0  0  0  0  0  0  0  0  0  0  0  0
   36.7260   30.6350   47.5540 C   0  0  0  0  0  0  0  0  0  0  0  0
   38.0860   30.8110   47.2220 C   0  0  0  0  0  0  0  0  0  0  0  0
   38.4140   30.7040   45.8650 C   0  0  0  0  0  0  0  0  0  0  0  0
   37.4140   30.4390   44.9570 N   0  0  0  0  0  0  0  0  0  0  0  0
   36.1070   30.2770   45.3350 C   0  0  0  0  0  0  0  0  0  0  0  0
   35.7850   30.3790   46.6390 N   0  0  0  0  0  0  0  0  0  0  0  0
   38.9440   31.0090   47.8310 H   0  0  0  0  0  0  0  0  0  0  0  0
   39.4110   30.8150   45.4650 H   0  0  0  0  0  0  0  0  0  0  0  0
   35.4390   30.0760   44.5290 H   0  0  0  0  0  0  0  0  0  0  0  0
   33.9430   28.4730   49.1870 C   0  0  0  0  0  0  0  0  0  0  0  0
   33.1880   29.1770   49.9530 O   0  0  0  0  0  0  0  0  0  0  0  0
   35.3390   28.5340   48.9360 N   0  0  0  0  0  0  0  0  0  0  0  0
   35.6730   27.8600   48.1750 H   0  0  0  0  0  0  0  0  0  0  0  0
   33.1410   27.4390   48.4770 C   0  0  0  0  0  0  0  0  0  0  0  0
   31.7780   27.3660   48.5110 C   0  0  0  0  0  3  0  0  0  0  0  0
   31.0080   26.4400   47.8790 C   0  0  0  0  0  0  0  0  0  0  0  0
   29.9310   26.4470   47.9520 H   0  0  0  0  0  0  0  0  0  0  0  0
   31.6730   25.5110   47.1530 N   0  0  0  0  0  0  0  0  0  0  0  0
   33.0120   25.5660   47.1080 C   0  0  0  0  0  3  0  0  0  0  0  0
   33.7330   26.4940   47.7450 N   0  0  0  0  0  0  0  0  0  0  0  0
  1  7  1  1  0  0  0
  1  6  1  0  0  0  0
  1  2  1  0  0  0  0
  2  8  1  0  0  0  0
  2  3  1  0  0  0  0
  3 10  1  0  0  0  0
  3  4  1  0  0  0  0
  4 12  1  0  0  0  0
  4 13  1  0  0  0  0
  5 15  1  0  0  0  0
  5 14  1  0  0  0  0
  5  4  1  0  0  0  0
  6 16  1  6  0  0  0
  6  5  1  0  0  0  0
  9  2  1  0  0  0  0
 11  3  1  0  0  0  0
 17  1  1  0  0  0  0
 18 17  1  0  0  0  0
 18 23  1  0  0  0  0
 19 18  2  0  0  0  0
 20 21  2  0  0  0  0
 20 19  1  0  0  0  0
 21 22  1  0  0  0  0
 22 17  2  0  0  0  0
 24 19  1  0  0  0  0
 25 21  1  0  0  0  0
 26 27  2  0  0  0  0
 28 26  1  0  0  0  0
 28  6  1  0  0  0  0
 29 28  1  0  0  0  0
 30 31  1  0  0  0  0
 30 26  1  0  0  0  0
 32 33  1  0  0  0  0
 32 31  2  0  0  0  0
 34 32  1  0  0  0  0
 35 34  2  0  0  0  0
 35 36  1  0  0  0  0
 36 30  2  0  0  0  0
M  END
>  <minimizedAffinity>
-5.93252468

>  <minimizedRMSD>
0.720450401

$$$$
