
     RDKit          3D

 38 40  0  0  0  0  0  0  0  0999 V2000
   36.0758   30.6883   49.0658 C   0  0  2  0  0  0  0  0  0  0  0  0
   37.0155   31.6427   49.7419 C   0  0  0  0  0  0  0  0  0  0  0  0
   38.0449   30.9407   50.6019 C   0  0  0  0  0  0  0  0  0  0  0  0
   37.3556   30.0771   51.6526 C   0  0  0  0  0  0  0  0  0  0  0  0
   36.1186   29.3732   51.1468 C   0  0  0  0  0  0  0  0  0  0  0  0
   36.1932   29.3014   49.6104 C   0  0  1  0  0  0  0  0  0  0  0  0
   36.3180   30.6481   47.6000 C   0  0  0  0  0  0  0  0  0  0  0  0
   37.5820   31.1140   47.1798 C   0  0  0  0  0  0  0  0  0  0  0  0
   37.8302   31.0797   45.8026 C   0  0  0  0  0  0  0  0  0  0  0  0
   36.8509   30.6042   44.9598 N   0  0  0  0  0  0  0  0  0  0  0  0
   35.6391   30.1627   45.4234 C   0  0  0  0  0  0  0  0  0  0  0  0
   35.3939   30.1938   46.7470 N   0  0  0  0  0  0  0  0  0  0  0  0
   33.9419   28.1883   49.2401 C   0  0  0  0  0  0  0  0  0  0  0  0
   33.1144   28.8754   49.9445 O   0  0  0  0  0  0  0  0  0  0  0  0
   35.3339   28.3475   49.0114 N   0  0  0  0  0  0  0  0  0  0  0  0
   34.9863   30.9590   49.1920 H   0  0  0  0  0  0  0  0  0  0  0  0
   36.3608   32.1812   50.5073 H   0  0  0  0  0  0  0  0  0  0  0  0
   37.4362   32.4301   49.1459 H   0  0  0  0  0  0  0  0  0  0  0  0
   38.6345   31.7127   51.1071 H   0  0  0  0  0  0  0  0  0  0  0  0
   38.6859   30.2432   50.0204 H   0  0  0  0  0  0  0  0  0  0  0  0
   38.1175   29.3587   52.0576 H   0  0  0  0  0  0  0  0  0  0  0  0
   37.0841   30.7425   52.4975 H   0  0  0  0  0  0  0  0  0  0  0  0
   36.1650   28.3245   51.5191 H   0  0  0  0  0  0  0  0  0  0  0  0
   35.2108   29.9106   51.4564 H   0  0  0  0  0  0  0  0  0  0  0  0
   37.1815   28.9246   49.4915 H   0  0  0  0  0  0  0  0  0  0  0  0
   38.4165   31.4936   47.7324 H   0  0  0  0  0  0  0  0  0  0  0  0
   38.7501   31.4041   45.3384 H   0  0  0  0  0  0  0  0  0  0  0  0
   34.9767   29.8219   44.6607 H   0  0  0  0  0  0  0  0  0  0  0  0
   35.7405   27.6571   48.3016 H   0  0  0  0  0  0  0  0  0  0  0  0
   33.2436   27.0484   48.5843 C   0  0  0  0  0  0  0  0  0  0  0  0
   32.5898   26.0566   49.2582 C   0  0  0  0  0  0  0  0  0  0  0  0
   31.9414   25.0000   48.7007 C   0  0  0  0  0  0  0  0  0  0  0  0
   31.4449   24.2518   49.2998 H   0  0  0  0  0  0  0  0  0  0  0  0
   31.9558   24.9421   47.3478 N   0  0  0  0  0  0  0  0  0  0  0  0
   32.5925   25.9068   46.6681 C   0  0  0  0  0  0  0  0  0  0  0  0
   33.2187   26.9300   47.2554 N   0  0  0  0  0  0  0  0  0  0  0  0
   32.5732   26.0958   50.3591 H   0  0  0  0  0  0  0  0  0  0  0  0
   32.5968   25.8481   45.5679 H   0  0  0  0  0  0  0  0  0  0  0  0
  1  6  1  0
  1  2  1  0
  2  3  1  0
  3  4  1  0
  5  4  1  0
  6  5  1  0
  7  1  1  0
  8  7  2  0
  9  8  1  0
 10 11  1  0
 10  9  2  0
 11 12  2  0
 12  7  1  0
 13 14  2  0
 15 13  1  0
 15  6  1  0
  1 16  1  6
  2 17  1  0
  2 18  1  0
  3 19  1  0
  3 20  1  0
  4 21  1  0
  4 22  1  0
  5 23  1  0
  5 24  1  0
  6 25  1  1
  8 26  1  0
  9 27  1  0
 11 28  1  0
 15 29  1  0
 30 31  2  0
 31 32  1  0
 32 33  1  0
 32 34  2  0
 34 35  1  0
 35 36  2  0
 36 30  1  0
 31 37  1  0
 35 38  1  0
 13 30  1  0
M  ISO  8  16  13  17  13  18  13  19  13  20  13  21  13  22  13  23  13
M  ISO  6  24  13  25  13  26  14  27  14  28  14  33  14
M  END
>  <DihAtoms>  (1) 
13,12,29,30

>  <DihDeg>  (1) 
-0.05590028132908622

$$$$
