REMARK  Name = 
REMARK  3 active torsions:
REMARK  status: ('A' for Active; 'I' for Inactive)
REMARK    1  A    between atoms: C_1  and  C_7
REMARK    2  A    between atoms: C_6  and  N_15
REMARK    3  A    between atoms: C_13  and  C_30
REMARK                            x       y       z     vdW  Elec       q    Type
REMARK                         _______ _______ _______ _____ _____    ______ ____
ROOT
ATOM      1  C   UNL     1      36.076  30.688  49.066  0.00  0.00    +0.000 C 
ATOM      2  C   UNL     1      37.016  31.643  49.742  0.00  0.00    +0.000 C 
ATOM      3  C   UNL     1      38.045  30.941  50.602  0.00  0.00    +0.000 C 
ATOM      4  C   UNL     1      37.356  30.077  51.653  0.00  0.00    +0.000 C 
ATOM      5  C   UNL     1      36.119  29.373  51.147  0.00  0.00    +0.000 C 
ATOM      6  C   UNL     1      36.193  29.301  49.610  0.00  0.00    +0.000 C 
ATOM      7  H   UNL     1      34.986  30.959  49.192  0.00  0.00    +0.000 HD
ATOM      8  H   UNL     1      36.361  32.181  50.507  0.00  0.00    +0.000 HD
ATOM      9  H   UNL     1      37.436  32.430  49.146  0.00  0.00    +0.000 HD
ATOM     10  H   UNL     1      38.635  31.713  51.107  0.00  0.00    +0.000 HD
ATOM     11  H   UNL     1      38.686  30.243  50.020  0.00  0.00    +0.000 HD
ATOM     12  H   UNL     1      38.117  29.359  52.058  0.00  0.00    +0.000 HD
ATOM     13  H   UNL     1      37.084  30.742  52.498  0.00  0.00    +0.000 HD
ATOM     14  H   UNL     1      36.165  28.325  51.519  0.00  0.00    +0.000 HD
ATOM     15  H   UNL     1      35.211  29.911  51.456  0.00  0.00    +0.000 HD
ATOM     16  H   UNL     1      37.181  28.925  49.492  0.00  0.00    +0.000 HD
ENDROOT
BRANCH   1  17
ATOM     17  C   UNL     1      36.318  30.648  47.600  0.00  0.00    +0.000 A 
ATOM     18  C   UNL     1      37.582  31.114  47.180  0.00  0.00    +0.000 A 
ATOM     19  C   UNL     1      37.830  31.080  45.803  0.00  0.00    +0.000 A 
ATOM     20  N   UNL     1      36.851  30.604  44.960  0.00  0.00    +0.000 NA
ATOM     21  C   UNL     1      35.639  30.163  45.423  0.00  0.00    +0.000 A 
ATOM     22  N   UNL     1      35.394  30.194  46.747  0.00  0.00    +0.000 NA
ATOM     23  H   UNL     1      38.416  31.494  47.732  0.00  0.00    +0.000 HD
ATOM     24  H   UNL     1      38.750  31.404  45.338  0.00  0.00    +0.000 HD
ATOM     25  H   UNL     1      34.977  29.822  44.661  0.00  0.00    +0.000 HD
ENDBRANCH   1  17
BRANCH   6  28
ATOM     26  C   UNL     1      33.942  28.188  49.240  0.00  0.00    +0.000 C 
ATOM     27  O   UNL     1      33.114  28.875  49.944  0.00  0.00    +0.000 OA
ATOM     28  N   UNL     1      35.334  28.348  49.011  0.00  0.00    +0.000 N 
ATOM     29  H   UNL     1      35.740  27.657  48.302  0.00  0.00    +0.000 HD
BRANCH  26  30
ATOM     30  C   UNL     1      33.244  27.048  48.584  0.00  0.00    +0.000 A 
ATOM     31  C   UNL     1      33.836  25.856  48.281  0.00  0.00    +0.000 A 
ATOM     32  C   UNL     1      33.237  24.791  47.684  0.00  0.00    +0.000 A 
ATOM     33  H   UNL     1      33.771  23.877  47.474  0.00  0.00    +0.000 HD
ATOM     34  N   UNL     1      31.930  24.947  47.366  0.00  0.00    +0.000 NA
ATOM     35  C   UNL     1      31.331  26.111  47.656  0.00  0.00    +0.000 A 
ATOM     36  N   UNL     1      31.956  27.134  48.245  0.00  0.00    +0.000 NA
ENDBRANCH  26  30
ENDBRANCH   6  28
TORSDOF 3
