
 OpenBabel03272509303D

 36 38  0  0  1  0  0  0  0  0999 V2000
   36.4000   30.7470   48.9990 C   0  0  2  0  0  0  0  0  0  0  0  0
   37.4220   31.5790   49.7190 C   0  0  0  0  0  0  0  0  0  0  0  0
   38.2850   30.7620   50.6570 C   0  0  0  0  0  0  0  0  0  0  0  0
   37.4160   30.0320   51.6750 C   0  0  0  0  0  0  0  0  0  0  0  0
   36.1260   29.4950   51.1010 C   0  0  0  0  0  0  0  0  0  0  0  0
   36.2850   29.3720   49.5740 C   0  0  1  0  0  0  0  0  0  0  0  0
   35.3540   31.1710   49.0480 H   0  0  0  0  0  0  0  0  0  0  0  0
   36.8020   32.2230   50.4300 H   0  0  0  0  0  0  0  0  0  0  0  0
   37.9850   32.2830   49.1390 H   0  0  0  0  0  0  0  0  0  0  0  0
   38.9450   31.4570   51.1870 H   0  0  0  0  0  0  0  0  0  0  0  0
   38.8560   29.9660   50.1310 H   0  0  0  0  0  0  0  0  0  0  0  0
   38.0400   29.2250   52.1420 H   0  0  0  0  0  0  0  0  0  0  0  0
   37.1880   30.7500   52.4890 H   0  0  0  0  0  0  0  0  0  0  0  0
   35.9990   28.4610   51.4940 H   0  0  0  0  0  0  0  0  0  0  0  0
   35.2850   30.1630   51.3400 H   0  0  0  0  0  0  0  0  0  0  0  0
   37.2160   28.8590   49.5280 H   0  0  0  0  0  0  0  0  0  0  0  0
   36.7260   30.6350   47.5530 C   0  0  0  0  0  0  0  0  0  0  0  0
   38.0860   30.8100   47.2220 C   0  0  0  0  0  0  0  0  0  0  0  0
   38.4130   30.7040   45.8650 C   0  0  0  0  0  0  0  0  0  0  0  0
   37.4130   30.4380   44.9560 N   0  0  0  0  0  0  0  0  0  0  0  0
   36.1060   30.2770   45.3350 C   0  0  0  0  0  0  0  0  0  0  0  0
   35.7850   30.3790   46.6390 N   0  0  0  0  0  0  0  0  0  0  0  0
   38.9440   31.0090   47.8300 H   0  0  0  0  0  0  0  0  0  0  0  0
   39.4100   30.8140   45.4640 H   0  0  0  0  0  0  0  0  0  0  0  0
   35.4390   30.0760   44.5290 H   0  0  0  0  0  0  0  0  0  0  0  0
   33.9430   28.4730   49.1880 C   0  0  0  0  0  0  0  0  0  0  0  0
   33.1880   29.1770   49.9530 O   0  0  0  0  0  0  0  0  0  0  0  0
   35.3390   28.5330   48.9360 N   0  0  0  0  0  0  0  0  0  0  0  0
   35.6740   27.8590   48.1750 H   0  0  0  0  0  0  0  0  0  0  0  0
   33.1410   27.4380   48.4770 C   0  0  0  0  0  0  0  0  0  0  0  0
   31.7780   27.3670   48.5110 C   0  0  0  0  0  3  0  0  0  0  0  0
   31.0080   26.4420   47.8800 C   0  0  0  0  0  0  0  0  0  0  0  0
   29.9310   26.4480   47.9520 H   0  0  0  0  0  0  0  0  0  0  0  0
   31.6730   25.5120   47.1530 N   0  0  0  0  0  0  0  0  0  0  0  0
   33.0120   25.5660   47.1090 C   0  0  0  0  0  3  0  0  0  0  0  0
   33.7320   26.4940   47.7450 N   0  0  0  0  0  0  0  0  0  0  0  0
  1  7  1  1  0  0  0
  1  6  1  0  0  0  0
  1  2  1  0  0  0  0
  2  8  1  0  0  0  0
  2  3  1  0  0  0  0
  3 10  1  0  0  0  0
  3  4  1  0  0  0  0
  4 12  1  0  0  0  0
  4 13  1  0  0  0  0
  5 15  1  0  0  0  0
  5 14  1  0  0  0  0
  5  4  1  0  0  0  0
  6 16  1  6  0  0  0
  6  5  1  0  0  0  0
  9  2  1  0  0  0  0
 11  3  1  0  0  0  0
 17  1  1  0  0  0  0
 18 17  1  0  0  0  0
 18 23  1  0  0  0  0
 19 18  2  0  0  0  0
 20 21  2  0  0  0  0
 20 19  1  0  0  0  0
 21 22  1  0  0  0  0
 22 17  2  0  0  0  0
 24 19  1  0  0  0  0
 25 21  1  0  0  0  0
 26 27  2  0  0  0  0
 28 26  1  0  0  0  0
 28  6  1  0  0  0  0
 29 28  1  0  0  0  0
 30 31  1  0  0  0  0
 30 26  1  0  0  0  0
 32 33  1  0  0  0  0
 32 31  2  0  0  0  0
 34 32  1  0  0  0  0
 35 34  2  0  0  0  0
 35 36  1  0  0  0  0
 36 30  2  0  0  0  0
M  END
>  <minimizedAffinity>
-5.93263769

>  <minimizedRMSD>
0.493440688

$$$$
