
 OpenBabel03272509303D

 36 38  0  0  1  0  0  0  0  0999 V2000
   36.3000   30.7290   48.9900 C   0  0  2  0  0  0  0  0  0  0  0  0
   37.2980   31.5830   49.7160 C   0  0  0  0  0  0  0  0  0  0  0  0
   38.1860   30.7840   50.6450 C   0  0  0  0  0  0  0  0  0  0  0  0
   37.3400   30.0190   51.6580 C   0  0  0  0  0  0  0  0  0  0  0  0
   36.0650   29.4500   51.0800 C   0  0  0  0  0  0  0  0  0  0  0  0
   36.2260   29.3470   49.5520 C   0  0  1  0  0  0  0  0  0  0  0  0
   35.2410   31.1230   49.0440 H   0  0  0  0  0  0  0  0  0  0  0  0
   36.6610   32.2030   50.4330 H   0  0  0  0  0  0  0  0  0  0  0  0
   37.8400   32.3090   49.1410 H   0  0  0  0  0  0  0  0  0  0  0  0
   38.8270   31.4930   51.1800 H   0  0  0  0  0  0  0  0  0  0  0  0
   38.7790   30.0100   50.1110 H   0  0  0  0  0  0  0  0  0  0  0  0
   37.9890   29.2270   52.1160 H   0  0  0  0  0  0  0  0  0  0  0  0
   37.0930   30.7230   52.4780 H   0  0  0  0  0  0  0  0  0  0  0  0
   35.9700   28.4090   51.4630 H   0  0  0  0  0  0  0  0  0  0  0  0
   35.2060   30.0910   51.3270 H   0  0  0  0  0  0  0  0  0  0  0  0
   37.1700   28.8610   49.5000 H   0  0  0  0  0  0  0  0  0  0  0  0
   36.6260   30.6400   47.5420 C   0  0  0  0  0  0  0  0  0  0  0  0
   37.9720   30.8960   47.2060 C   0  0  0  0  0  0  0  0  0  0  0  0
   38.2990   30.8120   45.8480 C   0  0  0  0  0  0  0  0  0  0  0  0
   37.3130   30.4910   44.9420 N   0  0  0  0  0  0  0  0  0  0  0  0
   36.0200   30.2520   45.3250 C   0  0  0  0  0  0  0  0  0  0  0  0
   35.6980   30.3320   46.6300 N   0  0  0  0  0  0  0  0  0  0  0  0
   38.8190   31.1430   47.8120 H   0  0  0  0  0  0  0  0  0  0  0  0
   39.2870   30.9820   45.4440 H   0  0  0  0  0  0  0  0  0  0  0  0
   35.3620   30.0150   44.5210 H   0  0  0  0  0  0  0  0  0  0  0  0
   33.9060   28.4010   49.1420 C   0  0  0  0  0  0  0  0  0  0  0  0
   33.1280   29.0960   49.8940 O   0  0  0  0  0  0  0  0  0  0  0  0
   35.3040   28.4860   48.9080 N   0  0  0  0  0  0  0  0  0  0  0  0
   35.6600   27.8140   48.1550 H   0  0  0  0  0  0  0  0  0  0  0  0
   33.1320   27.3480   48.4280 C   0  0  0  0  0  0  0  0  0  0  0  0
   33.6890   26.4010   47.6170 C   0  0  0  0  0  0  0  0  0  0  0  0
   33.0210   25.4250   46.9480 C   0  0  0  0  0  0  0  0  0  0  0  0
   33.5310   24.7090   46.3220 H   0  0  0  0  0  0  0  0  0  0  0  0
   31.6770   25.4050   47.1130 N   0  0  0  0  0  0  0  0  0  0  0  0
   31.1110   26.3270   47.9060 C   0  0  0  0  0  0  0  0  0  0  0  0
   31.8050   27.2710   48.5470 N   0  0  0  0  0  0  0  0  0  0  0  0
  1  7  1  1  0  0  0
  1  6  1  0  0  0  0
  1  2  1  0  0  0  0
  2  8  1  0  0  0  0
  2  3  1  0  0  0  0
  3 10  1  0  0  0  0
  3  4  1  0  0  0  0
  4 12  1  0  0  0  0
  4 13  1  0  0  0  0
  5 15  1  0  0  0  0
  5 14  1  0  0  0  0
  5  4  1  0  0  0  0
  6 16  1  6  0  0  0
  6  5  1  0  0  0  0
  9  2  1  0  0  0  0
 11  3  1  0  0  0  0
 17  1  1  0  0  0  0
 18 17  1  0  0  0  0
 18 23  1  0  0  0  0
 19 18  2  0  0  0  0
 20 21  2  0  0  0  0
 20 19  1  0  0  0  0
 21 22  1  0  0  0  0
 22 17  2  0  0  0  0
 24 19  1  0  0  0  0
 25 21  1  0  0  0  0
 26 27  2  0  0  0  0
 28 26  1  0  0  0  0
 28  6  1  0  0  0  0
 29 28  1  0  0  0  0
 30 36  1  0  0  0  0
 30 26  1  0  0  0  0
 31 30  2  0  0  0  0
 32 34  2  0  0  0  0
 32 31  1  0  0  0  0
 33 32  1  0  0  0  0
 34 35  1  0  0  0  0
 35 36  2  0  0  0  0
M  END
>  <minimizedAffinity>
-6.00109482

>  <minimizedRMSD>
0.401674241

$$$$
