
 OpenBabel03272505093D

 27 29  0  0  0  0  0  0  0  0999 V2000
   38.9110   23.5600   33.6640 Cl  0  0  0  0  0  0  0  0  0  0  0  0
   37.6240   22.3880   33.7890 C   0  0  0  0  0  0  0  0  0  0  0  0
   37.3340   21.9160   35.0450 C   0  0  0  0  0  0  0  0  0  0  0  0
   36.3050   20.9760   35.1630 C   0  0  0  0  0  0  0  0  0  0  0  0
   35.6310   20.5620   34.0420 C   0  0  0  0  0  0  0  0  0  0  0  0
   35.9740   21.0760   32.8220 C   0  0  0  0  0  0  0  0  0  0  0  0
   36.9760   22.0050   32.6280 C   0  0  0  0  0  0  0  0  0  0  0  0
   36.1030   20.6240   36.1720 H   0  0  0  0  0  0  0  0  0  0  0  0
   34.8370   19.8340   34.1510 H   0  0  0  0  0  0  0  0  0  0  0  0
   35.4260   20.7350   31.9450 H   0  0  0  0  0  0  0  0  0  0  0  0
   38.0080   23.6070   38.2060 C   0  0  0  0  0  0  0  0  0  0  0  0
   39.3800   23.3310   38.4540 C   0  0  0  0  0  0  0  0  0  0  0  0
   40.0490   22.5560   37.5100 C   0  0  0  0  0  0  0  0  0  0  0  0
   39.3600   22.1170   36.4230 N   0  0  0  0  0  0  0  0  0  0  0  0
   38.0820   22.3870   36.2130 C   0  0  0  0  0  0  0  0  0  0  0  0
   37.4160   23.1360   37.1140 N   0  0  0  0  0  0  0  0  0  0  0  0
   37.5250   24.2130   38.9620 H   0  0  0  0  0  0  0  0  0  0  0  0
   39.9130   23.6780   39.3060 H   0  0  0  0  0  0  0  0  0  0  0  0
   41.1080   22.3070   37.6420 H   0  0  0  0  0  0  0  0  0  0  0  0
   37.4290   22.6760   31.0540 S   0  0  0  0  0  0  0  0  0  0  0  0
   37.0320   24.4210   30.9620 C   0  0  0  0  0  0  0  0  0  0  0  0
   35.7460   24.9010   31.1010 C   0  0  0  0  0  3  0  0  0  0  0  0
   35.4050   26.2360   31.0350 C   0  0  0  0  0  0  0  0  0  0  0  0
   34.3890   26.5670   31.1490 H   0  0  0  0  0  0  0  0  0  0  0  0
   36.4550   27.0560   30.8200 N   0  0  0  0  0  0  0  0  0  0  0  0
   37.7250   26.6360   30.6770 C   0  0  0  0  0  3  0  0  0  0  0  0
   38.0170   25.3040   30.7490 N   0  0  0  0  0  0  0  0  0  0  0  0
  1  2  1  0  0  0  0
  2  3  1  0  0  0  0
  3  4  2  0  0  0  0
  3 15  1  0  0  0  0
  4  8  1  0  0  0  0
  5  9  1  0  0  0  0
  5  4  1  0  0  0  0
  6  5  2  0  0  0  0
  7  6  1  0  0  0  0
  7  2  2  0  0  0  0
 10  6  1  0  0  0  0
 11 12  1  0  0  0  0
 11 17  1  0  0  0  0
 12 18  1  0  0  0  0
 13 19  1  0  0  0  0
 13 12  2  0  0  0  0
 14 13  1  0  0  0  0
 15 14  2  0  0  0  0
 15 16  1  0  0  0  0
 16 11  2  0  0  0  0
 20  7  1  0  0  0  0
 21 20  1  0  0  0  0
 21 22  1  0  0  0  0
 23 22  2  0  0  0  0
 23 24  1  0  0  0  0
 25 23  1  0  0  0  0
 26 27  1  0  0  0  0
 26 25  2  0  0  0  0
 27 21  2  0  0  0  0
M  END
>  <minimizedAffinity>
-5.26801682

$$$$

 OpenBabel03272505093D

 27 29  0  0  0  0  0  0  0  0999 V2000
   38.6110   21.5380   33.6190 Cl  0  0  0  0  0  0  0  0  0  0  0  0
   37.5790   22.7360   32.8830 C   0  0  0  0  0  0  0  0  0  0  0  0
   36.5170   22.2730   32.1480 C   0  0  0  0  0  0  0  0  0  0  0  0
   35.6790   23.2220   31.5510 C   0  0  0  0  0  0  0  0  0  0  0  0
   35.9400   24.5580   31.7140 C   0  0  0  0  0  0  0  0  0  0  0  0
   37.0190   24.9470   32.4610 C   0  0  0  0  0  0  0  0  0  0  0  0
   37.8870   24.0710   33.0790 C   0  0  0  0  0  0  0  0  0  0  0  0
   34.8470   22.8190   30.9760 H   0  0  0  0  0  0  0  0  0  0  0  0
   35.2820   25.2790   31.2460 H   0  0  0  0  0  0  0  0  0  0  0  0
   37.2080   26.0130   32.5780 H   0  0  0  0  0  0  0  0  0  0  0  0
   36.5960   18.9370   30.6750 C   0  0  0  0  0  0  0  0  0  0  0  0
   35.8900   18.1340   31.6130 C   0  0  0  0  0  0  0  0  0  0  0  0
   35.3980   18.7740   32.7470 C   0  0  0  0  0  0  0  0  0  0  0  0
   35.6160   20.1090   32.8880 N   0  0  0  0  0  0  0  0  0  0  0  0
   36.2770   20.8360   32.0010 C   0  0  0  0  0  0  0  0  0  0  0  0
   36.7610   20.2370   30.8960 N   0  0  0  0  0  0  0  0  0  0  0  0
   36.9620   18.4020   29.8070 H   0  0  0  0  0  0  0  0  0  0  0  0
   35.7210   17.0910   31.4960 H   0  0  0  0  0  0  0  0  0  0  0  0
   34.8450   18.2130   33.5080 H   0  0  0  0  0  0  0  0  0  0  0  0
   39.2850   24.5630   34.0470 S   0  0  0  0  0  0  0  0  0  0  0  0
   39.0870   24.0700   35.7580 C   0  0  0  0  0  0  0  0  0  0  0  0
   38.0340   24.4980   36.5390 C   0  0  0  0  0  3  0  0  0  0  0  0
   37.8510   24.1390   37.8590 C   0  0  0  0  0  0  0  0  0  0  0  0
   37.0160   24.4970   38.4320 H   0  0  0  0  0  0  0  0  0  0  0  0
   38.8060   23.3140   38.3370 N   0  0  0  0  0  0  0  0  0  0  0  0
   39.8510   22.8700   37.6140 C   0  0  0  0  0  3  0  0  0  0  0  0
   39.9930   23.2510   36.3100 N   0  0  0  0  0  0  0  0  0  0  0  0
  2  7  1  0  0  0  0
  2  1  1  0  0  0  0
  3  2  2  0  0  0  0
  4  5  2  0  0  0  0
  4  3  1  0  0  0  0
  5  6  1  0  0  0  0
  6 10  1  0  0  0  0
  6  7  2  0  0  0  0
  7 20  1  0  0  0  0
  8  4  1  0  0  0  0
  9  5  1  0  0  0  0
 11 16  2  0  0  0  0
 11 12  1  0  0  0  0
 12 13  2  0  0  0  0
 13 14  1  0  0  0  0
 13 19  1  0  0  0  0
 15  3  1  0  0  0  0
 15 14  2  0  0  0  0
 16 15  1  0  0  0  0
 17 11  1  0  0  0  0
 18 12  1  0  0  0  0
 20 21  1  0  0  0  0
 21 27  2  0  0  0  0
 21 22  1  0  0  0  0
 22 23  2  0  0  0  0
 23 25  1  0  0  0  0
 23 24  1  0  0  0  0
 26 25  2  0  0  0  0
 27 26  1  0  0  0  0
M  END
>  <minimizedAffinity>
-5.15704775

$$$$

 OpenBabel03272505093D

 27 29  0  0  0  0  0  0  0  0999 V2000
   38.7190   26.7950   32.9890 Cl  0  0  0  0  0  0  0  0  0  0  0  0
   37.6170   25.5550   32.4460 C   0  0  0  0  0  0  0  0  0  0  0  0
   36.4940   25.9720   31.7770 C   0  0  0  0  0  0  0  0  0  0  0  0
   35.6010   24.9900   31.3360 C   0  0  0  0  0  0  0  0  0  0  0  0
   35.8680   23.6670   31.5810 C   0  0  0  0  0  0  0  0  0  0  0  0
   37.0090   23.3250   32.2550 C   0  0  0  0  0  0  0  0  0  0  0  0
   37.9350   24.2370   32.7200 C   0  0  0  0  0  0  0  0  0  0  0  0
   34.7220   25.3560   30.8090 H   0  0  0  0  0  0  0  0  0  0  0  0
   35.1670   22.9200   31.2320 H   0  0  0  0  0  0  0  0  0  0  0  0
   37.2030   22.2700   32.4390 H   0  0  0  0  0  0  0  0  0  0  0  0
   36.6360   29.2260   30.1350 C   0  0  0  0  0  0  0  0  0  0  0  0
   35.8600   30.0670   30.9800 C   0  0  0  0  0  0  0  0  0  0  0  0
   35.2990   29.4810   32.1110 C   0  0  0  0  0  0  0  0  0  0  0  0
   35.5240   28.1600   32.3390 N   0  0  0  0  0  0  0  0  0  0  0  0
   36.2500   27.3960   31.5380 C   0  0  0  0  0  0  0  0  0  0  0  0
   36.8020   27.9430   30.4380 N   0  0  0  0  0  0  0  0  0  0  0  0
   37.0550   29.7200   29.2670 H   0  0  0  0  0  0  0  0  0  0  0  0
   35.6890   31.1000   30.7960 H   0  0  0  0  0  0  0  0  0  0  0  0
   34.6910   30.0740   32.8030 H   0  0  0  0  0  0  0  0  0  0  0  0
   39.4130   23.8050   33.5940 S   0  0  0  0  0  0  0  0  0  0  0  0
   39.1050   23.6840   35.3550 C   0  0  0  0  0  0  0  0  0  0  0  0
   38.0520   24.3250   35.9730 C   0  0  0  0  0  3  0  0  0  0  0  0
   37.7860   24.2540   37.3250 C   0  0  0  0  0  0  0  0  0  0  0  0
   36.9540   24.7710   37.7660 H   0  0  0  0  0  0  0  0  0  0  0  0
   38.6590   23.4880   38.0120 N   0  0  0  0  0  0  0  0  0  0  0  0
   39.7000   22.8440   37.4540 C   0  0  0  0  0  3  0  0  0  0  0  0
   39.9260   22.9420   36.1110 N   0  0  0  0  0  0  0  0  0  0  0  0
  2  7  1  0  0  0  0
  2  1  1  0  0  0  0
  3  2  2  0  0  0  0
  4  5  2  0  0  0  0
  4  3  1  0  0  0  0
  5  6  1  0  0  0  0
  6 10  1  0  0  0  0
  6  7  2  0  0  0  0
  7 20  1  0  0  0  0
  8  4  1  0  0  0  0
  9  5  1  0  0  0  0
 11 16  2  0  0  0  0
 11 12  1  0  0  0  0
 12 13  2  0  0  0  0
 13 14  1  0  0  0  0
 13 19  1  0  0  0  0
 15  3  1  0  0  0  0
 15 14  2  0  0  0  0
 16 15  1  0  0  0  0
 17 11  1  0  0  0  0
 18 12  1  0  0  0  0
 20 21  1  0  0  0  0
 21 22  2  0  0  0  0
 21 27  1  0  0  0  0
 22 23  1  0  0  0  0
 23 24  1  0  0  0  0
 23 25  2  0  0  0  0
 26 25  1  0  0  0  0
 27 26  2  0  0  0  0
M  END
>  <minimizedAffinity>
-5.02261353

$$$$

 OpenBabel03272505093D

 27 29  0  0  0  0  0  0  0  0999 V2000
   37.5180   24.4430   32.7120 Cl  0  0  0  0  0  0  0  0  0  0  0  0
   37.8430   25.3650   34.1560 C   0  0  0  0  0  0  0  0  0  0  0  0
   37.8010   26.7320   34.0430 C   0  0  0  0  0  0  0  0  0  0  0  0
   38.0600   27.4870   35.1920 C   0  0  0  0  0  0  0  0  0  0  0  0
   38.3420   26.8510   36.3740 C   0  0  0  0  0  0  0  0  0  0  0  0
   38.3660   25.4830   36.4130 C   0  0  0  0  0  0  0  0  0  0  0  0
   38.1210   24.6740   35.3220 C   0  0  0  0  0  0  0  0  0  0  0  0
   38.0190   28.5670   35.0640 H   0  0  0  0  0  0  0  0  0  0  0  0
   38.5390   27.4490   37.2540 H   0  0  0  0  0  0  0  0  0  0  0  0
   38.5910   24.9980   37.3610 H   0  0  0  0  0  0  0  0  0  0  0  0
   38.3390   28.1190   30.7110 C   0  0  0  0  0  0  0  0  0  0  0  0
   37.0460   28.5530   30.3110 C   0  0  0  0  0  0  0  0  0  0  0  0
   36.0050   28.3530   31.2140 C   0  0  0  0  0  0  0  0  0  0  0  0
   36.2830   27.7650   32.4080 N   0  0  0  0  0  0  0  0  0  0  0  0
   37.4960   27.3680   32.7590 C   0  0  0  0  0  0  0  0  0  0  0  0
   38.5170   27.5520   31.9000 N   0  0  0  0  0  0  0  0  0  0  0  0
   39.1210   28.2920   29.9820 H   0  0  0  0  0  0  0  0  0  0  0  0
   36.8350   29.0140   29.3760 H   0  0  0  0  0  0  0  0  0  0  0  0
   34.9850   28.6660   30.9660 H   0  0  0  0  0  0  0  0  0  0  0  0
   38.1500   22.9050   35.3620 S   0  0  0  0  0  0  0  0  0  0  0  0
   39.7990   22.2980   35.7150 C   0  0  0  0  0  0  0  0  0  0  0  0
   40.2640   22.1090   37.0000 C   0  0  0  0  0  3  0  0  0  0  0  0
   41.5270   21.6440   37.3070 C   0  0  0  0  0  0  0  0  0  0  0  0
   41.8490   21.5120   38.3230 H   0  0  0  0  0  0  0  0  0  0  0  0
   42.2890   21.3820   36.2240 N   0  0  0  0  0  0  0  0  0  0  0  0
   41.8800   21.5510   34.9540 C   0  0  0  0  0  3  0  0  0  0  0  0
   40.6210   22.0140   34.6950 N   0  0  0  0  0  0  0  0  0  0  0  0
  1  2  1  0  0  0  0
  2  7  1  0  0  0  0
  3  2  2  0  0  0  0
  3  4  1  0  0  0  0
  4  5  2  0  0  0  0
  5  6  1  0  0  0  0
  5  9  1  0  0  0  0
  6 10  1  0  0  0  0
  7 20  1  0  0  0  0
  7  6  2  0  0  0  0
  8  4  1  0  0  0  0
 11 16  1  0  0  0  0
 12 11  2  0  0  0  0
 12 13  1  0  0  0  0
 13 14  2  0  0  0  0
 14 15  1  0  0  0  0
 15  3  1  0  0  0  0
 16 15  2  0  0  0  0
 17 11  1  0  0  0  0
 18 12  1  0  0  0  0
 19 13  1  0  0  0  0
 20 21  1  0  0  0  0
 21 22  1  0  0  0  0
 22 23  2  0  0  0  0
 23 24  1  0  0  0  0
 25 23  1  0  0  0  0
 26 25  2  0  0  0  0
 27 26  1  0  0  0  0
 27 21  2  0  0  0  0
M  END
>  <minimizedAffinity>
-4.85454082

$$$$

 OpenBabel03272505093D

 27 29  0  0  0  0  0  0  0  0999 V2000
   38.6180   22.1740   33.5890 Cl  0  0  0  0  0  0  0  0  0  0  0  0
   38.0410   23.8190   33.5110 C   0  0  0  0  0  0  0  0  0  0  0  0
   38.1260   24.5630   34.6600 C   0  0  0  0  0  0  0  0  0  0  0  0
   37.6680   25.8840   34.6140 C   0  0  0  0  0  0  0  0  0  0  0  0
   37.1560   26.3850   33.4450 C   0  0  0  0  0  0  0  0  0  0  0  0
   37.1010   25.5850   32.3360 C   0  0  0  0  0  0  0  0  0  0  0  0
   37.5340   24.2750   32.3060 C   0  0  0  0  0  0  0  0  0  0  0  0
   37.7510   26.4430   35.5440 H   0  0  0  0  0  0  0  0  0  0  0  0
   36.8060   27.4100   33.4260 H   0  0  0  0  0  0  0  0  0  0  0  0
   36.6920   26.0030   31.4180 H   0  0  0  0  0  0  0  0  0  0  0  0
   40.5500   23.0250   36.9110 C   0  0  0  0  0  0  0  0  0  0  0  0
   39.8360   22.8800   38.1320 C   0  0  0  0  0  0  0  0  0  0  0  0
   38.5170   23.3240   38.1490 C   0  0  0  0  0  0  0  0  0  0  0  0
   37.9960   23.8600   37.0130 N   0  0  0  0  0  0  0  0  0  0  0  0
   38.6810   23.9850   35.8870 C   0  0  0  0  0  0  0  0  0  0  0  0
   39.9590   23.5620   35.8490 N   0  0  0  0  0  0  0  0  0  0  0  0
   41.5720   22.6680   36.9400 H   0  0  0  0  0  0  0  0  0  0  0  0
   40.2490   22.4590   39.0170 H   0  0  0  0  0  0  0  0  0  0  0  0
   37.9120   23.2400   39.0580 H   0  0  0  0  0  0  0  0  0  0  0  0
   37.4670   23.2310   30.8780 S   0  0  0  0  0  0  0  0  0  0  0  0
   36.5000   21.7580   31.2050 C   0  0  0  0  0  0  0  0  0  0  0  0
   36.8220   20.5240   30.6800 C   0  0  0  0  0  3  0  0  0  0  0  0
   36.1010   19.3700   30.9100 C   0  0  0  0  0  0  0  0  0  0  0  0
   36.3870   18.4290   30.4800 H   0  0  0  0  0  0  0  0  0  0  0  0
   35.0290   19.5490   31.7100 N   0  0  0  0  0  0  0  0  0  0  0  0
   34.6750   20.7320   32.2450 C   0  0  0  0  0  3  0  0  0  0  0  0
   35.4180   21.8490   31.9910 N   0  0  0  0  0  0  0  0  0  0  0  0
  2  1  1  0  0  0  0
  2  3  1  0  0  0  0
  3 15  1  0  0  0  0
  4  3  2  0  0  0  0
  4  8  1  0  0  0  0
  5  4  1  0  0  0  0
  6  5  2  0  0  0  0
  7  6  1  0  0  0  0
  7  2  2  0  0  0  0
  9  5  1  0  0  0  0
 10  6  1  0  0  0  0
 11 17  1  0  0  0  0
 11 12  1  0  0  0  0
 12 13  2  0  0  0  0
 12 18  1  0  0  0  0
 13 19  1  0  0  0  0
 14 13  1  0  0  0  0
 15 14  2  0  0  0  0
 16 15  1  0  0  0  0
 16 11  2  0  0  0  0
 20 21  1  0  0  0  0
 20  7  1  0  0  0  0
 21 27  1  0  0  0  0
 22 23  1  0  0  0  0
 22 21  2  0  0  0  0
 23 25  2  0  0  0  0
 24 23  1  0  0  0  0
 25 26  1  0  0  0  0
 27 26  2  0  0  0  0
M  END
>  <minimizedAffinity>
-4.84221029

$$$$

 OpenBabel03272505093D

 27 29  0  0  0  0  0  0  0  0999 V2000
   38.1800   23.4990   33.6290 Cl  0  0  0  0  0  0  0  0  0  0  0  0
   37.9840   25.1160   34.2550 C   0  0  0  0  0  0  0  0  0  0  0  0
   38.5430   25.3800   35.4790 C   0  0  0  0  0  0  0  0  0  0  0  0
   38.3940   26.6720   35.9960 C   0  0  0  0  0  0  0  0  0  0  0  0
   37.7070   27.6160   35.2770 C   0  0  0  0  0  0  0  0  0  0  0  0
   37.1750   27.2810   34.0620 C   0  0  0  0  0  0  0  0  0  0  0  0
   37.2810   26.0300   33.4890 C   0  0  0  0  0  0  0  0  0  0  0  0
   38.8510   26.8450   36.9680 H   0  0  0  0  0  0  0  0  0  0  0  0
   37.6010   28.6110   35.6900 H   0  0  0  0  0  0  0  0  0  0  0  0
   36.6330   28.0460   33.5070 H   0  0  0  0  0  0  0  0  0  0  0  0
   39.2730   22.9010   38.0550 C   0  0  0  0  0  0  0  0  0  0  0  0
   40.5380   22.3770   37.6740 C   0  0  0  0  0  0  0  0  0  0  0  0
   41.1160   22.9000   36.5200 C   0  0  0  0  0  0  0  0  0  0  0  0
   40.4480   23.8670   35.8370 N   0  0  0  0  0  0  0  0  0  0  0  0
   39.2690   24.3400   36.2110 C   0  0  0  0  0  0  0  0  0  0  0  0
   38.6920   23.8480   37.3250 N   0  0  0  0  0  0  0  0  0  0  0  0
   38.8570   22.4690   38.9570 H   0  0  0  0  0  0  0  0  0  0  0  0
   41.0570   21.6220   38.2130 H   0  0  0  0  0  0  0  0  0  0  0  0
   42.0910   22.5390   36.1730 H   0  0  0  0  0  0  0  0  0  0  0  0
   36.5960   25.5860   31.9190 S   0  0  0  0  0  0  0  0  0  0  0  0
   37.8900   25.3120   30.7090 C   0  0  0  0  0  0  0  0  0  0  0  0
   38.7470   26.3100   30.2960 C   0  0  0  0  0  3  0  0  0  0  0  0
   39.7520   26.1350   29.3670 C   0  0  0  0  0  0  0  0  0  0  0  0
   40.3980   26.9410   29.0730 H   0  0  0  0  0  0  0  0  0  0  0  0
   39.8330   24.8770   28.8840 N   0  0  0  0  0  0  0  0  0  0  0  0
   39.0210   23.8710   29.2560 C   0  0  0  0  0  3  0  0  0  0  0  0
   38.0380   24.0900   30.1790 N   0  0  0  0  0  0  0  0  0  0  0  0
  1  2  1  0  0  0  0
  2  3  1  0  0  0  0
  3  4  2  0  0  0  0
  3 15  1  0  0  0  0
  4  8  1  0  0  0  0
  5  9  1  0  0  0  0
  5  4  1  0  0  0  0
  6  5  2  0  0  0  0
  7  6  1  0  0  0  0
  7  2  2  0  0  0  0
 10  6  1  0  0  0  0
 11 17  1  0  0  0  0
 12 11  1  0  0  0  0
 12 18  1  0  0  0  0
 13 12  2  0  0  0  0
 14 15  2  0  0  0  0
 14 13  1  0  0  0  0
 15 16  1  0  0  0  0
 16 11  2  0  0  0  0
 19 13  1  0  0  0  0
 20  7  1  0  0  0  0
 21 20  1  0  0  0  0
 22 21  1  0  0  0  0
 23 22  2  0  0  0  0
 24 23  1  0  0  0  0
 25 26  2  0  0  0  0
 25 23  1  0  0  0  0
 26 27  1  0  0  0  0
 27 21  2  0  0  0  0
M  END
>  <minimizedAffinity>
-4.83402061

$$$$

 OpenBabel03272505093D

 27 29  0  0  0  0  0  0  0  0999 V2000
   39.1980   26.4140   34.9190 Cl  0  0  0  0  0  0  0  0  0  0  0  0
   38.5910   25.1570   33.8720 C   0  0  0  0  0  0  0  0  0  0  0  0
   38.2860   23.9550   34.4580 C   0  0  0  0  0  0  0  0  0  0  0  0
   37.7990   22.9360   33.6330 C   0  0  0  0  0  0  0  0  0  0  0  0
   37.6440   23.1640   32.2890 C   0  0  0  0  0  0  0  0  0  0  0  0
   37.9700   24.3890   31.7730 C   0  0  0  0  0  0  0  0  0  0  0  0
   38.4550   25.4410   32.5240 C   0  0  0  0  0  0  0  0  0  0  0  0
   37.5670   21.9970   34.1320 H   0  0  0  0  0  0  0  0  0  0  0  0
   37.2660   22.3660   31.6640 H   0  0  0  0  0  0  0  0  0  0  0  0
   37.8400   24.5500   30.7050 H   0  0  0  0  0  0  0  0  0  0  0  0
   39.8300   22.8800   37.5840 C   0  0  0  0  0  0  0  0  0  0  0  0
   38.9190   23.3220   38.5830 C   0  0  0  0  0  0  0  0  0  0  0  0
   37.7790   23.9900   38.1460 C   0  0  0  0  0  0  0  0  0  0  0  0
   37.6050   24.1760   36.8100 N   0  0  0  0  0  0  0  0  0  0  0  0
   38.4670   23.7560   35.8980 C   0  0  0  0  0  0  0  0  0  0  0  0
   39.5770   23.1070   36.2990 N   0  0  0  0  0  0  0  0  0  0  0  0
   40.7030   22.3650   37.9640 H   0  0  0  0  0  0  0  0  0  0  0  0
   39.0600   23.1730   39.6260 H   0  0  0  0  0  0  0  0  0  0  0  0
   37.0370   24.3560   38.8640 H   0  0  0  0  0  0  0  0  0  0  0  0
   38.8800   27.0280   31.8670 S   0  0  0  0  0  0  0  0  0  0  0  0
   37.4390   28.0900   31.7730 C   0  0  0  0  0  0  0  0  0  0  0  0
   36.3640   27.9630   32.6280 C   0  0  0  0  0  3  0  0  0  0  0  0
   35.2390   28.7620   32.5840 C   0  0  0  0  0  0  0  0  0  0  0  0
   34.4240   28.6290   33.2700 H   0  0  0  0  0  0  0  0  0  0  0  0
   35.2760   29.7010   31.6140 N   0  0  0  0  0  0  0  0  0  0  0  0
   36.3010   29.8620   30.7580 C   0  0  0  0  0  3  0  0  0  0  0  0
   37.3950   29.0480   30.8380 N   0  0  0  0  0  0  0  0  0  0  0  0
  2  3  1  0  0  0  0
  2  1  1  0  0  0  0
  3 15  1  0  0  0  0
  4  8  1  0  0  0  0
  4  3  2  0  0  0  0
  5  4  1  0  0  0  0
  6  5  2  0  0  0  0
  6  7  1  0  0  0  0
  7  2  2  0  0  0  0
  9  5  1  0  0  0  0
 10  6  1  0  0  0  0
 11 17  1  0  0  0  0
 11 12  1  0  0  0  0
 12 18  1  0  0  0  0
 13 12  2  0  0  0  0
 13 19  1  0  0  0  0
 14 13  1  0  0  0  0
 15 16  1  0  0  0  0
 15 14  2  0  0  0  0
 16 11  2  0  0  0  0
 20  7  1  0  0  0  0
 21 20  1  0  0  0  0
 21 22  1  0  0  0  0
 23 22  2  0  0  0  0
 23 24  1  0  0  0  0
 25 23  1  0  0  0  0
 26 27  1  0  0  0  0
 26 25  2  0  0  0  0
 27 21  2  0  0  0  0
M  END
>  <minimizedAffinity>
-4.79192305

$$$$

 OpenBabel03272505093D

 27 29  0  0  0  0  0  0  0  0999 V2000
   39.6340   26.2680   31.7420 Cl  0  0  0  0  0  0  0  0  0  0  0  0
   38.8340   26.8020   33.1970 C   0  0  0  0  0  0  0  0  0  0  0  0
   39.5980   26.8760   34.3340 C   0  0  0  0  0  0  0  0  0  0  0  0
   38.9720   27.3020   35.5100 C   0  0  0  0  0  0  0  0  0  0  0  0
   37.6390   27.6260   35.4920 C   0  0  0  0  0  0  0  0  0  0  0  0
   36.9390   27.5280   34.3200 C   0  0  0  0  0  0  0  0  0  0  0  0
   37.4890   27.1160   33.1230 C   0  0  0  0  0  0  0  0  0  0  0  0
   39.6080   27.3490   36.3920 H   0  0  0  0  0  0  0  0  0  0  0  0
   37.1700   27.9550   36.4100 H   0  0  0  0  0  0  0  0  0  0  0  0
   35.8830   27.7910   34.3270 H   0  0  0  0  0  0  0  0  0  0  0  0
   42.6290   24.9060   34.8260 C   0  0  0  0  0  0  0  0  0  0  0  0
   43.6620   25.7360   34.3090 C   0  0  0  0  0  0  0  0  0  0  0  0
   43.2800   26.9720   33.7950 C   0  0  0  0  0  0  0  0  0  0  0  0
   41.9630   27.3090   33.8200 N   0  0  0  0  0  0  0  0  0  0  0  0
   41.0190   26.5190   34.3060 C   0  0  0  0  0  0  0  0  0  0  0  0
   41.3660   25.3190   34.8090 N   0  0  0  0  0  0  0  0  0  0  0  0
   42.9670   23.9540   35.2170 H   0  0  0  0  0  0  0  0  0  0  0  0
   44.6900   25.4670   34.2940 H   0  0  0  0  0  0  0  0  0  0  0  0
   44.0270   27.6580   33.3820 H   0  0  0  0  0  0  0  0  0  0  0  0
   36.5920   26.9860   31.6030 S   0  0  0  0  0  0  0  0  0  0  0  0
   36.8230   28.4480   30.5940 C   0  0  0  0  0  0  0  0  0  0  0  0
   36.3320   29.6860   30.9520 C   0  0  0  0  0  3  0  0  0  0  0  0
   36.4910   30.8320   30.2000 C   0  0  0  0  0  0  0  0  0  0  0  0
   36.0910   31.7770   30.5170 H   0  0  0  0  0  0  0  0  0  0  0  0
   37.1830   30.6410   29.0570 N   0  0  0  0  0  0  0  0  0  0  0  0
   37.6810   29.4540   28.6650 C   0  0  0  0  0  3  0  0  0  0  0  0
   37.5000   28.3450   29.4410 N   0  0  0  0  0  0  0  0  0  0  0  0
  1  2  1  0  0  0  0
  2  3  1  0  0  0  0
  3  4  2  0  0  0  0
  4  8  1  0  0  0  0
  5  4  1  0  0  0  0
  5  9  1  0  0  0  0
  6 10  1  0  0  0  0
  6  5  2  0  0  0  0
  7  2  2  0  0  0  0
  7  6  1  0  0  0  0
 11 17  1  0  0  0  0
 12 11  2  0  0  0  0
 13 14  2  0  0  0  0
 13 12  1  0  0  0  0
 14 15  1  0  0  0  0
 15  3  1  0  0  0  0
 15 16  2  0  0  0  0
 16 11  1  0  0  0  0
 18 12  1  0  0  0  0
 19 13  1  0  0  0  0
 20  7  1  0  0  0  0
 21 22  1  0  0  0  0
 21 20  1  0  0  0  0
 23 24  1  0  0  0  0
 23 22  2  0  0  0  0
 25 23  1  0  0  0  0
 26 25  2  0  0  0  0
 26 27  1  0  0  0  0
 27 21  2  0  0  0  0
M  END
>  <minimizedAffinity>
-4.7849679

$$$$

 OpenBabel03272505093D

 27 29  0  0  0  0  0  0  0  0999 V2000
   38.2010   24.1690   33.0440 Cl  0  0  0  0  0  0  0  0  0  0  0  0
   37.9880   25.6120   34.0010 C   0  0  0  0  0  0  0  0  0  0  0  0
   38.6460   25.6620   35.2040 C   0  0  0  0  0  0  0  0  0  0  0  0
   38.4860   26.8120   35.9840 C   0  0  0  0  0  0  0  0  0  0  0  0
   37.6910   27.8350   35.5320 C   0  0  0  0  0  0  0  0  0  0  0  0
   37.0650   27.7150   34.3210 C   0  0  0  0  0  0  0  0  0  0  0  0
   37.1760   26.6130   33.4980 C   0  0  0  0  0  0  0  0  0  0  0  0
   39.0220   26.8170   36.9310 H   0  0  0  0  0  0  0  0  0  0  0  0
   37.5780   28.7180   36.1470 H   0  0  0  0  0  0  0  0  0  0  0  0
   36.4400   28.5390   33.9810 H   0  0  0  0  0  0  0  0  0  0  0  0
   39.6080   22.5980   36.9360 C   0  0  0  0  0  0  0  0  0  0  0  0
   40.9610   22.3990   36.5470 C   0  0  0  0  0  0  0  0  0  0  0  0
   41.5160   23.3400   35.6840 C   0  0  0  0  0  0  0  0  0  0  0  0
   40.7430   24.3800   35.2720 N   0  0  0  0  0  0  0  0  0  0  0  0
   39.4840   24.5450   35.6470 C   0  0  0  0  0  0  0  0  0  0  0  0
   38.9280   23.6450   36.4810 N   0  0  0  0  0  0  0  0  0  0  0  0
   39.2150   21.8450   37.6070 H   0  0  0  0  0  0  0  0  0  0  0  0
   41.5610   21.5840   36.8740 H   0  0  0  0  0  0  0  0  0  0  0  0
   42.5540   23.2440   35.3480 H   0  0  0  0  0  0  0  0  0  0  0  0
   36.3700   26.4490   31.9310 S   0  0  0  0  0  0  0  0  0  0  0  0
   37.3300   27.2250   30.6320 C   0  0  0  0  0  0  0  0  0  0  0  0
   38.6050   26.8170   30.3020 C   0  0  0  0  0  3  0  0  0  0  0  0
   39.3720   27.3930   29.3090 C   0  0  0  0  0  0  0  0  0  0  0  0
   40.3620   27.0430   29.0850 H   0  0  0  0  0  0  0  0  0  0  0  0
   38.7590   28.4110   28.6700 N   0  0  0  0  0  0  0  0  0  0  0  0
   37.5180   28.8450   28.9560 C   0  0  0  0  0  3  0  0  0  0  0  0
   36.7950   28.2460   29.9480 N   0  0  0  0  0  0  0  0  0  0  0  0
  1  2  1  0  0  0  0
  2  3  1  0  0  0  0
  3 15  1  0  0  0  0
  3  4  2  0  0  0  0
  4  8  1  0  0  0  0
  5  4  1  0  0  0  0
  5  9  1  0  0  0  0
  6  5  2  0  0  0  0
  7  2  2  0  0  0  0
  7  6  1  0  0  0  0
 10  6  1  0  0  0  0
 11 17  1  0  0  0  0
 12 18  1  0  0  0  0
 12 11  1  0  0  0  0
 13 12  2  0  0  0  0
 14 15  2  0  0  0  0
 14 13  1  0  0  0  0
 15 16  1  0  0  0  0
 16 11  2  0  0  0  0
 19 13  1  0  0  0  0
 20  7  1  0  0  0  0
 21 20  1  0  0  0  0
 22 21  1  0  0  0  0
 23 22  2  0  0  0  0
 24 23  1  0  0  0  0
 25 26  2  0  0  0  0
 25 23  1  0  0  0  0
 26 27  1  0  0  0  0
 27 21  2  0  0  0  0
M  END
>  <minimizedAffinity>
-4.76532793

$$$$
