REMARK  Name = 
REMARK  7 active torsions:
REMARK  status: ('A' for Active; 'I' for Inactive)
REMARK    1  A    between atoms: C_1  and  S_2
REMARK    2  A    between atoms: C_1  and  S_9
REMARK    3  A    between atoms: S_2  and  C_3
REMARK    4  A    between atoms: S_9  and  C_11
REMARK    5  A    between atoms: C_10  and  O_16
REMARK    6  A    between atoms: C_15  and  O_17
REMARK    7  A    between atoms: O_17  and  C_31
REMARK                            x       y       z     vdW  Elec       q    Type
REMARK                         _______ _______ _______ _____ _____    ______ ____
ROOT
ATOM      1  C   UNL     1      32.961  27.359  48.160  0.00  0.00    +0.000 C 
ATOM      2  C   UNL     1      33.590  28.659  48.600  0.00  0.00    +0.000 C 
ATOM      3  C   UNL     1      33.799  29.494  47.373  0.00  0.00    +0.000 C 
ATOM      4  O   UNL     1      33.388  28.875  46.210  0.00  0.00    +0.000 OA
ATOM      5  C   UNL     1      32.037  28.542  46.236  0.00  0.00    +0.000 C 
ATOM      6  C   UNL     1      31.672  27.720  47.432  0.00  0.00    +0.000 C 
ATOM      7  H   UNL     1      32.792  26.657  48.986  0.00  0.00    +0.000 HD
ATOM      8  H   UNL     1      32.888  29.140  49.306  0.00  0.00    +0.000 HD
ATOM      9  H   UNL     1      33.228  30.443  47.495  0.00  0.00    +0.000 HD
ATOM     10  H   UNL     1      34.856  29.795  47.227  0.00  0.00    +0.000 HD
ATOM     11  H   UNL     1      31.836  27.922  45.328  0.00  0.00    +0.000 HD
ATOM     12  H   UNL     1      31.370  29.436  46.101  0.00  0.00    +0.000 HD
ATOM     13  H   UNL     1      31.152  26.774  47.180  0.00  0.00    +0.000 HD
ENDROOT
BRANCH   1  14
ATOM     14  O   UNL     1      33.769  26.692  47.239  0.00  0.00    +0.000 OA
ATOM     15  H   UNL     1      33.276  26.398  46.428  0.00  0.00    +0.000 HD
ENDBRANCH   1  14
BRANCH   2  16
ATOM     16  S   UNL     1      35.132  28.395  49.500  0.00  0.00    +0.000 S 
BRANCH  16  17
ATOM     17  C   UNL     1      35.517  29.835  50.521  0.00  0.00    +0.000 C 
ATOM     18  H   UNL     1      35.053  29.683  51.511  0.00  0.00    +0.000 HD
ATOM     19  H   UNL     1      35.075  30.751  50.053  0.00  0.00    +0.000 HD
BRANCH  17  20
ATOM     20  S   UNL     1      37.265  30.114  50.746  0.00  0.00    +0.000 S 
BRANCH  20  21
ATOM     21  C   UNL     1      37.912  30.967  49.320  0.00  0.00    +0.000 A 
ATOM     22  C   UNL     1      38.342  32.261  49.561  0.00  0.00    +0.000 A 
ATOM     23  C   UNL     1      38.865  32.998  48.487  0.00  0.00    +0.000 A 
ATOM     24  N   UNL     1      38.919  32.395  47.272  0.00  0.00    +0.000 NA
ATOM     25  C   UNL     1      38.484  31.123  47.091  0.00  0.00    +0.000 A 
ATOM     26  N   UNL     1      37.993  30.429  48.093  0.00  0.00    +0.000 NA
ATOM     27  H   UNL     1      38.310  32.763  50.517  0.00  0.00    +0.000 HD
ATOM     28  H   UNL     1      39.214  34.006  48.613  0.00  0.00    +0.000 HD
ATOM     29  H   UNL     1      38.571  30.737  46.084  0.00  0.00    +0.000 HD
ENDBRANCH  20  21
ENDBRANCH  17  20
ENDBRANCH  16  17
ENDBRANCH   2  16
BRANCH   6  30
ATOM     30  O   UNL     1      30.939  28.471  48.339  0.00  0.00    +0.000 OA
BRANCH  30  31
ATOM     31  C   UNL     1      29.733  28.190  48.912  0.00  0.00    +0.000 A 
ATOM     32  C   UNL     1      28.509  28.757  48.595  0.00  0.00    +0.000 A 
ATOM     33  C   UNL     1      27.354  28.389  49.247  0.00  0.00    +0.000 A 
ATOM     34  H   UNL     1      26.401  28.860  48.968  0.00  0.00    +0.000 HD
ATOM     35  N   UNL     1      27.393  27.447  50.231  0.00  0.00    +0.000 NA
ATOM     36  C   UNL     1      28.602  26.893  50.539  0.00  0.00    +0.000 A 
ATOM     37  N   UNL     1      29.739  27.250  49.901  0.00  0.00    +0.000 NA
ENDBRANCH  30  31
ENDBRANCH   6  30
TORSDOF 7
