
 OpenBabel03262521543D

 37 39  0  0  1  0  0  0  0  0999 V2000
   32.5810   26.9860   48.0760 C   0  0  1  0  0  0  0  0  0  0  0  0
   33.1750   28.3230   48.4480 C   0  0  2  0  0  0  0  0  0  0  0  0
   33.2050   29.1620   47.2070 C   0  0  0  0  0  0  0  0  0  0  0  0
   32.7120   28.5130   46.0930 O   0  0  0  0  0  0  0  0  0  0  0  0
   31.3930   28.1020   46.2600 C   0  0  0  0  0  0  0  0  0  0  0  0
   31.2040   27.2660   47.4870 C   0  0  2  0  0  0  0  0  0  0  0  0
   32.5400   26.2790   48.9140 H   0  0  0  0  0  0  0  0  0  0  0  0
   32.5230   28.7650   49.2240 H   0  0  0  0  0  0  0  0  0  0  0  0
   32.5950   30.0760   47.3880 H   0  0  0  0  0  0  0  0  0  0  0  0
   34.2210   29.5230   46.9510 H   0  0  0  0  0  0  0  0  0  0  0  0
   31.1350   27.4660   45.3770 H   0  0  0  0  0  0  0  0  0  0  0  0
   30.6640   28.9540   46.1960 H   0  0  0  0  0  0  0  0  0  0  0  0
   30.7170   26.2900   47.2900 H   0  0  0  0  0  0  0  0  0  0  0  0
   33.3260   26.3620   47.0750 O   0  0  0  0  0  0  0  0  0  0  0  0
   32.7690   26.0350   46.3200 H   0  0  0  0  0  0  0  0  0  0  0  0
   34.8150   28.1540   49.1820 S   0  0  0  0  0  0  0  0  0  0  0  0
   35.0890   29.4510   50.4100 C   0  0  0  0  0  0  0  0  0  0  0  0
   34.5800   29.1490   51.3420 H   0  0  0  0  0  0  0  0  0  0  0  0
   34.6370   30.4080   50.0470 H   0  0  0  0  0  0  0  0  0  0  0  0
   36.8100   29.7510   50.7710 S   0  0  0  0  0  0  0  0  0  0  0  0
   37.5170   30.7510   49.4750 C   0  0  0  0  0  0  0  0  0  0  0  0
   37.7670   32.0670   49.8250 C   0  0  0  0  0  0  0  0  0  0  0  0
   38.3230   32.9180   48.8570 C   0  0  0  0  0  0  0  0  0  0  0  0
   38.5850   32.3970   47.6310 N   0  0  0  0  0  0  0  0  0  0  0  0
   38.3200   31.0990   47.3410 C   0  0  0  0  0  0  0  0  0  0  0  0
   37.7990   30.2990   48.2430 N   0  0  0  0  0  0  0  0  0  0  0  0
   37.5680   32.5060   50.7920 H   0  0  0  0  0  0  0  0  0  0  0  0
   38.5390   33.9490   49.0710 H   0  0  0  0  0  0  0  0  0  0  0  0
   38.5660   30.7850   46.3350 H   0  0  0  0  0  0  0  0  0  0  0  0
   30.5270   27.9780   48.4660 O   0  0  0  0  0  0  0  0  0  0  0  0
   29.1910   28.0000   48.7440 C   0  0  0  0  0  0  0  0  0  0  0  0
   28.2050   27.2310   48.1480 C   0  0  0  0  0  3  0  0  0  0  0  0
   26.8830   27.3420   48.5150 C   0  0  0  0  0  0  0  0  0  0  0  0
   26.1280   26.7160   48.0190 H   0  0  0  0  0  0  0  0  0  0  0  0
   26.5150   28.2240   49.4880 N   0  0  0  0  0  0  0  0  0  0  0  0
   27.4910   28.9780   50.0710 C   0  0  0  0  0  3  0  0  0  0  0  0
   28.7900   28.8720   49.7130 N   0  0  0  0  0  0  0  0  0  0  0  0
  1  2  1  0  0  0  0
  1  7  1  1  0  0  0
  2 16  1  0  0  0  0
  2  8  1  1  0  0  0
  3  9  1  0  0  0  0
  3  2  1  0  0  0  0
  4  5  1  0  0  0  0
  4  3  1  0  0  0  0
  5  6  1  0  0  0  0
  6 13  1  6  0  0  0
  6  1  1  0  0  0  0
  6 30  1  0  0  0  0
 10  3  1  0  0  0  0
 11  5  1  0  0  0  0
 12  5  1  0  0  0  0
 14  1  1  0  0  0  0
 15 14  1  0  0  0  0
 16 17  1  0  0  0  0
 17 20  1  0  0  0  0
 17 18  1  0  0  0  0
 19 17  1  0  0  0  0
 21 22  1  0  0  0  0
 21 20  1  0  0  0  0
 22 27  1  0  0  0  0
 23 28  1  0  0  0  0
 23 22  2  0  0  0  0
 24 23  1  0  0  0  0
 25 24  2  0  0  0  0
 25 26  1  0  0  0  0
 26 21  2  0  0  0  0
 29 25  1  0  0  0  0
 30 31  1  0  0  0  0
 31 37  1  0  0  0  0
 32 33  1  0  0  0  0
 32 31  2  0  0  0  0
 33 35  2  0  0  0  0
 34 33  1  0  0  0  0
 35 36  1  0  0  0  0
 37 36  2  0  0  0  0
M  END
>  <minimizedAffinity>
-5.23215008

>  <minimizedRMSD>
0.686165392

$$$$
