
 OpenBabel03262521543D

 37 39  0  0  1  0  0  0  0  0999 V2000
   33.0610   27.1000   48.1610 C   0  0  1  0  0  0  0  0  0  0  0  0
   33.5690   28.4720   48.5330 C   0  0  2  0  0  0  0  0  0  0  0  0
   33.5460   29.3110   47.2910 C   0  0  0  0  0  0  0  0  0  0  0  0
   33.0940   28.6330   46.1780 O   0  0  0  0  0  0  0  0  0  0  0  0
   31.8040   28.1390   46.3450 C   0  0  0  0  0  0  0  0  0  0  0  0
   31.6680   27.2940   47.5730 C   0  0  2  0  0  0  0  0  0  0  0  0
   33.0660   26.3930   49.0000 H   0  0  0  0  0  0  0  0  0  0  0  0
   32.8920   28.8730   49.3090 H   0  0  0  0  0  0  0  0  0  0  0  0
   32.8800   30.1850   47.4730 H   0  0  0  0  0  0  0  0  0  0  0  0
   34.5370   29.7360   47.0350 H   0  0  0  0  0  0  0  0  0  0  0  0
   31.5860   27.4880   45.4630 H   0  0  0  0  0  0  0  0  0  0  0  0
   31.0230   28.9440   46.2820 H   0  0  0  0  0  0  0  0  0  0  0  0
   31.2440   26.2890   47.3760 H   0  0  0  0  0  0  0  0  0  0  0  0
   33.8430   26.5250   47.1600 O   0  0  0  0  0  0  0  0  0  0  0  0
   33.3070   26.1630   46.4050 H   0  0  0  0  0  0  0  0  0  0  0  0
   35.2180   28.4080   49.2660 S   0  0  0  0  0  0  0  0  0  0  0  0
   35.4680   29.8140   50.3720 C   0  0  0  0  0  0  0  0  0  0  0  0
   34.9610   29.5890   51.3270 H   0  0  0  0  0  0  0  0  0  0  0  0
   35.0010   30.7270   49.9230 H   0  0  0  0  0  0  0  0  0  0  0  0
   37.1830   30.1730   50.7070 S   0  0  0  0  0  0  0  0  0  0  0  0
   37.8890   31.0230   49.3080 C   0  0  0  0  0  0  0  0  0  0  0  0
   38.3110   32.3170   49.5650 C   0  0  0  0  0  0  0  0  0  0  0  0
   38.8790   33.0520   48.5130 C   0  0  0  0  0  0  0  0  0  0  0  0
   38.9810   32.4480   47.3020 N   0  0  0  0  0  0  0  0  0  0  0  0
   38.5520   31.1760   47.1040 C   0  0  0  0  0  0  0  0  0  0  0  0
   38.0200   30.4840   48.0860 N   0  0  0  0  0  0  0  0  0  0  0  0
   38.2410   32.8200   50.5190 H   0  0  0  0  0  0  0  0  0  0  0  0
   39.2240   34.0600   48.6520 H   0  0  0  0  0  0  0  0  0  0  0  0
   38.6800   30.7890   46.1020 H   0  0  0  0  0  0  0  0  0  0  0  0
   30.9480   27.9610   48.5520 O   0  0  0  0  0  0  0  0  0  0  0  0
   29.6340   27.8300   48.8930 C   0  0  0  0  0  0  0  0  0  0  0  0
   29.0050   28.3650   50.0060 C   0  0  0  0  0  3  0  0  0  0  0  0
   27.6640   28.1620   50.2440 C   0  0  0  0  0  0  0  0  0  0  0  0
   27.2000   28.6030   51.1370 H   0  0  0  0  0  0  0  0  0  0  0  0
   26.9200   27.4210   49.3760 N   0  0  0  0  0  0  0  0  0  0  0  0
   27.5450   26.8970   48.2820 C   0  0  0  0  0  3  0  0  0  0  0  0
   28.8610   27.0930   48.0440 N   0  0  0  0  0  0  0  0  0  0  0  0
  1  2  1  0  0  0  0
  1  7  1  1  0  0  0
  2 16  1  0  0  0  0
  2  8  1  1  0  0  0
  3  9  1  0  0  0  0
  3  2  1  0  0  0  0
  4  5  1  0  0  0  0
  4  3  1  0  0  0  0
  5  6  1  0  0  0  0
  6 13  1  6  0  0  0
  6  1  1  0  0  0  0
  6 30  1  0  0  0  0
 10  3  1  0  0  0  0
 11  5  1  0  0  0  0
 12  5  1  0  0  0  0
 14  1  1  0  0  0  0
 15 14  1  0  0  0  0
 16 17  1  0  0  0  0
 17 20  1  0  0  0  0
 17 18  1  0  0  0  0
 19 17  1  0  0  0  0
 21 22  1  0  0  0  0
 21 20  1  0  0  0  0
 22 27  1  0  0  0  0
 23 28  1  0  0  0  0
 23 22  2  0  0  0  0
 24 23  1  0  0  0  0
 25 24  2  0  0  0  0
 25 26  1  0  0  0  0
 26 21  2  0  0  0  0
 29 25  1  0  0  0  0
 30 31  1  0  0  0  0
 31 32  1  0  0  0  0
 32 33  2  0  0  0  0
 33 34  1  0  0  0  0
 35 33  1  0  0  0  0
 36 35  2  0  0  0  0
 37 36  1  0  0  0  0
 37 31  2  0  0  0  0
M  END
>  <minimizedAffinity>
-5.11456299

>  <minimizedRMSD>
0.343450427

$$$$
