
 OpenBabel03262521543D

 37 39  0  0  1  0  0  0  0  0999 V2000
   31.9190   26.8260   48.2970 C   0  0  1  0  0  0  0  0  0  0  0  0
   32.5990   28.1740   48.3020 C   0  0  2  0  0  0  0  0  0  0  0  0
   32.5260   28.7180   46.9070 C   0  0  0  0  0  0  0  0  0  0  0  0
   31.8910   27.8730   46.0200 O   0  0  0  0  0  0  0  0  0  0  0  0
   30.5830   27.5890   46.4020 C   0  0  0  0  0  0  0  0  0  0  0  0
   30.4970   27.0550   47.7970 C   0  0  2  0  0  0  0  0  0  0  0  0
   31.9430   26.3240   49.2720 H   0  0  0  0  0  0  0  0  0  0  0  0
   32.0530   28.8140   49.0180 H   0  0  0  0  0  0  0  0  0  0  0  0
   31.9740   29.6860   46.9380 H   0  0  0  0  0  0  0  0  0  0  0  0
   33.5210   28.9530   46.4790 H   0  0  0  0  0  0  0  0  0  0  0  0
   30.2070   26.7930   45.7140 H   0  0  0  0  0  0  0  0  0  0  0  0
   29.8840   28.4490   46.2210 H   0  0  0  0  0  0  0  0  0  0  0  0
   29.9560   26.0900   47.8720 H   0  0  0  0  0  0  0  0  0  0  0  0
   32.5270   25.9550   47.3930 O   0  0  0  0  0  0  0  0  0  0  0  0
   31.8800   25.5060   46.7880 H   0  0  0  0  0  0  0  0  0  0  0  0
   34.3020   28.0710   48.8910 S   0  0  0  0  0  0  0  0  0  0  0  0
   34.6160   29.3510   50.1270 C   0  0  0  0  0  0  0  0  0  0  0  0
   34.0050   29.1210   51.0170 H   0  0  0  0  0  0  0  0  0  0  0  0
   34.3010   30.3450   49.7210 H   0  0  0  0  0  0  0  0  0  0  0  0
   36.3260   29.4700   50.6240 S   0  0  0  0  0  0  0  0  0  0  0  0
   37.1690   30.6230   49.5570 C   0  0  0  0  0  0  0  0  0  0  0  0
   37.2230   31.9230   50.0310 C   0  0  0  0  0  0  0  0  0  0  0  0
   37.8710   32.8890   49.2460 C   0  0  0  0  0  0  0  0  0  0  0  0
   38.4090   32.4900   48.0660 N   0  0  0  0  0  0  0  0  0  0  0  0
   38.3290   31.2020   47.6490 C   0  0  0  0  0  0  0  0  0  0  0  0
   37.7230   30.2930   48.3790 N   0  0  0  0  0  0  0  0  0  0  0  0
   36.8030   32.2660   50.9650 H   0  0  0  0  0  0  0  0  0  0  0  0
   37.9440   33.9140   49.5620 H   0  0  0  0  0  0  0  0  0  0  0  0
   38.7900   30.9890   46.6930 H   0  0  0  0  0  0  0  0  0  0  0  0
   29.9570   28.0030   48.6540 O   0  0  0  0  0  0  0  0  0  0  0  0
   28.9550   27.8630   49.5690 C   0  0  0  0  0  0  0  0  0  0  0  0
   28.9910   27.1130   50.7340 C   0  0  0  0  0  3  0  0  0  0  0  0
   27.9090   27.0490   51.5830 C   0  0  0  0  0  0  0  0  0  0  0  0
   27.9750   26.4450   52.4980 H   0  0  0  0  0  0  0  0  0  0  0  0
   26.7660   27.7330   51.2890 N   0  0  0  0  0  0  0  0  0  0  0  0
   26.7370   28.4690   50.1410 C   0  0  0  0  0  3  0  0  0  0  0  0
   27.7980   28.5340   49.3030 N   0  0  0  0  0  0  0  0  0  0  0  0
  1  2  1  0  0  0  0
  1  7  1  1  0  0  0
  2 16  1  0  0  0  0
  2  8  1  1  0  0  0
  3  9  1  0  0  0  0
  3  2  1  0  0  0  0
  4  5  1  0  0  0  0
  4  3  1  0  0  0  0
  5  6  1  0  0  0  0
  6 13  1  1  0  0  0
  6  1  1  0  0  0  0
  6 30  1  0  0  0  0
 10  3  1  0  0  0  0
 11  5  1  0  0  0  0
 12  5  1  0  0  0  0
 14  1  1  0  0  0  0
 15 14  1  0  0  0  0
 16 17  1  0  0  0  0
 17 20  1  0  0  0  0
 17 18  1  0  0  0  0
 19 17  1  0  0  0  0
 21 22  1  0  0  0  0
 21 20  1  0  0  0  0
 22 27  1  0  0  0  0
 23 28  1  0  0  0  0
 23 22  2  0  0  0  0
 24 23  1  0  0  0  0
 25 24  2  0  0  0  0
 25 26  1  0  0  0  0
 26 21  2  0  0  0  0
 29 25  1  0  0  0  0
 30 31  1  0  0  0  0
 31 32  1  0  0  0  0
 32 33  2  0  0  0  0
 33 34  1  0  0  0  0
 35 33  1  0  0  0  0
 36 35  2  0  0  0  0
 37 31  2  0  0  0  0
 37 36  1  0  0  0  0
M  END
>  <minimizedAffinity>
-5.63486624

>  <minimizedRMSD>
1.25410557

$$$$
