
     RDKit          3D

 26 28  0  0  0  0  0  0  0  0999 V2000
   37.5253   31.4074   49.3301 C   0  0  0  0  0  0  0  0  0  0  0  0
   38.1532   32.6511   49.4042 C   0  0  0  0  0  0  0  0  0  0  0  0
   38.9407   32.9797   48.3019 C   0  0  0  0  0  0  0  0  0  0  0  0
   39.0646   32.1157   47.2386 N   0  0  0  0  0  0  0  0  0  0  0  0
   38.4313   30.9216   47.2222 C   0  0  0  0  0  0  0  0  0  0  0  0
   37.6500   30.5574   48.2801 N   0  0  0  0  0  0  0  0  0  0  0  0
   36.6389   31.0320   50.4936 C   0  0  1  0  0  0  0  0  0  0  0  0
   36.1487   29.6835   50.6638 C   0  0  2  0  0  0  0  0  0  0  0  0
   37.3411   30.1047   51.4881 C   0  0  0  0  0  0  0  0  0  0  0  0
   36.3822   28.7350   49.6564 O   0  0  0  0  0  0  0  0  0  0  0  0
   38.0372   33.2987   50.2425 H   0  0  0  0  0  0  0  0  0  0  0  0
   39.4551   33.9315   48.2981 H   0  0  0  0  0  0  0  0  0  0  0  0
   38.5197   30.2330   46.3930 H   0  0  0  0  0  0  0  0  0  0  0  0
   36.1694   31.9413   50.9528 H   0  0  0  0  0  0  0  0  0  0  0  0
   35.1776   29.5349   51.1782 H   0  0  0  0  0  0  0  0  0  0  0  0
   37.1015   30.3223   52.5445 H   0  0  0  0  0  0  0  0  0  0  0  0
   38.3382   29.7390   51.2621 H   0  0  0  0  0  0  0  0  0  0  0  0
   35.4515   27.7211   49.3667 C   0  0  0  0  0  0  0  0  0  0  0  0
   35.8962   26.4058   49.5116 C   0  0  0  0  0  0  0  0  0  0  0  0
   34.9032   25.4789   49.2020 C   0  0  0  0  0  0  0  0  0  0  0  0
   35.1411   24.4100   49.2808 H   0  0  0  0  0  0  0  0  0  0  0  0
   33.6514   25.7399   48.8067 N   0  0  0  0  0  0  0  0  0  0  0  0
   33.3147   27.0492   48.6959 C   0  0  0  0  0  0  0  0  0  0  0  0
   34.1998   28.0227   48.9713 N   0  0  0  0  0  0  0  0  0  0  0  0
   36.8729   26.1066   49.8204 H   0  0  0  0  0  0  0  0  0  0  0  0
   32.3348   27.3753   48.3860 H   0  0  0  0  0  0  0  0  0  0  0  0
  1  2  2  0
  1  7  1  0
  3  2  1  0
  4  3  2  0
  5  4  1  0
  5  6  2  0
  6  1  1  0
  7  8  1  0
  7  9  1  0
  8  9  1  0
 10  8  1  0
  2 11  1  0
  3 12  1  0
  5 13  1  0
  7 14  1  1
  8 15  1  1
  9 16  1  0
  9 17  1  0
 18 19  2  0
 19 20  1  0
 20 21  1  0
 20 22  2  0
 22 23  1  0
 23 24  2  0
 24 18  1  0
 19 25  1  0
 23 26  1  0
 10 18  1  0
M  ISO  8  11  14  12  14  13  14  14  13  15  13  16  13  17  13  21  14
M  END
>  <DihAtoms>  (1) 
7,9,17,18

>  <DihDeg>  (1) 
179.99785264871375

$$$$
