REMARK  Name = 
REMARK  5 active torsions:
REMARK  status: ('A' for Active; 'I' for Inactive)
REMARK    1  A    between atoms: C_3  and  C_10
REMARK    2  A    between atoms: C_7  and  N_16
REMARK    3  A    between atoms: C_14  and  C_18
REMARK    4  A    between atoms: C_25  and  O_26
REMARK    5  A    between atoms: O_26  and  C_38
REMARK                            x       y       z     vdW  Elec       q    Type
REMARK                         _______ _______ _______ _____ _____    ______ ____
ROOT
ATOM      1  C   UNL     1      39.265  31.906  44.931  0.00  0.00    +0.000 C 
ATOM      2  O   UNL     1      38.178  32.560  45.047  0.00  0.00    +0.000 OA
ATOM      3  N   UNL     1      39.969  31.636  46.148  0.00  0.00    +0.000 N 
ATOM      4  H   UNL     1      40.867  31.109  46.100  0.00  0.00    +0.000 HD
ENDROOT
BRANCH   1   6
ATOM      5  C   UNL     1      39.185  32.198  42.560  0.00  0.00    +0.000 A 
ATOM      6  C   UNL     1      39.722  31.482  43.620  0.00  0.00    +0.000 A 
ATOM      7  C   UNL     1      40.608  30.460  43.457  0.00  0.00    +0.000 A 
ATOM      8  C   UNL     1      41.012  30.094  42.182  0.00  0.00    +0.000 A 
ATOM      9  N   UNL     1      41.848  29.155  41.725  0.00  0.00    +0.000 N 
ATOM     10  C   UNL     1      41.867  29.244  40.396  0.00  0.00    +0.000 A 
ATOM     11  N   UNL     1      41.034  30.250  40.015  0.00  0.00    +0.000 NA
ATOM     12  C   UNL     1      40.493  30.790  41.120  0.00  0.00    +0.000 A 
ATOM     13  C   UNL     1      39.583  31.843  41.249  0.00  0.00    +0.000 A 
ATOM     14  H   UNL     1      38.490  33.002  42.670  0.00  0.00    +0.000 HD
ATOM     15  H   UNL     1      41.000  29.929  44.319  0.00  0.00    +0.000 HD
ATOM     16  H   UNL     1      42.371  28.491  42.346  0.00  0.00    +0.000 HD
ATOM     17  H   UNL     1      42.472  28.588  39.780  0.00  0.00    +0.000 HD
BRANCH  13  18
ATOM     18  O   UNL     1      39.056  32.548  40.191  0.00  0.00    +0.000 OA
BRANCH  18  19
ATOM     19  C   UNL     1      38.325  31.843  39.245  0.00  0.00    +0.000 A 
ATOM     20  C   UNL     1      38.367  32.358  37.957  0.00  0.00    +0.000 A 
ATOM     21  C   UNL     1      37.664  31.713  36.954  0.00  0.00    +0.000 A 
ATOM     22  H   UNL     1      37.692  32.108  35.946  0.00  0.00    +0.000 HD
ATOM     23  N   UNL     1      36.945  30.599  37.215  0.00  0.00    +0.000 NA
ATOM     24  C   UNL     1      36.920  30.116  38.485  0.00  0.00    +0.000 A 
ATOM     25  N   UNL     1      37.597  30.729  39.469  0.00  0.00    +0.000 NA
ENDBRANCH  18  19
ENDBRANCH  13  18
ENDBRANCH   1   6
BRANCH   3  32
ATOM     26  F   UNL     1      38.118  30.153  47.486  0.00  0.00    +0.000 F 
ATOM     27  C   UNL     1      38.381  31.403  47.974  0.00  0.00    +0.000 A 
ATOM     28  C   UNL     1      37.714  31.835  49.086  0.00  0.00    +0.000 A 
ATOM     29  C   UNL     1      38.023  33.099  49.526  0.00  0.00    +0.000 A 
ATOM     30  C   UNL     1      38.940  33.893  48.901  0.00  0.00    +0.000 A 
ATOM     31  C   UNL     1      39.598  33.418  47.772  0.00  0.00    +0.000 A 
ATOM     32  C   UNL     1      39.305  32.153  47.312  0.00  0.00    +0.000 A 
ATOM     33  H   UNL     1      37.504  33.467  50.411  0.00  0.00    +0.000 HD
ATOM     34  H   UNL     1      39.161  34.885  49.273  0.00  0.00    +0.000 HD
ATOM     35  H   UNL     1      40.336  34.034  47.255  0.00  0.00    +0.000 HD
BRANCH  28  38
ATOM     36  C   UNL     1      36.084  29.366  51.443  0.00  0.00    +0.000 A 
ATOM     37  C   UNL     1      37.039  30.223  50.855  0.00  0.00    +0.000 A 
ATOM     38  C   UNL     1      36.745  30.944  49.712  0.00  0.00    +0.000 A 
ATOM     39  N   UNL     1      35.496  30.786  49.188  0.00  0.00    +0.000 NA
ATOM     40  C   UNL     1      34.589  29.969  49.750  0.00  0.00    +0.000 A 
ATOM     41  N   UNL     1      34.874  29.279  50.846  0.00  0.00    +0.000 NA
ATOM     42  H   UNL     1      36.436  28.859  52.333  0.00  0.00    +0.000 HD
ATOM     43  H   UNL     1      38.037  30.358  51.262  0.00  0.00    +0.000 HD
ATOM     44  H   UNL     1      33.587  29.842  49.330  0.00  0.00    +0.000 HD
ENDBRANCH  28  38
ENDBRANCH   3  32
TORSDOF 5
