
 OpenBabel03272503123D

 44 48  0  0  0  0  0  0  0  0999 V2000
   39.2620   31.9150   44.9420 C   0  0  0  0  0  0  0  0  0  0  0  0
   38.1760   32.5700   45.0590 O   0  0  0  0  0  0  0  0  0  0  0  0
   39.9640   31.6410   46.1590 N   0  0  0  0  0  0  0  0  0  0  0  0
   40.8620   31.1130   46.1110 H   0  0  0  0  0  0  0  0  0  0  0  0
   39.1990   32.2250   42.5730 C   0  0  0  0  0  0  0  0  0  0  0  0
   39.7190   31.4930   43.6310 C   0  0  0  0  0  0  0  0  0  0  0  0
   40.5900   30.4590   43.4650 C   0  0  0  0  0  0  0  0  0  0  0  0
   40.9960   30.0960   42.1890 C   0  0  0  0  0  0  0  0  0  0  0  0
   41.8200   29.1480   41.7300 N   0  0  0  0  0  0  0  0  0  0  0  0
   41.8470   29.2460   40.4020 C   0  0  0  0  0  0  0  0  0  0  0  0
   41.0320   30.2680   40.0240 N   0  0  0  0  0  0  0  0  0  0  0  0
   40.4930   30.8080   41.1300 C   0  0  0  0  0  0  0  0  0  0  0  0
   39.5990   31.8740   41.2620 C   0  0  0  0  0  0  0  0  0  0  0  0
   38.5160   33.0390   42.6850 H   0  0  0  0  0  0  0  0  0  0  0  0
   40.9690   29.9160   44.3250 H   0  0  0  0  0  0  0  0  0  0  0  0
   42.3290   28.4710   42.3490 H   0  0  0  0  0  0  0  0  0  0  0  0
   42.4450   28.5850   39.7840 H   0  0  0  0  0  0  0  0  0  0  0  0
   39.0890   32.5950   40.2060 O   0  0  0  0  0  0  0  0  0  0  0  0
   37.7110   32.7430   40.1310 C   0  0  0  0  0  0  0  0  0  0  0  0
   37.2550   34.0540   40.0990 C   0  0  0  0  0  3  0  0  0  0  0  0
   35.8930   34.2880   40.0260 C   0  0  0  0  0  0  0  0  0  0  0  0
   35.5290   35.3070   40.0000 H   0  0  0  0  0  0  0  0  0  0  0  0
   35.0120   33.2640   39.9820 N   0  0  0  0  0  0  0  0  0  0  0  0
   35.4850   31.9890   40.0140 C   0  0  0  0  0  3  0  0  0  0  0  0
   36.8040   31.7450   40.0870 N   0  0  0  0  0  0  0  0  0  0  0  0
   38.1150   30.1540   47.4960 F   0  0  0  0  0  0  0  0  0  0  0  0
   38.3770   31.4040   47.9850 C   0  0  0  0  0  0  0  0  0  0  0  0
   37.7100   31.8340   49.0980 C   0  0  0  0  0  0  0  0  0  0  0  0
   38.0170   33.0980   49.5390 C   0  0  0  0  0  0  0  0  0  0  0  0
   38.9330   33.8940   48.9150 C   0  0  0  0  0  0  0  0  0  0  0  0
   39.5910   33.4210   47.7850 C   0  0  0  0  0  0  0  0  0  0  0  0
   39.3000   32.1560   47.3240 C   0  0  0  0  0  0  0  0  0  0  0  0
   37.4980   33.4640   50.4250 H   0  0  0  0  0  0  0  0  0  0  0  0
   39.1530   34.8860   49.2880 H   0  0  0  0  0  0  0  0  0  0  0  0
   40.3290   34.0380   47.2690 H   0  0  0  0  0  0  0  0  0  0  0  0
   36.0850   29.3570   51.4500 C   0  0  0  0  0  0  0  0  0  0  0  0
   37.0390   30.2160   50.8630 C   0  0  0  0  0  0  0  0  0  0  0  0
   36.7420   30.9410   49.7230 C   0  0  0  0  0  0  0  0  0  0  0  0
   35.4920   30.7860   49.2020 N   0  0  0  0  0  0  0  0  0  0  0  0
   34.5860   29.9670   49.7640 C   0  0  0  0  0  0  0  0  0  0  0  0
   34.8730   29.2730   50.8560 N   0  0  0  0  0  0  0  0  0  0  0  0
   36.4390   28.8460   52.3370 H   0  0  0  0  0  0  0  0  0  0  0  0
   38.0380   30.3490   51.2680 H   0  0  0  0  0  0  0  0  0  0  0  0
   33.5820   29.8420   49.3460 H   0  0  0  0  0  0  0  0  0  0  0  0
  1  2  2  0  0  0  0
  1  3  1  0  0  0  0
  3 32  1  0  0  0  0
  4  3  1  0  0  0  0
  5 14  1  0  0  0  0
  5  6  1  0  0  0  0
  6  1  1  0  0  0  0
  7  6  2  0  0  0  0
  7 15  1  0  0  0  0
  8  7  1  0  0  0  0
  9  8  1  0  0  0  0
  9 16  1  0  0  0  0
 10  9  1  0  0  0  0
 11 10  2  0  0  0  0
 11 12  1  0  0  0  0
 12 13  1  0  0  0  0
 12  8  2  0  0  0  0
 13  5  2  0  0  0  0
 17 10  1  0  0  0  0
 18 13  1  0  0  0  0
 19 18  1  0  0  0  0
 20 19  1  0  0  0  0
 21 20  2  0  0  0  0
 22 21  1  0  0  0  0
 23 24  2  0  0  0  0
 23 21  1  0  0  0  0
 24 25  1  0  0  0  0
 25 19  2  0  0  0  0
 26 27  1  0  0  0  0
 27 28  1  0  0  0  0
 28 29  2  0  0  0  0
 28 38  1  0  0  0  0
 29 33  1  0  0  0  0
 30 34  1  0  0  0  0
 30 29  1  0  0  0  0
 31 30  2  0  0  0  0
 32 31  1  0  0  0  0
 32 27  2  0  0  0  0
 35 31  1  0  0  0  0
 36 42  1  0  0  0  0
 37 43  1  0  0  0  0
 37 36  1  0  0  0  0
 38 37  2  0  0  0  0
 39 38  1  0  0  0  0
 39 40  2  0  0  0  0
 40 41  1  0  0  0  0
 41 36  2  0  0  0  0
 44 40  1  0  0  0  0
M  END
>  <minimizedAffinity>
-7.33457232

>  <minimizedRMSD>
1.30999804

$$$$
