
 OpenBabel03272507163D

 24 26  0  0  1  0  0  0  0  0999 V2000
   36.9180   30.9210   50.5790 C   0  0  1  0  0  0  0  0  0  0  0  0
   36.1710   29.6850   50.5210 C   0  0  2  0  0  0  0  0  0  0  0  0
   37.5080   29.6630   51.2200 C   0  0  0  0  0  0  0  0  0  0  0  0
   36.7070   31.7570   51.2970 H   0  0  0  0  0  0  0  0  0  0  0  0
   35.2530   29.5930   51.1360 H   0  0  0  0  0  0  0  0  0  0  0  0
   37.4380   29.6500   52.3220 H   0  0  0  0  0  0  0  0  0  0  0  0
   38.3720   29.1890   50.7640 H   0  0  0  0  0  0  0  0  0  0  0  0
   37.7310   31.4050   49.4030 C   0  0  0  0  0  0  0  0  0  0  0  0
   38.2110   32.7140   49.4770 C   0  0  0  0  0  0  0  0  0  0  0  0
   38.9330   33.1410   48.3640 C   0  0  0  0  0  0  0  0  0  0  0  0
   39.1370   32.3050   47.2910 N   0  0  0  0  0  0  0  0  0  0  0  0
   38.6460   31.0450   47.2740 C   0  0  0  0  0  0  0  0  0  0  0  0
   37.9340   30.5840   48.3420 N   0  0  0  0  0  0  0  0  0  0  0  0
   38.0360   33.3370   50.3240 H   0  0  0  0  0  0  0  0  0  0  0  0
   39.3330   34.1450   48.3600 H   0  0  0  0  0  0  0  0  0  0  0  0
   38.7990   30.3780   46.4370 H   0  0  0  0  0  0  0  0  0  0  0  0
   36.0830   28.9920   49.3040 O   0  0  0  0  0  0  0  0  0  0  0  0
   34.8550   28.8160   48.6410 C   0  0  0  0  0  0  0  0  0  0  0  0
   34.6440   29.5980   47.5030 C   0  0  0  0  0  3  0  0  0  0  0  0
   33.4030   29.3500   46.9200 C   0  0  0  0  0  0  0  0  0  0  0  0
   33.1280   29.9090   46.0160 H   0  0  0  0  0  0  0  0  0  0  0  0
   32.4720   28.4850   47.3400 N   0  0  0  0  0  0  0  0  0  0  0  0
   32.7710   27.7730   48.4560 C   0  0  0  0  0  3  0  0  0  0  0  0
   33.9420   27.9360   49.0940 N   0  0  0  0  0  0  0  0  0  0  0  0
  1  3  1  0  0  0  0
  1  4  1  1  0  0  0
  2  1  1  0  0  0  0
  2  5  1  1  0  0  0
  2  3  1  0  0  0  0
  3  6  1  0  0  0  0
  7  3  1  0  0  0  0
  8  9  1  0  0  0  0
  8  1  1  0  0  0  0
  9 14  1  0  0  0  0
 10  9  2  0  0  0  0
 11 10  1  0  0  0  0
 12 11  2  0  0  0  0
 12 13  1  0  0  0  0
 13  8  2  0  0  0  0
 15 10  1  0  0  0  0
 16 12  1  0  0  0  0
 17  2  1  0  0  0  0
 18 24  1  0  0  0  0
 18 17  1  0  0  0  0
 19 18  2  0  0  0  0
 20 22  2  0  0  0  0
 20 19  1  0  0  0  0
 21 20  1  0  0  0  0
 22 23  1  0  0  0  0
 23 24  2  0  0  0  0
M  END
>  <minimizedAffinity>
-5.25076485

>  <minimizedRMSD>
1.6420846

$$$$
