
 OpenBabel03272503123D

 44 48  0  0  0  0  0  0  0  0999 V2000
   39.2610   31.9160   44.9480 C   0  0  0  0  0  0  0  0  0  0  0  0
   38.1730   32.5660   45.0660 O   0  0  0  0  0  0  0  0  0  0  0  0
   39.9670   31.6450   46.1640 N   0  0  0  0  0  0  0  0  0  0  0  0
   40.8660   31.1210   46.1140 H   0  0  0  0  0  0  0  0  0  0  0  0
   39.1970   32.2280   42.5790 C   0  0  0  0  0  0  0  0  0  0  0  0
   39.7190   31.4960   43.6350 C   0  0  0  0  0  0  0  0  0  0  0  0
   40.5910   30.4630   43.4680 C   0  0  0  0  0  0  0  0  0  0  0  0
   40.9960   30.1010   42.1920 C   0  0  0  0  0  0  0  0  0  0  0  0
   41.8220   29.1550   41.7320 N   0  0  0  0  0  0  0  0  0  0  0  0
   41.8480   29.2540   40.4040 C   0  0  0  0  0  0  0  0  0  0  0  0
   41.0310   30.2740   40.0270 N   0  0  0  0  0  0  0  0  0  0  0  0
   40.4920   30.8130   41.1340 C   0  0  0  0  0  0  0  0  0  0  0  0
   39.5960   31.8770   41.2670 C   0  0  0  0  0  0  0  0  0  0  0  0
   38.5130   33.0400   42.6920 H   0  0  0  0  0  0  0  0  0  0  0  0
   40.9720   29.9200   44.3280 H   0  0  0  0  0  0  0  0  0  0  0  0
   42.3320   28.4790   42.3500 H   0  0  0  0  0  0  0  0  0  0  0  0
   42.4470   28.5940   39.7850 H   0  0  0  0  0  0  0  0  0  0  0  0
   39.0840   32.5980   40.2120 O   0  0  0  0  0  0  0  0  0  0  0  0
   37.7350   32.9220   40.2450 C   0  0  0  0  0  0  0  0  0  0  0  0
   36.8690   31.9020   39.8780 C   0  0  0  0  0  0  0  0  0  0  0  0
   35.5070   32.1450   39.8840 C   0  0  0  0  0  0  0  0  0  0  0  0
   34.8240   31.3540   39.5990 H   0  0  0  0  0  0  0  0  0  0  0  0
   35.0170   33.3530   40.2420 N   0  0  0  0  0  0  0  0  0  0  0  0
   35.8860   34.3350   40.5980 C   0  0  0  0  0  0  0  0  0  0  0  0
   37.2120   34.1160   40.5960 N   0  0  0  0  0  0  0  0  0  0  0  0
   38.1150   30.1570   47.4940 F   0  0  0  0  0  0  0  0  0  0  0  0
   38.3770   31.4050   47.9870 C   0  0  0  0  0  0  0  0  0  0  0  0
   37.7100   31.8330   49.1010 C   0  0  0  0  0  0  0  0  0  0  0  0
   38.0190   33.0950   49.5460 C   0  0  0  0  0  0  0  0  0  0  0  0
   38.9360   33.8920   48.9250 C   0  0  0  0  0  0  0  0  0  0  0  0
   39.5950   33.4210   47.7940 C   0  0  0  0  0  0  0  0  0  0  0  0
   39.3020   32.1580   47.3290 C   0  0  0  0  0  0  0  0  0  0  0  0
   37.4990   33.4600   50.4320 H   0  0  0  0  0  0  0  0  0  0  0  0
   39.1570   34.8820   49.3010 H   0  0  0  0  0  0  0  0  0  0  0  0
   40.3330   34.0390   47.2800 H   0  0  0  0  0  0  0  0  0  0  0  0
   36.0780   29.3540   51.4450 C   0  0  0  0  0  0  0  0  0  0  0  0
   37.0340   30.2130   50.8620 C   0  0  0  0  0  0  0  0  0  0  0  0
   36.7400   30.9400   49.7220 C   0  0  0  0  0  0  0  0  0  0  0  0
   35.4910   30.7860   49.1980 N   0  0  0  0  0  0  0  0  0  0  0  0
   34.5830   29.9670   49.7560 C   0  0  0  0  0  0  0  0  0  0  0  0
   34.8680   29.2710   50.8490 N   0  0  0  0  0  0  0  0  0  0  0  0
   36.4300   28.8420   52.3330 H   0  0  0  0  0  0  0  0  0  0  0  0
   38.0320   30.3440   51.2690 H   0  0  0  0  0  0  0  0  0  0  0  0
   33.5810   29.8430   49.3360 H   0  0  0  0  0  0  0  0  0  0  0  0
  1  2  2  0  0  0  0
  1  3  1  0  0  0  0
  3 32  1  0  0  0  0
  4  3  1  0  0  0  0
  5 14  1  0  0  0  0
  5  6  1  0  0  0  0
  6  1  1  0  0  0  0
  7  6  2  0  0  0  0
  7 15  1  0  0  0  0
  8  7  1  0  0  0  0
  9  8  1  0  0  0  0
  9 16  1  0  0  0  0
 10  9  1  0  0  0  0
 11 10  2  0  0  0  0
 11 12  1  0  0  0  0
 12 13  1  0  0  0  0
 12  8  2  0  0  0  0
 13  5  2  0  0  0  0
 17 10  1  0  0  0  0
 18 19  1  0  0  0  0
 18 13  1  0  0  0  0
 19 25  1  0  0  0  0
 20 21  1  0  0  0  0
 20 19  2  0  0  0  0
 21 23  2  0  0  0  0
 22 21  1  0  0  0  0
 23 24  1  0  0  0  0
 25 24  2  0  0  0  0
 26 27  1  0  0  0  0
 27 28  1  0  0  0  0
 28 29  2  0  0  0  0
 28 38  1  0  0  0  0
 29 33  1  0  0  0  0
 30 34  1  0  0  0  0
 30 29  1  0  0  0  0
 31 30  2  0  0  0  0
 32 31  1  0  0  0  0
 32 27  2  0  0  0  0
 35 31  1  0  0  0  0
 36 42  1  0  0  0  0
 37 43  1  0  0  0  0
 37 36  1  0  0  0  0
 38 37  2  0  0  0  0
 39 38  1  0  0  0  0
 39 40  2  0  0  0  0
 40 41  1  0  0  0  0
 41 36  2  0  0  0  0
 44 40  1  0  0  0  0
M  END
>  <minimizedAffinity>
-7.38725805

>  <minimizedRMSD>
1.50575113

$$$$
