REMARK  Name = 
REMARK  3 active torsions:
REMARK  status: ('A' for Active; 'I' for Inactive)
REMARK    1  A    between atoms: C_1  and  C_8
REMARK    2  A    between atoms: C_4  and  O_13
REMARK    3  A    between atoms: O_13  and  C_20
REMARK                            x       y       z     vdW  Elec       q    Type
REMARK                         _______ _______ _______ _____ _____    ______ ____
ROOT
ATOM      1  C   UNL     1      37.561  31.667  48.934  0.00  0.00    +0.000 A 
ATOM      2  C   UNL     1      38.187  32.731  49.507  0.00  0.00    +0.000 A 
ATOM      3  C   UNL     1      39.063  33.557  48.837  0.00  0.00    +0.000 A 
ATOM      4  C   UNL     1      39.361  33.348  47.527  0.00  0.00    +0.000 A 
ATOM      5  C   UNL     1      38.708  32.250  46.957  0.00  0.00    +0.000 A 
ATOM      6  N   UNL     1      37.849  31.443  47.622  0.00  0.00    +0.000 NA
ATOM      7  H   UNL     1      37.986  32.945  50.549  0.00  0.00    +0.000 HD
ATOM      8  H   UNL     1      39.550  34.398  49.306  0.00  0.00    +0.000 HD
ATOM      9  H   UNL     1      38.849  31.963  45.925  0.00  0.00    +0.000 HD
ENDROOT
BRANCH   1  11
ATOM     10  C   UNL     1      36.939  30.167  50.865  0.00  0.00    +0.000 A 
ATOM     11  C   UNL     1      36.641  30.800  49.645  0.00  0.00    +0.000 A 
ATOM     12  C   UNL     1      35.392  30.564  49.112  0.00  0.00    +0.000 A 
ATOM     13  N   UNL     1      34.526  29.745  49.786  0.00  0.00    +0.000 NA
ATOM     14  C   UNL     1      34.860  29.169  50.943  0.00  0.00    +0.000 A 
ATOM     15  N   UNL     1      36.081  29.374  51.503  0.00  0.00    +0.000 NA
ATOM     16  H   UNL     1      37.927  30.364  51.270  0.00  0.00    +0.000 HD
ATOM     17  H   UNL     1      35.093  31.018  48.175  0.00  0.00    +0.000 HD
ATOM     18  H   UNL     1      34.129  28.533  51.422  0.00  0.00    +0.000 HD
ENDBRANCH   1  11
BRANCH   4  19
ATOM     19  O   UNL     1      40.198  34.040  46.674  0.00  0.00    +0.000 OA
BRANCH  19  20
ATOM     20  C   UNL     1      40.892  35.138  47.129  0.00  0.00    +0.000 A 
ATOM     21  C   UNL     1      39.930  36.065  47.557  0.00  0.00    +0.000 A 
ATOM     22  C   UNL     1      40.281  37.315  48.087  0.00  0.00    +0.000 A 
ATOM     23  H   UNL     1      39.628  38.082  48.437  0.00  0.00    +0.000 HD
ATOM     24  N   UNL     1      41.604  37.607  48.175  0.00  0.00    +0.000 NA
ATOM     25  C   UNL     1      42.535  36.724  47.767  0.00  0.00    +0.000 A 
ATOM     26  N   UNL     1      42.150  35.550  47.270  0.00  0.00    +0.000 NA
ENDBRANCH  19  20
ENDBRANCH   4  19
TORSDOF 3
