
 OpenBabel03262521013D

 30 31  0  0  1  0  0  0  0  0999 V2000
   39.6580   32.8980   46.3010 N   0  0  0  0  0  0  0  0  0  0  0  0
   38.3430   32.3620   46.1250 C   0  0  1  0  0  0  0  0  0  0  0  0
   37.9570   32.4040   44.6770 C   0  0  0  0  0  0  0  0  0  0  0  0
   38.9400   31.6080   43.9450 N   0  0  0  0  0  0  0  0  0  0  0  0
   40.1770   32.3950   44.0070 C   0  0  0  0  0  0  0  0  0  0  0  0
   40.6480   32.3130   45.4570 C   0  0  2  0  0  0  0  0  0  0  0  0
   39.9580   33.0860   47.2590 H   0  0  0  0  0  0  0  0  0  0  0  0
   37.6520   32.9690   46.7380 H   0  0  0  0  0  0  0  0  0  0  0  0
   37.8830   33.4340   44.2830 H   0  0  0  0  0  0  0  0  0  0  0  0
   36.9400   31.9480   44.5820 H   0  0  0  0  0  0  0  0  0  0  0  0
   38.6160   31.6320   42.9510 H   0  0  0  0  0  0  0  0  0  0  0  0
   40.9270   31.9450   43.3570 H   0  0  0  0  0  0  0  0  0  0  0  0
   39.9570   33.4450   43.7380 H   0  0  0  0  0  0  0  0  0  0  0  0
   41.5710   32.9010   45.5010 H   0  0  0  0  0  0  0  0  0  0  0  0
   40.9250   30.9270   45.7660 N   0  0  0  0  0  0  0  0  0  0  0  0
   40.3640   30.2490   45.2270 H   0  0  0  0  0  0  0  0  0  0  0  0
   40.9600   30.7680   46.7880 H   0  0  0  0  0  0  0  0  0  0  0  0
   38.2390   30.6040   46.6300 S   0  0  0  0  0  0  0  0  0  0  0  0
   37.7040   30.7850   50.6520 C   0  0  0  0  0  0  0  0  0  0  0  0
   38.2930   30.9360   49.4040 C   0  0  0  0  0  0  0  0  0  0  0  0
   37.6190   30.4830   48.2870 C   0  0  0  0  0  0  0  0  0  0  0  0
   36.3780   29.8950   48.4710 N   0  0  0  0  0  0  0  0  0  0  0  0
   35.8740   29.7830   49.6950 C   0  0  0  0  0  0  0  0  0  0  0  0
   36.5060   30.2120   50.7840 N   0  0  0  0  0  0  0  0  0  0  0  0
   38.2300   31.1400   51.5400 H   0  0  0  0  0  0  0  0  0  0  0  0
   39.2440   31.3870   49.2770 H   0  0  0  0  0  0  0  0  0  0  0  0
   34.5570   29.1560   49.8500 C   0  0  0  0  0  0  0  0  0  0  0  0
   34.2750   28.0150   49.4310 O   0  0  0  0  0  0  0  0  0  0  0  0
   33.4810   29.7640   50.4790 O   0  0  0  0  0  0  0  0  0  0  0  0
   32.6340   30.0570   49.9670 H   0  0  0  0  0  0  0  0  0  0  0  0
  1  7  1  0  0  0  0
  2  1  1  0  0  0  0
  2 18  1  0  0  0  0
  2  8  1  1  0  0  0
  3  2  1  0  0  0  0
  4  5  1  0  0  0  0
  4  3  1  0  0  0  0
  5  6  1  0  0  0  0
  6 14  1  1  0  0  0
  6 15  1  0  0  0  0
  6  1  1  0  0  0  0
  9  3  1  0  0  0  0
 10  3  1  0  0  0  0
 11  4  1  0  0  0  0
 12  5  1  0  0  0  0
 13  5  1  0  0  0  0
 15 17  1  0  0  0  0
 16 15  1  0  0  0  0
 18 21  1  0  0  0  0
 19 24  1  0  0  0  0
 19 25  1  0  0  0  0
 20 19  2  0  0  0  0
 21 22  2  0  0  0  0
 21 20  1  0  0  0  0
 22 23  1  0  0  0  0
 23 27  1  0  0  0  0
 23 24  2  0  0  0  0
 26 20  1  0  0  0  0
 27 29  1  0  0  0  0
 28 27  2  0  0  0  0
 30 29  1  0  0  0  0
M  END
>  <minimizedAffinity>
-5.72557306

>  <minimizedRMSD>
0.346615046

$$$$
