
 OpenBabel03262521023D

 30 31  0  0  1  0  0  0  0  0999 V2000
   37.9770   24.2400   36.0520 N   0  0  0  0  0  0  0  0  0  0  0  0
   39.0790   23.6260   35.3760 C   0  0  1  0  0  0  0  0  0  0  0  0
   40.1960   23.3640   36.3410 C   0  0  0  0  0  0  0  0  0  0  0  0
   39.6710   22.4790   37.3800 N   0  0  0  0  0  0  0  0  0  0  0  0
   38.7330   23.3150   38.1390 C   0  0  0  0  0  0  0  0  0  0  0  0
   37.5390   23.5410   37.2150 C   0  0  2  0  0  0  0  0  0  0  0  0
   37.2340   24.6270   35.4690 H   0  0  0  0  0  0  0  0  0  0  0  0
   39.4020   24.3130   34.5730 H   0  0  0  0  0  0  0  0  0  0  0  0
   40.6230   24.2910   36.7650 H   0  0  0  0  0  0  0  0  0  0  0  0
   41.0190   22.8560   35.7800 H   0  0  0  0  0  0  0  0  0  0  0  0
   40.4850   22.2930   38.0080 H   0  0  0  0  0  0  0  0  0  0  0  0
   38.4040   22.7760   39.0280 H   0  0  0  0  0  0  0  0  0  0  0  0
   39.2150   24.2800   38.3810 H   0  0  0  0  0  0  0  0  0  0  0  0
   36.8400   24.1650   37.7830 H   0  0  0  0  0  0  0  0  0  0  0  0
   36.9390   22.2570   36.9260 N   0  0  0  0  0  0  0  0  0  0  0  0
   37.5970   21.4630   36.9520 H   0  0  0  0  0  0  0  0  0  0  0  0
   36.3270   22.3050   36.0920 H   0  0  0  0  0  0  0  0  0  0  0  0
   38.6320   22.0000   34.6600 S   0  0  0  0  0  0  0  0  0  0  0  0
   35.4730   21.5140   32.1550 C   0  0  0  0  0  0  0  0  0  0  0  0
   36.4200   21.2400   33.1320 C   0  0  0  0  0  0  0  0  0  0  0  0
   37.3620   22.2020   33.4390 C   0  0  0  0  0  0  0  0  0  0  0  0
   37.3140   23.4010   32.7490 N   0  0  0  0  0  0  0  0  0  0  0  0
   36.3780   23.5970   31.8250 C   0  0  0  0  0  0  0  0  0  0  0  0
   35.4620   22.6840   31.5140 N   0  0  0  0  0  0  0  0  0  0  0  0
   34.7240   20.7590   31.9060 H   0  0  0  0  0  0  0  0  0  0  0  0
   36.4460   20.3160   33.6530 H   0  0  0  0  0  0  0  0  0  0  0  0
   36.3590   24.8800   31.1160 C   0  0  0  0  0  0  0  0  0  0  0  0
   35.3880   25.6640   31.1180 O   0  0  0  0  0  0  0  0  0  0  0  0
   37.4200   25.3630   30.3640 O   0  0  0  0  0  0  0  0  0  0  0  0
   37.3090   25.6710   29.3850 H   0  0  0  0  0  0  0  0  0  0  0  0
  1  6  1  0  0  0  0
  2  8  1  6  0  0  0
  2  1  1  0  0  0  0
  2  3  1  0  0  0  0
  3  9  1  0  0  0  0
  3  4  1  0  0  0  0
  4 11  1  0  0  0  0
  4  5  1  0  0  0  0
  5 13  1  0  0  0  0
  5 12  1  0  0  0  0
  6 14  1  1  0  0  0
  6  5  1  0  0  0  0
  7  1  1  0  0  0  0
 10  3  1  0  0  0  0
 15 16  1  0  0  0  0
 15  6  1  0  0  0  0
 17 15  1  0  0  0  0
 18  2  1  0  0  0  0
 19 20  1  0  0  0  0
 20 21  2  0  0  0  0
 20 26  1  0  0  0  0
 21 18  1  0  0  0  0
 22 21  1  0  0  0  0
 23 22  2  0  0  0  0
 24 23  1  0  0  0  0
 24 19  2  0  0  0  0
 25 19  1  0  0  0  0
 27 28  2  0  0  0  0
 27 23  1  0  0  0  0
 29 27  1  0  0  0  0
 30 29  1  0  0  0  0
M  END
>  <minimizedAffinity>
-4.79942274

$$$$

 OpenBabel03262521023D

 30 31  0  0  1  0  0  0  0  0999 V2000
   38.2740   24.3370   36.5080 N   0  0  0  0  0  0  0  0  0  0  0  0
   39.2940   23.5740   35.8560 C   0  0  1  0  0  0  0  0  0  0  0  0
   40.3680   23.2030   36.8340 C   0  0  0  0  0  0  0  0  0  0  0  0
   39.7350   22.4180   37.8920 N   0  0  0  0  0  0  0  0  0  0  0  0
   38.9040   23.3820   38.6230 C   0  0  0  0  0  0  0  0  0  0  0  0
   37.7500   23.7280   37.6860 C   0  0  2  0  0  0  0  0  0  0  0  0
   37.5860   24.7960   35.9110 H   0  0  0  0  0  0  0  0  0  0  0  0
   39.7010   24.1950   35.0360 H   0  0  0  0  0  0  0  0  0  0  0  0
   40.9040   24.0820   37.2360 H   0  0  0  0  0  0  0  0  0  0  0  0
   41.1240   22.5830   36.2910 H   0  0  0  0  0  0  0  0  0  0  0  0
   40.5180   22.1490   38.5300 H   0  0  0  0  0  0  0  0  0  0  0  0
   38.5100   22.9110   39.5240 H   0  0  0  0  0  0  0  0  0  0  0  0
   39.5010   24.2870   38.8430 H   0  0  0  0  0  0  0  0  0  0  0  0
   37.1310   24.4470   38.2340 H   0  0  0  0  0  0  0  0  0  0  0  0
   36.9980   22.5200   37.4270 N   0  0  0  0  0  0  0  0  0  0  0  0
   37.5530   21.6520   37.4770 H   0  0  0  0  0  0  0  0  0  0  0  0
   36.3990   22.6210   36.5880 H   0  0  0  0  0  0  0  0  0  0  0  0
   38.6530   21.9970   35.1790 S   0  0  0  0  0  0  0  0  0  0  0  0
   36.9200   23.6200   31.8840 C   0  0  0  0  0  0  0  0  0  0  0  0
   37.7100   23.4980   33.0180 C   0  0  0  0  0  0  0  0  0  0  0  0
   37.6990   22.3060   33.7160 C   0  0  0  0  0  0  0  0  0  0  0  0
   36.8910   21.2850   33.2450 N   0  0  0  0  0  0  0  0  0  0  0  0
   36.1590   21.4710   32.1510 C   0  0  0  0  0  0  0  0  0  0  0  0
   36.1550   22.6100   31.4650 N   0  0  0  0  0  0  0  0  0  0  0  0
   36.9220   24.5580   31.3260 H   0  0  0  0  0  0  0  0  0  0  0  0
   38.3250   24.2870   33.3690 H   0  0  0  0  0  0  0  0  0  0  0  0
   35.3160   20.3660   31.6830 C   0  0  0  0  0  0  0  0  0  0  0  0
   34.1210   20.2150   32.0080 O   0  0  0  0  0  0  0  0  0  0  0  0
   35.7570   19.3670   30.8270 O   0  0  0  0  0  0  0  0  0  0  0  0
   35.6530   18.3650   31.0480 H   0  0  0  0  0  0  0  0  0  0  0  0
  1  6  1  0  0  0  0
  2  8  1  6  0  0  0
  2  1  1  0  0  0  0
  2  3  1  0  0  0  0
  3  9  1  0  0  0  0
  3  4  1  0  0  0  0
  4 11  1  0  0  0  0
  4  5  1  0  0  0  0
  5 13  1  0  0  0  0
  5 12  1  0  0  0  0
  6 14  1  1  0  0  0
  6  5  1  0  0  0  0
  7  1  1  0  0  0  0
 10  3  1  0  0  0  0
 15 16  1  0  0  0  0
 15  6  1  0  0  0  0
 17 15  1  0  0  0  0
 18  2  1  0  0  0  0
 19 20  1  0  0  0  0
 20 26  1  0  0  0  0
 20 21  2  0  0  0  0
 21 18  1  0  0  0  0
 22 21  1  0  0  0  0
 23 22  2  0  0  0  0
 24 19  2  0  0  0  0
 24 23  1  0  0  0  0
 25 19  1  0  0  0  0
 27 28  2  0  0  0  0
 27 23  1  0  0  0  0
 29 30  1  0  0  0  0
 29 27  1  0  0  0  0
M  END
>  <minimizedAffinity>
-4.74139261

$$$$

 OpenBabel03262521023D

 30 31  0  0  1  0  0  0  0  0999 V2000
   38.9570   21.8310   36.0920 N   0  0  0  0  0  0  0  0  0  0  0  0
   37.9320   22.7530   35.7120 C   0  0  1  0  0  0  0  0  0  0  0  0
   37.4000   23.4630   36.9210 C   0  0  0  0  0  0  0  0  0  0  0  0
   38.5230   24.1670   37.5370 N   0  0  0  0  0  0  0  0  0  0  0  0
   39.3690   23.1030   38.0910 C   0  0  0  0  0  0  0  0  0  0  0  0
   39.9940   22.4020   36.8880 C   0  0  2  0  0  0  0  0  0  0  0  0
   39.2670   21.1650   35.3840 H   0  0  0  0  0  0  0  0  0  0  0  0
   37.1340   22.1770   35.2080 H   0  0  0  0  0  0  0  0  0  0  0  0
   36.8990   22.7820   37.6320 H   0  0  0  0  0  0  0  0  0  0  0  0
   36.6280   24.1950   36.5750 H   0  0  0  0  0  0  0  0  0  0  0  0
   38.1070   24.6750   38.3500 H   0  0  0  0  0  0  0  0  0  0  0  0
   40.1570   23.5460   38.7010 H   0  0  0  0  0  0  0  0  0  0  0  0
   38.7390   22.3940   38.6610 H   0  0  0  0  0  0  0  0  0  0  0  0
   40.6240   21.6080   37.3040 H   0  0  0  0  0  0  0  0  0  0  0  0
   40.8070   23.3610   36.1750 N   0  0  0  0  0  0  0  0  0  0  0  0
   40.4890   24.3390   36.2620 H   0  0  0  0  0  0  0  0  0  0  0  0
   41.0130   23.0410   35.2120 H   0  0  0  0  0  0  0  0  0  0  0  0
   38.5570   24.0580   34.5890 S   0  0  0  0  0  0  0  0  0  0  0  0
   36.2960   23.2620   31.3100 C   0  0  0  0  0  0  0  0  0  0  0  0
   37.0930   23.0590   32.4280 C   0  0  0  0  0  0  0  0  0  0  0  0
   37.5360   24.1560   33.1420 C   0  0  0  0  0  0  0  0  0  0  0  0
   37.1610   25.4130   32.6990 N   0  0  0  0  0  0  0  0  0  0  0  0
   36.3960   25.5340   31.6190 C   0  0  0  0  0  0  0  0  0  0  0  0
   35.9580   24.4920   30.9180 N   0  0  0  0  0  0  0  0  0  0  0  0
   35.9420   22.4010   30.7400 H   0  0  0  0  0  0  0  0  0  0  0  0
   37.3740   22.0910   32.7560 H   0  0  0  0  0  0  0  0  0  0  0  0
   36.0190   26.8820   31.1820 C   0  0  0  0  0  0  0  0  0  0  0  0
   35.4510   27.7190   31.9130 O   0  0  0  0  0  0  0  0  0  0  0  0
   36.2510   27.3730   29.9060 O   0  0  0  0  0  0  0  0  0  0  0  0
   35.5030   27.7860   29.3280 H   0  0  0  0  0  0  0  0  0  0  0  0
  1  6  1  0  0  0  0
  2  8  1  6  0  0  0
  2  1  1  0  0  0  0
  2  3  1  0  0  0  0
  3  4  1  0  0  0  0
  3  9  1  0  0  0  0
  4  5  1  0  0  0  0
  4 11  1  0  0  0  0
  5 13  1  0  0  0  0
  5 12  1  0  0  0  0
  6 14  1  1  0  0  0
  6  5  1  0  0  0  0
  7  1  1  0  0  0  0
 10  3  1  0  0  0  0
 15 16  1  0  0  0  0
 15  6  1  0  0  0  0
 17 15  1  0  0  0  0
 18  2  1  0  0  0  0
 19 20  1  0  0  0  0
 20 26  1  0  0  0  0
 20 21  2  0  0  0  0
 21 18  1  0  0  0  0
 22 21  1  0  0  0  0
 23 22  2  0  0  0  0
 24 19  2  0  0  0  0
 24 23  1  0  0  0  0
 25 19  1  0  0  0  0
 27 23  1  0  0  0  0
 27 28  2  0  0  0  0
 29 27  1  0  0  0  0
 30 29  1  0  0  0  0
M  END
>  <minimizedAffinity>
-4.70759249

$$$$

 OpenBabel03262521023D

 30 31  0  0  1  0  0  0  0  0999 V2000
   39.2150   21.6790   36.3750 N   0  0  0  0  0  0  0  0  0  0  0  0
   37.9550   22.0410   35.8000 C   0  0  1  0  0  0  0  0  0  0  0  0
   37.1450   22.8310   36.7830 C   0  0  0  0  0  0  0  0  0  0  0  0
   37.9190   24.0240   37.1200 N   0  0  0  0  0  0  0  0  0  0  0  0
   39.0500   23.5230   37.9110 C   0  0  0  0  0  0  0  0  0  0  0  0
   39.9440   22.7750   36.9250 C   0  0  2  0  0  0  0  0  0  0  0  0
   39.7750   20.9920   35.8690 H   0  0  0  0  0  0  0  0  0  0  0  0
   37.4370   21.1060   35.5190 H   0  0  0  0  0  0  0  0  0  0  0  0
   36.8740   22.2470   37.6820 H   0  0  0  0  0  0  0  0  0  0  0  0
   36.1870   23.1180   36.2830 H   0  0  0  0  0  0  0  0  0  0  0  0
   37.3080   24.5620   37.7750 H   0  0  0  0  0  0  0  0  0  0  0  0
   39.6000   24.3640   38.3310 H   0  0  0  0  0  0  0  0  0  0  0  0
   38.6750   22.8290   38.6870 H   0  0  0  0  0  0  0  0  0  0  0  0
   40.7870   22.4010   37.5170 H   0  0  0  0  0  0  0  0  0  0  0  0
   40.4110   23.7150   35.9310 N   0  0  0  0  0  0  0  0  0  0  0  0
   39.7690   24.5030   35.7540 H   0  0  0  0  0  0  0  0  0  0  0  0
   40.7680   23.2300   35.0890 H   0  0  0  0  0  0  0  0  0  0  0  0
   38.1490   23.1090   34.3240 S   0  0  0  0  0  0  0  0  0  0  0  0
   35.7740   22.7860   31.0460 C   0  0  0  0  0  0  0  0  0  0  0  0
   36.5910   23.3470   32.0170 C   0  0  0  0  0  0  0  0  0  0  0  0
   37.0940   22.5390   33.0180 C   0  0  0  0  0  0  0  0  0  0  0  0
   36.7540   21.1970   33.0010 N   0  0  0  0  0  0  0  0  0  0  0  0
   35.9660   20.7260   32.0400 C   0  0  0  0  0  0  0  0  0  0  0  0
   35.4710   21.4860   31.0680 N   0  0  0  0  0  0  0  0  0  0  0  0
   35.3710   23.4170   30.2520 H   0  0  0  0  0  0  0  0  0  0  0  0
   36.8440   24.3770   32.0190 H   0  0  0  0  0  0  0  0  0  0  0  0
   35.6280   19.2990   32.0550 C   0  0  0  0  0  0  0  0  0  0  0  0
   36.4580   18.3870   32.2510 O   0  0  0  0  0  0  0  0  0  0  0  0
   34.3470   18.8060   31.8540 O   0  0  0  0  0  0  0  0  0  0  0  0
   34.1380   18.0830   31.1480 H   0  0  0  0  0  0  0  0  0  0  0  0
  1  6  1  0  0  0  0
  2  8  1  6  0  0  0
  2  1  1  0  0  0  0
  2  3  1  0  0  0  0
  3  4  1  0  0  0  0
  3  9  1  0  0  0  0
  4 11  1  0  0  0  0
  4  5  1  0  0  0  0
  5 12  1  0  0  0  0
  5 13  1  0  0  0  0
  6 14  1  1  0  0  0
  6  5  1  0  0  0  0
  7  1  1  0  0  0  0
 10  3  1  0  0  0  0
 15  6  1  0  0  0  0
 16 15  1  0  0  0  0
 17 15  1  0  0  0  0
 18  2  1  0  0  0  0
 19 24  2  0  0  0  0
 19 20  1  0  0  0  0
 20 26  1  0  0  0  0
 20 21  2  0  0  0  0
 21 18  1  0  0  0  0
 22 21  1  0  0  0  0
 23 27  1  0  0  0  0
 23 22  2  0  0  0  0
 24 23  1  0  0  0  0
 25 19  1  0  0  0  0
 27 28  2  0  0  0  0
 29 27  1  0  0  0  0
 30 29  1  0  0  0  0
M  END
>  <minimizedAffinity>
-4.44679451

$$$$

 OpenBabel03262521023D

 30 31  0  0  1  0  0  0  0  0999 V2000
   38.3160   22.6910   35.9280 N   0  0  0  0  0  0  0  0  0  0  0  0
   37.7180   23.5540   36.8990 C   0  0  1  0  0  0  0  0  0  0  0  0
   38.1650   23.1700   38.2780 C   0  0  0  0  0  0  0  0  0  0  0  0
   39.6220   23.2900   38.3090 N   0  0  0  0  0  0  0  0  0  0  0  0
   40.1030   22.1940   37.4580 C   0  0  0  0  0  0  0  0  0  0  0  0
   39.7350   22.5860   36.0300 C   0  0  2  0  0  0  0  0  0  0  0  0
   37.9490   22.7400   34.9760 H   0  0  0  0  0  0  0  0  0  0  0  0
   36.6210   23.4610   36.7980 H   0  0  0  0  0  0  0  0  0  0  0  0
   37.8280   22.1590   38.5720 H   0  0  0  0  0  0  0  0  0  0  0  0
   37.7020   23.8880   39.0000 H   0  0  0  0  0  0  0  0  0  0  0  0
   39.8890   23.0500   39.2900 H   0  0  0  0  0  0  0  0  0  0  0  0
   41.1870   22.1180   37.5440 H   0  0  0  0  0  0  0  0  0  0  0  0
   39.5870   21.2580   37.7410 H   0  0  0  0  0  0  0  0  0  0  0  0
   40.0940   21.7660   35.3980 H   0  0  0  0  0  0  0  0  0  0  0  0
   40.4290   23.8110   35.7010 N   0  0  0  0  0  0  0  0  0  0  0  0
   40.6250   24.4200   36.5100 H   0  0  0  0  0  0  0  0  0  0  0  0
   40.0050   24.2780   34.8810 H   0  0  0  0  0  0  0  0  0  0  0  0
   38.2150   25.3020   36.6710 S   0  0  0  0  0  0  0  0  0  0  0  0
   36.7690   27.4900   33.5700 C   0  0  0  0  0  0  0  0  0  0  0  0
   37.1570   27.1460   34.8570 C   0  0  0  0  0  0  0  0  0  0  0  0
   37.6760   25.8870   35.0860 C   0  0  0  0  0  0  0  0  0  0  0  0
   37.7830   25.0230   34.0090 N   0  0  0  0  0  0  0  0  0  0  0  0
   37.3920   25.4190   32.8020 C   0  0  0  0  0  0  0  0  0  0  0  0
   36.8890   26.6260   32.5600 N   0  0  0  0  0  0  0  0  0  0  0  0
   36.3570   28.4830   33.3800 H   0  0  0  0  0  0  0  0  0  0  0  0
   37.0690   27.8160   35.6740 H   0  0  0  0  0  0  0  0  0  0  0  0
   37.5210   24.4760   31.6860 C   0  0  0  0  0  0  0  0  0  0  0  0
   38.0960   23.3720   31.7680 O   0  0  0  0  0  0  0  0  0  0  0  0
   37.0170   24.7110   30.4150 O   0  0  0  0  0  0  0  0  0  0  0  0
   37.5990   24.6360   29.5670 H   0  0  0  0  0  0  0  0  0  0  0  0
  1  6  1  0  0  0  0
  1  2  1  0  0  0  0
  2  8  1  6  0  0  0
  2  3  1  0  0  0  0
  3  4  1  0  0  0  0
  3  9  1  0  0  0  0
  3 10  1  0  0  0  0
  4 11  1  0  0  0  0
  5 12  1  0  0  0  0
  5 13  1  0  0  0  0
  5  4  1  0  0  0  0
  6 14  1  6  0  0  0
  6  5  1  0  0  0  0
  7  1  1  0  0  0  0
 15  6  1  0  0  0  0
 15 16  1  0  0  0  0
 17 15  1  0  0  0  0
 18  2  1  0  0  0  0
 19 20  1  0  0  0  0
 20 21  2  0  0  0  0
 20 26  1  0  0  0  0
 21 18  1  0  0  0  0
 22 21  1  0  0  0  0
 23 22  2  0  0  0  0
 24 23  1  0  0  0  0
 24 19  2  0  0  0  0
 25 19  1  0  0  0  0
 27 28  2  0  0  0  0
 27 23  1  0  0  0  0
 29 27  1  0  0  0  0
 30 29  1  0  0  0  0
M  END
>  <minimizedAffinity>
-4.33862066

$$$$

 OpenBabel03262521023D

 30 31  0  0  1  0  0  0  0  0999 V2000
   37.4530   24.8960   30.5580 N   0  0  0  0  0  0  0  0  0  0  0  0
   38.2770   25.1670   31.6960 C   0  0  1  0  0  0  0  0  0  0  0  0
   37.9760   26.5320   32.2390 C   0  0  0  0  0  0  0  0  0  0  0  0
   36.5630   26.5470   32.6120 N   0  0  0  0  0  0  0  0  0  0  0  0
   35.8420   26.5040   31.3340 C   0  0  0  0  0  0  0  0  0  0  0  0
   36.0580   25.0970   30.7830 C   0  0  2  0  0  0  0  0  0  0  0  0
   37.6910   24.0760   29.9990 H   0  0  0  0  0  0  0  0  0  0  0  0
   39.3300   25.0940   31.3690 H   0  0  0  0  0  0  0  0  0  0  0  0
   38.2250   27.3410   31.5270 H   0  0  0  0  0  0  0  0  0  0  0  0
   38.6170   26.6890   33.1420 H   0  0  0  0  0  0  0  0  0  0  0  0
   36.4040   27.4970   33.0170 H   0  0  0  0  0  0  0  0  0  0  0  0
   34.7780   26.6620   31.5130 H   0  0  0  0  0  0  0  0  0  0  0  0
   36.2730   27.2540   30.6450 H   0  0  0  0  0  0  0  0  0  0  0  0
   35.5200   25.0680   29.8290 H   0  0  0  0  0  0  0  0  0  0  0  0
   35.4800   24.1510   31.7110 N   0  0  0  0  0  0  0  0  0  0  0  0
   35.4710   24.4680   32.6930 H   0  0  0  0  0  0  0  0  0  0  0  0
   35.8440   23.1950   31.5520 H   0  0  0  0  0  0  0  0  0  0  0  0
   37.9710   23.9940   33.0680 S   0  0  0  0  0  0  0  0  0  0  0  0
   41.7190   24.1490   34.6240 C   0  0  0  0  0  0  0  0  0  0  0  0
   40.6700   24.2910   33.7260 C   0  0  0  0  0  0  0  0  0  0  0  0
   39.4070   23.8770   34.1020 C   0  0  0  0  0  0  0  0  0  0  0  0
   39.2510   23.3350   35.3660 N   0  0  0  0  0  0  0  0  0  0  0  0
   40.3000   23.2290   36.1750 C   0  0  0  0  0  0  0  0  0  0  0  0
   41.5240   23.6210   35.8340 N   0  0  0  0  0  0  0  0  0  0  0  0
   42.7200   24.4740   34.3350 H   0  0  0  0  0  0  0  0  0  0  0  0
   40.8030   24.7080   32.7600 H   0  0  0  0  0  0  0  0  0  0  0  0
   40.0950   22.6500   37.5070 C   0  0  0  0  0  0  0  0  0  0  0  0
   39.3010   23.1100   38.3530 O   0  0  0  0  0  0  0  0  0  0  0  0
   40.7630   21.5260   37.9720 O   0  0  0  0  0  0  0  0  0  0  0  0
   41.2750   21.5190   38.8670 H   0  0  0  0  0  0  0  0  0  0  0  0
  1  6  1  0  0  0  0
  1  2  1  0  0  0  0
  2  8  1  6  0  0  0
  2  3  1  0  0  0  0
  2 18  1  0  0  0  0
  3  4  1  0  0  0  0
  3 10  1  0  0  0  0
  4 11  1  0  0  0  0
  5 12  1  0  0  0  0
  5  4  1  0  0  0  0
  6 14  1  6  0  0  0
  6  5  1  0  0  0  0
  6 15  1  0  0  0  0
  7  1  1  0  0  0  0
  9  3  1  0  0  0  0
 13  5  1  0  0  0  0
 15 16  1  0  0  0  0
 17 15  1  0  0  0  0
 18 21  1  0  0  0  0
 19 24  1  0  0  0  0
 20 21  1  0  0  0  0
 20 19  2  0  0  0  0
 21 22  2  0  0  0  0
 22 23  1  0  0  0  0
 23 27  1  0  0  0  0
 24 23  2  0  0  0  0
 25 19  1  0  0  0  0
 26 20  1  0  0  0  0
 27 29  1  0  0  0  0
 27 28  2  0  0  0  0
 29 30  1  0  0  0  0
M  END
>  <minimizedAffinity>
-4.31222868

$$$$

 OpenBabel03262521023D

 30 31  0  0  1  0  0  0  0  0999 V2000
   42.5590   27.2590   34.2480 N   0  0  0  0  0  0  0  0  0  0  0  0
   41.3440   26.5450   34.4920 C   0  0  1  0  0  0  0  0  0  0  0  0
   40.2630   27.0360   33.5760 C   0  0  0  0  0  0  0  0  0  0  0  0
   40.7240   26.8160   32.2070 N   0  0  0  0  0  0  0  0  0  0  0  0
   41.8140   27.7820   32.0220 C   0  0  0  0  0  0  0  0  0  0  0  0
   42.9680   27.2730   32.8820 C   0  0  2  0  0  0  0  0  0  0  0  0
   43.3110   27.1390   34.9280 H   0  0  0  0  0  0  0  0  0  0  0  0
   41.0700   26.7050   35.5510 H   0  0  0  0  0  0  0  0  0  0  0  0
   39.9950   28.0930   33.7570 H   0  0  0  0  0  0  0  0  0  0  0  0
   39.3440   26.4310   33.7780 H   0  0  0  0  0  0  0  0  0  0  0  0
   39.9320   27.1360   31.6040 H   0  0  0  0  0  0  0  0  0  0  0  0
   42.1190   27.7890   30.9760 H   0  0  0  0  0  0  0  0  0  0  0  0
   41.4860   28.7770   32.3760 H   0  0  0  0  0  0  0  0  0  0  0  0
   43.7800   27.9950   32.7430 H   0  0  0  0  0  0  0  0  0  0  0  0
   43.3660   25.9740   32.3850 N   0  0  0  0  0  0  0  0  0  0  0  0
   42.6070   25.4390   31.9360 H   0  0  0  0  0  0  0  0  0  0  0  0
   43.9260   25.4570   33.0860 H   0  0  0  0  0  0  0  0  0  0  0  0
   41.5160   24.7520   34.1610 S   0  0  0  0  0  0  0  0  0  0  0  0
   38.2000   22.4470   34.5860 C   0  0  0  0  0  0  0  0  0  0  0  0
   39.2840   23.0790   33.9940 C   0  0  0  0  0  0  0  0  0  0  0  0
   40.0970   23.8810   34.7710 C   0  0  0  0  0  0  0  0  0  0  0  0
   39.7850   24.0140   36.1130 N   0  0  0  0  0  0  0  0  0  0  0  0
   38.7310   23.3790   36.6150 C   0  0  0  0  0  0  0  0  0  0  0  0
   37.9350   22.6030   35.8840 N   0  0  0  0  0  0  0  0  0  0  0  0
   37.5520   21.8110   33.9790 H   0  0  0  0  0  0  0  0  0  0  0  0
   39.5120   22.9690   32.9640 H   0  0  0  0  0  0  0  0  0  0  0  0
   38.4330   23.5440   38.0410 C   0  0  0  0  0  0  0  0  0  0  0  0
   37.9610   24.5870   38.5380 O   0  0  0  0  0  0  0  0  0  0  0  0
   38.6450   22.5590   38.9940 O   0  0  0  0  0  0  0  0  0  0  0  0
   39.1900   22.7290   39.8530 H   0  0  0  0  0  0  0  0  0  0  0  0
  1  2  1  0  0  0  0
  1  7  1  0  0  0  0
  2  8  1  1  0  0  0
  3  9  1  0  0  0  0
  3 10  1  0  0  0  0
  3  2  1  0  0  0  0
  4  3  1  0  0  0  0
  5  4  1  0  0  0  0
  5 13  1  0  0  0  0
  5  6  1  0  0  0  0
  6 14  1  6  0  0  0
  6  1  1  0  0  0  0
 11  4  1  0  0  0  0
 12  5  1  0  0  0  0
 15  6  1  0  0  0  0
 15 17  1  0  0  0  0
 16 15  1  0  0  0  0
 18  2  1  0  0  0  0
 18 21  1  0  0  0  0
 19 24  1  0  0  0  0
 20 19  2  0  0  0  0
 20 21  1  0  0  0  0
 21 22  2  0  0  0  0
 22 23  1  0  0  0  0
 23 27  1  0  0  0  0
 24 23  2  0  0  0  0
 25 19  1  0  0  0  0
 26 20  1  0  0  0  0
 27 28  2  0  0  0  0
 27 29  1  0  0  0  0
 29 30  1  0  0  0  0
M  END
>  <minimizedAffinity>
-4.27550125

$$$$

 OpenBabel03262521023D

 30 31  0  0  1  0  0  0  0  0999 V2000
   39.8810   24.8810   31.2150 N   0  0  0  0  0  0  0  0  0  0  0  0
   39.8910   25.7730   32.3340 C   0  0  1  0  0  0  0  0  0  0  0  0
   40.1100   27.1820   31.8710 C   0  0  0  0  0  0  0  0  0  0  0  0
   39.0160   27.5120   30.9600 N   0  0  0  0  0  0  0  0  0  0  0  0
   39.2710   26.6990   29.7640 C   0  0  0  0  0  0  0  0  0  0  0  0
   38.9820   25.2580   30.1730 C   0  0  2  0  0  0  0  0  0  0  0  0
   39.9190   23.8820   31.4190 H   0  0  0  0  0  0  0  0  0  0  0  0
   40.7010   25.4470   33.0120 H   0  0  0  0  0  0  0  0  0  0  0  0
   41.0990   27.3290   31.4000 H   0  0  0  0  0  0  0  0  0  0  0  0
   40.0790   27.8450   32.7710 H   0  0  0  0  0  0  0  0  0  0  0  0
   39.1850   28.5070   30.6900 H   0  0  0  0  0  0  0  0  0  0  0  0
   38.5840   26.9950   28.9710 H   0  0  0  0  0  0  0  0  0  0  0  0
   40.3320   26.8060   29.4680 H   0  0  0  0  0  0  0  0  0  0  0  0
   39.1730   24.6530   29.2800 H   0  0  0  0  0  0  0  0  0  0  0  0
   37.5890   25.1630   30.5500 N   0  0  0  0  0  0  0  0  0  0  0  0
   37.1880   26.0360   30.9260 H   0  0  0  0  0  0  0  0  0  0  0  0
   37.4050   24.3100   31.1070 H   0  0  0  0  0  0  0  0  0  0  0  0
   38.2950   25.7740   33.2330 S   0  0  0  0  0  0  0  0  0  0  0  0
   37.7670   21.9660   34.5420 C   0  0  0  0  0  0  0  0  0  0  0  0
   37.8630   23.0500   33.6800 C   0  0  0  0  0  0  0  0  0  0  0  0
   38.1410   24.2980   34.2030 C   0  0  0  0  0  0  0  0  0  0  0  0
   38.3110   24.4040   35.5730 N   0  0  0  0  0  0  0  0  0  0  0  0
   38.2060   23.3240   36.3400 C   0  0  0  0  0  0  0  0  0  0  0  0
   37.9380   22.1130   35.8570 N   0  0  0  0  0  0  0  0  0  0  0  0
   37.5480   20.9760   34.1370 H   0  0  0  0  0  0  0  0  0  0  0  0
   37.7300   22.9550   32.6330 H   0  0  0  0  0  0  0  0  0  0  0  0
   38.3930   23.4760   37.7860 C   0  0  0  0  0  0  0  0  0  0  0  0
   37.8590   24.3760   38.4670 O   0  0  0  0  0  0  0  0  0  0  0  0
   39.1840   22.6360   38.5560 O   0  0  0  0  0  0  0  0  0  0  0  0
   39.9270   22.9930   39.1770 H   0  0  0  0  0  0  0  0  0  0  0  0
  1  7  1  0  0  0  0
  1  2  1  0  0  0  0
  2  8  1  1  0  0  0
  2 18  1  0  0  0  0
  3  2  1  0  0  0  0
  3 10  1  0  0  0  0
  4  3  1  0  0  0  0
  5  6  1  0  0  0  0
  5  4  1  0  0  0  0
  6 14  1  6  0  0  0
  6 15  1  0  0  0  0
  6  1  1  0  0  0  0
  9  3  1  0  0  0  0
 11  4  1  0  0  0  0
 12  5  1  0  0  0  0
 13  5  1  0  0  0  0
 15 16  1  0  0  0  0
 15 17  1  0  0  0  0
 18 21  1  0  0  0  0
 19 24  1  0  0  0  0
 20 21  1  0  0  0  0
 20 19  2  0  0  0  0
 21 22  2  0  0  0  0
 22 23  1  0  0  0  0
 23 27  1  0  0  0  0
 24 23  2  0  0  0  0
 25 19  1  0  0  0  0
 26 20  1  0  0  0  0
 27 28  2  0  0  0  0
 27 29  1  0  0  0  0
 29 30  1  0  0  0  0
M  END
>  <minimizedAffinity>
-4.26172447

$$$$

 OpenBabel03262521023D

 30 31  0  0  1  0  0  0  0  0999 V2000
   39.8810   24.8300   33.3510 N   0  0  0  0  0  0  0  0  0  0  0  0
   39.3320   26.0590   33.8360 C   0  0  1  0  0  0  0  0  0  0  0  0
   38.8820   26.9120   32.6890 C   0  0  0  0  0  0  0  0  0  0  0  0
   37.8720   26.1520   31.9550 N   0  0  0  0  0  0  0  0  0  0  0  0
   38.6200   25.0610   31.3170 C   0  0  0  0  0  0  0  0  0  0  0  0
   39.0320   24.1240   32.4490 C   0  0  2  0  0  0  0  0  0  0  0  0
   40.3820   24.2490   34.0250 H   0  0  0  0  0  0  0  0  0  0  0  0
   40.1190   26.5670   34.4230 H   0  0  0  0  0  0  0  0  0  0  0  0
   39.7160   27.2290   32.0360 H   0  0  0  0  0  0  0  0  0  0  0  0
   38.4320   27.8450   33.1120 H   0  0  0  0  0  0  0  0  0  0  0  0
   37.5600   26.7910   31.1900 H   0  0  0  0  0  0  0  0  0  0  0  0
   37.9660   24.5290   30.6260 H   0  0  0  0  0  0  0  0  0  0  0  0
   39.5170   25.4750   30.8190 H   0  0  0  0  0  0  0  0  0  0  0  0
   39.5900   23.3110   31.9700 H   0  0  0  0  0  0  0  0  0  0  0  0
   37.8320   23.6060   33.0690 N   0  0  0  0  0  0  0  0  0  0  0  0
   37.0170   24.2370   33.0140 H   0  0  0  0  0  0  0  0  0  0  0  0
   38.0310   23.2120   34.0050 H   0  0  0  0  0  0  0  0  0  0  0  0
   37.8540   25.7920   34.8840 S   0  0  0  0  0  0  0  0  0  0  0  0
   38.1240   24.1110   38.5710 C   0  0  0  0  0  0  0  0  0  0  0  0
   37.7120   24.9480   37.5440 C   0  0  0  0  0  0  0  0  0  0  0  0
   38.2770   24.8010   36.2920 C   0  0  0  0  0  0  0  0  0  0  0  0
   39.2360   23.8160   36.1250 N   0  0  0  0  0  0  0  0  0  0  0  0
   39.5840   23.0490   37.1530 C   0  0  0  0  0  0  0  0  0  0  0  0
   39.0530   23.1740   38.3660 N   0  0  0  0  0  0  0  0  0  0  0  0
   37.6830   24.2200   39.5630 H   0  0  0  0  0  0  0  0  0  0  0  0
   36.9760   25.6990   37.6850 H   0  0  0  0  0  0  0  0  0  0  0  0
   40.6030   22.0170   36.9370 C   0  0  0  0  0  0  0  0  0  0  0  0
   41.1390   21.7860   35.8330 O   0  0  0  0  0  0  0  0  0  0  0  0
   41.0830   21.1840   37.9370 O   0  0  0  0  0  0  0  0  0  0  0  0
   41.0940   20.1570   37.8420 H   0  0  0  0  0  0  0  0  0  0  0  0
  1  2  1  0  0  0  0
  1  7  1  0  0  0  0
  2  8  1  1  0  0  0
  2 18  1  0  0  0  0
  3 10  1  0  0  0  0
  3  2  1  0  0  0  0
  4  3  1  0  0  0  0
  5  4  1  0  0  0  0
  5  6  1  0  0  0  0
  6 14  1  6  0  0  0
  6 15  1  0  0  0  0
  6  1  1  0  0  0  0
  9  3  1  0  0  0  0
 11  4  1  0  0  0  0
 12  5  1  0  0  0  0
 13  5  1  0  0  0  0
 15 17  1  0  0  0  0
 16 15  1  0  0  0  0
 18 21  1  0  0  0  0
 19 25  1  0  0  0  0
 20 26  1  0  0  0  0
 20 19  2  0  0  0  0
 21 20  1  0  0  0  0
 22 21  2  0  0  0  0
 22 23  1  0  0  0  0
 23 24  2  0  0  0  0
 24 19  1  0  0  0  0
 27 23  1  0  0  0  0
 27 29  1  0  0  0  0
 28 27  2  0  0  0  0
 30 29  1  0  0  0  0
M  END
>  <minimizedAffinity>
-4.21292782

$$$$
