
     RDKit          3D

 13 13  0  0  0  0  0  0  0  0999 V2000
   37.2673   30.1853   51.4303 C   0  0  0  0  0  0  0  0  0  0  0  0
   38.0846   30.7522   50.4459 C   0  0  0  0  0  0  0  0  0  0  0  0
   37.8037   30.4946   49.0932 C   0  0  0  0  0  0  0  0  0  0  0  0
   36.7425   29.7015   48.8335 N   0  0  0  0  0  0  0  0  0  0  0  0
   35.9659   29.1639   49.7991 C   0  0  0  0  0  0  0  0  0  0  0  0
   36.2254   29.4031   51.0817 N   0  0  0  0  0  0  0  0  0  0  0  0
   34.8285   28.3122   49.4757 C   0  0  0  0  0  0  0  0  0  0  0  0
   33.6321   28.7203   49.5596 O   0  0  0  0  0  0  0  0  0  0  0  0
   37.5254   30.4131   52.4353 H   0  0  0  0  0  0  0  0  0  0  0  0
   38.9443   31.3947   50.6559 H   0  0  0  0  0  0  0  0  0  0  0  0
   38.3865   30.8946   48.2765 H   0  0  0  0  0  0  0  0  0  0  0  0
   34.9012   26.9765   49.0443 O   0  0  0  0  0  0  0  0  0  0  0  0
   34.3663   26.2327   49.5129 H   0  0  0  0  0  0  0  0  0  0  0  0
  2  1  2  0
  3  2  1  0
  4  3  2  0
  4  5  1  0
  5  6  2  0
  6  1  1  0
  7  8  2  0
  7  5  1  0
  1  9  1  0
  2 10  1  0
  3 11  1  0
 12 13  1  0
  7 12  1  0
M  ISO  4   9  14  10  14  11  14  13   3
M  END
>  <DihAtoms>  (1) 
7,6,11,12

>  <DihDeg>  (1) 
37.64135866321883

$$$$
