
     RDKit          3D

 33 35  0  0  0  0  0  0  0  0999 V2000
   38.4462   31.1222   48.1661 C   0  0  2  0  0  0  0  0  0  0  0  0
   38.6809   32.5879   48.0876 C   0  0  0  0  0  0  0  0  0  0  0  0
   38.0778   31.7398   46.9351 C   0  0  1  0  0  0  0  0  0  0  0  0
   35.0783   30.2539   49.4902 C   0  0  0  0  0  0  0  0  0  0  0  0
   35.4173   29.5555   50.6975 C   0  0  0  0  0  0  0  0  0  0  0  0
   36.8228   29.4087   51.0326 C   0  0  0  0  0  0  0  0  0  0  0  0
   37.7666   29.9353   50.1948 N   0  0  0  0  0  0  0  0  0  0  0  0
   37.3671   30.5790   49.0766 C   0  0  0  0  0  0  0  0  0  0  0  0
   36.0422   30.7566   48.6949 N   0  0  0  0  0  0  0  0  0  0  0  0
   38.3687   31.8983   44.4891 C   0  0  0  0  0  0  0  0  0  0  0  0
   37.2436   32.4427   44.3830 O   0  0  0  0  0  0  0  0  0  0  0  0
   38.9478   31.6443   45.7920 N   0  0  0  0  0  0  0  0  0  0  0  0
   39.1413   31.4980   43.2975 C   0  0  0  0  0  0  0  0  0  0  0  0
   40.1363   30.5718   43.4353 C   0  0  0  0  0  0  0  0  0  0  0  0
   40.8433   30.2182   42.2980 C   0  0  0  0  0  0  0  0  0  0  0  0
   40.5087   30.8115   41.1074 C   0  0  0  0  0  0  0  0  0  0  0  0
   39.4978   31.7532   40.9646 C   0  0  0  0  0  0  0  0  0  0  0  0
   38.8386   32.0650   42.0977 N   0  0  0  0  0  0  0  0  0  0  0  0
   39.1926   32.3458   39.6701 C   0  0  0  0  0  0  0  0  0  0  0  0
   38.8340   33.5472   39.6250 O   0  0  0  0  0  0  0  0  0  0  0  0
   39.3833   30.5352   48.2637 H   0  0  0  0  0  0  0  0  0  0  0  0
   38.0021   33.2945   48.6002 H   0  0  0  0  0  0  0  0  0  0  0  0
   39.7011   32.9639   47.9651 H   0  0  0  0  0  0  0  0  0  0  0  0
   36.9906   31.9847   46.7492 H   0  0  0  0  0  0  0  0  0  0  0  0
   34.0269   30.3402   49.2795 H   0  0  0  0  0  0  0  0  0  0  0  0
   34.6702   29.1419   51.3548 H   0  0  0  0  0  0  0  0  0  0  0  0
   37.0682   28.8912   51.9273 H   0  0  0  0  0  0  0  0  0  0  0  0
   39.9454   31.4001   45.9383 H   0  0  0  0  0  0  0  0  0  0  0  0
   40.3988   30.1035   44.3805 H   0  0  0  0  0  0  0  0  0  0  0  0
   41.6442   29.4916   42.3320 H   0  0  0  0  0  0  0  0  0  0  0  0
   41.0457   30.5531   40.2022 H   0  0  0  0  0  0  0  0  0  0  0  0
   39.2932   31.6105   38.5183 O   0  0  0  0  0  0  0  0  0  0  0  0
   39.3021   32.0717   37.6201 H   0  0  0  0  0  0  0  0  0  0  0  0
  1  8  1  0
  2  1  1  0
  3  2  1  0
  3  1  1  0
  4  5  2  0
  5  6  1  0
  7  6  2  0
  8  7  1  0
  9  8  2  0
  9  4  1  0
 10 12  1  0
 11 10  2  0
 12  3  1  0
 13 14  2  0
 13 10  1  0
 15 14  1  0
 16 15  2  0
 17 16  1  0
 17 18  2  0
 18 13  1  0
 19 17  1  0
 20 19  2  0
  1 21  1  6
  2 22  1  0
  2 23  1  0
  3 24  1  6
  4 25  1  0
  5 26  1  0
  6 27  1  0
 12 28  1  0
 14 29  1  0
 15 30  1  0
 16 31  1  0
 32 33  1  0
 19 32  1  0
M  ISO  8  21  13  22  13  23  13  24  13  25  14  26  14  27  14  29  14
M  ISO  3  30  14  31  14  33   3
M  END
>  <DihAtoms>  (1) 
16,18,31,32

>  <DihDeg>  (1) 
149.92591234996073

$$$$
