REMARK  Name = 
REMARK  5 active torsions:
REMARK  status: ('A' for Active; 'I' for Inactive)
REMARK    1  A    between atoms: C_1  and  C_8
REMARK    2  A    between atoms: C_3  and  N_12
REMARK    3  A    between atoms: C_10  and  C_13
REMARK    4  A    between atoms: CA_17  and  C_19
REMARK    5  A    between atoms: C_19  and  OXT_32
REMARK                            x       y       z     vdW  Elec       q    Type
REMARK                         _______ _______ _______ _____ _____    ______ ____
ROOT
ATOM      1  C   UNL     1      38.369  31.898  44.489  0.00  0.00    +0.000 C 
ATOM      2  O   UNL     1      37.244  32.443  44.383  0.00  0.00    +0.000 OA
ATOM      3  N   UNL     1      38.948  31.644  45.792  0.00  0.00    +0.000 N 
ATOM      4  H   UNL     1      39.945  31.400  45.938  0.00  0.00    +0.000 HD
ENDROOT
BRANCH   1   5
ATOM      5  C   UNL     1      39.141  31.498  43.297  0.00  0.00    +0.000 A 
ATOM      6  C   UNL     1      40.136  30.572  43.435  0.00  0.00    +0.000 A 
ATOM      7  C   UNL     1      40.843  30.218  42.298  0.00  0.00    +0.000 A 
ATOM      8  C   UNL     1      40.509  30.811  41.107  0.00  0.00    +0.000 A 
ATOM      9  CA  UNL     1      39.498  31.753  40.965  0.00  0.00    +0.000 A 
ATOM     10  N   UNL     1      38.839  32.065  42.098  0.00  0.00    +0.000 NA
ATOM     11  H   UNL     1      40.399  30.104  44.380  0.00  0.00    +0.000 HD
ATOM     12  H   UNL     1      41.644  29.492  42.332  0.00  0.00    +0.000 HD
ATOM     13  H   UNL     1      41.046  30.553  40.202  0.00  0.00    +0.000 HD
BRANCH   9  14
ATOM     14  C   UNL     1      39.193  32.346  39.670  0.00  0.00    +0.000 C 
ATOM     15  O   UNL     1      38.834  33.547  39.625  0.00  0.00    +0.000 OA
BRANCH  14  16
ATOM     16  OXT UNL     1      39.293  31.610  38.518  0.00  0.00    +0.000 OA
ATOM     17  HXT UNL     1      38.483  31.471  37.932  0.00  0.00    +0.000 HD
ENDBRANCH  14  16
ENDBRANCH   9  14
ENDBRANCH   1   5
BRANCH   3  20
ATOM     18  C   UNL     1      38.446  31.122  48.166  0.00  0.00    +0.000 C 
ATOM     19  C   UNL     1      38.681  32.588  48.088  0.00  0.00    +0.000 C 
ATOM     20  C   UNL     1      38.078  31.740  46.935  0.00  0.00    +0.000 C 
ATOM     21  H   UNL     1      39.383  30.535  48.264  0.00  0.00    +0.000 HD
ATOM     22  H   UNL     1      38.002  33.294  48.600  0.00  0.00    +0.000 HD
ATOM     23  H   UNL     1      39.701  32.964  47.965  0.00  0.00    +0.000 HD
ATOM     24  H   UNL     1      36.991  31.985  46.749  0.00  0.00    +0.000 HD
BRANCH  18  29
ATOM     25  C   UNL     1      35.078  30.254  49.490  0.00  0.00    +0.000 A 
ATOM     26  C   UNL     1      35.417  29.555  50.697  0.00  0.00    +0.000 A 
ATOM     27  C   UNL     1      36.823  29.409  51.033  0.00  0.00    +0.000 A 
ATOM     28  N   UNL     1      37.767  29.935  50.195  0.00  0.00    +0.000 NA
ATOM     29  C   UNL     1      37.367  30.579  49.077  0.00  0.00    +0.000 A 
ATOM     30  N   UNL     1      36.042  30.757  48.695  0.00  0.00    +0.000 NA
ATOM     31  H   UNL     1      34.027  30.340  49.279  0.00  0.00    +0.000 HD
ATOM     32  H   UNL     1      34.670  29.142  51.355  0.00  0.00    +0.000 HD
ATOM     33  H   UNL     1      37.068  28.891  51.927  0.00  0.00    +0.000 HD
ENDBRANCH  18  29
ENDBRANCH   3  20
TORSDOF 5
