
 OpenBabel03262520303D

 37 39  0  0  1  0  0  0  0  0999 V2000
   33.9860   30.2890   46.6780 C   0  0  1  0  0  0  0  0  0  0  0  0
   33.9450   30.2040   45.4170 N   0  0  0  0  0  0  0  0  0  0  0  0
   32.9700   30.4270   44.6120 C   0  0  0  0  0  0  0  0  0  0  0  0
   32.9500   29.0950   44.3030 N   0  0  0  0  0  0  0  0  0  0  0  0
   33.2580   28.2950   45.3710 C   0  0  0  0  0  0  0  0  0  0  0  0
   33.0070   26.9010   45.1930 C   0  0  0  0  0  0  0  0  0  0  0  0
   33.2860   26.0700   46.2140 C   0  0  0  0  0  0  0  0  0  0  0  0
   33.7930   26.4620   47.4150 C   0  0  0  0  0  0  0  0  0  0  0  0
   34.0000   27.8120   47.4920 C   0  0  0  0  0  0  0  0  0  0  0  0
   33.7960   28.8530   46.5940 C   0  0  0  0  0  0  0  0  0  0  0  0
   32.9480   30.6690   47.0140 H   0  0  0  0  0  0  0  0  0  0  0  0
   34.8980   30.1670   44.9480 H   0  0  0  0  0  0  0  0  0  0  0  0
   33.1810   31.0530   43.7090 H   0  0  0  0  0  0  0  0  0  0  0  0
   32.0060   30.8170   45.0030 H   0  0  0  0  0  0  0  0  0  0  0  0
   32.7170   28.7600   43.3400 H   0  0  0  0  0  0  0  0  0  0  0  0
   32.6100   26.4970   44.2830 H   0  0  0  0  0  0  0  0  0  0  0  0
   33.0960   25.0000   46.0870 H   0  0  0  0  0  0  0  0  0  0  0  0
   34.0310   25.8500   48.2570 H   0  0  0  0  0  0  0  0  0  0  0  0
   34.4140   28.1960   48.4430 H   0  0  0  0  0  0  0  0  0  0  0  0
   35.4490   30.4940   50.0890 C   0  0  0  0  0  0  0  0  0  0  0  0
   36.7710   30.5940   49.7050 C   0  0  0  0  0  0  0  0  0  0  0  0
   36.9800   30.5640   48.3440 C   0  0  0  0  0  0  0  0  0  0  0  0
   35.9130   30.4450   47.5150 N   0  0  0  0  0  0  0  0  0  0  0  0
   34.6560   30.3530   47.9350 C   0  0  0  0  0  0  0  0  0  0  0  0
   34.5120   30.3840   49.2250 N   0  0  0  0  0  0  0  0  0  0  0  0
   38.3410   30.6600   47.9010 N   0  0  0  0  0  0  0  0  0  0  0  0
   35.1350   30.5030   51.1370 H   0  0  0  0  0  0  0  0  0  0  0  0
   38.4810   30.0940   47.0220 H   0  0  0  0  0  0  0  0  0  0  0  0
   39.0160   31.2330   48.4450 H   0  0  0  0  0  0  0  0  0  0  0  0
   37.8410   30.7290   50.7120 C   0  0  0  0  0  0  0  0  0  0  0  0
   38.0320   31.7900   50.9970 H   0  0  0  0  0  0  0  0  0  0  0  0
   38.7760   30.3590   50.2530 H   0  0  0  0  0  0  0  0  0  0  0  0
   37.5830   29.9070   51.9300 C   0  0  0  0  0  0  0  0  0  0  0  0
   38.1040   30.2500   52.8460 H   0  0  0  0  0  0  0  0  0  0  0  0
   36.4880   29.7840   52.0530 H   0  0  0  0  0  0  0  0  0  0  0  0
   38.0840   28.6160   51.6360 O   0  0  0  0  0  0  0  0  0  0  0  0
   37.5650   28.2300   50.9040 H   0  0  0  0  0  0  0  0  0  0  0  0
  1 11  1  1  0  0  0
  1 24  1  0  0  0  0
  2  1  1  0  0  0  0
  3 14  1  0  0  0  0
  3  2  1  0  0  0  0
  4  3  1  0  0  0  0
  4  5  1  0  0  0  0
  5 10  1  0  0  0  0
  6  5  2  0  0  0  0
  6  7  1  0  0  0  0
  7  8  2  0  0  0  0
  8  9  1  0  0  0  0
  8 18  1  0  0  0  0
  9 19  1  0  0  0  0
 10  1  1  0  0  0  0
 10  9  2  0  0  0  0
 12  2  1  0  0  0  0
 13  3  1  0  0  0  0
 15  4  1  0  0  0  0
 16  6  1  0  0  0  0
 17  7  1  0  0  0  0
 20 27  1  0  0  0  0
 21 20  1  0  0  0  0
 21 30  1  0  0  0  0
 22 21  2  0  0  0  0
 23 24  2  0  0  0  0
 23 22  1  0  0  0  0
 24 25  1  0  0  0  0
 25 20  2  0  0  0  0
 26 22  1  0  0  0  0
 26 29  1  0  0  0  0
 28 26  1  0  0  0  0
 30 31  1  0  0  0  0
 30 33  1  0  0  0  0
 32 30  1  0  0  0  0
 33 35  1  0  0  0  0
 33 34  1  0  0  0  0
 36 33  1  0  0  0  0
 37 36  1  0  0  0  0
M  END
>  <minimizedAffinity>
-5.26379395

>  <minimizedRMSD>
0.445774585

$$$$
