
 OpenBabel03272504063D

 21 22  0  0  0  0  0  0  0  0999 V2000
   37.7600   23.9890   33.0160 Cl  0  0  0  0  0  0  0  0  0  0  0  0
   37.5990   25.5310   33.8100 C   0  0  0  0  0  0  0  0  0  0  0  0
   38.1920   25.5810   35.0450 C   0  0  0  0  0  0  0  0  0  0  0  0
   38.1220   26.7820   35.7760 C   0  0  0  0  0  0  0  0  0  0  0  0
   37.4830   27.8810   35.2800 C   0  0  0  0  0  0  0  0  0  0  0  0
   36.8960   27.8060   34.0410 C   0  0  0  0  0  0  0  0  0  0  0  0
   36.0720   29.1930   33.3810 Cl  0  0  0  0  0  0  0  0  0  0  0  0
   36.9600   26.6520   33.3310 C   0  0  0  0  0  0  0  0  0  0  0  0
   38.5590   26.9170   36.7590 H   0  0  0  0  0  0  0  0  0  0  0  0
   37.4180   28.8180   35.8290 H   0  0  0  0  0  0  0  0  0  0  0  0
   36.5170   26.5280   32.3460 H   0  0  0  0  0  0  0  0  0  0  0  0
   38.2990   23.9530   36.9010 C   0  0  0  0  0  0  0  0  0  0  0  0
   38.9290   24.5340   35.7770 C   0  0  0  0  0  0  0  0  0  0  0  0
   40.1970   24.0920   35.4240 C   0  0  0  0  0  0  0  0  0  0  0  0
   40.7740   23.1190   36.1780 N   0  0  0  0  0  0  0  0  0  0  0  0
   40.1440   22.5800   37.2510 C   0  0  0  0  0  0  0  0  0  0  0  0
   38.9110   22.9990   37.6090 N   0  0  0  0  0  0  0  0  0  0  0  0
   37.3110   24.3130   37.1570 H   0  0  0  0  0  0  0  0  0  0  0  0
   40.6690   24.5440   34.5620 H   0  0  0  0  0  0  0  0  0  0  0  0
   40.7470   21.5940   38.0040 O   0  0  0  0  0  0  0  0  0  0  0  0
   41.7630   21.5660   38.0870 H   0  0  0  0  0  0  0  0  0  0  0  0
  1  2  1  0  0  0  0
  2  3  1  0  0  0  0
  3  4  2  0  0  0  0
  3 13  1  0  0  0  0
  4  9  1  0  0  0  0
  5  4  1  0  0  0  0
  5 10  1  0  0  0  0
  6  5  2  0  0  0  0
  7  6  1  0  0  0  0
  8  2  2  0  0  0  0
  8  6  1  0  0  0  0
 11  8  1  0  0  0  0
 12 18  1  0  0  0  0
 12 17  1  0  0  0  0
 13 12  2  0  0  0  0
 14 13  1  0  0  0  0
 14 15  2  0  0  0  0
 15 16  1  0  0  0  0
 16 17  2  0  0  0  0
 16 20  1  0  0  0  0
 19 14  1  0  0  0  0
 20 21  1  0  0  0  0
M  END
>  <minimizedAffinity>
-5.03373098

$$$$

 OpenBabel03272504063D

 21 22  0  0  0  0  0  0  0  0999 V2000
   38.5350   27.4560   35.9550 Cl  0  0  0  0  0  0  0  0  0  0  0  0
   37.9020   26.7580   34.4900 C   0  0  0  0  0  0  0  0  0  0  0  0
   38.0150   25.3930   34.4350 C   0  0  0  0  0  0  0  0  0  0  0  0
   37.5340   24.7250   33.2940 C   0  0  0  0  0  0  0  0  0  0  0  0
   36.9650   25.4050   32.2560 C   0  0  0  0  0  0  0  0  0  0  0  0
   36.8640   26.7720   32.3360 C   0  0  0  0  0  0  0  0  0  0  0  0
   36.1430   27.6700   31.0260 Cl  0  0  0  0  0  0  0  0  0  0  0  0
   37.3250   27.4230   33.4320 C   0  0  0  0  0  0  0  0  0  0  0  0
   37.5790   23.6490   33.1590 H   0  0  0  0  0  0  0  0  0  0  0  0
   36.5880   24.9070   31.3670 H   0  0  0  0  0  0  0  0  0  0  0  0
   37.2750   28.5020   33.5560 H   0  0  0  0  0  0  0  0  0  0  0  0
   39.9150   24.0210   35.2200 C   0  0  0  0  0  0  0  0  0  0  0  0
   38.5850   24.4570   35.4220 C   0  0  0  0  0  0  0  0  0  0  0  0
   37.8930   23.9840   36.5300 C   0  0  0  0  0  0  0  0  0  0  0  0
   38.5290   23.1230   37.3670 N   0  0  0  0  0  0  0  0  0  0  0  0
   39.8050   22.7240   37.1470 C   0  0  0  0  0  0  0  0  0  0  0  0
   40.4930   23.1730   36.0750 N   0  0  0  0  0  0  0  0  0  0  0  0
   40.4350   24.4030   34.3500 H   0  0  0  0  0  0  0  0  0  0  0  0
   36.8760   24.3250   36.6740 H   0  0  0  0  0  0  0  0  0  0  0  0
   40.4320   21.8490   38.0110 O   0  0  0  0  0  0  0  0  0  0  0  0
   39.8840   21.1570   38.5210 H   0  0  0  0  0  0  0  0  0  0  0  0
  2  1  1  0  0  0  0
  3  2  1  0  0  0  0
  3 13  1  0  0  0  0
  4  3  2  0  0  0  0
  5  6  2  0  0  0  0
  5  4  1  0  0  0  0
  6  8  1  0  0  0  0
  7  6  1  0  0  0  0
  8 11  1  0  0  0  0
  8  2  2  0  0  0  0
  9  4  1  0  0  0  0
 10  5  1  0  0  0  0
 12 13  2  0  0  0  0
 12 17  1  0  0  0  0
 13 14  1  0  0  0  0
 14 19  1  0  0  0  0
 14 15  2  0  0  0  0
 16 15  1  0  0  0  0
 16 20  1  0  0  0  0
 17 16  2  0  0  0  0
 18 12  1  0  0  0  0
 20 21  1  0  0  0  0
M  END
>  <minimizedAffinity>
-4.8377161

$$$$

 OpenBabel03272504063D

 21 22  0  0  0  0  0  0  0  0999 V2000
   41.1200   26.3930   34.7540 Cl  0  0  0  0  0  0  0  0  0  0  0  0
   39.6630   26.4920   33.8060 C   0  0  0  0  0  0  0  0  0  0  0  0
   38.6080   25.7990   34.3410 C   0  0  0  0  0  0  0  0  0  0  0  0
   37.3790   25.8120   33.6550 C   0  0  0  0  0  0  0  0  0  0  0  0
   37.2240   26.4940   32.4830 C   0  0  0  0  0  0  0  0  0  0  0  0
   38.2960   27.1800   31.9680 C   0  0  0  0  0  0  0  0  0  0  0  0
   38.1300   28.0610   30.4720 Cl  0  0  0  0  0  0  0  0  0  0  0  0
   39.4830   27.1730   32.6230 C   0  0  0  0  0  0  0  0  0  0  0  0
   36.4900   25.2940   33.9980 H   0  0  0  0  0  0  0  0  0  0  0  0
   36.2830   26.5160   31.9390 H   0  0  0  0  0  0  0  0  0  0  0  0
   40.3680   27.6950   32.2690 H   0  0  0  0  0  0  0  0  0  0  0  0
   38.9530   23.6490   35.5100 C   0  0  0  0  0  0  0  0  0  0  0  0
   38.5390   25.0000   35.5780 C   0  0  0  0  0  0  0  0  0  0  0  0
   38.0950   25.4980   36.7970 C   0  0  0  0  0  0  0  0  0  0  0  0
   38.0780   24.6600   37.8670 N   0  0  0  0  0  0  0  0  0  0  0  0
   38.4820   23.3690   37.7710 C   0  0  0  0  0  0  0  0  0  0  0  0
   38.9160   22.8690   36.5940 N   0  0  0  0  0  0  0  0  0  0  0  0
   39.2960   23.2840   34.5510 H   0  0  0  0  0  0  0  0  0  0  0  0
   37.7810   26.5320   36.8360 H   0  0  0  0  0  0  0  0  0  0  0  0
   38.4570   22.5370   38.8700 O   0  0  0  0  0  0  0  0  0  0  0  0
   37.7610   22.6790   39.6020 H   0  0  0  0  0  0  0  0  0  0  0  0
  2  3  1  0  0  0  0
  2  1  1  0  0  0  0
  3 13  1  0  0  0  0
  4  9  1  0  0  0  0
  4  3  2  0  0  0  0
  5  4  1  0  0  0  0
  6  5  2  0  0  0  0
  6  8  1  0  0  0  0
  7  6  1  0  0  0  0
  8  2  2  0  0  0  0
 10  5  1  0  0  0  0
 11  8  1  0  0  0  0
 12 13  2  0  0  0  0
 12 17  1  0  0  0  0
 13 14  1  0  0  0  0
 14 19  1  0  0  0  0
 14 15  2  0  0  0  0
 16 15  1  0  0  0  0
 16 20  1  0  0  0  0
 17 16  2  0  0  0  0
 18 12  1  0  0  0  0
 20 21  1  0  0  0  0
M  END
>  <minimizedAffinity>
-4.48494482

$$$$

 OpenBabel03272504063D

 21 22  0  0  0  0  0  0  0  0999 V2000
   37.6790   24.6870   33.0160 Cl  0  0  0  0  0  0  0  0  0  0  0  0
   39.1090   25.6710   33.1530 C   0  0  0  0  0  0  0  0  0  0  0  0
   39.6890   25.6330   34.3950 C   0  0  0  0  0  0  0  0  0  0  0  0
   40.8520   26.3920   34.6170 C   0  0  0  0  0  0  0  0  0  0  0  0
   41.4050   27.1540   33.6290 C   0  0  0  0  0  0  0  0  0  0  0  0
   40.8060   27.1750   32.3940 C   0  0  0  0  0  0  0  0  0  0  0  0
   41.4880   28.1400   31.1110 Cl  0  0  0  0  0  0  0  0  0  0  0  0
   39.6850   26.4460   32.1720 C   0  0  0  0  0  0  0  0  0  0  0  0
   41.3800   26.4270   35.5640 H   0  0  0  0  0  0  0  0  0  0  0  0
   42.3030   27.7480   33.7810 H   0  0  0  0  0  0  0  0  0  0  0  0
   39.1630   26.4200   31.2180 H   0  0  0  0  0  0  0  0  0  0  0  0
   39.9500   23.6840   35.8920 C   0  0  0  0  0  0  0  0  0  0  0  0
   39.2760   24.8920   35.6020 C   0  0  0  0  0  0  0  0  0  0  0  0
   38.2700   25.3140   36.4620 C   0  0  0  0  0  0  0  0  0  0  0  0
   37.9810   24.5420   37.5430 N   0  0  0  0  0  0  0  0  0  0  0  0
   38.6450   23.3880   37.7950 C   0  0  0  0  0  0  0  0  0  0  0  0
   39.6260   22.9620   36.9700 N   0  0  0  0  0  0  0  0  0  0  0  0
   40.7310   23.3750   35.2090 H   0  0  0  0  0  0  0  0  0  0  0  0
   37.7610   26.2400   36.2290 H   0  0  0  0  0  0  0  0  0  0  0  0
   38.3360   22.6200   38.8980 O   0  0  0  0  0  0  0  0  0  0  0  0
   37.3850   22.6160   39.2660 H   0  0  0  0  0  0  0  0  0  0  0  0
  1  2  1  0  0  0  0
  2  3  1  0  0  0  0
  3  4  2  0  0  0  0
  3 13  1  0  0  0  0
  4  9  1  0  0  0  0
  5 10  1  0  0  0  0
  5  4  1  0  0  0  0
  6  5  2  0  0  0  0
  7  6  1  0  0  0  0
  8  6  1  0  0  0  0
  8  2  2  0  0  0  0
 11  8  1  0  0  0  0
 12 17  1  0  0  0  0
 13 12  2  0  0  0  0
 13 14  1  0  0  0  0
 14 15  2  0  0  0  0
 15 16  1  0  0  0  0
 16 20  1  0  0  0  0
 17 16  2  0  0  0  0
 18 12  1  0  0  0  0
 19 14  1  0  0  0  0
 20 21  1  0  0  0  0
M  END
>  <minimizedAffinity>
-4.44067764

$$$$

 OpenBabel03272504063D

 21 22  0  0  0  0  0  0  0  0999 V2000
   37.3630   27.9890   35.3260 Cl  0  0  0  0  0  0  0  0  0  0  0  0
   37.8380   26.3140   35.2870 C   0  0  0  0  0  0  0  0  0  0  0  0
   37.8480   25.7720   34.0270 C   0  0  0  0  0  0  0  0  0  0  0  0
   38.2170   24.4230   33.8790 C   0  0  0  0  0  0  0  0  0  0  0  0
   38.5610   23.6560   34.9540 C   0  0  0  0  0  0  0  0  0  0  0  0
   38.5430   24.2220   36.2050 C   0  0  0  0  0  0  0  0  0  0  0  0
   38.9780   23.2680   37.5990 Cl  0  0  0  0  0  0  0  0  0  0  0  0
   38.1890   25.5210   36.3560 C   0  0  0  0  0  0  0  0  0  0  0  0
   38.2540   23.9070   32.9250 H   0  0  0  0  0  0  0  0  0  0  0  0
   38.8490   22.6120   34.8610 H   0  0  0  0  0  0  0  0  0  0  0  0
   38.1550   26.0280   37.3180 H   0  0  0  0  0  0  0  0  0  0  0  0
   38.5130   27.1920   32.1170 C   0  0  0  0  0  0  0  0  0  0  0  0
   37.5180   26.3980   32.7330 C   0  0  0  0  0  0  0  0  0  0  0  0
   36.2950   26.2510   32.0920 C   0  0  0  0  0  0  0  0  0  0  0  0
   36.1120   26.8790   30.9010 N   0  0  0  0  0  0  0  0  0  0  0  0
   37.0850   27.6340   30.3340 C   0  0  0  0  0  0  0  0  0  0  0  0
   38.2800   27.7890   30.9430 N   0  0  0  0  0  0  0  0  0  0  0  0
   39.4580   27.2930   32.6340 H   0  0  0  0  0  0  0  0  0  0  0  0
   35.5420   25.6410   32.5730 H   0  0  0  0  0  0  0  0  0  0  0  0
   36.8780   28.2630   29.1240 O   0  0  0  0  0  0  0  0  0  0  0  0
   35.9400   28.5650   28.8610 H   0  0  0  0  0  0  0  0  0  0  0  0
  2  1  1  0  0  0  0
  2  8  1  0  0  0  0
  3  2  2  0  0  0  0
  4  3  1  0  0  0  0
  4  5  2  0  0  0  0
  5  6  1  0  0  0  0
  6  8  2  0  0  0  0
  6  7  1  0  0  0  0
  8 11  1  0  0  0  0
  9  4  1  0  0  0  0
 10  5  1  0  0  0  0
 12 18  1  0  0  0  0
 12 13  1  0  0  0  0
 13  3  1  0  0  0  0
 14 19  1  0  0  0  0
 14 13  2  0  0  0  0
 15 14  1  0  0  0  0
 16 15  2  0  0  0  0
 16 17  1  0  0  0  0
 17 12  2  0  0  0  0
 20 16  1  0  0  0  0
 21 20  1  0  0  0  0
M  END
>  <minimizedAffinity>
-4.42960596

$$$$

 OpenBabel03272504063D

 21 22  0  0  0  0  0  0  0  0999 V2000
   38.9700   23.1230   32.7460 Cl  0  0  0  0  0  0  0  0  0  0  0  0
   38.6630   23.8660   34.2910 C   0  0  0  0  0  0  0  0  0  0  0  0
   38.1210   25.1230   34.2020 C   0  0  0  0  0  0  0  0  0  0  0  0
   37.8330   25.8150   35.3920 C   0  0  0  0  0  0  0  0  0  0  0  0
   38.0780   25.2640   36.6160 C   0  0  0  0  0  0  0  0  0  0  0  0
   38.6210   24.0040   36.6780 C   0  0  0  0  0  0  0  0  0  0  0  0
   38.9480   23.2720   38.2270 Cl  0  0  0  0  0  0  0  0  0  0  0  0
   38.9020   23.3300   35.5360 C   0  0  0  0  0  0  0  0  0  0  0  0
   37.4050   26.8120   35.4220 H   0  0  0  0  0  0  0  0  0  0  0  0
   37.8620   25.7830   37.5460 H   0  0  0  0  0  0  0  0  0  0  0  0
   39.3320   22.3310   35.5180 H   0  0  0  0  0  0  0  0  0  0  0  0
   36.5900   25.5660   32.3130 C   0  0  0  0  0  0  0  0  0  0  0  0
   37.7730   25.9120   33.0060 C   0  0  0  0  0  0  0  0  0  0  0  0
   38.5370   26.9690   32.5280 C   0  0  0  0  0  0  0  0  0  0  0  0
   38.1110   27.6210   31.4140 N   0  0  0  0  0  0  0  0  0  0  0  0
   36.9710   27.2650   30.7710 C   0  0  0  0  0  0  0  0  0  0  0  0
   36.2160   26.2400   31.2210 N   0  0  0  0  0  0  0  0  0  0  0  0
   36.0110   24.7390   32.7040 H   0  0  0  0  0  0  0  0  0  0  0  0
   39.4400   27.2250   33.0670 H   0  0  0  0  0  0  0  0  0  0  0  0
   36.5560   27.9400   29.6420 O   0  0  0  0  0  0  0  0  0  0  0  0
   37.2440   28.3650   29.0200 H   0  0  0  0  0  0  0  0  0  0  0  0
  1  2  1  0  0  0  0
  2  8  1  0  0  0  0
  3  2  2  0  0  0  0
  3  4  1  0  0  0  0
  4  9  1  0  0  0  0
  4  5  2  0  0  0  0
  5  6  1  0  0  0  0
  5 10  1  0  0  0  0
  6  7  1  0  0  0  0
  8  6  2  0  0  0  0
 11  8  1  0  0  0  0
 12 18  1  0  0  0  0
 12 13  1  0  0  0  0
 13  3  1  0  0  0  0
 14 13  2  0  0  0  0
 14 19  1  0  0  0  0
 15 14  1  0  0  0  0
 16 17  1  0  0  0  0
 16 15  2  0  0  0  0
 17 12  2  0  0  0  0
 20 16  1  0  0  0  0
 21 20  1  0  0  0  0
M  END
>  <minimizedAffinity>
-4.42073822

$$$$

 OpenBabel03272504063D

 21 22  0  0  0  0  0  0  0  0999 V2000
   38.2600   23.2850   33.3740 Cl  0  0  0  0  0  0  0  0  0  0  0  0
   37.1650   24.3120   32.4900 C   0  0  0  0  0  0  0  0  0  0  0  0
   36.2270   23.6240   31.7640 C   0  0  0  0  0  0  0  0  0  0  0  0
   35.2910   24.3570   31.0110 C   0  0  0  0  0  0  0  0  0  0  0  0
   35.3020   25.7220   30.9930 C   0  0  0  0  0  0  0  0  0  0  0  0
   36.2520   26.3870   31.7280 C   0  0  0  0  0  0  0  0  0  0  0  0
   36.2920   28.1310   31.7250 Cl  0  0  0  0  0  0  0  0  0  0  0  0
   37.1570   25.6880   32.4560 C   0  0  0  0  0  0  0  0  0  0  0  0
   34.5130   23.9030   30.4070 H   0  0  0  0  0  0  0  0  0  0  0  0
   34.5880   26.3050   30.4180 H   0  0  0  0  0  0  0  0  0  0  0  0
   37.9330   26.1550   33.0590 H   0  0  0  0  0  0  0  0  0  0  0  0
   35.0650   21.5630   32.4760 C   0  0  0  0  0  0  0  0  0  0  0  0
   36.0230   22.1700   31.6320 C   0  0  0  0  0  0  0  0  0  0  0  0
   36.7150   21.3710   30.7310 C   0  0  0  0  0  0  0  0  0  0  0  0
   36.4380   20.0410   30.7040 N   0  0  0  0  0  0  0  0  0  0  0  0
   35.5130   19.4870   31.5260 C   0  0  0  0  0  0  0  0  0  0  0  0
   34.8310   20.2490   32.4080 N   0  0  0  0  0  0  0  0  0  0  0  0
   34.5380   22.2050   33.1700 H   0  0  0  0  0  0  0  0  0  0  0  0
   37.4460   21.8470   30.0900 H   0  0  0  0  0  0  0  0  0  0  0  0
   35.2460   18.1340   31.4820 O   0  0  0  0  0  0  0  0  0  0  0  0
   35.9810   17.4790   31.2170 H   0  0  0  0  0  0  0  0  0  0  0  0
  2  1  1  0  0  0  0
  3  2  2  0  0  0  0
  4  3  1  0  0  0  0
  5  4  2  0  0  0  0
  5  6  1  0  0  0  0
  6  8  2  0  0  0  0
  7  6  1  0  0  0  0
  8  2  1  0  0  0  0
  8 11  1  0  0  0  0
  9  4  1  0  0  0  0
 10  5  1  0  0  0  0
 12 18  1  0  0  0  0
 13  3  1  0  0  0  0
 13 12  2  0  0  0  0
 14 13  1  0  0  0  0
 15 14  2  0  0  0  0
 15 16  1  0  0  0  0
 16 17  2  0  0  0  0
 17 12  1  0  0  0  0
 19 14  1  0  0  0  0
 20 16  1  0  0  0  0
 21 20  1  0  0  0  0
M  END
>  <minimizedAffinity>
-4.38073921

$$$$

 OpenBabel03272504063D

 21 22  0  0  0  0  0  0  0  0999 V2000
   36.5430   27.7920   34.5810 Cl  0  0  0  0  0  0  0  0  0  0  0  0
   36.3810   28.6720   33.0860 C   0  0  0  0  0  0  0  0  0  0  0  0
   35.7070   29.8590   33.2150 C   0  0  0  0  0  0  0  0  0  0  0  0
   35.5190   30.6520   32.0680 C   0  0  0  0  0  0  0  0  0  0  0  0
   35.9910   30.2640   30.8470 C   0  0  0  0  0  0  0  0  0  0  0  0
   36.6630   29.0710   30.7450 C   0  0  0  0  0  0  0  0  0  0  0  0
   37.2790   28.5470   29.2000 Cl  0  0  0  0  0  0  0  0  0  0  0  0
   36.8480   28.3020   31.8460 C   0  0  0  0  0  0  0  0  0  0  0  0
   34.9980   31.6040   32.0700 H   0  0  0  0  0  0  0  0  0  0  0  0
   35.8560   30.8620   29.9500 H   0  0  0  0  0  0  0  0  0  0  0  0
   37.3710   27.3480   31.8320 H   0  0  0  0  0  0  0  0  0  0  0  0
   35.9510   31.2790   35.2220 C   0  0  0  0  0  0  0  0  0  0  0  0
   35.1130   30.4770   34.4150 C   0  0  0  0  0  0  0  0  0  0  0  0
   33.7850   30.3150   34.7910 C   0  0  0  0  0  0  0  0  0  0  0  0
   33.3560   30.9370   35.9210 N   0  0  0  0  0  0  0  0  0  0  0  0
   34.1840   31.7010   36.6760 C   0  0  0  0  0  0  0  0  0  0  0  0
   35.4780   31.8690   36.3240 N   0  0  0  0  0  0  0  0  0  0  0  0
   36.9810   31.3920   34.9090 H   0  0  0  0  0  0  0  0  0  0  0  0
   33.1540   29.6990   34.1660 H   0  0  0  0  0  0  0  0  0  0  0  0
   33.7280   32.3230   37.8190 O   0  0  0  0  0  0  0  0  0  0  0  0
   32.9760   31.9010   38.3630 H   0  0  0  0  0  0  0  0  0  0  0  0
  2  3  1  0  0  0  0
  2  1  1  0  0  0  0
  3 13  1  0  0  0  0
  4  9  1  0  0  0  0
  4  3  2  0  0  0  0
  5  4  1  0  0  0  0
  6  5  2  0  0  0  0
  6  8  1  0  0  0  0
  7  6  1  0  0  0  0
  8  2  2  0  0  0  0
 10  5  1  0  0  0  0
 11  8  1  0  0  0  0
 12 17  1  0  0  0  0
 13 14  1  0  0  0  0
 13 12  2  0  0  0  0
 14 15  2  0  0  0  0
 15 16  1  0  0  0  0
 16 20  1  0  0  0  0
 17 16  2  0  0  0  0
 18 12  1  0  0  0  0
 19 14  1  0  0  0  0
 20 21  1  0  0  0  0
M  END
>  <minimizedAffinity>
-4.36784887

$$$$

 OpenBabel03272504063D

 21 22  0  0  0  0  0  0  0  0999 V2000
   40.6090   26.8150   34.7200 Cl  0  0  0  0  0  0  0  0  0  0  0  0
   39.1990   26.3290   33.8200 C   0  0  0  0  0  0  0  0  0  0  0  0
   38.7750   25.0560   34.1040 C   0  0  0  0  0  0  0  0  0  0  0  0
   37.6420   24.5610   33.4320 C   0  0  0  0  0  0  0  0  0  0  0  0
   36.9690   25.3170   32.5170 C   0  0  0  0  0  0  0  0  0  0  0  0
   37.4140   26.5880   32.2500 C   0  0  0  0  0  0  0  0  0  0  0  0
   36.5760   27.5780   31.0850 Cl  0  0  0  0  0  0  0  0  0  0  0  0
   38.5050   27.0720   32.8930 C   0  0  0  0  0  0  0  0  0  0  0  0
   37.2320   23.5690   33.5890 H   0  0  0  0  0  0  0  0  0  0  0  0
   36.0920   24.9520   31.9870 H   0  0  0  0  0  0  0  0  0  0  0  0
   38.9070   28.0690   32.7270 H   0  0  0  0  0  0  0  0  0  0  0  0
   38.8540   24.0800   36.3730 C   0  0  0  0  0  0  0  0  0  0  0  0
   39.3340   24.0670   35.0430 C   0  0  0  0  0  0  0  0  0  0  0  0
   40.3000   23.1310   34.6960 C   0  0  0  0  0  0  0  0  0  0  0  0
   40.7380   22.2710   35.6530 N   0  0  0  0  0  0  0  0  0  0  0  0
   40.2570   22.3070   36.9200 C   0  0  0  0  0  0  0  0  0  0  0  0
   39.3190   23.2110   37.2760 N   0  0  0  0  0  0  0  0  0  0  0  0
   38.1010   24.8180   36.6210 H   0  0  0  0  0  0  0  0  0  0  0  0
   40.6600   23.1310   33.6750 H   0  0  0  0  0  0  0  0  0  0  0  0
   40.7150   21.4250   37.8760 O   0  0  0  0  0  0  0  0  0  0  0  0
   41.6700   21.0700   37.8260 H   0  0  0  0  0  0  0  0  0  0  0  0
  2  3  1  0  0  0  0
  2  1  1  0  0  0  0
  3 13  1  0  0  0  0
  4  9  1  0  0  0  0
  4  3  2  0  0  0  0
  5  4  1  0  0  0  0
  6  5  2  0  0  0  0
  6  8  1  0  0  0  0
  7  6  1  0  0  0  0
  8  2  2  0  0  0  0
 10  5  1  0  0  0  0
 11  8  1  0  0  0  0
 12 18  1  0  0  0  0
 12 17  1  0  0  0  0
 13 12  2  0  0  0  0
 14 13  1  0  0  0  0
 14 15  2  0  0  0  0
 15 16  1  0  0  0  0
 16 17  2  0  0  0  0
 16 20  1  0  0  0  0
 19 14  1  0  0  0  0
 21 20  1  0  0  0  0
M  END
>  <minimizedAffinity>
-4.3110323

$$$$
