
 OpenBabel03272500383D

 29 30  0  0  1  0  0  0  0  0999 V2000
   38.7860   23.1180   37.0970 C   0  0  0  0  0  0  0  0  0  0  0  0
   40.1260   22.6760   37.0050 C   0  0  0  0  0  0  0  0  0  0  0  0
   40.5740   22.1710   35.7750 C   0  0  0  0  0  0  0  0  0  0  0  0
   39.6720   22.1440   34.7470 N   0  0  0  0  0  0  0  0  0  0  0  0
   38.4100   22.5730   34.8690 C   0  0  0  0  0  0  0  0  0  0  0  0
   37.9650   23.0610   36.0430 N   0  0  0  0  0  0  0  0  0  0  0  0
   37.5600   22.4990   33.7330 N   0  0  0  0  0  0  0  0  0  0  0  0
   36.7690   21.2980   33.5190 C   0  0  0  0  0  0  0  0  0  0  0  0
   36.9480   20.9740   32.0330 C   0  0  0  0  0  0  0  0  0  0  0  0
   36.1840   22.0610   31.3140 C   0  0  0  0  0  0  0  0  0  0  0  0
   36.9140   23.3470   31.4940 C   0  0  0  0  0  0  0  0  0  0  0  0
   37.4950   23.5860   32.8330 C   0  0  2  0  0  0  0  0  0  0  0  0
   40.7600   22.7370   37.8700 H   0  0  0  0  0  0  0  0  0  0  0  0
   41.5890   21.8240   35.6720 H   0  0  0  0  0  0  0  0  0  0  0  0
   35.7260   21.4360   33.7970 H   0  0  0  0  0  0  0  0  0  0  0  0
   37.2600   20.4320   34.0430 H   0  0  0  0  0  0  0  0  0  0  0  0
   38.0190   21.0720   31.7820 H   0  0  0  0  0  0  0  0  0  0  0  0
   36.5560   19.9770   31.7780 H   0  0  0  0  0  0  0  0  0  0  0  0
   35.1410   22.0760   31.6880 H   0  0  0  0  0  0  0  0  0  0  0  0
   36.1320   21.8100   30.2260 H   0  0  0  0  0  0  0  0  0  0  0  0
   37.6420   23.4290   30.6590 H   0  0  0  0  0  0  0  0  0  0  0  0
   36.1630   24.1560   31.2930 H   0  0  0  0  0  0  0  0  0  0  0  0
   36.9890   24.4350   33.3730 H   0  0  0  0  0  0  0  0  0  0  0  0
   38.3180   23.6550   38.4080 C   0  0  0  0  0  0  0  0  0  0  0  0
   37.9860   25.0030   38.2650 F   0  0  0  0  0  0  0  0  0  0  0  0
   37.2950   22.8650   38.8420 F   0  0  0  0  0  0  0  0  0  0  0  0
   39.3970   23.6070   39.2820 F   0  0  0  0  0  0  0  0  0  0  0  0
   38.8110   24.0360   32.6410 O   0  0  0  0  0  0  0  0  0  0  0  0
   39.0900   24.0170   31.6990 H   0  0  0  0  0  0  0  0  0  0  0  0
  1 24  1  0  0  0  0
  2  1  1  0  0  0  0
  2 13  1  0  0  0  0
  3  2  2  0  0  0  0
  4  5  2  0  0  0  0
  4  3  1  0  0  0  0
  5  6  1  0  0  0  0
  6  1  2  0  0  0  0
  7  5  1  0  0  0  0
  8  7  1  0  0  0  0
  8 15  1  0  0  0  0
  8 16  1  0  0  0  0
  9  8  1  0  0  0  0
 10 11  1  0  0  0  0
 10 19  1  0  0  0  0
 10  9  1  0  0  0  0
 11 12  1  0  0  0  0
 12 23  1  1  0  0  0
 12  7  1  0  0  0  0
 14  3  1  0  0  0  0
 17  9  1  0  0  0  0
 18  9  1  0  0  0  0
 20 10  1  0  0  0  0
 21 11  1  0  0  0  0
 22 11  1  0  0  0  0
 24 26  1  0  0  0  0
 24 27  1  0  0  0  0
 25 24  1  0  0  0  0
 28 12  1  0  0  0  0
 29 28  1  0  0  0  0
M  END
>  <minimizedAffinity>
-5.17205095

$$$$

 OpenBabel03272500383D

 29 30  0  0  1  0  0  0  0  0999 V2000
   38.1800   23.5970   36.7850 C   0  0  0  0  0  0  0  0  0  0  0  0
   38.0870   22.3080   36.2150 C   0  0  0  0  0  0  0  0  0  0  0  0
   38.0570   22.2020   34.8160 C   0  0  0  0  0  0  0  0  0  0  0  0
   38.1220   23.3660   34.1020 N   0  0  0  0  0  0  0  0  0  0  0  0
   38.2100   24.5730   34.6760 C   0  0  0  0  0  0  0  0  0  0  0  0
   38.2400   24.6900   36.0170 N   0  0  0  0  0  0  0  0  0  0  0  0
   38.2710   25.7170   33.8340 N   0  0  0  0  0  0  0  0  0  0  0  0
   37.0360   26.3720   33.4420 C   0  0  0  0  0  0  0  0  0  0  0  0
   37.1870   26.6230   31.9400 C   0  0  0  0  0  0  0  0  0  0  0  0
   38.2350   27.7060   31.8410 C   0  0  0  0  0  0  0  0  0  0  0  0
   39.5480   27.1280   32.2460 C   0  0  0  0  0  0  0  0  0  0  0  0
   39.5250   26.1970   33.3940 C   0  0  2  0  0  0  0  0  0  0  0  0
   38.0410   21.4500   36.8610 H   0  0  0  0  0  0  0  0  0  0  0  0
   37.9860   21.2320   34.3500 H   0  0  0  0  0  0  0  0  0  0  0  0
   36.8560   27.2860   34.0050 H   0  0  0  0  0  0  0  0  0  0  0  0
   36.1870   25.6350   33.5070 H   0  0  0  0  0  0  0  0  0  0  0  0
   37.5850   25.7050   31.4720 H   0  0  0  0  0  0  0  0  0  0  0  0
   36.2400   26.9430   31.4760 H   0  0  0  0  0  0  0  0  0  0  0  0
   37.9160   28.5740   32.4500 H   0  0  0  0  0  0  0  0  0  0  0  0
   38.2930   28.0600   30.7820 H   0  0  0  0  0  0  0  0  0  0  0  0
   40.0180   26.7120   31.3290 H   0  0  0  0  0  0  0  0  0  0  0  0
   40.1950   28.0030   32.5210 H   0  0  0  0  0  0  0  0  0  0  0  0
   40.0560   26.6160   34.2950 H   0  0  0  0  0  0  0  0  0  0  0  0
   38.2120   23.7010   38.2740 C   0  0  0  0  0  0  0  0  0  0  0  0
   38.0400   25.0350   38.6480 F   0  0  0  0  0  0  0  0  0  0  0  0
   37.2700   22.8490   38.7720 F   0  0  0  0  0  0  0  0  0  0  0  0
   39.4880   23.3380   38.6850 F   0  0  0  0  0  0  0  0  0  0  0  0
   40.2890   25.0750   33.0340 O   0  0  0  0  0  0  0  0  0  0  0  0
   40.5960   25.1020   32.1010 H   0  0  0  0  0  0  0  0  0  0  0  0
  1 24  1  0  0  0  0
  2  1  1  0  0  0  0
  2 13  1  0  0  0  0
  3  2  2  0  0  0  0
  4  5  2  0  0  0  0
  4  3  1  0  0  0  0
  5  6  1  0  0  0  0
  6  1  2  0  0  0  0
  7  5  1  0  0  0  0
  8 16  1  0  0  0  0
  8  7  1  0  0  0  0
  8 15  1  0  0  0  0
  9  8  1  0  0  0  0
 10  9  1  0  0  0  0
 10 11  1  0  0  0  0
 10 19  1  0  0  0  0
 11 22  1  0  0  0  0
 11 12  1  0  0  0  0
 12  7  1  0  0  0  0
 12 23  1  1  0  0  0
 14  3  1  0  0  0  0
 17  9  1  0  0  0  0
 18  9  1  0  0  0  0
 20 10  1  0  0  0  0
 21 11  1  0  0  0  0
 24 25  1  0  0  0  0
 24 27  1  0  0  0  0
 24 26  1  0  0  0  0
 28 12  1  0  0  0  0
 29 28  1  0  0  0  0
M  END
>  <minimizedAffinity>
-5.05421591

$$$$

 OpenBabel03272500383D

 29 30  0  0  1  0  0  0  0  0999 V2000
   36.6370   21.3050   33.0170 C   0  0  0  0  0  0  0  0  0  0  0  0
   36.8250   22.3640   32.1010 C   0  0  0  0  0  0  0  0  0  0  0  0
   37.4930   23.5150   32.5460 C   0  0  0  0  0  0  0  0  0  0  0  0
   37.9150   23.5260   33.8470 N   0  0  0  0  0  0  0  0  0  0  0  0
   37.7190   22.5040   34.6880 C   0  0  0  0  0  0  0  0  0  0  0  0
   37.0810   21.3920   34.2750 N   0  0  0  0  0  0  0  0  0  0  0  0
   38.2020   22.6240   36.0200 N   0  0  0  0  0  0  0  0  0  0  0  0
   37.3300   23.1830   37.0390 C   0  0  0  0  0  0  0  0  0  0  0  0
   38.2100   24.1760   37.8030 C   0  0  0  0  0  0  0  0  0  0  0  0
   39.1800   23.3100   38.5710 C   0  0  0  0  0  0  0  0  0  0  0  0
   40.1130   22.6730   37.5990 C   0  0  0  0  0  0  0  0  0  0  0  0
   39.5140   22.2020   36.3320 C   0  0  2  0  0  0  0  0  0  0  0  0
   36.4570   22.2620   31.0960 H   0  0  0  0  0  0  0  0  0  0  0  0
   37.6520   24.3410   31.8720 H   0  0  0  0  0  0  0  0  0  0  0  0
   36.9040   22.4160   37.6840 H   0  0  0  0  0  0  0  0  0  0  0  0
   36.5540   23.8340   36.5490 H   0  0  0  0  0  0  0  0  0  0  0  0
   38.7780   24.7740   37.0670 H   0  0  0  0  0  0  0  0  0  0  0  0
   37.6210   24.8130   38.4820 H   0  0  0  0  0  0  0  0  0  0  0  0
   38.6090   22.5900   39.1880 H   0  0  0  0  0  0  0  0  0  0  0  0
   39.7600   23.9530   39.2780 H   0  0  0  0  0  0  0  0  0  0  0  0
   40.9710   23.3660   37.4680 H   0  0  0  0  0  0  0  0  0  0  0  0
   40.5460   21.7840   38.1290 H   0  0  0  0  0  0  0  0  0  0  0  0
   39.5310   21.0790   36.2420 H   0  0  0  0  0  0  0  0  0  0  0  0
   35.9260   20.0840   32.5350 C   0  0  0  0  0  0  0  0  0  0  0  0
   34.8430   20.4630   31.7400 F   0  0  0  0  0  0  0  0  0  0  0  0
   36.8390   19.2910   31.9050 F   0  0  0  0  0  0  0  0  0  0  0  0
   35.3920   19.4510   33.6500 F   0  0  0  0  0  0  0  0  0  0  0  0
   40.3440   22.6450   35.2890 O   0  0  0  0  0  0  0  0  0  0  0  0
   41.0730   23.2250   35.5990 H   0  0  0  0  0  0  0  0  0  0  0  0
  1  6  1  0  0  0  0
  2  3  1  0  0  0  0
  2  1  2  0  0  0  0
  3  4  2  0  0  0  0
  4  5  1  0  0  0  0
  5  7  1  0  0  0  0
  6  5  2  0  0  0  0
  7 12  1  0  0  0  0
  7  8  1  0  0  0  0
  8 15  1  0  0  0  0
  8  9  1  0  0  0  0
  9 18  1  0  0  0  0
  9 10  1  0  0  0  0
 10 19  1  0  0  0  0
 10 20  1  0  0  0  0
 11 22  1  0  0  0  0
 11 10  1  0  0  0  0
 12 23  1  1  0  0  0
 12 11  1  0  0  0  0
 13  2  1  0  0  0  0
 14  3  1  0  0  0  0
 16  8  1  0  0  0  0
 17  9  1  0  0  0  0
 21 11  1  0  0  0  0
 24  1  1  0  0  0  0
 24 27  1  0  0  0  0
 25 24  1  0  0  0  0
 26 24  1  0  0  0  0
 28 29  1  0  0  0  0
 28 12  1  0  0  0  0
M  END
>  <minimizedAffinity>
-5.04501009

$$$$

 OpenBabel03272500383D

 29 30  0  0  1  0  0  0  0  0999 V2000
   39.1560   23.5250   36.9780 C   0  0  0  0  0  0  0  0  0  0  0  0
   40.1270   22.5010   37.0560 C   0  0  0  0  0  0  0  0  0  0  0  0
   41.1700   22.5050   36.1170 C   0  0  0  0  0  0  0  0  0  0  0  0
   41.1690   23.5090   35.1890 N   0  0  0  0  0  0  0  0  0  0  0  0
   40.2320   24.4640   35.1450 C   0  0  0  0  0  0  0  0  0  0  0  0
   39.2250   24.4740   36.0390 N   0  0  0  0  0  0  0  0  0  0  0  0
   40.3310   25.4600   34.1350 N   0  0  0  0  0  0  0  0  0  0  0  0
   39.6760   25.2370   32.8570 C   0  0  0  0  0  0  0  0  0  0  0  0
   40.7180   25.6400   31.8100 C   0  0  0  0  0  0  0  0  0  0  0  0
   40.8120   27.1430   31.9280 C   0  0  0  0  0  0  0  0  0  0  0  0
   41.4600   27.4720   33.2290 C   0  0  0  0  0  0  0  0  0  0  0  0
   41.0590   26.6440   34.3860 C   0  0  2  0  0  0  0  0  0  0  0  0
   40.0430   21.7540   37.8230 H   0  0  0  0  0  0  0  0  0  0  0  0
   41.9270   21.7370   36.1490 H   0  0  0  0  0  0  0  0  0  0  0  0
   38.7480   25.7990   32.7650 H   0  0  0  0  0  0  0  0  0  0  0  0
   39.5450   24.1310   32.6950 H   0  0  0  0  0  0  0  0  0  0  0  0
   41.6900   25.2020   32.1010 H   0  0  0  0  0  0  0  0  0  0  0  0
   40.4200   25.3380   30.7930 H   0  0  0  0  0  0  0  0  0  0  0  0
   39.8010   27.5780   31.8030 H   0  0  0  0  0  0  0  0  0  0  0  0
   41.4380   27.5350   31.0890 H   0  0  0  0  0  0  0  0  0  0  0  0
   42.5550   27.5060   33.0490 H   0  0  0  0  0  0  0  0  0  0  0  0
   41.1780   28.5360   33.4500 H   0  0  0  0  0  0  0  0  0  0  0  0
   40.4830   27.2320   35.1540 H   0  0  0  0  0  0  0  0  0  0  0  0
   38.0510   23.5140   37.9810 C   0  0  0  0  0  0  0  0  0  0  0  0
   37.8180   24.8160   38.4270 F   0  0  0  0  0  0  0  0  0  0  0  0
   36.9700   22.9130   37.4050 F   0  0  0  0  0  0  0  0  0  0  0  0
   38.5000   22.7960   39.0820 F   0  0  0  0  0  0  0  0  0  0  0  0
   42.2360   26.2660   35.0540 O   0  0  0  0  0  0  0  0  0  0  0  0
   43.0510   26.5470   34.5840 H   0  0  0  0  0  0  0  0  0  0  0  0
  1  2  1  0  0  0  0
  1 24  1  0  0  0  0
  2 13  1  0  0  0  0
  3 14  1  0  0  0  0
  3  2  2  0  0  0  0
  4  3  1  0  0  0  0
  5  4  2  0  0  0  0
  5  6  1  0  0  0  0
  6  1  2  0  0  0  0
  7 12  1  0  0  0  0
  7  5  1  0  0  0  0
  8  7  1  0  0  0  0
  9 10  1  0  0  0  0
  9 17  1  0  0  0  0
  9  8  1  0  0  0  0
 10 11  1  0  0  0  0
 11 22  1  0  0  0  0
 11 12  1  0  0  0  0
 12 28  1  0  0  0  0
 12 23  1  1  0  0  0
 15  8  1  0  0  0  0
 16  8  1  0  0  0  0
 18  9  1  0  0  0  0
 19 10  1  0  0  0  0
 20 10  1  0  0  0  0
 21 11  1  0  0  0  0
 24 25  1  0  0  0  0
 24 27  1  0  0  0  0
 26 24  1  0  0  0  0
 29 28  1  0  0  0  0
M  END
>  <minimizedAffinity>
-4.83589077

$$$$

 OpenBabel03272500383D

 29 30  0  0  1  0  0  0  0  0999 V2000
   38.2630   24.0070   36.9360 C   0  0  0  0  0  0  0  0  0  0  0  0
   38.0750   25.3110   36.4240 C   0  0  0  0  0  0  0  0  0  0  0  0
   38.1380   25.4920   35.0340 C   0  0  0  0  0  0  0  0  0  0  0  0
   38.3790   24.3830   34.2720 N   0  0  0  0  0  0  0  0  0  0  0  0
   38.5530   23.1610   34.7900 C   0  0  0  0  0  0  0  0  0  0  0  0
   38.4950   22.9710   36.1230 N   0  0  0  0  0  0  0  0  0  0  0  0
   38.7980   22.0800   33.9020 N   0  0  0  0  0  0  0  0  0  0  0  0
   40.1690   21.7510   33.5500 C   0  0  0  0  0  0  0  0  0  0  0  0
   40.1440   21.5490   32.0320 C   0  0  0  0  0  0  0  0  0  0  0  0
   39.3850   20.2580   31.8340 C   0  0  0  0  0  0  0  0  0  0  0  0
   37.9570   20.4930   32.1920 C   0  0  0  0  0  0  0  0  0  0  0  0
   37.7120   21.3430   33.3760 C   0  0  2  0  0  0  0  0  0  0  0  0
   37.8900   26.1210   37.1050 H   0  0  0  0  0  0  0  0  0  0  0  0
   37.9990   26.4740   34.6120 H   0  0  0  0  0  0  0  0  0  0  0  0
   40.5340   20.8760   34.0840 H   0  0  0  0  0  0  0  0  0  0  0  0
   40.8160   22.6600   33.6890 H   0  0  0  0  0  0  0  0  0  0  0  0
   39.5610   22.3730   31.5820 H   0  0  0  0  0  0  0  0  0  0  0  0
   41.1580   21.4830   31.6080 H   0  0  0  0  0  0  0  0  0  0  0  0
   39.8730   19.4590   32.4250 H   0  0  0  0  0  0  0  0  0  0  0  0
   39.4560   19.9560   30.7610 H   0  0  0  0  0  0  0  0  0  0  0  0
   37.4420   20.8350   31.2690 H   0  0  0  0  0  0  0  0  0  0  0  0
   37.5230   19.4790   32.3980 H   0  0  0  0  0  0  0  0  0  0  0  0
   37.2570   20.7670   34.2300 H   0  0  0  0  0  0  0  0  0  0  0  0
   38.1940   23.8220   38.4150 C   0  0  0  0  0  0  0  0  0  0  0  0
   37.9550   25.0550   39.0240 F   0  0  0  0  0  0  0  0  0  0  0  0
   37.2520   22.8720   38.6750 F   0  0  0  0  0  0  0  0  0  0  0  0
   39.4530   23.4130   38.8390 F   0  0  0  0  0  0  0  0  0  0  0  0
   36.7210   22.2740   33.0220 O   0  0  0  0  0  0  0  0  0  0  0  0
   36.4690   22.2240   32.0740 H   0  0  0  0  0  0  0  0  0  0  0  0
  1 24  1  0  0  0  0
  2  1  1  0  0  0  0
  2 13  1  0  0  0  0
  3  2  2  0  0  0  0
  4  5  2  0  0  0  0
  4  3  1  0  0  0  0
  5  6  1  0  0  0  0
  6  1  2  0  0  0  0
  7  5  1  0  0  0  0
  8 16  1  0  0  0  0
  8  7  1  0  0  0  0
  8 15  1  0  0  0  0
  9  8  1  0  0  0  0
 10  9  1  0  0  0  0
 10 11  1  0  0  0  0
 10 19  1  0  0  0  0
 11 22  1  0  0  0  0
 11 12  1  0  0  0  0
 12  7  1  0  0  0  0
 12 23  1  1  0  0  0
 14  3  1  0  0  0  0
 17  9  1  0  0  0  0
 18  9  1  0  0  0  0
 20 10  1  0  0  0  0
 21 11  1  0  0  0  0
 24 26  1  0  0  0  0
 24 27  1  0  0  0  0
 24 25  1  0  0  0  0
 28 12  1  0  0  0  0
 29 28  1  0  0  0  0
M  END
>  <minimizedAffinity>
-4.82043314

$$$$

 OpenBabel03272500383D

 29 30  0  0  1  0  0  0  0  0999 V2000
   37.0040   24.7670   32.3660 C   0  0  0  0  0  0  0  0  0  0  0  0
   36.7540   26.1270   32.6590 C   0  0  0  0  0  0  0  0  0  0  0  0
   37.2530   26.6470   33.8630 C   0  0  0  0  0  0  0  0  0  0  0  0
   37.9510   25.7920   34.6690 N   0  0  0  0  0  0  0  0  0  0  0  0
   38.1700   24.5080   34.3600 C   0  0  0  0  0  0  0  0  0  0  0  0
   37.6970   23.9940   33.2070 N   0  0  0  0  0  0  0  0  0  0  0  0
   38.9100   23.7090   35.2740 N   0  0  0  0  0  0  0  0  0  0  0  0
   38.1990   22.9820   36.3110 C   0  0  0  0  0  0  0  0  0  0  0  0
   39.0060   23.2360   37.5880 C   0  0  0  0  0  0  0  0  0  0  0  0
   40.2840   22.4560   37.3890 C   0  0  0  0  0  0  0  0  0  0  0  0
   41.0790   23.1220   36.3190 C   0  0  0  0  0  0  0  0  0  0  0  0
   40.3160   23.6350   35.1620 C   0  0  2  0  0  0  0  0  0  0  0  0
   36.1940   26.7210   31.9610 H   0  0  0  0  0  0  0  0  0  0  0  0
   37.0790   27.6800   34.1170 H   0  0  0  0  0  0  0  0  0  0  0  0
   38.1010   21.9230   36.0800 H   0  0  0  0  0  0  0  0  0  0  0  0
   37.2140   23.4870   36.5110 H   0  0  0  0  0  0  0  0  0  0  0  0
   39.2530   24.3120   37.6340 H   0  0  0  0  0  0  0  0  0  0  0  0
   38.4700   22.8990   38.4890 H   0  0  0  0  0  0  0  0  0  0  0  0
   40.0320   21.3990   37.1740 H   0  0  0  0  0  0  0  0  0  0  0  0
   40.8650   22.4610   38.3440 H   0  0  0  0  0  0  0  0  0  0  0  0
   41.7230   23.8800   36.8150 H   0  0  0  0  0  0  0  0  0  0  0  0
   41.7970   22.3460   35.9440 H   0  0  0  0  0  0  0  0  0  0  0  0
   40.5450   23.0710   34.2140 H   0  0  0  0  0  0  0  0  0  0  0  0
   36.4700   24.2210   31.0830 C   0  0  0  0  0  0  0  0  0  0  0  0
   35.4700   25.0670   30.6010 F   0  0  0  0  0  0  0  0  0  0  0  0
   37.5220   24.0490   30.2320 F   0  0  0  0  0  0  0  0  0  0  0  0
   35.8540   23.0110   31.3750 F   0  0  0  0  0  0  0  0  0  0  0  0
   40.7750   24.9380   34.9060 O   0  0  0  0  0  0  0  0  0  0  0  0
   41.4200   25.2560   35.5750 H   0  0  0  0  0  0  0  0  0  0  0  0
  1  2  2  0  0  0  0
  1  6  1  0  0  0  0
  2  3  1  0  0  0  0
  3 14  1  0  0  0  0
  3  4  2  0  0  0  0
  5  4  1  0  0  0  0
  5  7  1  0  0  0  0
  6  5  2  0  0  0  0
  7  8  1  0  0  0  0
  8 16  1  0  0  0  0
  8  9  1  0  0  0  0
  9 17  1  0  0  0  0
  9 18  1  0  0  0  0
 10  9  1  0  0  0  0
 10 20  1  0  0  0  0
 11 21  1  0  0  0  0
 11 10  1  0  0  0  0
 12 23  1  6  0  0  0
 12  7  1  0  0  0  0
 12 11  1  0  0  0  0
 13  2  1  0  0  0  0
 15  8  1  0  0  0  0
 19 10  1  0  0  0  0
 22 11  1  0  0  0  0
 24 27  1  0  0  0  0
 24  1  1  0  0  0  0
 25 24  1  0  0  0  0
 26 24  1  0  0  0  0
 28 12  1  0  0  0  0
 28 29  1  0  0  0  0
M  END
>  <minimizedAffinity>
-4.78029728

$$$$

 OpenBabel03272500383D

 29 30  0  0  1  0  0  0  0  0999 V2000
   38.2200   24.9230   36.4370 C   0  0  0  0  0  0  0  0  0  0  0  0
   38.3460   26.3250   36.5680 C   0  0  0  0  0  0  0  0  0  0  0  0
   38.4570   27.0930   35.3990 C   0  0  0  0  0  0  0  0  0  0  0  0
   38.4360   26.4210   34.2090 N   0  0  0  0  0  0  0  0  0  0  0  0
   38.3150   25.0910   34.1200 C   0  0  0  0  0  0  0  0  0  0  0  0
   38.2070   24.3400   35.2340 N   0  0  0  0  0  0  0  0  0  0  0  0
   38.3040   24.4980   32.8290 N   0  0  0  0  0  0  0  0  0  0  0  0
   39.5620   24.0800   32.2330 C   0  0  0  0  0  0  0  0  0  0  0  0
   39.4990   24.5910   30.7910 C   0  0  0  0  0  0  0  0  0  0  0  0
   38.4590   23.7200   30.1260 C   0  0  0  0  0  0  0  0  0  0  0  0
   37.1250   24.0670   30.6910 C   0  0  0  0  0  0  0  0  0  0  0  0
   37.0790   24.3250   32.1460 C   0  0  2  0  0  0  0  0  0  0  0  0
   38.3520   26.7620   37.5500 H   0  0  0  0  0  0  0  0  0  0  0  0
   38.5550   28.1640   35.4650 H   0  0  0  0  0  0  0  0  0  0  0  0
   39.7090   23.0030   32.2910 H   0  0  0  0  0  0  0  0  0  0  0  0
   40.4040   24.6700   32.6900 H   0  0  0  0  0  0  0  0  0  0  0  0
   39.1290   25.6320   30.8070 H   0  0  0  0  0  0  0  0  0  0  0  0
   40.4720   24.5090   30.2810 H   0  0  0  0  0  0  0  0  0  0  0  0
   38.7430   22.6580   30.2550 H   0  0  0  0  0  0  0  0  0  0  0  0
   38.4640   23.9240   29.0270 H   0  0  0  0  0  0  0  0  0  0  0  0
   36.7090   24.8870   30.0680 H   0  0  0  0  0  0  0  0  0  0  0  0
   36.4640   23.1860   30.4750 H   0  0  0  0  0  0  0  0  0  0  0  0
   36.4970   23.5390   32.7030 H   0  0  0  0  0  0  0  0  0  0  0  0
   38.1010   24.1140   37.6850 C   0  0  0  0  0  0  0  0  0  0  0  0
   37.9260   24.9680   38.7750 F   0  0  0  0  0  0  0  0  0  0  0  0
   37.0930   23.2140   37.5050 F   0  0  0  0  0  0  0  0  0  0  0  0
   39.3190   23.4750   37.8790 F   0  0  0  0  0  0  0  0  0  0  0  0
   36.3370   25.5030   32.3360 O   0  0  0  0  0  0  0  0  0  0  0  0
   36.0850   25.9380   31.4920 H   0  0  0  0  0  0  0  0  0  0  0  0
  1  2  1  0  0  0  0
  1 24  1  0  0  0  0
  2 13  1  0  0  0  0
  3 14  1  0  0  0  0
  3  2  2  0  0  0  0
  4  3  1  0  0  0  0
  5  4  2  0  0  0  0
  5  6  1  0  0  0  0
  6  1  2  0  0  0  0
  7  5  1  0  0  0  0
  8 15  1  0  0  0  0
  8 16  1  0  0  0  0
  8  7  1  0  0  0  0
  9 17  1  0  0  0  0
  9  8  1  0  0  0  0
 10 19  1  0  0  0  0
 10 11  1  0  0  0  0
 10  9  1  0  0  0  0
 11 12  1  0  0  0  0
 12 28  1  0  0  0  0
 12 23  1  1  0  0  0
 12  7  1  0  0  0  0
 18  9  1  0  0  0  0
 20 10  1  0  0  0  0
 21 11  1  0  0  0  0
 22 11  1  0  0  0  0
 24 27  1  0  0  0  0
 24 25  1  0  0  0  0
 26 24  1  0  0  0  0
 29 28  1  0  0  0  0
M  END
>  <minimizedAffinity>
-4.77995634

$$$$

 OpenBabel03272500383D

 29 30  0  0  1  0  0  0  0  0999 V2000
   36.8590   20.9680   32.1420 C   0  0  0  0  0  0  0  0  0  0  0  0
   38.0730   20.3270   31.8060 C   0  0  0  0  0  0  0  0  0  0  0  0
   39.2370   20.7120   32.4890 C   0  0  0  0  0  0  0  0  0  0  0  0
   39.1080   21.6880   33.4370 N   0  0  0  0  0  0  0  0  0  0  0  0
   37.9410   22.2740   33.7310 C   0  0  0  0  0  0  0  0  0  0  0  0
   36.8150   21.9150   33.0850 N   0  0  0  0  0  0  0  0  0  0  0  0
   37.9240   23.2780   34.7370 N   0  0  0  0  0  0  0  0  0  0  0  0
   38.1320   24.6640   34.3550 C   0  0  0  0  0  0  0  0  0  0  0  0
   39.1300   25.2060   35.3820 C   0  0  0  0  0  0  0  0  0  0  0  0
   38.3430   25.2850   36.6690 C   0  0  0  0  0  0  0  0  0  0  0  0
   38.0630   23.8970   37.1340 C   0  0  0  0  0  0  0  0  0  0  0  0
   37.7070   22.9170   36.0860 C   0  0  2  0  0  0  0  0  0  0  0  0
   38.0740   19.5690   31.0440 H   0  0  0  0  0  0  0  0  0  0  0  0
   40.1790   20.2430   32.2550 H   0  0  0  0  0  0  0  0  0  0  0  0
   37.2030   25.2310   34.3320 H   0  0  0  0  0  0  0  0  0  0  0  0
   38.7000   24.7010   33.3840 H   0  0  0  0  0  0  0  0  0  0  0  0
   39.9380   24.4630   35.5080 H   0  0  0  0  0  0  0  0  0  0  0  0
   39.5230   26.1940   35.0950 H   0  0  0  0  0  0  0  0  0  0  0  0
   37.4360   25.8970   36.5000 H   0  0  0  0  0  0  0  0  0  0  0  0
   38.9550   25.8190   37.4370 H   0  0  0  0  0  0  0  0  0  0  0  0
   38.9150   23.5890   37.7770 H   0  0  0  0  0  0  0  0  0  0  0  0
   37.1940   23.9800   37.8390 H   0  0  0  0  0  0  0  0  0  0  0  0
   36.6390   22.5700   36.1690 H   0  0  0  0  0  0  0  0  0  0  0  0
   35.6260   20.5520   31.4120 C   0  0  0  0  0  0  0  0  0  0  0  0
   34.6910   20.0610   32.3250 F   0  0  0  0  0  0  0  0  0  0  0  0
   35.1940   21.6170   30.6790 F   0  0  0  0  0  0  0  0  0  0  0  0
   35.9720   19.4840   30.5930 F   0  0  0  0  0  0  0  0  0  0  0  0
   38.4650   21.7590   36.3250 O   0  0  0  0  0  0  0  0  0  0  0  0
   39.1100   21.8670   37.0580 H   0  0  0  0  0  0  0  0  0  0  0  0
  1  6  1  0  0  0  0
  2  1  2  0  0  0  0
  2  3  1  0  0  0  0
  3  4  2  0  0  0  0
  4  5  1  0  0  0  0
  5  7  1  0  0  0  0
  6  5  2  0  0  0  0
  7 12  1  0  0  0  0
  8  7  1  0  0  0  0
  8  9  1  0  0  0  0
  9 17  1  0  0  0  0
  9 10  1  0  0  0  0
 10 11  1  0  0  0  0
 10 20  1  0  0  0  0
 11 21  1  0  0  0  0
 11 22  1  0  0  0  0
 12 23  1  1  0  0  0
 12 28  1  0  0  0  0
 12 11  1  0  0  0  0
 13  2  1  0  0  0  0
 14  3  1  0  0  0  0
 15  8  1  0  0  0  0
 16  8  1  0  0  0  0
 18  9  1  0  0  0  0
 19 10  1  0  0  0  0
 24  1  1  0  0  0  0
 24 25  1  0  0  0  0
 26 24  1  0  0  0  0
 27 24  1  0  0  0  0
 28 29  1  0  0  0  0
M  END
>  <minimizedAffinity>
-4.77024984

$$$$

 OpenBabel03272500383D

 29 30  0  0  1  0  0  0  0  0999 V2000
   36.9300   23.5770   32.3920 C   0  0  0  0  0  0  0  0  0  0  0  0
   36.3730   22.3100   32.1060 C   0  0  0  0  0  0  0  0  0  0  0  0
   36.6780   21.2440   32.9660 C   0  0  0  0  0  0  0  0  0  0  0  0
   37.4980   21.5130   34.0250 N   0  0  0  0  0  0  0  0  0  0  0  0
   38.0080   22.7270   34.2670 C   0  0  0  0  0  0  0  0  0  0  0  0
   37.7250   23.7610   33.4510 N   0  0  0  0  0  0  0  0  0  0  0  0
   38.8500   22.8920   35.4000 N   0  0  0  0  0  0  0  0  0  0  0  0
   40.2820   22.6960   35.2500 C   0  0  0  0  0  0  0  0  0  0  0  0
   40.6860   21.8390   36.4520 C   0  0  0  0  0  0  0  0  0  0  0  0
   40.5550   22.7640   37.6380 C   0  0  0  0  0  0  0  0  0  0  0  0
   39.1080   23.0400   37.8610 C   0  0  0  0  0  0  0  0  0  0  0  0
   38.2870   23.2410   36.6480 C   0  0  2  0  0  0  0  0  0  0  0  0
   35.7380   22.1970   31.2470 H   0  0  0  0  0  0  0  0  0  0  0  0
   36.2690   20.2640   32.7750 H   0  0  0  0  0  0  0  0  0  0  0  0
   40.8250   23.6390   35.2040 H   0  0  0  0  0  0  0  0  0  0  0  0
   40.4760   22.0280   34.3660 H   0  0  0  0  0  0  0  0  0  0  0  0
   39.9510   21.0220   36.5590 H   0  0  0  0  0  0  0  0  0  0  0  0
   41.7150   21.4550   36.3590 H   0  0  0  0  0  0  0  0  0  0  0  0
   41.1660   23.6700   37.4590 H   0  0  0  0  0  0  0  0  0  0  0  0
   40.9830   22.2610   38.5410 H   0  0  0  0  0  0  0  0  0  0  0  0
   38.7260   22.2520   38.5450 H   0  0  0  0  0  0  0  0  0  0  0  0
   39.0660   23.9830   38.4680 H   0  0  0  0  0  0  0  0  0  0  0  0
   37.9090   24.2980   36.5570 H   0  0  0  0  0  0  0  0  0  0  0  0
   36.6010   24.7070   31.4730 C   0  0  0  0  0  0  0  0  0  0  0  0
   37.7270   25.0300   30.7160 F   0  0  0  0  0  0  0  0  0  0  0  0
   35.5120   24.3430   30.7380 F   0  0  0  0  0  0  0  0  0  0  0  0
   36.3270   25.8150   32.2640 F   0  0  0  0  0  0  0  0  0  0  0  0
   37.1230   22.4700   36.8010 O   0  0  0  0  0  0  0  0  0  0  0  0
   37.1350   21.9130   37.6100 H   0  0  0  0  0  0  0  0  0  0  0  0
  1  6  1  0  0  0  0
  2  1  2  0  0  0  0
  2  3  1  0  0  0  0
  3  4  2  0  0  0  0
  4  5  1  0  0  0  0
  5  7  1  0  0  0  0
  6  5  2  0  0  0  0
  7 12  1  0  0  0  0
  8  7  1  0  0  0  0
  8  9  1  0  0  0  0
  9 17  1  0  0  0  0
  9 10  1  0  0  0  0
 10 11  1  0  0  0  0
 10 20  1  0  0  0  0
 11 22  1  0  0  0  0
 11 21  1  0  0  0  0
 12 23  1  6  0  0  0
 12 28  1  0  0  0  0
 12 11  1  0  0  0  0
 13  2  1  0  0  0  0
 14  3  1  0  0  0  0
 15  8  1  0  0  0  0
 16  8  1  0  0  0  0
 18  9  1  0  0  0  0
 19 10  1  0  0  0  0
 24 27  1  0  0  0  0
 24  1  1  0  0  0  0
 25 24  1  0  0  0  0
 26 24  1  0  0  0  0
 28 29  1  0  0  0  0
M  END
>  <minimizedAffinity>
-4.75854397

$$$$
