
 OpenBabel03262520303D

 37 39  0  0  1  0  0  0  0  0999 V2000
   37.9420   24.2480   36.4300 C   0  0  1  0  0  0  0  0  0  0  0  0
   37.8010   23.3460   37.3050 N   0  0  0  0  0  0  0  0  0  0  0  0
   37.8680   23.4280   38.5850 C   0  0  0  0  0  0  0  0  0  0  0  0
   39.0000   22.6610   38.5520 N   0  0  0  0  0  0  0  0  0  0  0  0
   39.7760   22.9030   37.4490 C   0  0  0  0  0  0  0  0  0  0  0  0
   41.0850   22.3340   37.4780 C   0  0  0  0  0  0  0  0  0  0  0  0
   41.8920   22.5460   36.4230 C   0  0  0  0  0  0  0  0  0  0  0  0
   41.5530   23.2700   35.3210 C   0  0  0  0  0  0  0  0  0  0  0  0
   40.2820   23.7740   35.3840 C   0  0  0  0  0  0  0  0  0  0  0  0
   39.2800   23.6930   36.3440 C   0  0  0  0  0  0  0  0  0  0  0  0
   38.1080   25.2370   37.0050 H   0  0  0  0  0  0  0  0  0  0  0  0
   37.3420   22.4560   36.9480 H   0  0  0  0  0  0  0  0  0  0  0  0
   37.0570   22.9330   39.1750 H   0  0  0  0  0  0  0  0  0  0  0  0
   38.0040   24.4170   39.0710 H   0  0  0  0  0  0  0  0  0  0  0  0
   39.2180   21.9730   39.3090 H   0  0  0  0  0  0  0  0  0  0  0  0
   41.4440   21.7480   38.3010 H   0  0  0  0  0  0  0  0  0  0  0  0
   42.8980   22.1150   36.4350 H   0  0  0  0  0  0  0  0  0  0  0  0
   42.1500   23.4710   34.4580 H   0  0  0  0  0  0  0  0  0  0  0  0
   39.9420   24.3700   34.5170 H   0  0  0  0  0  0  0  0  0  0  0  0
   37.8020   25.3710   32.8900 C   0  0  0  0  0  0  0  0  0  0  0  0
   37.4110   26.6720   33.1350 C   0  0  0  0  0  0  0  0  0  0  0  0
   37.2380   26.9790   34.4660 C   0  0  0  0  0  0  0  0  0  0  0  0
   37.4560   26.0210   35.3990 N   0  0  0  0  0  0  0  0  0  0  0  0
   37.8340   24.7800   35.1120 C   0  0  0  0  0  0  0  0  0  0  0  0
   37.9830   24.5390   33.8450 N   0  0  0  0  0  0  0  0  0  0  0  0
   36.8260   28.3210   34.7660 N   0  0  0  0  0  0  0  0  0  0  0  0
   37.9770   24.9860   31.8810 H   0  0  0  0  0  0  0  0  0  0  0  0
   36.2010   28.3310   35.6160 H   0  0  0  0  0  0  0  0  0  0  0  0
   37.1540   29.1020   34.1640 H   0  0  0  0  0  0  0  0  0  0  0  0
   37.2160   27.6230   32.0240 C   0  0  0  0  0  0  0  0  0  0  0  0
   38.0970   27.6760   31.3430 H   0  0  0  0  0  0  0  0  0  0  0  0
   37.1060   28.6290   32.4670 H   0  0  0  0  0  0  0  0  0  0  0  0
   35.9770   27.3380   31.2420 C   0  0  0  0  0  0  0  0  0  0  0  0
   35.5690   26.3160   31.3670 H   0  0  0  0  0  0  0  0  0  0  0  0
   35.2410   28.1450   31.4320 H   0  0  0  0  0  0  0  0  0  0  0  0
   36.3440   27.4670   29.8810 O   0  0  0  0  0  0  0  0  0  0  0  0
   36.5990   28.3930   29.7040 H   0  0  0  0  0  0  0  0  0  0  0  0
  1 11  1  1  0  0  0
  1  2  1  0  0  0  0
  2  3  1  0  0  0  0
  3 14  1  0  0  0  0
  3 13  1  0  0  0  0
  4  3  1  0  0  0  0
  4 15  1  0  0  0  0
  5  6  1  0  0  0  0
  5  4  1  0  0  0  0
  6 16  1  0  0  0  0
  7 17  1  0  0  0  0
  7  6  2  0  0  0  0
  8  9  2  0  0  0  0
  8  7  1  0  0  0  0
  9 10  1  0  0  0  0
 10  1  1  0  0  0  0
 10  5  2  0  0  0  0
 12  2  1  0  0  0  0
 18  8  1  0  0  0  0
 19  9  1  0  0  0  0
 20 21  2  0  0  0  0
 20 25  1  0  0  0  0
 21 22  1  0  0  0  0
 22 26  1  0  0  0  0
 22 23  2  0  0  0  0
 24 23  1  0  0  0  0
 24  1  1  0  0  0  0
 25 24  2  0  0  0  0
 26 28  1  0  0  0  0
 27 20  1  0  0  0  0
 29 26  1  0  0  0  0
 30 32  1  0  0  0  0
 30 21  1  0  0  0  0
 31 30  1  0  0  0  0
 33 34  1  0  0  0  0
 33 35  1  0  0  0  0
 33 30  1  0  0  0  0
 36 33  1  0  0  0  0
 37 36  1  0  0  0  0
M  END
>  <minimizedAffinity>
-5.97463417

$$$$

 OpenBabel03262520303D

 37 39  0  0  1  0  0  0  0  0999 V2000
   38.2030   22.8850   35.9550 C   0  0  1  0  0  0  0  0  0  0  0  0
   38.3590   22.5130   37.1540 N   0  0  0  0  0  0  0  0  0  0  0  0
   38.6590   23.2050   38.1940 C   0  0  0  0  0  0  0  0  0  0  0  0
   39.8590   22.5500   38.2540 N   0  0  0  0  0  0  0  0  0  0  0  0
   40.3670   22.2510   37.0180 C   0  0  0  0  0  0  0  0  0  0  0  0
   41.7220   21.8040   36.9980 C   0  0  0  0  0  0  0  0  0  0  0  0
   42.2730   21.5030   35.8090 C   0  0  0  0  0  0  0  0  0  0  0  0
   41.6310   21.5940   34.6120 C   0  0  0  0  0  0  0  0  0  0  0  0
   40.3390   22.0300   34.7310 C   0  0  0  0  0  0  0  0  0  0  0  0
   39.5630   22.3950   35.8240 C   0  0  0  0  0  0  0  0  0  0  0  0
   38.3380   24.0320   35.9480 H   0  0  0  0  0  0  0  0  0  0  0  0
   37.9670   21.5490   37.3700 H   0  0  0  0  0  0  0  0  0  0  0  0
   38.0540   23.0350   39.1180 H   0  0  0  0  0  0  0  0  0  0  0  0
   38.7490   24.3090   38.1180 H   0  0  0  0  0  0  0  0  0  0  0  0
   40.3110   22.3200   39.1690 H   0  0  0  0  0  0  0  0  0  0  0  0
   42.3100   21.6990   37.8890 H   0  0  0  0  0  0  0  0  0  0  0  0
   43.3120   21.1600   35.7830 H   0  0  0  0  0  0  0  0  0  0  0  0
   42.0170   21.3700   33.6410 H   0  0  0  0  0  0  0  0  0  0  0  0
   39.7600   22.1240   33.7940 H   0  0  0  0  0  0  0  0  0  0  0  0
   37.2030   22.7120   32.3800 C   0  0  0  0  0  0  0  0  0  0  0  0
   36.3740   21.6130   32.4840 C   0  0  0  0  0  0  0  0  0  0  0  0
   36.2820   21.0790   33.7500 C   0  0  0  0  0  0  0  0  0  0  0  0
   36.9840   21.6500   34.7600 N   0  0  0  0  0  0  0  0  0  0  0  0
   37.7700   22.7100   34.6080 C   0  0  0  0  0  0  0  0  0  0  0  0
   37.8240   23.1750   33.3980 N   0  0  0  0  0  0  0  0  0  0  0  0
   35.4340   19.9320   33.9030 N   0  0  0  0  0  0  0  0  0  0  0  0
   37.3720   23.2380   31.4360 H   0  0  0  0  0  0  0  0  0  0  0  0
   35.8230   19.2840   34.6390 H   0  0  0  0  0  0  0  0  0  0  0  0
   34.5790   19.8480   33.3180 H   0  0  0  0  0  0  0  0  0  0  0  0
   35.6570   21.0950   31.3040 C   0  0  0  0  0  0  0  0  0  0  0  0
   35.3940   21.8940   30.5730 H   0  0  0  0  0  0  0  0  0  0  0  0
   34.6990   20.6730   31.6580 H   0  0  0  0  0  0  0  0  0  0  0  0
   36.4040   19.9990   30.6200 C   0  0  0  0  0  0  0  0  0  0  0  0
   36.4450   20.0780   29.5160 H   0  0  0  0  0  0  0  0  0  0  0  0
   37.3960   19.8870   31.1030 H   0  0  0  0  0  0  0  0  0  0  0  0
   35.6970   18.8090   30.9170 O   0  0  0  0  0  0  0  0  0  0  0  0
   35.7410   18.6400   31.8780 H   0  0  0  0  0  0  0  0  0  0  0  0
  1 11  1  1  0  0  0
  1  2  1  0  0  0  0
  2 12  1  0  0  0  0
  2  3  1  0  0  0  0
  3  4  1  0  0  0  0
  3 13  1  0  0  0  0
  4 15  1  0  0  0  0
  5  4  1  0  0  0  0
  6  5  1  0  0  0  0
  6 16  1  0  0  0  0
  7  6  2  0  0  0  0
  8  9  2  0  0  0  0
  8  7  1  0  0  0  0
  9 10  1  0  0  0  0
 10  1  1  0  0  0  0
 10  5  2  0  0  0  0
 14  3  1  0  0  0  0
 17  7  1  0  0  0  0
 18  8  1  0  0  0  0
 19  9  1  0  0  0  0
 20 21  2  0  0  0  0
 20 25  1  0  0  0  0
 21 22  1  0  0  0  0
 22 26  1  0  0  0  0
 22 23  2  0  0  0  0
 24 23  1  0  0  0  0
 24  1  1  0  0  0  0
 25 24  2  0  0  0  0
 26 28  1  0  0  0  0
 27 20  1  0  0  0  0
 29 26  1  0  0  0  0
 30 32  1  0  0  0  0
 30 21  1  0  0  0  0
 31 30  1  0  0  0  0
 33 36  1  0  0  0  0
 33 35  1  0  0  0  0
 33 30  1  0  0  0  0
 34 33  1  0  0  0  0
 36 37  1  0  0  0  0
M  END
>  <minimizedAffinity>
-5.74086761

$$$$

 OpenBabel03262520303D

 37 39  0  0  1  0  0  0  0  0999 V2000
   38.7550   25.6550   32.7330 C   0  0  1  0  0  0  0  0  0  0  0  0
   38.5820   25.3560   31.5160 N   0  0  0  0  0  0  0  0  0  0  0  0
   39.2970   25.6510   30.4900 C   0  0  0  0  0  0  0  0  0  0  0  0
   38.2730   26.4340   30.0310 N   0  0  0  0  0  0  0  0  0  0  0  0
   37.5850   27.0580   31.0370 C   0  0  0  0  0  0  0  0  0  0  0  0
   36.6800   28.0810   30.6240 C   0  0  0  0  0  0  0  0  0  0  0  0
   35.9830   28.7330   31.5730 C   0  0  0  0  0  0  0  0  0  0  0  0
   36.0780   28.4880   32.9090 C   0  0  0  0  0  0  0  0  0  0  0  0
   36.9680   27.4920   33.2080 C   0  0  0  0  0  0  0  0  0  0  0  0
   37.7880   26.6910   32.4220 C   0  0  0  0  0  0  0  0  0  0  0  0
   39.7510   26.2370   32.7880 H   0  0  0  0  0  0  0  0  0  0  0  0
   37.8850   24.5710   31.3510 H   0  0  0  0  0  0  0  0  0  0  0  0
   39.5340   24.8260   29.7740 H   0  0  0  0  0  0  0  0  0  0  0  0
   40.2580   26.1920   30.6210 H   0  0  0  0  0  0  0  0  0  0  0  0
   38.0680   26.5220   29.0090 H   0  0  0  0  0  0  0  0  0  0  0  0
   36.5350   28.3460   29.5950 H   0  0  0  0  0  0  0  0  0  0  0  0
   35.2870   29.5190   31.2670 H   0  0  0  0  0  0  0  0  0  0  0  0
   35.5530   28.9710   33.7040 H   0  0  0  0  0  0  0  0  0  0  0  0
   37.0910   27.2420   34.2780 H   0  0  0  0  0  0  0  0  0  0  0  0
   38.1960   25.6140   36.4070 C   0  0  0  0  0  0  0  0  0  0  0  0
   37.9820   24.2570   36.5350 C   0  0  0  0  0  0  0  0  0  0  0  0
   38.0440   23.5500   35.3550 C   0  0  0  0  0  0  0  0  0  0  0  0
   38.3020   24.2130   34.2010 N   0  0  0  0  0  0  0  0  0  0  0  0
   38.5030   25.5240   34.1300 C   0  0  0  0  0  0  0  0  0  0  0  0
   38.4330   26.1450   35.2670 N   0  0  0  0  0  0  0  0  0  0  0  0
   37.8210   22.1350   35.4410 N   0  0  0  0  0  0  0  0  0  0  0  0
   38.1760   26.2990   37.2590 H   0  0  0  0  0  0  0  0  0  0  0  0
   37.3360   21.7860   34.5720 H   0  0  0  0  0  0  0  0  0  0  0  0
   38.1330   21.6200   36.2890 H   0  0  0  0  0  0  0  0  0  0  0  0
   37.7190   23.6550   37.8560 C   0  0  0  0  0  0  0  0  0  0  0  0
   37.1900   22.6760   37.7870 H   0  0  0  0  0  0  0  0  0  0  0  0
   37.0390   24.3360   38.4000 H   0  0  0  0  0  0  0  0  0  0  0  0
   38.9590   23.5130   38.6740 C   0  0  0  0  0  0  0  0  0  0  0  0
   39.6740   24.3560   38.5910 H   0  0  0  0  0  0  0  0  0  0  0  0
   38.6740   23.2630   39.7160 H   0  0  0  0  0  0  0  0  0  0  0  0
   39.6210   22.3670   38.1720 O   0  0  0  0  0  0  0  0  0  0  0  0
   39.0680   21.5790   38.3360 H   0  0  0  0  0  0  0  0  0  0  0  0
  1 11  1  6  0  0  0
  1 24  1  0  0  0  0
  2  1  1  0  0  0  0
  3 14  1  0  0  0  0
  3  2  1  0  0  0  0
  4  3  1  0  0  0  0
  4  5  1  0  0  0  0
  5 10  1  0  0  0  0
  6  5  2  0  0  0  0
  6  7  1  0  0  0  0
  7  8  2  0  0  0  0
  8  9  1  0  0  0  0
  8 18  1  0  0  0  0
  9 19  1  0  0  0  0
 10  1  1  0  0  0  0
 10  9  2  0  0  0  0
 12  2  1  0  0  0  0
 13  3  1  0  0  0  0
 15  4  1  0  0  0  0
 16  6  1  0  0  0  0
 17  7  1  0  0  0  0
 20 21  1  0  0  0  0
 20 27  1  0  0  0  0
 21 30  1  0  0  0  0
 22 26  1  0  0  0  0
 22 21  2  0  0  0  0
 23 22  1  0  0  0  0
 24 23  2  0  0  0  0
 24 25  1  0  0  0  0
 25 20  2  0  0  0  0
 26 29  1  0  0  0  0
 28 26  1  0  0  0  0
 30 32  1  0  0  0  0
 30 33  1  0  0  0  0
 31 30  1  0  0  0  0
 33 35  1  0  0  0  0
 34 33  1  0  0  0  0
 36 37  1  0  0  0  0
 36 33  1  0  0  0  0
M  END
>  <minimizedAffinity>
-5.40213633

$$$$

 OpenBabel03262520303D

 37 39  0  0  1  0  0  0  0  0999 V2000
   37.7910   26.3390   33.8590 C   0  0  1  0  0  0  0  0  0  0  0  0
   37.5220   27.2050   32.9780 N   0  0  0  0  0  0  0  0  0  0  0  0
   36.5550   28.0490   32.9280 C   0  0  0  0  0  0  0  0  0  0  0  0
   36.0530   27.3750   31.8480 N   0  0  0  0  0  0  0  0  0  0  0  0
   36.2530   26.0220   31.9240 C   0  0  0  0  0  0  0  0  0  0  0  0
   35.5370   25.2370   30.9710 C   0  0  0  0  0  0  0  0  0  0  0  0
   35.6920   23.9010   31.0040 C   0  0  0  0  0  0  0  0  0  0  0  0
   36.4870   23.2350   31.8870 C   0  0  0  0  0  0  0  0  0  0  0  0
   37.1320   24.0700   32.7590 C   0  0  0  0  0  0  0  0  0  0  0  0
   37.1340   25.4500   32.9200 C   0  0  0  0  0  0  0  0  0  0  0  0
   37.0020   26.4650   34.6940 H   0  0  0  0  0  0  0  0  0  0  0  0
   38.3220   27.4180   32.3120 H   0  0  0  0  0  0  0  0  0  0  0  0
   36.8080   29.1060   32.6670 H   0  0  0  0  0  0  0  0  0  0  0  0
   35.8470   28.1330   33.7790 H   0  0  0  0  0  0  0  0  0  0  0  0
   35.5710   27.8750   31.0670 H   0  0  0  0  0  0  0  0  0  0  0  0
   34.8880   25.6700   30.2350 H   0  0  0  0  0  0  0  0  0  0  0  0
   35.1480   23.2910   30.2780 H   0  0  0  0  0  0  0  0  0  0  0  0
   36.6470   22.1820   31.9600 H   0  0  0  0  0  0  0  0  0  0  0  0
   37.7970   23.5910   33.5020 H   0  0  0  0  0  0  0  0  0  0  0  0
   40.1460   23.8300   35.2640 C   0  0  0  0  0  0  0  0  0  0  0  0
   39.5290   23.6790   36.4900 C   0  0  0  0  0  0  0  0  0  0  0  0
   38.4090   24.4600   36.6700 C   0  0  0  0  0  0  0  0  0  0  0  0
   38.0110   25.2850   35.6710 N   0  0  0  0  0  0  0  0  0  0  0  0
   38.6400   25.3930   34.5060 C   0  0  0  0  0  0  0  0  0  0  0  0
   39.6900   24.6390   34.3850 N   0  0  0  0  0  0  0  0  0  0  0  0
   37.7400   24.3380   37.9340 N   0  0  0  0  0  0  0  0  0  0  0  0
   41.0450   23.2740   34.9820 H   0  0  0  0  0  0  0  0  0  0  0  0
   37.3220   25.2650   38.2170 H   0  0  0  0  0  0  0  0  0  0  0  0
   37.7280   23.4190   38.4190 H   0  0  0  0  0  0  0  0  0  0  0  0
   40.0610   22.7350   37.4910 C   0  0  0  0  0  0  0  0  0  0  0  0
   39.2570   22.1950   38.0430 H   0  0  0  0  0  0  0  0  0  0  0  0
   40.6100   23.3280   38.2450 H   0  0  0  0  0  0  0  0  0  0  0  0
   41.0240   21.7600   36.9000 C   0  0  0  0  0  0  0  0  0  0  0  0
   40.5900   21.0700   36.1500 H   0  0  0  0  0  0  0  0  0  0  0  0
   41.9170   22.3120   36.5430 H   0  0  0  0  0  0  0  0  0  0  0  0
   41.4730   20.9610   37.9790 O   0  0  0  0  0  0  0  0  0  0  0  0
   41.9680   21.5200   38.6080 H   0  0  0  0  0  0  0  0  0  0  0  0
  1 24  1  0  0  0  0
  1 11  1  1  0  0  0
  2  1  1  0  0  0  0
  3  2  1  0  0  0  0
  3 14  1  0  0  0  0
  4  5  1  0  0  0  0
  4  3  1  0  0  0  0
  5 10  1  0  0  0  0
  6  7  1  0  0  0  0
  6  5  2  0  0  0  0
  7  8  2  0  0  0  0
  8 18  1  0  0  0  0
  8  9  1  0  0  0  0
  9 10  2  0  0  0  0
  9 19  1  0  0  0  0
 10  1  1  0  0  0  0
 12  2  1  0  0  0  0
 13  3  1  0  0  0  0
 15  4  1  0  0  0  0
 16  6  1  0  0  0  0
 17  7  1  0  0  0  0
 20 21  1  0  0  0  0
 21 22  2  0  0  0  0
 21 30  1  0  0  0  0
 22 26  1  0  0  0  0
 23 22  1  0  0  0  0
 24 23  2  0  0  0  0
 25 24  1  0  0  0  0
 25 20  2  0  0  0  0
 26 28  1  0  0  0  0
 26 29  1  0  0  0  0
 27 20  1  0  0  0  0
 30 31  1  0  0  0  0
 30 32  1  0  0  0  0
 33 30  1  0  0  0  0
 33 36  1  0  0  0  0
 34 33  1  0  0  0  0
 35 33  1  0  0  0  0
 36 37  1  0  0  0  0
M  END
>  <minimizedAffinity>
-5.38229609

$$$$

 OpenBabel03262520303D

 37 39  0  0  1  0  0  0  0  0999 V2000
   33.2490   29.6780   33.9660 C   0  0  1  0  0  0  0  0  0  0  0  0
   32.4560   29.4060   34.9140 N   0  0  0  0  0  0  0  0  0  0  0  0
   31.2890   29.8800   35.1660 C   0  0  0  0  0  0  0  0  0  0  0  0
   31.7970   30.4700   36.2910 N   0  0  0  0  0  0  0  0  0  0  0  0
   33.0860   30.9040   36.1300 C   0  0  0  0  0  0  0  0  0  0  0  0
   33.5870   31.7500   37.1640 C   0  0  0  0  0  0  0  0  0  0  0  0
   34.8460   32.2110   37.0540 C   0  0  0  0  0  0  0  0  0  0  0  0
   35.6860   31.9290   36.0200 C   0  0  0  0  0  0  0  0  0  0  0  0
   35.1190   31.1120   35.0800 C   0  0  0  0  0  0  0  0  0  0  0  0
   33.8660   30.5200   34.9730 C   0  0  0  0  0  0  0  0  0  0  0  0
   32.7030   30.4380   33.2900 H   0  0  0  0  0  0  0  0  0  0  0  0
   32.6860   28.5090   35.4350 H   0  0  0  0  0  0  0  0  0  0  0  0
   30.4810   29.1490   35.4170 H   0  0  0  0  0  0  0  0  0  0  0  0
   30.8140   30.5890   34.4560 H   0  0  0  0  0  0  0  0  0  0  0  0
   31.2290   30.5630   37.1640 H   0  0  0  0  0  0  0  0  0  0  0  0
   33.0020   32.0280   38.0190 H   0  0  0  0  0  0  0  0  0  0  0  0
   35.2390   32.8610   37.8410 H   0  0  0  0  0  0  0  0  0  0  0  0
   36.6900   32.2660   35.8800 H   0  0  0  0  0  0  0  0  0  0  0  0
   35.7510   30.8420   34.2130 H   0  0  0  0  0  0  0  0  0  0  0  0
   36.3270   28.8580   32.0510 C   0  0  0  0  0  0  0  0  0  0  0  0
   36.1910   29.8280   31.0790 C   0  0  0  0  0  0  0  0  0  0  0  0
   35.0670   30.6140   31.2040 C   0  0  0  0  0  0  0  0  0  0  0  0
   34.2130   30.3870   32.2310 N   0  0  0  0  0  0  0  0  0  0  0  0
   34.3900   29.4380   33.1450 C   0  0  0  0  0  0  0  0  0  0  0  0
   35.4610   28.7240   32.9830 N   0  0  0  0  0  0  0  0  0  0  0  0
   34.8830   31.6330   30.2100 N   0  0  0  0  0  0  0  0  0  0  0  0
   37.1710   28.1610   32.0770 H   0  0  0  0  0  0  0  0  0  0  0  0
   33.8560   31.7760   30.0170 H   0  0  0  0  0  0  0  0  0  0  0  0
   35.7150   32.1020   29.8000 H   0  0  0  0  0  0  0  0  0  0  0  0
   37.2020   29.9780   30.0150 C   0  0  0  0  0  0  0  0  0  0  0  0
   37.9350   30.7910   30.2280 H   0  0  0  0  0  0  0  0  0  0  0  0
   36.6700   30.2740   29.0930 H   0  0  0  0  0  0  0  0  0  0  0  0
   37.9200   28.7010   29.7280 C   0  0  0  0  0  0  0  0  0  0  0  0
   39.0000   28.8110   29.5070 H   0  0  0  0  0  0  0  0  0  0  0  0
   37.6950   27.9750   30.5360 H   0  0  0  0  0  0  0  0  0  0  0  0
   37.3160   28.1750   28.5610 O   0  0  0  0  0  0  0  0  0  0  0  0
   36.3850   27.9530   28.7540 H   0  0  0  0  0  0  0  0  0  0  0  0
  1 11  1  6  0  0  0
  1  2  1  0  0  0  0
  1 10  1  0  0  0  0
  2  3  1  0  0  0  0
  2 12  1  0  0  0  0
  3 13  1  0  0  0  0
  3  4  1  0  0  0  0
  4 15  1  0  0  0  0
  5  4  1  0  0  0  0
  5  6  1  0  0  0  0
  6 16  1  0  0  0  0
  7  6  2  0  0  0  0
  7 17  1  0  0  0  0
  8  7  1  0  0  0  0
  9  8  2  0  0  0  0
 10  9  1  0  0  0  0
 10  5  2  0  0  0  0
 14  3  1  0  0  0  0
 18  8  1  0  0  0  0
 19  9  1  0  0  0  0
 20 27  1  0  0  0  0
 20 25  1  0  0  0  0
 21 22  1  0  0  0  0
 21 20  2  0  0  0  0
 22 23  2  0  0  0  0
 23 24  1  0  0  0  0
 24  1  1  0  0  0  0
 25 24  2  0  0  0  0
 26 22  1  0  0  0  0
 28 26  1  0  0  0  0
 29 26  1  0  0  0  0
 30 31  1  0  0  0  0
 30 21  1  0  0  0  0
 32 30  1  0  0  0  0
 33 30  1  0  0  0  0
 33 35  1  0  0  0  0
 34 33  1  0  0  0  0
 36 37  1  0  0  0  0
 36 33  1  0  0  0  0
M  END
>  <minimizedAffinity>
-5.33294296

$$$$

 OpenBabel03262520303D

 37 39  0  0  1  0  0  0  0  0999 V2000
   38.5170   24.0230   36.0570 C   0  0  1  0  0  0  0  0  0  0  0  0
   38.1960   23.3260   37.0630 N   0  0  0  0  0  0  0  0  0  0  0  0
   38.2420   23.6200   38.3120 C   0  0  0  0  0  0  0  0  0  0  0  0
   39.2240   22.6820   38.4740 N   0  0  0  0  0  0  0  0  0  0  0  0
   40.0600   22.5920   37.3930 C   0  0  0  0  0  0  0  0  0  0  0  0
   41.2480   21.8270   37.5920 C   0  0  0  0  0  0  0  0  0  0  0  0
   42.1080   21.7120   36.5640 C   0  0  0  0  0  0  0  0  0  0  0  0
   41.9300   22.2750   35.3370 C   0  0  0  0  0  0  0  0  0  0  0  0
   40.7650   22.9870   35.2410 C   0  0  0  0  0  0  0  0  0  0  0  0
   39.7390   23.2460   36.1420 C   0  0  0  0  0  0  0  0  0  0  0  0
   38.8360   25.0560   36.4640 H   0  0  0  0  0  0  0  0  0  0  0  0
   37.5990   22.4760   36.8360 H   0  0  0  0  0  0  0  0  0  0  0  0
   37.3410   23.3800   38.9300 H   0  0  0  0  0  0  0  0  0  0  0  0
   38.5340   24.6430   38.6300 H   0  0  0  0  0  0  0  0  0  0  0  0
   39.2970   22.1120   39.3480 H   0  0  0  0  0  0  0  0  0  0  0  0
   41.4770   21.3440   38.5220 H   0  0  0  0  0  0  0  0  0  0  0  0
   43.0220   21.1280   36.7070 H   0  0  0  0  0  0  0  0  0  0  0  0
   42.5760   22.2190   34.4890 H   0  0  0  0  0  0  0  0  0  0  0  0
   40.5580   23.4700   34.2680 H   0  0  0  0  0  0  0  0  0  0  0  0
   38.7020   25.0860   32.5010 C   0  0  0  0  0  0  0  0  0  0  0  0
   37.9350   24.0660   31.9740 C   0  0  0  0  0  0  0  0  0  0  0  0
   37.4760   23.1550   32.8990 C   0  0  0  0  0  0  0  0  0  0  0  0
   37.7960   23.3220   34.2050 N   0  0  0  0  0  0  0  0  0  0  0  0
   38.5380   24.3240   34.6640 C   0  0  0  0  0  0  0  0  0  0  0  0
   38.9480   25.1540   33.7540 N   0  0  0  0  0  0  0  0  0  0  0  0
   36.6790   22.0740   32.3930 N   0  0  0  0  0  0  0  0  0  0  0  0
   39.1340   25.8810   31.8840 H   0  0  0  0  0  0  0  0  0  0  0  0
   36.8470   21.1990   32.9590 H   0  0  0  0  0  0  0  0  0  0  0  0
   36.0560   22.2370   31.5770 H   0  0  0  0  0  0  0  0  0  0  0  0
   37.6510   24.0050   30.5280 C   0  0  0  0  0  0  0  0  0  0  0  0
   37.1490   24.9250   30.1480 H   0  0  0  0  0  0  0  0  0  0  0  0
   36.9400   23.1750   30.3650 H   0  0  0  0  0  0  0  0  0  0  0  0
   38.8720   23.7150   29.7200 C   0  0  0  0  0  0  0  0  0  0  0  0
   39.8100   23.6300   30.3030 H   0  0  0  0  0  0  0  0  0  0  0  0
   38.6680   22.8450   29.0620 H   0  0  0  0  0  0  0  0  0  0  0  0
   39.0310   24.8220   28.8520 O   0  0  0  0  0  0  0  0  0  0  0  0
   38.2720   24.8590   28.2370 H   0  0  0  0  0  0  0  0  0  0  0  0
  1 10  1  0  0  0  0
  1 11  1  1  0  0  0
  1  2  1  0  0  0  0
  2  3  1  0  0  0  0
  3  4  1  0  0  0  0
  3 14  1  0  0  0  0
  3 13  1  0  0  0  0
  4 15  1  0  0  0  0
  5  6  1  0  0  0  0
  5  4  1  0  0  0  0
  6 16  1  0  0  0  0
  7 17  1  0  0  0  0
  7  6  2  0  0  0  0
  8  7  1  0  0  0  0
  9  8  2  0  0  0  0
  9 10  1  0  0  0  0
 10  5  2  0  0  0  0
 12  2  1  0  0  0  0
 18  8  1  0  0  0  0
 19  9  1  0  0  0  0
 20 25  1  0  0  0  0
 21 20  2  0  0  0  0
 21 22  1  0  0  0  0
 22 23  2  0  0  0  0
 23 24  1  0  0  0  0
 24  1  1  0  0  0  0
 25 24  2  0  0  0  0
 26 22  1  0  0  0  0
 26 28  1  0  0  0  0
 27 20  1  0  0  0  0
 29 26  1  0  0  0  0
 30 21  1  0  0  0  0
 31 30  1  0  0  0  0
 32 30  1  0  0  0  0
 33 34  1  0  0  0  0
 33 30  1  0  0  0  0
 35 33  1  0  0  0  0
 36 33  1  0  0  0  0
 37 36  1  0  0  0  0
M  END
>  <minimizedAffinity>
-5.25607347

$$$$

 OpenBabel03262520303D

 37 39  0  0  1  0  0  0  0  0999 V2000
   34.2010   29.3050   33.1600 C   0  0  1  0  0  0  0  0  0  0  0  0
   33.0380   29.4430   33.6360 N   0  0  0  0  0  0  0  0  0  0  0  0
   32.0830   30.2130   33.2550 C   0  0  0  0  0  0  0  0  0  0  0  0
   32.2110   30.9110   34.4250 N   0  0  0  0  0  0  0  0  0  0  0  0
   33.5080   30.9930   34.8580 C   0  0  0  0  0  0  0  0  0  0  0  0
   33.7480   31.9160   35.9200 C   0  0  0  0  0  0  0  0  0  0  0  0
   35.0060   32.0420   36.3790 C   0  0  0  0  0  0  0  0  0  0  0  0
   36.0780   31.3500   35.9020 C   0  0  0  0  0  0  0  0  0  0  0  0
   35.7510   30.4920   34.8880 C   0  0  0  0  0  0  0  0  0  0  0  0
   34.5510   30.1910   34.2540 C   0  0  0  0  0  0  0  0  0  0  0  0
   34.2610   29.9960   32.2360 H   0  0  0  0  0  0  0  0  0  0  0  0
   32.7340   28.6590   34.2860 H   0  0  0  0  0  0  0  0  0  0  0  0
   31.0640   29.7610   33.1590 H   0  0  0  0  0  0  0  0  0  0  0  0
   32.2010   30.8320   32.3420 H   0  0  0  0  0  0  0  0  0  0  0  0
   31.3820   31.3250   34.9080 H   0  0  0  0  0  0  0  0  0  0  0  0
   32.9680   32.5050   36.3620 H   0  0  0  0  0  0  0  0  0  0  0  0
   35.2000   32.7460   37.1930 H   0  0  0  0  0  0  0  0  0  0  0  0
   37.0940   31.4090   36.2260 H   0  0  0  0  0  0  0  0  0  0  0  0
   36.5770   29.8970   34.4570 H   0  0  0  0  0  0  0  0  0  0  0  0
   37.4950   27.5860   33.0760 C   0  0  0  0  0  0  0  0  0  0  0  0
   37.6470   27.5660   31.7040 C   0  0  0  0  0  0  0  0  0  0  0  0
   36.6040   28.1280   31.0020 C   0  0  0  0  0  0  0  0  0  0  0  0
   35.5480   28.6380   31.6820 N   0  0  0  0  0  0  0  0  0  0  0  0
   35.4500   28.6340   33.0080 C   0  0  0  0  0  0  0  0  0  0  0  0
   36.4560   28.0930   33.6230 N   0  0  0  0  0  0  0  0  0  0  0  0
   36.7180   28.1240   29.5710 N   0  0  0  0  0  0  0  0  0  0  0  0
   38.2440   27.1740   33.7590 H   0  0  0  0  0  0  0  0  0  0  0  0
   35.7660   28.0160   29.1280 H   0  0  0  0  0  0  0  0  0  0  0  0
   37.6560   28.2200   29.1340 H   0  0  0  0  0  0  0  0  0  0  0  0
   38.8540   26.9870   31.0860 C   0  0  0  0  0  0  0  0  0  0  0  0
   39.7970   27.3460   31.5610 H   0  0  0  0  0  0  0  0  0  0  0  0
   38.8870   27.3310   30.0370 H   0  0  0  0  0  0  0  0  0  0  0  0
   38.8240   25.4950   31.0680 C   0  0  0  0  0  0  0  0  0  0  0  0
   39.8050   25.0080   30.8980 H   0  0  0  0  0  0  0  0  0  0  0  0
   38.2920   25.1370   31.9730 H   0  0  0  0  0  0  0  0  0  0  0  0
   37.9980   25.1410   29.9740 O   0  0  0  0  0  0  0  0  0  0  0  0
   37.0890   25.4520   30.1440 H   0  0  0  0  0  0  0  0  0  0  0  0
  1 11  1  6  0  0  0
  1  2  1  0  0  0  0
  1 10  1  0  0  0  0
  2 12  1  0  0  0  0
  3  2  1  0  0  0  0
  3  4  1  0  0  0  0
  4  5  1  0  0  0  0
  4 15  1  0  0  0  0
  5  6  1  0  0  0  0
  6 16  1  0  0  0  0
  6  7  2  0  0  0  0
  7 17  1  0  0  0  0
  8 18  1  0  0  0  0
  8  7  1  0  0  0  0
  9  8  2  0  0  0  0
 10  5  2  0  0  0  0
 10  9  1  0  0  0  0
 13  3  1  0  0  0  0
 14  3  1  0  0  0  0
 19  9  1  0  0  0  0
 20 25  1  0  0  0  0
 20 27  1  0  0  0  0
 21 20  2  0  0  0  0
 22 23  2  0  0  0  0
 22 21  1  0  0  0  0
 23 24  1  0  0  0  0
 24  1  1  0  0  0  0
 24 25  2  0  0  0  0
 26 22  1  0  0  0  0
 28 26  1  0  0  0  0
 29 26  1  0  0  0  0
 30 31  1  0  0  0  0
 30 21  1  0  0  0  0
 32 30  1  0  0  0  0
 33 30  1  0  0  0  0
 33 35  1  0  0  0  0
 34 33  1  0  0  0  0
 36 37  1  0  0  0  0
 36 33  1  0  0  0  0
M  END
>  <minimizedAffinity>
-5.19022274

$$$$

 OpenBabel03262520303D

 37 39  0  0  1  0  0  0  0  0999 V2000
   41.0500   23.1550   35.3700 C   0  0  1  0  0  0  0  0  0  0  0  0
   41.5000   22.6970   36.4600 N   0  0  0  0  0  0  0  0  0  0  0  0
   41.4720   21.4970   36.9180 C   0  0  0  0  0  0  0  0  0  0  0  0
   40.6250   21.9190   37.9060 N   0  0  0  0  0  0  0  0  0  0  0  0
   39.7610   22.8950   37.4880 C   0  0  0  0  0  0  0  0  0  0  0  0
   38.6890   23.1960   38.3810 C   0  0  0  0  0  0  0  0  0  0  0  0
   37.8060   24.1430   38.0160 C   0  0  0  0  0  0  0  0  0  0  0  0
   37.8570   24.8420   36.8490 C   0  0  0  0  0  0  0  0  0  0  0  0
   38.9170   24.4860   36.0600 C   0  0  0  0  0  0  0  0  0  0  0  0
   39.9410   23.5580   36.2140 C   0  0  0  0  0  0  0  0  0  0  0  0
   40.6200   22.2530   34.7890 H   0  0  0  0  0  0  0  0  0  0  0  0
   42.1890   23.3370   36.9540 H   0  0  0  0  0  0  0  0  0  0  0  0
   42.4220   21.0860   37.3420 H   0  0  0  0  0  0  0  0  0  0  0  0
   41.0660   20.6740   36.2930 H   0  0  0  0  0  0  0  0  0  0  0  0
   40.6630   21.5120   38.8690 H   0  0  0  0  0  0  0  0  0  0  0  0
   38.5650   22.7000   39.3240 H   0  0  0  0  0  0  0  0  0  0  0  0
   36.9810   24.3810   38.6940 H   0  0  0  0  0  0  0  0  0  0  0  0
   37.1870   25.6010   36.5080 H   0  0  0  0  0  0  0  0  0  0  0  0
   39.0180   25.0190   35.0960 H   0  0  0  0  0  0  0  0  0  0  0  0
   40.5520   25.5330   32.5580 C   0  0  0  0  0  0  0  0  0  0  0  0
   41.5020   26.4580   32.9420 C   0  0  0  0  0  0  0  0  0  0  0  0
   42.1670   26.1500   34.1080 C   0  0  0  0  0  0  0  0  0  0  0  0
   41.8530   25.0070   34.7650 N   0  0  0  0  0  0  0  0  0  0  0  0
   40.9290   24.1450   34.3520 C   0  0  0  0  0  0  0  0  0  0  0  0
   40.3300   24.4810   33.2500 N   0  0  0  0  0  0  0  0  0  0  0  0
   43.1590   27.0890   34.5480 N   0  0  0  0  0  0  0  0  0  0  0  0
   39.9470   25.6470   31.6530 H   0  0  0  0  0  0  0  0  0  0  0  0
   43.1940   27.1190   35.6020 H   0  0  0  0  0  0  0  0  0  0  0  0
   43.7120   27.6150   33.8420 H   0  0  0  0  0  0  0  0  0  0  0  0
   41.7540   27.6630   32.1290 C   0  0  0  0  0  0  0  0  0  0  0  0
   42.8390   27.8300   31.9320 H   0  0  0  0  0  0  0  0  0  0  0  0
   41.4070   28.5340   32.7120 H   0  0  0  0  0  0  0  0  0  0  0  0
   40.9950   27.6520   30.8440 C   0  0  0  0  0  0  0  0  0  0  0  0
   41.1870   26.7760   30.1940 H   0  0  0  0  0  0  0  0  0  0  0  0
   39.9220   27.8270   31.0620 H   0  0  0  0  0  0  0  0  0  0  0  0
   41.4320   28.7930   30.1300 O   0  0  0  0  0  0  0  0  0  0  0  0
   41.1720   29.5970   30.6190 H   0  0  0  0  0  0  0  0  0  0  0  0
  1 11  1  6  0  0  0
  1 10  1  0  0  0  0
  1  2  1  0  0  0  0
  2  3  1  0  0  0  0
  2 12  1  0  0  0  0
  3 13  1  0  0  0  0
  3  4  1  0  0  0  0
  4 15  1  0  0  0  0
  5  4  1  0  0  0  0
  5  6  1  0  0  0  0
  6 16  1  0  0  0  0
  7  6  2  0  0  0  0
  7 17  1  0  0  0  0
  8  7  1  0  0  0  0
  9 10  1  0  0  0  0
  9  8  2  0  0  0  0
 10  5  2  0  0  0  0
 14  3  1  0  0  0  0
 18  8  1  0  0  0  0
 19  9  1  0  0  0  0
 20 21  2  0  0  0  0
 20 25  1  0  0  0  0
 21 22  1  0  0  0  0
 22 26  1  0  0  0  0
 22 23  2  0  0  0  0
 24 23  1  0  0  0  0
 24  1  1  0  0  0  0
 25 24  2  0  0  0  0
 26 28  1  0  0  0  0
 27 20  1  0  0  0  0
 29 26  1  0  0  0  0
 30 32  1  0  0  0  0
 30 21  1  0  0  0  0
 31 30  1  0  0  0  0
 33 35  1  0  0  0  0
 33 30  1  0  0  0  0
 34 33  1  0  0  0  0
 36 37  1  0  0  0  0
 36 33  1  0  0  0  0
M  END
>  <minimizedAffinity>
-5.17229557

$$$$

 OpenBabel03262520303D

 37 39  0  0  1  0  0  0  0  0999 V2000
   39.4260   24.9360   34.6670 C   0  0  1  0  0  0  0  0  0  0  0  0
   40.5140   24.3220   34.8660 N   0  0  0  0  0  0  0  0  0  0  0  0
   40.8790   23.1540   34.4750 C   0  0  0  0  0  0  0  0  0  0  0  0
   40.8690   22.7410   35.7790 N   0  0  0  0  0  0  0  0  0  0  0  0
   39.8800   23.3310   36.5190 C   0  0  0  0  0  0  0  0  0  0  0  0
   39.6480   22.7610   37.8070 C   0  0  0  0  0  0  0  0  0  0  0  0
   38.6820   23.2980   38.5740 C   0  0  0  0  0  0  0  0  0  0  0  0
   37.9010   24.3520   38.2110 C   0  0  0  0  0  0  0  0  0  0  0  0
   38.1960   24.8310   36.9630 C   0  0  0  0  0  0  0  0  0  0  0  0
   39.1270   24.4530   36.0030 C   0  0  0  0  0  0  0  0  0  0  0  0
   38.7830   24.2530   33.9930 H   0  0  0  0  0  0  0  0  0  0  0  0
   41.3120   24.9390   35.2010 H   0  0  0  0  0  0  0  0  0  0  0  0
   41.8970   23.0580   34.0230 H   0  0  0  0  0  0  0  0  0  0  0  0
   40.2190   22.5620   33.8060 H   0  0  0  0  0  0  0  0  0  0  0  0
   41.5620   22.0430   36.1360 H   0  0  0  0  0  0  0  0  0  0  0  0
   40.2120   21.9300   38.1820 H   0  0  0  0  0  0  0  0  0  0  0  0
   38.4960   22.8680   39.5630 H   0  0  0  0  0  0  0  0  0  0  0  0
   37.1220   24.8180   38.7750 H   0  0  0  0  0  0  0  0  0  0  0  0
   37.5980   25.6910   36.6080 H   0  0  0  0  0  0  0  0  0  0  0  0
   37.3510   28.0070   34.9370 C   0  0  0  0  0  0  0  0  0  0  0  0
   36.6390   27.8410   33.7650 C   0  0  0  0  0  0  0  0  0  0  0  0
   36.9750   26.7160   33.0430 C   0  0  0  0  0  0  0  0  0  0  0  0
   37.9390   25.8900   33.5190 N   0  0  0  0  0  0  0  0  0  0  0  0
   38.5950   26.0940   34.6560 C   0  0  0  0  0  0  0  0  0  0  0  0
   38.2440   27.1670   35.2980 N   0  0  0  0  0  0  0  0  0  0  0  0
   36.2630   26.5070   31.8150 N   0  0  0  0  0  0  0  0  0  0  0  0
   37.1910   28.8550   35.6100 H   0  0  0  0  0  0  0  0  0  0  0  0
   36.8900   26.0450   31.1030 H   0  0  0  0  0  0  0  0  0  0  0  0
   35.2710   26.8060   31.7430 H   0  0  0  0  0  0  0  0  0  0  0  0
   35.6050   28.8130   33.3650 C   0  0  0  0  0  0  0  0  0  0  0  0
   34.6770   28.3240   32.9870 H   0  0  0  0  0  0  0  0  0  0  0  0
   36.0110   29.4000   32.5210 H   0  0  0  0  0  0  0  0  0  0  0  0
   35.2720   29.7720   34.4590 C   0  0  0  0  0  0  0  0  0  0  0  0
   35.8600   29.6450   35.3890 H   0  0  0  0  0  0  0  0  0  0  0  0
   35.2920   30.8030   34.0490 H   0  0  0  0  0  0  0  0  0  0  0  0
   33.9200   29.5190   34.7930 O   0  0  0  0  0  0  0  0  0  0  0  0
   33.3540   29.7360   34.0270 H   0  0  0  0  0  0  0  0  0  0  0  0
  1 11  1  6  0  0  0
  1  2  1  0  0  0  0
  1 10  1  0  0  0  0
  2 12  1  0  0  0  0
  3  2  1  0  0  0  0
  3  4  1  0  0  0  0
  4 15  1  0  0  0  0
  4  5  1  0  0  0  0
  5  6  1  0  0  0  0
  6 16  1  0  0  0  0
  6  7  2  0  0  0  0
  7 17  1  0  0  0  0
  8  7  1  0  0  0  0
  8 18  1  0  0  0  0
  9  8  2  0  0  0  0
 10  5  2  0  0  0  0
 10  9  1  0  0  0  0
 13  3  1  0  0  0  0
 14  3  1  0  0  0  0
 19  9  1  0  0  0  0
 20 25  1  0  0  0  0
 20 27  1  0  0  0  0
 21 20  2  0  0  0  0
 22 23  2  0  0  0  0
 22 21  1  0  0  0  0
 23 24  1  0  0  0  0
 24  1  1  0  0  0  0
 24 25  2  0  0  0  0
 26 22  1  0  0  0  0
 28 26  1  0  0  0  0
 29 26  1  0  0  0  0
 30 21  1  0  0  0  0
 30 33  1  0  0  0  0
 31 30  1  0  0  0  0
 32 30  1  0  0  0  0
 33 36  1  0  0  0  0
 33 34  1  0  0  0  0
 35 33  1  0  0  0  0
 37 36  1  0  0  0  0
M  END
>  <minimizedAffinity>
-5.14048243

$$$$
