
 OpenBabel03272510253D

 38 41  0  0  1  0  0  0  0  0999 V2000
   36.1570   30.1770   46.8120 C   0  0  0  0  0  0  0  0  0  0  0  0
   37.0390   30.7340   47.7110 C   0  0  0  0  0  0  0  0  0  0  0  0
   38.0360   31.6240   47.2910 C   0  0  0  0  0  0  0  0  0  0  0  0
   38.0820   31.9080   45.9360 C   0  0  0  0  0  0  0  0  0  0  0  0
   38.9510   32.7400   45.2900 N   0  0  0  0  0  0  0  0  0  0  0  0
   38.6120   32.7010   43.9930 C   0  0  0  0  0  0  0  0  0  0  0  0
   37.5890   31.8960   43.8080 N   0  0  0  0  0  0  0  0  0  0  0  0
   37.2170   31.3700   45.0040 C   0  0  0  0  0  0  0  0  0  0  0  0
   36.2330   30.4850   45.4590 C   0  0  0  0  0  0  0  0  0  0  0  0
   35.3760   29.4930   47.0790 H   0  0  0  0  0  0  0  0  0  0  0  0
   38.7280   32.0590   48.0050 H   0  0  0  0  0  0  0  0  0  0  0  0
   39.7310   33.3000   45.7230 H   0  0  0  0  0  0  0  0  0  0  0  0
   35.5600   30.0690   44.7250 H   0  0  0  0  0  0  0  0  0  0  0  0
   37.5680   30.2430   51.4050 C   0  0  0  0  0  0  0  0  0  0  0  0
   37.8250   30.6490   50.1040 C   0  0  0  0  0  0  0  0  0  0  0  0
   36.9110   30.3740   49.1130 C   0  0  0  0  0  0  0  0  0  0  0  0
   35.7780   29.7010   49.4770 N   0  0  0  0  0  0  0  0  0  0  0  0
   35.5290   29.3060   50.7400 C   0  0  0  0  0  0  0  0  0  0  0  0
   36.4200   29.5780   51.6900 N   0  0  0  0  0  0  0  0  0  0  0  0
   38.2830   30.4560   52.1890 H   0  0  0  0  0  0  0  0  0  0  0  0
   38.7130   31.1770   49.8170 H   0  0  0  0  0  0  0  0  0  0  0  0
   34.5830   28.7790   50.8830 H   0  0  0  0  0  0  0  0  0  0  0  0
   39.3050   33.4510   43.0320 O   0  0  0  0  0  0  0  0  0  0  0  0
   39.1470   31.7510   41.5120 N   0  0  0  0  0  0  0  0  0  0  0  0
   38.9490   33.2090   41.6760 C   0  0  1  0  0  0  0  0  0  0  0  0
   37.5470   33.5150   41.4100 C   0  0  0  0  0  0  0  0  0  0  0  0
   37.2820   33.2360   40.0560 O   0  0  0  0  0  0  0  0  0  0  0  0
   37.5620   31.9600   39.6610 C   0  0  0  0  0  0  0  0  0  0  0  0
   38.9280   31.4970   40.1060 C   0  0  1  0  0  0  0  0  0  0  0  0
   40.1210   31.4910   41.7370 H   0  0  0  0  0  0  0  0  0  0  0  0
   39.6000   33.7440   40.9630 H   0  0  0  0  0  0  0  0  0  0  0  0
   36.7210   33.0900   41.9110 H   0  0  0  0  0  0  0  0  0  0  0  0
   37.4230   34.6390   41.4710 H   0  0  0  0  0  0  0  0  0  0  0  0
   37.5680   31.9400   38.5630 H   0  0  0  0  0  0  0  0  0  0  0  0
   36.8000   31.2620   40.0880 H   0  0  0  0  0  0  0  0  0  0  0  0
   38.9680   30.3920   39.9710 H   0  0  0  0  0  0  0  0  0  0  0  0
   39.9420   32.0450   39.3180 O   0  0  0  0  0  0  0  0  0  0  0  0
   40.7870   32.1240   39.8380 H   0  0  0  0  0  0  0  0  0  0  0  0
  1 10  1  0  0  0  0
  1  2  1  0  0  0  0
  2 16  1  0  0  0  0
  3  2  2  0  0  0  0
  3 11  1  0  0  0  0
  4  3  1  0  0  0  0
  5 12  1  0  0  0  0
  5  4  1  0  0  0  0
  6  5  1  0  0  0  0
  7  6  2  0  0  0  0
  7  8  1  0  0  0  0
  8  9  1  0  0  0  0
  8  4  2  0  0  0  0
  9  1  2  0  0  0  0
 13  9  1  0  0  0  0
 14 19  1  0  0  0  0
 14 20  1  0  0  0  0
 15 14  2  0  0  0  0
 16 17  2  0  0  0  0
 16 15  1  0  0  0  0
 17 18  1  0  0  0  0
 18 22  1  0  0  0  0
 18 19  2  0  0  0  0
 21 15  1  0  0  0  0
 23  6  1  0  0  0  0
 24 25  1  0  0  0  0
 24 30  1  0  0  0  0
 25 31  1  6  0  0  0
 25 23  1  0  0  0  0
 26 33  1  0  0  0  0
 26 25  1  0  0  0  0
 26 32  1  0  0  0  0
 27 26  1  0  0  0  0
 28 27  1  0  0  0  0
 28 35  1  0  0  0  0
 28 29  1  0  0  0  0
 29 36  1  6  0  0  0
 29 24  1  0  0  0  0
 34 28  1  0  0  0  0
 37 38  1  0  0  0  0
 37 29  1  0  0  0  0
M  END
>  <minimizedAffinity>
-5.5293169

>  <minimizedRMSD>
0.286354512

$$$$
