
 OpenBabel03272507253D

 26 27  0  0  1  0  0  0  0  0999 V2000
   37.0050   31.4950   50.0390 C   0  0  0  0  0  0  0  0  0  0  0  0
   38.0400   31.9800   49.2050 C   0  0  0  0  0  0  0  0  0  0  0  0
   37.9500   31.7180   47.8310 C   0  0  0  0  0  0  0  0  0  0  0  0
   36.8900   31.0220   47.3760 N   0  0  0  0  0  0  0  0  0  0  0  0
   35.9090   30.5660   48.1970 C   0  0  0  0  0  0  0  0  0  0  0  0
   35.9770   30.8070   49.5180 N   0  0  0  0  0  0  0  0  0  0  0  0
   38.9420   32.1670   46.9490 N   0  0  0  0  0  0  0  0  0  0  0  0
   39.7660   33.3640   47.1610 C   0  0  0  0  0  0  0  0  0  0  0  0
   40.5630   33.5500   45.8970 C   0  0  0  0  0  0  0  0  0  0  0  0
   39.7230   32.8220   44.9080 C   0  0  0  0  0  0  0  0  0  0  0  0
   39.3680   31.5910   45.7100 C   0  0  2  0  0  0  0  0  0  0  0  0
   37.0860   31.7040   51.0970 H   0  0  0  0  0  0  0  0  0  0  0  0
   38.8750   32.5340   49.5970 H   0  0  0  0  0  0  0  0  0  0  0  0
   35.0820   30.0140   47.7780 H   0  0  0  0  0  0  0  0  0  0  0  0
   39.1950   34.2300   47.4890 H   0  0  0  0  0  0  0  0  0  0  0  0
   40.5070   33.0710   47.9510 H   0  0  0  0  0  0  0  0  0  0  0  0
   41.5920   33.1880   45.9400 H   0  0  0  0  0  0  0  0  0  0  0  0
   40.4890   34.6490   45.6500 H   0  0  0  0  0  0  0  0  0  0  0  0
   40.2700   32.5420   43.9800 H   0  0  0  0  0  0  0  0  0  0  0  0
   38.8250   33.3900   44.6150 H   0  0  0  0  0  0  0  0  0  0  0  0
   38.4390   30.6950   45.0010 C   0  0  0  0  0  0  0  0  0  0  0  0
   37.2790   31.4270   44.7600 F   0  0  0  0  0  0  0  0  0  0  0  0
   38.0510   29.5760   45.6780 F   0  0  0  0  0  0  0  0  0  0  0  0
   38.9820   30.4460   43.7550 F   0  0  0  0  0  0  0  0  0  0  0  0
   40.5800   30.9280   46.0090 O   0  0  0  0  0  0  0  0  0  0  0  0
   41.2770   31.3550   45.4720 H   0  0  0  0  0  0  0  0  0  0  0  0
  1 12  1  0  0  0  0
  2 13  1  0  0  0  0
  2  1  2  0  0  0  0
  3  2  1  0  0  0  0
  4  3  2  0  0  0  0
  4  5  1  0  0  0  0
  5  6  2  0  0  0  0
  6  1  1  0  0  0  0
  7  8  1  0  0  0  0
  7  3  1  0  0  0  0
  8 15  1  0  0  0  0
  8 16  1  0  0  0  0
  9 17  1  0  0  0  0
  9  8  1  0  0  0  0
 10 11  1  0  0  0  0
 10  9  1  0  0  0  0
 11 25  1  1  0  0  0
 11  7  1  0  0  0  0
 14  5  1  0  0  0  0
 18  9  1  0  0  0  0
 19 10  1  0  0  0  0
 20 10  1  0  0  0  0
 21 23  1  0  0  0  0
 21 11  1  0  0  0  0
 22 21  1  0  0  0  0
 24 21  1  0  0  0  0
 26 25  1  0  0  0  0
M  END
>  <minimizedAffinity>
-4.68720388

>  <minimizedRMSD>
2.18798399

$$$$
