
 OpenBabel03272510293D

 21 22  0  0  0  0  0  0  0  0999 V2000
   37.4280   31.3640   49.2440 C   0  0  0  0  0  0  0  0  0  0  0  0
   37.8180   32.6590   49.6170 C   0  0  0  0  0  0  0  0  0  0  0  0
   38.6720   33.3060   48.7430 C   0  0  0  0  0  0  0  0  0  0  0  0
   39.0820   32.6720   47.5930 N   0  0  0  0  0  0  0  0  0  0  0  0
   38.6730   31.4130   47.2750 C   0  0  0  0  0  0  0  0  0  0  0  0
   37.8250   30.7460   48.1280 N   0  0  0  0  0  0  0  0  0  0  0  0
   37.4710   33.1070   50.5230 H   0  0  0  0  0  0  0  0  0  0  0  0
   39.0210   34.3090   48.9590 H   0  0  0  0  0  0  0  0  0  0  0  0
   36.4680   30.6470   50.1410 C   0  0  0  0  0  0  0  0  0  0  0  0
   36.3650   29.2080   50.1880 C   0  0  0  0  0  0  0  0  0  0  0  0
   37.1530   29.8920   51.2840 C   0  0  0  0  0  0  0  0  0  0  0  0
   35.6460   31.3390   50.4460 H   0  0  0  0  0  0  0  0  0  0  0  0
   35.3560   28.7930   50.4650 H   0  0  0  0  0  0  0  0  0  0  0  0
   36.9430   28.5400   49.5270 H   0  0  0  0  0  0  0  0  0  0  0  0
   38.2470   29.7920   51.2630 H   0  0  0  0  0  0  0  0  0  0  0  0
   36.6120   29.9840   52.2440 H   0  0  0  0  0  0  0  0  0  0  0  0
   39.0820   30.7340   46.0510 C   0  0  0  0  0  0  0  0  0  0  0  0
   39.0950   29.6300   46.1720 H   0  0  0  0  0  0  0  0  0  0  0  0
   40.0920   30.9970   45.6870 H   0  0  0  0  0  0  0  0  0  0  0  0
   38.1320   31.0080   45.0540 O   0  0  0  0  0  0  0  0  0  0  0  0
   38.5960   30.7830   44.1910 H   0  0  0  0  0  0  0  0  0  0  0  0
  1  2  1  0  0  0  0
  1  9  1  0  0  0  0
  2  7  1  0  0  0  0
  3  8  1  0  0  0  0
  3  2  2  0  0  0  0
  4  3  1  0  0  0  0
  5  4  2  0  0  0  0
  5  6  1  0  0  0  0
  6  1  2  0  0  0  0
  9 10  1  0  0  0  0
  9 12  1  0  0  0  0
  9 11  1  0  0  0  0
 10 13  1  0  0  0  0
 10 11  1  0  0  0  0
 11 16  1  0  0  0  0
 14 10  1  0  0  0  0
 15 11  1  0  0  0  0
 17 18  1  0  0  0  0
 17  5  1  0  0  0  0
 19 17  1  0  0  0  0
 20 17  1  0  0  0  0
 21 20  1  0  0  0  0
M  END
>  <minimizedAffinity>
-4.29543209

>  <minimizedRMSD>
0.121119551

$$$$
