
 OpenBabel03262523213D

 34 36  0  0  1  0  0  0  0  0999 V2000
   31.2480   28.9260   33.5950 C   0  0  0  0  0  0  0  0  0  0  0  0
   30.7670   28.0520   34.5630 C   0  0  0  0  0  0  0  0  0  0  0  0
   31.3590   28.0650   35.8150 C   0  0  0  0  0  0  0  0  0  0  0  0
   32.3800   28.9260   36.0510 N   0  0  0  0  0  0  0  0  0  0  0  0
   32.8380   29.7500   35.1470 C   0  0  0  0  0  0  0  0  0  0  0  0
   32.2410   29.6930   33.9860 N   0  0  0  0  0  0  0  0  0  0  0  0
   33.8950   30.6360   35.4310 N   0  0  0  0  0  0  0  0  0  0  0  0
   33.8210   31.6280   36.5070 C   0  0  0  0  0  0  0  0  0  0  0  0
   35.1510   32.2420   36.5640 C   0  0  0  0  0  0  0  0  0  0  0  0
   36.0460   31.2990   35.7570 C   0  0  0  0  0  0  0  0  0  0  0  0
   35.1750   30.7760   34.7190 C   0  0  1  0  0  0  0  0  0  0  0  0
   30.7810   28.9010   32.6380 H   0  0  0  0  0  0  0  0  0  0  0  0
   29.9730   27.3500   34.4510 H   0  0  0  0  0  0  0  0  0  0  0  0
   31.0850   27.4360   36.6720 H   0  0  0  0  0  0  0  0  0  0  0  0
   33.0670   32.3750   36.1820 H   0  0  0  0  0  0  0  0  0  0  0  0
   33.4500   31.1830   37.4410 H   0  0  0  0  0  0  0  0  0  0  0  0
   35.1310   33.2760   36.1360 H   0  0  0  0  0  0  0  0  0  0  0  0
   35.4740   32.3830   37.6040 H   0  0  0  0  0  0  0  0  0  0  0  0
   36.1230   30.5350   36.5490 H   0  0  0  0  0  0  0  0  0  0  0  0
   36.8310   31.9690   35.5030 H   0  0  0  0  0  0  0  0  0  0  0  0
   34.8320   31.5520   33.9650 H   0  0  0  0  0  0  0  0  0  0  0  0
   35.6240   29.5330   32.5610 C   0  0  0  0  0  0  0  0  0  0  0  0
   35.6360   29.6470   33.9640 C   0  0  0  0  0  0  0  0  0  0  0  0
   36.2640   28.5600   34.5570 C   0  0  0  0  0  0  0  0  0  0  0  0
   36.8250   27.4890   33.8810 C   0  0  0  0  0  0  0  0  0  0  0  0
   36.7660   27.4650   32.4770 C   0  0  0  0  0  0  0  0  0  0  0  0
   36.1540   28.5040   31.8000 C   0  0  0  0  0  0  0  0  0  0  0  0
   36.3540   28.3210   35.5880 H   0  0  0  0  0  0  0  0  0  0  0  0
   37.3210   26.6300   34.2610 H   0  0  0  0  0  0  0  0  0  0  0  0
   37.1760   26.6740   31.8630 H   0  0  0  0  0  0  0  0  0  0  0  0
   34.3380   31.3080   31.2200 N   0  0  0  0  0  0  0  0  0  0  0  0
   34.8990   30.5330   31.8190 C   0  0  0  0  0  0  0  0  0  0  0  0
   36.0920   28.4860   30.4190 O   0  0  0  0  0  0  0  0  0  0  0  0
   36.8710   28.2110   29.8250 H   0  0  0  0  0  0  0  0  0  0  0  0
  1  6  2  0  0  0  0
  1  2  1  0  0  0  0
  2  3  2  0  0  0  0
  3  4  1  0  0  0  0
  3 14  1  0  0  0  0
  5  7  1  0  0  0  0
  5  4  2  0  0  0  0
  6  5  1  0  0  0  0
  7  8  1  0  0  0  0
  8  9  1  0  0  0  0
  8 16  1  0  0  0  0
  9 18  1  0  0  0  0
 10 19  1  0  0  0  0
 10  9  1  0  0  0  0
 11 21  1  6  0  0  0
 11  7  1  0  0  0  0
 11 10  1  0  0  0  0
 12  1  1  0  0  0  0
 13  2  1  0  0  0  0
 15  8  1  0  0  0  0
 17  9  1  0  0  0  0
 20 10  1  0  0  0  0
 22 23  1  0  0  0  0
 23 24  2  0  0  0  0
 23 11  1  0  0  0  0
 24 28  1  0  0  0  0
 25 29  1  0  0  0  0
 25 24  1  0  0  0  0
 26 25  2  0  0  0  0
 27 26  1  0  0  0  0
 27 22  2  0  0  0  0
 30 26  1  0  0  0  0
 31 32  3  0  0  0  0
 32 22  1  0  0  0  0
 33 27  1  0  0  0  0
 34 33  1  0  0  0  0
M  END
>  <minimizedAffinity>
-5.51106071

$$$$

 OpenBabel03262523213D

 34 36  0  0  1  0  0  0  0  0999 V2000
   38.2420   21.4850   32.5880 C   0  0  0  0  0  0  0  0  0  0  0  0
   36.9160   21.6400   32.2000 C   0  0  0  0  0  0  0  0  0  0  0  0
   36.3860   22.9200   32.1630 C   0  0  0  0  0  0  0  0  0  0  0  0
   37.1740   23.9680   32.5060 N   0  0  0  0  0  0  0  0  0  0  0  0
   38.4210   23.8300   32.8720 C   0  0  0  0  0  0  0  0  0  0  0  0
   38.8650   22.6010   32.8870 N   0  0  0  0  0  0  0  0  0  0  0  0
   39.2120   24.9440   33.2130 N   0  0  0  0  0  0  0  0  0  0  0  0
   39.4560   26.0490   32.2820 C   0  0  0  0  0  0  0  0  0  0  0  0
   40.1940   27.0540   33.0530 C   0  0  0  0  0  0  0  0  0  0  0  0
   40.0080   26.6320   34.5120 C   0  0  0  0  0  0  0  0  0  0  0  0
   39.9500   25.1810   34.4640 C   0  0  1  0  0  0  0  0  0  0  0  0
   38.6320   20.4940   32.6100 H   0  0  0  0  0  0  0  0  0  0  0  0
   36.2380   20.8670   31.9180 H   0  0  0  0  0  0  0  0  0  0  0  0
   35.3620   23.1920   31.8770 H   0  0  0  0  0  0  0  0  0  0  0  0
   40.0990   25.6340   31.4780 H   0  0  0  0  0  0  0  0  0  0  0  0
   38.5260   26.3880   31.8050 H   0  0  0  0  0  0  0  0  0  0  0  0
   41.2720   27.0750   32.7520 H   0  0  0  0  0  0  0  0  0  0  0  0
   39.8280   28.0650   32.8300 H   0  0  0  0  0  0  0  0  0  0  0  0
   38.9750   27.0090   34.5930 H   0  0  0  0  0  0  0  0  0  0  0  0
   40.8500   27.1150   34.9470 H   0  0  0  0  0  0  0  0  0  0  0  0
   40.9220   24.6880   34.1490 H   0  0  0  0  0  0  0  0  0  0  0  0
   40.1480   23.4050   36.2550 C   0  0  0  0  0  0  0  0  0  0  0  0
   39.4990   24.4900   35.6360 C   0  0  0  0  0  0  0  0  0  0  0  0
   38.3960   24.9070   36.3690 C   0  0  0  0  0  0  0  0  0  0  0  0
   37.9690   24.3510   37.5650 C   0  0  0  0  0  0  0  0  0  0  0  0
   38.6850   23.2700   38.1060 C   0  0  0  0  0  0  0  0  0  0  0  0
   39.7960   22.7840   37.4410 C   0  0  0  0  0  0  0  0  0  0  0  0
   37.6660   25.6380   36.1210 H   0  0  0  0  0  0  0  0  0  0  0  0
   37.1440   24.6150   38.1800 H   0  0  0  0  0  0  0  0  0  0  0  0
   38.4300   22.7720   39.0320 H   0  0  0  0  0  0  0  0  0  0  0  0
   42.0970   22.2960   34.9990 N   0  0  0  0  0  0  0  0  0  0  0  0
   41.2410   22.7920   35.5430 C   0  0  0  0  0  0  0  0  0  0  0  0
   40.5040   21.7200   37.9680 O   0  0  0  0  0  0  0  0  0  0  0  0
   40.7320   21.6300   38.9560 H   0  0  0  0  0  0  0  0  0  0  0  0
  1 12  1  0  0  0  0
  1  6  1  0  0  0  0
  2  1  2  0  0  0  0
  3  2  1  0  0  0  0
  3  4  2  0  0  0  0
  4  5  1  0  0  0  0
  5  6  2  0  0  0  0
  5  7  1  0  0  0  0
  7 11  1  0  0  0  0
  8  9  1  0  0  0  0
  8  7  1  0  0  0  0
  9 10  1  0  0  0  0
 10 19  1  0  0  0  0
 10 20  1  0  0  0  0
 11 21  1  6  0  0  0
 11 10  1  0  0  0  0
 11 23  1  0  0  0  0
 13  2  1  0  0  0  0
 14  3  1  0  0  0  0
 15  8  1  0  0  0  0
 16  8  1  0  0  0  0
 17  9  1  0  0  0  0
 18  9  1  0  0  0  0
 22 27  1  0  0  0  0
 23 22  2  0  0  0  0
 23 24  1  0  0  0  0
 24 25  2  0  0  0  0
 25 26  1  0  0  0  0
 25 29  1  0  0  0  0
 26 30  1  0  0  0  0
 27 33  1  0  0  0  0
 27 26  2  0  0  0  0
 28 24  1  0  0  0  0
 31 32  3  0  0  0  0
 32 22  1  0  0  0  0
 33 34  1  0  0  0  0
M  END
>  <minimizedAffinity>
-5.36739922

$$$$

 OpenBabel03262523213D

 34 36  0  0  1  0  0  0  0  0999 V2000
   35.7490   29.4990   34.6420 C   0  0  0  0  0  0  0  0  0  0  0  0
   36.1820   28.6200   33.6550 C   0  0  0  0  0  0  0  0  0  0  0  0
   35.3620   28.4050   32.5590 C   0  0  0  0  0  0  0  0  0  0  0  0
   34.1730   29.0540   32.4890 N   0  0  0  0  0  0  0  0  0  0  0  0
   33.7600   29.8810   33.4120 C   0  0  0  0  0  0  0  0  0  0  0  0
   34.5750   30.0450   34.4200 N   0  0  0  0  0  0  0  0  0  0  0  0
   32.5230   30.5440   33.3010 N   0  0  0  0  0  0  0  0  0  0  0  0
   32.1980   31.4170   32.1690 C   0  0  0  0  0  0  0  0  0  0  0  0
   30.7930   31.7920   32.3560 C   0  0  0  0  0  0  0  0  0  0  0  0
   30.2650   30.8020   33.3960 C   0  0  0  0  0  0  0  0  0  0  0  0
   31.4050   30.5420   34.2580 C   0  0  1  0  0  0  0  0  0  0  0  0
   36.3920   29.6520   35.4770 H   0  0  0  0  0  0  0  0  0  0  0  0
   37.0980   28.0760   33.6420 H   0  0  0  0  0  0  0  0  0  0  0  0
   35.5720   27.7440   31.7080 H   0  0  0  0  0  0  0  0  0  0  0  0
   32.8500   32.3080   32.2750 H   0  0  0  0  0  0  0  0  0  0  0  0
   32.4530   30.9450   31.2100 H   0  0  0  0  0  0  0  0  0  0  0  0
   30.7060   32.8540   32.6990 H   0  0  0  0  0  0  0  0  0  0  0  0
   30.2510   31.7680   31.4010 H   0  0  0  0  0  0  0  0  0  0  0  0
   30.1750   29.9580   32.6920 H   0  0  0  0  0  0  0  0  0  0  0  0
   29.4350   31.3550   33.7660 H   0  0  0  0  0  0  0  0  0  0  0  0
   31.7410   31.4390   34.8670 H   0  0  0  0  0  0  0  0  0  0  0  0
   31.6340   29.4720   36.5390 C   0  0  0  0  0  0  0  0  0  0  0  0
   31.3190   29.4380   35.1680 C   0  0  0  0  0  0  0  0  0  0  0  0
   30.7910   28.2070   34.7980 C   0  0  0  0  0  0  0  0  0  0  0  0
   30.5820   27.1340   35.6500 C   0  0  0  0  0  0  0  0  0  0  0  0
   30.9270   27.2650   37.0070 C   0  0  0  0  0  0  0  0  0  0  0  0
   31.4640   28.4550   37.4640 C   0  0  0  0  0  0  0  0  0  0  0  0
   30.5390   27.8520   33.8300 H   0  0  0  0  0  0  0  0  0  0  0  0
   30.1830   26.1720   35.4440 H   0  0  0  0  0  0  0  0  0  0  0  0
   30.8000   26.4860   37.7460 H   0  0  0  0  0  0  0  0  0  0  0  0
   32.8330   31.5710   37.4110 N   0  0  0  0  0  0  0  0  0  0  0  0
   32.3010   30.6480   37.0380 C   0  0  0  0  0  0  0  0  0  0  0  0
   31.8070   28.5900   38.7960 O   0  0  0  0  0  0  0  0  0  0  0  0
   31.2260   28.2540   39.5620 H   0  0  0  0  0  0  0  0  0  0  0  0
  1 12  1  0  0  0  0
  2  1  2  0  0  0  0
  3  2  1  0  0  0  0
  4  3  2  0  0  0  0
  4  5  1  0  0  0  0
  5  6  2  0  0  0  0
  6  1  1  0  0  0  0
  7  5  1  0  0  0  0
  7 11  1  0  0  0  0
  8 15  1  0  0  0  0
  8  9  1  0  0  0  0
  8  7  1  0  0  0  0
  9 17  1  0  0  0  0
  9 10  1  0  0  0  0
 10 20  1  0  0  0  0
 10 11  1  0  0  0  0
 11 21  1  1  0  0  0
 11 23  1  0  0  0  0
 13  2  1  0  0  0  0
 14  3  1  0  0  0  0
 16  8  1  0  0  0  0
 18  9  1  0  0  0  0
 19 10  1  0  0  0  0
 22 32  1  0  0  0  0
 22 27  1  0  0  0  0
 23 22  2  0  0  0  0
 24 23  1  0  0  0  0
 24 25  2  0  0  0  0
 25 26  1  0  0  0  0
 26 27  2  0  0  0  0
 26 30  1  0  0  0  0
 27 33  1  0  0  0  0
 28 24  1  0  0  0  0
 29 25  1  0  0  0  0
 32 31  3  0  0  0  0
 33 34  1  0  0  0  0
M  END
>  <minimizedAffinity>
-5.11070824

$$$$

 OpenBabel03262523213D

 34 36  0  0  1  0  0  0  0  0999 V2000
   37.5750   22.6840   33.0360 C   0  0  0  0  0  0  0  0  0  0  0  0
   36.4170   22.3480   32.3440 C   0  0  0  0  0  0  0  0  0  0  0  0
   36.1050   23.0600   31.1970 C   0  0  0  0  0  0  0  0  0  0  0  0
   36.9350   24.0540   30.7940 N   0  0  0  0  0  0  0  0  0  0  0  0
   38.0240   24.3750   31.4390 C   0  0  0  0  0  0  0  0  0  0  0  0
   38.2670   23.6700   32.5110 N   0  0  0  0  0  0  0  0  0  0  0  0
   38.8670   25.4080   30.9850 N   0  0  0  0  0  0  0  0  0  0  0  0
   39.4850   25.3910   29.6560 C   0  0  0  0  0  0  0  0  0  0  0  0
   40.1590   26.6870   29.5220 C   0  0  0  0  0  0  0  0  0  0  0  0
   39.5710   27.5440   30.6450 C   0  0  0  0  0  0  0  0  0  0  0  0
   39.3130   26.6020   31.7210 C   0  0  1  0  0  0  0  0  0  0  0  0
   37.7980   22.1260   33.9150 H   0  0  0  0  0  0  0  0  0  0  0  0
   35.7190   21.5840   32.5990 H   0  0  0  0  0  0  0  0  0  0  0  0
   35.2300   22.9060   30.5530 H   0  0  0  0  0  0  0  0  0  0  0  0
   40.2330   24.5710   29.6790 H   0  0  0  0  0  0  0  0  0  0  0  0
   38.7560   25.1380   28.8750 H   0  0  0  0  0  0  0  0  0  0  0  0
   41.2680   26.5700   29.6140 H   0  0  0  0  0  0  0  0  0  0  0  0
   40.0090   27.1030   28.5170 H   0  0  0  0  0  0  0  0  0  0  0  0
   38.6160   27.7390   30.1300 H   0  0  0  0  0  0  0  0  0  0  0  0
   40.3470   28.2640   30.7450 H   0  0  0  0  0  0  0  0  0  0  0  0
   40.2480   26.1460   32.1740 H   0  0  0  0  0  0  0  0  0  0  0  0
   38.8930   27.0970   34.1660 C   0  0  0  0  0  0  0  0  0  0  0  0
   38.5000   27.0430   32.8160 C   0  0  0  0  0  0  0  0  0  0  0  0
   37.2340   27.5850   32.6330 C   0  0  0  0  0  0  0  0  0  0  0  0
   36.4400   28.1250   33.6320 C   0  0  0  0  0  0  0  0  0  0  0  0
   36.9210   28.1370   34.9530 C   0  0  0  0  0  0  0  0  0  0  0  0
   38.1710   27.6120   35.2300 C   0  0  0  0  0  0  0  0  0  0  0  0
   36.6390   27.6110   31.7540 H   0  0  0  0  0  0  0  0  0  0  0  0
   35.4720   28.5580   33.5710 H   0  0  0  0  0  0  0  0  0  0  0  0
   36.3760   28.5360   35.7970 H   0  0  0  0  0  0  0  0  0  0  0  0
   41.1110   25.9730   34.8170 N   0  0  0  0  0  0  0  0  0  0  0  0
   40.1370   26.4610   34.5220 C   0  0  0  0  0  0  0  0  0  0  0  0
   38.6500   27.6190   36.5270 O   0  0  0  0  0  0  0  0  0  0  0  0
   38.5540   28.4130   37.1570 H   0  0  0  0  0  0  0  0  0  0  0  0
  1 12  1  0  0  0  0
  2 13  1  0  0  0  0
  2  1  2  0  0  0  0
  3  2  1  0  0  0  0
  4  3  2  0  0  0  0
  4  5  1  0  0  0  0
  5  6  2  0  0  0  0
  6  1  1  0  0  0  0
  7  5  1  0  0  0  0
  7 11  1  0  0  0  0
  8 15  1  0  0  0  0
  8  7  1  0  0  0  0
  9 17  1  0  0  0  0
  9  8  1  0  0  0  0
  9 10  1  0  0  0  0
 10 20  1  0  0  0  0
 10 11  1  0  0  0  0
 11 21  1  1  0  0  0
 11 23  1  0  0  0  0
 14  3  1  0  0  0  0
 16  8  1  0  0  0  0
 18  9  1  0  0  0  0
 19 10  1  0  0  0  0
 22 32  1  0  0  0  0
 22 27  1  0  0  0  0
 23 22  2  0  0  0  0
 24 23  1  0  0  0  0
 24 25  2  0  0  0  0
 25 26  1  0  0  0  0
 26 27  2  0  0  0  0
 26 30  1  0  0  0  0
 27 33  1  0  0  0  0
 28 24  1  0  0  0  0
 29 25  1  0  0  0  0
 32 31  3  0  0  0  0
 33 34  1  0  0  0  0
M  END
>  <minimizedAffinity>
-5.07243776

$$$$

 OpenBabel03262523213D

 34 36  0  0  1  0  0  0  0  0999 V2000
   37.9420   23.1150   36.5500 C   0  0  0  0  0  0  0  0  0  0  0  0
   37.7260   22.0920   35.6330 C   0  0  0  0  0  0  0  0  0  0  0  0
   38.5430   22.0260   34.5160 C   0  0  0  0  0  0  0  0  0  0  0  0
   39.5180   22.9560   34.3580 N   0  0  0  0  0  0  0  0  0  0  0  0
   39.7260   23.9190   35.2150 C   0  0  0  0  0  0  0  0  0  0  0  0
   38.9260   23.9310   36.2480 N   0  0  0  0  0  0  0  0  0  0  0  0
   40.7550   24.8620   35.0210 N   0  0  0  0  0  0  0  0  0  0  0  0
   42.1620   24.4750   34.8940 C   0  0  0  0  0  0  0  0  0  0  0  0
   42.8800   25.7110   34.5690 C   0  0  0  0  0  0  0  0  0  0  0  0
   41.7840   26.6940   34.1520 C   0  0  0  0  0  0  0  0  0  0  0  0
   40.6410   26.3280   34.9690 C   0  0  1  0  0  0  0  0  0  0  0  0
   37.3040   23.1510   37.4020 H   0  0  0  0  0  0  0  0  0  0  0  0
   36.9830   21.3300   35.6900 H   0  0  0  0  0  0  0  0  0  0  0  0
   38.4910   21.2780   33.7150 H   0  0  0  0  0  0  0  0  0  0  0  0
   42.4680   24.1050   35.8950 H   0  0  0  0  0  0  0  0  0  0  0  0
   42.2890   23.6390   34.1910 H   0  0  0  0  0  0  0  0  0  0  0  0
   43.4630   26.0770   35.4520 H   0  0  0  0  0  0  0  0  0  0  0  0
   43.6380   25.5320   33.7960 H   0  0  0  0  0  0  0  0  0  0  0  0
   41.6360   26.2560   33.1500 H   0  0  0  0  0  0  0  0  0  0  0  0
   42.2910   27.6120   34.3280 H   0  0  0  0  0  0  0  0  0  0  0  0
   40.7830   26.5190   36.0790 H   0  0  0  0  0  0  0  0  0  0  0  0
   38.7200   26.7400   33.3740 C   0  0  0  0  0  0  0  0  0  0  0  0
   39.3640   26.8780   34.6190 C   0  0  0  0  0  0  0  0  0  0  0  0
   38.5550   27.5310   35.5390 C   0  0  0  0  0  0  0  0  0  0  0  0
   37.2710   27.9920   35.2960 C   0  0  0  0  0  0  0  0  0  0  0  0
   36.7110   27.8060   34.0200 C   0  0  0  0  0  0  0  0  0  0  0  0
   37.4470   27.1690   33.0370 C   0  0  0  0  0  0  0  0  0  0  0  0
   38.7890   27.8530   36.5240 H   0  0  0  0  0  0  0  0  0  0  0  0
   36.5950   28.4930   35.9450 H   0  0  0  0  0  0  0  0  0  0  0  0
   35.7190   28.1290   33.7370 H   0  0  0  0  0  0  0  0  0  0  0  0
   40.0980   25.7700   31.4350 N   0  0  0  0  0  0  0  0  0  0  0  0
   39.4880   26.1860   32.2870 C   0  0  0  0  0  0  0  0  0  0  0  0
   36.9030   26.9830   31.7800 O   0  0  0  0  0  0  0  0  0  0  0  0
   35.9430   26.6850   31.6220 H   0  0  0  0  0  0  0  0  0  0  0  0
  1 12  1  0  0  0  0
  2 13  1  0  0  0  0
  2  1  2  0  0  0  0
  3  2  1  0  0  0  0
  4  3  2  0  0  0  0
  4  5  1  0  0  0  0
  5  6  2  0  0  0  0
  6  1  1  0  0  0  0
  7  5  1  0  0  0  0
  8  7  1  0  0  0  0
  8 15  1  0  0  0  0
  9  8  1  0  0  0  0
  9 17  1  0  0  0  0
 10 20  1  0  0  0  0
 10  9  1  0  0  0  0
 10 11  1  0  0  0  0
 11  7  1  0  0  0  0
 11 21  1  1  0  0  0
 14  3  1  0  0  0  0
 16  8  1  0  0  0  0
 18  9  1  0  0  0  0
 19 10  1  0  0  0  0
 22 23  1  0  0  0  0
 23 11  1  0  0  0  0
 23 24  2  0  0  0  0
 24 28  1  0  0  0  0
 25 24  1  0  0  0  0
 25 29  1  0  0  0  0
 26 25  2  0  0  0  0
 27 22  2  0  0  0  0
 27 26  1  0  0  0  0
 30 26  1  0  0  0  0
 31 32  3  0  0  0  0
 32 22  1  0  0  0  0
 33 27  1  0  0  0  0
 34 33  1  0  0  0  0
M  END
>  <minimizedAffinity>
-5.00462055

$$$$

 OpenBabel03262523213D

 34 36  0  0  1  0  0  0  0  0999 V2000
   39.4380   21.5780   32.0140 C   0  0  0  0  0  0  0  0  0  0  0  0
   38.3650   20.7500   32.3260 C   0  0  0  0  0  0  0  0  0  0  0  0
   37.3700   21.2450   33.1530 C   0  0  0  0  0  0  0  0  0  0  0  0
   37.4780   22.5110   33.6270 N   0  0  0  0  0  0  0  0  0  0  0  0
   38.4830   23.2940   33.3390 C   0  0  0  0  0  0  0  0  0  0  0  0
   39.3890   22.7740   32.5550 N   0  0  0  0  0  0  0  0  0  0  0  0
   38.5560   24.6070   33.8430 N   0  0  0  0  0  0  0  0  0  0  0  0
   37.5150   25.6060   33.5880 C   0  0  0  0  0  0  0  0  0  0  0  0
   37.8910   26.7760   34.3880 C   0  0  0  0  0  0  0  0  0  0  0  0
   38.9410   26.2500   35.3690 C   0  0  0  0  0  0  0  0  0  0  0  0
   39.6430   25.2170   34.6260 C   0  0  1  0  0  0  0  0  0  0  0  0
   40.1940   21.1810   31.3780 H   0  0  0  0  0  0  0  0  0  0  0  0
   38.2140   19.7490   31.9930 H   0  0  0  0  0  0  0  0  0  0  0  0
   36.4700   20.7090   33.4810 H   0  0  0  0  0  0  0  0  0  0  0  0
   37.5810   25.8440   32.5060 H   0  0  0  0  0  0  0  0  0  0  0  0
   36.5110   25.1970   33.7650 H   0  0  0  0  0  0  0  0  0  0  0  0
   38.2910   27.5930   33.7360 H   0  0  0  0  0  0  0  0  0  0  0  0
   37.0100   27.2190   34.8720 H   0  0  0  0  0  0  0  0  0  0  0  0
   38.2150   25.7530   36.0330 H   0  0  0  0  0  0  0  0  0  0  0  0
   39.4360   27.1600   35.6070 H   0  0  0  0  0  0  0  0  0  0  0  0
   40.2470   25.6060   33.7480 H   0  0  0  0  0  0  0  0  0  0  0  0
   40.1030   23.4440   36.3710 C   0  0  0  0  0  0  0  0  0  0  0  0
   40.5040   24.3340   35.3570 C   0  0  0  0  0  0  0  0  0  0  0  0
   41.8500   24.1840   35.0520 C   0  0  0  0  0  0  0  0  0  0  0  0
   42.7120   23.2760   35.6460 C   0  0  0  0  0  0  0  0  0  0  0  0
   42.2180   22.4250   36.6500 C   0  0  0  0  0  0  0  0  0  0  0  0
   40.8880   22.5080   37.0240 C   0  0  0  0  0  0  0  0  0  0  0  0
   42.4560   24.7610   34.3980 H   0  0  0  0  0  0  0  0  0  0  0  0
   43.7440   23.1000   35.4650 H   0  0  0  0  0  0  0  0  0  0  0  0
   42.8120   21.6860   37.1700 H   0  0  0  0  0  0  0  0  0  0  0  0
   37.7100   23.6590   37.2830 N   0  0  0  0  0  0  0  0  0  0  0  0
   38.7580   23.5710   36.8730 C   0  0  0  0  0  0  0  0  0  0  0  0
   40.3960   21.6750   38.0110 O   0  0  0  0  0  0  0  0  0  0  0  0
   40.6240   20.6850   38.0760 H   0  0  0  0  0  0  0  0  0  0  0  0
  1  2  2  0  0  0  0
  1  6  1  0  0  0  0
  2  3  1  0  0  0  0
  3 14  1  0  0  0  0
  3  4  2  0  0  0  0
  5  4  1  0  0  0  0
  5  7  1  0  0  0  0
  6  5  2  0  0  0  0
  7 11  1  0  0  0  0
  8 16  1  0  0  0  0
  8  7  1  0  0  0  0
  8  9  1  0  0  0  0
  9 18  1  0  0  0  0
  9 10  1  0  0  0  0
 10 20  1  0  0  0  0
 10 19  1  0  0  0  0
 11 21  1  6  0  0  0
 11 23  1  0  0  0  0
 11 10  1  0  0  0  0
 12  1  1  0  0  0  0
 13  2  1  0  0  0  0
 15  8  1  0  0  0  0
 17  9  1  0  0  0  0
 22 32  1  0  0  0  0
 22 27  1  0  0  0  0
 23 22  2  0  0  0  0
 24 23  1  0  0  0  0
 24 25  2  0  0  0  0
 25 26  1  0  0  0  0
 26 27  2  0  0  0  0
 26 30  1  0  0  0  0
 27 33  1  0  0  0  0
 28 24  1  0  0  0  0
 29 25  1  0  0  0  0
 32 31  3  0  0  0  0
 33 34  1  0  0  0  0
M  END
>  <minimizedAffinity>
-4.992661

$$$$

 OpenBabel03262523213D

 34 36  0  0  1  0  0  0  0  0999 V2000
   36.5760   24.1360   31.3580 C   0  0  0  0  0  0  0  0  0  0  0  0
   35.5770   25.0850   31.1760 C   0  0  0  0  0  0  0  0  0  0  0  0
   35.8630   26.4080   31.4730 C   0  0  0  0  0  0  0  0  0  0  0  0
   37.0990   26.7270   31.9300 N   0  0  0  0  0  0  0  0  0  0  0  0
   38.0430   25.8400   32.1040 C   0  0  0  0  0  0  0  0  0  0  0  0
   37.7160   24.6110   31.8070 N   0  0  0  0  0  0  0  0  0  0  0  0
   39.3180   26.2100   32.5720 N   0  0  0  0  0  0  0  0  0  0  0  0
   40.1610   27.1830   31.8710 C   0  0  0  0  0  0  0  0  0  0  0  0
   41.3240   27.3910   32.7400 C   0  0  0  0  0  0  0  0  0  0  0  0
   40.9050   26.8040   34.0900 C   0  0  0  0  0  0  0  0  0  0  0  0
   40.0380   25.6900   33.7460 C   0  0  1  0  0  0  0  0  0  0  0  0
   36.3380   23.1240   31.1250 H   0  0  0  0  0  0  0  0  0  0  0  0
   34.5860   24.9100   30.8230 H   0  0  0  0  0  0  0  0  0  0  0  0
   35.1780   27.2590   31.3780 H   0  0  0  0  0  0  0  0  0  0  0  0
   40.4720   26.6910   30.9260 H   0  0  0  0  0  0  0  0  0  0  0  0
   39.5940   28.0820   31.5930 H   0  0  0  0  0  0  0  0  0  0  0  0
   42.2300   26.8860   32.3210 H   0  0  0  0  0  0  0  0  0  0  0  0
   41.5970   28.4540   32.7810 H   0  0  0  0  0  0  0  0  0  0  0  0
   40.2640   27.6560   34.3730 H   0  0  0  0  0  0  0  0  0  0  0  0
   41.8640   26.6200   34.5100 H   0  0  0  0  0  0  0  0  0  0  0  0
   40.5670   24.8360   33.2190 H   0  0  0  0  0  0  0  0  0  0  0  0
   39.1590   23.7300   35.0810 C   0  0  0  0  0  0  0  0  0  0  0  0
   39.2540   25.1040   34.7930 C   0  0  0  0  0  0  0  0  0  0  0  0
   38.5730   25.8680   35.7310 C   0  0  0  0  0  0  0  0  0  0  0  0
   37.8850   25.3700   36.8260 C   0  0  0  0  0  0  0  0  0  0  0  0
   37.8480   23.9810   37.0320 C   0  0  0  0  0  0  0  0  0  0  0  0
   38.4960   23.1400   36.1450 C   0  0  0  0  0  0  0  0  0  0  0  0
   38.3930   26.9150   35.7370 H   0  0  0  0  0  0  0  0  0  0  0  0
   37.3480   25.8870   37.5830 H   0  0  0  0  0  0  0  0  0  0  0  0
   37.3390   23.5000   37.8570 H   0  0  0  0  0  0  0  0  0  0  0  0
   40.1560   22.0740   33.3870 N   0  0  0  0  0  0  0  0  0  0  0  0
   39.7200   22.8100   34.1240 C   0  0  0  0  0  0  0  0  0  0  0  0
   38.4620   21.7720   36.3410 O   0  0  0  0  0  0  0  0  0  0  0  0
   38.5820   21.3320   37.2510 H   0  0  0  0  0  0  0  0  0  0  0  0
  1  6  1  0  0  0  0
  2  1  2  0  0  0  0
  2  3  1  0  0  0  0
  3  4  2  0  0  0  0
  4  5  1  0  0  0  0
  5  7  1  0  0  0  0
  6  5  2  0  0  0  0
  7 11  1  0  0  0  0
  8  7  1  0  0  0  0
  8  9  1  0  0  0  0
  9 18  1  0  0  0  0
  9 10  1  0  0  0  0
 10 19  1  0  0  0  0
 10 20  1  0  0  0  0
 11 21  1  6  0  0  0
 11 10  1  0  0  0  0
 11 23  1  0  0  0  0
 12  1  1  0  0  0  0
 13  2  1  0  0  0  0
 14  3  1  0  0  0  0
 15  8  1  0  0  0  0
 16  8  1  0  0  0  0
 17  9  1  0  0  0  0
 22 27  1  0  0  0  0
 23 22  2  0  0  0  0
 23 24  1  0  0  0  0
 24 28  1  0  0  0  0
 24 25  2  0  0  0  0
 25 26  1  0  0  0  0
 25 29  1  0  0  0  0
 26 30  1  0  0  0  0
 27 33  1  0  0  0  0
 27 26  2  0  0  0  0
 31 32  3  0  0  0  0
 32 22  1  0  0  0  0
 33 34  1  0  0  0  0
M  END
>  <minimizedAffinity>
-4.92099667

$$$$

 OpenBabel03262523213D

 34 36  0  0  1  0  0  0  0  0999 V2000
   40.0580   27.0460   33.6220 C   0  0  0  0  0  0  0  0  0  0  0  0
   39.8330   26.8870   34.9840 C   0  0  0  0  0  0  0  0  0  0  0  0
   38.6600   26.2730   35.3910 C   0  0  0  0  0  0  0  0  0  0  0  0
   37.7770   25.8520   34.4510 N   0  0  0  0  0  0  0  0  0  0  0  0
   37.9820   25.9980   33.1690 C   0  0  0  0  0  0  0  0  0  0  0  0
   39.1050   26.5820   32.8460 N   0  0  0  0  0  0  0  0  0  0  0  0
   37.0470   25.5400   32.2210 N   0  0  0  0  0  0  0  0  0  0  0  0
   36.6290   24.1370   32.1430 C   0  0  0  0  0  0  0  0  0  0  0  0
   35.5620   24.1030   31.1390 C   0  0  0  0  0  0  0  0  0  0  0  0
   35.1550   25.5670   30.9590 C   0  0  0  0  0  0  0  0  0  0  0  0
   36.3870   26.3100   31.1550 C   0  0  1  0  0  0  0  0  0  0  0  0
   40.9650   27.5200   33.3280 H   0  0  0  0  0  0  0  0  0  0  0  0
   40.4770   27.1920   35.7770 H   0  0  0  0  0  0  0  0  0  0  0  0
   38.3500   26.0800   36.4260 H   0  0  0  0  0  0  0  0  0  0  0  0
   37.5160   23.5760   31.7800 H   0  0  0  0  0  0  0  0  0  0  0  0
   36.3800   23.7350   33.1340 H   0  0  0  0  0  0  0  0  0  0  0  0
   35.9260   23.6440   30.1850 H   0  0  0  0  0  0  0  0  0  0  0  0
   34.7420   23.4470   31.4620 H   0  0  0  0  0  0  0  0  0  0  0  0
   34.5740   25.6230   31.8950 H   0  0  0  0  0  0  0  0  0  0  0  0
   34.7150   25.5130   29.9920 H   0  0  0  0  0  0  0  0  0  0  0  0
   37.1680   26.1340   30.3510 H   0  0  0  0  0  0  0  0  0  0  0  0
   37.0020   28.7010   30.6000 C   0  0  0  0  0  0  0  0  0  0  0  0
   36.2920   27.7300   31.3300 C   0  0  0  0  0  0  0  0  0  0  0  0
   35.3740   28.3140   32.1940 C   0  0  0  0  0  0  0  0  0  0  0  0
   35.1570   29.6760   32.3340 C   0  0  0  0  0  0  0  0  0  0  0  0
   35.9150   30.5690   31.5570 C   0  0  0  0  0  0  0  0  0  0  0  0
   36.8580   30.0770   30.6720 C   0  0  0  0  0  0  0  0  0  0  0  0
   34.7590   27.8540   32.9270 H   0  0  0  0  0  0  0  0  0  0  0  0
   34.4770   30.1940   32.9640 H   0  0  0  0  0  0  0  0  0  0  0  0
   35.8170   31.6450   31.5960 H   0  0  0  0  0  0  0  0  0  0  0  0
   38.9190   27.9010   29.0860 N   0  0  0  0  0  0  0  0  0  0  0  0
   38.0720   28.2420   29.7500 C   0  0  0  0  0  0  0  0  0  0  0  0
   37.6070   30.9500   29.9070 O   0  0  0  0  0  0  0  0  0  0  0  0
   37.2180   31.7680   29.4440 H   0  0  0  0  0  0  0  0  0  0  0  0
  1  2  1  0  0  0  0
  2  3  2  0  0  0  0
  2 13  1  0  0  0  0
  3 14  1  0  0  0  0
  4  3  1  0  0  0  0
  5  4  2  0  0  0  0
  6  5  1  0  0  0  0
  6  1  2  0  0  0  0
  7  5  1  0  0  0  0
  8  7  1  0  0  0  0
  8 16  1  0  0  0  0
  9 18  1  0  0  0  0
  9  8  1  0  0  0  0
 10  9  1  0  0  0  0
 10 11  1  0  0  0  0
 10 19  1  0  0  0  0
 11 21  1  6  0  0  0
 11 23  1  0  0  0  0
 11  7  1  0  0  0  0
 12  1  1  0  0  0  0
 15  8  1  0  0  0  0
 17  9  1  0  0  0  0
 20 10  1  0  0  0  0
 22 27  2  0  0  0  0
 22 23  1  0  0  0  0
 23 24  2  0  0  0  0
 24 25  1  0  0  0  0
 24 28  1  0  0  0  0
 25 29  1  0  0  0  0
 26 30  1  0  0  0  0
 26 25  2  0  0  0  0
 27 26  1  0  0  0  0
 31 32  3  0  0  0  0
 32 22  1  0  0  0  0
 33 27  1  0  0  0  0
 34 33  1  0  0  0  0
M  END
>  <minimizedAffinity>
-4.88370943

$$$$

 OpenBabel03262523213D

 34 36  0  0  1  0  0  0  0  0999 V2000
   37.7220   24.4960   36.7840 C   0  0  0  0  0  0  0  0  0  0  0  0
   38.4780   23.3970   37.1750 C   0  0  0  0  0  0  0  0  0  0  0  0
   39.7060   23.1920   36.5680 C   0  0  0  0  0  0  0  0  0  0  0  0
   40.1240   24.0660   35.6190 N   0  0  0  0  0  0  0  0  0  0  0  0
   39.4200   25.1010   35.2460 C   0  0  0  0  0  0  0  0  0  0  0  0
   38.2720   25.2430   35.8530 N   0  0  0  0  0  0  0  0  0  0  0  0
   39.8910   25.9910   34.2630 N   0  0  0  0  0  0  0  0  0  0  0  0
   41.1560   26.7200   34.4030 C   0  0  0  0  0  0  0  0  0  0  0  0
   41.3480   27.4180   33.1280 C   0  0  0  0  0  0  0  0  0  0  0  0
   40.3600   26.7490   32.1700 C   0  0  0  0  0  0  0  0  0  0  0  0
   39.2300   26.3890   33.0100 C   0  0  1  0  0  0  0  0  0  0  0  0
   36.7810   24.6380   37.2610 H   0  0  0  0  0  0  0  0  0  0  0  0
   38.2150   22.6710   37.9100 H   0  0  0  0  0  0  0  0  0  0  0  0
   40.4060   22.3730   36.7750 H   0  0  0  0  0  0  0  0  0  0  0  0
   40.9960   27.4520   35.2210 H   0  0  0  0  0  0  0  0  0  0  0  0
   41.9710   26.0550   34.7210 H   0  0  0  0  0  0  0  0  0  0  0  0
   41.1520   28.5140   33.2410 H   0  0  0  0  0  0  0  0  0  0  0  0
   42.3950   27.3590   32.8030 H   0  0  0  0  0  0  0  0  0  0  0  0
   40.9700   25.8430   32.0170 H   0  0  0  0  0  0  0  0  0  0  0  0
   40.2590   27.5230   31.4470 H   0  0  0  0  0  0  0  0  0  0  0  0
   38.6600   27.2770   33.4270 H   0  0  0  0  0  0  0  0  0  0  0  0
   36.9430   25.8350   32.0810 C   0  0  0  0  0  0  0  0  0  0  0  0
   38.2520   25.4920   32.4670 C   0  0  0  0  0  0  0  0  0  0  0  0
   38.5450   24.1710   32.1540 C   0  0  0  0  0  0  0  0  0  0  0  0
   37.6820   23.2820   31.5330 C   0  0  0  0  0  0  0  0  0  0  0  0
   36.3930   23.7190   31.1820 C   0  0  0  0  0  0  0  0  0  0  0  0
   36.0110   25.0190   31.4610 C   0  0  0  0  0  0  0  0  0  0  0  0
   39.4100   23.6030   32.3930 H   0  0  0  0  0  0  0  0  0  0  0  0
   37.8330   22.2670   31.2600 H   0  0  0  0  0  0  0  0  0  0  0  0
   35.6510   23.1000   30.6950 H   0  0  0  0  0  0  0  0  0  0  0  0
   36.0710   28.1560   32.7560 N   0  0  0  0  0  0  0  0  0  0  0  0
   36.4610   27.1420   32.4520 C   0  0  0  0  0  0  0  0  0  0  0  0
   34.7440   25.4540   31.1200 O   0  0  0  0  0  0  0  0  0  0  0  0
   34.2940   25.2350   30.2340 H   0  0  0  0  0  0  0  0  0  0  0  0
  1  2  1  0  0  0  0
  1 12  1  0  0  0  0
  2 13  1  0  0  0  0
  3 14  1  0  0  0  0
  3  2  2  0  0  0  0
  4  3  1  0  0  0  0
  5  4  2  0  0  0  0
  5  6  1  0  0  0  0
  6  1  2  0  0  0  0
  7  8  1  0  0  0  0
  7  5  1  0  0  0  0
  8 16  1  0  0  0  0
  8 15  1  0  0  0  0
  9 17  1  0  0  0  0
  9  8  1  0  0  0  0
 10 11  1  0  0  0  0
 10  9  1  0  0  0  0
 11 21  1  1  0  0  0
 11  7  1  0  0  0  0
 18  9  1  0  0  0  0
 19 10  1  0  0  0  0
 20 10  1  0  0  0  0
 22 32  1  0  0  0  0
 22 23  1  0  0  0  0
 23 11  1  0  0  0  0
 24 28  1  0  0  0  0
 24 23  2  0  0  0  0
 25 24  1  0  0  0  0
 26 27  1  0  0  0  0
 26 25  2  0  0  0  0
 27 22  2  0  0  0  0
 29 25  1  0  0  0  0
 30 26  1  0  0  0  0
 32 31  3  0  0  0  0
 33 27  1  0  0  0  0
 34 33  1  0  0  0  0
M  END
>  <minimizedAffinity>
-4.8391304

$$$$
