
 OpenBabel03272509063D

 26 27  0  0  0  0  0  0  0  0999 V2000
   38.1910   26.3210   33.0280 C   0  0  0  0  0  0  0  0  0  0  0  0
   39.1950   26.5430   32.6220 H   0  0  0  0  0  0  0  0  0  0  0  0
   37.7190   25.5400   32.3700 H   0  0  0  0  0  0  0  0  0  0  0  0
   37.3170   27.5250   33.0170 C   0  0  0  0  0  0  0  0  0  0  0  0
   37.0730   28.3100   31.9210 C   0  0  0  0  0  0  0  0  0  0  0  0
   36.2470   29.4100   32.0010 C   0  0  0  0  0  0  0  0  0  0  0  0
   35.6310   29.7640   33.1960 C   0  0  0  0  0  0  0  0  0  0  0  0
   35.8600   28.9960   34.3000 C   0  0  0  0  0  0  0  0  0  0  0  0
   36.6880   27.9020   34.1970 C   0  0  0  0  0  0  0  0  0  0  0  0
   37.5740   28.0060   30.9900 H   0  0  0  0  0  0  0  0  0  0  0  0
   36.0880   29.9940   31.1140 H   0  0  0  0  0  0  0  0  0  0  0  0
   34.9930   30.6370   33.2000 H   0  0  0  0  0  0  0  0  0  0  0  0
   35.3820   29.2580   35.2550 H   0  0  0  0  0  0  0  0  0  0  0  0
   36.8510   27.3110   35.0920 H   0  0  0  0  0  0  0  0  0  0  0  0
   38.5340   24.4790   34.6730 C   0  0  0  0  0  3  0  0  0  0  0  0
   38.3090   25.7220   34.3650 C   0  0  0  0  0  3  0  0  0  0  0  0
   37.9590   24.3310   38.2860 C   0  0  0  0  0  0  0  0  0  0  0  0
   38.8700   23.3280   38.6800 C   0  0  0  0  0  0  0  0  0  0  0  0
   39.6700   22.7250   37.6610 C   0  0  0  0  0  0  0  0  0  0  0  0
   39.4930   23.1590   36.3900 N   0  0  0  0  0  0  0  0  0  0  0  0
   38.6110   24.1180   36.0710 C   0  0  0  0  0  0  0  0  0  0  0  0
   37.8590   24.6900   37.0080 N   0  0  0  0  0  0  0  0  0  0  0  0
   37.3910   24.7430   39.0960 H   0  0  0  0  0  0  0  0  0  0  0  0
   39.0360   22.9570   39.6830 H   0  0  0  0  0  0  0  0  0  0  0  0
   40.5940   21.7310   37.9510 O   0  0  0  0  0  0  0  0  0  0  0  0
   40.7770   21.4640   38.9300 H   0  0  0  0  0  0  0  0  0  0  0  0
  1 16  1  0  0  0  0
  2  1  1  0  0  0  0
  3  1  1  0  0  0  0
  4  1  1  0  0  0  0
  4  9  1  0  0  0  0
  5  6  1  0  0  0  0
  5  4  2  0  0  0  0
  6  7  2  0  0  0  0
  7 12  1  0  0  0  0
  7  8  1  0  0  0  0
  8 13  1  0  0  0  0
  9  8  2  0  0  0  0
  9 14  1  0  0  0  0
 10  5  1  0  0  0  0
 11  6  1  0  0  0  0
 15 21  1  0  0  0  0
 16 15  2  0  0  0  0
 17 18  1  0  0  0  0
 17 23  1  0  0  0  0
 18 24  1  0  0  0  0
 19 25  1  0  0  0  0
 19 18  2  0  0  0  0
 20 19  1  0  0  0  0
 21 20  2  0  0  0  0
 21 22  1  0  0  0  0
 22 17  2  0  0  0  0
 25 26  1  0  0  0  0
M  END
>  <minimizedAffinity>
-5.1720643

$$$$

 OpenBabel03272509063D

 26 27  0  0  0  0  0  0  0  0999 V2000
   36.2970   28.2230   33.1670 C   0  0  0  0  0  0  0  0  0  0  0  0
   35.6950   27.4270   32.6900 H   0  0  0  0  0  0  0  0  0  0  0  0
   36.5900   28.9580   32.3670 H   0  0  0  0  0  0  0  0  0  0  0  0
   37.5410   27.6800   33.7760 C   0  0  0  0  0  0  0  0  0  0  0  0
   38.6100   27.1880   33.0740 C   0  0  0  0  0  0  0  0  0  0  0  0
   39.7260   26.7030   33.7210 C   0  0  0  0  0  0  0  0  0  0  0  0
   39.8080   26.6950   35.1090 C   0  0  0  0  0  0  0  0  0  0  0  0
   38.7560   27.1810   35.8270 C   0  0  0  0  0  0  0  0  0  0  0  0
   37.6510   27.6600   35.1600 C   0  0  0  0  0  0  0  0  0  0  0  0
   38.5160   27.2060   31.9780 H   0  0  0  0  0  0  0  0  0  0  0  0
   40.5370   26.3270   33.1270 H   0  0  0  0  0  0  0  0  0  0  0  0
   40.7080   26.3020   35.5630 H   0  0  0  0  0  0  0  0  0  0  0  0
   38.8000   27.1840   36.9260 H   0  0  0  0  0  0  0  0  0  0  0  0
   36.8300   28.0400   35.7590 H   0  0  0  0  0  0  0  0  0  0  0  0
   34.3880   29.6450   33.9100 C   0  0  0  0  0  3  0  0  0  0  0  0
   35.4740   28.9660   34.1330 C   0  0  0  0  0  3  0  0  0  0  0  0
   31.8880   30.7790   36.3320 C   0  0  0  0  0  0  0  0  0  0  0  0
   32.6630   31.6020   37.1780 C   0  0  0  0  0  0  0  0  0  0  0  0
   34.0520   31.7390   36.8760 C   0  0  0  0  0  0  0  0  0  0  0  0
   34.5250   31.0680   35.7980 N   0  0  0  0  0  0  0  0  0  0  0  0
   33.7430   30.2990   35.0260 C   0  0  0  0  0  0  0  0  0  0  0  0
   32.4470   30.1610   35.2940 N   0  0  0  0  0  0  0  0  0  0  0  0
   30.8560   30.7190   36.6120 H   0  0  0  0  0  0  0  0  0  0  0  0
   32.3180   32.1500   38.0450 H   0  0  0  0  0  0  0  0  0  0  0  0
   34.8930   32.5260   37.6500 O   0  0  0  0  0  0  0  0  0  0  0  0
   34.5080   33.0940   38.4180 H   0  0  0  0  0  0  0  0  0  0  0  0
  1  4  1  0  0  0  0
  1 16  1  0  0  0  0
  2  1  1  0  0  0  0
  3  1  1  0  0  0  0
  4  9  1  0  0  0  0
  5  6  1  0  0  0  0
  5  4  2  0  0  0  0
  6  7  2  0  0  0  0
  7 12  1  0  0  0  0
  7  8  1  0  0  0  0
  8 13  1  0  0  0  0
  9 14  1  0  0  0  0
  9  8  2  0  0  0  0
 10  5  1  0  0  0  0
 11  6  1  0  0  0  0
 15 16  2  0  0  0  0
 15 21  1  0  0  0  0
 17 23  1  0  0  0  0
 17 18  1  0  0  0  0
 18 24  1  0  0  0  0
 19 18  2  0  0  0  0
 19 25  1  0  0  0  0
 20 19  1  0  0  0  0
 21 22  1  0  0  0  0
 21 20  2  0  0  0  0
 22 17  2  0  0  0  0
 25 26  1  0  0  0  0
M  END
>  <minimizedAffinity>
-5.05339861

$$$$

 OpenBabel03272509063D

 26 27  0  0  0  0  0  0  0  0999 V2000
   36.6510   27.8690   34.5310 C   0  0  0  0  0  0  0  0  0  0  0  0
   35.5860   27.8320   34.8300 H   0  0  0  0  0  0  0  0  0  0  0  0
   37.1370   28.7120   35.0950 H   0  0  0  0  0  0  0  0  0  0  0  0
   36.8010   28.1380   33.0750 C   0  0  0  0  0  0  0  0  0  0  0  0
   36.0670   29.0500   32.3630 C   0  0  0  0  0  0  0  0  0  0  0  0
   36.2740   29.2350   31.0140 C   0  0  0  0  0  0  0  0  0  0  0  0
   37.2350   28.5040   30.3250 C   0  0  0  0  0  0  0  0  0  0  0  0
   37.9780   27.5910   31.0140 C   0  0  0  0  0  0  0  0  0  0  0  0
   37.7540   27.4230   32.3610 C   0  0  0  0  0  0  0  0  0  0  0  0
   35.3130   29.6120   32.9350 H   0  0  0  0  0  0  0  0  0  0  0  0
   35.6720   29.9600   30.5000 H   0  0  0  0  0  0  0  0  0  0  0  0
   37.3540   28.6910   29.2660 H   0  0  0  0  0  0  0  0  0  0  0  0
   38.7440   27.0030   30.4880 H   0  0  0  0  0  0  0  0  0  0  0  0
   38.3610   26.6890   32.8820 H   0  0  0  0  0  0  0  0  0  0  0  0
   38.0060   26.4230   36.0430 C   0  0  0  0  0  3  0  0  0  0  0  0
   37.3350   26.6380   34.9510 C   0  0  0  0  0  3  0  0  0  0  0  0
   39.9500   23.3550   35.5860 C   0  0  0  0  0  0  0  0  0  0  0  0
   39.6390   22.6410   36.7630 C   0  0  0  0  0  0  0  0  0  0  0  0
   38.7480   23.2580   37.6940 C   0  0  0  0  0  0  0  0  0  0  0  0
   38.2680   24.4850   37.3790 N   0  0  0  0  0  0  0  0  0  0  0  0
   38.5970   25.1190   36.2440 C   0  0  0  0  0  0  0  0  0  0  0  0
   39.4250   24.5580   35.3660 N   0  0  0  0  0  0  0  0  0  0  0  0
   40.6220   22.8380   34.9310 H   0  0  0  0  0  0  0  0  0  0  0  0
   40.0040   21.6620   37.0460 H   0  0  0  0  0  0  0  0  0  0  0  0
   38.3830   22.6340   38.8780 O   0  0  0  0  0  0  0  0  0  0  0  0
   38.6900   21.6700   39.0710 H   0  0  0  0  0  0  0  0  0  0  0  0
  1  2  1  0  0  0  0
  1 16  1  0  0  0  0
  1  3  1  0  0  0  0
  4  1  1  0  0  0  0
  5 10  1  0  0  0  0
  5  4  1  0  0  0  0
  6  5  2  0  0  0  0
  7  6  1  0  0  0  0
  7  8  2  0  0  0  0
  8  9  1  0  0  0  0
  9 14  1  0  0  0  0
  9  4  2  0  0  0  0
 11  6  1  0  0  0  0
 12  7  1  0  0  0  0
 13  8  1  0  0  0  0
 15 21  1  0  0  0  0
 16 15  2  0  0  0  0
 17 18  1  0  0  0  0
 18 24  1  0  0  0  0
 18 19  2  0  0  0  0
 19 25  1  0  0  0  0
 20 19  1  0  0  0  0
 21 20  2  0  0  0  0
 22 17  2  0  0  0  0
 22 21  1  0  0  0  0
 23 17  1  0  0  0  0
 25 26  1  0  0  0  0
M  END
>  <minimizedAffinity>
-4.93915701

$$$$

 OpenBabel03272509063D

 26 27  0  0  0  0  0  0  0  0999 V2000
   36.1210   28.1940   33.4630 C   0  0  0  0  0  0  0  0  0  0  0  0
   35.4120   27.3730   33.2510 H   0  0  0  0  0  0  0  0  0  0  0  0
   36.2810   28.7650   32.5070 H   0  0  0  0  0  0  0  0  0  0  0  0
   37.4390   27.6760   33.9190 C   0  0  0  0  0  0  0  0  0  0  0  0
   38.4470   27.2510   33.0920 C   0  0  0  0  0  0  0  0  0  0  0  0
   39.6390   26.7850   33.6020 C   0  0  0  0  0  0  0  0  0  0  0  0
   39.8640   26.7290   34.9730 C   0  0  0  0  0  0  0  0  0  0  0  0
   38.8760   27.1470   35.8140 C   0  0  0  0  0  0  0  0  0  0  0  0
   37.6930   27.6090   35.2830 C   0  0  0  0  0  0  0  0  0  0  0  0
   38.2390   27.3070   32.0130 H   0  0  0  0  0  0  0  0  0  0  0  0
   40.3970   26.4630   32.9130 H   0  0  0  0  0  0  0  0  0  0  0  0
   40.8190   26.3540   35.3160 H   0  0  0  0  0  0  0  0  0  0  0  0
   39.0330   27.1120   36.9010 H   0  0  0  0  0  0  0  0  0  0  0  0
   36.9250   27.9350   35.9770 H   0  0  0  0  0  0  0  0  0  0  0  0
   35.5020   30.4380   34.3560 C   0  0  0  0  0  3  0  0  0  0  0  0
   35.5260   29.1400   34.4180 C   0  0  0  0  0  3  0  0  0  0  0  0
   34.7640   32.8820   36.9790 C   0  0  0  0  0  0  0  0  0  0  0  0
   33.4990   32.4450   37.4300 C   0  0  0  0  0  0  0  0  0  0  0  0
   32.9330   31.2960   36.7970 C   0  0  0  0  0  0  0  0  0  0  0  0
   33.6520   30.7100   35.8100 N   0  0  0  0  0  0  0  0  0  0  0  0
   34.8520   31.1680   35.4210 C   0  0  0  0  0  0  0  0  0  0  0  0
   35.3930   32.2360   36.0000 N   0  0  0  0  0  0  0  0  0  0  0  0
   35.1320   33.7470   37.4940 H   0  0  0  0  0  0  0  0  0  0  0  0
   32.8990   32.8890   38.2130 H   0  0  0  0  0  0  0  0  0  0  0  0
   31.6960   30.7920   37.1720 O   0  0  0  0  0  0  0  0  0  0  0  0
   31.1940   31.1970   37.9760 H   0  0  0  0  0  0  0  0  0  0  0  0
  1  4  1  0  0  0  0
  1 16  1  0  0  0  0
  2  1  1  0  0  0  0
  3  1  1  0  0  0  0
  4  9  1  0  0  0  0
  5  6  1  0  0  0  0
  5  4  2  0  0  0  0
  6  7  2  0  0  0  0
  7 12  1  0  0  0  0
  7  8  1  0  0  0  0
  8 13  1  0  0  0  0
  9  8  2  0  0  0  0
  9 14  1  0  0  0  0
 10  5  1  0  0  0  0
 11  6  1  0  0  0  0
 15 16  2  0  0  0  0
 15 21  1  0  0  0  0
 17 18  1  0  0  0  0
 17 23  1  0  0  0  0
 18 24  1  0  0  0  0
 19 25  1  0  0  0  0
 19 18  2  0  0  0  0
 20 19  1  0  0  0  0
 21 20  2  0  0  0  0
 21 22  1  0  0  0  0
 22 17  2  0  0  0  0
 25 26  1  0  0  0  0
M  END
>  <minimizedAffinity>
-4.92676067

$$$$

 OpenBabel03272509063D

 26 27  0  0  0  0  0  0  0  0999 V2000
   38.8850   23.5210   34.2810 C   0  0  0  0  0  0  0  0  0  0  0  0
   38.3240   22.6610   33.8690 H   0  0  0  0  0  0  0  0  0  0  0  0
   39.9430   23.4520   33.9070 H   0  0  0  0  0  0  0  0  0  0  0  0
   38.9160   23.4910   35.7680 C   0  0  0  0  0  0  0  0  0  0  0  0
   39.8390   22.8130   36.5220 C   0  0  0  0  0  0  0  0  0  0  0  0
   39.7930   22.8410   37.8990 C   0  0  0  0  0  0  0  0  0  0  0  0
   38.8110   23.5580   38.5740 C   0  0  0  0  0  0  0  0  0  0  0  0
   37.8840   24.2400   37.8430 C   0  0  0  0  0  0  0  0  0  0  0  0
   37.9480   24.1980   36.4690 C   0  0  0  0  0  0  0  0  0  0  0  0
   40.6030   22.2540   35.9610 H   0  0  0  0  0  0  0  0  0  0  0  0
   40.5370   22.2930   38.4450 H   0  0  0  0  0  0  0  0  0  0  0  0
   38.8240   23.5440   39.6550 H   0  0  0  0  0  0  0  0  0  0  0  0
   37.0990   24.8140   38.3570 H   0  0  0  0  0  0  0  0  0  0  0  0
   37.1960   24.7510   35.9150 H   0  0  0  0  0  0  0  0  0  0  0  0
   37.4030   24.9390   32.8640 C   0  0  0  0  0  3  0  0  0  0  0  0
   38.3370   24.7780   33.7540 C   0  0  0  0  0  3  0  0  0  0  0  0
   36.3540   28.4430   33.0160 C   0  0  0  0  0  0  0  0  0  0  0  0
   36.3280   28.7930   31.6480 C   0  0  0  0  0  0  0  0  0  0  0  0
   36.6810   27.7840   30.7010 C   0  0  0  0  0  0  0  0  0  0  0  0
   37.0160   26.5630   31.1850 N   0  0  0  0  0  0  0  0  0  0  0  0
   37.0240   26.2850   32.4970 C   0  0  0  0  0  0  0  0  0  0  0  0
   36.6970   27.2140   33.3920 N   0  0  0  0  0  0  0  0  0  0  0  0
   36.0790   29.2430   33.6730 H   0  0  0  0  0  0  0  0  0  0  0  0
   36.0650   29.7550   31.2280 H   0  0  0  0  0  0  0  0  0  0  0  0
   36.6840   28.0330   29.3360 O   0  0  0  0  0  0  0  0  0  0  0  0
   36.3510   28.9390   28.9750 H   0  0  0  0  0  0  0  0  0  0  0  0
  1  4  1  0  0  0  0
  2  1  1  0  0  0  0
  3  1  1  0  0  0  0
  4  9  2  0  0  0  0
  4  5  1  0  0  0  0
  5  6  2  0  0  0  0
  6 11  1  0  0  0  0
  6  7  1  0  0  0  0
  7 12  1  0  0  0  0
  8 13  1  0  0  0  0
  8  7  2  0  0  0  0
  9  8  1  0  0  0  0
 10  5  1  0  0  0  0
 14  9  1  0  0  0  0
 15 16  2  0  0  0  0
 16  1  1  0  0  0  0
 17 22  1  0  0  0  0
 17 23  1  0  0  0  0
 18 17  2  0  0  0  0
 19 20  2  0  0  0  0
 19 18  1  0  0  0  0
 20 21  1  0  0  0  0
 21 15  1  0  0  0  0
 21 22  2  0  0  0  0
 24 18  1  0  0  0  0
 25 19  1  0  0  0  0
 26 25  1  0  0  0  0
M  END
>  <minimizedAffinity>
-4.79656935

$$$$

 OpenBabel03272509063D

 26 27  0  0  0  0  0  0  0  0999 V2000
   40.8910   26.6630   34.1490 C   0  0  0  0  0  0  0  0  0  0  0  0
   41.5120   27.4710   34.5780 H   0  0  0  0  0  0  0  0  0  0  0  0
   41.2430   26.4810   33.0960 H   0  0  0  0  0  0  0  0  0  0  0  0
   39.4540   27.0440   34.0980 C   0  0  0  0  0  0  0  0  0  0  0  0
   38.7100   27.1550   32.9530 C   0  0  0  0  0  0  0  0  0  0  0  0
   37.3800   27.5150   32.9980 C   0  0  0  0  0  0  0  0  0  0  0  0
   36.7460   27.7780   34.2070 C   0  0  0  0  0  0  0  0  0  0  0  0
   37.4670   27.6730   35.3590 C   0  0  0  0  0  0  0  0  0  0  0  0
   38.7940   27.3130   35.2900 C   0  0  0  0  0  0  0  0  0  0  0  0
   39.2390   26.9420   32.0120 H   0  0  0  0  0  0  0  0  0  0  0  0
   36.8400   27.5890   32.0740 H   0  0  0  0  0  0  0  0  0  0  0  0
   35.7010   28.0560   34.1830 H   0  0  0  0  0  0  0  0  0  0  0  0
   36.9850   27.8760   36.3260 H   0  0  0  0  0  0  0  0  0  0  0  0
   39.3420   27.2370   36.2240 H   0  0  0  0  0  0  0  0  0  0  0  0
   42.0340   24.5120   34.6820 C   0  0  0  0  0  3  0  0  0  0  0  0
   41.1170   25.4110   34.8850 C   0  0  0  0  0  3  0  0  0  0  0  0
   43.0010   21.3600   36.2730 C   0  0  0  0  0  0  0  0  0  0  0  0
   41.9820   21.2020   37.2380 C   0  0  0  0  0  0  0  0  0  0  0  0
   40.9750   22.2130   37.3060 C   0  0  0  0  0  0  0  0  0  0  0  0
   41.0710   23.2500   36.4400 N   0  0  0  0  0  0  0  0  0  0  0  0
   42.0620   23.3500   35.5410 C   0  0  0  0  0  0  0  0  0  0  0  0
   43.0080   22.4170   35.4640 N   0  0  0  0  0  0  0  0  0  0  0  0
   43.7230   20.5690   36.2730 H   0  0  0  0  0  0  0  0  0  0  0  0
   41.8750   20.3890   37.9440 H   0  0  0  0  0  0  0  0  0  0  0  0
   39.9340   22.1450   38.2210 O   0  0  0  0  0  0  0  0  0  0  0  0
   39.8250   21.3140   38.8200 H   0  0  0  0  0  0  0  0  0  0  0  0
  1  2  1  0  0  0  0
  1 16  1  0  0  0  0
  3  1  1  0  0  0  0
  4  1  1  0  0  0  0
  4  9  1  0  0  0  0
  5  6  1  0  0  0  0
  5  4  2  0  0  0  0
  6  7  2  0  0  0  0
  7  8  1  0  0  0  0
  8 13  1  0  0  0  0
  9  8  2  0  0  0  0
  9 14  1  0  0  0  0
 10  5  1  0  0  0  0
 11  6  1  0  0  0  0
 12  7  1  0  0  0  0
 15 16  2  0  0  0  0
 15 21  1  0  0  0  0
 17 23  1  0  0  0  0
 17 18  1  0  0  0  0
 18 19  2  0  0  0  0
 18 24  1  0  0  0  0
 19 25  1  0  0  0  0
 20 19  1  0  0  0  0
 21 20  2  0  0  0  0
 22 21  1  0  0  0  0
 22 17  2  0  0  0  0
 25 26  1  0  0  0  0
M  END
>  <minimizedAffinity>
-4.79488516

$$$$

 OpenBabel03272509063D

 26 27  0  0  0  0  0  0  0  0999 V2000
   37.0260   27.0900   34.9200 C   0  0  0  0  0  0  0  0  0  0  0  0
   36.0740   26.5580   35.1080 H   0  0  0  0  0  0  0  0  0  0  0  0
   37.1100   27.9200   35.6750 H   0  0  0  0  0  0  0  0  0  0  0  0
   37.0570   27.6930   33.5610 C   0  0  0  0  0  0  0  0  0  0  0  0
   37.9560   27.3720   32.5780 C   0  0  0  0  0  0  0  0  0  0  0  0
   37.9110   27.9820   31.3430 C   0  0  0  0  0  0  0  0  0  0  0  0
   36.9520   28.9450   31.0500 C   0  0  0  0  0  0  0  0  0  0  0  0
   36.0470   29.2800   32.0130 C   0  0  0  0  0  0  0  0  0  0  0  0
   36.1110   28.6580   33.2390 C   0  0  0  0  0  0  0  0  0  0  0  0
   38.7030   26.6080   32.8400 H   0  0  0  0  0  0  0  0  0  0  0  0
   38.6380   27.6970   30.6070 H   0  0  0  0  0  0  0  0  0  0  0  0
   36.9650   29.3910   30.0640 H   0  0  0  0  0  0  0  0  0  0  0  0
   35.2800   30.0380   31.8010 H   0  0  0  0  0  0  0  0  0  0  0  0
   35.3770   28.9450   33.9850 H   0  0  0  0  0  0  0  0  0  0  0  0
   38.1580   25.0290   35.7500 C   0  0  0  0  0  3  0  0  0  0  0  0
   38.1620   26.1900   35.1640 C   0  0  0  0  0  3  0  0  0  0  0  0
   41.6100   23.9080   35.2730 C   0  0  0  0  0  0  0  0  0  0  0  0
   41.7120   22.8790   36.2350 C   0  0  0  0  0  0  0  0  0  0  0  0
   40.5590   22.6020   37.0310 C   0  0  0  0  0  0  0  0  0  0  0  0
   39.4510   23.3490   36.8060 N   0  0  0  0  0  0  0  0  0  0  0  0
   39.4090   24.3170   35.8770 C   0  0  0  0  0  0  0  0  0  0  0  0
   40.4750   24.5860   35.1270 N   0  0  0  0  0  0  0  0  0  0  0  0
   42.5080   24.0650   34.7100 H   0  0  0  0  0  0  0  0  0  0  0  0
   42.5790   22.2650   36.4400 H   0  0  0  0  0  0  0  0  0  0  0  0
   40.5630   21.6100   38.0000 O   0  0  0  0  0  0  0  0  0  0  0  0
   41.3830   20.9960   38.1090 H   0  0  0  0  0  0  0  0  0  0  0  0
  1  2  1  0  0  0  0
  1 16  1  0  0  0  0
  1  3  1  0  0  0  0
  4  1  1  0  0  0  0
  5 10  1  0  0  0  0
  5  4  2  0  0  0  0
  6  5  1  0  0  0  0
  7  6  2  0  0  0  0
  7  8  1  0  0  0  0
  8  9  2  0  0  0  0
  9  4  1  0  0  0  0
  9 14  1  0  0  0  0
 11  6  1  0  0  0  0
 12  7  1  0  0  0  0
 13  8  1  0  0  0  0
 15 21  1  0  0  0  0
 16 15  2  0  0  0  0
 17 18  1  0  0  0  0
 18 24  1  0  0  0  0
 18 19  2  0  0  0  0
 19 25  1  0  0  0  0
 20 19  1  0  0  0  0
 21 20  2  0  0  0  0
 22 17  2  0  0  0  0
 22 21  1  0  0  0  0
 23 17  1  0  0  0  0
 25 26  1  0  0  0  0
M  END
>  <minimizedAffinity>
-4.76348639

$$$$

 OpenBabel03272509063D

 26 27  0  0  0  0  0  0  0  0999 V2000
   35.5530   30.5810   34.4980 C   0  0  0  0  0  0  0  0  0  0  0  0
   36.4870   30.8710   35.0140 H   0  0  0  0  0  0  0  0  0  0  0  0
   35.4140   31.2750   33.6230 H   0  0  0  0  0  0  0  0  0  0  0  0
   34.3700   30.7180   35.3900 C   0  0  0  0  0  0  0  0  0  0  0  0
   34.2710   31.5970   36.4370 C   0  0  0  0  0  0  0  0  0  0  0  0
   33.1350   31.6570   37.2130 C   0  0  0  0  0  0  0  0  0  0  0  0
   32.0470   30.8280   36.9630 C   0  0  0  0  0  0  0  0  0  0  0  0
   32.1230   29.9460   35.9270 C   0  0  0  0  0  0  0  0  0  0  0  0
   33.2680   29.9030   35.1640 C   0  0  0  0  0  0  0  0  0  0  0  0
   35.1480   32.2390   36.6100 H   0  0  0  0  0  0  0  0  0  0  0  0
   33.1060   32.3620   38.0220 H   0  0  0  0  0  0  0  0  0  0  0  0
   31.1810   30.9180   37.6050 H   0  0  0  0  0  0  0  0  0  0  0  0
   31.2740   29.2810   35.7110 H   0  0  0  0  0  0  0  0  0  0  0  0
   33.2990   29.1910   34.3460 H   0  0  0  0  0  0  0  0  0  0  0  0
   36.2840   28.8650   32.8440 C   0  0  0  0  0  3  0  0  0  0  0  0
   35.6850   29.2280   33.9390 C   0  0  0  0  0  3  0  0  0  0  0  0
   36.9980   25.2750   32.7770 C   0  0  0  0  0  0  0  0  0  0  0  0
   36.1840   24.8420   31.7080 C   0  0  0  0  0  0  0  0  0  0  0  0
   35.4000   25.8270   31.0330 C   0  0  0  0  0  0  0  0  0  0  0  0
   35.4940   27.1060   31.4690 N   0  0  0  0  0  0  0  0  0  0  0  0
   36.2860   27.4630   32.4920 C   0  0  0  0  0  0  0  0  0  0  0  0
   37.0230   26.5580   33.1300 N   0  0  0  0  0  0  0  0  0  0  0  0
   37.5600   24.4890   33.2400 H   0  0  0  0  0  0  0  0  0  0  0  0
   36.0850   23.8310   31.3350 H   0  0  0  0  0  0  0  0  0  0  0  0
   34.5700   25.4970   29.9710 O   0  0  0  0  0  0  0  0  0  0  0  0
   34.5660   24.5370   29.5960 H   0  0  0  0  0  0  0  0  0  0  0  0
  1  2  1  0  0  0  0
  1  4  1  0  0  0  0
  3  1  1  0  0  0  0
  4  5  1  0  0  0  0
  5 10  1  0  0  0  0
  5  6  2  0  0  0  0
  6 11  1  0  0  0  0
  7  6  1  0  0  0  0
  7 12  1  0  0  0  0
  8  7  2  0  0  0  0
  9  4  2  0  0  0  0
  9  8  1  0  0  0  0
 13  8  1  0  0  0  0
 14  9  1  0  0  0  0
 15 16  2  0  0  0  0
 16  1  1  0  0  0  0
 17 22  1  0  0  0  0
 17 23  1  0  0  0  0
 18 17  2  0  0  0  0
 19 20  2  0  0  0  0
 19 18  1  0  0  0  0
 20 21  1  0  0  0  0
 21 15  1  0  0  0  0
 21 22  2  0  0  0  0
 24 18  1  0  0  0  0
 25 19  1  0  0  0  0
 26 25  1  0  0  0  0
M  END
>  <minimizedAffinity>
-4.69985199

$$$$

 OpenBabel03272509063D

 26 27  0  0  0  0  0  0  0  0999 V2000
   36.0590   23.4700   31.1810 C   0  0  0  0  0  0  0  0  0  0  0  0
   35.0880   23.9790   31.3270 H   0  0  0  0  0  0  0  0  0  0  0  0
   36.3410   23.5730   30.0970 H   0  0  0  0  0  0  0  0  0  0  0  0
   35.9710   22.0200   31.5010 C   0  0  0  0  0  0  0  0  0  0  0  0
   35.1040   21.4650   32.4060 C   0  0  0  0  0  0  0  0  0  0  0  0
   35.0900   20.1070   32.6400 C   0  0  0  0  0  0  0  0  0  0  0  0
   35.9550   19.2510   31.9680 C   0  0  0  0  0  0  0  0  0  0  0  0
   36.8250   19.7810   31.0630 C   0  0  0  0  0  0  0  0  0  0  0  0
   36.8220   21.1400   30.8450 C   0  0  0  0  0  0  0  0  0  0  0  0
   34.4330   22.1680   32.9230 H   0  0  0  0  0  0  0  0  0  0  0  0
   34.3930   19.7210   33.3590 H   0  0  0  0  0  0  0  0  0  0  0  0
   35.8990   18.1940   32.1920 H   0  0  0  0  0  0  0  0  0  0  0  0
   37.5170   19.1220   30.5200 H   0  0  0  0  0  0  0  0  0  0  0  0
   37.5260   21.5330   30.1180 H   0  0  0  0  0  0  0  0  0  0  0  0
   37.0040   25.2360   32.6660 C   0  0  0  0  0  3  0  0  0  0  0  0
   37.1070   24.1550   31.9510 C   0  0  0  0  0  3  0  0  0  0  0  0
   40.4780   25.9660   33.5590 C   0  0  0  0  0  0  0  0  0  0  0  0
   40.3160   26.7340   34.7320 C   0  0  0  0  0  0  0  0  0  0  0  0
   38.9830   26.9780   35.1840 C   0  0  0  0  0  0  0  0  0  0  0  0
   37.9710   26.4540   34.4520 N   0  0  0  0  0  0  0  0  0  0  0  0
   38.1820   25.7300   33.3420 C   0  0  0  0  0  0  0  0  0  0  0  0
   39.4170   25.4940   32.9090 N   0  0  0  0  0  0  0  0  0  0  0  0
   41.5000   25.8200   33.2750 H   0  0  0  0  0  0  0  0  0  0  0  0
   41.1010   27.1670   35.3400 H   0  0  0  0  0  0  0  0  0  0  0  0
   38.7240   27.7210   36.3260 O   0  0  0  0  0  0  0  0  0  0  0  0
   39.5020   28.0470   36.9190 H   0  0  0  0  0  0  0  0  0  0  0  0
  1  2  1  0  0  0  0
  1  4  1  0  0  0  0
  1 16  1  0  0  0  0
  3  1  1  0  0  0  0
  4  5  1  0  0  0  0
  5  6  2  0  0  0  0
  5 10  1  0  0  0  0
  6 11  1  0  0  0  0
  7 12  1  0  0  0  0
  7  6  1  0  0  0  0
  8  7  2  0  0  0  0
  9  8  1  0  0  0  0
  9  4  2  0  0  0  0
 13  8  1  0  0  0  0
 14  9  1  0  0  0  0
 15 21  1  0  0  0  0
 16 15  2  0  0  0  0
 17 18  1  0  0  0  0
 18 19  2  0  0  0  0
 18 24  1  0  0  0  0
 19 25  1  0  0  0  0
 20 19  1  0  0  0  0
 21 20  2  0  0  0  0
 22 21  1  0  0  0  0
 22 17  2  0  0  0  0
 23 17  1  0  0  0  0
 25 26  1  0  0  0  0
M  END
>  <minimizedAffinity>
-4.69271421

$$$$
