
 OpenBabel03272509313D

 31 32  0  0  1  0  0  0  0  0999 V2000
   36.1040   30.6840   49.0610 C   0  0  2  0  0  0  0  0  0  0  0  0
   37.0520   31.6180   49.7500 C   0  0  0  0  0  0  0  0  0  0  0  0
   38.0520   30.9000   50.6290 C   0  0  0  0  0  0  0  0  0  0  0  0
   37.3370   30.0280   51.6580 C   0  0  0  0  0  0  0  0  0  0  0  0
   36.0780   29.3790   51.1400 C   0  0  0  0  0  0  0  0  0  0  0  0
   36.1830   29.2970   49.6040 C   0  0  1  0  0  0  0  0  0  0  0  0
   35.0250   30.9970   49.1500 H   0  0  0  0  0  0  0  0  0  0  0  0
   36.4000   32.1810   50.5010 H   0  0  0  0  0  0  0  0  0  0  0  0
   37.5100   32.3850   49.1580 H   0  0  0  0  0  0  0  0  0  0  0  0
   38.7940   30.3080   50.0880 H   0  0  0  0  0  0  0  0  0  0  0  0
   38.5840   31.6810   51.2050 H   0  0  0  0  0  0  0  0  0  0  0  0
   37.1490   30.5700   52.5980 H   0  0  0  0  0  0  0  0  0  0  0  0
   38.0420   29.2000   51.9180 H   0  0  0  0  0  0  0  0  0  0  0  0
   35.2100   30.0070   51.4220 H   0  0  0  0  0  0  0  0  0  0  0  0
   35.9390   28.3800   51.5570 H   0  0  0  0  0  0  0  0  0  0  0  0
   37.1620   28.8910   49.5130 H   0  0  0  0  0  0  0  0  0  0  0  0
   36.3640   30.6440   47.5980 C   0  0  0  0  0  0  0  0  0  0  0  0
   37.6330   31.0970   47.1930 C   0  0  0  0  0  0  0  0  0  0  0  0
   37.8980   31.0630   45.8200 C   0  0  0  0  0  0  0  0  0  0  0  0
   36.9240   30.5970   44.9630 N   0  0  0  0  0  0  0  0  0  0  0  0
   35.7020   30.1660   45.4150 C   0  0  0  0  0  0  0  0  0  0  0  0
   35.4450   30.1990   46.7340 N   0  0  0  0  0  0  0  0  0  0  0  0
   38.4700   31.4700   47.7510 H   0  0  0  0  0  0  0  0  0  0  0  0
   38.8190   31.3770   45.3630 H   0  0  0  0  0  0  0  0  0  0  0  0
   34.9890   29.8150   44.6980 H   0  0  0  0  0  0  0  0  0  0  0  0
   33.9020   28.2560   49.1830 C   0  0  0  0  0  0  0  0  0  0  0  0
   33.0890   28.9420   49.8680 O   0  0  0  0  0  0  0  0  0  0  0  0
   35.3070   28.3620   48.9940 N   0  0  0  0  0  0  0  0  0  0  0  0
   35.6860   27.6320   48.3050 H   0  0  0  0  0  0  0  0  0  0  0  0
   33.1470   27.2630   48.5620 O   0  0  0  0  0  0  0  0  0  0  0  0
   32.1840   27.0610   48.7010 H   0  0  0  0  0  0  0  0  0  0  0  0
  1  7  1  1  0  0  0
  1  6  1  0  0  0  0
  1  2  1  0  0  0  0
  2  8  1  0  0  0  0
  2  3  1  0  0  0  0
  3 11  1  0  0  0  0
  3  4  1  0  0  0  0
  4 13  1  0  0  0  0
  4 12  1  0  0  0  0
  5 14  1  0  0  0  0
  5 15  1  0  0  0  0
  5  4  1  0  0  0  0
  6 16  1  6  0  0  0
  6  5  1  0  0  0  0
  9  2  1  0  0  0  0
 10  3  1  0  0  0  0
 17  1  1  0  0  0  0
 18 17  1  0  0  0  0
 18 23  1  0  0  0  0
 19 18  2  0  0  0  0
 20 21  2  0  0  0  0
 20 19  1  0  0  0  0
 21 22  1  0  0  0  0
 22 17  2  0  0  0  0
 24 19  1  0  0  0  0
 25 21  1  0  0  0  0
 26 27  2  0  0  0  0
 28 26  1  0  0  0  0
 28  6  1  0  0  0  0
 29 28  1  0  0  0  0
 30 31  1  0  0  0  0
 30 26  1  0  0  0  0
M  END
>  <minimizedAffinity>
-5.38858032

>  <minimizedRMSD>
0.063708365

$$$$
