REMARK  Name = 
REMARK  9 active torsions:
REMARK  status: ('A' for Active; 'I' for Inactive)
REMARK    1  A    between atoms: C_1  and  C_4
REMARK    2  A    between atoms: C_1  and  C_14
REMARK    3  A    between atoms: C_7  and  C_9
REMARK    4  A    between atoms: C_8  and  O_10
REMARK    5  A    between atoms: O_10  and  C_11
REMARK    6  A    between atoms: C_14  and  C_16
REMARK    7  A    between atoms: C_15  and  C_21
REMARK    8  A    between atoms: C_23  and  C_24
REMARK    9  A    between atoms: C_24  and  O_43
REMARK                            x       y       z     vdW  Elec       q    Type
REMARK                         _______ _______ _______ _____ _____    ______ ____
ROOT
ATOM      1  C   UNL     1      33.914  28.397  47.948  0.00  0.00    +0.000 C 
ATOM      2  H   UNL     1      33.475  29.032  47.150  0.00  0.00    +0.000 HD
ATOM      3  H   UNL     1      34.345  27.506  47.398  0.00  0.00    +0.000 HD
ENDROOT
BRANCH   1   6
ATOM      4  F   UNL     1      35.206  30.614  46.885  0.00  0.00    +0.000 F 
ATOM      5  C   UNL     1      35.584  30.087  48.102  0.00  0.00    +0.000 A 
ATOM      6  C   UNL     1      34.960  28.978  48.698  0.00  0.00    +0.000 A 
ATOM      7  C   UNL     1      35.472  28.641  49.871  0.00  0.00    +0.000 A 
ATOM      8  C   UNL     1      36.507  29.272  50.492  0.00  0.00    +0.000 A 
ATOM      9  C   UNL     1      37.132  30.371  49.907  0.00  0.00    +0.000 A 
ATOM     10  C   UNL     1      36.614  30.709  48.723  0.00  0.00    +0.000 A 
ATOM     11  H   UNL     1      35.011  27.767  50.385  0.00  0.00    +0.000 HD
ATOM     12  H   UNL     1      36.835  28.886  51.470  0.00  0.00    +0.000 HD
BRANCH   9  13
ATOM     13  C   UNL     1      38.246  31.044  50.572  0.00  0.00    +0.000 C 
ATOM     14  H   UNL     1      38.095  31.082  51.664  0.00  0.00    +0.000 HD
ATOM     15  H   UNL     1      39.218  30.539  50.331  0.00  0.00    +0.000 HD
ATOM     16  H   UNL     1      38.304  32.111  50.210  0.00  0.00    +0.000 HD
ENDBRANCH   9  13
BRANCH  10  17
ATOM     17  O   UNL     1      37.269  31.847  48.106  0.00  0.00    +0.000 OA
BRANCH  17  18
ATOM     18  C   UNL     1      38.370  31.564  47.377  0.00  0.00    +0.000 C 
ATOM     19  O   UNL     1      39.234  32.504  47.374  0.00  0.00    +0.000 OA
ATOM     20  N   UNL     1      38.795  30.475  46.617  0.00  0.00    +0.000 N 
ATOM     21  H   UNL     1      39.789  30.173  46.481  0.00  0.00    +0.000 HD
ATOM     22  H   UNL     1      39.118  29.659  46.048  0.00  0.00    +0.000 HD
ENDBRANCH  17  18
ENDBRANCH  10  17
ENDBRANCH   1   6
BRANCH   1  23
ATOM     23  C   UNL     1      32.745  27.875  48.726  0.00  0.00    +0.000 C 
ATOM     24  H   UNL     1      33.133  27.242  49.550  0.00  0.00    +0.000 HD
ATOM     25  H   UNL     1      32.276  28.772  49.230  0.00  0.00    +0.000 HD
BRANCH  23  27
ATOM     26  C   UNL     1      30.423  27.210  48.381  0.00  0.00    +0.000 A 
ATOM     27  C   UNL     1      31.735  27.208  47.956  0.00  0.00    +0.000 A 
ATOM     28  C   UNL     1      31.959  26.574  46.799  0.00  0.00    +0.000 A 
ATOM     29  N   UNL     1      30.970  25.982  46.102  0.00  0.00    +0.000 NA
ATOM     30  C   UNL     1      29.686  25.968  46.491  0.00  0.00    +0.000 A 
ATOM     31  N   UNL     1      29.401  26.583  47.635  0.00  0.00    +0.000 NA
ATOM     32  H   UNL     1      32.938  26.493  46.346  0.00  0.00    +0.000 HD
ATOM     33  H   UNL     1      28.860  25.520  45.988  0.00  0.00    +0.000 HD
BRANCH  26  34
ATOM     34  C   UNL     1      29.987  27.790  49.686  0.00  0.00    +0.000 C 
ATOM     35  C   UNL     1      28.913  28.759  49.695  0.00  0.00    +0.000 C 
ATOM     36  C   UNL     1      28.639  27.286  50.122  0.00  0.00    +0.000 C 
ATOM     37  H   UNL     1      30.797  28.029  50.395  0.00  0.00    +0.000 HD
ATOM     38  H   UNL     1      28.858  29.535  50.476  0.00  0.00    +0.000 HD
ATOM     39  H   UNL     1      28.514  29.098  48.725  0.00  0.00    +0.000 HD
ATOM     40  H   UNL     1      27.934  26.819  49.376  0.00  0.00    +0.000 HD
BRANCH  36  41
ATOM     41  C   UNL     1      28.326  27.175  51.551  0.00  0.00    +0.000 C 
ATOM     42  O   UNL     1      27.231  26.699  51.821  0.00  0.00    +0.000 OA
BRANCH  41  43
ATOM     43  O   UNL     1      29.242  27.595  52.507  0.00  0.00    +0.000 OA
ATOM     44  H   UNL     1      29.137  28.510  52.975  0.00  0.00    +0.000 HD
ENDBRANCH  41  43
ENDBRANCH  36  41
ENDBRANCH  26  34
ENDBRANCH  23  27
ENDBRANCH   1  23
TORSDOF 9
