
 OpenBabel03272508233D

 44 46  0  0  1  0  0  0  0  0999 V2000
   33.5620   28.4810   48.0280 C   0  0  0  0  0  0  0  0  0  0  0  0
   33.1400   29.1800   47.2750 H   0  0  0  0  0  0  0  0  0  0  0  0
   33.9870   27.6280   47.4170 H   0  0  0  0  0  0  0  0  0  0  0  0
   34.9650   30.6900   47.0970 F   0  0  0  0  0  0  0  0  0  0  0  0
   35.2880   30.0980   48.3000 C   0  0  0  0  0  0  0  0  0  0  0  0
   34.6070   28.9890   48.8300 C   0  0  0  0  0  0  0  0  0  0  0  0
   35.0720   28.5830   50.0010 C   0  0  0  0  0  0  0  0  0  0  0  0
   36.1120   29.1470   50.6760 C   0  0  0  0  0  0  0  0  0  0  0  0
   36.7940   30.2450   50.1560 C   0  0  0  0  0  0  0  0  0  0  0  0
   36.3220   30.6530   48.9740 C   0  0  0  0  0  0  0  0  0  0  0  0
   34.5650   27.7070   50.4640 H   0  0  0  0  0  0  0  0  0  0  0  0
   36.3980   28.7080   51.6450 H   0  0  0  0  0  0  0  0  0  0  0  0
   37.9130   30.8470   50.8790 C   0  0  0  0  0  0  0  0  0  0  0  0
   37.7320   30.8440   51.9670 H   0  0  0  0  0  0  0  0  0  0  0  0
   38.8720   30.3150   50.6430 H   0  0  0  0  0  0  0  0  0  0  0  0
   38.0200   31.9250   50.5660 H   0  0  0  0  0  0  0  0  0  0  0  0
   37.0360   31.7900   48.4250 O   0  0  0  0  0  0  0  0  0  0  0  0
   38.1580   31.4980   47.7330 C   0  0  0  0  0  0  0  0  0  0  0  0
   39.0610   32.3960   47.8230 O   0  0  0  0  0  0  0  0  0  0  0  0
   38.5720   30.4340   46.9320 N   0  0  0  0  0  0  0  0  0  0  0  0
   39.5580   30.0950   46.8240 H   0  0  0  0  0  0  0  0  0  0  0  0
   38.8870   29.6370   46.3320 H   0  0  0  0  0  0  0  0  0  0  0  0
   32.3770   27.9190   48.7520 C   0  0  0  0  0  0  0  0  0  0  0  0
   32.7490   27.2830   49.5820 H   0  0  0  0  0  0  0  0  0  0  0  0
   31.8670   28.7960   49.2510 H   0  0  0  0  0  0  0  0  0  0  0  0
   30.0760   27.2680   48.2670 C   0  0  0  0  0  0  0  0  0  0  0  0
   31.4140   27.2390   47.9340 C   0  0  0  0  0  0  0  0  0  0  0  0
   31.7100   26.5670   46.8150 C   0  0  0  0  0  0  0  0  0  0  0  0
   30.7640   25.9650   46.0690 N   0  0  0  0  0  0  0  0  0  0  0  0
   29.4560   25.9760   46.3680 C   0  0  0  0  0  0  0  0  0  0  0  0
   29.1000   26.6290   47.4700 N   0  0  0  0  0  0  0  0  0  0  0  0
   32.7170   26.4620   46.4340 H   0  0  0  0  0  0  0  0  0  0  0  0
   28.6610   25.5220   45.8220 H   0  0  0  0  0  0  0  0  0  0  0  0
   29.5580   27.8930   49.5200 C   0  0  1  0  0  0  0  0  0  0  0  0
   28.6280   28.9960   49.4170 C   0  0  0  0  0  0  0  0  0  0  0  0
   28.1110   27.5700   49.7730 C   0  0  2  0  0  0  0  0  0  0  0  0
   30.2960   28.0170   50.3300 H   0  0  0  0  0  0  0  0  0  0  0  0
   28.5770   29.7670   50.2030 H   0  0  0  0  0  0  0  0  0  0  0  0
   28.4040   29.3910   48.4130 H   0  0  0  0  0  0  0  0  0  0  0  0
   27.4510   27.2060   48.9340 H   0  0  0  0  0  0  0  0  0  0  0  0
   27.6080   27.4930   51.1490 C   0  0  0  0  0  0  0  0  0  0  0  0
   26.4370   27.8120   51.3060 O   0  0  0  0  0  0  0  0  0  0  0  0
   28.4400   27.0780   52.1800 O   0  0  0  0  0  0  0  0  0  0  0  0
   28.0590   26.8650   53.1170 H   0  0  0  0  0  0  0  0  0  0  0  0
  1 23  1  0  0  0  0
  1  6  1  0  0  0  0
  2  1  1  0  0  0  0
  3  1  1  0  0  0  0
  4  5  1  0  0  0  0
  5  6  2  0  0  0  0
  5 10  1  0  0  0  0
  6  7  1  0  0  0  0
  7 11  1  0  0  0  0
  7  8  2  0  0  0  0
  8 12  1  0  0  0  0
  9  8  1  0  0  0  0
  9 13  1  0  0  0  0
 10  9  2  0  0  0  0
 13 14  1  0  0  0  0
 15 13  1  0  0  0  0
 16 13  1  0  0  0  0
 17 10  1  0  0  0  0
 18 19  2  0  0  0  0
 18 17  1  0  0  0  0
 20 18  1  0  0  0  0
 21 20  1  0  0  0  0
 22 20  1  0  0  0  0
 23 25  1  0  0  0  0
 23 24  1  0  0  0  0
 26 34  1  0  0  0  0
 27 26  1  0  0  0  0
 27 23  1  0  0  0  0
 28 27  2  0  0  0  0
 29 30  2  0  0  0  0
 29 28  1  0  0  0  0
 30 31  1  0  0  0  0
 31 26  2  0  0  0  0
 32 28  1  0  0  0  0
 33 30  1  0  0  0  0
 34 36  1  0  0  0  0
 34 37  1  1  0  0  0
 35 34  1  0  0  0  0
 35 36  1  0  0  0  0
 35 38  1  0  0  0  0
 36 40  1  6  0  0  0
 36 41  1  0  0  0  0
 39 35  1  0  0  0  0
 41 42  2  0  0  0  0
 41 43  1  0  0  0  0
 43 44  1  0  0  0  0
M  END
>  <minimizedAffinity>
-6.50575256

>  <minimizedRMSD>
0.545549989

$$$$
