
 OpenBabel03272503243D

 31 33  0  0  1  0  0  0  0  0999 V2000
   36.3430   29.9090   49.1870 N   0  0  0  0  0  0  0  0  0  0  0  0
   36.8390   31.2650   49.0090 C   0  0  1  0  0  0  0  0  0  0  0  0
   37.5460   31.4850   50.3420 C   0  0  0  0  0  0  0  0  0  0  0  0
   37.2360   30.2740   51.2130 C   0  0  0  0  0  0  0  0  0  0  0  0
   37.1540   29.2000   50.1500 C   0  0  0  0  0  0  0  0  0  0  0  0
   35.9920   31.9810   48.9310 H   0  0  0  0  0  0  0  0  0  0  0  0
   37.1000   32.3530   50.8660 H   0  0  0  0  0  0  0  0  0  0  0  0
   38.6270   31.6430   50.2110 H   0  0  0  0  0  0  0  0  0  0  0  0
   38.1230   30.0630   51.8390 H   0  0  0  0  0  0  0  0  0  0  0  0
   36.2930   30.3870   51.7600 H   0  0  0  0  0  0  0  0  0  0  0  0
   38.1530   28.9510   49.7900 H   0  0  0  0  0  0  0  0  0  0  0  0
   36.6120   28.3100   50.5240 H   0  0  0  0  0  0  0  0  0  0  0  0
   37.7710   31.3920   47.8780 C   0  0  0  0  0  0  0  0  0  0  0  0
   38.9250   31.6700   48.1200 O   0  0  0  0  0  0  0  0  0  0  0  0
   37.8900   31.3210   46.4600 N   0  0  0  0  0  0  0  0  0  0  0  0
   38.6680   32.5060   46.1270 C   0  0  0  0  0  3  0  0  0  0  0  0
   39.6730   32.3800   46.5300 H   0  0  0  0  0  0  0  0  0  0  0  0
   38.7410   32.5170   44.6030 C   0  0  0  0  0  3  0  0  0  0  0  0
   39.2880   33.4560   44.3440 H   0  0  0  0  0  0  0  0  0  0  0  0
   37.4570   32.5350   44.0980 O   0  0  0  0  0  0  0  0  0  0  0  0
   36.8140   31.3410   44.3240 C   0  0  0  0  0  2  0  0  0  0  0  0
   37.4850   30.4660   45.3590 C   0  0  0  0  0  2  0  0  0  0  0  0
   35.2150   29.3710   48.5060 C   0  0  0  0  0  0  0  0  0  0  0  0
   34.5670   30.1770   47.5580 C   0  0  0  0  0  0  0  0  0  0  0  0
   33.4610   29.6960   46.8650 C   0  0  0  0  0  0  0  0  0  0  0  0
   33.0640   28.4030   47.1760 N   0  0  0  0  0  0  0  0  0  0  0  0
   33.6990   27.6630   48.0830 C   0  0  0  0  0  0  0  0  0  0  0  0
   34.7830   28.1450   48.7540 N   0  0  0  0  0  0  0  0  0  0  0  0
   34.8770   31.1880   47.3120 H   0  0  0  0  0  0  0  0  0  0  0  0
   32.9560   30.3090   46.1320 H   0  0  0  0  0  0  0  0  0  0  0  0
   33.3370   26.6820   48.2690 H   0  0  0  0  0  0  0  0  0  0  0  0
  1  5  1  0  0  0  0
  2  6  1  6  0  0  0
  2  1  1  0  0  0  0
  2  3  1  0  0  0  0
  3  7  1  0  0  0  0
  3  4  1  0  0  0  0
  4 10  1  0  0  0  0
  4  9  1  0  0  0  0
  5 12  1  0  0  0  0
  5  4  1  0  0  0  0
  8  3  1  0  0  0  0
 11  5  1  0  0  0  0
 13 14  2  0  0  0  0
 13  2  1  0  0  0  0
 15 13  1  0  0  0  0
 16 15  1  0  0  0  0
 16 17  1  0  0  0  0
 18 16  1  0  0  0  0
 19 18  1  0  0  0  0
 20 21  1  0  0  0  0
 20 18  1  0  0  0  0
 21 22  1  0  0  0  0
 22 15  1  0  0  0  0
 23 28  1  0  0  0  0
 23  1  1  0  0  0  0
 24 23  2  0  0  0  0
 25 26  2  0  0  0  0
 25 24  1  0  0  0  0
 26 27  1  0  0  0  0
 27 31  1  0  0  0  0
 27 28  2  0  0  0  0
 29 24  1  0  0  0  0
 30 25  1  0  0  0  0
M  END
>  <minimizedAffinity>
-5.52292013

>  <minimizedRMSD>
1.59225225

$$$$
