
 OpenBabel03272508163D

 29 31  0  0  0  0  0  0  0  0999 V2000
   38.3700   26.9870   33.1160 Cl  0  0  0  0  0  0  0  0  0  0  0  0
   37.2310   25.9010   32.3870 C   0  0  0  0  0  0  0  0  0  0  0  0
   36.2580   26.5380   31.6730 C   0  0  0  0  0  0  0  0  0  0  0  0
   35.2750   25.7520   31.0320 C   0  0  0  0  0  0  0  0  0  0  0  0
   35.2930   24.3800   31.1220 C   0  0  0  0  0  0  0  0  0  0  0  0
   36.2900   23.7770   31.8500 C   0  0  0  0  0  0  0  0  0  0  0  0
   36.3380   22.0360   31.9810 Cl  0  0  0  0  0  0  0  0  0  0  0  0
   37.2410   24.5410   32.4710 C   0  0  0  0  0  0  0  0  0  0  0  0
   34.4660   26.1500   30.4460 H   0  0  0  0  0  0  0  0  0  0  0  0
   34.5610   23.7410   30.6480 H   0  0  0  0  0  0  0  0  0  0  0  0
   38.3150   23.9410   33.2590 C   0  0  0  0  0  0  0  0  0  0  0  0
   39.3000   23.2710   32.8650 O   0  0  0  0  0  0  0  0  0  0  0  0
   38.5400   23.9490   34.6790 N   0  0  0  0  0  0  0  0  0  0  0  0
   39.7610   23.1980   34.9060 C   0  0  0  0  0  3  0  0  0  0  0  0
   39.5360   22.1310   34.7090 H   0  0  0  0  0  0  0  0  0  0  0  0
   40.1150   23.3420   36.3680 C   0  0  0  0  0  3  0  0  0  0  0  0
   41.0860   22.8810   36.5870 H   0  0  0  0  0  0  0  0  0  0  0  0
   39.0990   22.8280   37.1590 O   0  0  0  0  0  0  0  0  0  0  0  0
   37.8580   23.3160   36.8540 C   0  0  0  0  0  2  0  0  0  0  0  0
   37.8850   24.4880   35.8680 C   0  0  0  0  0  2  0  0  0  0  0  0
   35.1740   28.6500   32.3530 C   0  0  0  0  0  0  0  0  0  0  0  0
   36.0350   27.9730   31.4400 C   0  0  0  0  0  0  0  0  0  0  0  0
   36.5880   28.7080   30.4120 C   0  0  0  0  0  0  0  0  0  0  0  0
   36.2860   30.0320   30.3270 N   0  0  0  0  0  0  0  0  0  0  0  0
   35.4720   30.6420   31.2030 C   0  0  0  0  0  0  0  0  0  0  0  0
   34.9110   29.9500   32.2220 N   0  0  0  0  0  0  0  0  0  0  0  0
   34.7200   28.0860   33.1810 H   0  0  0  0  0  0  0  0  0  0  0  0
   37.2380   28.1810   29.7280 H   0  0  0  0  0  0  0  0  0  0  0  0
   35.2960   31.7080   31.0420 H   0  0  0  0  0  0  0  0  0  0  0  0
  2  8  1  0  0  0  0
  2  1  1  0  0  0  0
  3  2  2  0  0  0  0
  4  5  2  0  0  0  0
  4  3  1  0  0  0  0
  5  6  1  0  0  0  0
  6  7  1  0  0  0  0
  6  8  2  0  0  0  0
  8 11  1  0  0  0  0
  9  4  1  0  0  0  0
 10  5  1  0  0  0  0
 11 13  1  0  0  0  0
 12 11  2  0  0  0  0
 13 14  1  0  0  0  0
 13 20  1  0  0  0  0
 14 16  1  0  0  0  0
 15 14  1  0  0  0  0
 16 17  1  0  0  0  0
 16 18  1  0  0  0  0
 19 18  1  0  0  0  0
 20 19  1  0  0  0  0
 21 27  1  0  0  0  0
 22  3  1  0  0  0  0
 22 21  2  0  0  0  0
 23 22  1  0  0  0  0
 24 23  2  0  0  0  0
 24 25  1  0  0  0  0
 25 26  2  0  0  0  0
 26 21  1  0  0  0  0
 28 23  1  0  0  0  0
 29 25  1  0  0  0  0
M  END
>  <minimizedAffinity>
-5.43358803

$$$$

 OpenBabel03272508163D

 29 31  0  0  0  0  0  0  0  0999 V2000
   39.0860   25.6160   33.3280 Cl  0  0  0  0  0  0  0  0  0  0  0  0
   37.8750   24.5190   32.7460 C   0  0  0  0  0  0  0  0  0  0  0  0
   37.1120   25.0400   31.7420 C   0  0  0  0  0  0  0  0  0  0  0  0
   36.0930   24.2330   31.1880 C   0  0  0  0  0  0  0  0  0  0  0  0
   35.8730   22.9550   31.6450 C   0  0  0  0  0  0  0  0  0  0  0  0
   36.6630   22.4670   32.6570 C   0  0  0  0  0  0  0  0  0  0  0  0
   36.4050   20.8470   33.2550 Cl  0  0  0  0  0  0  0  0  0  0  0  0
   37.6490   23.2520   33.1920 C   0  0  0  0  0  0  0  0  0  0  0  0
   35.4370   24.5430   30.3960 H   0  0  0  0  0  0  0  0  0  0  0  0
   35.1050   22.3050   31.2490 H   0  0  0  0  0  0  0  0  0  0  0  0
   38.5080   22.7740   34.2730 C   0  0  0  0  0  0  0  0  0  0  0  0
   39.3580   21.8520   34.2530 O   0  0  0  0  0  0  0  0  0  0  0  0
   38.6180   23.2180   35.6360 N   0  0  0  0  0  0  0  0  0  0  0  0
   39.6330   22.3880   36.2580 C   0  0  0  0  0  3  0  0  0  0  0  0
   39.2060   21.3720   36.3750 H   0  0  0  0  0  0  0  0  0  0  0  0
   39.8950   22.9500   37.6370 C   0  0  0  0  0  3  0  0  0  0  0  0
   40.7280   22.4280   38.1240 H   0  0  0  0  0  0  0  0  0  0  0  0
   38.7350   22.9140   38.3960 O   0  0  0  0  0  0  0  0  0  0  0  0
   37.6520   23.4780   37.7790 C   0  0  0  0  0  2  0  0  0  0  0  0
   38.0010   24.2290   36.4900 C   0  0  0  0  0  2  0  0  0  0  0  0
   38.3040   26.6500   30.3000 C   0  0  0  0  0  0  0  0  0  0  0  0
   37.1600   26.3620   31.0990 C   0  0  0  0  0  0  0  0  0  0  0  0
   36.1910   27.3380   31.2120 C   0  0  0  0  0  0  0  0  0  0  0  0
   36.3790   28.5150   30.5560 N   0  0  0  0  0  0  0  0  0  0  0  0
   37.4670   28.7580   29.8090 C   0  0  0  0  0  0  0  0  0  0  0  0
   38.4370   27.8230   29.6790 N   0  0  0  0  0  0  0  0  0  0  0  0
   39.0910   25.8890   30.1940 H   0  0  0  0  0  0  0  0  0  0  0  0
   35.3300   27.1050   31.8220 H   0  0  0  0  0  0  0  0  0  0  0  0
   37.5180   29.7350   29.3260 H   0  0  0  0  0  0  0  0  0  0  0  0
  2  8  1  0  0  0  0
  2  1  1  0  0  0  0
  3  2  2  0  0  0  0
  4  5  2  0  0  0  0
  4  3  1  0  0  0  0
  5  6  1  0  0  0  0
  6  8  2  0  0  0  0
  6  7  1  0  0  0  0
  8 11  1  0  0  0  0
  9  4  1  0  0  0  0
 10  5  1  0  0  0  0
 11 13  1  0  0  0  0
 12 11  2  0  0  0  0
 13 14  1  0  0  0  0
 13 20  1  0  0  0  0
 14 15  1  0  0  0  0
 14 16  1  0  0  0  0
 16 17  1  0  0  0  0
 16 18  1  0  0  0  0
 19 18  1  0  0  0  0
 20 19  1  0  0  0  0
 21 22  1  0  0  0  0
 22 23  2  0  0  0  0
 22  3  1  0  0  0  0
 23 28  1  0  0  0  0
 24 23  1  0  0  0  0
 25 24  2  0  0  0  0
 26 25  1  0  0  0  0
 26 21  2  0  0  0  0
 27 21  1  0  0  0  0
 29 25  1  0  0  0  0
M  END
>  <minimizedAffinity>
-5.30990028

$$$$

 OpenBabel03272508163D

 29 31  0  0  0  0  0  0  0  0999 V2000
   36.7860   28.0500   34.7520 Cl  0  0  0  0  0  0  0  0  0  0  0  0
   36.4280   28.8300   33.2450 C   0  0  0  0  0  0  0  0  0  0  0  0
   35.5910   29.9000   33.3770 C   0  0  0  0  0  0  0  0  0  0  0  0
   35.2320   30.6160   32.2130 C   0  0  0  0  0  0  0  0  0  0  0  0
   35.7110   30.2490   30.9780 C   0  0  0  0  0  0  0  0  0  0  0  0
   36.5510   29.1670   30.8880 C   0  0  0  0  0  0  0  0  0  0  0  0
   37.1750   28.6800   29.3310 Cl  0  0  0  0  0  0  0  0  0  0  0  0
   36.8970   28.4750   32.0170 C   0  0  0  0  0  0  0  0  0  0  0  0
   34.5810   31.4710   32.2040 H   0  0  0  0  0  0  0  0  0  0  0  0
   35.4610   30.7690   30.0630 H   0  0  0  0  0  0  0  0  0  0  0  0
   37.7850   27.3150   31.9650 C   0  0  0  0  0  0  0  0  0  0  0  0
   39.0380   27.2840   31.9220 O   0  0  0  0  0  0  0  0  0  0  0  0
   37.4760   25.9110   31.9490 N   0  0  0  0  0  0  0  0  0  0  0  0
   38.7470   25.2120   31.8950 C   0  0  0  0  0  3  0  0  0  0  0  0
   39.1720   25.3710   30.8840 H   0  0  0  0  0  0  0  0  0  0  0  0
   38.4590   23.7360   32.0570 C   0  0  0  0  0  3  0  0  0  0  0  0
   39.3880   23.1580   32.1280 H   0  0  0  0  0  0  0  0  0  0  0  0
   37.6410   23.2940   31.0300 O   0  0  0  0  0  0  0  0  0  0  0  0
   36.5130   24.0480   30.8550 C   0  0  0  0  0  2  0  0  0  0  0  0
   36.2810   25.0720   31.9700 C   0  0  0  0  0  2  0  0  0  0  0  0
   35.7630   31.3290   35.3830 C   0  0  0  0  0  0  0  0  0  0  0  0
   34.9590   30.4710   34.5760 C   0  0  0  0  0  0  0  0  0  0  0  0
   33.6600   30.2410   34.9780 C   0  0  0  0  0  0  0  0  0  0  0  0
   33.2180   30.8430   36.1150 N   0  0  0  0  0  0  0  0  0  0  0  0
   33.9980   31.6470   36.8550 C   0  0  0  0  0  0  0  0  0  0  0  0
   35.2780   31.8930   36.4890 N   0  0  0  0  0  0  0  0  0  0  0  0
   36.8020   31.5290   35.0840 H   0  0  0  0  0  0  0  0  0  0  0  0
   33.0640   29.5880   34.3570 H   0  0  0  0  0  0  0  0  0  0  0  0
   33.5440   32.0780   37.7490 H   0  0  0  0  0  0  0  0  0  0  0  0
  2  3  1  0  0  0  0
  2  1  1  0  0  0  0
  3 22  1  0  0  0  0
  4  3  2  0  0  0  0
  5  4  1  0  0  0  0
  6  5  2  0  0  0  0
  6  8  1  0  0  0  0
  7  6  1  0  0  0  0
  8  2  2  0  0  0  0
  9  4  1  0  0  0  0
 10  5  1  0  0  0  0
 11  8  1  0  0  0  0
 12 11  2  0  0  0  0
 13 11  1  0  0  0  0
 13 20  1  0  0  0  0
 14 13  1  0  0  0  0
 14 16  1  0  0  0  0
 15 14  1  0  0  0  0
 16 17  1  0  0  0  0
 18 16  1  0  0  0  0
 19 18  1  0  0  0  0
 19 20  1  0  0  0  0
 21 26  1  0  0  0  0
 22 23  1  0  0  0  0
 22 21  2  0  0  0  0
 23 24  2  0  0  0  0
 24 25  1  0  0  0  0
 25 29  1  0  0  0  0
 26 25  2  0  0  0  0
 27 21  1  0  0  0  0
 28 23  1  0  0  0  0
M  END
>  <minimizedAffinity>
-5.2604847

$$$$

 OpenBabel03272508163D

 29 31  0  0  0  0  0  0  0  0999 V2000
   36.2640   28.0010   34.5090 Cl  0  0  0  0  0  0  0  0  0  0  0  0
   36.0460   29.1030   33.1870 C   0  0  0  0  0  0  0  0  0  0  0  0
   36.2810   28.5360   31.9680 C   0  0  0  0  0  0  0  0  0  0  0  0
   36.1300   29.3410   30.8160 C   0  0  0  0  0  0  0  0  0  0  0  0
   35.7570   30.6600   30.9160 C   0  0  0  0  0  0  0  0  0  0  0  0
   35.5300   31.1930   32.1620 C   0  0  0  0  0  0  0  0  0  0  0  0
   35.0550   32.8660   32.3170 Cl  0  0  0  0  0  0  0  0  0  0  0  0
   35.6770   30.4110   33.2760 C   0  0  0  0  0  0  0  0  0  0  0  0
   36.2900   28.9970   29.8110 H   0  0  0  0  0  0  0  0  0  0  0  0
   35.6310   31.3110   30.0610 H   0  0  0  0  0  0  0  0  0  0  0  0
   35.4500   30.9380   34.6200 C   0  0  0  0  0  0  0  0  0  0  0  0
   36.2920   31.3300   35.4640 O   0  0  0  0  0  0  0  0  0  0  0  0
   34.2230   31.1510   35.3380 N   0  0  0  0  0  0  0  0  0  0  0  0
   34.5930   31.6970   36.6310 C   0  0  0  0  0  3  0  0  0  0  0  0
   35.0680   30.8820   37.2120 H   0  0  0  0  0  0  0  0  0  0  0  0
   33.3170   32.0950   37.3360 C   0  0  0  0  0  3  0  0  0  0  0  0
   33.5310   32.6110   38.2800 H   0  0  0  0  0  0  0  0  0  0  0  0
   32.5030   30.9870   37.5140 O   0  0  0  0  0  0  0  0  0  0  0  0
   32.2860   30.2690   36.3710 C   0  0  0  0  0  2  0  0  0  0  0  0
   32.7940   30.9640   35.1030 C   0  0  0  0  0  2  0  0  0  0  0  0
   35.6450   26.2520   31.2770 C   0  0  0  0  0  0  0  0  0  0  0  0
   36.6860   27.1660   31.6170 C   0  0  0  0  0  0  0  0  0  0  0  0
   37.9830   26.7010   31.5950 C   0  0  0  0  0  0  0  0  0  0  0  0
   38.2000   25.4030   31.2500 N   0  0  0  0  0  0  0  0  0  0  0  0
   37.2000   24.5650   30.9340 C   0  0  0  0  0  0  0  0  0  0  0  0
   35.9150   24.9890   30.9470 N   0  0  0  0  0  0  0  0  0  0  0  0
   34.6020   26.5990   31.2880 H   0  0  0  0  0  0  0  0  0  0  0  0
   38.7610   27.4050   31.8560 H   0  0  0  0  0  0  0  0  0  0  0  0
   37.4840   23.5440   30.6720 H   0  0  0  0  0  0  0  0  0  0  0  0
  2  8  1  0  0  0  0
  2  1  1  0  0  0  0
  3  2  2  0  0  0  0
  4  5  2  0  0  0  0
  4  3  1  0  0  0  0
  5  6  1  0  0  0  0
  6  7  1  0  0  0  0
  6  8  2  0  0  0  0
  8 11  1  0  0  0  0
  9  4  1  0  0  0  0
 10  5  1  0  0  0  0
 11 13  1  0  0  0  0
 11 12  2  0  0  0  0
 13 14  1  0  0  0  0
 14 15  1  0  0  0  0
 14 16  1  0  0  0  0
 16 18  1  0  0  0  0
 16 17  1  0  0  0  0
 19 18  1  0  0  0  0
 20 13  1  0  0  0  0
 20 19  1  0  0  0  0
 21 27  1  0  0  0  0
 21 22  1  0  0  0  0
 22  3  1  0  0  0  0
 23 22  2  0  0  0  0
 23 28  1  0  0  0  0
 24 23  1  0  0  0  0
 25 26  1  0  0  0  0
 25 24  2  0  0  0  0
 26 21  2  0  0  0  0
 29 25  1  0  0  0  0
M  END
>  <minimizedAffinity>
-5.20746899

$$$$

 OpenBabel03272508163D

 29 31  0  0  0  0  0  0  0  0999 V2000
   38.7120   26.5350   34.8500 Cl  0  0  0  0  0  0  0  0  0  0  0  0
   38.4400   25.1060   33.9050 C   0  0  0  0  0  0  0  0  0  0  0  0
   38.3720   23.9680   34.6550 C   0  0  0  0  0  0  0  0  0  0  0  0
   38.1500   22.7410   33.9900 C   0  0  0  0  0  0  0  0  0  0  0  0
   38.0050   22.6910   32.6240 C   0  0  0  0  0  0  0  0  0  0  0  0
   38.0790   23.8590   31.9050 C   0  0  0  0  0  0  0  0  0  0  0  0
   37.8980   23.8230   30.1680 Cl  0  0  0  0  0  0  0  0  0  0  0  0
   38.2950   25.0460   32.5520 C   0  0  0  0  0  0  0  0  0  0  0  0
   38.0790   21.7890   34.4820 H   0  0  0  0  0  0  0  0  0  0  0  0
   37.8340   21.7740   32.0760 H   0  0  0  0  0  0  0  0  0  0  0  0
   38.3860   26.3110   31.8260 C   0  0  0  0  0  0  0  0  0  0  0  0
   39.4090   26.9180   31.4270 O   0  0  0  0  0  0  0  0  0  0  0  0
   37.3480   27.1990   31.3750 N   0  0  0  0  0  0  0  0  0  0  0  0
   38.0130   28.3030   30.7080 C   0  0  0  0  0  3  0  0  0  0  0  0
   38.5180   28.9070   31.4880 H   0  0  0  0  0  0  0  0  0  0  0  0
   36.9420   29.1580   30.0710 C   0  0  0  0  0  3  0  0  0  0  0  0
   37.3840   29.9560   29.4620 H   0  0  0  0  0  0  0  0  0  0  0  0
   36.0830   29.6500   31.0410 O   0  0  0  0  0  0  0  0  0  0  0  0
   35.5810   28.6890   31.8760 C   0  0  0  0  0  2  0  0  0  0  0  0
   35.8900   27.2590   31.4220 C   0  0  0  0  0  2  0  0  0  0  0  0
   39.6890   23.1520   36.5760 C   0  0  0  0  0  0  0  0  0  0  0  0
   38.4970   23.7770   36.1080 C   0  0  0  0  0  0  0  0  0  0  0  0
   37.5560   24.1520   37.0440 C   0  0  0  0  0  0  0  0  0  0  0  0
   37.8160   23.9070   38.3570 N   0  0  0  0  0  0  0  0  0  0  0  0
   38.9490   23.3160   38.7690 C   0  0  0  0  0  0  0  0  0  0  0  0
   39.8920   22.9350   37.8760 N   0  0  0  0  0  0  0  0  0  0  0  0
   40.4550   22.8430   35.8500 H   0  0  0  0  0  0  0  0  0  0  0  0
   36.6570   24.6240   36.6730 H   0  0  0  0  0  0  0  0  0  0  0  0
   39.0570   23.1660   39.8440 H   0  0  0  0  0  0  0  0  0  0  0  0
  2  3  1  0  0  0  0
  2  1  1  0  0  0  0
  3 22  1  0  0  0  0
  4  9  1  0  0  0  0
  4  3  2  0  0  0  0
  5  4  1  0  0  0  0
  6  8  1  0  0  0  0
  6  5  2  0  0  0  0
  7  6  1  0  0  0  0
  8  2  2  0  0  0  0
 10  5  1  0  0  0  0
 11  8  1  0  0  0  0
 12 11  2  0  0  0  0
 13 20  1  0  0  0  0
 13 11  1  0  0  0  0
 14 13  1  0  0  0  0
 14 15  1  0  0  0  0
 16 14  1  0  0  0  0
 16 18  1  0  0  0  0
 17 16  1  0  0  0  0
 18 19  1  0  0  0  0
 20 19  1  0  0  0  0
 21 26  1  0  0  0  0
 22 21  2  0  0  0  0
 22 23  1  0  0  0  0
 23 24  2  0  0  0  0
 24 25  1  0  0  0  0
 25 29  1  0  0  0  0
 26 25  2  0  0  0  0
 27 21  1  0  0  0  0
 28 23  1  0  0  0  0
M  END
>  <minimizedAffinity>
-5.16906595

$$$$

 OpenBabel03272508163D

 29 31  0  0  0  0  0  0  0  0999 V2000
   35.6820   25.1840   30.9230 Cl  0  0  0  0  0  0  0  0  0  0  0  0
   36.7580   25.0850   32.2790 C   0  0  0  0  0  0  0  0  0  0  0  0
   37.1310   23.8060   32.5790 C   0  0  0  0  0  0  0  0  0  0  0  0
   38.0110   23.6040   33.6660 C   0  0  0  0  0  0  0  0  0  0  0  0
   38.4820   24.6640   34.4040 C   0  0  0  0  0  0  0  0  0  0  0  0
   38.0830   25.9350   34.0690 C   0  0  0  0  0  0  0  0  0  0  0  0
   38.6670   27.2990   34.9900 Cl  0  0  0  0  0  0  0  0  0  0  0  0
   37.2310   26.1280   33.0160 C   0  0  0  0  0  0  0  0  0  0  0  0
   38.3670   22.6430   33.9870 H   0  0  0  0  0  0  0  0  0  0  0  0
   39.1560   24.5540   35.2430 H   0  0  0  0  0  0  0  0  0  0  0  0
   36.7770   27.4620   32.6290 C   0  0  0  0  0  0  0  0  0  0  0  0
   35.8880   28.1740   33.1540 O   0  0  0  0  0  0  0  0  0  0  0  0
   37.2150   28.3160   31.5580 N   0  0  0  0  0  0  0  0  0  0  0  0
   36.4180   29.5260   31.6470 C   0  0  0  0  0  3  0  0  0  0  0  0
   35.3860   29.2680   31.3360 H   0  0  0  0  0  0  0  0  0  0  0  0
   36.9780   30.5110   30.6460 C   0  0  0  0  0  3  0  0  0  0  0  0
   36.4850   31.4870   30.7330 H   0  0  0  0  0  0  0  0  0  0  0  0
   36.8930   29.9900   29.3640 O   0  0  0  0  0  0  0  0  0  0  0  0
   37.4200   28.7340   29.2390 C   0  0  0  0  0  2  0  0  0  0  0  0
   38.1940   28.2680   30.4770 C   0  0  0  0  0  2  0  0  0  0  0  0
   37.7270   21.9380   31.0790 C   0  0  0  0  0  0  0  0  0  0  0  0
   36.7610   22.5330   31.9430 C   0  0  0  0  0  0  0  0  0  0  0  0
   35.5610   21.8770   32.1150 C   0  0  0  0  0  0  0  0  0  0  0  0
   35.3650   20.7030   31.4560 N   0  0  0  0  0  0  0  0  0  0  0  0
   36.2930   20.1660   30.6480 C   0  0  0  0  0  0  0  0  0  0  0  0
   37.4810   20.7850   30.4560 N   0  0  0  0  0  0  0  0  0  0  0  0
   38.6920   22.4420   30.9250 H   0  0  0  0  0  0  0  0  0  0  0  0
   34.8390   22.3400   32.7720 H   0  0  0  0  0  0  0  0  0  0  0  0
   36.0330   19.2210   30.1680 H   0  0  0  0  0  0  0  0  0  0  0  0
  1  2  1  0  0  0  0
  2  3  2  0  0  0  0
  2  8  1  0  0  0  0
  3  4  1  0  0  0  0
  4  9  1  0  0  0  0
  4  5  2  0  0  0  0
  5 10  1  0  0  0  0
  6  5  1  0  0  0  0
  6  7  1  0  0  0  0
  8  6  2  0  0  0  0
 11  8  1  0  0  0  0
 11 12  2  0  0  0  0
 13 14  1  0  0  0  0
 13 11  1  0  0  0  0
 15 14  1  0  0  0  0
 16 17  1  0  0  0  0
 16 14  1  0  0  0  0
 18 16  1  0  0  0  0
 19 18  1  0  0  0  0
 19 20  1  0  0  0  0
 20 13  1  0  0  0  0
 21 22  1  0  0  0  0
 22 23  2  0  0  0  0
 22  3  1  0  0  0  0
 23 28  1  0  0  0  0
 24 23  1  0  0  0  0
 25 24  2  0  0  0  0
 26 25  1  0  0  0  0
 26 21  2  0  0  0  0
 27 21  1  0  0  0  0
 29 25  1  0  0  0  0
M  END
>  <minimizedAffinity>
-5.09775305

$$$$

 OpenBabel03272508163D

 29 31  0  0  0  0  0  0  0  0999 V2000
   38.2510   23.0270   33.5070 Cl  0  0  0  0  0  0  0  0  0  0  0  0
   37.2070   24.0630   32.5870 C   0  0  0  0  0  0  0  0  0  0  0  0
   36.2560   23.3820   31.8830 C   0  0  0  0  0  0  0  0  0  0  0  0
   35.3460   24.1250   31.0980 C   0  0  0  0  0  0  0  0  0  0  0  0
   35.4120   25.4970   31.0430 C   0  0  0  0  0  0  0  0  0  0  0  0
   36.3830   26.1440   31.7670 C   0  0  0  0  0  0  0  0  0  0  0  0
   36.4880   27.8870   31.7160 Cl  0  0  0  0  0  0  0  0  0  0  0  0
   37.2640   25.4220   32.5260 C   0  0  0  0  0  0  0  0  0  0  0  0
   34.5610   23.6920   30.5060 H   0  0  0  0  0  0  0  0  0  0  0  0
   34.7360   26.1040   30.4560 H   0  0  0  0  0  0  0  0  0  0  0  0
   38.3150   26.0700   33.3080 C   0  0  0  0  0  0  0  0  0  0  0  0
   38.2500   26.5580   34.4620 O   0  0  0  0  0  0  0  0  0  0  0  0
   39.6910   26.3250   32.9800 N   0  0  0  0  0  0  0  0  0  0  0  0
   40.2700   26.9950   34.1310 C   0  0  0  0  0  3  0  0  0  0  0  0
   39.8440   28.0170   34.1690 H   0  0  0  0  0  0  0  0  0  0  0  0
   41.7570   27.1150   33.8840 C   0  0  0  0  0  3  0  0  0  0  0  0
   42.2720   27.5220   34.7630 H   0  0  0  0  0  0  0  0  0  0  0  0
   41.9930   27.8640   32.7410 O   0  0  0  0  0  0  0  0  0  0  0  0
   41.2960   27.4370   31.6440 C   0  0  0  0  0  2  0  0  0  0  0  0
   40.5880   26.0940   31.8510 C   0  0  0  0  0  2  0  0  0  0  0  0
   36.7810   21.2020   30.8500 C   0  0  0  0  0  0  0  0  0  0  0  0
   35.9960   21.9380   31.7860 C   0  0  0  0  0  0  0  0  0  0  0  0
   35.0580   21.2470   32.5230 C   0  0  0  0  0  0  0  0  0  0  0  0
   34.9330   19.9080   32.3190 N   0  0  0  0  0  0  0  0  0  0  0  0
   35.6870   19.2410   31.4310 C   0  0  0  0  0  0  0  0  0  0  0  0
   36.6160   19.8890   30.6900 N   0  0  0  0  0  0  0  0  0  0  0  0
   37.5360   21.7310   30.2490 H   0  0  0  0  0  0  0  0  0  0  0  0
   34.4710   21.8190   33.2270 H   0  0  0  0  0  0  0  0  0  0  0  0
   35.5050   18.1680   31.3460 H   0  0  0  0  0  0  0  0  0  0  0  0
  2  1  1  0  0  0  0
  3  2  2  0  0  0  0
  4  3  1  0  0  0  0
  5  4  2  0  0  0  0
  5  6  1  0  0  0  0
  6  8  2  0  0  0  0
  7  6  1  0  0  0  0
  8  2  1  0  0  0  0
  8 11  1  0  0  0  0
  9  4  1  0  0  0  0
 10  5  1  0  0  0  0
 11 12  2  0  0  0  0
 13 11  1  0  0  0  0
 13 14  1  0  0  0  0
 14 15  1  0  0  0  0
 16 14  1  0  0  0  0
 16 17  1  0  0  0  0
 18 16  1  0  0  0  0
 19 20  1  0  0  0  0
 19 18  1  0  0  0  0
 20 13  1  0  0  0  0
 21 22  1  0  0  0  0
 22  3  1  0  0  0  0
 22 23  2  0  0  0  0
 23 28  1  0  0  0  0
 24 23  1  0  0  0  0
 25 24  2  0  0  0  0
 26 21  2  0  0  0  0
 26 25  1  0  0  0  0
 27 21  1  0  0  0  0
 29 25  1  0  0  0  0
M  END
>  <minimizedAffinity>
-5.07664537

$$$$

 OpenBabel03272508163D

 29 31  0  0  0  0  0  0  0  0999 V2000
   36.4740   27.8280   34.8310 Cl  0  0  0  0  0  0  0  0  0  0  0  0
   36.3250   28.7100   33.3450 C   0  0  0  0  0  0  0  0  0  0  0  0
   35.7230   29.9260   33.4970 C   0  0  0  0  0  0  0  0  0  0  0  0
   35.5500   30.7340   32.3510 C   0  0  0  0  0  0  0  0  0  0  0  0
   35.9750   30.3120   31.1140 C   0  0  0  0  0  0  0  0  0  0  0  0
   36.5770   29.0830   31.0030 C   0  0  0  0  0  0  0  0  0  0  0  0
   37.1280   28.5220   29.4430 Cl  0  0  0  0  0  0  0  0  0  0  0  0
   36.7430   28.3010   32.1150 C   0  0  0  0  0  0  0  0  0  0  0  0
   35.0890   31.7050   32.3570 H   0  0  0  0  0  0  0  0  0  0  0  0
   35.8620   30.8990   30.2120 H   0  0  0  0  0  0  0  0  0  0  0  0
   37.3740   26.9850   32.0410 C   0  0  0  0  0  0  0  0  0  0  0  0
   36.9110   25.9150   31.5770 O   0  0  0  0  0  0  0  0  0  0  0  0
   38.6760   26.5550   32.4720 N   0  0  0  0  0  0  0  0  0  0  0  0
   38.7700   25.1430   32.1500 C   0  0  0  0  0  3  0  0  0  0  0  0
   38.1000   24.5980   32.8440 H   0  0  0  0  0  0  0  0  0  0  0  0
   40.1910   24.7080   32.4290 C   0  0  0  0  0  3  0  0  0  0  0  0
   40.3570   23.6730   32.1080 H   0  0  0  0  0  0  0  0  0  0  0  0
   40.4950   24.9010   33.7680 O   0  0  0  0  0  0  0  0  0  0  0  0
   40.2160   26.1600   34.2240 C   0  0  0  0  0  2  0  0  0  0  0  0
   39.8470   27.1480   33.1130 C   0  0  0  0  0  2  0  0  0  0  0  0
   33.7990   30.4140   34.9660 C   0  0  0  0  0  0  0  0  0  0  0  0
   35.1910   30.5800   34.7020 C   0  0  0  0  0  0  0  0  0  0  0  0
   35.9280   31.3370   35.5880 C   0  0  0  0  0  0  0  0  0  0  0  0
   35.2920   31.8800   36.6600 N   0  0  0  0  0  0  0  0  0  0  0  0
   33.9800   31.7060   36.8840 C   0  0  0  0  0  0  0  0  0  0  0  0
   33.2270   30.9700   36.0330 N   0  0  0  0  0  0  0  0  0  0  0  0
   33.1900   29.8140   34.2740 H   0  0  0  0  0  0  0  0  0  0  0  0
   36.9810   31.4540   35.3740 H   0  0  0  0  0  0  0  0  0  0  0  0
   33.5690   32.1860   37.7740 H   0  0  0  0  0  0  0  0  0  0  0  0
  2  3  1  0  0  0  0
  2  1  1  0  0  0  0
  3 22  1  0  0  0  0
  4  9  1  0  0  0  0
  4  3  2  0  0  0  0
  5  4  1  0  0  0  0
  6  5  2  0  0  0  0
  6  8  1  0  0  0  0
  7  6  1  0  0  0  0
  8  2  2  0  0  0  0
 10  5  1  0  0  0  0
 11  8  1  0  0  0  0
 11 13  1  0  0  0  0
 12 11  2  0  0  0  0
 13 20  1  0  0  0  0
 14 16  1  0  0  0  0
 14 13  1  0  0  0  0
 14 15  1  0  0  0  0
 16 18  1  0  0  0  0
 17 16  1  0  0  0  0
 18 19  1  0  0  0  0
 20 19  1  0  0  0  0
 21 26  1  0  0  0  0
 22 21  2  0  0  0  0
 22 23  1  0  0  0  0
 23 24  2  0  0  0  0
 24 25  1  0  0  0  0
 25 29  1  0  0  0  0
 26 25  2  0  0  0  0
 27 21  1  0  0  0  0
 28 23  1  0  0  0  0
M  END
>  <minimizedAffinity>
-5.06796026

$$$$

 OpenBabel03272508163D

 29 31  0  0  0  0  0  0  0  0999 V2000
   36.5510   27.7830   34.8370 Cl  0  0  0  0  0  0  0  0  0  0  0  0
   36.3960   28.4920   33.2610 C   0  0  0  0  0  0  0  0  0  0  0  0
   37.2530   27.9580   32.3430 C   0  0  0  0  0  0  0  0  0  0  0  0
   37.2140   28.4590   31.0220 C   0  0  0  0  0  0  0  0  0  0  0  0
   36.3390   29.4570   30.6670 C   0  0  0  0  0  0  0  0  0  0  0  0
   35.4930   29.9680   31.6210 C   0  0  0  0  0  0  0  0  0  0  0  0
   34.3690   31.2360   31.1960 Cl  0  0  0  0  0  0  0  0  0  0  0  0
   35.5320   29.4810   32.9000 C   0  0  0  0  0  0  0  0  0  0  0  0
   37.8430   28.1110   30.2230 H   0  0  0  0  0  0  0  0  0  0  0  0
   36.2760   29.8680   29.6680 H   0  0  0  0  0  0  0  0  0  0  0  0
   34.6540   29.9990   33.9470 C   0  0  0  0  0  0  0  0  0  0  0  0
   33.4200   29.8250   34.0960 O   0  0  0  0  0  0  0  0  0  0  0  0
   34.9500   30.8380   35.0760 N   0  0  0  0  0  0  0  0  0  0  0  0
   33.6970   31.0350   35.7810 C   0  0  0  0  0  3  0  0  0  0  0  0
   33.0650   31.6970   35.1560 H   0  0  0  0  0  0  0  0  0  0  0  0
   34.0120   31.7640   37.0670 C   0  0  0  0  0  3  0  0  0  0  0  0
   33.1200   31.8550   37.6990 H   0  0  0  0  0  0  0  0  0  0  0  0
   34.5900   32.9940   36.7910 O   0  0  0  0  0  0  0  0  0  0  0  0
   35.6540   32.9270   35.9340 C   0  0  0  0  0  2  0  0  0  0  0  0
   36.1220   31.4960   35.6480 C   0  0  0  0  0  2  0  0  0  0  0  0
   37.8450   25.5650   32.2220 C   0  0  0  0  0  0  0  0  0  0  0  0
   38.2650   26.9010   32.4880 C   0  0  0  0  0  0  0  0  0  0  0  0
   39.5780   27.1010   32.8600 C   0  0  0  0  0  0  0  0  0  0  0  0
   40.3970   26.0180   32.9510 N   0  0  0  0  0  0  0  0  0  0  0  0
   39.9730   24.7710   32.6950 C   0  0  0  0  0  0  0  0  0  0  0  0
   38.6910   24.5400   32.3280 N   0  0  0  0  0  0  0  0  0  0  0  0
   36.8030   25.3790   31.9230 H   0  0  0  0  0  0  0  0  0  0  0  0
   39.8810   28.1190   33.0590 H   0  0  0  0  0  0  0  0  0  0  0  0
   40.7120   23.9740   32.7990 H   0  0  0  0  0  0  0  0  0  0  0  0
  2  1  1  0  0  0  0
  3 22  1  0  0  0  0
  3  2  2  0  0  0  0
  4  3  1  0  0  0  0
  5  4  2  0  0  0  0
  5  6  1  0  0  0  0
  6  8  2  0  0  0  0
  7  6  1  0  0  0  0
  8  2  1  0  0  0  0
  8 11  1  0  0  0  0
  9  4  1  0  0  0  0
 10  5  1  0  0  0  0
 11 12  2  0  0  0  0
 11 13  1  0  0  0  0
 13 20  1  0  0  0  0
 13 14  1  0  0  0  0
 14 16  1  0  0  0  0
 15 14  1  0  0  0  0
 16 17  1  0  0  0  0
 18 16  1  0  0  0  0
 19 18  1  0  0  0  0
 20 19  1  0  0  0  0
 21 26  2  0  0  0  0
 21 22  1  0  0  0  0
 22 23  2  0  0  0  0
 23 24  1  0  0  0  0
 23 28  1  0  0  0  0
 25 29  1  0  0  0  0
 25 24  2  0  0  0  0
 26 25  1  0  0  0  0
 27 21  1  0  0  0  0
M  END
>  <minimizedAffinity>
-4.99395275

$$$$
