REMARK  Name = 
REMARK  3 active torsions:
REMARK  status: ('A' for Active; 'I' for Inactive)
REMARK    1  A    between atoms: C_1  and  C_3
REMARK    2  A    between atoms: C_1  and  C_9
REMARK    3  A    between atoms: C_12  and  C_14
REMARK                            x       y       z     vdW  Elec       q    Type
REMARK                         _______ _______ _______ _____ _____    ______ ____
ROOT
ATOM      1  C   UNL     1      35.915  29.582  49.913  0.00  0.00    +0.000 A 
ATOM      2  C   UNL     1      34.685  29.888  50.385  0.00  0.00    +0.000 A 
ATOM      3  C   UNL     1      33.756  29.041  49.773  0.00  0.00    +0.000 A 
ATOM      4  C   UNL     1      34.517  28.236  48.928  0.00  0.00    +0.000 A 
ATOM      5  O   UNL     1      35.743  28.616  49.072  0.00  0.00    +0.000 OA
ATOM      6  H   UNL     1      34.323  30.617  51.098  0.00  0.00    +0.000 HD
ATOM      7  H   UNL     1      32.679  28.985  49.895  0.00  0.00    +0.000 HD
ENDROOT
BRANCH   4   8
ATOM      8  C   UNL     1      33.989  27.172  48.056  0.00  0.00    +0.000 C 
ATOM      9  O   UNL     1      32.749  26.885  48.138  0.00  0.00    +0.000 OA
ATOM     10  N   UNL     1      34.902  26.529  47.173  0.00  0.00    +0.000 N 
ATOM     11  C   UNL     1      35.392  27.170  45.963  0.00  0.00    +0.000 C 
ATOM     12  H   UNL     1      36.147  27.944  46.169  0.00  0.00    +0.000 HD
ATOM     13  C   UNL     1      36.066  26.088  45.110  0.00  0.00    +0.000 C 
ATOM     14  H   UNL     1      36.529  26.544  44.232  0.00  0.00    +0.000 HD
ATOM     15  O   UNL     1      37.052  25.541  45.917  0.00  0.00    +0.000 OA
ATOM     16  C   UNL     1      36.435  24.635  46.748  0.00  0.00    +0.000 C 
ATOM     17  C   UNL     1      35.312  25.180  47.567  0.00  0.00    +0.000 C 
ENDBRANCH   4   8
BRANCH   1  18
ATOM     18  C   UNL     1      37.120  30.269  50.336  0.00  0.00    +0.000 C 
ATOM     19  O   UNL     1      37.510  30.132  51.499  0.00  0.00    +0.000 OA
BRANCH  18  20
ATOM     20  C   UNL     1      37.799  31.089  49.335  0.00  0.00    +0.000 A 
ATOM     21  C   UNL     1      38.122  32.389  49.714  0.00  0.00    +0.000 A 
ATOM     22  C   UNL     1      38.770  33.188  48.774  0.00  0.00    +0.000 A 
ATOM     23  N   UNL     1      39.053  32.673  47.549  0.00  0.00    +0.000 NA
ATOM     24  C   UNL     1      38.723  31.402  47.218  0.00  0.00    +0.000 A 
ATOM     25  N   UNL     1      38.104  30.628  48.106  0.00  0.00    +0.000 NA
ATOM     26  H   UNL     1      37.925  32.855  50.664  0.00  0.00    +0.000 HD
ATOM     27  H   UNL     1      39.059  34.209  48.978  0.00  0.00    +0.000 HD
ATOM     28  H   UNL     1      38.935  30.961  46.251  0.00  0.00    +0.000 HD
ENDBRANCH  18  20
ENDBRANCH   1  18
TORSDOF 3
