
     RDKit          3D

 34 36  0  0  0  0  0  0  0  0999 V2000
   37.1201   30.2688   50.3361 C   0  0  0  0  0  0  0  0  0  0  0  0
   37.5099   30.1323   51.4991 O   0  0  0  0  0  0  0  0  0  0  0  0
   37.7991   31.0891   49.3348 C   0  0  0  0  0  0  0  0  0  0  0  0
   38.1217   32.3892   49.7140 C   0  0  0  0  0  0  0  0  0  0  0  0
   38.7695   33.1885   48.7741 C   0  0  0  0  0  0  0  0  0  0  0  0
   39.0533   32.6728   47.5494 N   0  0  0  0  0  0  0  0  0  0  0  0
   38.7230   31.4023   47.2181 C   0  0  0  0  0  0  0  0  0  0  0  0
   38.1042   30.6280   48.1058 N   0  0  0  0  0  0  0  0  0  0  0  0
   35.9152   29.5823   49.9127 C   0  0  0  0  0  0  0  0  0  0  0  0
   34.6850   29.8878   50.3848 C   0  0  0  0  0  0  0  0  0  0  0  0
   33.7560   29.0415   49.7735 C   0  0  0  0  0  0  0  0  0  0  0  0
   34.5166   28.2361   48.9275 C   0  0  0  0  0  0  0  0  0  0  0  0
   35.7429   28.6163   49.0722 O   0  0  0  0  0  0  0  0  0  0  0  0
   33.9892   27.1718   48.0557 C   0  0  0  0  0  0  0  0  0  0  0  0
   32.7492   26.8852   48.1382 O   0  0  0  0  0  0  0  0  0  0  0  0
   37.9249   32.8545   50.6643 H   0  0  0  0  0  0  0  0  0  0  0  0
   39.0585   34.2086   48.9780 H   0  0  0  0  0  0  0  0  0  0  0  0
   38.9347   30.9607   46.2513 H   0  0  0  0  0  0  0  0  0  0  0  0
   34.3229   30.6171   51.0984 H   0  0  0  0  0  0  0  0  0  0  0  0
   32.6793   28.9847   49.8953 H   0  0  0  0  0  0  0  0  0  0  0  0
   34.9020   26.5285   47.1730 N   0  0  0  0  0  0  0  0  0  0  0  0
   35.6366   27.2583   46.1520 C   0  0  2  0  0  0  0  0  0  0  0  0
   36.4666   27.8508   46.5678 H   0  0  0  0  0  0  0  0  0  0  0  0
   36.2451   26.2248   45.1960 C   0  0  2  0  0  0  0  0  0  0  0  0
   36.8822   26.7268   44.4648 H   0  0  0  0  0  0  0  0  0  0  0  0
   37.0245   25.3981   45.9925 O   0  0  0  0  0  0  0  0  0  0  0  0
   36.1741   24.4918   46.5826 C   0  0  0  0  0  0  0  0  0  0  0  0
   35.0491   25.0849   47.3645 C   0  0  0  0  0  0  0  0  0  0  0  0
   34.9645   27.8564   45.4845 H   0  0  0  0  0  0  0  0  0  0  0  0
   35.3931   25.6825   44.7638 H   0  0  0  0  0  0  0  0  0  0  0  0
   35.7616   23.8137   45.7794 H   0  0  0  0  0  0  0  0  0  0  0  0
   36.8042   23.8034   47.2181 H   0  0  0  0  0  0  0  0  0  0  0  0
   35.2430   24.8718   48.4511 H   0  0  0  0  0  0  0  0  0  0  0  0
   34.0687   24.6138   47.1107 H   0  0  0  0  0  0  0  0  0  0  0  0
  1  2  2  0
  3  4  2  0
  3  1  1  0
  5  4  1  0
  6  5  2  0
  7  6  1  0
  7  8  2  0
  8  3  1  0
  9  1  1  0
  9 10  2  0
 11 10  1  0
 12 13  1  0
 12 11  2  0
 13  9  1  0
 14 15  2  0
 14 12  1  0
  4 16  1  0
  5 17  1  0
  7 18  1  0
 10 19  1  0
 11 20  1  0
 21 22  1  0
 22 23  1  1
 22 24  1  0
 24 25  1  6
 24 26  1  0
 26 27  1  0
 27 28  1  0
 28 21  1  0
 22 29  1  0
 24 30  1  0
 27 31  1  0
 27 32  1  0
 28 33  1  0
 28 34  1  0
 14 21  1  0
M  ISO  7  16  14  17  14  18  14  19  14  20  14  23   8  25  15
M  END
>  <DihAtoms>  (1) 
14,13,20,21

>  <DihDeg>  (1) 
179.9994058437476

$$$$
