
 OpenBabel03272507303D

 28 30  0  0  0  0  0  0  0  0999 V2000
   35.8110   29.1470   49.8320 C   0  0  0  0  0  0  0  0  0  0  0  0
   34.9060   29.6840   50.6810 C   0  0  0  0  0  0  0  0  0  0  0  0
   33.6340   29.2410   50.3050 C   0  0  0  0  0  0  0  0  0  0  0  0
   33.8590   28.4240   49.1990 C   0  0  0  0  0  0  0  0  0  0  0  0
   35.1340   28.4280   48.9980 O   0  0  0  0  0  0  0  0  0  0  0  0
   34.9870   30.3450   51.5340 H   0  0  0  0  0  0  0  0  0  0  0  0
   32.6640   29.4550   50.7430 H   0  0  0  0  0  0  0  0  0  0  0  0
   32.8180   27.7130   48.4350 C   0  0  0  0  0  0  0  0  0  0  0  0
   31.6260   27.7190   48.8900 O   0  0  0  0  0  0  0  0  0  0  0  0
   33.2120   27.0620   47.2320 N   0  0  0  0  0  0  0  0  0  0  0  0
   33.1890   27.7350   45.9440 C   0  0  0  0  0  3  0  0  0  0  0  0
   34.0190   28.4480   45.8210 H   0  0  0  0  0  0  0  0  0  0  0  0
   33.3440   26.6610   44.8600 C   0  0  0  0  0  3  0  0  0  0  0  0
   33.4230   27.1340   43.8790 H   0  0  0  0  0  0  0  0  0  0  0  0
   34.5330   26.0100   45.1530 O   0  0  0  0  0  0  0  0  0  0  0  0
   34.2570   25.1010   46.1490 C   0  0  0  0  0  2  0  0  0  0  0  0
   33.6400   25.6700   47.3820 C   0  0  0  0  0  2  0  0  0  0  0  0
   37.2360   29.3990   49.9300 C   0  0  0  0  0  0  0  0  0  0  0  0
   37.9180   28.6950   50.6810 O   0  0  0  0  0  0  0  0  0  0  0  0
   37.7720   30.4880   49.1160 C   0  0  0  0  0  0  0  0  0  0  0  0
   38.1290   31.6500   49.7940 C   0  0  0  0  0  0  0  0  0  0  0  0
   38.6420   32.7010   49.0370 C   0  0  0  0  0  0  0  0  0  0  0  0
   38.7700   32.5490   47.6930 N   0  0  0  0  0  0  0  0  0  0  0  0
   38.4130   31.4010   47.0700 C   0  0  0  0  0  0  0  0  0  0  0  0
   37.9210   30.3890   47.7810 N   0  0  0  0  0  0  0  0  0  0  0  0
   38.0510   31.8340   50.8520 H   0  0  0  0  0  0  0  0  0  0  0  0
   38.9450   33.6410   49.4750 H   0  0  0  0  0  0  0  0  0  0  0  0
   38.5030   31.2470   46.0010 H   0  0  0  0  0  0  0  0  0  0  0  0
  1 18  1  0  0  0  0
  1  2  2  0  0  0  0
  2  6  1  0  0  0  0
  3  2  1  0  0  0  0
  3  7  1  0  0  0  0
  4  3  2  0  0  0  0
  5  4  1  0  0  0  0
  5  1  1  0  0  0  0
  8  9  2  0  0  0  0
  8  4  1  0  0  0  0
 10 17  1  0  0  0  0
 10  8  1  0  0  0  0
 11 10  1  0  0  0  0
 12 11  1  0  0  0  0
 13 15  1  0  0  0  0
 13 11  1  0  0  0  0
 14 13  1  0  0  0  0
 15 16  1  0  0  0  0
 16 17  1  0  0  0  0
 18 19  2  0  0  0  0
 20 21  1  0  0  0  0
 20 18  1  0  0  0  0
 21 26  1  0  0  0  0
 22 27  1  0  0  0  0
 22 21  2  0  0  0  0
 23 22  1  0  0  0  0
 24 23  2  0  0  0  0
 24 25  1  0  0  0  0
 25 20  2  0  0  0  0
 28 24  1  0  0  0  0
M  END
>  <minimizedAffinity>
-5.16263819

>  <minimizedRMSD>
1.43935859

$$$$
