
 OpenBabel03272507303D

 28 30  0  0  0  0  0  0  0  0999 V2000
   35.8350   29.1640   49.7000 C   0  0  0  0  0  0  0  0  0  0  0  0
   34.7950   29.5240   50.4850 C   0  0  0  0  0  0  0  0  0  0  0  0
   33.6220   29.0060   49.9270 C   0  0  0  0  0  0  0  0  0  0  0  0
   34.0460   28.3310   48.7840 C   0  0  0  0  0  0  0  0  0  0  0  0
   35.3280   28.4740   48.7320 O   0  0  0  0  0  0  0  0  0  0  0  0
   34.7170   30.0990   51.3990 H   0  0  0  0  0  0  0  0  0  0  0  0
   32.5950   29.0840   50.2680 H   0  0  0  0  0  0  0  0  0  0  0  0
   33.1700   27.6090   47.8440 C   0  0  0  0  0  0  0  0  0  0  0  0
   32.2080   26.9220   48.3220 O   0  0  0  0  0  0  0  0  0  0  0  0
   33.4570   27.7240   46.4540 N   0  0  0  0  0  0  0  0  0  0  0  0
   33.4530   29.0050   45.7660 C   0  0  0  0  0  3  0  0  0  0  0  0
   34.3430   29.6130   45.9930 H   0  0  0  0  0  0  0  0  0  0  0  0
   33.4660   28.7180   44.2600 C   0  0  0  0  0  3  0  0  0  0  0  0
   33.5550   29.6550   43.7050 H   0  0  0  0  0  0  0  0  0  0  0  0
   34.5970   27.9460   44.0400 O   0  0  0  0  0  0  0  0  0  0  0  0
   34.2720   26.6530   44.3800 C   0  0  0  0  0  2  0  0  0  0  0  0
   33.7560   26.4660   45.7680 C   0  0  0  0  0  2  0  0  0  0  0  0
   37.2080   29.5350   49.9840 C   0  0  0  0  0  0  0  0  0  0  0  0
   37.8120   28.9480   50.8860 O   0  0  0  0  0  0  0  0  0  0  0  0
   37.7880   30.5960   49.1640 C   0  0  0  0  0  0  0  0  0  0  0  0
   38.0680   31.7970   49.8120 C   0  0  0  0  0  0  0  0  0  0  0  0
   38.6210   32.8230   49.0480 C   0  0  0  0  0  0  0  0  0  0  0  0
   38.8600   32.6110   47.7270 N   0  0  0  0  0  0  0  0  0  0  0  0
   38.5750   31.4270   47.1340 C   0  0  0  0  0  0  0  0  0  0  0  0
   38.0460   30.4390   47.8510 N   0  0  0  0  0  0  0  0  0  0  0  0
   37.9010   32.0270   50.8500 H   0  0  0  0  0  0  0  0  0  0  0  0
   38.8710   33.7880   49.4640 H   0  0  0  0  0  0  0  0  0  0  0  0
   38.7540   31.2260   46.0840 H   0  0  0  0  0  0  0  0  0  0  0  0
  1 18  1  0  0  0  0
  1  2  2  0  0  0  0
  2  6  1  0  0  0  0
  3  7  1  0  0  0  0
  3  2  1  0  0  0  0
  4  3  2  0  0  0  0
  5  4  1  0  0  0  0
  5  1  1  0  0  0  0
  8  9  2  0  0  0  0
  8  4  1  0  0  0  0
 10  8  1  0  0  0  0
 11 12  1  0  0  0  0
 11 10  1  0  0  0  0
 13 11  1  0  0  0  0
 14 13  1  0  0  0  0
 15 13  1  0  0  0  0
 15 16  1  0  0  0  0
 16 17  1  0  0  0  0
 17 10  1  0  0  0  0
 18 19  2  0  0  0  0
 20 21  1  0  0  0  0
 20 18  1  0  0  0  0
 21 26  1  0  0  0  0
 22 27  1  0  0  0  0
 22 21  2  0  0  0  0
 23 22  1  0  0  0  0
 24 23  2  0  0  0  0
 24 25  1  0  0  0  0
 25 20  2  0  0  0  0
 28 24  1  0  0  0  0
M  END
>  <minimizedAffinity>
-5.1699748

>  <minimizedRMSD>
1.80094159

$$$$
