
 OpenBabel03272507303D

 28 30  0  0  0  0  0  0  0  0999 V2000
   35.8470   29.1710   49.7080 C   0  0  0  0  0  0  0  0  0  0  0  0
   34.7790   29.5400   50.4520 C   0  0  0  0  0  0  0  0  0  0  0  0
   33.6310   28.9850   49.8800 C   0  0  0  0  0  0  0  0  0  0  0  0
   34.0960   28.2810   48.7710 C   0  0  0  0  0  0  0  0  0  0  0  0
   35.3770   28.4430   48.7490 O   0  0  0  0  0  0  0  0  0  0  0  0
   34.6680   30.1420   51.3440 H   0  0  0  0  0  0  0  0  0  0  0  0
   32.5940   29.0570   50.1900 H   0  0  0  0  0  0  0  0  0  0  0  0
   33.2580   27.5150   47.8310 C   0  0  0  0  0  0  0  0  0  0  0  0
   32.2710   26.8580   48.3010 O   0  0  0  0  0  0  0  0  0  0  0  0
   33.6060   27.5580   46.4510 N   0  0  0  0  0  0  0  0  0  0  0  0
   33.9510   28.7990   45.7770 C   0  0  0  0  0  3  0  0  0  0  0  0
   34.9600   29.1560   46.0360 H   0  0  0  0  0  0  0  0  0  0  0  0
   33.9360   28.5240   44.2680 C   0  0  0  0  0  3  0  0  0  0  0  0
   34.2790   29.4080   43.7270 H   0  0  0  0  0  0  0  0  0  0  0  0
   34.8370   27.4880   44.0720 O   0  0  0  0  0  0  0  0  0  0  0  0
   34.1810   26.3200   44.3890 C   0  0  0  0  0  2  0  0  0  0  0  0
   33.5930   26.2680   45.7600 C   0  0  0  0  0  2  0  0  0  0  0  0
   37.2050   29.5730   50.0160 C   0  0  0  0  0  0  0  0  0  0  0  0
   37.7940   29.0240   50.9510 O   0  0  0  0  0  0  0  0  0  0  0  0
   37.7910   30.6200   49.1810 C   0  0  0  0  0  0  0  0  0  0  0  0
   38.0710   31.8300   49.8100 C   0  0  0  0  0  0  0  0  0  0  0  0
   38.6300   32.8420   49.0310 C   0  0  0  0  0  0  0  0  0  0  0  0
   38.8710   32.6080   47.7150 N   0  0  0  0  0  0  0  0  0  0  0  0
   38.5850   31.4160   47.1390 C   0  0  0  0  0  0  0  0  0  0  0  0
   38.0510   30.4410   47.8710 N   0  0  0  0  0  0  0  0  0  0  0  0
   37.9030   32.0780   50.8430 H   0  0  0  0  0  0  0  0  0  0  0  0
   38.8800   33.8140   49.4310 H   0  0  0  0  0  0  0  0  0  0  0  0
   38.7660   31.1970   46.0940 H   0  0  0  0  0  0  0  0  0  0  0  0
  1 18  1  0  0  0  0
  1  2  2  0  0  0  0
  2  6  1  0  0  0  0
  3  7  1  0  0  0  0
  3  2  1  0  0  0  0
  4  3  2  0  0  0  0
  5  4  1  0  0  0  0
  5  1  1  0  0  0  0
  8  9  2  0  0  0  0
  8  4  1  0  0  0  0
 10  8  1  0  0  0  0
 11 12  1  0  0  0  0
 11 10  1  0  0  0  0
 13 11  1  0  0  0  0
 14 13  1  0  0  0  0
 15 13  1  0  0  0  0
 15 16  1  0  0  0  0
 16 17  1  0  0  0  0
 17 10  1  0  0  0  0
 18 19  2  0  0  0  0
 20 21  1  0  0  0  0
 20 18  1  0  0  0  0
 21 26  1  0  0  0  0
 22 27  1  0  0  0  0
 22 21  2  0  0  0  0
 23 22  1  0  0  0  0
 24 23  2  0  0  0  0
 24 25  1  0  0  0  0
 25 20  2  0  0  0  0
 28 24  1  0  0  0  0
M  END
>  <minimizedAffinity>
-5.19330978

>  <minimizedRMSD>
1.62571037

$$$$
