REMARK  Name = 
REMARK  2 active torsions:
REMARK  status: ('A' for Active; 'I' for Inactive)
REMARK    1  A    between atoms: N_1  and  C_6
REMARK    2  A    between atoms: C_2  and  C_12
REMARK                            x       y       z     vdW  Elec       q    Type
REMARK                         _______ _______ _______ _____ _____    ______ ____
ROOT
ATOM      1  N   UNL     1      36.534  29.797  49.199  0.00  0.00    +0.000 N 
ATOM      2  C   UNL     1      37.233  30.992  48.754  0.00  0.00    +0.000 C 
ATOM      3  C   UNL     1      38.006  31.355  50.018  0.00  0.00    +0.000 C 
ATOM      4  C   UNL     1      37.535  30.407  51.113  0.00  0.00    +0.000 C 
ATOM      5  C   UNL     1      37.252  29.171  50.286  0.00  0.00    +0.000 C 
ATOM      6  H   UNL     1      36.508  31.806  48.532  0.00  0.00    +0.000 HD
ATOM      7  H   UNL     1      37.719  32.370  50.356  0.00  0.00    +0.000 HD
ATOM      8  H   UNL     1      39.094  31.308  49.860  0.00  0.00    +0.000 HD
ATOM      9  H   UNL     1      38.395  30.184  51.770  0.00  0.00    +0.000 HD
ATOM     10  H   UNL     1      36.638  30.776  51.624  0.00  0.00    +0.000 HD
ATOM     11  H   UNL     1      38.187  28.698  49.986  0.00  0.00    +0.000 HD
ATOM     12  H   UNL     1      36.587  28.472  50.830  0.00  0.00    +0.000 HD
ENDROOT
BRANCH   2  13
ATOM     13  C   UNL     1      38.139  30.741  47.623  0.00  0.00    +0.000 C 
ATOM     14  O   UNL     1      39.008  31.554  47.398  0.00  0.00    +0.000 OA
ATOM     15  N   UNL     1      38.448  29.841  46.562  0.00  0.00    +0.000 N 
ATOM     16  C   UNL     1      38.755  28.597  47.253  0.00  0.00    +0.000 C 
ATOM     17  H   UNL     1      37.841  28.228  47.716  0.00  0.00    +0.000 HD
ATOM     18  C   UNL     1      39.184  27.629  46.154  0.00  0.00    +0.000 C 
ATOM     19  H   UNL     1      39.475  26.692  46.689  0.00  0.00    +0.000 HD
ATOM     20  O   UNL     1      40.260  28.170  45.481  0.00  0.00    +0.000 OA
ATOM     21  C   UNL     1      39.883  29.264  44.738  0.00  0.00    +0.000 C 
ATOM     22  C   UNL     1      38.531  29.830  45.113  0.00  0.00    +0.000 C 
ENDBRANCH   2  13
BRANCH   1  23
ATOM     23  C   UNL     1      35.315  29.323  48.637  0.00  0.00    +0.000 A 
ATOM     24  C   UNL     1      34.734  30.064  47.597  0.00  0.00    +0.000 A 
ATOM     25  C   UNL     1      33.543  29.642  47.014  0.00  0.00    +0.000 A 
ATOM     26  N   UNL     1      32.997  28.473  47.526  0.00  0.00    +0.000 NA
ATOM     27  C   UNL     1      33.573  27.793  48.515  0.00  0.00    +0.000 A 
ATOM     28  N   UNL     1      34.740  28.216  49.077  0.00  0.00    +0.000 NA
ATOM     29  H   UNL     1      35.160  30.978  47.195  0.00  0.00    +0.000 HD
ATOM     30  H   UNL     1      33.088  30.206  46.212  0.00  0.00    +0.000 HD
ATOM     31  H   UNL     1      33.096  26.907  48.855  0.00  0.00    +0.000 HD
ENDBRANCH   1  23
TORSDOF 2
