REMARK  Name = 
REMARK  4 active torsions:
REMARK  status: ('A' for Active; 'I' for Inactive)
REMARK    1  A    between atoms: C_11  and  C_12
REMARK    2  A    between atoms: C_11  and  C_16
REMARK    3  A    between atoms: C_16  and  O_17
REMARK    4  A    between atoms: O_17  and  C_18
REMARK                            x       y       z     vdW  Elec       q    Type
REMARK                         _______ _______ _______ _____ _____    ______ ____
ROOT
ATOM      1  C   UNL     1      36.684  29.909  49.041  0.00  0.00    +0.000 A 
ATOM      2  C   UNL     1      37.704  30.584  48.340  0.00  0.00    +0.000 A 
ATOM      3  C   UNL     1      37.471  30.894  46.994  0.00  0.00    +0.000 A 
ATOM      4  N   UNL     1      36.304  30.536  46.453  0.00  0.00    +0.000 NA
ATOM      5  C   UNL     1      35.349  29.891  47.150  0.00  0.00    +0.000 A 
ATOM      6  N   UNL     1      35.543  29.582  48.434  0.00  0.00    +0.000 NA
ATOM      7  N   UNL     1      38.455  31.567  46.242  0.00  0.00    +0.000 N 
ATOM      8  C   UNL     1      39.445  32.508  46.779  0.00  0.00    +0.000 C 
ATOM      9  C   UNL     1      40.125  33.131  45.613  0.00  0.00    +0.000 C 
ATOM     10  C   UNL     1      39.188  32.878  44.505  0.00  0.00    +0.000 C 
ATOM     11  C   UNL     1      38.706  31.490  44.836  0.00  0.00    +0.000 C 
ATOM     12  H   UNL     1      36.864  29.670  50.079  0.00  0.00    +0.000 HD
ATOM     13  H   UNL     1      38.632  30.847  48.842  0.00  0.00    +0.000 HD
ATOM     14  H   UNL     1      34.443  29.652  46.604  0.00  0.00    +0.000 HD
ATOM     15  H   UNL     1      40.122  31.956  47.472  0.00  0.00    +0.000 HD
ATOM     16  H   UNL     1      38.839  33.266  47.317  0.00  0.00    +0.000 HD
ATOM     17  H   UNL     1      40.253  34.229  45.851  0.00  0.00    +0.000 HD
ATOM     18  H   UNL     1      41.169  32.791  45.430  0.00  0.00    +0.000 HD
ATOM     19  H   UNL     1      38.354  33.605  44.541  0.00  0.00    +0.000 HD
ATOM     20  H   UNL     1      39.706  32.920  43.521  0.00  0.00    +0.000 HD
ENDROOT
BRANCH  11  21
ATOM     21  C   UNL     1      37.590  31.034  43.952  0.00  0.00    +0.000 C 
ATOM     22  F   UNL     1      36.466  31.750  44.343  0.00  0.00    +0.000 F 
ATOM     23  F   UNL     1      37.275  29.712  44.025  0.00  0.00    +0.000 F 
ATOM     24  F   UNL     1      37.904  31.465  42.669  0.00  0.00    +0.000 F 
ENDBRANCH  11  21
BRANCH  11  25
ATOM     25  C   UNL     1      39.838  30.539  44.675  0.00  0.00    +0.000 C 
ATOM     26  H   UNL     1      39.458  29.568  45.054  0.00  0.00    +0.000 HD
ATOM     27  H   UNL     1      40.616  30.830  45.441  0.00  0.00    +0.000 HD
BRANCH  25  28
ATOM     28  O   UNL     1      40.344  30.770  43.563  0.00  0.00    +0.000 OA
BRANCH  28  29
ATOM     29  C   UNL     1      40.898  30.057  42.551  0.00  0.00    +0.000 C 
ATOM     30  O   UNL     1      40.650  30.647  41.471  0.00  0.00    +0.000 OA
ATOM     31  N   UNL     1      41.635  28.956  42.078  0.00  0.00    +0.000 N 
ATOM     32  C   UNL     1      42.135  29.018  40.722  0.00  0.00    +0.000 C 
ATOM     33  H   UNL     1      41.879  28.047  40.197  0.00  0.00    +0.000 HD
ATOM     34  C   UNL     1      43.663  28.999  40.827  0.00  0.00    +0.000 C 
ATOM     35  H   UNL     1      44.097  29.136  39.837  0.00  0.00    +0.000 HD
ATOM     36  O   UNL     1      44.023  27.784  41.383  0.00  0.00    +0.000 OA
ATOM     37  C   UNL     1      43.553  27.697  42.694  0.00  0.00    +0.000 C 
ATOM     38  C   UNL     1      42.038  27.684  42.682  0.00  0.00    +0.000 C 
ENDBRANCH  28  29
ENDBRANCH  25  28
ENDBRANCH  11  25
TORSDOF 4
