
 OpenBabel03272508153D

 29 31  0  0  0  0  0  0  0  0999 V2000
   34.7550   30.3510   45.1940 Cl  0  0  0  0  0  0  0  0  0  0  0  0
   36.1760   29.7580   44.3950 C   0  0  0  0  0  0  0  0  0  0  0  0
   35.9270   28.7040   43.5640 C   0  0  0  0  0  0  0  0  0  0  0  0
   37.0130   28.1400   42.8560 C   0  0  0  0  0  0  0  0  0  0  0  0
   38.2870   28.6360   42.9980 C   0  0  0  0  0  0  0  0  0  0  0  0
   38.4950   29.6980   43.8440 C   0  0  0  0  0  0  0  0  0  0  0  0
   40.1040   30.3480   44.0410 Cl  0  0  0  0  0  0  0  0  0  0  0  0
   37.4420   30.2420   44.5280 C   0  0  0  0  0  0  0  0  0  0  0  0
   36.9290   27.3100   42.1790 H   0  0  0  0  0  0  0  0  0  0  0  0
   39.1450   28.2340   42.4760 H   0  0  0  0  0  0  0  0  0  0  0  0
   37.6190   31.3690   45.4410 C   0  0  0  0  0  0  0  0  0  0  0  0
   37.8880   32.5650   45.1730 O   0  0  0  0  0  0  0  0  0  0  0  0
   37.5370   31.4230   46.8760 N   0  0  0  0  0  0  0  0  0  0  0  0
   38.4410   32.4750   47.3000 C   0  0  0  0  0  3  0  0  0  0  0  0
   39.4750   32.1120   47.1370 H   0  0  0  0  0  0  0  0  0  0  0  0
   38.2410   32.6720   48.7860 C   0  0  0  0  0  3  0  0  0  0  0  0
   38.8230   33.5270   49.1520 H   0  0  0  0  0  0  0  0  0  0  0  0
   38.5380   31.5020   49.4670 O   0  0  0  0  0  0  0  0  0  0  0  0
   37.8970   30.3980   48.9770 C   0  0  0  0  0  2  0  0  0  0  0  0
   36.8190   30.7250   47.9380 C   0  0  0  0  0  2  0  0  0  0  0  0
   34.3070   26.9200   44.1020 C   0  0  0  0  0  0  0  0  0  0  0  0
   34.6670   28.0110   43.2570 C   0  0  0  0  0  0  0  0  0  0  0  0
   33.8140   28.3300   42.2220 C   0  0  0  0  0  0  0  0  0  0  0  0
   32.6810   27.5940   42.0650 N   0  0  0  0  0  0  0  0  0  0  0  0
   32.3680   26.5720   42.8770 C   0  0  0  0  0  0  0  0  0  0  0  0
   33.1840   26.2310   43.9020 N   0  0  0  0  0  0  0  0  0  0  0  0
   34.9710   26.6450   44.9350 H   0  0  0  0  0  0  0  0  0  0  0  0
   34.1010   29.1590   41.5890 H   0  0  0  0  0  0  0  0  0  0  0  0
   31.4360   26.0460   42.6620 H   0  0  0  0  0  0  0  0  0  0  0  0
  2  8  1  0  0  0  0
  2  1  1  0  0  0  0
  3  2  2  0  0  0  0
  4  5  2  0  0  0  0
  4  3  1  0  0  0  0
  5  6  1  0  0  0  0
  6  7  1  0  0  0  0
  6  8  2  0  0  0  0
  8 11  1  0  0  0  0
  9  4  1  0  0  0  0
 10  5  1  0  0  0  0
 11 13  1  0  0  0  0
 12 11  2  0  0  0  0
 13 14  1  0  0  0  0
 13 20  1  0  0  0  0
 14 16  1  0  0  0  0
 15 14  1  0  0  0  0
 16 17  1  0  0  0  0
 16 18  1  0  0  0  0
 19 18  1  0  0  0  0
 20 19  1  0  0  0  0
 21 27  1  0  0  0  0
 22  3  1  0  0  0  0
 22 21  2  0  0  0  0
 23 22  1  0  0  0  0
 24 23  2  0  0  0  0
 24 25  1  0  0  0  0
 25 26  2  0  0  0  0
 26 21  1  0  0  0  0
 28 23  1  0  0  0  0
 29 25  1  0  0  0  0
M  END
>  <minimizedAffinity>
-4.07935286

>  <minimizedRMSD>
4.87526083

$$$$
