
 OpenBabel03272507273D

 38 40  0  0  1  0  0  0  0  0999 V2000
   36.9540   29.3690   50.2970 C   0  0  0  0  0  0  0  0  0  0  0  0
   37.7590   30.0860   49.3890 C   0  0  0  0  0  0  0  0  0  0  0  0
   37.2100   30.3950   48.1380 C   0  0  0  0  0  0  0  0  0  0  0  0
   35.9630   29.9960   47.8770 N   0  0  0  0  0  0  0  0  0  0  0  0
   35.2190   29.3110   48.7660 C   0  0  0  0  0  0  0  0  0  0  0  0
   35.7160   29.0020   49.9660 N   0  0  0  0  0  0  0  0  0  0  0  0
   37.9680   31.1090   47.1880 N   0  0  0  0  0  0  0  0  0  0  0  0
   39.0210   32.0840   47.4950 C   0  0  0  0  0  0  0  0  0  0  0  0
   39.3890   32.7390   46.2130 C   0  0  0  0  0  0  0  0  0  0  0  0
   38.2310   32.4570   45.3480 C   0  0  0  0  0  0  0  0  0  0  0  0
   37.8890   31.0500   45.7610 C   0  0  2  0  0  0  0  0  0  0  0  0
   37.3780   29.1310   51.2620 H   0  0  0  0  0  0  0  0  0  0  0  0
   38.7680   30.3820   49.6660 H   0  0  0  0  0  0  0  0  0  0  0  0
   34.2200   29.0410   48.4410 H   0  0  0  0  0  0  0  0  0  0  0  0
   39.8590   31.5540   48.0050 H   0  0  0  0  0  0  0  0  0  0  0  0
   38.5290   32.8150   48.1700 H   0  0  0  0  0  0  0  0  0  0  0  0
   39.5300   33.8400   46.4300 H   0  0  0  0  0  0  0  0  0  0  0  0
   40.3740   32.4400   45.7880 H   0  0  0  0  0  0  0  0  0  0  0  0
   37.4020   33.1520   45.5860 H   0  0  0  0  0  0  0  0  0  0  0  0
   38.5050   32.5240   44.2710 H   0  0  0  0  0  0  0  0  0  0  0  0
   36.6150   30.5570   45.1530 C   0  0  0  0  0  0  0  0  0  0  0  0
   35.5900   31.0100   45.9740 F   0  0  0  0  0  0  0  0  0  0  0  0
   36.4880   29.2050   45.0530 F   0  0  0  0  0  0  0  0  0  0  0  0
   36.4740   31.2240   43.9430 F   0  0  0  0  0  0  0  0  0  0  0  0
   38.9860   30.1440   45.3290 C   0  0  0  0  0  0  0  0  0  0  0  0
   38.8380   29.2110   45.9110 H   0  0  0  0  0  0  0  0  0  0  0  0
   39.9420   30.5680   45.7560 H   0  0  0  0  0  0  0  0  0  0  0  0
   39.0780   30.2570   44.0940 O   0  0  0  0  0  0  0  0  0  0  0  0
   39.4040   29.4670   43.0410 C   0  0  0  0  0  0  0  0  0  0  0  0
   38.3720   29.2870   42.3490 O   0  0  0  0  0  0  0  0  0  0  0  0
   40.3410   28.7220   42.3030 N   0  0  0  0  0  0  0  0  0  0  0  0
   39.9420   27.4080   41.8480 C   0  0  0  0  0  3  0  0  0  0  0  0
   40.7610   26.6710   42.1050 H   0  0  0  0  0  0  0  0  0  0  0  0
   39.9500   27.4630   40.3170 C   0  0  0  0  0  3  0  0  0  0  0  0
   39.5680   26.5250   39.9170 H   0  0  0  0  0  0  0  0  0  0  0  0
   41.2540   27.6980   39.9200 O   0  0  0  0  0  0  0  0  0  0  0  0
   41.6670   28.9620   40.3460 C   0  0  0  0  0  2  0  0  0  0  0  0
   41.7110   28.9890   41.8600 C   0  0  0  0  0  2  0  0  0  0  0  0
  1 12  1  0  0  0  0
  2 13  1  0  0  0  0
  2  1  2  0  0  0  0
  3  2  1  0  0  0  0
  4  3  2  0  0  0  0
  4  5  1  0  0  0  0
  5  6  2  0  0  0  0
  6  1  1  0  0  0  0
  7  8  1  0  0  0  0
  7  3  1  0  0  0  0
  8 15  1  0  0  0  0
  8 16  1  0  0  0  0
  9 17  1  0  0  0  0
  9  8  1  0  0  0  0
 10 19  1  0  0  0  0
 10 11  1  0  0  0  0
 10  9  1  0  0  0  0
 11 21  1  6  0  0  0
 11  7  1  0  0  0  0
 14  5  1  0  0  0  0
 18  9  1  0  0  0  0
 20 10  1  0  0  0  0
 21 22  1  0  0  0  0
 23 21  1  0  0  0  0
 24 21  1  0  0  0  0
 25 27  1  0  0  0  0
 25 11  1  0  0  0  0
 25 26  1  0  0  0  0
 28 25  1  0  0  0  0
 29 28  1  0  0  0  0
 30 29  2  0  0  0  0
 31 29  1  0  0  0  0
 32 33  1  0  0  0  0
 32 31  1  0  0  0  0
 34 32  1  0  0  0  0
 35 34  1  0  0  0  0
 36 34  1  0  0  0  0
 36 37  1  0  0  0  0
 37 38  1  0  0  0  0
 38 31  1  0  0  0  0
M  END
>  <minimizedAffinity>
-5.15372086

>  <minimizedRMSD>
1.66972744

$$$$
