
 OpenBabel03272508153D

 29 31  0  0  0  0  0  0  0  0999 V2000
   36.1490   30.8110   45.1680 Cl  0  0  0  0  0  0  0  0  0  0  0  0
   36.3870   30.5570   46.8680 C   0  0  0  0  0  0  0  0  0  0  0  0
   37.6450   30.8750   47.2890 C   0  0  0  0  0  0  0  0  0  0  0  0
   37.9530   30.7100   48.6590 C   0  0  0  0  0  0  0  0  0  0  0  0
   37.0140   30.2420   49.5460 C   0  0  0  0  0  0  0  0  0  0  0  0
   35.7590   29.9340   49.0820 C   0  0  0  0  0  0  0  0  0  0  0  0
   34.5450   29.3390   50.1880 Cl  0  0  0  0  0  0  0  0  0  0  0  0
   35.4630   30.0940   47.7550 C   0  0  0  0  0  0  0  0  0  0  0  0
   38.9100   30.9300   49.0960 H   0  0  0  0  0  0  0  0  0  0  0  0
   37.2080   30.1020   50.6010 H   0  0  0  0  0  0  0  0  0  0  0  0
   34.1420   29.7730   47.2180 C   0  0  0  0  0  0  0  0  0  0  0  0
   33.2570   30.5520   46.7880 O   0  0  0  0  0  0  0  0  0  0  0  0
   33.4990   28.5000   47.0360 N   0  0  0  0  0  0  0  0  0  0  0  0
   32.1950   28.7780   46.4610 C   0  0  0  0  0  3  0  0  0  0  0  0
   31.5750   29.2440   47.2530 H   0  0  0  0  0  0  0  0  0  0  0  0
   31.5700   27.4510   46.0960 C   0  0  0  0  0  3  0  0  0  0  0  0
   30.6230   27.5940   45.5610 H   0  0  0  0  0  0  0  0  0  0  0  0
   31.4220   26.6640   47.2270 O   0  0  0  0  0  0  0  0  0  0  0  0
   32.5650   26.5370   47.9670 C   0  0  0  0  0  2  0  0  0  0  0  0
   33.8120   27.0940   47.2720 C   0  0  0  0  0  2  0  0  0  0  0  0
   39.4270   30.4810   45.6260 C   0  0  0  0  0  0  0  0  0  0  0  0
   38.8010   31.3830   46.5350 C   0  0  0  0  0  0  0  0  0  0  0  0
   39.3240   32.6550   46.6410 C   0  0  0  0  0  0  0  0  0  0  0  0
   40.4000   32.9780   45.8750 N   0  0  0  0  0  0  0  0  0  0  0  0
   40.9680   32.1070   45.0260 C   0  0  0  0  0  0  0  0  0  0  0  0
   40.4810   30.8510   44.9000 N   0  0  0  0  0  0  0  0  0  0  0  0
   39.0290   29.4600   45.5240 H   0  0  0  0  0  0  0  0  0  0  0  0
   38.8390   33.3270   47.3350 H   0  0  0  0  0  0  0  0  0  0  0  0
   41.8280   32.4690   44.4600 H   0  0  0  0  0  0  0  0  0  0  0  0
  1  2  1  0  0  0  0
  2  3  2  0  0  0  0
  2  8  1  0  0  0  0
  3  4  1  0  0  0  0
  4  9  1  0  0  0  0
  4  5  2  0  0  0  0
  5 10  1  0  0  0  0
  6  5  1  0  0  0  0
  6  7  1  0  0  0  0
  8  6  2  0  0  0  0
 11  8  1  0  0  0  0
 12 11  2  0  0  0  0
 13 11  1  0  0  0  0
 13 20  1  0  0  0  0
 14 13  1  0  0  0  0
 14 15  1  0  0  0  0
 16 14  1  0  0  0  0
 16 18  1  0  0  0  0
 17 16  1  0  0  0  0
 18 19  1  0  0  0  0
 20 19  1  0  0  0  0
 21 22  1  0  0  0  0
 22 23  2  0  0  0  0
 22  3  1  0  0  0  0
 23 28  1  0  0  0  0
 24 23  1  0  0  0  0
 25 24  2  0  0  0  0
 26 25  1  0  0  0  0
 26 21  2  0  0  0  0
 27 21  1  0  0  0  0
 29 25  1  0  0  0  0
M  END
>  <minimizedAffinity>
-5.94224072

>  <minimizedRMSD>
7.5433917

$$$$
