
 OpenBabel03272507273D

 38 40  0  0  1  0  0  0  0  0999 V2000
   36.8050   29.7340   49.4850 C   0  0  0  0  0  0  0  0  0  0  0  0
   37.7600   30.4530   48.7380 C   0  0  0  0  0  0  0  0  0  0  0  0
   37.4320   30.7900   47.4180 C   0  0  0  0  0  0  0  0  0  0  0  0
   36.2420   30.4140   46.9440 N   0  0  0  0  0  0  0  0  0  0  0  0
   35.3510   29.7270   47.6840 C   0  0  0  0  0  0  0  0  0  0  0  0
   35.6350   29.3920   48.9440 N   0  0  0  0  0  0  0  0  0  0  0  0
   38.3480   31.5080   46.6220 N   0  0  0  0  0  0  0  0  0  0  0  0
   39.3470   32.4610   47.1190 C   0  0  0  0  0  0  0  0  0  0  0  0
   39.9340   33.1310   45.9290 C   0  0  0  0  0  0  0  0  0  0  0  0
   38.9340   32.8800   44.8770 C   0  0  0  0  0  0  0  0  0  0  0  0
   38.5090   31.4720   45.2020 C   0  0  2  0  0  0  0  0  0  0  0  0
   37.0580   29.4750   50.5020 H   0  0  0  0  0  0  0  0  0  0  0  0
   38.7120   30.7290   49.1860 H   0  0  0  0  0  0  0  0  0  0  0  0
   34.4180   29.4770   47.1910 H   0  0  0  0  0  0  0  0  0  0  0  0
   40.0810   31.9110   47.7520 H   0  0  0  0  0  0  0  0  0  0  0  0
   38.7580   33.1890   47.7150 H   0  0  0  0  0  0  0  0  0  0  0  0
   40.0490   34.2260   46.1870 H   0  0  0  0  0  0  0  0  0  0  0  0
   40.9720   32.8230   45.6700 H   0  0  0  0  0  0  0  0  0  0  0  0
   38.0860   33.5830   44.9850 H   0  0  0  0  0  0  0  0  0  0  0  0
   39.3860   32.9600   43.8630 H   0  0  0  0  0  0  0  0  0  0  0  0
   37.3500   31.0080   44.3790 C   0  0  0  0  0  0  0  0  0  0  0  0
   36.2180   31.5810   44.9440 F   0  0  0  0  0  0  0  0  0  0  0  0
   37.1480   29.6630   44.3410 F   0  0  0  0  0  0  0  0  0  0  0  0
   37.5010   31.5880   43.1260 F   0  0  0  0  0  0  0  0  0  0  0  0
   39.6520   30.5560   44.9430 C   0  0  0  0  0  0  0  0  0  0  0  0
   39.2610   29.5380   45.1500 H   0  0  0  0  0  0  0  0  0  0  0  0
   40.3950   30.7230   45.7780 H   0  0  0  0  0  0  0  0  0  0  0  0
   40.2040   30.9560   43.9040 O   0  0  0  0  0  0  0  0  0  0  0  0
   40.3660   30.5230   42.6290 C   0  0  0  0  0  0  0  0  0  0  0  0
   40.3150   31.5170   41.8640 O   0  0  0  0  0  0  0  0  0  0  0  0
   40.5700   29.4910   41.6940 N   0  0  0  0  0  0  0  0  0  0  0  0
   39.4350   29.0760   40.8980 C   0  0  0  0  0  3  0  0  0  0  0  0
   39.3680   27.9460   40.9240 H   0  0  0  0  0  0  0  0  0  0  0  0
   39.7890   29.4000   39.4430 C   0  0  0  0  0  3  0  0  0  0  0  0
   38.9320   29.1930   38.8050 H   0  0  0  0  0  0  0  0  0  0  0  0
   40.8830   28.6250   39.1040 O   0  0  0  0  0  0  0  0  0  0  0  0
   41.9960   29.0040   39.8570 C   0  0  0  0  0  2  0  0  0  0  0  0
   41.7380   28.6940   41.3180 C   0  0  0  0  0  2  0  0  0  0  0  0
  1 12  1  0  0  0  0
  2 13  1  0  0  0  0
  2  1  2  0  0  0  0
  3  2  1  0  0  0  0
  4  3  2  0  0  0  0
  4  5  1  0  0  0  0
  5  6  2  0  0  0  0
  6  1  1  0  0  0  0
  7  8  1  0  0  0  0
  7  3  1  0  0  0  0
  8 16  1  0  0  0  0
  8 15  1  0  0  0  0
  9 17  1  0  0  0  0
  9  8  1  0  0  0  0
 10 19  1  0  0  0  0
 10 11  1  0  0  0  0
 10  9  1  0  0  0  0
 11 21  1  6  0  0  0
 11  7  1  0  0  0  0
 14  5  1  0  0  0  0
 18  9  1  0  0  0  0
 20 10  1  0  0  0  0
 21 22  1  0  0  0  0
 23 21  1  0  0  0  0
 24 21  1  0  0  0  0
 25 26  1  0  0  0  0
 25 11  1  0  0  0  0
 25 27  1  0  0  0  0
 28 25  1  0  0  0  0
 29 28  1  0  0  0  0
 30 29  2  0  0  0  0
 31 29  1  0  0  0  0
 32 33  1  0  0  0  0
 32 31  1  0  0  0  0
 34 32  1  0  0  0  0
 35 34  1  0  0  0  0
 36 34  1  0  0  0  0
 36 37  1  0  0  0  0
 37 38  1  0  0  0  0
 38 31  1  0  0  0  0
M  END
>  <minimizedAffinity>
-5.12254429

>  <minimizedRMSD>
1.03687119

$$$$
