
 OpenBabel03262520343D

 41 43  0  0  1  0  0  0  0  0999 V2000
   28.0910   28.2490   48.5270 C   0  0  0  0  0  0  0  0  0  0  0  0
   29.3790   27.9780   49.0120 C   0  0  0  0  0  0  0  0  0  0  0  0
   29.5890   27.4410   50.2570 C   0  0  0  0  0  0  0  0  0  0  0  0
   28.5080   27.1610   51.0550 C   0  0  0  0  0  0  0  0  0  0  0  0
   27.2530   27.4180   50.5970 C   0  0  0  0  0  0  0  0  0  0  0  0
   26.9980   27.9520   49.3630 C   0  0  0  0  0  0  0  0  0  0  0  0
   30.6220   27.2630   50.5530 H   0  0  0  0  0  0  0  0  0  0  0  0
   28.7620   26.7410   52.0180 H   0  0  0  0  0  0  0  0  0  0  0  0
   26.4550   27.1610   51.3020 H   0  0  0  0  0  0  0  0  0  0  0  0
   25.9670   28.0920   49.1320 H   0  0  0  0  0  0  0  0  0  0  0  0
   27.7430   28.9090   46.9540 S   0  0  0  0  0  0  0  0  0  0  0  0
   28.9760   29.4920   46.3390 O   0  0  0  0  0  0  0  0  0  0  0  0
   27.2010   27.7710   46.0750 O   0  0  0  0  0  0  0  0  0  0  0  0
   27.8720   31.5330   46.1650 H   0  0  0  0  0  0  0  0  0  0  0  0
   26.8950   31.2380   46.0600 N   0  0  0  0  0  0  0  0  0  0  0  0
   26.5490   30.2070   47.0510 C   0  0  2  0  0  3  0  0  0  0  0  0
   26.6250   30.8180   48.4280 C   0  0  0  0  0  3  0  0  0  0  0  0
   27.6600   31.2790   48.4780 H   0  0  0  0  0  0  0  0  0  0  0  0
   25.7340   31.8830   48.5700 O   0  0  0  0  0  0  0  0  0  0  0  0
   26.2170   32.8670   47.6740 C   0  0  0  0  0  2  0  0  0  0  0  0
   25.9560   32.3350   46.2820 C   0  0  0  0  0  2  0  0  0  0  0  0
   30.3470   28.3140   48.0970 O   0  0  0  0  0  0  0  0  0  0  0  0
   31.9040   26.1730   48.2380 O   0  0  0  0  0  0  0  0  0  0  0  0
   31.9120   27.6900   47.9970 P   0  0  1  0  0  0  0  0  0  0  0  0
   32.6140   28.0550   46.4990 O   0  0  0  0  0  0  0  0  0  0  0  0
   32.4420   27.3170   45.8580 H   0  0  0  0  0  0  0  0  0  0  0  0
   32.9150   28.3120   49.2170 O   0  0  0  0  0  0  0  0  0  0  0  0
   34.2060   27.7800   49.0510 C   0  0  0  0  0  0  0  0  0  0  0  0
   34.5150   27.2470   49.9970 H   0  0  0  0  0  0  0  0  0  0  0  0
   34.1590   27.0390   48.2560 H   0  0  0  0  0  0  0  0  0  0  0  0
   35.3710   29.9080   49.5120 C   0  0  0  0  0  3  0  0  0  0  0  0
   35.2070   28.8400   48.7770 C   0  0  0  0  0  3  0  0  0  0  0  0
   37.7340   32.6990   49.5200 C   0  0  0  0  0  0  0  0  0  0  0  0
   38.3300   32.5860   48.2460 C   0  0  0  0  0  0  0  0  0  0  0  0
   37.9010   31.5440   47.4060 C   0  0  0  0  0  0  0  0  0  0  0  0
   36.9270   30.7300   47.9270 N   0  0  0  0  0  0  0  0  0  0  0  0
   36.3930   30.8680   49.1240 C   0  0  0  0  0  0  0  0  0  0  0  0
   36.8040   31.8560   49.9120 N   0  0  0  0  0  0  0  0  0  0  0  0
   38.1190   33.5280   50.1020 H   0  0  0  0  0  0  0  0  0  0  0  0
   39.0970   33.2300   47.8380 H   0  0  0  0  0  0  0  0  0  0  0  0
   38.2920   31.3750   46.4240 H   0  0  0  0  0  0  0  0  0  0  0  0
  1  2  2  0  0  0  0
  1  6  1  0  0  0  0
  2  3  1  0  0  0  0
  3  7  1  0  0  0  0
  3  4  2  0  0  0  0
  4  8  1  0  0  0  0
  5  4  1  0  0  0  0
  5  9  1  0  0  0  0
  6  5  2  0  0  0  0
 10  6  1  0  0  0  0
 11  1  1  0  0  0  0
 12 11  2  0  0  0  0
 13 11  2  0  0  0  0
 15 14  1  0  0  0  0
 15 21  1  0  0  0  0
 15 16  1  0  0  0  0
 16 11  1  1  0  0  0
 16 17  1  0  0  0  0
 17 18  1  0  0  0  0
 17 19  1  0  0  0  0
 20 19  1  0  0  0  0
 21 20  1  0  0  0  0
 22  2  1  0  0  0  0
 24 22  1  0  0  0  0
 24 23  2  1  0  0  0
 24 27  1  0  0  0  0
 25 24  1  0  0  0  0
 26 25  1  0  0  0  0
 28 27  1  0  0  0  0
 28 29  1  0  0  0  0
 30 28  1  0  0  0  0
 32 28  1  0  0  0  0
 32 31  2  0  0  0  0
 33 38  1  0  0  0  0
 33 39  1  0  0  0  0
 34 33  2  0  0  0  0
 35 36  2  0  0  0  0
 35 34  1  0  0  0  0
 36 37  1  0  0  0  0
 37 31  1  0  0  0  0
 37 38  2  0  0  0  0
 40 34  1  0  0  0  0
 41 35  1  0  0  0  0
M  END
>  <minimizedAffinity>
-6.35393906

>  <minimizedRMSD>
2.04617167

$$$$
