
 OpenBabel03262520343D

 41 43  0  0  1  0  0  0  0  0999 V2000
   27.1350   28.1660   49.5090 C   0  0  0  0  0  0  0  0  0  0  0  0
   28.5150   27.9160   49.4620 C   0  0  0  0  0  0  0  0  0  0  0  0
   29.1900   27.3620   50.5200 C   0  0  0  0  0  0  0  0  0  0  0  0
   28.4960   27.0420   51.6610 C   0  0  0  0  0  0  0  0  0  0  0  0
   27.1580   27.2780   51.7200 C   0  0  0  0  0  0  0  0  0  0  0  0
   26.4460   27.8290   50.6890 C   0  0  0  0  0  0  0  0  0  0  0  0
   30.2600   27.2030   50.3980 H   0  0  0  0  0  0  0  0  0  0  0  0
   29.1040   26.6110   52.4450 H   0  0  0  0  0  0  0  0  0  0  0  0
   26.6920   26.9890   52.6690 H   0  0  0  0  0  0  0  0  0  0  0  0
   25.4020   27.9480   50.8710 H   0  0  0  0  0  0  0  0  0  0  0  0
   26.2050   28.8460   48.2040 S   0  0  0  0  0  0  0  0  0  0  0  0
   26.3950   28.0520   46.9500 O   0  0  0  0  0  0  0  0  0  0  0  0
   24.7270   28.8330   48.6200 O   0  0  0  0  0  0  0  0  0  0  0  0
   24.7370   31.1310   47.8200 H   0  0  0  0  0  0  0  0  0  0  0  0
   25.6270   31.4170   48.2420 N   0  0  0  0  0  0  0  0  0  0  0  0
   26.7100   30.5020   47.8490 C   0  0  2  0  0  3  0  0  0  0  0  0
   26.9280   30.6220   46.3620 C   0  0  0  0  0  3  0  0  0  0  0  0
   25.9010   30.4570   45.9090 H   0  0  0  0  0  0  0  0  0  0  0  0
   27.2910   31.9190   45.9960 O   0  0  0  0  0  0  0  0  0  0  0  0
   26.1500   32.7030   46.2930 C   0  0  0  0  0  2  0  0  0  0  0  0
   26.0490   32.7440   47.8030 C   0  0  0  0  0  2  0  0  0  0  0  0
   29.0580   28.2920   48.2580 O   0  0  0  0  0  0  0  0  0  0  0  0
   30.3850   26.1960   47.3270 O   0  0  0  0  0  0  0  0  0  0  0  0
   30.4790   27.7100   47.5580 P   0  0  1  0  0  0  0  0  0  0  0  0
   30.8140   28.5190   46.1070 O   0  0  0  0  0  0  0  0  0  0  0  0
   30.4150   28.0220   45.3460 H   0  0  0  0  0  0  0  0  0  0  0  0
   31.8120   27.9050   48.5920 O   0  0  0  0  0  0  0  0  0  0  0  0
   32.9810   27.5780   47.8820 C   0  0  0  0  0  0  0  0  0  0  0  0
   33.2160   26.4840   48.0340 H   0  0  0  0  0  0  0  0  0  0  0  0
   32.7790   27.7270   46.8230 H   0  0  0  0  0  0  0  0  0  0  0  0
   34.6770   28.2620   49.5410 C   0  0  0  0  0  3  0  0  0  0  0  0
   34.1480   28.3640   48.3500 C   0  0  0  0  0  3  0  0  0  0  0  0
   37.2110   30.1740   51.3550 C   0  0  0  0  0  0  0  0  0  0  0  0
   38.0100   30.6780   50.3070 C   0  0  0  0  0  0  0  0  0  0  0  0
   37.6550   30.3450   48.9870 C   0  0  0  0  0  0  0  0  0  0  0  0
   36.5450   29.5490   48.8590 N   0  0  0  0  0  0  0  0  0  0  0  0
   35.8230   29.0970   49.8650 C   0  0  0  0  0  0  0  0  0  0  0  0
   36.1660   29.4160   51.1090 N   0  0  0  0  0  0  0  0  0  0  0  0
   37.5530   30.4770   52.3370 H   0  0  0  0  0  0  0  0  0  0  0  0
   38.8840   31.3060   50.4110 H   0  0  0  0  0  0  0  0  0  0  0  0
   38.1960   30.6780   48.1260 H   0  0  0  0  0  0  0  0  0  0  0  0
  1  6  1  0  0  0  0
  2  1  2  0  0  0  0
  2  3  1  0  0  0  0
  3  4  2  0  0  0  0
  4  5  1  0  0  0  0
  4  8  1  0  0  0  0
  5  9  1  0  0  0  0
  6 10  1  0  0  0  0
  6  5  2  0  0  0  0
  7  3  1  0  0  0  0
 11 13  2  0  0  0  0
 11  1  1  0  0  0  0
 12 11  2  0  0  0  0
 14 15  1  0  0  0  0
 16 11  1  6  0  0  0
 16 15  1  0  0  0  0
 17 16  1  0  0  0  0
 18 17  1  0  0  0  0
 19 20  1  0  0  0  0
 19 17  1  0  0  0  0
 20 21  1  0  0  0  0
 21 15  1  0  0  0  0
 22  2  1  0  0  0  0
 24 23  2  6  0  0  0
 24 22  1  0  0  0  0
 24 27  1  0  0  0  0
 25 24  1  0  0  0  0
 26 25  1  0  0  0  0
 28 29  1  0  0  0  0
 28 32  1  0  0  0  0
 28 27  1  0  0  0  0
 30 28  1  0  0  0  0
 31 37  1  0  0  0  0
 32 31  2  0  0  0  0
 33 39  1  0  0  0  0
 34 40  1  0  0  0  0
 34 33  2  0  0  0  0
 35 34  1  0  0  0  0
 36 35  2  0  0  0  0
 36 37  1  0  0  0  0
 37 38  2  0  0  0  0
 38 33  1  0  0  0  0
 41 35  1  0  0  0  0
M  END
>  <minimizedAffinity>
-7.0144124

>  <minimizedRMSD>
1.84850204

$$$$
