REMARK  Name = 
REMARK  9 active torsions:
REMARK  status: ('A' for Active; 'I' for Inactive)
REMARK    1  A    between atoms: P_2  and  O_3
REMARK    2  A    between atoms: P_2  and  O_4
REMARK    3  A    between atoms: P_2  and  O_14
REMARK    4  A    between atoms: O_4  and  C_5
REMARK    5  A    between atoms: C_5  and  C_7
REMARK    6  A    between atoms: C_6  and  C_12
REMARK    7  A    between atoms: O_14  and  C_16
REMARK    8  A    between atoms: C_15  and  S_21
REMARK    9  A    between atoms: S_21  and  C_38
REMARK                            x       y       z     vdW  Elec       q    Type
REMARK                         _______ _______ _______ _____ _____    ______ ____
ROOT
ATOM      1  C   UNL     1      27.194  28.423  49.368  0.00  0.00    +0.000 A 
ATOM      2  C   UNL     1      28.546  28.054  49.440  0.00  0.00    +0.000 A 
ATOM      3  C   UNL     1      29.063  27.395  50.526  0.00  0.00    +0.000 A 
ATOM      4  C   UNL     1      28.235  27.086  51.577  0.00  0.00    +0.000 A 
ATOM      5  C   UNL     1      26.922  27.437  51.520  0.00  0.00    +0.000 A 
ATOM      6  C   UNL     1      26.365  28.095  50.457  0.00  0.00    +0.000 A 
ATOM      7  H   UNL     1      30.123  27.147  50.498  0.00  0.00    +0.000 HD
ATOM      8  H   UNL     1      28.723  26.568  52.391  0.00  0.00    +0.000 HD
ATOM      9  H   UNL     1      26.341  27.148  52.403  0.00  0.00    +0.000 HD
ATOM     10  H   UNL     1      25.322  28.298  50.544  0.00  0.00    +0.000 HD
ENDROOT
BRANCH   1  11
ATOM     11  S   UNL     1      26.460  29.241  48.018  0.00  0.00    +0.000 S 
ATOM     12  O   UNL     1      27.181  30.517  47.717  0.00  0.00    +0.000 OA
ATOM     13  O   UNL     1      26.522  28.300  46.806  0.00  0.00    +0.000 OA
BRANCH  11  16
ATOM     14  H   UNL     1      25.385  31.282  49.502  0.00  0.00    +0.000 HD
ATOM     15  N   UNL     1      24.721  31.083  48.745  0.00  0.00    +0.000 NA
ATOM     16  C   UNL     1      24.779  29.664  48.359  0.00  0.00    +0.000 C 
ATOM     17  C   UNL     1      24.306  28.828  49.522  0.00  0.00    +0.000 C 
ATOM     18  H   UNL     1      24.945  29.169  50.395  0.00  0.00    +0.000 HD
ATOM     19  O   UNL     1      22.993  29.135  49.879  0.00  0.00    +0.000 OA
ATOM     20  C   UNL     1      23.058  30.468  50.351  0.00  0.00    +0.000 C 
ATOM     21  C   UNL     1      23.337  31.331  49.140  0.00  0.00    +0.000 C 
ENDBRANCH  11  16
ENDBRANCH   1  11
BRANCH   2  22
ATOM     22  O   UNL     1      29.236  28.434  48.315  0.00  0.00    +0.000 OA
BRANCH  22  24
ATOM     23  O   UNL     1      30.368  26.201  47.446  0.00  0.00    +0.000 OA
ATOM     24  P   UNL     1      30.612  27.700  47.670  0.00  0.00    +0.000 P 
BRANCH  24  25
ATOM     25  O   UNL     1      31.079  28.454  46.226  0.00  0.00    +0.000 OA
ATOM     26  H   UNL     1      30.657  27.993  45.454  0.00  0.00    +0.000 HD
ENDBRANCH  24  25
BRANCH  24  27
ATOM     27  O   UNL     1      31.922  27.765  48.748  0.00  0.00    +0.000 OA
BRANCH  27  28
ATOM     28  C   UNL     1      33.076  27.320  48.079  0.00  0.00    +0.000 C 
ATOM     29  H   UNL     1      33.259  26.235  48.332  0.00  0.00    +0.000 HD
ATOM     30  H   UNL     1      32.883  27.381  47.010  0.00  0.00    +0.000 HD
BRANCH  28  32
ATOM     31  C   UNL     1      34.553  28.440  49.710  0.00  0.00    +0.000 C 
ATOM     32  C   UNL     1      34.277  28.091  48.481  0.00  0.00    +0.000 C 
BRANCH  31  37
ATOM     33  C   UNL     1      37.320  30.172  51.358  0.00  0.00    +0.000 A 
ATOM     34  C   UNL     1      38.080  30.628  50.260  0.00  0.00    +0.000 A 
ATOM     35  C   UNL     1      37.619  30.327  48.966  0.00  0.00    +0.000 A 
ATOM     36  N   UNL     1      36.453  29.606  48.910  0.00  0.00    +0.000 NA
ATOM     37  C   UNL     1      35.770  29.197  49.960  0.00  0.00    +0.000 A 
ATOM     38  N   UNL     1      36.213  29.486  51.179  0.00  0.00    +0.000 NA
ATOM     39  H   UNL     1      37.744  30.447  52.316  0.00  0.00    +0.000 HD
ATOM     40  H   UNL     1      38.999  31.197  50.308  0.00  0.00    +0.000 HD
ATOM     41  H   UNL     1      38.124  30.628  48.072  0.00  0.00    +0.000 HD
ENDBRANCH  31  37
ENDBRANCH  28  32
ENDBRANCH  27  28
ENDBRANCH  24  27
ENDBRANCH  22  24
ENDBRANCH   2  22
TORSDOF 9
