
 OpenBabel03272507323D

 35 38  0  0  1  0  0  0  0  0999 V2000
   35.8480   29.1550   49.8140 C   0  0  0  0  0  0  0  0  0  0  0  0
   34.8390   29.6580   50.6030 C   0  0  0  0  0  0  0  0  0  0  0  0
   33.6310   29.1240   50.1310 C   0  0  0  0  0  0  0  0  0  0  0  0
   33.9930   28.3220   49.0720 C   0  0  0  0  0  0  0  0  0  0  0  0
   35.2950   28.3680   48.9200 O   0  0  0  0  0  0  0  0  0  0  0  0
   34.8610   30.3400   51.4520 H   0  0  0  0  0  0  0  0  0  0  0  0
   32.6390   29.3280   50.5440 H   0  0  0  0  0  0  0  0  0  0  0  0
   37.2410   29.5030   50.0250 C   0  0  0  0  0  0  0  0  0  0  0  0
   37.8940   28.8950   50.8900 O   0  0  0  0  0  0  0  0  0  0  0  0
   37.7860   30.5470   49.2050 C   0  0  0  0  0  0  0  0  0  0  0  0
   38.1270   31.7320   49.8390 C   0  0  0  0  0  0  0  0  0  0  0  0
   38.6580   32.7740   49.0710 C   0  0  0  0  0  0  0  0  0  0  0  0
   38.8130   32.5610   47.7210 N   0  0  0  0  0  0  0  0  0  0  0  0
   38.4740   31.4060   47.1440 C   0  0  0  0  0  0  0  0  0  0  0  0
   37.9640   30.4030   47.8730 N   0  0  0  0  0  0  0  0  0  0  0  0
   38.0290   31.9580   50.8880 H   0  0  0  0  0  0  0  0  0  0  0  0
   38.9380   33.7190   49.5290 H   0  0  0  0  0  0  0  0  0  0  0  0
   38.6260   31.3120   46.0670 H   0  0  0  0  0  0  0  0  0  0  0  0
   33.0680   27.5360   48.2450 C   0  0  0  0  0  0  0  0  0  0  0  0
   31.8420   27.4820   48.5940 O   0  0  0  0  0  0  0  0  0  0  0  0
   33.5750   26.8170   47.0280 C   0  0  1  0  0  0  0  0  0  0  0  0
   33.7750   25.2960   47.3320 C   0  0  0  0  0  0  0  0  0  0  0  0
   32.7430   25.7960   46.3890 C   0  0  2  0  0  0  0  0  0  0  0  0
   34.5670   27.1880   46.7040 H   0  0  0  0  0  0  0  0  0  0  0  0
   33.4680   24.9320   48.3280 H   0  0  0  0  0  0  0  0  0  0  0  0
   34.6640   24.7930   46.9540 H   0  0  0  0  0  0  0  0  0  0  0  0
   31.7050   25.7570   46.7880 H   0  0  0  0  0  0  0  0  0  0  0  0
   32.7890   25.5660   44.9880 N   0  0  1  0  0  0  0  0  0  0  0  0
   31.9130   26.3290   44.1680 C   0  0  0  0  0  3  0  0  0  0  0  0
   32.4750   27.2210   43.7620 H   0  0  0  0  0  0  0  0  0  0  0  0
   31.6120   25.4770   42.9490 C   0  0  0  0  0  3  0  0  0  0  0  0
   31.0340   26.0260   42.1790 H   0  0  0  0  0  0  0  0  0  0  0  0
   32.7730   24.8890   42.4880 O   0  0  0  0  0  0  0  0  0  0  0  0
   33.9260   25.5190   42.9060 C   0  0  0  0  0  2  0  0  0  0  0  0
   34.0930   25.5170   44.4130 C   0  0  0  0  0  2  0  0  0  0  0  0
  1  8  1  0  0  0  0
  1  2  2  0  0  0  0
  2  6  1  0  0  0  0
  3  7  1  0  0  0  0
  3  2  1  0  0  0  0
  4  3  2  0  0  0  0
  5  4  1  0  0  0  0
  5  1  1  0  0  0  0
  8  9  2  0  0  0  0
 10 11  1  0  0  0  0
 10  8  1  0  0  0  0
 11 16  1  0  0  0  0
 12 17  1  0  0  0  0
 12 11  2  0  0  0  0
 13 12  1  0  0  0  0
 14 13  2  0  0  0  0
 14 15  1  0  0  0  0
 15 10  2  0  0  0  0
 18 14  1  0  0  0  0
 19 20  2  0  0  0  0
 19  4  1  0  0  0  0
 21 24  1  6  0  0  0
 21 22  1  0  0  0  0
 21 19  1  0  0  0  0
 22 25  1  0  0  0  0
 23 27  1  1  0  0  0
 23 21  1  0  0  0  0
 23 22  1  0  0  0  0
 26 22  1  0  0  0  0
 28 35  1  6  0  0  0
 28 23  1  0  0  0  0
 29 28  1  0  0  0  0
 30 29  1  0  0  0  0
 31 29  1  0  0  0  0
 32 31  1  0  0  0  0
 33 34  1  0  0  0  0
 33 31  1  0  0  0  0
 34 35  1  0  0  0  0
M  END
>  <minimizedAffinity>
-4.85171556

>  <minimizedRMSD>
0.0482940301

$$$$
