
 OpenBabel03272507323D

 35 38  0  0  1  0  0  0  0  0999 V2000
   35.8480   29.1580   49.8150 C   0  0  0  0  0  0  0  0  0  0  0  0
   34.8430   29.6660   50.6070 C   0  0  0  0  0  0  0  0  0  0  0  0
   33.6310   29.1350   50.1390 C   0  0  0  0  0  0  0  0  0  0  0  0
   33.9880   28.3300   49.0800 C   0  0  0  0  0  0  0  0  0  0  0  0
   35.2890   28.3730   48.9240 O   0  0  0  0  0  0  0  0  0  0  0  0
   34.8700   30.3490   51.4550 H   0  0  0  0  0  0  0  0  0  0  0  0
   32.6410   29.3430   50.5550 H   0  0  0  0  0  0  0  0  0  0  0  0
   37.2430   29.5010   50.0220 C   0  0  0  0  0  0  0  0  0  0  0  0
   37.8970   28.8900   50.8830 O   0  0  0  0  0  0  0  0  0  0  0  0
   37.7880   30.5460   49.2010 C   0  0  0  0  0  0  0  0  0  0  0  0
   38.1330   31.7290   49.8360 C   0  0  0  0  0  0  0  0  0  0  0  0
   38.6650   32.7700   49.0670 C   0  0  0  0  0  0  0  0  0  0  0  0
   38.8160   32.5580   47.7170 N   0  0  0  0  0  0  0  0  0  0  0  0
   38.4720   31.4050   47.1390 C   0  0  0  0  0  0  0  0  0  0  0  0
   37.9610   30.4020   47.8690 N   0  0  0  0  0  0  0  0  0  0  0  0
   38.0390   31.9540   50.8850 H   0  0  0  0  0  0  0  0  0  0  0  0
   38.9490   33.7140   49.5260 H   0  0  0  0  0  0  0  0  0  0  0  0
   38.6210   31.3120   46.0610 H   0  0  0  0  0  0  0  0  0  0  0  0
   33.0570   27.5480   48.2570 C   0  0  0  0  0  0  0  0  0  0  0  0
   31.8350   27.4840   48.6190 O   0  0  0  0  0  0  0  0  0  0  0  0
   33.5540   26.8420   47.0280 C   0  0  1  0  0  0  0  0  0  0  0  0
   33.7730   25.3210   47.3180 C   0  0  0  0  0  0  0  0  0  0  0  0
   32.7230   25.8170   46.3930 C   0  0  2  0  0  0  0  0  0  0  0  0
   34.5370   27.2240   46.6930 H   0  0  0  0  0  0  0  0  0  0  0  0
   33.4830   24.9470   48.3160 H   0  0  0  0  0  0  0  0  0  0  0  0
   34.6620   24.8290   46.9240 H   0  0  0  0  0  0  0  0  0  0  0  0
   31.6910   25.7650   46.8060 H   0  0  0  0  0  0  0  0  0  0  0  0
   32.7510   25.5970   44.9900 N   0  0  1  0  0  0  0  0  0  0  0  0
   33.9950   25.2180   44.4100 C   0  0  0  0  0  3  0  0  0  0  0  0
   34.0250   24.0930   44.3130 H   0  0  0  0  0  0  0  0  0  0  0  0
   33.9770   25.7290   42.9820 C   0  0  0  0  0  3  0  0  0  0  0  0
   34.8500   25.3810   42.3950 H   0  0  0  0  0  0  0  0  0  0  0  0
   32.7510   25.4660   42.4040 O   0  0  0  0  0  0  0  0  0  0  0  0
   32.0370   24.4670   43.0300 C   0  0  0  0  0  2  0  0  0  0  0  0
   31.6950   24.7930   44.4710 C   0  0  0  0  0  2  0  0  0  0  0  0
  1  8  1  0  0  0  0
  1  2  2  0  0  0  0
  2  6  1  0  0  0  0
  3  7  1  0  0  0  0
  3  2  1  0  0  0  0
  4  3  2  0  0  0  0
  5  4  1  0  0  0  0
  5  1  1  0  0  0  0
  8  9  2  0  0  0  0
 10 11  1  0  0  0  0
 10  8  1  0  0  0  0
 11 16  1  0  0  0  0
 12 17  1  0  0  0  0
 12 11  2  0  0  0  0
 13 12  1  0  0  0  0
 14 13  2  0  0  0  0
 14 15  1  0  0  0  0
 15 10  2  0  0  0  0
 18 14  1  0  0  0  0
 19 20  2  0  0  0  0
 19  4  1  0  0  0  0
 21 24  1  6  0  0  0
 21 22  1  0  0  0  0
 21 19  1  0  0  0  0
 22 25  1  0  0  0  0
 23 27  1  1  0  0  0
 23 21  1  0  0  0  0
 23 22  1  0  0  0  0
 26 22  1  0  0  0  0
 28 35  1  1  0  0  0
 28 23  1  0  0  0  0
 29 28  1  0  0  0  0
 30 29  1  0  0  0  0
 31 29  1  0  0  0  0
 32 31  1  0  0  0  0
 33 31  1  0  0  0  0
 33 34  1  0  0  0  0
 34 35  1  0  0  0  0
M  END
>  <minimizedAffinity>
-4.8321085

>  <minimizedRMSD>
0.0587361977

$$$$
