
     RDKit          3D

 41 44  0  0  0  0  0  0  0  0999 V2000
   35.8218   29.1395   49.8027 C   0  0  0  0  0  0  0  0  0  0  0  0
   34.8017   29.6637   50.5644 C   0  0  0  0  0  0  0  0  0  0  0  0
   33.6000   29.1222   50.0849 C   0  0  0  0  0  0  0  0  0  0  0  0
   33.9771   28.2944   49.0509 C   0  0  0  0  0  0  0  0  0  0  0  0
   35.2814   28.3338   48.9193 O   0  0  0  0  0  0  0  0  0  0  0  0
   37.2132   29.4890   50.0290 C   0  0  0  0  0  0  0  0  0  0  0  0
   37.8557   28.8839   50.9017 O   0  0  0  0  0  0  0  0  0  0  0  0
   37.7657   30.5323   49.2122 C   0  0  0  0  0  0  0  0  0  0  0  0
   38.1100   31.7141   49.8485 C   0  0  0  0  0  0  0  0  0  0  0  0
   38.6496   32.7538   49.0845 C   0  0  0  0  0  0  0  0  0  0  0  0
   38.8086   32.5419   47.7352 N   0  0  0  0  0  0  0  0  0  0  0  0
   38.4658   31.3897   47.1547 C   0  0  0  0  0  0  0  0  0  0  0  0
   37.9479   30.3881   47.8808 N   0  0  0  0  0  0  0  0  0  0  0  0
   33.0634   27.4922   48.2280 C   0  0  0  0  0  0  0  0  0  0  0  0
   31.8428   27.4021   48.5911 O   0  0  0  0  0  0  0  0  0  0  0  0
   33.5737   26.7984   46.9976 C   0  0  1  0  0  0  0  0  0  0  0  0
   33.7927   25.2752   47.2783 C   0  0  0  0  0  0  0  0  0  0  0  0
   32.7520   25.7775   46.3461 C   0  0  2  0  0  0  0  0  0  0  0  0
   34.8115   30.3657   51.3970 H   0  0  0  0  0  0  0  0  0  0  0  0
   32.6021   29.3381   50.4768 H   0  0  0  0  0  0  0  0  0  0  0  0
   38.0097   31.9393   50.8985 H   0  0  0  0  0  0  0  0  0  0  0  0
   38.9327   33.6965   49.5448 H   0  0  0  0  0  0  0  0  0  0  0  0
   38.6218   31.2960   46.0783 H   0  0  0  0  0  0  0  0  0  0  0  0
   34.5602   27.1846   46.6771 H   0  0  0  0  0  0  0  0  0  0  0  0
   33.4936   24.8924   48.2688 H   0  0  0  0  0  0  0  0  0  0  0  0
   34.6872   24.7878   46.8886 H   0  0  0  0  0  0  0  0  0  0  0  0
   31.7160   25.7186   46.7476 H   0  0  0  0  0  0  0  0  0  0  0  0
   32.7955   25.5686   44.9422 N   0  0  0  0  0  0  0  0  0  0  0  0
   32.4421   26.6628   44.1041 C   0  0  2  0  0  0  0  0  0  0  0  0
   33.3849   27.1937   43.7781 H   0  0  0  0  0  0  0  0  0  0  0  0
   31.8769   26.0646   42.8291 C   0  0  2  0  0  0  0  0  0  0  0  0
   31.6829   26.8288   42.0508 H   0  0  0  0  0  0  0  0  0  0  0  0
   32.6647   25.0075   42.4171 O   0  0  0  0  0  0  0  0  0  0  0  0
   33.9404   25.0214   42.9370 C   0  0  0  0  0  0  0  0  0  0  0  0
   33.9682   24.9239   44.4497 C   0  0  0  0  0  0  0  0  0  0  0  0
   31.6841   27.3406   44.4844 H   0  0  0  0  0  0  0  0  0  0  0  0
   30.8824   25.6272   43.1049 H   0  0  0  0  0  0  0  0  0  0  0  0
   34.4811   25.9427   42.5882 H   0  0  0  0  0  0  0  0  0  0  0  0
   34.4590   24.1291   42.5219 H   0  0  0  0  0  0  0  0  0  0  0  0
   34.9000   25.4345   44.7635 H   0  0  0  0  0  0  0  0  0  0  0  0
   33.9600   23.8365   44.7097 H   0  0  0  0  0  0  0  0  0  0  0  0
  1  6  1  0
  1  2  2  0
  3  2  1  0
  4  3  2  0
  5  4  1  0
  5  1  1  0
  6  7  2  0
  8  9  2  0
  8  6  1  0
 10  9  1  0
 11 10  2  0
 12 11  1  0
 12 13  2  0
 13  8  1  0
 14 15  2  0
 14  4  1  0
 16 17  1  0
 16 14  1  0
 18 16  1  0
 18 17  1  0
  2 19  1  0
  3 20  1  0
  9 21  1  0
 10 22  1  0
 12 23  1  0
 16 24  1  6
 17 25  1  0
 17 26  1  0
 18 27  1  1
 28 29  1  0
 29 30  1  6
 29 31  1  0
 31 32  1  6
 31 33  1  0
 33 34  1  0
 34 35  1  0
 35 28  1  0
 29 36  1  0
 31 37  1  0
 34 38  1  0
 34 39  1  0
 35 40  1  0
 35 41  1  0
 18 28  1  0
M  ISO  8  19  14  20  14  21  14  22  14  23  14  24  13  25  13  26  13
M  ISO  3  27  13  30   8  32  15
M  END
>  <DihAtoms>  (1) 
15,17,27,28

>  <DihDeg>  (1) 
60.00069552641234

$$$$
