
 OpenBabel03272507323D

 35 38  0  0  1  0  0  0  0  0999 V2000
   35.8420   29.1460   49.8100 C   0  0  0  0  0  0  0  0  0  0  0  0
   34.8200   29.6470   50.5840 C   0  0  0  0  0  0  0  0  0  0  0  0
   33.6210   29.1030   50.1000 C   0  0  0  0  0  0  0  0  0  0  0  0
   34.0010   28.2960   49.0510 C   0  0  0  0  0  0  0  0  0  0  0  0
   35.3050   28.3500   48.9140 O   0  0  0  0  0  0  0  0  0  0  0  0
   34.8270   30.3350   51.4290 H   0  0  0  0  0  0  0  0  0  0  0  0
   32.6230   29.3030   50.5000 H   0  0  0  0  0  0  0  0  0  0  0  0
   37.2300   29.5040   50.0370 C   0  0  0  0  0  0  0  0  0  0  0  0
   37.8750   28.9060   50.9140 O   0  0  0  0  0  0  0  0  0  0  0  0
   37.7790   30.5460   49.2160 C   0  0  0  0  0  0  0  0  0  0  0  0
   38.1180   31.7320   49.8490 C   0  0  0  0  0  0  0  0  0  0  0  0
   38.6530   32.7710   49.0800 C   0  0  0  0  0  0  0  0  0  0  0  0
   38.8130   32.5550   47.7320 N   0  0  0  0  0  0  0  0  0  0  0  0
   38.4750   31.3990   47.1560 C   0  0  0  0  0  0  0  0  0  0  0  0
   37.9620   30.3980   47.8860 N   0  0  0  0  0  0  0  0  0  0  0  0
   38.0160   31.9600   50.8970 H   0  0  0  0  0  0  0  0  0  0  0  0
   38.9320   33.7170   49.5370 H   0  0  0  0  0  0  0  0  0  0  0  0
   38.6320   31.3020   46.0790 H   0  0  0  0  0  0  0  0  0  0  0  0
   33.0920   27.5000   48.2170 C   0  0  0  0  0  0  0  0  0  0  0  0
   31.8610   27.4420   48.5500 O   0  0  0  0  0  0  0  0  0  0  0  0
   33.6190   26.7750   47.0120 C   0  0  1  0  0  0  0  0  0  0  0  0
   33.7800   25.2500   47.3160 C   0  0  0  0  0  0  0  0  0  0  0  0
   32.7850   25.7720   46.3460 C   0  0  2  0  0  0  0  0  0  0  0  0
   34.6260   27.1270   46.7180 H   0  0  0  0  0  0  0  0  0  0  0  0
   33.4390   24.8890   48.3020 H   0  0  0  0  0  0  0  0  0  0  0  0
   34.6700   24.7300   46.9620 H   0  0  0  0  0  0  0  0  0  0  0  0
   31.7360   25.7520   46.7160 H   0  0  0  0  0  0  0  0  0  0  0  0
   32.8660   25.5450   44.9470 N   0  0  1  0  0  0  0  0  0  0  0  0
   34.0430   25.9810   44.2770 C   0  0  0  0  0  3  0  0  0  0  0  0
   34.7560   25.1090   44.1830 H   0  0  0  0  0  0  0  0  0  0  0  0
   33.6350   26.3010   42.8510 C   0  0  0  0  0  3  0  0  0  0  0  0
   34.5020   26.5330   42.2020 H   0  0  0  0  0  0  0  0  0  0  0  0
   32.8020   25.3100   42.3690 O   0  0  0  0  0  0  0  0  0  0  0  0
   32.8930   24.1170   43.0520 C   0  0  0  0  0  2  0  0  0  0  0  0
   32.5030   24.2360   44.5130 C   0  0  0  0  0  2  0  0  0  0  0  0
  1  8  1  0  0  0  0
  1  2  2  0  0  0  0
  2  6  1  0  0  0  0
  3  7  1  0  0  0  0
  3  2  1  0  0  0  0
  4  3  2  0  0  0  0
  5  4  1  0  0  0  0
  5  1  1  0  0  0  0
  8  9  2  0  0  0  0
 10 11  1  0  0  0  0
 10  8  1  0  0  0  0
 11 16  1  0  0  0  0
 12 17  1  0  0  0  0
 12 11  2  0  0  0  0
 13 12  1  0  0  0  0
 14 13  2  0  0  0  0
 14 15  1  0  0  0  0
 15 10  2  0  0  0  0
 18 14  1  0  0  0  0
 19 20  2  0  0  0  0
 19  4  1  0  0  0  0
 21 24  1  6  0  0  0
 21 22  1  0  0  0  0
 21 19  1  0  0  0  0
 22 25  1  0  0  0  0
 23 27  1  1  0  0  0
 23 21  1  0  0  0  0
 23 22  1  0  0  0  0
 26 22  1  0  0  0  0
 28 35  1  1  0  0  0
 28 23  1  0  0  0  0
 29 28  1  0  0  0  0
 30 29  1  0  0  0  0
 31 29  1  0  0  0  0
 32 31  1  0  0  0  0
 33 31  1  0  0  0  0
 33 34  1  0  0  0  0
 34 35  1  0  0  0  0
M  END
>  <minimizedAffinity>
-4.84128428

>  <minimizedRMSD>
0.0894985273

$$$$
