
 OpenBabel03272507323D

 35 38  0  0  1  0  0  0  0  0999 V2000
   35.8820   29.1770   49.8270 C   0  0  0  0  0  0  0  0  0  0  0  0
   34.8680   29.6590   50.6240 C   0  0  0  0  0  0  0  0  0  0  0  0
   33.6660   29.1140   50.1480 C   0  0  0  0  0  0  0  0  0  0  0  0
   34.0370   28.3280   49.0790 C   0  0  0  0  0  0  0  0  0  0  0  0
   35.3380   28.3930   48.9250 O   0  0  0  0  0  0  0  0  0  0  0  0
   34.8830   30.3320   51.4800 H   0  0  0  0  0  0  0  0  0  0  0  0
   32.6730   29.3000   50.5650 H   0  0  0  0  0  0  0  0  0  0  0  0
   37.2720   29.5410   50.0400 C   0  0  0  0  0  0  0  0  0  0  0  0
   37.9240   28.9540   50.9180 O   0  0  0  0  0  0  0  0  0  0  0  0
   37.8120   30.5760   49.2040 C   0  0  0  0  0  0  0  0  0  0  0  0
   38.1620   31.7650   49.8240 C   0  0  0  0  0  0  0  0  0  0  0  0
   38.6900   32.7980   49.0410 C   0  0  0  0  0  0  0  0  0  0  0  0
   38.8310   32.5720   47.6920 N   0  0  0  0  0  0  0  0  0  0  0  0
   38.4820   31.4140   47.1290 C   0  0  0  0  0  0  0  0  0  0  0  0
   37.9760   30.4190   47.8730 N   0  0  0  0  0  0  0  0  0  0  0  0
   38.0760   32.0010   50.8720 H   0  0  0  0  0  0  0  0  0  0  0  0
   38.9770   33.7470   49.4880 H   0  0  0  0  0  0  0  0  0  0  0  0
   38.6230   31.3090   46.0510 H   0  0  0  0  0  0  0  0  0  0  0  0
   33.1210   27.5400   48.2450 C   0  0  0  0  0  0  0  0  0  0  0  0
   31.8910   27.4850   48.5830 O   0  0  0  0  0  0  0  0  0  0  0  0
   33.6400   26.8190   47.0350 C   0  0  1  0  0  0  0  0  0  0  0  0
   33.7720   25.2870   47.3230 C   0  0  0  0  0  0  0  0  0  0  0  0
   32.7920   25.8390   46.3540 C   0  0  2  0  0  0  0  0  0  0  0  0
   34.6550   27.1550   46.7490 H   0  0  0  0  0  0  0  0  0  0  0  0
   33.4190   24.9220   48.3020 H   0  0  0  0  0  0  0  0  0  0  0  0
   34.6540   24.7550   46.9660 H   0  0  0  0  0  0  0  0  0  0  0  0
   31.7400   25.8340   46.7180 H   0  0  0  0  0  0  0  0  0  0  0  0
   32.8750   25.6260   44.9520 N   0  0  1  0  0  0  0  0  0  0  0  0
   31.9340   26.3040   44.1270 C   0  0  0  0  0  3  0  0  0  0  0  0
   32.4080   27.2510   43.7340 H   0  0  0  0  0  0  0  0  0  0  0  0
   31.7330   25.4370   42.8990 C   0  0  0  0  0  3  0  0  0  0  0  0
   31.1110   25.9310   42.1270 H   0  0  0  0  0  0  0  0  0  0  0  0
   32.9540   24.9720   42.4480 O   0  0  0  0  0  0  0  0  0  0  0  0
   34.0320   25.7110   42.8830 C   0  0  0  0  0  2  0  0  0  0  0  0
   34.1830   25.7130   44.3910 C   0  0  0  0  0  2  0  0  0  0  0  0
  1  8  1  0  0  0  0
  1  2  2  0  0  0  0
  2  6  1  0  0  0  0
  3  7  1  0  0  0  0
  3  2  1  0  0  0  0
  4  3  2  0  0  0  0
  5  4  1  0  0  0  0
  5  1  1  0  0  0  0
  8  9  2  0  0  0  0
 10 11  1  0  0  0  0
 10  8  1  0  0  0  0
 11 16  1  0  0  0  0
 12 17  1  0  0  0  0
 12 11  2  0  0  0  0
 13 12  1  0  0  0  0
 14 13  2  0  0  0  0
 14 15  1  0  0  0  0
 15 10  2  0  0  0  0
 18 14  1  0  0  0  0
 19 20  2  0  0  0  0
 19  4  1  0  0  0  0
 21 24  1  6  0  0  0
 21 22  1  0  0  0  0
 21 19  1  0  0  0  0
 22 25  1  0  0  0  0
 23 27  1  1  0  0  0
 23 21  1  0  0  0  0
 23 22  1  0  0  0  0
 26 22  1  0  0  0  0
 28 35  1  6  0  0  0
 28 23  1  0  0  0  0
 29 28  1  0  0  0  0
 30 29  1  0  0  0  0
 31 29  1  0  0  0  0
 32 31  1  0  0  0  0
 33 34  1  0  0  0  0
 33 31  1  0  0  0  0
 34 35  1  0  0  0  0
M  END
>  <minimizedAffinity>
-4.86100054

>  <minimizedRMSD>
0.143683553

$$$$
