
 OpenBabel03272507353D

 35 38  0  0  1  0  0  0  0  0999 V2000
   36.6860   25.7380   31.7050 C   0  0  0  0  0  0  0  0  0  0  0  0
   36.3870   27.0810   31.6860 C   0  0  0  0  0  0  0  0  0  0  0  0
   37.4310   27.7530   32.3390 C   0  0  0  0  0  0  0  0  0  0  0  0
   38.3060   26.7580   32.7160 C   0  0  0  0  0  0  0  0  0  0  0  0
   37.8340   25.5980   32.3280 O   0  0  0  0  0  0  0  0  0  0  0  0
   35.5380   27.6240   31.2720 H   0  0  0  0  0  0  0  0  0  0  0  0
   37.4960   28.8340   32.4930 H   0  0  0  0  0  0  0  0  0  0  0  0
   35.8130   24.7430   31.1100 C   0  0  0  0  0  0  0  0  0  0  0  0
   34.7530   25.1070   30.5770 O   0  0  0  0  0  0  0  0  0  0  0  0
   36.2400   23.3740   31.1770 C   0  0  0  0  0  0  0  0  0  0  0  0
   35.3820   22.4770   31.7940 C   0  0  0  0  0  0  0  0  0  0  0  0
   35.7670   21.1340   31.8800 C   0  0  0  0  0  0  0  0  0  0  0  0
   36.9820   20.7790   31.3450 N   0  0  0  0  0  0  0  0  0  0  0  0
   37.7840   21.6710   30.7590 C   0  0  0  0  0  0  0  0  0  0  0  0
   37.4230   22.9600   30.6720 N   0  0  0  0  0  0  0  0  0  0  0  0
   34.4210   22.6930   32.2290 H   0  0  0  0  0  0  0  0  0  0  0  0
   35.1220   20.3990   32.3550 H   0  0  0  0  0  0  0  0  0  0  0  0
   38.7350   21.3140   30.3580 H   0  0  0  0  0  0  0  0  0  0  0  0
   39.5680   26.9650   33.4360 C   0  0  0  0  0  0  0  0  0  0  0  0
   40.5140   27.5780   32.8370 O   0  0  0  0  0  0  0  0  0  0  0  0
   39.7240   26.4530   34.8400 C   0  0  1  0  0  0  0  0  0  0  0  0
   38.7830   27.2320   35.8160 C   0  0  0  0  0  0  0  0  0  0  0  0
   38.5960   25.7930   35.5010 C   0  0  2  0  0  0  0  0  0  0  0  0
   40.7480   26.6050   35.2310 H   0  0  0  0  0  0  0  0  0  0  0  0
   38.0970   27.9770   35.3750 H   0  0  0  0  0  0  0  0  0  0  0  0
   39.1640   27.5340   36.7910 H   0  0  0  0  0  0  0  0  0  0  0  0
   37.7430   25.5840   34.8180 H   0  0  0  0  0  0  0  0  0  0  0  0
   38.7910   24.7550   36.4500 N   0  0  1  0  0  0  0  0  0  0  0  0
   37.6320   24.1590   37.0210 C   0  0  0  0  0  3  0  0  0  0  0  0
   37.3860   23.2170   36.4490 H   0  0  0  0  0  0  0  0  0  0  0  0
   38.0310   23.6780   38.4030 C   0  0  0  0  0  3  0  0  0  0  0  0
   37.2340   23.0840   38.8920 H   0  0  0  0  0  0  0  0  0  0  0  0
   39.2630   23.0550   38.3460 O   0  0  0  0  0  0  0  0  0  0  0  0
   39.6160   22.6240   37.0870 C   0  0  0  0  0  2  0  0  0  0  0  0
   39.7360   23.7520   36.0820 C   0  0  0  0  0  2  0  0  0  0  0  0
  1  5  1  0  0  0  0
  2  1  2  0  0  0  0
  2  3  1  0  0  0  0
  3  7  1  0  0  0  0
  3  4  2  0  0  0  0
  4 19  1  0  0  0  0
  5  4  1  0  0  0  0
  6  2  1  0  0  0  0
  8 10  1  0  0  0  0
  8  1  1  0  0  0  0
  9  8  2  0  0  0  0
 10 11  1  0  0  0  0
 11 12  2  0  0  0  0
 11 16  1  0  0  0  0
 12 17  1  0  0  0  0
 13 12  1  0  0  0  0
 14 13  2  0  0  0  0
 15 14  1  0  0  0  0
 15 10  2  0  0  0  0
 18 14  1  0  0  0  0
 19 21  1  0  0  0  0
 20 19  2  0  0  0  0
 21 24  1  1  0  0  0
 21 23  1  0  0  0  0
 21 22  1  0  0  0  0
 22 26  1  0  0  0  0
 23 27  1  6  0  0  0
 23 22  1  0  0  0  0
 23 28  1  0  0  0  0
 25 22  1  0  0  0  0
 28 35  1  6  0  0  0
 28 29  1  0  0  0  0
 29 31  1  0  0  0  0
 30 29  1  0  0  0  0
 31 32  1  0  0  0  0
 33 31  1  0  0  0  0
 34 33  1  0  0  0  0
 35 34  1  0  0  0  0
M  END
>  <minimizedAffinity>
-5.76572275

$$$$

 OpenBabel03272507353D

 35 38  0  0  1  0  0  0  0  0999 V2000
   36.1950   23.4470   31.9370 C   0  0  0  0  0  0  0  0  0  0  0  0
   35.5270   24.3890   31.1880 C   0  0  0  0  0  0  0  0  0  0  0  0
   36.0420   25.6460   31.5380 C   0  0  0  0  0  0  0  0  0  0  0  0
   37.0020   25.3780   32.4890 C   0  0  0  0  0  0  0  0  0  0  0  0
   37.0590   24.0840   32.6930 O   0  0  0  0  0  0  0  0  0  0  0  0
   34.7380   24.2900   30.4430 H   0  0  0  0  0  0  0  0  0  0  0  0
   35.7220   26.6050   31.1210 H   0  0  0  0  0  0  0  0  0  0  0  0
   35.9110   22.0280   31.8250 C   0  0  0  0  0  0  0  0  0  0  0  0
   34.9700   21.5450   32.4760 O   0  0  0  0  0  0  0  0  0  0  0  0
   36.7520   21.2590   30.9530 C   0  0  0  0  0  0  0  0  0  0  0  0
   36.2540   20.0450   30.5070 C   0  0  0  0  0  0  0  0  0  0  0  0
   37.0480   19.2670   29.6560 C   0  0  0  0  0  0  0  0  0  0  0  0
   38.2850   19.7560   29.3100 N   0  0  0  0  0  0  0  0  0  0  0  0
   38.7330   20.9300   29.7590 C   0  0  0  0  0  0  0  0  0  0  0  0
   37.9790   21.6820   30.5740 N   0  0  0  0  0  0  0  0  0  0  0  0
   35.2960   19.6110   30.7420 H   0  0  0  0  0  0  0  0  0  0  0  0
   36.6940   18.3090   29.2840 H   0  0  0  0  0  0  0  0  0  0  0  0
   39.7270   21.2520   29.4400 H   0  0  0  0  0  0  0  0  0  0  0  0
   37.8320   26.3830   33.1650 C   0  0  0  0  0  0  0  0  0  0  0  0
   37.8780   27.5600   32.6740 O   0  0  0  0  0  0  0  0  0  0  0  0
   38.6040   26.0110   34.3990 C   0  0  1  0  0  0  0  0  0  0  0  0
   38.2290   26.9570   35.5870 C   0  0  0  0  0  0  0  0  0  0  0  0
   37.8940   25.5110   35.5770 C   0  0  2  0  0  0  0  0  0  0  0  0
   39.6960   26.1270   34.2610 H   0  0  0  0  0  0  0  0  0  0  0  0
   37.4310   27.6990   35.4130 H   0  0  0  0  0  0  0  0  0  0  0  0
   39.0200   27.3310   36.2360 H   0  0  0  0  0  0  0  0  0  0  0  0
   36.8190   25.2950   35.3870 H   0  0  0  0  0  0  0  0  0  0  0  0
   38.4830   24.5660   36.4580 N   0  0  1  0  0  0  0  0  0  0  0  0
   37.6100   23.7920   37.2720 C   0  0  0  0  0  3  0  0  0  0  0  0
   37.4270   22.7970   36.7700 H   0  0  0  0  0  0  0  0  0  0  0  0
   38.3850   23.4500   38.5310 C   0  0  0  0  0  3  0  0  0  0  0  0
   37.8410   22.7410   39.1850 H   0  0  0  0  0  0  0  0  0  0  0  0
   39.6690   23.0630   38.2010 O   0  0  0  0  0  0  0  0  0  0  0  0
   39.8140   22.6510   36.8950 C   0  0  0  0  0  2  0  0  0  0  0  0
   39.4970   23.7390   35.8890 C   0  0  0  0  0  2  0  0  0  0  0  0
  1  5  1  0  0  0  0
  2  3  1  0  0  0  0
  2  1  2  0  0  0  0
  3  4  2  0  0  0  0
  4  5  1  0  0  0  0
  4 19  1  0  0  0  0
  6  2  1  0  0  0  0
  7  3  1  0  0  0  0
  8  1  1  0  0  0  0
  8  9  2  0  0  0  0
 10  8  1  0  0  0  0
 11 16  1  0  0  0  0
 11 10  2  0  0  0  0
 12 11  1  0  0  0  0
 13 12  2  0  0  0  0
 13 14  1  0  0  0  0
 14 15  2  0  0  0  0
 15 10  1  0  0  0  0
 17 12  1  0  0  0  0
 18 14  1  0  0  0  0
 19 21  1  0  0  0  0
 20 19  2  0  0  0  0
 21 24  1  6  0  0  0
 21 23  1  0  0  0  0
 21 22  1  0  0  0  0
 22 26  1  0  0  0  0
 23 27  1  6  0  0  0
 23 22  1  0  0  0  0
 23 28  1  0  0  0  0
 25 22  1  0  0  0  0
 28 35  1  6  0  0  0
 28 29  1  0  0  0  0
 29 31  1  0  0  0  0
 30 29  1  0  0  0  0
 31 32  1  0  0  0  0
 33 31  1  0  0  0  0
 34 33  1  0  0  0  0
 35 34  1  0  0  0  0
M  END
>  <minimizedAffinity>
-5.58260679

$$$$

 OpenBabel03272507353D

 35 38  0  0  1  0  0  0  0  0999 V2000
   37.1480   23.6100   31.5130 C   0  0  0  0  0  0  0  0  0  0  0  0
   36.1080   24.3950   31.0700 C   0  0  0  0  0  0  0  0  0  0  0  0
   36.2120   25.6350   31.7180 C   0  0  0  0  0  0  0  0  0  0  0  0
   37.3240   25.5170   32.5220 C   0  0  0  0  0  0  0  0  0  0  0  0
   37.8400   24.3210   32.3730 O   0  0  0  0  0  0  0  0  0  0  0  0
   35.3060   24.1950   30.3600 H   0  0  0  0  0  0  0  0  0  0  0  0
   35.5340   26.4830   31.5840 H   0  0  0  0  0  0  0  0  0  0  0  0
   37.3460   22.2510   31.0420 C   0  0  0  0  0  0  0  0  0  0  0  0
   38.1110   22.0460   30.0860 O   0  0  0  0  0  0  0  0  0  0  0  0
   36.6310   21.2120   31.7270 C   0  0  0  0  0  0  0  0  0  0  0  0
   36.3430   20.0650   31.0040 C   0  0  0  0  0  0  0  0  0  0  0  0
   35.6450   19.0310   31.6380 C   0  0  0  0  0  0  0  0  0  0  0  0
   35.2830   19.2140   32.9520 N   0  0  0  0  0  0  0  0  0  0  0  0
   35.5780   20.3320   33.6180 C   0  0  0  0  0  0  0  0  0  0  0  0
   36.2470   21.3280   33.0170 N   0  0  0  0  0  0  0  0  0  0  0  0
   36.5990   19.8640   29.9770 H   0  0  0  0  0  0  0  0  0  0  0  0
   35.3990   18.1160   31.1060 H   0  0  0  0  0  0  0  0  0  0  0  0
   35.2570   20.4040   34.6600 H   0  0  0  0  0  0  0  0  0  0  0  0
   37.8500   26.5670   33.4040 C   0  0  0  0  0  0  0  0  0  0  0  0
   37.6640   27.7850   33.0720 O   0  0  0  0  0  0  0  0  0  0  0  0
   38.5900   26.1930   34.6560 C   0  0  1  0  0  0  0  0  0  0  0  0
   38.0300   26.9860   35.8820 C   0  0  0  0  0  0  0  0  0  0  0  0
   37.8820   25.5160   35.7440 C   0  0  2  0  0  0  0  0  0  0  0  0
   39.6650   26.4530   34.6010 H   0  0  0  0  0  0  0  0  0  0  0  0
   37.1560   27.6380   35.7100 H   0  0  0  0  0  0  0  0  0  0  0  0
   38.7280   27.4000   36.6090 H   0  0  0  0  0  0  0  0  0  0  0  0
   36.8550   25.1870   35.4670 H   0  0  0  0  0  0  0  0  0  0  0  0
   38.5340   24.5820   36.5910 N   0  0  1  0  0  0  0  0  0  0  0  0
   37.7170   23.7660   37.4230 C   0  0  0  0  0  3  0  0  0  0  0  0
   37.5530   22.7720   36.9120 H   0  0  0  0  0  0  0  0  0  0  0  0
   38.5460   23.4350   38.6500 C   0  0  0  0  0  3  0  0  0  0  0  0
   38.0490   22.6980   39.3110 H   0  0  0  0  0  0  0  0  0  0  0  0
   39.8310   23.1000   38.2730 O   0  0  0  0  0  0  0  0  0  0  0  0
   39.9470   22.7110   36.9560 C   0  0  0  0  0  2  0  0  0  0  0  0
   39.5570   23.8000   35.9770 C   0  0  0  0  0  2  0  0  0  0  0  0
  1  5  1  0  0  0  0
  2  1  2  0  0  0  0
  2  3  1  0  0  0  0
  3  4  2  0  0  0  0
  4 19  1  0  0  0  0
  5  4  1  0  0  0  0
  6  2  1  0  0  0  0
  7  3  1  0  0  0  0
  8  1  1  0  0  0  0
  8 10  1  0  0  0  0
  9  8  2  0  0  0  0
 10 15  1  0  0  0  0
 11 12  1  0  0  0  0
 11 10  2  0  0  0  0
 12 13  2  0  0  0  0
 13 14  1  0  0  0  0
 14 18  1  0  0  0  0
 15 14  2  0  0  0  0
 16 11  1  0  0  0  0
 17 12  1  0  0  0  0
 19 21  1  0  0  0  0
 20 19  2  0  0  0  0
 21 24  1  6  0  0  0
 21 23  1  0  0  0  0
 21 22  1  0  0  0  0
 22 26  1  0  0  0  0
 23 27  1  6  0  0  0
 23 22  1  0  0  0  0
 23 28  1  0  0  0  0
 25 22  1  0  0  0  0
 28 35  1  6  0  0  0
 28 29  1  0  0  0  0
 29 31  1  0  0  0  0
 30 29  1  0  0  0  0
 31 32  1  0  0  0  0
 33 31  1  0  0  0  0
 34 33  1  0  0  0  0
 35 34  1  0  0  0  0
M  END
>  <minimizedAffinity>
-5.55822754

$$$$

 OpenBabel03272507353D

 35 38  0  0  1  0  0  0  0  0999 V2000
   37.9140   25.5410   35.9310 C   0  0  0  0  0  0  0  0  0  0  0  0
   38.3930   26.7510   36.3810 C   0  0  0  0  0  0  0  0  0  0  0  0
   38.0120   27.7260   35.4480 C   0  0  0  0  0  0  0  0  0  0  0  0
   37.3180   27.0330   34.4810 C   0  0  0  0  0  0  0  0  0  0  0  0
   37.2850   25.7620   34.8000 O   0  0  0  0  0  0  0  0  0  0  0  0
   38.9640   27.0130   37.2710 H   0  0  0  0  0  0  0  0  0  0  0  0
   38.2390   28.7940   35.5130 H   0  0  0  0  0  0  0  0  0  0  0  0
   38.1280   24.3050   36.6620 C   0  0  0  0  0  0  0  0  0  0  0  0
   37.2550   23.9080   37.4510 O   0  0  0  0  0  0  0  0  0  0  0  0
   39.3590   23.6070   36.4200 C   0  0  0  0  0  0  0  0  0  0  0  0
   39.8310   22.7930   37.4370 C   0  0  0  0  0  0  0  0  0  0  0  0
   41.0290   22.0990   37.2370 C   0  0  0  0  0  0  0  0  0  0  0  0
   41.6740   22.2660   36.0350 N   0  0  0  0  0  0  0  0  0  0  0  0
   41.1900   23.0590   35.0770 C   0  0  0  0  0  0  0  0  0  0  0  0
   40.0420   23.7280   35.2600 N   0  0  0  0  0  0  0  0  0  0  0  0
   39.3720   22.6220   38.3970 H   0  0  0  0  0  0  0  0  0  0  0  0
   41.4340   21.4500   38.0100 H   0  0  0  0  0  0  0  0  0  0  0  0
   41.7590   23.1410   34.1480 H   0  0  0  0  0  0  0  0  0  0  0  0
   36.7110   27.6250   33.2820 C   0  0  0  0  0  0  0  0  0  0  0  0
   36.7050   26.9410   32.2050 O   0  0  0  0  0  0  0  0  0  0  0  0
   36.1220   29.0060   33.3430 C   0  0  1  0  0  0  0  0  0  0  0  0
   34.6680   29.0090   32.7660 C   0  0  0  0  0  0  0  0  0  0  0  0
   34.9620   29.2630   34.1990 C   0  0  2  0  0  0  0  0  0  0  0  0
   36.6870   29.7310   32.7270 H   0  0  0  0  0  0  0  0  0  0  0  0
   34.2390   28.0380   32.4650 H   0  0  0  0  0  0  0  0  0  0  0  0
   34.3580   29.8270   32.1170 H   0  0  0  0  0  0  0  0  0  0  0  0
   34.7110   28.4140   34.8720 H   0  0  0  0  0  0  0  0  0  0  0  0
   34.7620   30.5220   34.8260 N   0  0  1  0  0  0  0  0  0  0  0  0
   33.5380   30.7220   35.5240 C   0  0  0  0  0  3  0  0  0  0  0  0
   33.7050   30.5110   36.6210 H   0  0  0  0  0  0  0  0  0  0  0  0
   33.2420   32.2080   35.4590 C   0  0  0  0  0  3  0  0  0  0  0  0
   32.3720   32.4960   36.0800 H   0  0  0  0  0  0  0  0  0  0  0  0
   34.3950   32.9280   35.7100 O   0  0  0  0  0  0  0  0  0  0  0  0
   35.3690   32.2150   36.3730 C   0  0  0  0  0  2  0  0  0  0  0  0
   35.8590   31.0100   35.5950 C   0  0  0  0  0  2  0  0  0  0  0  0
  1  2  2  0  0  0  0
  1  8  1  0  0  0  0
  2  6  1  0  0  0  0
  3  7  1  0  0  0  0
  3  2  1  0  0  0  0
  4  5  1  0  0  0  0
  4  3  2  0  0  0  0
  5  1  1  0  0  0  0
  8  9  2  0  0  0  0
 10  8  1  0  0  0  0
 10 11  1  0  0  0  0
 11 16  1  0  0  0  0
 12 11  2  0  0  0  0
 12 17  1  0  0  0  0
 13 12  1  0  0  0  0
 14 15  1  0  0  0  0
 14 13  2  0  0  0  0
 15 10  2  0  0  0  0
 18 14  1  0  0  0  0
 19 21  1  0  0  0  0
 19  4  1  0  0  0  0
 20 19  2  0  0  0  0
 21 24  1  6  0  0  0
 21 23  1  0  0  0  0
 22 21  1  0  0  0  0
 22 23  1  0  0  0  0
 23 28  1  0  0  0  0
 23 27  1  1  0  0  0
 25 22  1  0  0  0  0
 26 22  1  0  0  0  0
 28 29  1  0  0  0  0
 28 35  1  1  0  0  0
 29 30  1  0  0  0  0
 31 29  1  0  0  0  0
 31 33  1  0  0  0  0
 31 32  1  0  0  0  0
 33 34  1  0  0  0  0
 35 34  1  0  0  0  0
M  END
>  <minimizedAffinity>
-5.53862715

$$$$

 OpenBabel03272507353D

 35 38  0  0  1  0  0  0  0  0999 V2000
   35.3860   28.9780   33.3500 C   0  0  0  0  0  0  0  0  0  0  0  0
   35.8250   29.0750   32.0500 C   0  0  0  0  0  0  0  0  0  0  0  0
   36.9810   28.2890   31.9380 C   0  0  0  0  0  0  0  0  0  0  0  0
   37.1680   27.7600   33.1960 C   0  0  0  0  0  0  0  0  0  0  0  0
   36.2160   28.1880   33.9900 O   0  0  0  0  0  0  0  0  0  0  0  0
   35.4300   29.6230   31.1950 H   0  0  0  0  0  0  0  0  0  0  0  0
   37.5750   28.1530   31.0290 H   0  0  0  0  0  0  0  0  0  0  0  0
   34.2000   29.6720   33.8190 C   0  0  0  0  0  0  0  0  0  0  0  0
   33.1160   29.4790   33.2440 O   0  0  0  0  0  0  0  0  0  0  0  0
   34.3590   30.5540   34.9410 C   0  0  0  0  0  0  0  0  0  0  0  0
   35.5680   31.2230   35.0470 C   0  0  0  0  0  0  0  0  0  0  0  0
   35.7600   32.0900   36.1290 C   0  0  0  0  0  0  0  0  0  0  0  0
   34.7320   32.2280   37.0310 N   0  0  0  0  0  0  0  0  0  0  0  0
   33.5800   31.5660   36.8970 C   0  0  0  0  0  0  0  0  0  0  0  0
   33.3880   30.7340   35.8630 N   0  0  0  0  0  0  0  0  0  0  0  0
   36.4080   31.1570   34.3760 H   0  0  0  0  0  0  0  0  0  0  0  0
   36.6940   32.6340   36.2490 H   0  0  0  0  0  0  0  0  0  0  0  0
   32.8090   31.7280   37.6540 H   0  0  0  0  0  0  0  0  0  0  0  0
   38.2600   26.8590   33.5850 C   0  0  0  0  0  0  0  0  0  0  0  0
   39.4180   27.0610   33.0880 O   0  0  0  0  0  0  0  0  0  0  0  0
   37.9970   25.7300   34.5400 C   0  0  1  0  0  0  0  0  0  0  0  0
   37.9980   24.3610   33.7850 C   0  0  0  0  0  0  0  0  0  0  0  0
   39.0350   24.7270   34.7820 C   0  0  2  0  0  0  0  0  0  0  0  0
   36.9990   25.8060   35.0140 H   0  0  0  0  0  0  0  0  0  0  0  0
   38.2510   24.3730   32.7100 H   0  0  0  0  0  0  0  0  0  0  0  0
   37.2390   23.6190   34.0320 H   0  0  0  0  0  0  0  0  0  0  0  0
   40.0200   24.9920   34.3370 H   0  0  0  0  0  0  0  0  0  0  0  0
   39.1700   24.0820   36.0400 N   0  0  1  0  0  0  0  0  0  0  0  0
   38.0400   23.3810   36.5450 C   0  0  0  0  0  3  0  0  0  0  0  0
   38.1410   22.2870   36.2820 H   0  0  0  0  0  0  0  0  0  0  0  0
   38.1460   23.4240   38.0580 C   0  0  0  0  0  3  0  0  0  0  0  0
   37.3800   22.7990   38.5550 H   0  0  0  0  0  0  0  0  0  0  0  0
   39.4460   23.1630   38.4450 O   0  0  0  0  0  0  0  0  0  0  0  0
   40.1960   22.5100   37.4920 C   0  0  0  0  0  2  0  0  0  0  0  0
   40.3550   23.3060   36.2120 C   0  0  0  0  0  2  0  0  0  0  0  0
  1  8  1  0  0  0  0
  1  5  1  0  0  0  0
  2  1  2  0  0  0  0
  3  2  1  0  0  0  0
  3  4  2  0  0  0  0
  4 19  1  0  0  0  0
  4  5  1  0  0  0  0
  6  2  1  0  0  0  0
  7  3  1  0  0  0  0
  8 10  1  0  0  0  0
  9  8  2  0  0  0  0
 10 11  2  0  0  0  0
 10 15  1  0  0  0  0
 11 12  1  0  0  0  0
 12 17  1  0  0  0  0
 12 13  2  0  0  0  0
 14 13  1  0  0  0  0
 14 18  1  0  0  0  0
 15 14  2  0  0  0  0
 16 11  1  0  0  0  0
 19 21  1  0  0  0  0
 20 19  2  0  0  0  0
 21 23  1  0  0  0  0
 21 24  1  1  0  0  0
 22 26  1  0  0  0  0
 22 21  1  0  0  0  0
 22 23  1  0  0  0  0
 23 27  1  6  0  0  0
 23 28  1  0  0  0  0
 25 22  1  0  0  0  0
 28 35  1  6  0  0  0
 28 29  1  0  0  0  0
 29 31  1  0  0  0  0
 30 29  1  0  0  0  0
 31 33  1  0  0  0  0
 31 32  1  0  0  0  0
 34 33  1  0  0  0  0
 35 34  1  0  0  0  0
M  END
>  <minimizedAffinity>
-5.46620035

$$$$

 OpenBabel03272507353D

 35 38  0  0  1  0  0  0  0  0999 V2000
   38.0670   25.4010   36.1180 C   0  0  0  0  0  0  0  0  0  0  0  0
   38.4310   26.7050   36.3610 C   0  0  0  0  0  0  0  0  0  0  0  0
   38.0220   27.4680   35.2570 C   0  0  0  0  0  0  0  0  0  0  0  0
   37.4290   26.5620   34.4060 C   0  0  0  0  0  0  0  0  0  0  0  0
   37.4770   25.3670   34.9450 O   0  0  0  0  0  0  0  0  0  0  0  0
   38.9370   27.1660   37.2080 H   0  0  0  0  0  0  0  0  0  0  0  0
   38.1630   28.5460   35.1390 H   0  0  0  0  0  0  0  0  0  0  0  0
   38.3390   24.3330   37.0630 C   0  0  0  0  0  0  0  0  0  0  0  0
   37.6780   24.2680   38.1120 O   0  0  0  0  0  0  0  0  0  0  0  0
   39.3760   23.4020   36.7170 C   0  0  0  0  0  0  0  0  0  0  0  0
   40.0070   22.7470   37.7630 C   0  0  0  0  0  0  0  0  0  0  0  0
   41.0250   21.8340   37.4640 C   0  0  0  0  0  0  0  0  0  0  0  0
   41.3430   21.6390   36.1410 N   0  0  0  0  0  0  0  0  0  0  0  0
   40.7130   22.2880   35.1590 C   0  0  0  0  0  0  0  0  0  0  0  0
   39.7370   23.1650   35.4370 N   0  0  0  0  0  0  0  0  0  0  0  0
   39.8040   22.8570   38.8150 H   0  0  0  0  0  0  0  0  0  0  0  0
   41.5450   21.2990   38.2550 H   0  0  0  0  0  0  0  0  0  0  0  0
   41.0210   22.0800   34.1320 H   0  0  0  0  0  0  0  0  0  0  0  0
   36.8360   26.8830   33.1020 C   0  0  0  0  0  0  0  0  0  0  0  0
   36.5510   28.1010   32.8500 O   0  0  0  0  0  0  0  0  0  0  0  0
   36.5730   25.7880   32.1070 C   0  0  1  0  0  0  0  0  0  0  0  0
   37.6220   25.8370   30.9480 C   0  0  0  0  0  0  0  0  0  0  0  0
   37.5580   24.7210   31.9250 C   0  0  2  0  0  0  0  0  0  0  0  0
   35.5860   25.8940   31.6180 H   0  0  0  0  0  0  0  0  0  0  0  0
   38.4330   26.5810   31.0270 H   0  0  0  0  0  0  0  0  0  0  0  0
   37.2850   25.6860   29.9220 H   0  0  0  0  0  0  0  0  0  0  0  0
   38.3720   24.7340   32.6840 H   0  0  0  0  0  0  0  0  0  0  0  0
   37.1710   23.4000   31.5770 N   0  0  1  0  0  0  0  0  0  0  0  0
   37.7940   22.3270   32.2730 C   0  0  0  0  0  3  0  0  0  0  0  0
   37.1250   22.0050   33.1240 H   0  0  0  0  0  0  0  0  0  0  0  0
   37.8040   21.1440   31.3230 C   0  0  0  0  0  3  0  0  0  0  0  0
   38.1570   20.2130   31.8080 H   0  0  0  0  0  0  0  0  0  0  0  0
   36.5800   21.0390   30.6910 O   0  0  0  0  0  0  0  0  0  0  0  0
   35.5530   21.6800   31.3470 C   0  0  0  0  0  2  0  0  0  0  0  0
   35.7660   23.1750   31.4720 C   0  0  0  0  0  2  0  0  0  0  0  0
  1  2  2  0  0  0  0
  1  8  1  0  0  0  0
  2  6  1  0  0  0  0
  3  2  1  0  0  0  0
  4  5  1  0  0  0  0
  4  3  2  0  0  0  0
  5  1  1  0  0  0  0
  7  3  1  0  0  0  0
  8  9  2  0  0  0  0
 10  8  1  0  0  0  0
 10 11  1  0  0  0  0
 11 16  1  0  0  0  0
 12 11  2  0  0  0  0
 12 17  1  0  0  0  0
 13 12  1  0  0  0  0
 14 15  1  0  0  0  0
 14 13  2  0  0  0  0
 15 10  2  0  0  0  0
 18 14  1  0  0  0  0
 19  4  1  0  0  0  0
 20 19  2  0  0  0  0
 21 24  1  6  0  0  0
 21 19  1  0  0  0  0
 22 25  1  0  0  0  0
 22 23  1  0  0  0  0
 22 21  1  0  0  0  0
 23 21  1  0  0  0  0
 23 27  1  1  0  0  0
 26 22  1  0  0  0  0
 28 35  1  1  0  0  0
 28 23  1  0  0  0  0
 28 29  1  0  0  0  0
 29 30  1  0  0  0  0
 31 32  1  0  0  0  0
 31 29  1  0  0  0  0
 33 31  1  0  0  0  0
 33 34  1  0  0  0  0
 34 35  1  0  0  0  0
M  END
>  <minimizedAffinity>
-5.44206715

$$$$

 OpenBabel03272507353D

 35 38  0  0  1  0  0  0  0  0999 V2000
   37.9230   25.5290   35.8800 C   0  0  0  0  0  0  0  0  0  0  0  0
   38.4250   26.6960   36.4090 C   0  0  0  0  0  0  0  0  0  0  0  0
   38.0400   27.7420   35.5580 C   0  0  0  0  0  0  0  0  0  0  0  0
   37.3200   27.1310   34.5550 C   0  0  0  0  0  0  0  0  0  0  0  0
   37.2770   25.8400   34.7810 O   0  0  0  0  0  0  0  0  0  0  0  0
   39.0160   26.8860   37.3050 H   0  0  0  0  0  0  0  0  0  0  0  0
   38.2820   28.8000   35.6970 H   0  0  0  0  0  0  0  0  0  0  0  0
   38.1340   24.2400   36.5140 C   0  0  0  0  0  0  0  0  0  0  0  0
   37.2070   23.7200   37.1550 O   0  0  0  0  0  0  0  0  0  0  0  0
   39.4270   23.6370   36.3540 C   0  0  0  0  0  0  0  0  0  0  0  0
   39.8710   22.8180   37.3800 C   0  0  0  0  0  0  0  0  0  0  0  0
   41.1280   22.2150   37.2600 C   0  0  0  0  0  0  0  0  0  0  0  0
   41.8560   22.4720   36.1230 N   0  0  0  0  0  0  0  0  0  0  0  0
   41.3970   23.2660   35.1540 C   0  0  0  0  0  0  0  0  0  0  0  0
   40.1930   23.8480   35.2610 N   0  0  0  0  0  0  0  0  0  0  0  0
   39.3480   22.5790   38.2920 H   0  0  0  0  0  0  0  0  0  0  0  0
   41.5120   21.5660   38.0430 H   0  0  0  0  0  0  0  0  0  0  0  0
   42.0330   23.4230   34.2800 H   0  0  0  0  0  0  0  0  0  0  0  0
   36.6990   27.8170   33.4160 C   0  0  0  0  0  0  0  0  0  0  0  0
   37.1340   27.5600   32.2440 O   0  0  0  0  0  0  0  0  0  0  0  0
   35.5840   28.7970   33.6470 C   0  0  1  0  0  0  0  0  0  0  0  0
   35.8140   30.0970   32.8080 C   0  0  0  0  0  0  0  0  0  0  0  0
   34.6950   29.1590   32.5410 C   0  0  2  0  0  0  0  0  0  0  0  0
   35.5300   29.1300   34.7010 H   0  0  0  0  0  0  0  0  0  0  0  0
   36.6810   30.1150   32.1250 H   0  0  0  0  0  0  0  0  0  0  0  0
   35.6190   31.0650   33.2680 H   0  0  0  0  0  0  0  0  0  0  0  0
   34.8360   28.5290   31.6350 H   0  0  0  0  0  0  0  0  0  0  0  0
   33.3310   29.4880   32.7590 N   0  0  1  0  0  0  0  0  0  0  0  0
   32.8540   29.4670   34.0990 C   0  0  0  0  0  3  0  0  0  0  0  0
   32.8900   30.5150   34.5170 H   0  0  0  0  0  0  0  0  0  0  0  0
   31.3770   29.1310   34.0260 C   0  0  0  0  0  3  0  0  0  0  0  0
   30.8740   29.2100   35.0100 H   0  0  0  0  0  0  0  0  0  0  0  0
   30.7800   29.8560   33.0130 O   0  0  0  0  0  0  0  0  0  0  0  0
   31.4860   30.9750   32.6320 C   0  0  0  0  0  2  0  0  0  0  0  0
   32.8620   30.6530   32.0830 C   0  0  0  0  0  2  0  0  0  0  0  0
  1  2  2  0  0  0  0
  1  8  1  0  0  0  0
  2  6  1  0  0  0  0
  3  7  1  0  0  0  0
  3  2  1  0  0  0  0
  4  5  1  0  0  0  0
  4  3  2  0  0  0  0
  5  1  1  0  0  0  0
  8  9  2  0  0  0  0
 10  8  1  0  0  0  0
 10 11  1  0  0  0  0
 11 16  1  0  0  0  0
 12 11  2  0  0  0  0
 12 17  1  0  0  0  0
 13 12  1  0  0  0  0
 14 15  1  0  0  0  0
 14 13  2  0  0  0  0
 15 10  2  0  0  0  0
 18 14  1  0  0  0  0
 19 21  1  0  0  0  0
 19  4  1  0  0  0  0
 20 19  2  0  0  0  0
 21 24  1  1  0  0  0
 22 26  1  0  0  0  0
 22 21  1  0  0  0  0
 23 27  1  6  0  0  0
 23 28  1  0  0  0  0
 23 22  1  0  0  0  0
 23 21  1  0  0  0  0
 25 22  1  0  0  0  0
 28 35  1  1  0  0  0
 28 29  1  0  0  0  0
 29 30  1  0  0  0  0
 31 29  1  0  0  0  0
 31 32  1  0  0  0  0
 33 31  1  0  0  0  0
 34 33  1  0  0  0  0
 35 34  1  0  0  0  0
M  END
>  <minimizedAffinity>
-5.4058094

$$$$

 OpenBabel03272507353D

 35 38  0  0  1  0  0  0  0  0999 V2000
   37.9600   25.7150   34.8060 C   0  0  0  0  0  0  0  0  0  0  0  0
   38.6060   26.6920   35.5290 C   0  0  0  0  0  0  0  0  0  0  0  0
   37.9720   27.9110   35.2470 C   0  0  0  0  0  0  0  0  0  0  0  0
   36.9700   27.5870   34.3600 C   0  0  0  0  0  0  0  0  0  0  0  0
   36.9980   26.2970   34.1280 O   0  0  0  0  0  0  0  0  0  0  0  0
   39.4510   26.6400   36.2150 H   0  0  0  0  0  0  0  0  0  0  0  0
   38.2470   28.8840   35.6640 H   0  0  0  0  0  0  0  0  0  0  0  0
   38.3590   24.3200   34.8620 C   0  0  0  0  0  0  0  0  0  0  0  0
   38.3230   23.6370   33.8260 O   0  0  0  0  0  0  0  0  0  0  0  0
   38.7780   23.8110   36.1380 C   0  0  0  0  0  0  0  0  0  0  0  0
   40.0180   23.1940   36.1920 C   0  0  0  0  0  0  0  0  0  0  0  0
   40.4580   22.6830   37.4180 C   0  0  0  0  0  0  0  0  0  0  0  0
   39.6300   22.8240   38.5060 N   0  0  0  0  0  0  0  0  0  0  0  0
   38.4410   23.4250   38.4170 C   0  0  0  0  0  0  0  0  0  0  0  0
   38.0120   23.9170   37.2450 N   0  0  0  0  0  0  0  0  0  0  0  0
   40.7090   23.0540   35.3780 H   0  0  0  0  0  0  0  0  0  0  0  0
   41.4240   22.1920   37.5040 H   0  0  0  0  0  0  0  0  0  0  0  0
   37.8390   23.4990   39.3250 H   0  0  0  0  0  0  0  0  0  0  0  0
   36.0200   28.5370   33.7680 C   0  0  0  0  0  0  0  0  0  0  0  0
   35.6500   28.3510   32.5610 O   0  0  0  0  0  0  0  0  0  0  0  0
   35.5140   29.6960   34.5780 C   0  0  1  0  0  0  0  0  0  0  0  0
   35.4020   30.9790   33.6910 C   0  0  0  0  0  0  0  0  0  0  0  0
   34.2150   30.2920   34.2600 C   0  0  2  0  0  0  0  0  0  0  0  0
   36.2020   29.9640   35.4020 H   0  0  0  0  0  0  0  0  0  0  0  0
   35.6250   30.8750   32.6150 H   0  0  0  0  0  0  0  0  0  0  0  0
   35.7290   31.9350   34.0990 H   0  0  0  0  0  0  0  0  0  0  0  0
   33.6290   29.7080   33.5170 H   0  0  0  0  0  0  0  0  0  0  0  0
   33.3900   30.8630   35.2650 N   0  0  1  0  0  0  0  0  0  0  0  0
   32.3710   30.0420   35.8240 C   0  0  0  0  0  3  0  0  0  0  0  0
   32.7550   29.5870   36.7840 H   0  0  0  0  0  0  0  0  0  0  0  0
   31.2560   30.9740   36.2590 C   0  0  0  0  0  3  0  0  0  0  0  0
   30.4610   30.4500   36.8240 H   0  0  0  0  0  0  0  0  0  0  0  0
   31.7880   32.0770   36.8980 O   0  0  0  0  0  0  0  0  0  0  0  0
   33.0640   31.8850   37.3810 C   0  0  0  0  0  2  0  0  0  0  0  0
   34.0730   31.5780   36.2930 C   0  0  0  0  0  2  0  0  0  0  0  0
  1  8  1  0  0  0  0
  1  2  2  0  0  0  0
  2  6  1  0  0  0  0
  3  2  1  0  0  0  0
  3  7  1  0  0  0  0
  4  3  2  0  0  0  0
  5  4  1  0  0  0  0
  5  1  1  0  0  0  0
  8 10  1  0  0  0  0
  9  8  2  0  0  0  0
 10 11  2  0  0  0  0
 10 15  1  0  0  0  0
 11 12  1  0  0  0  0
 12 17  1  0  0  0  0
 12 13  2  0  0  0  0
 14 13  1  0  0  0  0
 14 18  1  0  0  0  0
 15 14  2  0  0  0  0
 16 11  1  0  0  0  0
 19  4  1  0  0  0  0
 19 21  1  0  0  0  0
 20 19  2  0  0  0  0
 21 24  1  1  0  0  0
 22 26  1  0  0  0  0
 22 23  1  0  0  0  0
 22 21  1  0  0  0  0
 23 27  1  6  0  0  0
 23 21  1  0  0  0  0
 23 28  1  0  0  0  0
 25 22  1  0  0  0  0
 28 29  1  0  0  0  0
 28 35  1  1  0  0  0
 29 31  1  0  0  0  0
 29 30  1  0  0  0  0
 31 32  1  0  0  0  0
 31 33  1  0  0  0  0
 33 34  1  0  0  0  0
 35 34  1  0  0  0  0
M  END
>  <minimizedAffinity>
-5.38221741

$$$$

 OpenBabel03272507353D

 35 38  0  0  1  0  0  0  0  0999 V2000
   37.8000   25.6410   34.4520 C   0  0  0  0  0  0  0  0  0  0  0  0
   37.9500   26.7060   35.3110 C   0  0  0  0  0  0  0  0  0  0  0  0
   37.2890   27.8030   34.7400 C   0  0  0  0  0  0  0  0  0  0  0  0
   36.7750   27.3240   33.5550 C   0  0  0  0  0  0  0  0  0  0  0  0
   37.0970   26.0590   33.4250 O   0  0  0  0  0  0  0  0  0  0  0  0
   38.4600   26.7910   36.2710 H   0  0  0  0  0  0  0  0  0  0  0  0
   37.2210   28.8040   35.1750 H   0  0  0  0  0  0  0  0  0  0  0  0
   38.3640   24.3340   34.7350 C   0  0  0  0  0  0  0  0  0  0  0  0
   38.6910   23.5970   33.7900 O   0  0  0  0  0  0  0  0  0  0  0  0
   38.5100   23.9700   36.1160 C   0  0  0  0  0  0  0  0  0  0  0  0
   39.6850   23.3300   36.4770 C   0  0  0  0  0  0  0  0  0  0  0  0
   39.8610   22.9580   37.8150 C   0  0  0  0  0  0  0  0  0  0  0  0
   38.8510   23.2510   38.7000 N   0  0  0  0  0  0  0  0  0  0  0  0
   37.7320   23.8690   38.3170 C   0  0  0  0  0  0  0  0  0  0  0  0
   37.5550   24.2290   37.0360 N   0  0  0  0  0  0  0  0  0  0  0  0
   40.5100   23.0740   35.8320 H   0  0  0  0  0  0  0  0  0  0  0  0
   40.7690   22.4550   38.1390 H   0  0  0  0  0  0  0  0  0  0  0  0
   36.9740   24.0680   39.0780 H   0  0  0  0  0  0  0  0  0  0  0  0
   35.9900   28.1050   32.5920 C   0  0  0  0  0  0  0  0  0  0  0  0
   35.7190   27.5770   31.4620 O   0  0  0  0  0  0  0  0  0  0  0  0
   35.5330   29.4910   32.9450 C   0  0  1  0  0  0  0  0  0  0  0  0
   34.0610   29.7220   32.4700 C   0  0  0  0  0  0  0  0  0  0  0  0
   34.4410   29.6740   33.9040 C   0  0  2  0  0  0  0  0  0  0  0  0
   36.1330   30.2720   32.4410 H   0  0  0  0  0  0  0  0  0  0  0  0
   33.5310   28.8640   32.0210 H   0  0  0  0  0  0  0  0  0  0  0  0
   33.7970   30.6720   32.0050 H   0  0  0  0  0  0  0  0  0  0  0  0
   34.1450   28.7350   34.4220 H   0  0  0  0  0  0  0  0  0  0  0  0
   34.3850   30.8020   34.7650 N   0  0  1  0  0  0  0  0  0  0  0  0
   35.5930   31.2030   35.4020 C   0  0  0  0  0  3  0  0  0  0  0  0
   36.0670   32.0320   34.7990 H   0  0  0  0  0  0  0  0  0  0  0  0
   35.1920   31.8600   36.7100 C   0  0  0  0  0  3  0  0  0  0  0  0
   36.0510   32.3240   37.2330 H   0  0  0  0  0  0  0  0  0  0  0  0
   34.1180   32.7040   36.5020 O   0  0  0  0  0  0  0  0  0  0  0  0
   33.9570   33.0960   35.1910 C   0  0  0  0  0  2  0  0  0  0  0  0
   33.6920   31.9380   34.2510 C   0  0  0  0  0  2  0  0  0  0  0  0
  1  8  1  0  0  0  0
  1  2  2  0  0  0  0
  2  6  1  0  0  0  0
  3  7  1  0  0  0  0
  3  2  1  0  0  0  0
  4  3  2  0  0  0  0
  5  4  1  0  0  0  0
  5  1  1  0  0  0  0
  8 10  1  0  0  0  0
  9  8  2  0  0  0  0
 10 11  2  0  0  0  0
 10 15  1  0  0  0  0
 11 12  1  0  0  0  0
 12 17  1  0  0  0  0
 12 13  2  0  0  0  0
 14 13  1  0  0  0  0
 14 18  1  0  0  0  0
 15 14  2  0  0  0  0
 16 11  1  0  0  0  0
 19 21  1  0  0  0  0
 19  4  1  0  0  0  0
 20 19  2  0  0  0  0
 21 24  1  6  0  0  0
 21 23  1  0  0  0  0
 22 21  1  0  0  0  0
 22 23  1  0  0  0  0
 23 27  1  1  0  0  0
 23 28  1  0  0  0  0
 25 22  1  0  0  0  0
 26 22  1  0  0  0  0
 28 35  1  6  0  0  0
 28 29  1  0  0  0  0
 29 31  1  0  0  0  0
 30 29  1  0  0  0  0
 31 32  1  0  0  0  0
 33 31  1  0  0  0  0
 34 33  1  0  0  0  0
 35 34  1  0  0  0  0
M  END
>  <minimizedAffinity>
-5.36845064

$$$$
