
 OpenBabel03272504433D

 44 46  0  0  1  0  0  0  0  0999 V2000
   37.4510   27.6190   32.9020 C   0  0  0  0  0  0  0  0  0  0  0  0
   38.0700   28.1360   33.6930 H   0  0  0  0  0  0  0  0  0  0  0  0
   38.0140   27.8850   31.9590 H   0  0  0  0  0  0  0  0  0  0  0  0
   39.1170   26.7260   35.1920 Cl  0  0  0  0  0  0  0  0  0  0  0  0
   38.3140   25.6360   34.0760 C   0  0  0  0  0  0  0  0  0  0  0  0
   38.4520   24.2920   34.2480 C   0  0  0  0  0  0  0  0  0  0  0  0
   37.8290   23.4160   33.3820 C   0  0  0  0  0  0  0  0  0  0  0  0
   37.0670   23.9320   32.3430 C   0  0  0  0  0  0  0  0  0  0  0  0
   36.9720   25.3330   32.2310 C   0  0  0  0  0  0  0  0  0  0  0  0
   37.5720   26.1980   33.0650 C   0  0  0  0  0  0  0  0  0  0  0  0
   37.9550   22.3400   33.5400 H   0  0  0  0  0  0  0  0  0  0  0  0
   36.6200   23.1950   31.7210 H   0  0  0  0  0  0  0  0  0  0  0  0
   36.3840   25.5460   31.4260 H   0  0  0  0  0  0  0  0  0  0  0  0
   41.2760   22.9780   36.2250 C   0  0  0  0  0  0  0  0  0  0  0  0
   40.6330   22.7300   37.4740 C   0  0  0  0  0  0  0  0  0  0  0  0
   39.2550   23.0260   37.5860 C   0  0  0  0  0  0  0  0  0  0  0  0
   38.6030   23.5300   36.5070 N   0  0  0  0  0  0  0  0  0  0  0  0
   39.2500   23.7520   35.3340 C   0  0  0  0  0  0  0  0  0  0  0  0
   40.5600   23.4770   35.2080 N   0  0  0  0  0  0  0  0  0  0  0  0
   42.3250   22.7460   36.1580 H   0  0  0  0  0  0  0  0  0  0  0  0
   41.1970   22.3320   38.2930 H   0  0  0  0  0  0  0  0  0  0  0  0
   38.6500   22.7730   38.8300 N   0  0  0  0  0  0  0  0  0  0  0  0
   37.8830   22.0580   38.8290 H   0  0  0  0  0  0  0  0  0  0  0  0
   38.8920   23.2230   39.7320 H   0  0  0  0  0  0  0  0  0  0  0  0
   36.1340   28.2430   32.8620 C   0  0  0  0  0  0  0  0  0  0  0  0
   35.3660   27.5990   32.3840 H   0  0  0  0  0  0  0  0  0  0  0  0
   36.1100   29.1830   32.2350 H   0  0  0  0  0  0  0  0  0  0  0  0
   35.6640   28.5160   34.1250 O   0  0  0  0  0  0  0  0  0  0  0  0
   33.4480   29.5700   35.0550 O   0  0  0  0  0  0  0  0  0  0  0  0
   34.5750   29.7840   34.0890 P   0  0  2  0  0  0  0  0  0  0  0  0
   33.9460   29.8390   32.4780 O   0  0  0  0  0  0  0  0  0  0  0  0
   31.4770   29.1780   31.9610 H   0  0  0  0  0  0  0  0  0  0  0  0
   31.6080   29.9950   32.5660 N   0  0  0  0  0  0  0  0  0  0  0  0
   32.8440   30.6850   32.3970 C   0  0  2  0  0  3  0  0  0  0  0  0
   32.7490   31.4680   31.1110 C   0  0  0  0  0  3  0  0  0  0  0  0
   33.6200   32.1580   30.9800 H   0  0  0  0  0  0  0  0  0  0  0  0
   31.6590   32.3290   31.2210 O   0  0  0  0  0  0  0  0  0  0  0  0
   30.4430   31.7090   31.3470 C   0  0  0  0  0  2  0  0  0  0  0  0
   30.4860   30.8830   32.6270 C   0  0  0  0  0  2  0  0  0  0  0  0
   35.2810   31.2550   34.3480 O   0  0  0  0  0  0  0  0  0  0  0  0
   35.8880   31.3110   35.5810 C   0  0  0  0  0  0  0  0  0  0  0  0
   36.6420   30.1610   35.8400 F   0  0  0  0  0  0  0  0  0  0  0  0
   36.7760   32.3740   35.6660 F   0  0  0  0  0  0  0  0  0  0  0  0
   34.9700   31.4470   36.5900 F   0  0  0  0  0  0  0  0  0  0  0  0
  1 10  1  0  0  0  0
  1  2  1  0  0  0  0
  3  1  1  0  0  0  0
  5  6  1  0  0  0  0
  5  4  1  0  0  0  0
  6 18  1  0  0  0  0
  7 11  1  0  0  0  0
  7  6  2  0  0  0  0
  8  7  1  0  0  0  0
  9  8  2  0  0  0  0
  9 10  1  0  0  0  0
 10  5  2  0  0  0  0
 12  8  1  0  0  0  0
 13  9  1  0  0  0  0
 14 15  1  0  0  0  0
 15 16  2  0  0  0  0
 15 21  1  0  0  0  0
 16 22  1  0  0  0  0
 17 16  1  0  0  0  0
 18 17  2  0  0  0  0
 19 18  1  0  0  0  0
 19 14  2  0  0  0  0
 20 14  1  0  0  0  0
 22 24  1  0  0  0  0
 23 22  1  0  0  0  0
 25  1  1  0  0  0  0
 25 28  1  0  0  0  0
 26 25  1  0  0  0  0
 27 25  1  0  0  0  0
 30 28  1  0  0  0  0
 30 40  1  0  0  0  0
 30 29  2  1  0  0  0
 31 30  1  0  0  0  0
 32 33  1  0  0  0  0
 33 39  1  0  0  0  0
 34 31  1  6  0  0  0
 34 33  1  0  0  0  0
 35 37  1  0  0  0  0
 35 34  1  0  0  0  0
 36 35  1  0  0  0  0
 37 38  1  0  0  0  0
 38 39  1  0  0  0  0
 40 41  1  0  0  0  0
 41 43  1  0  0  0  0
 41 42  1  0  0  0  0
 41 44  1  0  0  0  0
M  END
>  <minimizedAffinity>
-6.08298063

$$$$

 OpenBabel03272504433D

 44 46  0  0  1  0  0  0  0  0999 V2000
   36.6170   27.7910   33.9110 C   0  0  0  0  0  0  0  0  0  0  0  0
   35.7230   27.7650   34.6010 H   0  0  0  0  0  0  0  0  0  0  0  0
   37.3820   28.3260   34.5490 H   0  0  0  0  0  0  0  0  0  0  0  0
   38.3180   26.7200   36.0960 Cl  0  0  0  0  0  0  0  0  0  0  0  0
   37.9050   25.8280   34.6420 C   0  0  0  0  0  0  0  0  0  0  0  0
   38.3880   24.5640   34.4820 C   0  0  0  0  0  0  0  0  0  0  0  0
   38.0760   23.8430   33.3470 C   0  0  0  0  0  0  0  0  0  0  0  0
   37.2690   24.4310   32.3830 C   0  0  0  0  0  0  0  0  0  0  0  0
   36.8090   25.7410   32.6210 C   0  0  0  0  0  0  0  0  0  0  0  0
   37.1030   26.4550   33.7200 C   0  0  0  0  0  0  0  0  0  0  0  0
   38.4760   22.8300   33.2400 H   0  0  0  0  0  0  0  0  0  0  0  0
   37.0740   23.8130   31.5400 H   0  0  0  0  0  0  0  0  0  0  0  0
   36.2360   26.0240   31.8270 H   0  0  0  0  0  0  0  0  0  0  0  0
   41.3100   23.1710   36.2520 C   0  0  0  0  0  0  0  0  0  0  0  0
   40.7090   22.7720   37.4840 C   0  0  0  0  0  0  0  0  0  0  0  0
   39.3240   22.9990   37.6550 C   0  0  0  0  0  0  0  0  0  0  0  0
   38.6260   23.5830   36.6470 N   0  0  0  0  0  0  0  0  0  0  0  0
   39.2330   23.9490   35.4890 C   0  0  0  0  0  0  0  0  0  0  0  0
   40.5490   23.7420   35.3080 N   0  0  0  0  0  0  0  0  0  0  0  0
   42.3650   22.9900   36.1400 H   0  0  0  0  0  0  0  0  0  0  0  0
   41.3080   22.3160   38.2450 H   0  0  0  0  0  0  0  0  0  0  0  0
   38.7600   22.5960   38.8780 N   0  0  0  0  0  0  0  0  0  0  0  0
   38.0220   21.8540   38.8210 H   0  0  0  0  0  0  0  0  0  0  0  0
   39.0080   22.9620   39.8170 H   0  0  0  0  0  0  0  0  0  0  0  0
   36.2910   28.6250   32.7610 C   0  0  0  0  0  0  0  0  0  0  0  0
   36.8560   28.3410   31.8480 H   0  0  0  0  0  0  0  0  0  0  0  0
   36.5680   29.7110   32.9100 H   0  0  0  0  0  0  0  0  0  0  0  0
   34.9600   28.5280   32.4250 O   0  0  0  0  0  0  0  0  0  0  0  0
   33.4200   30.6170   32.0390 O   0  0  0  0  0  0  0  0  0  0  0  0
   34.0890   29.7880   33.0950 P   0  0  2  0  0  0  0  0  0  0  0  0
   35.2300   30.7660   33.9520 O   0  0  0  0  0  0  0  0  0  0  0  0
   33.6960   32.8440   34.3140 H   0  0  0  0  0  0  0  0  0  0  0  0
   33.5610   32.0640   34.9660 N   0  0  0  0  0  0  0  0  0  0  0  0
   34.6970   31.2240   35.1530 C   0  0  2  0  0  3  0  0  0  0  0  0
   35.6720   31.9770   36.0250 C   0  0  0  0  0  3  0  0  0  0  0  0
   36.5260   31.3290   36.3470 H   0  0  0  0  0  0  0  0  0  0  0  0
   35.0220   32.2820   37.2190 O   0  0  0  0  0  0  0  0  0  0  0  0
   33.9440   33.1200   37.0910 C   0  0  0  0  0  2  0  0  0  0  0  0
   32.9270   32.4160   36.2000 C   0  0  0  0  0  2  0  0  0  0  0  0
   32.9860   29.2900   34.2190 O   0  0  0  0  0  0  0  0  0  0  0  0
   31.8140   28.8820   33.6260 C   0  0  0  0  0  0  0  0  0  0  0  0
   31.0020   28.1700   34.5180 F   0  0  0  0  0  0  0  0  0  0  0  0
   31.0530   29.9620   33.2010 F   0  0  0  0  0  0  0  0  0  0  0  0
   32.0490   28.0790   32.5410 F   0  0  0  0  0  0  0  0  0  0  0  0
  1  3  1  0  0  0  0
  1  2  1  0  0  0  0
  5  4  1  0  0  0  0
  6  5  1  0  0  0  0
  6 18  1  0  0  0  0
  7  6  2  0  0  0  0
  8  9  2  0  0  0  0
  8  7  1  0  0  0  0
  9 10  1  0  0  0  0
 10  1  1  0  0  0  0
 10  5  2  0  0  0  0
 11  7  1  0  0  0  0
 12  8  1  0  0  0  0
 13  9  1  0  0  0  0
 14 15  1  0  0  0  0
 15 16  2  0  0  0  0
 15 21  1  0  0  0  0
 16 22  1  0  0  0  0
 17 16  1  0  0  0  0
 18 17  2  0  0  0  0
 19 18  1  0  0  0  0
 19 14  2  0  0  0  0
 20 14  1  0  0  0  0
 22 24  1  0  0  0  0
 23 22  1  0  0  0  0
 25 27  1  0  0  0  0
 25  1  1  0  0  0  0
 26 25  1  0  0  0  0
 28 25  1  0  0  0  0
 28 30  1  0  0  0  0
 30 29  2  6  0  0  0
 30 31  1  0  0  0  0
 30 40  1  0  0  0  0
 32 33  1  0  0  0  0
 33 34  1  0  0  0  0
 33 39  1  0  0  0  0
 34 31  1  6  0  0  0
 34 35  1  0  0  0  0
 35 36  1  0  0  0  0
 35 37  1  0  0  0  0
 38 37  1  0  0  0  0
 39 38  1  0  0  0  0
 41 40  1  0  0  0  0
 41 42  1  0  0  0  0
 43 41  1  0  0  0  0
 44 41  1  0  0  0  0
M  END
>  <minimizedAffinity>
-5.9788456

$$$$

 OpenBabel03272504433D

 44 46  0  0  1  0  0  0  0  0999 V2000
   36.7110   28.5510   34.3760 C   0  0  0  0  0  0  0  0  0  0  0  0
   36.8430   28.6940   35.4890 H   0  0  0  0  0  0  0  0  0  0  0  0
   37.5290   29.2130   33.9620 H   0  0  0  0  0  0  0  0  0  0  0  0
   38.3590   27.0990   36.3740 Cl  0  0  0  0  0  0  0  0  0  0  0  0
   37.8220   26.4080   34.8520 C   0  0  0  0  0  0  0  0  0  0  0  0
   38.1740   25.1290   34.5450 C   0  0  0  0  0  0  0  0  0  0  0  0
   37.7640   24.5650   33.3540 C   0  0  0  0  0  0  0  0  0  0  0  0
   36.9910   25.3250   32.4860 C   0  0  0  0  0  0  0  0  0  0  0  0
   36.6680   26.6400   32.8750 C   0  0  0  0  0  0  0  0  0  0  0  0
   37.0600   27.2020   34.0300 C   0  0  0  0  0  0  0  0  0  0  0  0
   38.0590   23.5360   33.1290 H   0  0  0  0  0  0  0  0  0  0  0  0
   36.7140   24.8210   31.5930 H   0  0  0  0  0  0  0  0  0  0  0  0
   36.1030   27.0580   32.1370 H   0  0  0  0  0  0  0  0  0  0  0  0
   40.9910   23.2770   36.0460 C   0  0  0  0  0  0  0  0  0  0  0  0
   40.3920   22.8200   37.2580 C   0  0  0  0  0  0  0  0  0  0  0  0
   39.0460   23.1690   37.5100 C   0  0  0  0  0  0  0  0  0  0  0  0
   38.3800   23.9180   36.5940 N   0  0  0  0  0  0  0  0  0  0  0  0
   38.9840   24.3340   35.4510 C   0  0  0  0  0  0  0  0  0  0  0  0
   40.2630   24.0130   35.1940 N   0  0  0  0  0  0  0  0  0  0  0  0
   42.0170   23.0020   35.8700 H   0  0  0  0  0  0  0  0  0  0  0  0
   40.9650   22.2320   37.9450 H   0  0  0  0  0  0  0  0  0  0  0  0
   38.4830   22.7060   38.7130 N   0  0  0  0  0  0  0  0  0  0  0  0
   37.6690   22.0520   38.6170 H   0  0  0  0  0  0  0  0  0  0  0  0
   38.7990   22.9490   39.6700 H   0  0  0  0  0  0  0  0  0  0  0  0
   35.4170   29.0960   33.9880 C   0  0  0  0  0  0  0  0  0  0  0  0
   34.8430   28.4150   33.3240 H   0  0  0  0  0  0  0  0  0  0  0  0
   35.5020   30.0440   33.3770 H   0  0  0  0  0  0  0  0  0  0  0  0
   34.6130   29.3210   35.0810 O   0  0  0  0  0  0  0  0  0  0  0  0
   33.8770   31.3700   36.5450 O   0  0  0  0  0  0  0  0  0  0  0  0
   34.1230   30.9180   35.1360 P   0  0  2  0  0  0  0  0  0  0  0  0
   32.6440   31.0040   34.2410 O   0  0  0  0  0  0  0  0  0  0  0  0
   32.9580   29.2990   36.1880 H   0  0  0  0  0  0  0  0  0  0  0  0
   32.0030   29.6430   36.0390 N   0  0  0  0  0  0  0  0  0  0  0  0
   31.7160   30.0810   34.7140 C   0  0  2  0  0  3  0  0  0  0  0  0
   31.5650   28.8490   33.8560 C   0  0  0  0  0  3  0  0  0  0  0  0
   31.1880   29.1000   32.8330 H   0  0  0  0  0  0  0  0  0  0  0  0
   30.5430   28.0770   34.4040 O   0  0  0  0  0  0  0  0  0  0  0  0
   30.7920   27.6000   35.6650 C   0  0  0  0  0  2  0  0  0  0  0  0
   30.9730   28.8070   36.5780 C   0  0  0  0  0  2  0  0  0  0  0  0
   35.1700   31.9460   34.3780 O   0  0  0  0  0  0  0  0  0  0  0  0
   36.1150   32.4340   35.2500 C   0  0  0  0  0  0  0  0  0  0  0  0
   37.1670   33.0650   34.5750 F   0  0  0  0  0  0  0  0  0  0  0  0
   35.5810   33.3930   36.0980 F   0  0  0  0  0  0  0  0  0  0  0  0
   36.6510   31.4380   36.0240 F   0  0  0  0  0  0  0  0  0  0  0  0
  1  2  1  0  0  0  0
  3  1  1  0  0  0  0
  5  4  1  0  0  0  0
  6  5  1  0  0  0  0
  6 18  1  0  0  0  0
  7  6  2  0  0  0  0
  8  9  2  0  0  0  0
  8  7  1  0  0  0  0
  9 10  1  0  0  0  0
 10  1  1  0  0  0  0
 10  5  2  0  0  0  0
 11  7  1  0  0  0  0
 12  8  1  0  0  0  0
 13  9  1  0  0  0  0
 14 15  1  0  0  0  0
 15 16  2  0  0  0  0
 15 21  1  0  0  0  0
 16 22  1  0  0  0  0
 17 16  1  0  0  0  0
 18 17  2  0  0  0  0
 19 18  1  0  0  0  0
 19 14  2  0  0  0  0
 20 14  1  0  0  0  0
 22 24  1  0  0  0  0
 23 22  1  0  0  0  0
 25  1  1  0  0  0  0
 25 28  1  0  0  0  0
 26 25  1  0  0  0  0
 27 25  1  0  0  0  0
 28 30  1  0  0  0  0
 30 29  2  1  0  0  0
 31 30  1  0  0  0  0
 33 32  1  0  0  0  0
 33 39  1  0  0  0  0
 34 31  1  6  0  0  0
 34 33  1  0  0  0  0
 35 37  1  0  0  0  0
 35 34  1  0  0  0  0
 36 35  1  0  0  0  0
 37 38  1  0  0  0  0
 38 39  1  0  0  0  0
 40 30  1  0  0  0  0
 40 41  1  0  0  0  0
 41 44  1  0  0  0  0
 41 43  1  0  0  0  0
 42 41  1  0  0  0  0
M  END
>  <minimizedAffinity>
-5.90837622

$$$$

 OpenBabel03272504433D

 44 46  0  0  1  0  0  0  0  0999 V2000
   39.2810   26.1520   33.6180 C   0  0  0  0  0  0  0  0  0  0  0  0
   40.3700   26.4280   33.5020 H   0  0  0  0  0  0  0  0  0  0  0  0
   39.0930   26.4150   34.7020 H   0  0  0  0  0  0  0  0  0  0  0  0
   36.9610   27.3630   35.0210 Cl  0  0  0  0  0  0  0  0  0  0  0  0
   37.3730   27.6810   33.3450 C   0  0  0  0  0  0  0  0  0  0  0  0
   36.5920   28.5310   32.6210 C   0  0  0  0  0  0  0  0  0  0  0  0
   36.8970   28.7960   31.3020 C   0  0  0  0  0  0  0  0  0  0  0  0
   38.0070   28.1830   30.7360 C   0  0  0  0  0  0  0  0  0  0  0  0
   38.7650   27.3180   31.5490 C   0  0  0  0  0  0  0  0  0  0  0  0
   38.4810   27.0500   32.8340 C   0  0  0  0  0  0  0  0  0  0  0  0
   36.2550   29.4820   30.7400 H   0  0  0  0  0  0  0  0  0  0  0  0
   38.1760   28.4390   29.7180 H   0  0  0  0  0  0  0  0  0  0  0  0
   39.5360   26.9540   30.9900 H   0  0  0  0  0  0  0  0  0  0  0  0
   34.4340   30.6430   34.7410 C   0  0  0  0  0  0  0  0  0  0  0  0
   33.1450   30.3000   34.2330 C   0  0  0  0  0  0  0  0  0  0  0  0
   33.0720   29.3570   33.1820 C   0  0  0  0  0  0  0  0  0  0  0  0
   34.2220   28.8190   32.7020 N   0  0  0  0  0  0  0  0  0  0  0  0
   35.4310   29.1710   33.2120 C   0  0  0  0  0  0  0  0  0  0  0  0
   35.5210   30.0660   34.2110 N   0  0  0  0  0  0  0  0  0  0  0  0
   34.4710   31.3630   35.5410 H   0  0  0  0  0  0  0  0  0  0  0  0
   32.2710   30.7560   34.6500 H   0  0  0  0  0  0  0  0  0  0  0  0
   31.7890   29.0400   32.7020 N   0  0  0  0  0  0  0  0  0  0  0  0
   31.4910   28.0410   32.8160 H   0  0  0  0  0  0  0  0  0  0  0  0
   31.1220   29.6970   32.2540 H   0  0  0  0  0  0  0  0  0  0  0  0
   39.1460   24.7110   33.4480 C   0  0  0  0  0  0  0  0  0  0  0  0
   40.0610   24.1540   33.7410 H   0  0  0  0  0  0  0  0  0  0  0  0
   38.9900   24.4070   32.3700 H   0  0  0  0  0  0  0  0  0  0  0  0
   38.1300   24.2020   34.2240 O   0  0  0  0  0  0  0  0  0  0  0  0
   39.5670   22.0160   34.0190 O   0  0  0  0  0  0  0  0  0  0  0  0
   38.5710   22.7310   34.8840 P   0  0  2  0  0  0  0  0  0  0  0  0
   37.1230   21.7900   34.9870 O   0  0  0  0  0  0  0  0  0  0  0  0
   36.1010   22.9580   32.8920 H   0  0  0  0  0  0  0  0  0  0  0  0
   36.7200   22.1630   32.7070 N   0  0  0  0  0  0  0  0  0  0  0  0
   36.8130   21.2080   33.7610 C   0  0  2  0  0  3  0  0  0  0  0  0
   35.5350   20.4060   33.7550 C   0  0  0  0  0  3  0  0  0  0  0  0
   35.5900   19.5330   34.4530 H   0  0  0  0  0  0  0  0  0  0  0  0
   35.4150   19.8140   32.4980 O   0  0  0  0  0  0  0  0  0  0  0  0
   35.2840   20.6960   31.4560 C   0  0  0  0  0  2  0  0  0  0  0  0
   36.5450   21.5510   31.4250 C   0  0  0  0  0  2  0  0  0  0  0  0
   39.1400   22.8560   36.4300 O   0  0  0  0  0  0  0  0  0  0  0  0
   38.4240   23.7810   37.1540 C   0  0  0  0  0  0  0  0  0  0  0  0
   37.0440   23.5810   37.0310 F   0  0  0  0  0  0  0  0  0  0  0  0
   38.6990   23.6900   38.5120 F   0  0  0  0  0  0  0  0  0  0  0  0
   38.7010   25.0620   36.7530 F   0  0  0  0  0  0  0  0  0  0  0  0
  1  3  1  0  0  0  0
  2  1  1  0  0  0  0
  5  4  1  0  0  0  0
  6 18  1  0  0  0  0
  6  5  2  0  0  0  0
  7  6  1  0  0  0  0
  8  7  2  0  0  0  0
  8  9  1  0  0  0  0
  9 10  2  0  0  0  0
 10  5  1  0  0  0  0
 10  1  1  0  0  0  0
 11  7  1  0  0  0  0
 12  8  1  0  0  0  0
 13  9  1  0  0  0  0
 14 20  1  0  0  0  0
 15 21  1  0  0  0  0
 15 14  1  0  0  0  0
 16 15  2  0  0  0  0
 17 16  1  0  0  0  0
 17 18  2  0  0  0  0
 18 19  1  0  0  0  0
 19 14  2  0  0  0  0
 22 23  1  0  0  0  0
 22 16  1  0  0  0  0
 24 22  1  0  0  0  0
 25  1  1  0  0  0  0
 25 26  1  0  0  0  0
 25 28  1  0  0  0  0
 27 25  1  0  0  0  0
 28 30  1  0  0  0  0
 30 29  2  6  0  0  0
 30 31  1  0  0  0  0
 30 40  1  0  0  0  0
 33 32  1  0  0  0  0
 33 34  1  0  0  0  0
 34 31  1  1  0  0  0
 35 34  1  0  0  0  0
 35 36  1  0  0  0  0
 37 35  1  0  0  0  0
 38 37  1  0  0  0  0
 39 38  1  0  0  0  0
 39 33  1  0  0  0  0
 40 41  1  0  0  0  0
 41 43  1  0  0  0  0
 42 41  1  0  0  0  0
 44 41  1  0  0  0  0
M  END
>  <minimizedAffinity>
-5.7701726

$$$$

 OpenBabel03272504433D

 44 46  0  0  1  0  0  0  0  0999 V2000
   38.3950   26.6650   32.5860 C   0  0  0  0  0  0  0  0  0  0  0  0
   39.4390   26.9260   32.2440 H   0  0  0  0  0  0  0  0  0  0  0  0
   38.5230   26.6310   33.7090 H   0  0  0  0  0  0  0  0  0  0  0  0
   36.6900   27.5550   34.8490 Cl  0  0  0  0  0  0  0  0  0  0  0  0
   36.6680   28.2850   33.2530 C   0  0  0  0  0  0  0  0  0  0  0  0
   35.8210   29.3250   33.0130 C   0  0  0  0  0  0  0  0  0  0  0  0
   35.7870   29.9150   31.7660 C   0  0  0  0  0  0  0  0  0  0  0  0
   36.6260   29.4290   30.7730 C   0  0  0  0  0  0  0  0  0  0  0  0
   37.4740   28.3520   31.0990 C   0  0  0  0  0  0  0  0  0  0  0  0
   37.5190   27.7670   32.3070 C   0  0  0  0  0  0  0  0  0  0  0  0
   35.0980   30.7480   31.5960 H   0  0  0  0  0  0  0  0  0  0  0  0
   36.5420   29.9360   29.8420 H   0  0  0  0  0  0  0  0  0  0  0  0
   38.0190   28.1170   30.2700 H   0  0  0  0  0  0  0  0  0  0  0  0
   32.8580   29.9520   35.1200 C   0  0  0  0  0  0  0  0  0  0  0  0
   33.3950   30.8770   36.0650 C   0  0  0  0  0  0  0  0  0  0  0  0
   34.7540   31.2460   35.9390 C   0  0  0  0  0  0  0  0  0  0  0  0
   35.4890   30.7100   34.9310 N   0  0  0  0  0  0  0  0  0  0  0  0
   34.9420   29.8330   34.0500 C   0  0  0  0  0  0  0  0  0  0  0  0
   33.6520   29.4690   34.1540 N   0  0  0  0  0  0  0  0  0  0  0  0
   31.8220   29.6830   35.2310 H   0  0  0  0  0  0  0  0  0  0  0  0
   32.7700   31.2690   36.8410 H   0  0  0  0  0  0  0  0  0  0  0  0
   35.2550   32.1590   36.8850 N   0  0  0  0  0  0  0  0  0  0  0  0
   35.5920   33.0750   36.5040 H   0  0  0  0  0  0  0  0  0  0  0  0
   35.3180   32.0070   37.9090 H   0  0  0  0  0  0  0  0  0  0  0  0
   38.0680   25.3290   32.1040 C   0  0  0  0  0  0  0  0  0  0  0  0
   38.9640   24.7500   31.7950 H   0  0  0  0  0  0  0  0  0  0  0  0
   37.4310   25.3400   31.1700 H   0  0  0  0  0  0  0  0  0  0  0  0
   37.4500   24.5770   33.0760 O   0  0  0  0  0  0  0  0  0  0  0  0
   39.0290   22.6170   32.3350 O   0  0  0  0  0  0  0  0  0  0  0  0
   38.4130   23.2870   33.5270 P   0  0  2  0  0  0  0  0  0  0  0  0
   37.3760   22.1660   34.3410 O   0  0  0  0  0  0  0  0  0  0  0  0
   35.5210   22.8080   32.6250 H   0  0  0  0  0  0  0  0  0  0  0  0
   36.1390   22.0360   32.3540 N   0  0  0  0  0  0  0  0  0  0  0  0
   36.7350   21.3260   33.4360 C   0  0  2  0  0  3  0  0  0  0  0  0
   35.6650   20.4520   34.0430 C   0  0  0  0  0  3  0  0  0  0  0  0
   36.0870   19.7470   34.8020 H   0  0  0  0  0  0  0  0  0  0  0  0
   35.1890   19.6100   33.0390 O   0  0  0  0  0  0  0  0  0  0  0  0
   34.5730   20.2480   31.9940 C   0  0  0  0  0  2  0  0  0  0  0  0
   35.6060   21.1650   31.3500 C   0  0  0  0  0  2  0  0  0  0  0  0
   39.5800   23.6990   34.6210 O   0  0  0  0  0  0  0  0  0  0  0  0
   39.0620   24.4530   35.6490 C   0  0  0  0  0  0  0  0  0  0  0  0
   39.4680   25.7900   35.5660 F   0  0  0  0  0  0  0  0  0  0  0  0
   37.6750   24.4750   35.6170 F   0  0  0  0  0  0  0  0  0  0  0  0
   39.4480   23.9720   36.8730 F   0  0  0  0  0  0  0  0  0  0  0  0
  1  3  1  0  0  0  0
  2  1  1  0  0  0  0
  5  4  1  0  0  0  0
  6  5  1  0  0  0  0
  6 18  1  0  0  0  0
  7  6  2  0  0  0  0
  8  9  2  0  0  0  0
  8  7  1  0  0  0  0
  9 10  1  0  0  0  0
 10  1  1  0  0  0  0
 10  5  2  0  0  0  0
 11  7  1  0  0  0  0
 12  8  1  0  0  0  0
 13  9  1  0  0  0  0
 14 20  1  0  0  0  0
 14 15  1  0  0  0  0
 15 21  1  0  0  0  0
 16 15  2  0  0  0  0
 16 22  1  0  0  0  0
 17 16  1  0  0  0  0
 18 19  1  0  0  0  0
 18 17  2  0  0  0  0
 19 14  2  0  0  0  0
 22 24  1  0  0  0  0
 23 22  1  0  0  0  0
 25  1  1  0  0  0  0
 25 28  1  0  0  0  0
 26 25  1  0  0  0  0
 27 25  1  0  0  0  0
 28 30  1  0  0  0  0
 30 29  2  6  0  0  0
 30 31  1  0  0  0  0
 30 40  1  0  0  0  0
 33 32  1  0  0  0  0
 33 34  1  0  0  0  0
 34 35  1  0  0  0  0
 34 31  1  1  0  0  0
 35 36  1  0  0  0  0
 37 35  1  0  0  0  0
 38 37  1  0  0  0  0
 39 38  1  0  0  0  0
 39 33  1  0  0  0  0
 40 41  1  0  0  0  0
 41 44  1  0  0  0  0
 42 41  1  0  0  0  0
 43 41  1  0  0  0  0
M  END
>  <minimizedAffinity>
-5.72439671

$$$$

 OpenBabel03272504433D

 44 46  0  0  1  0  0  0  0  0999 V2000
   39.4080   25.0270   30.8780 C   0  0  0  0  0  0  0  0  0  0  0  0
   39.9480   24.2570   30.2540 H   0  0  0  0  0  0  0  0  0  0  0  0
   39.3890   25.9160   30.1790 H   0  0  0  0  0  0  0  0  0  0  0  0
   39.0140   22.1920   31.6660 Cl  0  0  0  0  0  0  0  0  0  0  0  0
   37.7060   23.3340   31.4160 C   0  0  0  0  0  0  0  0  0  0  0  0
   36.4200   22.9160   31.5840 C   0  0  0  0  0  0  0  0  0  0  0  0
   35.3760   23.7970   31.3920 C   0  0  0  0  0  0  0  0  0  0  0  0
   35.6620   25.1050   31.0280 C   0  0  0  0  0  0  0  0  0  0  0  0
   37.0170   25.4620   30.8740 C   0  0  0  0  0  0  0  0  0  0  0  0
   38.0440   24.6160   31.0570 C   0  0  0  0  0  0  0  0  0  0  0  0
   34.3510   23.4380   31.5330 H   0  0  0  0  0  0  0  0  0  0  0  0
   34.8060   25.7210   30.9010 H   0  0  0  0  0  0  0  0  0  0  0  0
   37.0560   26.4450   30.6080 H   0  0  0  0  0  0  0  0  0  0  0  0
   35.4930   19.9280   33.5390 C   0  0  0  0  0  0  0  0  0  0  0  0
   35.5810   18.9160   32.5360 C   0  0  0  0  0  0  0  0  0  0  0  0
   35.9550   19.3030   31.2290 C   0  0  0  0  0  0  0  0  0  0  0  0
   36.2140   20.6130   30.9820 N   0  0  0  0  0  0  0  0  0  0  0  0
   36.1190   21.5470   31.9630 C   0  0  0  0  0  0  0  0  0  0  0  0
   35.7650   21.1990   33.2120 N   0  0  0  0  0  0  0  0  0  0  0  0
   35.2070   19.6150   34.5280 H   0  0  0  0  0  0  0  0  0  0  0  0
   35.3650   17.8980   32.7870 H   0  0  0  0  0  0  0  0  0  0  0  0
   36.0320   18.2850   30.2620 N   0  0  0  0  0  0  0  0  0  0  0  0
   36.9780   18.1260   29.8390 H   0  0  0  0  0  0  0  0  0  0  0  0
   35.2490   17.6880   29.9370 H   0  0  0  0  0  0  0  0  0  0  0  0
   40.2340   25.3500   32.0350 C   0  0  0  0  0  0  0  0  0  0  0  0
   41.3030   25.4960   31.7740 H   0  0  0  0  0  0  0  0  0  0  0  0
   40.2640   24.5200   32.8010 H   0  0  0  0  0  0  0  0  0  0  0  0
   39.8290   26.5200   32.6350 O   0  0  0  0  0  0  0  0  0  0  0  0
   41.0430   26.5360   34.9610 O   0  0  0  0  0  0  0  0  0  0  0  0
   39.7170   26.3260   34.2920 P   0  0  2  0  0  0  0  0  0  0  0  0
   39.1940   24.6980   34.5570 O   0  0  0  0  0  0  0  0  0  0  0  0
   40.8940   22.7220   34.6300 H   0  0  0  0  0  0  0  0  0  0  0  0
   40.9940   23.4310   35.3640 N   0  0  0  0  0  0  0  0  0  0  0  0
   39.8050   24.1500   35.6810 C   0  0  2  0  0  3  0  0  0  0  0  0
   38.9230   23.2270   36.4850 C   0  0  0  0  0  3  0  0  0  0  0  0
   38.0350   23.7640   36.9050 H   0  0  0  0  0  0  0  0  0  0  0  0
   39.6390   22.8410   37.6170 O   0  0  0  0  0  0  0  0  0  0  0  0
   40.7720   22.1120   37.3620 C   0  0  0  0  0  2  0  0  0  0  0  0
   41.6980   22.9910   36.5310 C   0  0  0  0  0  2  0  0  0  0  0  0
   38.5660   27.2880   34.9830 O   0  0  0  0  0  0  0  0  0  0  0  0
   37.4130   27.3100   34.2330 C   0  0  0  0  0  0  0  0  0  0  0  0
   36.9280   26.0200   33.9890 F   0  0  0  0  0  0  0  0  0  0  0  0
   36.3900   27.9820   34.8880 F   0  0  0  0  0  0  0  0  0  0  0  0
   37.6100   27.9210   33.0220 F   0  0  0  0  0  0  0  0  0  0  0  0
  1 10  1  0  0  0  0
  1 25  1  0  0  0  0
  2  1  1  0  0  0  0
  3  1  1  0  0  0  0
  5  6  1  0  0  0  0
  5  4  1  0  0  0  0
  6 18  1  0  0  0  0
  7 11  1  0  0  0  0
  7  6  2  0  0  0  0
  8  7  1  0  0  0  0
  9  8  2  0  0  0  0
  9 10  1  0  0  0  0
 10  5  2  0  0  0  0
 12  8  1  0  0  0  0
 13  9  1  0  0  0  0
 14 20  1  0  0  0  0
 15 21  1  0  0  0  0
 15 14  2  0  0  0  0
 16 15  1  0  0  0  0
 17 16  2  0  0  0  0
 17 18  1  0  0  0  0
 18 19  2  0  0  0  0
 19 14  1  0  0  0  0
 22 16  1  0  0  0  0
 23 22  1  0  0  0  0
 24 22  1  0  0  0  0
 25 28  1  0  0  0  0
 25 27  1  0  0  0  0
 26 25  1  0  0  0  0
 28 30  1  0  0  0  0
 30 31  1  0  0  0  0
 30 29  2  1  0  0  0
 30 40  1  0  0  0  0
 32 33  1  0  0  0  0
 33 34  1  0  0  0  0
 33 39  1  0  0  0  0
 34 31  1  6  0  0  0
 34 35  1  0  0  0  0
 35 36  1  0  0  0  0
 35 37  1  0  0  0  0
 38 37  1  0  0  0  0
 39 38  1  0  0  0  0
 41 43  1  0  0  0  0
 41 40  1  0  0  0  0
 42 41  1  0  0  0  0
 44 41  1  0  0  0  0
M  END
>  <minimizedAffinity>
-5.64508104

$$$$

 OpenBabel03272504433D

 44 46  0  0  1  0  0  0  0  0999 V2000
   36.7530   27.9990   34.1470 C   0  0  0  0  0  0  0  0  0  0  0  0
   36.3250   28.0820   35.1890 H   0  0  0  0  0  0  0  0  0  0  0  0
   37.6940   28.6190   34.2360 H   0  0  0  0  0  0  0  0  0  0  0  0
   38.4010   26.7840   36.2970 Cl  0  0  0  0  0  0  0  0  0  0  0  0
   37.9450   25.9540   34.8190 C   0  0  0  0  0  0  0  0  0  0  0  0
   38.3650   24.6740   34.6220 C   0  0  0  0  0  0  0  0  0  0  0  0
   38.0180   24.0020   33.4670 C   0  0  0  0  0  0  0  0  0  0  0  0
   37.2400   24.6560   32.5220 C   0  0  0  0  0  0  0  0  0  0  0  0
   36.8450   25.9790   32.7980 C   0  0  0  0  0  0  0  0  0  0  0  0
   37.1740   26.6460   33.9170 C   0  0  0  0  0  0  0  0  0  0  0  0
   38.3670   22.9740   33.3310 H   0  0  0  0  0  0  0  0  0  0  0  0
   37.0150   24.0730   31.6620 H   0  0  0  0  0  0  0  0  0  0  0  0
   36.2850   26.3120   32.0140 H   0  0  0  0  0  0  0  0  0  0  0  0
   41.2060   23.0550   36.3300 C   0  0  0  0  0  0  0  0  0  0  0  0
   40.5990   22.6910   37.5690 C   0  0  0  0  0  0  0  0  0  0  0  0
   39.2370   23.0180   37.7670 C   0  0  0  0  0  0  0  0  0  0  0  0
   38.5670   23.6600   36.7760 N   0  0  0  0  0  0  0  0  0  0  0  0
   39.1800   23.9900   35.6100 C   0  0  0  0  0  0  0  0  0  0  0  0
   40.4730   23.6880   35.4040 N   0  0  0  0  0  0  0  0  0  0  0  0
   42.2430   22.7980   36.1980 H   0  0  0  0  0  0  0  0  0  0  0  0
   41.1750   22.1850   38.3170 H   0  0  0  0  0  0  0  0  0  0  0  0
   38.6670   22.6470   38.9970 N   0  0  0  0  0  0  0  0  0  0  0  0
   37.8750   21.9620   38.9480 H   0  0  0  0  0  0  0  0  0  0  0  0
   38.9570   22.9860   39.9340 H   0  0  0  0  0  0  0  0  0  0  0  0
   35.8400   28.6510   33.2170 C   0  0  0  0  0  0  0  0  0  0  0  0
   34.8620   28.1330   33.1370 H   0  0  0  0  0  0  0  0  0  0  0  0
   36.2210   28.6520   32.1520 H   0  0  0  0  0  0  0  0  0  0  0  0
   35.5540   29.9390   33.6070 O   0  0  0  0  0  0  0  0  0  0  0  0
   33.8100   31.8680   33.2550 O   0  0  0  0  0  0  0  0  0  0  0  0
   34.3080   30.5710   32.6880 P   0  0  2  0  0  0  0  0  0  0  0  0
   33.0330   29.4030   32.7270 O   0  0  0  0  0  0  0  0  0  0  0  0
   33.5770   28.7960   35.2040 H   0  0  0  0  0  0  0  0  0  0  0  0
   32.9510   29.5960   35.0620 N   0  0  0  0  0  0  0  0  0  0  0  0
   32.2180   29.5850   33.8400 C   0  0  2  0  0  3  0  0  0  0  0  0
   31.1190   28.5610   33.9850 C   0  0  0  0  0  3  0  0  0  0  0  0
   30.4020   28.5980   33.1270 H   0  0  0  0  0  0  0  0  0  0  0  0
   30.3400   28.9310   35.0800 O   0  0  0  0  0  0  0  0  0  0  0  0
   30.9950   28.9190   36.2850 C   0  0  0  0  0  2  0  0  0  0  0  0
   32.1340   29.9270   36.1910 C   0  0  0  0  0  2  0  0  0  0  0  0
   34.7040   30.7550   31.0950 O   0  0  0  0  0  0  0  0  0  0  0  0
   35.8870   31.4410   30.9470 C   0  0  0  0  0  0  0  0  0  0  0  0
   35.8500   32.3080   29.8480 F   0  0  0  0  0  0  0  0  0  0  0  0
   36.1560   32.2400   32.0500 F   0  0  0  0  0  0  0  0  0  0  0  0
   36.9470   30.5910   30.7750 F   0  0  0  0  0  0  0  0  0  0  0  0
  1  3  1  0  0  0  0
  1  2  1  0  0  0  0
  5  4  1  0  0  0  0
  6  5  1  0  0  0  0
  6 18  1  0  0  0  0
  7  6  2  0  0  0  0
  8  9  2  0  0  0  0
  8  7  1  0  0  0  0
  9 10  1  0  0  0  0
 10  1  1  0  0  0  0
 10  5  2  0  0  0  0
 11  7  1  0  0  0  0
 12  8  1  0  0  0  0
 13  9  1  0  0  0  0
 14 15  1  0  0  0  0
 15 16  2  0  0  0  0
 15 21  1  0  0  0  0
 16 22  1  0  0  0  0
 17 16  1  0  0  0  0
 18 17  2  0  0  0  0
 19 18  1  0  0  0  0
 19 14  2  0  0  0  0
 20 14  1  0  0  0  0
 22 24  1  0  0  0  0
 23 22  1  0  0  0  0
 25 28  1  0  0  0  0
 25  1  1  0  0  0  0
 26 25  1  0  0  0  0
 27 25  1  0  0  0  0
 30 31  1  0  0  0  0
 30 29  2  1  0  0  0
 30 28  1  0  0  0  0
 33 32  1  0  0  0  0
 33 39  1  0  0  0  0
 34 31  1  6  0  0  0
 34 35  1  0  0  0  0
 34 33  1  0  0  0  0
 35 37  1  0  0  0  0
 36 35  1  0  0  0  0
 37 38  1  0  0  0  0
 39 38  1  0  0  0  0
 40 30  1  0  0  0  0
 41 40  1  0  0  0  0
 41 43  1  0  0  0  0
 42 41  1  0  0  0  0
 44 41  1  0  0  0  0
M  END
>  <minimizedAffinity>
-5.64265728

$$$$

 OpenBabel03272504433D

 44 46  0  0  1  0  0  0  0  0999 V2000
   37.2400   28.0050   32.2460 C   0  0  0  0  0  0  0  0  0  0  0  0
   37.7720   28.0790   31.2530 H   0  0  0  0  0  0  0  0  0  0  0  0
   38.0670   28.2720   32.9690 H   0  0  0  0  0  0  0  0  0  0  0  0
   36.4790   28.8180   34.9990 Cl  0  0  0  0  0  0  0  0  0  0  0  0
   35.8090   29.5300   33.5410 C   0  0  0  0  0  0  0  0  0  0  0  0
   34.8770   30.5170   33.6550 C   0  0  0  0  0  0  0  0  0  0  0  0
   34.3370   31.0920   32.5230 C   0  0  0  0  0  0  0  0  0  0  0  0
   34.7610   30.6460   31.2790 C   0  0  0  0  0  0  0  0  0  0  0  0
   35.7280   29.6220   31.2430 C   0  0  0  0  0  0  0  0  0  0  0  0
   36.2630   29.0530   32.3360 C   0  0  0  0  0  0  0  0  0  0  0  0
   33.5890   31.8830   32.6390 H   0  0  0  0  0  0  0  0  0  0  0  0
   34.3000   31.1370   30.4570 H   0  0  0  0  0  0  0  0  0  0  0  0
   35.9290   29.4110   30.2670 H   0  0  0  0  0  0  0  0  0  0  0  0
   34.7090   32.2670   36.8980 C   0  0  0  0  0  0  0  0  0  0  0  0
   33.4660   31.7770   37.4010 C   0  0  0  0  0  0  0  0  0  0  0  0
   32.7370   30.8660   36.6030 C   0  0  0  0  0  0  0  0  0  0  0  0
   33.2450   30.4960   35.3990 N   0  0  0  0  0  0  0  0  0  0  0  0
   34.4320   30.9840   34.9560 C   0  0  0  0  0  0  0  0  0  0  0  0
   35.1400   31.8510   35.6990 N   0  0  0  0  0  0  0  0  0  0  0  0
   35.2500   32.9600   37.5200 H   0  0  0  0  0  0  0  0  0  0  0  0
   33.1120   32.1040   38.3570 H   0  0  0  0  0  0  0  0  0  0  0  0
   31.5160   30.4010   37.1230 N   0  0  0  0  0  0  0  0  0  0  0  0
   31.4550   29.3690   37.2980 H   0  0  0  0  0  0  0  0  0  0  0  0
   30.6850   30.9800   37.3460 H   0  0  0  0  0  0  0  0  0  0  0  0
   36.8490   26.6170   32.4620 C   0  0  0  0  0  0  0  0  0  0  0  0
   36.9520   25.9930   31.5500 H   0  0  0  0  0  0  0  0  0  0  0  0
   35.7570   26.5040   32.7330 H   0  0  0  0  0  0  0  0  0  0  0  0
   37.6290   26.0150   33.4220 O   0  0  0  0  0  0  0  0  0  0  0  0
   38.5800   24.5870   31.4370 O   0  0  0  0  0  0  0  0  0  0  0  0
   38.9490   25.2630   32.7240 P   0  0  2  0  0  0  0  0  0  0  0  0
   39.4900   24.0760   33.8600 O   0  0  0  0  0  0  0  0  0  0  0  0
   39.7750   24.5710   36.4040 H   0  0  0  0  0  0  0  0  0  0  0  0
   38.8250   24.6610   36.0300 N   0  0  0  0  0  0  0  0  0  0  0  0
   38.5520   23.8810   34.8690 C   0  0  2  0  0  3  0  0  0  0  0  0
   38.4010   22.4480   35.3150 C   0  0  0  0  0  3  0  0  0  0  0  0
   38.0340   21.7920   34.4860 H   0  0  0  0  0  0  0  0  0  0  0  0
   37.3690   22.4040   36.2510 O   0  0  0  0  0  0  0  0  0  0  0  0
   37.6040   23.1100   37.4030 C   0  0  0  0  0  2  0  0  0  0  0  0
   37.7840   24.5710   37.0100 C   0  0  0  0  0  2  0  0  0  0  0  0
   40.2290   26.2820   32.4910 O   0  0  0  0  0  0  0  0  0  0  0  0
   40.6420   26.8480   33.6740 C   0  0  0  0  0  0  0  0  0  0  0  0
   41.3650   25.9410   34.4580 F   0  0  0  0  0  0  0  0  0  0  0  0
   41.4940   27.9220   33.4570 F   0  0  0  0  0  0  0  0  0  0  0  0
   39.5820   27.2950   34.4190 F   0  0  0  0  0  0  0  0  0  0  0  0
  1 10  1  0  0  0  0
  1 25  1  0  0  0  0
  1  3  1  0  0  0  0
  2  1  1  0  0  0  0
  5  6  1  0  0  0  0
  5  4  1  0  0  0  0
  6 18  1  0  0  0  0
  7 11  1  0  0  0  0
  7  6  2  0  0  0  0
  8  7  1  0  0  0  0
  9  8  2  0  0  0  0
  9 10  1  0  0  0  0
 10  5  2  0  0  0  0
 12  8  1  0  0  0  0
 13  9  1  0  0  0  0
 14 15  1  0  0  0  0
 14 20  1  0  0  0  0
 15 21  1  0  0  0  0
 16 22  1  0  0  0  0
 16 15  2  0  0  0  0
 17 16  1  0  0  0  0
 18 17  2  0  0  0  0
 18 19  1  0  0  0  0
 19 14  2  0  0  0  0
 22 23  1  0  0  0  0
 22 24  1  0  0  0  0
 25 27  1  0  0  0  0
 25 28  1  0  0  0  0
 26 25  1  0  0  0  0
 30 29  2  6  0  0  0
 30 28  1  0  0  0  0
 30 31  1  0  0  0  0
 33 32  1  0  0  0  0
 33 39  1  0  0  0  0
 34 31  1  6  0  0  0
 34 35  1  0  0  0  0
 34 33  1  0  0  0  0
 35 37  1  0  0  0  0
 36 35  1  0  0  0  0
 37 38  1  0  0  0  0
 39 38  1  0  0  0  0
 40 30  1  0  0  0  0
 40 41  1  0  0  0  0
 41 44  1  0  0  0  0
 41 42  1  0  0  0  0
 43 41  1  0  0  0  0
M  END
>  <minimizedAffinity>
-5.49692249

$$$$

 OpenBabel03272504433D

 44 46  0  0  1  0  0  0  0  0999 V2000
   37.9440   27.8250   31.4520 C   0  0  0  0  0  0  0  0  0  0  0  0
   38.8930   28.1470   30.9320 H   0  0  0  0  0  0  0  0  0  0  0  0
   38.3170   27.6210   32.5000 H   0  0  0  0  0  0  0  0  0  0  0  0
   36.4200   28.0490   33.9910 Cl  0  0  0  0  0  0  0  0  0  0  0  0
   36.2780   29.1780   32.6550 C   0  0  0  0  0  0  0  0  0  0  0  0
   35.4190   30.2290   32.7640 C   0  0  0  0  0  0  0  0  0  0  0  0
   35.2910   31.1290   31.7260 C   0  0  0  0  0  0  0  0  0  0  0  0
   36.0510   30.9410   30.5810 C   0  0  0  0  0  0  0  0  0  0  0  0
   36.9180   29.8310   30.5430 C   0  0  0  0  0  0  0  0  0  0  0  0
   37.0530   28.9460   31.5440 C   0  0  0  0  0  0  0  0  0  0  0  0
   34.5940   31.9660   31.8380 H   0  0  0  0  0  0  0  0  0  0  0  0
   35.8980   31.6760   29.8280 H   0  0  0  0  0  0  0  0  0  0  0  0
   37.3980   29.8350   29.6440 H   0  0  0  0  0  0  0  0  0  0  0  0
   32.6680   30.1170   35.2200 C   0  0  0  0  0  0  0  0  0  0  0  0
   33.2310   30.8820   36.2850 C   0  0  0  0  0  0  0  0  0  0  0  0
   34.5340   31.4040   36.1150 C   0  0  0  0  0  0  0  0  0  0  0  0
   35.1920   31.1590   34.9530 N   0  0  0  0  0  0  0  0  0  0  0  0
   34.6220   30.4260   33.9620 C   0  0  0  0  0  0  0  0  0  0  0  0
   33.3850   29.9210   34.1050 N   0  0  0  0  0  0  0  0  0  0  0  0
   31.6750   29.7280   35.3670 H   0  0  0  0  0  0  0  0  0  0  0  0
   32.6660   31.0440   37.1800 H   0  0  0  0  0  0  0  0  0  0  0  0
   35.0620   32.1530   37.1820 N   0  0  0  0  0  0  0  0  0  0  0  0
   35.2810   33.1560   36.9730 H   0  0  0  0  0  0  0  0  0  0  0  0
   35.2500   31.8050   38.1400 H   0  0  0  0  0  0  0  0  0  0  0  0
   37.4900   26.5740   30.8580 C   0  0  0  0  0  0  0  0  0  0  0  0
   37.3000   26.6580   29.7680 H   0  0  0  0  0  0  0  0  0  0  0  0
   36.4960   26.2260   31.2690 H   0  0  0  0  0  0  0  0  0  0  0  0
   38.4260   25.5750   31.0020 O   0  0  0  0  0  0  0  0  0  0  0  0
   36.6950   24.7750   32.8040 O   0  0  0  0  0  0  0  0  0  0  0  0
   37.8100   24.3160   31.9130 P   0  0  2  0  0  0  0  0  0  0  0  0
   39.1180   23.7350   32.8860 O   0  0  0  0  0  0  0  0  0  0  0  0
   39.6430   25.1590   35.0060 H   0  0  0  0  0  0  0  0  0  0  0  0
   38.7490   24.6570   35.0090 N   0  0  0  0  0  0  0  0  0  0  0  0
   38.7030   23.4900   34.1910 C   0  0  2  0  0  3  0  0  0  0  0  0
   39.4820   22.4120   34.9040 C   0  0  0  0  0  3  0  0  0  0  0  0
   39.3670   21.4180   34.4020 H   0  0  0  0  0  0  0  0  0  0  0  0
   38.8910   22.2200   36.1520 O   0  0  0  0  0  0  0  0  0  0  0  0
   38.9460   23.3050   36.9880 C   0  0  0  0  0  2  0  0  0  0  0  0
   38.1870   24.4400   36.3090 C   0  0  0  0  0  2  0  0  0  0  0  0
   37.3220   23.0300   30.9980 O   0  0  0  0  0  0  0  0  0  0  0  0
   36.0220   22.6790   31.2780 C   0  0  0  0  0  0  0  0  0  0  0  0
   35.1300   23.7180   30.9840 F   0  0  0  0  0  0  0  0  0  0  0  0
   35.6080   21.5970   30.5130 F   0  0  0  0  0  0  0  0  0  0  0  0
   35.8600   22.3480   32.5980 F   0  0  0  0  0  0  0  0  0  0  0  0
  1 10  1  0  0  0  0
  1  3  1  0  0  0  0
  2  1  1  0  0  0  0
  5  6  1  0  0  0  0
  5  4  1  0  0  0  0
  6 18  1  0  0  0  0
  7 11  1  0  0  0  0
  7  6  2  0  0  0  0
  8  7  1  0  0  0  0
  9  8  2  0  0  0  0
  9 10  1  0  0  0  0
 10  5  2  0  0  0  0
 12  8  1  0  0  0  0
 13  9  1  0  0  0  0
 14 20  1  0  0  0  0
 14 15  1  0  0  0  0
 15 21  1  0  0  0  0
 16 15  2  0  0  0  0
 16 22  1  0  0  0  0
 17 16  1  0  0  0  0
 18 19  1  0  0  0  0
 18 17  2  0  0  0  0
 19 14  2  0  0  0  0
 22 24  1  0  0  0  0
 23 22  1  0  0  0  0
 25 28  1  0  0  0  0
 25 27  1  0  0  0  0
 25  1  1  0  0  0  0
 26 25  1  0  0  0  0
 28 30  1  0  0  0  0
 30 29  2  1  0  0  0
 30 31  1  0  0  0  0
 32 33  1  0  0  0  0
 33 39  1  0  0  0  0
 34 31  1  6  0  0  0
 34 35  1  0  0  0  0
 34 33  1  0  0  0  0
 35 37  1  0  0  0  0
 36 35  1  0  0  0  0
 37 38  1  0  0  0  0
 39 38  1  0  0  0  0
 40 41  1  0  0  0  0
 40 30  1  0  0  0  0
 41 44  1  0  0  0  0
 42 41  1  0  0  0  0
 43 41  1  0  0  0  0
M  END
>  <minimizedAffinity>
-5.48597908

$$$$
