
 OpenBabel03272507323D

 35 38  0  0  1  0  0  0  0  0999 V2000
   35.8960   29.2070   49.8350 C   0  0  0  0  0  0  0  0  0  0  0  0
   34.9410   29.6870   50.7020 C   0  0  0  0  0  0  0  0  0  0  0  0
   33.6990   29.2000   50.2690 C   0  0  0  0  0  0  0  0  0  0  0  0
   33.9880   28.4460   49.1530 C   0  0  0  0  0  0  0  0  0  0  0  0
   35.2800   28.4770   48.9340 O   0  0  0  0  0  0  0  0  0  0  0  0
   35.0220   30.3250   51.5810 H   0  0  0  0  0  0  0  0  0  0  0  0
   32.7340   29.4010   50.7440 H   0  0  0  0  0  0  0  0  0  0  0  0
   37.3060   29.5180   49.9890 C   0  0  0  0  0  0  0  0  0  0  0  0
   37.9830   28.8750   50.8070 O   0  0  0  0  0  0  0  0  0  0  0  0
   37.8360   30.5690   49.1680 C   0  0  0  0  0  0  0  0  0  0  0  0
   38.1790   31.7520   49.8050 C   0  0  0  0  0  0  0  0  0  0  0  0
   38.6970   32.8000   49.0370 C   0  0  0  0  0  0  0  0  0  0  0  0
   38.8380   32.5960   47.6840 N   0  0  0  0  0  0  0  0  0  0  0  0
   38.4970   31.4430   47.1050 C   0  0  0  0  0  0  0  0  0  0  0  0
   37.9990   30.4330   47.8340 N   0  0  0  0  0  0  0  0  0  0  0  0
   38.0930   31.9710   50.8570 H   0  0  0  0  0  0  0  0  0  0  0  0
   38.9780   33.7440   49.4980 H   0  0  0  0  0  0  0  0  0  0  0  0
   38.6370   31.3550   46.0250 H   0  0  0  0  0  0  0  0  0  0  0  0
   33.0040   27.7210   48.3390 C   0  0  0  0  0  0  0  0  0  0  0  0
   31.7950   27.6820   48.7440 O   0  0  0  0  0  0  0  0  0  0  0  0
   33.4340   27.0450   47.0690 C   0  0  1  0  0  0  0  0  0  0  0  0
   33.7520   25.5370   47.3300 C   0  0  0  0  0  0  0  0  0  0  0  0
   32.6070   25.9810   46.4970 C   0  0  2  0  0  0  0  0  0  0  0  0
   34.3660   27.4780   46.6580 H   0  0  0  0  0  0  0  0  0  0  0  0
   33.5640   25.1460   48.3450 H   0  0  0  0  0  0  0  0  0  0  0  0
   34.6290   25.0910   46.8620 H   0  0  0  0  0  0  0  0  0  0  0  0
   31.6160   25.8750   46.9920 H   0  0  0  0  0  0  0  0  0  0  0  0
   32.5310   25.7670   45.0950 N   0  0  1  0  0  0  0  0  0  0  0  0
   32.3910   24.4240   44.6440 C   0  0  0  0  0  3  0  0  0  0  0  0
   31.2970   24.2130   44.4580 H   0  0  0  0  0  0  0  0  0  0  0  0
   33.0340   24.3620   43.2700 C   0  0  0  0  0  3  0  0  0  0  0  0
   32.8720   23.3870   42.7690 H   0  0  0  0  0  0  0  0  0  0  0  0
   32.6570   25.4630   42.5260 O   0  0  0  0  0  0  0  0  0  0  0  0
   31.5110   26.0800   42.9760 C   0  0  0  0  0  2  0  0  0  0  0  0
   31.6410   26.6250   44.3850 C   0  0  0  0  0  2  0  0  0  0  0  0
  1  8  1  0  0  0  0
  1  2  2  0  0  0  0
  2  6  1  0  0  0  0
  3  2  1  0  0  0  0
  3  7  1  0  0  0  0
  4  3  2  0  0  0  0
  5  4  1  0  0  0  0
  5  1  1  0  0  0  0
  8  9  2  0  0  0  0
 10 11  1  0  0  0  0
 10  8  1  0  0  0  0
 11 16  1  0  0  0  0
 12 17  1  0  0  0  0
 12 11  2  0  0  0  0
 13 12  1  0  0  0  0
 14 13  2  0  0  0  0
 14 15  1  0  0  0  0
 15 10  2  0  0  0  0
 18 14  1  0  0  0  0
 19 20  2  0  0  0  0
 19  4  1  0  0  0  0
 21 24  1  6  0  0  0
 21 22  1  0  0  0  0
 21 19  1  0  0  0  0
 22 25  1  0  0  0  0
 23 27  1  1  0  0  0
 23 21  1  0  0  0  0
 23 22  1  0  0  0  0
 26 22  1  0  0  0  0
 28 35  1  1  0  0  0
 28 23  1  0  0  0  0
 29 28  1  0  0  0  0
 30 29  1  0  0  0  0
 31 29  1  0  0  0  0
 32 31  1  0  0  0  0
 33 34  1  0  0  0  0
 33 31  1  0  0  0  0
 34 35  1  0  0  0  0
M  END
>  <minimizedAffinity>
-4.83321476

>  <minimizedRMSD>
0.298264444

$$$$
