
     RDKit          3D

 41 44  0  0  0  0  0  0  0  0999 V2000
   35.8218   29.1395   49.8027 C   0  0  0  0  0  0  0  0  0  0  0  0
   34.8017   29.6637   50.5644 C   0  0  0  0  0  0  0  0  0  0  0  0
   33.6000   29.1222   50.0849 C   0  0  0  0  0  0  0  0  0  0  0  0
   33.9771   28.2944   49.0509 C   0  0  0  0  0  0  0  0  0  0  0  0
   35.2814   28.3338   48.9193 O   0  0  0  0  0  0  0  0  0  0  0  0
   37.2132   29.4890   50.0290 C   0  0  0  0  0  0  0  0  0  0  0  0
   37.8557   28.8839   50.9017 O   0  0  0  0  0  0  0  0  0  0  0  0
   37.7657   30.5323   49.2122 C   0  0  0  0  0  0  0  0  0  0  0  0
   38.1100   31.7141   49.8485 C   0  0  0  0  0  0  0  0  0  0  0  0
   38.6496   32.7538   49.0845 C   0  0  0  0  0  0  0  0  0  0  0  0
   38.8086   32.5419   47.7352 N   0  0  0  0  0  0  0  0  0  0  0  0
   38.4658   31.3897   47.1547 C   0  0  0  0  0  0  0  0  0  0  0  0
   37.9479   30.3881   47.8808 N   0  0  0  0  0  0  0  0  0  0  0  0
   33.0634   27.4922   48.2280 C   0  0  0  0  0  0  0  0  0  0  0  0
   31.8428   27.4021   48.5911 O   0  0  0  0  0  0  0  0  0  0  0  0
   33.5737   26.7984   46.9976 C   0  0  1  0  0  0  0  0  0  0  0  0
   33.7927   25.2752   47.2783 C   0  0  0  0  0  0  0  0  0  0  0  0
   32.7520   25.7775   46.3461 C   0  0  2  0  0  0  0  0  0  0  0  0
   34.8115   30.3657   51.3970 H   0  0  0  0  0  0  0  0  0  0  0  0
   32.6021   29.3381   50.4768 H   0  0  0  0  0  0  0  0  0  0  0  0
   38.0097   31.9393   50.8985 H   0  0  0  0  0  0  0  0  0  0  0  0
   38.9327   33.6965   49.5448 H   0  0  0  0  0  0  0  0  0  0  0  0
   38.6218   31.2960   46.0783 H   0  0  0  0  0  0  0  0  0  0  0  0
   34.5602   27.1846   46.6771 H   0  0  0  0  0  0  0  0  0  0  0  0
   33.4936   24.8924   48.2688 H   0  0  0  0  0  0  0  0  0  0  0  0
   34.6872   24.7878   46.8886 H   0  0  0  0  0  0  0  0  0  0  0  0
   31.7160   25.7186   46.7476 H   0  0  0  0  0  0  0  0  0  0  0  0
   32.7955   25.5686   44.9422 N   0  0  0  0  0  0  0  0  0  0  0  0
   33.9318   24.8951   44.4132 C   0  0  2  0  0  0  0  0  0  0  0  0
   33.6845   23.7991   44.2925 H   0  0  0  0  0  0  0  0  0  0  0  0
   34.1156   25.4066   42.9964 C   0  0  2  0  0  0  0  0  0  0  0  0
   34.9020   24.8552   42.4442 H   0  0  0  0  0  0  0  0  0  0  0  0
   32.8931   25.4648   42.3561 O   0  0  0  0  0  0  0  0  0  0  0  0
   31.9217   24.6717   42.9265 C   0  0  0  0  0  0  0  0  0  0  0  0
   31.5991   25.0602   44.3560 C   0  0  0  0  0  0  0  0  0  0  0  0
   34.8760   25.0628   44.9223 H   0  0  0  0  0  0  0  0  0  0  0  0
   34.4718   26.4651   43.0914 H   0  0  0  0  0  0  0  0  0  0  0  0
   32.2315   23.5931   42.8682 H   0  0  0  0  0  0  0  0  0  0  0  0
   31.0035   24.8091   42.3136 H   0  0  0  0  0  0  0  0  0  0  0  0
   31.2459   24.1305   44.8443 H   0  0  0  0  0  0  0  0  0  0  0  0
   30.8126   25.8536   44.3121 H   0  0  0  0  0  0  0  0  0  0  0  0
  1  6  1  0
  1  2  2  0
  3  2  1  0
  4  3  2  0
  5  4  1  0
  5  1  1  0
  6  7  2  0
  8  9  2  0
  8  6  1  0
 10  9  1  0
 11 10  2  0
 12 11  1  0
 12 13  2  0
 13  8  1  0
 14 15  2  0
 14  4  1  0
 16 17  1  0
 16 14  1  0
 18 16  1  0
 18 17  1  0
  2 19  1  0
  3 20  1  0
  9 21  1  0
 10 22  1  0
 12 23  1  0
 16 24  1  6
 17 25  1  0
 17 26  1  0
 18 27  1  1
 28 29  1  0
 29 30  1  6
 29 31  1  0
 31 32  1  6
 31 33  1  0
 33 34  1  0
 34 35  1  0
 35 28  1  0
 29 36  1  0
 31 37  1  0
 34 38  1  0
 34 39  1  0
 35 40  1  0
 35 41  1  0
 18 28  1  0
M  ISO  8  19  14  20  14  21  14  22  14  23  14  24  13  25  13  26  13
M  ISO  3  27  13  30   8  32  15
M  END
>  <DihAtoms>  (1) 
15,17,27,28

>  <DihDeg>  (1) 
60.00069552641234

$$$$
