
 OpenBabel03272503553D

 33 36  0  0  0  0  0  0  0  0999 V2000
   37.3700   30.1440   50.7550 C   0  0  0  0  0  0  0  0  0  0  0  0
   38.2710   30.9610   50.0410 C   0  0  0  0  0  0  0  0  0  0  0  0
   37.9450   31.1990   48.7140 C   0  0  0  0  0  0  0  0  0  0  0  0
   36.8420   30.6560   48.2280 N   0  0  0  0  0  0  0  0  0  0  0  0
   35.9810   29.8900   48.8650 C   0  0  0  0  0  0  0  0  0  0  0  0
   36.3140   29.6740   50.1380 N   0  0  0  0  0  0  0  0  0  0  0  0
   39.1470   31.3620   50.5160 H   0  0  0  0  0  0  0  0  0  0  0  0
   38.7750   32.0070   47.8930 N   0  0  0  0  0  0  0  0  0  0  0  0
   39.4000   31.5190   46.6880 C   0  0  0  0  0  0  0  0  0  0  0  0
   40.4760   31.3460   46.9320 H   0  0  0  0  0  0  0  0  0  0  0  0
   39.3690   32.6820   45.7010 C   0  0  0  0  0  0  0  0  0  0  0  0
   38.3000   33.0030   45.6480 H   0  0  0  0  0  0  0  0  0  0  0  0
   40.0760   33.7770   46.1450 O   0  0  0  0  0  0  0  0  0  0  0  0
   40.2550   33.8250   47.5040 C   0  0  0  0  0  0  0  0  0  0  0  0
   39.0130   33.3940   48.2760 C   0  0  0  0  0  0  0  0  0  0  0  0
   34.7400   29.2310   48.4760 C   0  0  0  0  0  0  0  0  0  0  0  0
   33.9500   28.5640   49.3560 N   0  0  0  0  0  0  0  0  0  0  0  0
   32.8130   27.9700   48.9840 C   0  0  0  0  0  0  0  0  0  0  0  0
   32.3380   27.9680   47.7250 N   0  0  0  0  0  0  0  0  0  0  0  0
   33.0770   28.6130   46.8060 C   0  0  0  0  0  0  0  0  0  0  0  0
   32.6050   28.6210   45.5200 C   0  0  0  0  0  0  0  0  0  0  0  0
   33.3050   29.2600   44.5270 C   0  0  0  0  0  0  0  0  0  0  0  0
   34.4910   29.8830   44.8950 C   0  0  0  0  0  0  0  0  0  0  0  0
   34.9190   29.8460   46.2010 C   0  0  0  0  0  0  0  0  0  0  0  0
   34.2420   29.2180   47.2050 C   0  0  0  0  0  0  0  0  0  0  0  0
   32.2280   27.4480   49.7630 H   0  0  0  0  0  0  0  0  0  0  0  0
   31.6750   28.1220   45.2740 H   0  0  0  0  0  0  0  0  0  0  0  0
   32.8910   29.2360   43.5290 H   0  0  0  0  0  0  0  0  0  0  0  0
   35.0110   30.3760   44.0770 H   0  0  0  0  0  0  0  0  0  0  0  0
   35.8530   30.3670   46.3260 H   0  0  0  0  0  0  0  0  0  0  0  0
   37.5940   29.8230   52.1450 N   0  0  0  0  0  0  0  0  0  0  0  0
   37.4290   30.6310   52.8130 H   0  0  0  0  0  0  0  0  0  0  0  0
   37.8960   28.8900   52.5490 H   0  0  0  0  0  0  0  0  0  0  0  0
  1 31  1  0  0  0  0
  2  7  1  0  0  0  0
  2  1  2  0  0  0  0
  3  2  1  0  0  0  0
  4  3  2  0  0  0  0
  4  5  1  0  0  0  0
  5  6  2  0  0  0  0
  6  1  1  0  0  0  0
  8 15  1  0  0  0  0
  8  3  1  0  0  0  0
  9 10  1  0  0  0  0
  9  8  1  0  0  0  0
 11 13  1  0  0  0  0
 11  9  1  0  0  0  0
 12 11  1  0  0  0  0
 13 14  1  0  0  0  0
 14 15  1  0  0  0  0
 16  5  1  0  0  0  0
 16 17  1  0  0  0  0
 18 17  2  0  0  0  0
 18 26  1  0  0  0  0
 19 18  1  0  0  0  0
 20 25  1  0  0  0  0
 20 19  2  0  0  0  0
 21 20  1  0  0  0  0
 22 23  1  0  0  0  0
 22 21  2  0  0  0  0
 23 24  2  0  0  0  0
 24 30  1  0  0  0  0
 24 25  1  0  0  0  0
 25 16  2  0  0  0  0
 27 21  1  0  0  0  0
 28 22  1  0  0  0  0
 29 23  1  0  0  0  0
 31 33  1  0  0  0  0
 31 32  1  0  0  0  0
M  END
>  <minimizedAffinity>
-6.3592329

>  <minimizedRMSD>
0.797495723

$$$$
