
 OpenBabel03272508463D

 39 43  0  0  0  0  0  0  0  0999 V2000
   35.4750   29.4860   49.5830 C   0  0  0  0  0  0  0  0  0  0  0  0
   36.5100   29.0310   50.3830 C   0  0  0  0  0  0  0  0  0  0  0  0
   37.6480   29.5310   49.7560 C   0  0  0  0  0  0  0  0  0  0  0  0
   37.2770   30.2370   48.6500 C   0  0  0  0  0  0  0  0  0  0  0  0
   35.9640   30.1850   48.5820 O   0  0  0  0  0  0  0  0  0  0  0  0
   36.4490   28.4280   51.2860 H   0  0  0  0  0  0  0  0  0  0  0  0
   38.6480   29.3720   50.1060 H   0  0  0  0  0  0  0  0  0  0  0  0
   38.5440   32.2240   47.9750 C   0  0  0  0  0  0  0  0  0  0  0  0
   38.1450   30.9290   47.7010 C   0  0  0  0  0  0  0  0  0  0  0  0
   38.5510   30.2790   46.5510 C   0  0  0  0  0  0  0  0  0  0  0  0
   39.3770   30.9250   45.6390 C   0  0  0  0  0  0  0  0  0  0  0  0
   39.9280   30.5610   44.4530 N   0  0  0  0  0  0  0  0  0  0  0  0
   40.6280   31.5970   44.0340 N   0  0  0  0  0  0  0  0  0  0  0  0
   40.5420   32.6150   44.9170 C   0  0  0  0  0  0  0  0  0  0  0  0
   39.7370   32.2070   45.9670 C   0  0  0  0  0  0  0  0  0  0  0  0
   39.3780   32.9130   47.0790 C   0  0  0  0  0  0  0  0  0  0  0  0
   38.2040   32.7040   48.8930 H   0  0  0  0  0  0  0  0  0  0  0  0
   38.2280   29.2650   46.3560 H   0  0  0  0  0  0  0  0  0  0  0  0
   39.7560   29.6090   44.0520 H   0  0  0  0  0  0  0  0  0  0  0  0
   41.0310   33.5740   44.7960 H   0  0  0  0  0  0  0  0  0  0  0  0
   39.6880   33.9080   47.2840 H   0  0  0  0  0  0  0  0  0  0  0  0
   34.0680   29.2190   49.8300 C   0  0  0  0  0  0  0  0  0  0  0  0
   33.4940   29.8290   50.7580 O   0  0  0  0  0  0  0  0  0  0  0  0
   31.3510   27.1780   48.4890 C   0  0  0  0  0  0  0  0  0  0  0  0
   31.9690   26.4510   47.4670 C   0  0  0  0  0  0  0  0  0  0  0  0
   33.3040   26.6610   47.2420 C   0  0  0  0  0  0  0  0  0  0  0  0
   33.9790   27.5440   47.9940 N   0  0  0  0  0  0  0  0  0  0  0  0
   33.3630   28.2510   48.9940 C   0  0  0  0  0  0  0  0  0  0  0  0
   32.0410   28.0570   49.2320 N   0  0  0  0  0  0  0  0  0  0  0  0
   30.3050   27.0900   48.7520 H   0  0  0  0  0  0  0  0  0  0  0  0
   31.3840   25.7670   46.9060 H   0  0  0  0  0  0  0  0  0  0  0  0
   33.9960   25.9570   46.2190 N   0  0  0  0  0  0  0  0  0  0  0  0
   34.3150   24.5510   46.3030 C   0  0  0  0  0  3  0  0  0  0  0  0
   34.4240   24.1520   47.3080 H   0  0  0  0  0  0  0  0  0  0  0  0
   35.6120   24.3290   45.5230 C   0  0  0  0  0  3  0  0  0  0  0  0
   35.9750   23.2830   45.6560 H   0  0  0  0  0  0  0  0  0  0  0  0
   35.4830   24.6700   44.1910 O   0  0  0  0  0  0  0  0  0  0  0  0
   34.5060   25.5900   43.9120 C   0  0  0  0  0  2  0  0  0  0  0  0
   34.4290   26.6290   45.0090 C   0  0  0  0  0  2  0  0  0  0  0  0
  1 22  1  0  0  0  0
  1  2  2  0  0  0  0
  2  6  1  0  0  0  0
  3  7  1  0  0  0  0
  3  2  1  0  0  0  0
  4  3  2  0  0  0  0
  5  4  1  0  0  0  0
  5  1  1  0  0  0  0
  8 17  1  0  0  0  0
  9  8  1  0  0  0  0
  9  4  1  0  0  0  0
 10  9  2  0  0  0  0
 11 15  2  0  0  0  0
 11 10  1  0  0  0  0
 12 11  1  0  0  0  0
 13 12  1  0  0  0  0
 13 14  2  0  0  0  0
 14 15  1  0  0  0  0
 15 16  1  0  0  0  0
 16 21  1  0  0  0  0
 16  8  2  0  0  0  0
 18 10  1  0  0  0  0
 19 12  1  0  0  0  0
 20 14  1  0  0  0  0
 22 23  2  0  0  0  0
 24 30  1  0  0  0  0
 24 29  1  0  0  0  0
 25 24  2  0  0  0  0
 26 25  1  0  0  0  0
 26 27  2  0  0  0  0
 27 28  1  0  0  0  0
 28 29  2  0  0  0  0
 28 22  1  0  0  0  0
 31 25  1  0  0  0  0
 32 33  1  0  0  0  0
 32 26  1  0  0  0  0
 33 34  1  0  0  0  0
 35 36  1  0  0  0  0
 35 33  1  0  0  0  0
 37 35  1  0  0  0  0
 38 37  1  0  0  0  0
 38 39  1  0  0  0  0
 39 32  1  0  0  0  0
M  END
>  <minimizedAffinity>
-6.14340496

>  <minimizedRMSD>
0.618379295

$$$$
