
 OpenBabel03272505493D

 39 43  0  0  1  0  0  0  0  0999 V2000
   35.5080   30.2220   33.7060 C   0  0  0  0  0  0  0  0  0  0  0  0
   35.3630   30.7260   32.4610 C   0  0  0  0  0  0  0  0  0  0  0  0
   35.7310   29.9710   31.3480 C   0  0  0  0  0  0  0  0  0  0  0  0
   36.2460   28.6980   31.5630 C   0  0  0  0  0  0  0  0  0  0  0  0
   36.3920   28.1830   32.8410 C   0  0  0  0  0  0  0  0  0  0  0  0
   36.0140   28.9730   33.8670 N   0  0  0  0  0  0  0  0  0  0  0  0
   34.9620   31.7180   32.3090 H   0  0  0  0  0  0  0  0  0  0  0  0
   35.6150   30.3740   30.3580 H   0  0  0  0  0  0  0  0  0  0  0  0
   36.5420   28.0810   30.7250 H   0  0  0  0  0  0  0  0  0  0  0  0
   35.1150   31.0260   34.9240 C   0  0  0  0  0  0  0  0  0  0  0  0
   36.1750   31.5410   35.8060 C   0  0  0  0  0  0  0  0  0  0  0  0
   35.4260   32.4870   34.9110 C   0  0  0  0  0  0  0  0  0  0  0  0
   36.0180   31.6780   36.8830 H   0  0  0  0  0  0  0  0  0  0  0  0
   37.2390   31.3650   35.5070 H   0  0  0  0  0  0  0  0  0  0  0  0
   34.6770   33.1720   35.3800 H   0  0  0  0  0  0  0  0  0  0  0  0
   35.9010   32.9070   34.0020 H   0  0  0  0  0  0  0  0  0  0  0  0
   31.8450   29.3340   35.2200 C   0  0  0  0  0  0  0  0  0  0  0  0
   31.3380   29.8520   36.4180 C   0  0  0  0  0  0  0  0  0  0  0  0
   32.1250   30.7830   37.1180 C   0  0  0  0  0  0  0  0  0  0  0  0
   33.3280   31.1420   36.6200 N   0  0  0  0  0  0  0  0  0  0  0  0
   33.7890   30.6110   35.4430 C   0  0  0  0  0  0  0  0  0  0  0  0
   33.0570   29.7180   34.7510 N   0  0  0  0  0  0  0  0  0  0  0  0
   31.2130   28.6210   34.7060 H   0  0  0  0  0  0  0  0  0  0  0  0
   30.3970   29.6090   36.8620 H   0  0  0  0  0  0  0  0  0  0  0  0
   31.8750   31.2690   38.0500 H   0  0  0  0  0  0  0  0  0  0  0  0
   36.9280   26.8500   33.1300 C   0  0  0  0  0  0  0  0  0  0  0  0
   36.8670   25.6900   32.4150 N   0  0  0  0  0  0  0  0  0  0  0  0
   37.5210   24.7310   33.1150 C   0  0  0  0  0  0  0  0  0  0  0  0
   37.9860   25.2910   34.2630 N   0  0  0  0  0  0  0  0  0  0  0  0
   37.6270   26.5810   34.2760 N   0  0  0  0  0  0  0  0  0  0  0  0
   37.6770   23.6920   32.8590 H   0  0  0  0  0  0  0  0  0  0  0  0
   37.2740   25.7640   36.4150 H   0  0  0  0  0  0  0  0  0  0  0  0
   38.1670   25.2400   36.5610 N   0  0  0  0  0  0  0  0  0  0  0  0
   38.7470   24.7160   35.3620 C   0  0  1  0  0  3  0  0  0  0  0  0
   38.8010   23.2580   35.1930 C   0  0  0  0  0  3  0  0  0  0  0  0
   39.8650   22.9520   34.9690 H   0  0  0  0  0  0  0  0  0  0  0  0
   38.4360   22.4900   36.2820 O   0  0  0  0  0  0  0  0  0  0  0  0
   37.4100   23.0390   37.0260 C   0  0  0  0  0  2  0  0  0  0  0  0
   37.9680   24.3120   37.6270 C   0  0  0  0  0  2  0  0  0  0  0  0
  1  6  1  0  0  0  0
  1 10  1  0  0  0  0
  2  1  2  0  0  0  0
  3  4  2  0  0  0  0
  3  2  1  0  0  0  0
  4  5  1  0  0  0  0
  5 26  1  0  0  0  0
  5  6  2  0  0  0  0
  7  2  1  0  0  0  0
  8  3  1  0  0  0  0
  9  4  1  0  0  0  0
 10 21  1  0  0  0  0
 10 11  1  0  0  0  0
 11 13  1  0  0  0  0
 12 10  1  0  0  0  0
 12 15  1  0  0  0  0
 12 11  1  0  0  0  0
 14 11  1  0  0  0  0
 16 12  1  0  0  0  0
 17 18  1  0  0  0  0
 18 24  1  0  0  0  0
 18 19  2  0  0  0  0
 19 25  1  0  0  0  0
 20 19  1  0  0  0  0
 21 20  2  0  0  0  0
 22 17  2  0  0  0  0
 22 21  1  0  0  0  0
 23 17  1  0  0  0  0
 26 30  2  0  0  0  0
 27 28  2  0  0  0  0
 27 26  1  0  0  0  0
 28 29  1  0  0  0  0
 29 30  1  0  0  0  0
 31 28  1  0  0  0  0
 32 33  1  0  0  0  0
 33 39  1  0  0  0  0
 34 29  1  6  0  0  0
 34 33  1  0  0  0  0
 35 34  1  0  0  0  0
 35 37  1  0  0  0  0
 36 35  1  0  0  0  0
 37 38  1  0  0  0  0
 38 39  1  0  0  0  0
M  END
>  <minimizedAffinity>
-6.0190587

$$$$

 OpenBabel03272505493D

 39 43  0  0  1  0  0  0  0  0999 V2000
   35.2040   29.4110   32.9400 C   0  0  0  0  0  0  0  0  0  0  0  0
   35.6610   29.3920   31.6680 C   0  0  0  0  0  0  0  0  0  0  0  0
   36.7600   28.6060   31.3250 C   0  0  0  0  0  0  0  0  0  0  0  0
   37.3610   27.8520   32.3260 C   0  0  0  0  0  0  0  0  0  0  0  0
   36.8910   27.8730   33.6300 C   0  0  0  0  0  0  0  0  0  0  0  0
   35.8240   28.6580   33.8830 N   0  0  0  0  0  0  0  0  0  0  0  0
   35.1830   29.9840   30.9000 H   0  0  0  0  0  0  0  0  0  0  0  0
   37.1210   28.5920   30.3130 H   0  0  0  0  0  0  0  0  0  0  0  0
   38.2160   27.2290   32.1010 H   0  0  0  0  0  0  0  0  0  0  0  0
   34.0140   30.2580   33.3300 C   0  0  0  0  0  0  0  0  0  0  0  0
   33.1510   30.7990   32.2670 C   0  0  0  0  0  0  0  0  0  0  0  0
   32.6570   29.6690   33.1240 C   0  0  0  0  0  0  0  0  0  0  0  0
   32.6190   31.7510   32.3800 H   0  0  0  0  0  0  0  0  0  0  0  0
   33.3780   30.5130   31.2090 H   0  0  0  0  0  0  0  0  0  0  0  0
   31.8800   29.8950   33.8970 H   0  0  0  0  0  0  0  0  0  0  0  0
   32.5950   28.6370   32.7250 H   0  0  0  0  0  0  0  0  0  0  0  0
   33.6430   31.4830   36.7940 C   0  0  0  0  0  0  0  0  0  0  0  0
   34.7320   32.3510   36.9310 C   0  0  0  0  0  0  0  0  0  0  0  0
   35.5900   32.5110   35.8290 C   0  0  0  0  0  0  0  0  0  0  0  0
   35.3390   31.8310   34.6890 N   0  0  0  0  0  0  0  0  0  0  0  0
   34.2610   30.9900   34.5950 C   0  0  0  0  0  0  0  0  0  0  0  0
   33.4220   30.8170   35.6350 N   0  0  0  0  0  0  0  0  0  0  0  0
   33.0020   31.3840   37.6610 H   0  0  0  0  0  0  0  0  0  0  0  0
   34.9830   32.9160   37.8030 H   0  0  0  0  0  0  0  0  0  0  0  0
   36.4670   33.1400   35.7790 H   0  0  0  0  0  0  0  0  0  0  0  0
   37.4830   27.1020   34.7260 C   0  0  0  0  0  0  0  0  0  0  0  0
   38.3400   27.4760   35.7200 N   0  0  0  0  0  0  0  0  0  0  0  0
   38.5900   26.3880   36.4880 C   0  0  0  0  0  0  0  0  0  0  0  0
   37.8940   25.3400   35.9750 N   0  0  0  0  0  0  0  0  0  0  0  0
   37.2190   25.7710   34.9030 N   0  0  0  0  0  0  0  0  0  0  0  0
   39.2220   26.3080   37.3630 H   0  0  0  0  0  0  0  0  0  0  0  0
   39.3760   23.8320   35.0330 H   0  0  0  0  0  0  0  0  0  0  0  0
   38.7460   23.2300   35.6100 N   0  0  0  0  0  0  0  0  0  0  0  0
   37.8050   23.9530   36.4090 C   0  0  1  0  0  3  0  0  0  0  0  0
   37.9440   23.9000   37.8700 C   0  0  0  0  0  3  0  0  0  0  0  0
   36.9620   23.5710   38.3220 H   0  0  0  0  0  0  0  0  0  0  0  0
   38.8780   23.0180   38.3760 O   0  0  0  0  0  0  0  0  0  0  0  0
   40.0100   22.9020   37.5920 C   0  0  0  0  0  2  0  0  0  0  0  0
   39.5530   22.2710   36.2940 C   0  0  0  0  0  2  0  0  0  0  0  0
  1 10  1  0  0  0  0
  1  6  1  0  0  0  0
  2  1  2  0  0  0  0
  3  2  1  0  0  0  0
  3  4  2  0  0  0  0
  4  5  1  0  0  0  0
  5  6  2  0  0  0  0
  5 26  1  0  0  0  0
  7  2  1  0  0  0  0
  8  3  1  0  0  0  0
  9  4  1  0  0  0  0
 10 21  1  0  0  0  0
 11 13  1  0  0  0  0
 11 12  1  0  0  0  0
 11 10  1  0  0  0  0
 12 10  1  0  0  0  0
 12 15  1  0  0  0  0
 14 11  1  0  0  0  0
 16 12  1  0  0  0  0
 17 18  1  0  0  0  0
 17 23  1  0  0  0  0
 18 24  1  0  0  0  0
 19 18  2  0  0  0  0
 20 19  1  0  0  0  0
 21 20  2  0  0  0  0
 21 22  1  0  0  0  0
 22 17  2  0  0  0  0
 25 19  1  0  0  0  0
 26 30  2  0  0  0  0
 26 27  1  0  0  0  0
 27 28  2  0  0  0  0
 28 31  1  0  0  0  0
 29 28  1  0  0  0  0
 30 29  1  0  0  0  0
 32 33  1  0  0  0  0
 33 39  1  0  0  0  0
 33 34  1  0  0  0  0
 34 29  1  6  0  0  0
 34 35  1  0  0  0  0
 35 36  1  0  0  0  0
 35 37  1  0  0  0  0
 38 37  1  0  0  0  0
 39 38  1  0  0  0  0
M  END
>  <minimizedAffinity>
-6.01039267

$$$$

 OpenBabel03272505493D

 39 43  0  0  1  0  0  0  0  0999 V2000
   37.0990   26.3390   32.8930 C   0  0  0  0  0  0  0  0  0  0  0  0
   36.8920   27.4970   33.5590 C   0  0  0  0  0  0  0  0  0  0  0  0
   37.2340   27.6060   34.9060 C   0  0  0  0  0  0  0  0  0  0  0  0
   37.7890   26.4960   35.5310 C   0  0  0  0  0  0  0  0  0  0  0  0
   38.0020   25.3100   34.8460 C   0  0  0  0  0  0  0  0  0  0  0  0
   37.6450   25.2820   33.5460 N   0  0  0  0  0  0  0  0  0  0  0  0
   36.4590   28.3520   33.0600 H   0  0  0  0  0  0  0  0  0  0  0  0
   37.0680   28.5280   35.4340 H   0  0  0  0  0  0  0  0  0  0  0  0
   38.0690   26.5410   36.5750 H   0  0  0  0  0  0  0  0  0  0  0  0
   36.7340   26.2020   31.4330 C   0  0  0  0  0  0  0  0  0  0  0  0
   36.3750   24.8720   30.9140 C   0  0  0  0  0  0  0  0  0  0  0  0
   35.3060   25.9090   31.1080 C   0  0  0  0  0  0  0  0  0  0  0  0
   36.5750   24.5820   29.8750 H   0  0  0  0  0  0  0  0  0  0  0  0
   36.3310   24.0190   31.6380 H   0  0  0  0  0  0  0  0  0  0  0  0
   34.8780   26.4000   30.1980 H   0  0  0  0  0  0  0  0  0  0  0  0
   34.5880   25.8350   31.9490 H   0  0  0  0  0  0  0  0  0  0  0  0
   37.3590   29.1170   29.2520 C   0  0  0  0  0  0  0  0  0  0  0  0
   38.7460   29.0710   29.0680 C   0  0  0  0  0  0  0  0  0  0  0  0
   39.4590   28.0360   29.6950 C   0  0  0  0  0  0  0  0  0  0  0  0
   38.7940   27.1310   30.4460 N   0  0  0  0  0  0  0  0  0  0  0  0
   37.4340   27.2110   30.6020 C   0  0  0  0  0  0  0  0  0  0  0  0
   36.7250   28.1920   30.0120 N   0  0  0  0  0  0  0  0  0  0  0  0
   36.8400   29.9260   28.7550 H   0  0  0  0  0  0  0  0  0  0  0  0
   39.3280   29.7540   28.4870 H   0  0  0  0  0  0  0  0  0  0  0  0
   40.5260   27.8660   29.6500 H   0  0  0  0  0  0  0  0  0  0  0  0
   38.5830   24.1080   35.4500 C   0  0  0  0  0  0  0  0  0  0  0  0
   38.1050   22.8330   35.5360 N   0  0  0  0  0  0  0  0  0  0  0  0
   39.0240   22.0850   36.1950 C   0  0  0  0  0  0  0  0  0  0  0  0
   40.0690   22.8910   36.5190 N   0  0  0  0  0  0  0  0  0  0  0  0
   39.8040   24.1230   36.0670 N   0  0  0  0  0  0  0  0  0  0  0  0
   38.9870   21.0330   36.4460 H   0  0  0  0  0  0  0  0  0  0  0  0
   40.5500   20.6710   36.9640 H   0  0  0  0  0  0  0  0  0  0  0  0
   41.3120   21.1910   37.4570 N   0  0  0  0  0  0  0  0  0  0  0  0
   41.3100   22.6030   37.2230 C   0  0  1  0  0  3  0  0  0  0  0  0
   42.4310   23.1880   36.4750 C   0  0  0  0  0  3  0  0  0  0  0  0
   42.8790   24.0300   37.0800 H   0  0  0  0  0  0  0  0  0  0  0  0
   43.4940   22.3530   36.1910 O   0  0  0  0  0  0  0  0  0  0  0  0
   43.1180   21.0510   35.9230 C   0  0  0  0  0  2  0  0  0  0  0  0
   42.5430   20.5100   37.2160 C   0  0  0  0  0  2  0  0  0  0  0  0
  1  6  2  0  0  0  0
  1  2  1  0  0  0  0
  2  3  2  0  0  0  0
  3  8  1  0  0  0  0
  3  4  1  0  0  0  0
  4  9  1  0  0  0  0
  5 26  1  0  0  0  0
  5  4  2  0  0  0  0
  6  5  1  0  0  0  0
  7  2  1  0  0  0  0
 10  1  1  0  0  0  0
 11 12  1  0  0  0  0
 11 10  1  0  0  0  0
 11 14  1  0  0  0  0
 12 10  1  0  0  0  0
 12 16  1  0  0  0  0
 13 11  1  0  0  0  0
 15 12  1  0  0  0  0
 17 22  1  0  0  0  0
 18 17  2  0  0  0  0
 18 19  1  0  0  0  0
 19 20  2  0  0  0  0
 20 21  1  0  0  0  0
 21 10  1  0  0  0  0
 22 21  2  0  0  0  0
 23 17  1  0  0  0  0
 24 18  1  0  0  0  0
 25 19  1  0  0  0  0
 26 27  1  0  0  0  0
 26 30  2  0  0  0  0
 27 28  2  0  0  0  0
 28 31  1  0  0  0  0
 28 29  1  0  0  0  0
 30 29  1  0  0  0  0
 32 33  1  0  0  0  0
 34 29  1  6  0  0  0
 34 33  1  0  0  0  0
 35 36  1  0  0  0  0
 35 34  1  0  0  0  0
 37 35  1  0  0  0  0
 38 37  1  0  0  0  0
 38 39  1  0  0  0  0
 39 33  1  0  0  0  0
M  END
>  <minimizedAffinity>
-5.85148525

$$$$

 OpenBabel03272505493D

 39 43  0  0  1  0  0  0  0  0999 V2000
   38.4900   24.3210   35.2060 C   0  0  0  0  0  0  0  0  0  0  0  0
   38.5160   25.0750   36.3270 C   0  0  0  0  0  0  0  0  0  0  0  0
   38.1830   26.4280   36.2760 C   0  0  0  0  0  0  0  0  0  0  0  0
   37.8280   26.9660   35.0450 C   0  0  0  0  0  0  0  0  0  0  0  0
   37.8020   26.1910   33.8960 C   0  0  0  0  0  0  0  0  0  0  0  0
   38.1360   24.8910   34.0260 N   0  0  0  0  0  0  0  0  0  0  0  0
   38.7950   24.6420   37.2780 H   0  0  0  0  0  0  0  0  0  0  0  0
   38.2050   27.0250   37.1690 H   0  0  0  0  0  0  0  0  0  0  0  0
   37.5630   28.0120   34.9630 H   0  0  0  0  0  0  0  0  0  0  0  0
   38.8480   22.8530   35.2430 C   0  0  0  0  0  0  0  0  0  0  0  0
   40.2390   22.4560   34.9710 C   0  0  0  0  0  0  0  0  0  0  0  0
   39.7060   22.3850   36.3730 C   0  0  0  0  0  0  0  0  0  0  0  0
   40.4870   21.4940   34.5060 H   0  0  0  0  0  0  0  0  0  0  0  0
   40.9940   23.2650   34.8020 H   0  0  0  0  0  0  0  0  0  0  0  0
   39.4810   21.3760   36.8000 H   0  0  0  0  0  0  0  0  0  0  0  0
   40.0100   23.1300   37.1360 H   0  0  0  0  0  0  0  0  0  0  0  0
   35.7490   20.8550   35.4520 C   0  0  0  0  0  0  0  0  0  0  0  0
   35.5660   20.4330   34.1300 C   0  0  0  0  0  0  0  0  0  0  0  0
   36.5120   20.8380   33.1730 C   0  0  0  0  0  0  0  0  0  0  0  0
   37.5520   21.6110   33.5540 N   0  0  0  0  0  0  0  0  0  0  0  0
   37.6950   22.0040   34.8590 C   0  0  0  0  0  0  0  0  0  0  0  0
   36.8050   21.6300   35.7980 N   0  0  0  0  0  0  0  0  0  0  0  0
   35.0030   20.5240   36.1640 H   0  0  0  0  0  0  0  0  0  0  0  0
   34.7670   19.8220   33.7680 H   0  0  0  0  0  0  0  0  0  0  0  0
   36.5090   20.5960   32.1190 H   0  0  0  0  0  0  0  0  0  0  0  0
   37.4360   26.7020   32.5720 C   0  0  0  0  0  0  0  0  0  0  0  0
   36.2150   26.9620   32.0220 N   0  0  0  0  0  0  0  0  0  0  0  0
   36.4120   27.4240   30.7630 C   0  0  0  0  0  0  0  0  0  0  0  0
   37.7510   27.4500   30.5290 N   0  0  0  0  0  0  0  0  0  0  0  0
   38.3770   27.0120   31.6280 N   0  0  0  0  0  0  0  0  0  0  0  0
   35.6770   27.7300   30.0310 H   0  0  0  0  0  0  0  0  0  0  0  0
   36.6750   28.8120   28.9970 H   0  0  0  0  0  0  0  0  0  0  0  0
   37.5870   28.5940   28.5340 N   0  0  0  0  0  0  0  0  0  0  0  0
   38.5020   27.8570   29.3510 C   0  0  1  0  0  3  0  0  0  0  0  0
   39.7430   28.5160   29.7800 C   0  0  0  0  0  3  0  0  0  0  0  0
   40.6230   27.8700   29.4910 H   0  0  0  0  0  0  0  0  0  0  0  0
   40.0150   29.7520   29.2250 O   0  0  0  0  0  0  0  0  0  0  0  0
   38.8880   30.5210   29.0100 C   0  0  0  0  0  2  0  0  0  0  0  0
   38.0870   29.7960   27.9490 C   0  0  0  0  0  2  0  0  0  0  0  0
  1 10  1  0  0  0  0
  1  2  1  0  0  0  0
  2  7  1  0  0  0  0
  3  2  2  0  0  0  0
  3  8  1  0  0  0  0
  4  3  1  0  0  0  0
  5  6  1  0  0  0  0
  5  4  2  0  0  0  0
  6  1  2  0  0  0  0
  9  4  1  0  0  0  0
 10 12  1  0  0  0  0
 11 10  1  0  0  0  0
 11 12  1  0  0  0  0
 12 15  1  0  0  0  0
 12 16  1  0  0  0  0
 13 11  1  0  0  0  0
 14 11  1  0  0  0  0
 17 22  1  0  0  0  0
 17 23  1  0  0  0  0
 18 17  2  0  0  0  0
 19 20  2  0  0  0  0
 19 18  1  0  0  0  0
 20 21  1  0  0  0  0
 21 10  1  0  0  0  0
 21 22  2  0  0  0  0
 24 18  1  0  0  0  0
 25 19  1  0  0  0  0
 26  5  1  0  0  0  0
 27 26  1  0  0  0  0
 28 27  2  0  0  0  0
 29 28  1  0  0  0  0
 29 30  1  0  0  0  0
 30 26  2  0  0  0  0
 31 28  1  0  0  0  0
 33 32  1  0  0  0  0
 33 34  1  0  0  0  0
 34 35  1  0  0  0  0
 34 29  1  1  0  0  0
 36 35  1  0  0  0  0
 37 35  1  0  0  0  0
 38 37  1  0  0  0  0
 39 33  1  0  0  0  0
 39 38  1  0  0  0  0
M  END
>  <minimizedAffinity>
-5.82990217

$$$$

 OpenBabel03272505493D

 39 43  0  0  1  0  0  0  0  0999 V2000
   37.7100   26.1190   33.6100 C   0  0  0  0  0  0  0  0  0  0  0  0
   37.5100   24.9990   32.8810 C   0  0  0  0  0  0  0  0  0  0  0  0
   36.6270   25.0070   31.8030 C   0  0  0  0  0  0  0  0  0  0  0  0
   35.9660   26.1940   31.5080 C   0  0  0  0  0  0  0  0  0  0  0  0
   36.1730   27.3420   32.2570 C   0  0  0  0  0  0  0  0  0  0  0  0
   37.0430   27.2550   33.2840 N   0  0  0  0  0  0  0  0  0  0  0  0
   38.0310   24.0820   33.1210 H   0  0  0  0  0  0  0  0  0  0  0  0
   36.4690   24.1150   31.2240 H   0  0  0  0  0  0  0  0  0  0  0  0
   35.2730   26.2420   30.6800 H   0  0  0  0  0  0  0  0  0  0  0  0
   38.6640   26.1280   34.7820 C   0  0  0  0  0  0  0  0  0  0  0  0
   39.7940   27.0720   34.7690 C   0  0  0  0  0  0  0  0  0  0  0  0
   38.6290   27.3180   35.6850 C   0  0  0  0  0  0  0  0  0  0  0  0
   40.7470   26.8430   35.2600 H   0  0  0  0  0  0  0  0  0  0  0  0
   39.8700   27.7890   33.9130 H   0  0  0  0  0  0  0  0  0  0  0  0
   38.7720   27.1330   36.7790 H   0  0  0  0  0  0  0  0  0  0  0  0
   37.8900   28.1140   35.4640 H   0  0  0  0  0  0  0  0  0  0  0  0
   39.9100   22.7780   35.7090 C   0  0  0  0  0  0  0  0  0  0  0  0
   38.9250   22.3160   36.5900 C   0  0  0  0  0  0  0  0  0  0  0  0
   37.8350   23.1610   36.8600 C   0  0  0  0  0  0  0  0  0  0  0  0
   37.7750   24.3750   36.2700 N   0  0  0  0  0  0  0  0  0  0  0  0
   38.7610   24.7900   35.4130 C   0  0  0  0  0  0  0  0  0  0  0  0
   39.8160   24.0010   35.1350 N   0  0  0  0  0  0  0  0  0  0  0  0
   40.7350   22.1020   35.5220 H   0  0  0  0  0  0  0  0  0  0  0  0
   38.9160   21.3690   37.0850 H   0  0  0  0  0  0  0  0  0  0  0  0
   37.0000   22.9510   37.5130 H   0  0  0  0  0  0  0  0  0  0  0  0
   35.5060   28.6210   31.9960 C   0  0  0  0  0  0  0  0  0  0  0  0
   35.7580   29.5830   31.0620 N   0  0  0  0  0  0  0  0  0  0  0  0
   34.8550   30.5790   31.2330 C   0  0  0  0  0  0  0  0  0  0  0  0
   34.0460   30.2400   32.2710 N   0  0  0  0  0  0  0  0  0  0  0  0
   34.4390   29.0490   32.7380 N   0  0  0  0  0  0  0  0  0  0  0  0
   34.7490   31.5010   30.6770 H   0  0  0  0  0  0  0  0  0  0  0  0
   31.9180   29.5500   31.6770 H   0  0  0  0  0  0  0  0  0  0  0  0
   31.7460   30.3970   32.2650 N   0  0  0  0  0  0  0  0  0  0  0  0
   32.9210   30.9440   32.8700 C   0  0  1  0  0  3  0  0  0  0  0  0
   33.0450   30.8850   34.3320 C   0  0  0  0  0  3  0  0  0  0  0  0
   33.2480   31.9240   34.7280 H   0  0  0  0  0  0  0  0  0  0  0  0
   31.9370   30.4510   35.0350 O   0  0  0  0  0  0  0  0  0  0  0  0
   31.2220   29.4650   34.3840 C   0  0  0  0  0  2  0  0  0  0  0  0
   30.6540   30.1160   33.1410 C   0  0  0  0  0  2  0  0  0  0  0  0
  1 10  1  0  0  0  0
  2  7  1  0  0  0  0
  2  1  2  0  0  0  0
  3  2  1  0  0  0  0
  4  3  2  0  0  0  0
  4  5  1  0  0  0  0
  5  6  2  0  0  0  0
  6  1  1  0  0  0  0
  8  3  1  0  0  0  0
  9  4  1  0  0  0  0
 10 21  1  0  0  0  0
 10 12  1  0  0  0  0
 11 10  1  0  0  0  0
 11 13  1  0  0  0  0
 11 12  1  0  0  0  0
 12 15  1  0  0  0  0
 14 11  1  0  0  0  0
 16 12  1  0  0  0  0
 17 18  1  0  0  0  0
 18 19  2  0  0  0  0
 18 24  1  0  0  0  0
 19 25  1  0  0  0  0
 20 19  1  0  0  0  0
 21 20  2  0  0  0  0
 22 21  1  0  0  0  0
 22 17  2  0  0  0  0
 23 17  1  0  0  0  0
 26  5  1  0  0  0  0
 26 30  2  0  0  0  0
 27 28  2  0  0  0  0
 27 26  1  0  0  0  0
 28 29  1  0  0  0  0
 29 30  1  0  0  0  0
 31 28  1  0  0  0  0
 32 33  1  0  0  0  0
 33 34  1  0  0  0  0
 33 39  1  0  0  0  0
 34 29  1  6  0  0  0
 34 35  1  0  0  0  0
 35 36  1  0  0  0  0
 35 37  1  0  0  0  0
 38 37  1  0  0  0  0
 39 38  1  0  0  0  0
M  END
>  <minimizedAffinity>
-5.80834532

$$$$

 OpenBabel03272505493D

 39 43  0  0  1  0  0  0  0  0999 V2000
   35.8790   29.3140   32.2500 C   0  0  0  0  0  0  0  0  0  0  0  0
   36.3420   28.9860   31.0240 C   0  0  0  0  0  0  0  0  0  0  0  0
   37.2750   27.9610   30.8730 C   0  0  0  0  0  0  0  0  0  0  0  0
   37.7070   27.2980   32.0160 C   0  0  0  0  0  0  0  0  0  0  0  0
   37.2300   27.6360   33.2730 C   0  0  0  0  0  0  0  0  0  0  0  0
   36.3290   28.6380   33.3370 N   0  0  0  0  0  0  0  0  0  0  0  0
   35.9980   29.5100   30.1440 H   0  0  0  0  0  0  0  0  0  0  0  0
   37.6420   27.7020   29.8970 H   0  0  0  0  0  0  0  0  0  0  0  0
   38.4290   26.4970   31.9420 H   0  0  0  0  0  0  0  0  0  0  0  0
   34.8670   30.4220   32.4320 C   0  0  0  0  0  0  0  0  0  0  0  0
   35.3400   31.8160   32.4530 C   0  0  0  0  0  0  0  0  0  0  0  0
   34.5950   31.3020   31.2560 C   0  0  0  0  0  0  0  0  0  0  0  0
   34.8290   32.5930   33.0350 H   0  0  0  0  0  0  0  0  0  0  0  0
   36.4290   32.0060   32.2770 H   0  0  0  0  0  0  0  0  0  0  0  0
   33.5400   31.6420   31.1060 H   0  0  0  0  0  0  0  0  0  0  0  0
   35.1260   31.0790   30.3080 H   0  0  0  0  0  0  0  0  0  0  0  0
   31.6920   28.7950   33.3840 C   0  0  0  0  0  0  0  0  0  0  0  0
   31.5630   29.1400   34.7350 C   0  0  0  0  0  0  0  0  0  0  0  0
   32.5700   29.9330   35.3110 C   0  0  0  0  0  0  0  0  0  0  0  0
   33.6160   30.3300   34.5540 N   0  0  0  0  0  0  0  0  0  0  0  0
   33.7060   29.9700   33.2340 C   0  0  0  0  0  0  0  0  0  0  0  0
   32.7550   29.2110   32.6560 N   0  0  0  0  0  0  0  0  0  0  0  0
   30.8990   28.1840   32.9720 H   0  0  0  0  0  0  0  0  0  0  0  0
   30.7610   28.8590   35.3840 H   0  0  0  0  0  0  0  0  0  0  0  0
   32.6140   30.2800   36.3340 H   0  0  0  0  0  0  0  0  0  0  0  0
   37.6470   26.9740   34.5120 C   0  0  0  0  0  0  0  0  0  0  0  0
   38.2720   27.4670   35.6200 N   0  0  0  0  0  0  0  0  0  0  0  0
   38.4370   26.4460   36.4960 C   0  0  0  0  0  0  0  0  0  0  0  0
   37.9180   25.3220   35.9370 N   0  0  0  0  0  0  0  0  0  0  0  0
   37.4360   25.6390   34.7290 N   0  0  0  0  0  0  0  0  0  0  0  0
   38.8930   26.4620   37.4780 H   0  0  0  0  0  0  0  0  0  0  0  0
   39.2340   23.7190   34.9070 H   0  0  0  0  0  0  0  0  0  0  0  0
   38.6540   23.1670   35.5780 N   0  0  0  0  0  0  0  0  0  0  0  0
   37.8330   23.9590   36.4420 C   0  0  1  0  0  3  0  0  0  0  0  0
   38.1340   23.9640   37.8800 C   0  0  0  0  0  3  0  0  0  0  0  0
   37.2000   23.6920   38.4530 H   0  0  0  0  0  0  0  0  0  0  0  0
   39.0900   23.0690   38.3190 O   0  0  0  0  0  0  0  0  0  0  0  0
   40.1220   22.8770   37.4210 C   0  0  0  0  0  2  0  0  0  0  0  0
   39.5000   22.2080   36.2120 C   0  0  0  0  0  2  0  0  0  0  0  0
  1 10  1  0  0  0  0
  1  6  1  0  0  0  0
  2  1  2  0  0  0  0
  3  2  1  0  0  0  0
  3  4  2  0  0  0  0
  4  5  1  0  0  0  0
  5  6  2  0  0  0  0
  5 26  1  0  0  0  0
  7  2  1  0  0  0  0
  8  3  1  0  0  0  0
  9  4  1  0  0  0  0
 10 11  1  0  0  0  0
 10 21  1  0  0  0  0
 11 13  1  0  0  0  0
 12 10  1  0  0  0  0
 12 11  1  0  0  0  0
 14 11  1  0  0  0  0
 15 12  1  0  0  0  0
 16 12  1  0  0  0  0
 17 18  1  0  0  0  0
 18 19  2  0  0  0  0
 18 24  1  0  0  0  0
 19 25  1  0  0  0  0
 20 19  1  0  0  0  0
 21 20  2  0  0  0  0
 22 21  1  0  0  0  0
 22 17  2  0  0  0  0
 23 17  1  0  0  0  0
 26 30  2  0  0  0  0
 26 27  1  0  0  0  0
 27 28  2  0  0  0  0
 28 31  1  0  0  0  0
 29 28  1  0  0  0  0
 30 29  1  0  0  0  0
 32 33  1  0  0  0  0
 33 39  1  0  0  0  0
 33 34  1  0  0  0  0
 34 29  1  6  0  0  0
 34 35  1  0  0  0  0
 35 37  1  0  0  0  0
 35 36  1  0  0  0  0
 38 37  1  0  0  0  0
 39 38  1  0  0  0  0
M  END
>  <minimizedAffinity>
-5.80485153

$$$$

 OpenBabel03272505493D

 39 43  0  0  1  0  0  0  0  0999 V2000
   38.3410   24.5640   35.3450 C   0  0  0  0  0  0  0  0  0  0  0  0
   38.4440   25.3690   36.4260 C   0  0  0  0  0  0  0  0  0  0  0  0
   38.2130   26.7380   36.3100 C   0  0  0  0  0  0  0  0  0  0  0  0
   37.8760   27.2400   35.0580 C   0  0  0  0  0  0  0  0  0  0  0  0
   37.7700   26.4130   33.9510 C   0  0  0  0  0  0  0  0  0  0  0  0
   38.0090   25.0990   34.1430 N   0  0  0  0  0  0  0  0  0  0  0  0
   38.7070   24.9640   37.3930 H   0  0  0  0  0  0  0  0  0  0  0  0
   38.2960   27.3770   37.1710 H   0  0  0  0  0  0  0  0  0  0  0  0
   37.6880   28.2970   34.9270 H   0  0  0  0  0  0  0  0  0  0  0  0
   38.5890   23.0770   35.4520 C   0  0  0  0  0  0  0  0  0  0  0  0
   37.4690   22.1970   35.8270 C   0  0  0  0  0  0  0  0  0  0  0  0
   37.9710   22.2020   34.4110 C   0  0  0  0  0  0  0  0  0  0  0  0
   37.6250   21.2660   36.3840 H   0  0  0  0  0  0  0  0  0  0  0  0
   36.4590   22.6600   35.9630 H   0  0  0  0  0  0  0  0  0  0  0  0
   38.5690   21.3240   34.0620 H   0  0  0  0  0  0  0  0  0  0  0  0
   37.3890   22.6900   33.6030 H   0  0  0  0  0  0  0  0  0  0  0  0
   42.2810   23.0690   35.5080 C   0  0  0  0  0  0  0  0  0  0  0  0
   42.5700   22.2430   36.6010 C   0  0  0  0  0  0  0  0  0  0  0  0
   41.4920   21.6920   37.3130 C   0  0  0  0  0  0  0  0  0  0  0  0
   40.2280   21.9730   36.9260 N   0  0  0  0  0  0  0  0  0  0  0  0
   39.9870   22.7880   35.8500 C   0  0  0  0  0  0  0  0  0  0  0  0
   41.0010   23.3290   35.1490 N   0  0  0  0  0  0  0  0  0  0  0  0
   43.1350   23.4770   34.9820 H   0  0  0  0  0  0  0  0  0  0  0  0
   43.5450   21.9830   36.9540 H   0  0  0  0  0  0  0  0  0  0  0  0
   41.5500   21.0400   38.1730 H   0  0  0  0  0  0  0  0  0  0  0  0
   37.4190   26.8830   32.6080 C   0  0  0  0  0  0  0  0  0  0  0  0
   36.2050   27.1510   32.0460 N   0  0  0  0  0  0  0  0  0  0  0  0
   36.4150   27.5620   30.7720 C   0  0  0  0  0  0  0  0  0  0  0  0
   37.7540   27.5480   30.5400 N   0  0  0  0  0  0  0  0  0  0  0  0
   38.3680   27.1360   31.6560 N   0  0  0  0  0  0  0  0  0  0  0  0
   35.6890   27.8590   30.0270 H   0  0  0  0  0  0  0  0  0  0  0  0
   36.7130   28.8750   28.9550 H   0  0  0  0  0  0  0  0  0  0  0  0
   37.6210   28.6200   28.5040 N   0  0  0  0  0  0  0  0  0  0  0  0
   38.5180   27.8930   29.3500 C   0  0  1  0  0  3  0  0  0  0  0  0
   39.7710   28.5410   29.7570 C   0  0  0  0  0  3  0  0  0  0  0  0
   40.6380   27.8650   29.4960 H   0  0  0  0  0  0  0  0  0  0  0  0
   40.0730   29.7490   29.1580 O   0  0  0  0  0  0  0  0  0  0  0  0
   38.9630   30.5340   28.9100 C   0  0  0  0  0  2  0  0  0  0  0  0
   38.1490   29.7870   27.8750 C   0  0  0  0  0  2  0  0  0  0  0  0
  1 10  1  0  0  0  0
  1  2  1  0  0  0  0
  2  7  1  0  0  0  0
  3  2  2  0  0  0  0
  3  8  1  0  0  0  0
  4  3  1  0  0  0  0
  5  6  1  0  0  0  0
  5  4  2  0  0  0  0
  6  1  2  0  0  0  0
  9  4  1  0  0  0  0
 10 11  1  0  0  0  0
 10 21  1  0  0  0  0
 11 14  1  0  0  0  0
 11 13  1  0  0  0  0
 12 10  1  0  0  0  0
 12 11  1  0  0  0  0
 15 12  1  0  0  0  0
 16 12  1  0  0  0  0
 17 18  1  0  0  0  0
 18 24  1  0  0  0  0
 18 19  2  0  0  0  0
 19 25  1  0  0  0  0
 20 19  1  0  0  0  0
 21 20  2  0  0  0  0
 22 17  2  0  0  0  0
 22 21  1  0  0  0  0
 23 17  1  0  0  0  0
 26  5  1  0  0  0  0
 27 26  1  0  0  0  0
 28 27  2  0  0  0  0
 29 28  1  0  0  0  0
 29 30  1  0  0  0  0
 30 26  2  0  0  0  0
 31 28  1  0  0  0  0
 33 32  1  0  0  0  0
 33 34  1  0  0  0  0
 34 35  1  0  0  0  0
 34 29  1  1  0  0  0
 36 35  1  0  0  0  0
 37 35  1  0  0  0  0
 38 37  1  0  0  0  0
 39 33  1  0  0  0  0
 39 38  1  0  0  0  0
M  END
>  <minimizedAffinity>
-5.67897177

$$$$

 OpenBabel03272505493D

 39 43  0  0  1  0  0  0  0  0999 V2000
   37.7160   26.3580   33.6060 C   0  0  0  0  0  0  0  0  0  0  0  0
   37.3990   25.3340   32.7840 C   0  0  0  0  0  0  0  0  0  0  0  0
   36.4870   25.5180   31.7460 C   0  0  0  0  0  0  0  0  0  0  0  0
   35.9230   26.7790   31.5890 C   0  0  0  0  0  0  0  0  0  0  0  0
   36.2490   27.8280   32.4340 C   0  0  0  0  0  0  0  0  0  0  0  0
   37.1390   27.5710   33.4140 N   0  0  0  0  0  0  0  0  0  0  0  0
   37.8460   24.3580   32.9180 H   0  0  0  0  0  0  0  0  0  0  0  0
   36.2370   24.7020   31.0930 H   0  0  0  0  0  0  0  0  0  0  0  0
   35.2110   26.9630   30.7960 H   0  0  0  0  0  0  0  0  0  0  0  0
   38.7020   26.1760   34.7370 C   0  0  0  0  0  0  0  0  0  0  0  0
   39.8740   27.0640   34.8050 C   0  0  0  0  0  0  0  0  0  0  0  0
   38.7490   27.2400   35.7840 C   0  0  0  0  0  0  0  0  0  0  0  0
   40.8290   26.7320   35.2310 H   0  0  0  0  0  0  0  0  0  0  0  0
   39.9600   27.8810   34.0450 H   0  0  0  0  0  0  0  0  0  0  0  0
   38.9140   26.9090   36.8400 H   0  0  0  0  0  0  0  0  0  0  0  0
   38.0420   28.0890   35.6920 H   0  0  0  0  0  0  0  0  0  0  0  0
   39.7470   22.6520   35.0970 C   0  0  0  0  0  0  0  0  0  0  0  0
   38.8360   22.1550   36.0370 C   0  0  0  0  0  0  0  0  0  0  0  0
   37.8650   23.0370   36.5420 C   0  0  0  0  0  0  0  0  0  0  0  0
   37.8430   24.3170   36.1100 N   0  0  0  0  0  0  0  0  0  0  0  0
   38.7540   24.7650   35.1890 C   0  0  0  0  0  0  0  0  0  0  0  0
   39.6950   23.9420   34.6880 N   0  0  0  0  0  0  0  0  0  0  0  0
   40.4810   21.9460   34.7290 H   0  0  0  0  0  0  0  0  0  0  0  0
   38.8010   21.1570   36.4150 H   0  0  0  0  0  0  0  0  0  0  0  0
   37.0970   22.8070   37.2670 H   0  0  0  0  0  0  0  0  0  0  0  0
   35.6880   29.1770   32.3180 C   0  0  0  0  0  0  0  0  0  0  0  0
   35.4200   29.9410   31.2200 N   0  0  0  0  0  0  0  0  0  0  0  0
   34.9030   31.1200   31.6460 C   0  0  0  0  0  0  0  0  0  0  0  0
   34.8510   31.0910   33.0040 N   0  0  0  0  0  0  0  0  0  0  0  0
   35.3270   29.9100   33.4160 N   0  0  0  0  0  0  0  0  0  0  0  0
   34.5750   31.9670   31.0590 H   0  0  0  0  0  0  0  0  0  0  0  0
   33.6520   30.3320   34.8330 H   0  0  0  0  0  0  0  0  0  0  0  0
   33.5990   31.3730   34.9190 N   0  0  0  0  0  0  0  0  0  0  0  0
   34.3860   32.0860   33.9590 C   0  0  1  0  0  3  0  0  0  0  0  0
   35.5370   32.8620   34.4380 C   0  0  0  0  0  3  0  0  0  0  0  0
   35.4480   33.9240   34.0630 H   0  0  0  0  0  0  0  0  0  0  0  0
   35.6810   32.9830   35.8070 O   0  0  0  0  0  0  0  0  0  0  0  0
   35.2990   31.8530   36.5040 C   0  0  0  0  0  2  0  0  0  0  0  0
   33.8060   31.7170   36.2890 C   0  0  0  0  0  2  0  0  0  0  0  0
  1 10  1  0  0  0  0
  2  7  1  0  0  0  0
  2  1  2  0  0  0  0
  3  2  1  0  0  0  0
  4  3  2  0  0  0  0
  4  5  1  0  0  0  0
  5  6  2  0  0  0  0
  6  1  1  0  0  0  0
  8  3  1  0  0  0  0
  9  4  1  0  0  0  0
 10 11  1  0  0  0  0
 10 21  1  0  0  0  0
 10 12  1  0  0  0  0
 11 13  1  0  0  0  0
 11 12  1  0  0  0  0
 12 15  1  0  0  0  0
 14 11  1  0  0  0  0
 16 12  1  0  0  0  0
 17 18  1  0  0  0  0
 18 24  1  0  0  0  0
 18 19  2  0  0  0  0
 19 25  1  0  0  0  0
 20 19  1  0  0  0  0
 21 20  2  0  0  0  0
 22 17  2  0  0  0  0
 22 21  1  0  0  0  0
 23 17  1  0  0  0  0
 26  5  1  0  0  0  0
 26 30  2  0  0  0  0
 27 28  2  0  0  0  0
 27 26  1  0  0  0  0
 28 29  1  0  0  0  0
 29 30  1  0  0  0  0
 31 28  1  0  0  0  0
 32 33  1  0  0  0  0
 33 39  1  0  0  0  0
 34 29  1  6  0  0  0
 34 35  1  0  0  0  0
 34 33  1  0  0  0  0
 35 37  1  0  0  0  0
 36 35  1  0  0  0  0
 37 38  1  0  0  0  0
 39 38  1  0  0  0  0
M  END
>  <minimizedAffinity>
-5.65714502

$$$$

 OpenBabel03272505493D

 39 43  0  0  1  0  0  0  0  0999 V2000
   35.6760   29.8660   33.9630 C   0  0  0  0  0  0  0  0  0  0  0  0
   35.6220   30.1070   32.6340 C   0  0  0  0  0  0  0  0  0  0  0  0
   36.1130   29.1700   31.7260 C   0  0  0  0  0  0  0  0  0  0  0  0
   36.6540   27.9930   32.2310 C   0  0  0  0  0  0  0  0  0  0  0  0
   36.7080   27.7480   33.5940 C   0  0  0  0  0  0  0  0  0  0  0  0
   36.2130   28.7020   34.4080 N   0  0  0  0  0  0  0  0  0  0  0  0
   35.1990   31.0280   32.2560 H   0  0  0  0  0  0  0  0  0  0  0  0
   36.0690   29.3650   30.6700 H   0  0  0  0  0  0  0  0  0  0  0  0
   37.0450   27.2410   31.5590 H   0  0  0  0  0  0  0  0  0  0  0  0
   35.1490   30.8710   34.9610 C   0  0  0  0  0  0  0  0  0  0  0  0
   36.1080   31.5930   35.8130 C   0  0  0  0  0  0  0  0  0  0  0  0
   35.4200   32.3140   34.6890 C   0  0  0  0  0  0  0  0  0  0  0  0
   35.8480   31.9280   36.8240 H   0  0  0  0  0  0  0  0  0  0  0  0
   37.2000   31.4110   35.6480 H   0  0  0  0  0  0  0  0  0  0  0  0
   34.6120   33.0430   34.9480 H   0  0  0  0  0  0  0  0  0  0  0  0
   35.9670   32.5730   33.7600 H   0  0  0  0  0  0  0  0  0  0  0  0
   32.0760   30.7240   37.0040 C   0  0  0  0  0  0  0  0  0  0  0  0
   31.2800   29.8160   36.2970 C   0  0  0  0  0  0  0  0  0  0  0  0
   31.8060   29.2570   35.1200 C   0  0  0  0  0  0  0  0  0  0  0  0
   33.0450   29.6100   34.7140 N   0  0  0  0  0  0  0  0  0  0  0  0
   33.7930   30.5040   35.4340 C   0  0  0  0  0  0  0  0  0  0  0  0
   33.3150   31.0550   36.5670 N   0  0  0  0  0  0  0  0  0  0  0  0
   31.6410   31.1350   37.9060 H   0  0  0  0  0  0  0  0  0  0  0  0
   30.2960   29.4960   36.5660 H   0  0  0  0  0  0  0  0  0  0  0  0
   31.3180   28.5460   34.4670 H   0  0  0  0  0  0  0  0  0  0  0  0
   37.2650   26.5270   34.1840 C   0  0  0  0  0  0  0  0  0  0  0  0
   37.5910   26.2300   35.4750 N   0  0  0  0  0  0  0  0  0  0  0  0
   38.0720   24.9630   35.5040 C   0  0  0  0  0  0  0  0  0  0  0  0
   38.0470   24.4740   34.2360 N   0  0  0  0  0  0  0  0  0  0  0  0
   37.5570   25.4240   33.4300 N   0  0  0  0  0  0  0  0  0  0  0  0
   38.4260   24.3910   36.3510 H   0  0  0  0  0  0  0  0  0  0  0  0
   36.6770   22.6660   34.6960 H   0  0  0  0  0  0  0  0  0  0  0  0
   37.4990   22.2350   34.2160 N   0  0  0  0  0  0  0  0  0  0  0  0
   38.4480   23.1780   33.7080 C   0  0  1  0  0  3  0  0  0  0  0  0
   38.6140   23.2850   32.2530 C   0  0  0  0  0  3  0  0  0  0  0  0
   39.7060   23.1570   31.9950 H   0  0  0  0  0  0  0  0  0  0  0  0
   37.9570   22.3480   31.4790 O   0  0  0  0  0  0  0  0  0  0  0  0
   36.7270   21.9770   31.9870 C   0  0  0  0  0  2  0  0  0  0  0  0
   37.0140   21.2620   33.2910 C   0  0  0  0  0  2  0  0  0  0  0  0
  1  6  1  0  0  0  0
  1 10  1  0  0  0  0
  2  1  2  0  0  0  0
  3  4  2  0  0  0  0
  3  2  1  0  0  0  0
  4  5  1  0  0  0  0
  5 26  1  0  0  0  0
  5  6  2  0  0  0  0
  7  2  1  0  0  0  0
  8  3  1  0  0  0  0
  9  4  1  0  0  0  0
 10 21  1  0  0  0  0
 10 11  1  0  0  0  0
 11 13  1  0  0  0  0
 12 15  1  0  0  0  0
 12 10  1  0  0  0  0
 12 11  1  0  0  0  0
 14 11  1  0  0  0  0
 16 12  1  0  0  0  0
 17 23  1  0  0  0  0
 18 24  1  0  0  0  0
 18 17  2  0  0  0  0
 19 18  1  0  0  0  0
 20 19  2  0  0  0  0
 20 21  1  0  0  0  0
 21 22  2  0  0  0  0
 22 17  1  0  0  0  0
 25 19  1  0  0  0  0
 26 27  1  0  0  0  0
 27 28  2  0  0  0  0
 28 31  1  0  0  0  0
 29 28  1  0  0  0  0
 30 26  2  0  0  0  0
 30 29  1  0  0  0  0
 33 32  1  0  0  0  0
 34 33  1  0  0  0  0
 34 29  1  6  0  0  0
 35 34  1  0  0  0  0
 36 35  1  0  0  0  0
 37 38  1  0  0  0  0
 37 35  1  0  0  0  0
 38 39  1  0  0  0  0
 39 33  1  0  0  0  0
M  END
>  <minimizedAffinity>
-5.63067293

$$$$
