
 OpenBabel03272508463D

 39 43  0  0  0  0  0  0  0  0999 V2000
   35.4610   29.4660   49.4190 C   0  0  0  0  0  0  0  0  0  0  0  0
   36.5670   29.0370   50.1340 C   0  0  0  0  0  0  0  0  0  0  0  0
   37.6350   29.6330   49.4690 C   0  0  0  0  0  0  0  0  0  0  0  0
   37.1570   30.3650   48.4220 C   0  0  0  0  0  0  0  0  0  0  0  0
   35.8480   30.2380   48.4270 O   0  0  0  0  0  0  0  0  0  0  0  0
   36.5960   28.3910   51.0090 H   0  0  0  0  0  0  0  0  0  0  0  0
   38.6610   29.5190   49.7520 H   0  0  0  0  0  0  0  0  0  0  0  0
   38.7610   32.1510   47.9220 C   0  0  0  0  0  0  0  0  0  0  0  0
   37.9260   31.1510   47.4600 C   0  0  0  0  0  0  0  0  0  0  0  0
   37.8040   30.8820   46.1100 C   0  0  0  0  0  0  0  0  0  0  0  0
   38.5290   31.6220   45.1830 C   0  0  0  0  0  0  0  0  0  0  0  0
   38.6200   31.5960   43.8290 N   0  0  0  0  0  0  0  0  0  0  0  0
   39.4750   32.5420   43.4950 N   0  0  0  0  0  0  0  0  0  0  0  0
   39.9350   33.1740   44.5950 C   0  0  0  0  0  0  0  0  0  0  0  0
   39.3390   32.5980   45.7030 C   0  0  0  0  0  0  0  0  0  0  0  0
   39.5110   32.9220   47.0190 C   0  0  0  0  0  0  0  0  0  0  0  0
   38.8320   32.3340   48.9950 H   0  0  0  0  0  0  0  0  0  0  0  0
   37.1450   30.0950   45.7690 H   0  0  0  0  0  0  0  0  0  0  0  0
   38.0650   30.9070   43.2680 H   0  0  0  0  0  0  0  0  0  0  0  0
   40.6490   33.9880   44.5800 H   0  0  0  0  0  0  0  0  0  0  0  0
   40.1550   33.6910   47.3680 H   0  0  0  0  0  0  0  0  0  0  0  0
   34.0890   29.1030   49.7330 C   0  0  0  0  0  0  0  0  0  0  0  0
   33.5370   29.6370   50.7200 O   0  0  0  0  0  0  0  0  0  0  0  0
   31.3830   27.0640   48.3660 C   0  0  0  0  0  0  0  0  0  0  0  0
   32.0150   26.3250   47.3610 C   0  0  0  0  0  0  0  0  0  0  0  0
   33.3540   26.5270   47.1550 C   0  0  0  0  0  0  0  0  0  0  0  0
   34.0210   27.4130   47.9110 N   0  0  0  0  0  0  0  0  0  0  0  0
   33.3930   28.1320   48.8940 C   0  0  0  0  0  0  0  0  0  0  0  0
   32.0660   27.9470   49.1130 N   0  0  0  0  0  0  0  0  0  0  0  0
   30.3330   26.9840   48.6130 H   0  0  0  0  0  0  0  0  0  0  0  0
   31.4350   25.6390   46.7960 H   0  0  0  0  0  0  0  0  0  0  0  0
   34.0590   25.8100   46.1500 N   0  0  0  0  0  0  0  0  0  0  0  0
   34.4060   26.3790   44.8690 C   0  0  0  0  0  3  0  0  0  0  0  0
   33.7530   27.1720   44.5140 H   0  0  0  0  0  0  0  0  0  0  0  0
   34.4210   25.2370   43.8510 C   0  0  0  0  0  3  0  0  0  0  0  0
   34.5610   25.6340   42.8190 H   0  0  0  0  0  0  0  0  0  0  0  0
   35.3530   24.2690   44.1670 O   0  0  0  0  0  0  0  0  0  0  0  0
   35.6900   24.1900   45.4940 C   0  0  0  0  0  2  0  0  0  0  0  0
   34.4770   24.4380   46.3630 C   0  0  0  0  0  2  0  0  0  0  0  0
  1 22  1  0  0  0  0
  1  2  2  0  0  0  0
  2  6  1  0  0  0  0
  3  7  1  0  0  0  0
  3  2  1  0  0  0  0
  4  5  1  0  0  0  0
  4  3  2  0  0  0  0
  5  1  1  0  0  0  0
  8 17  1  0  0  0  0
  9  8  1  0  0  0  0
  9  4  1  0  0  0  0
 10  9  2  0  0  0  0
 11 15  2  0  0  0  0
 11 10  1  0  0  0  0
 12 11  1  0  0  0  0
 13 12  1  0  0  0  0
 13 14  2  0  0  0  0
 14 15  1  0  0  0  0
 15 16  1  0  0  0  0
 16 21  1  0  0  0  0
 16  8  2  0  0  0  0
 18 10  1  0  0  0  0
 19 12  1  0  0  0  0
 20 14  1  0  0  0  0
 22 23  2  0  0  0  0
 24 30  1  0  0  0  0
 24 29  1  0  0  0  0
 25 24  2  0  0  0  0
 26 25  1  0  0  0  0
 26 27  2  0  0  0  0
 27 28  1  0  0  0  0
 28 29  2  0  0  0  0
 28 22  1  0  0  0  0
 31 25  1  0  0  0  0
 32 39  1  0  0  0  0
 32 26  1  0  0  0  0
 33 32  1  0  0  0  0
 34 33  1  0  0  0  0
 35 37  1  0  0  0  0
 35 33  1  0  0  0  0
 36 35  1  0  0  0  0
 37 38  1  0  0  0  0
 38 39  1  0  0  0  0
M  END
>  <minimizedAffinity>
-6.1393466

>  <minimizedRMSD>
0.970638573

$$$$
