REMARK  Name = 
REMARK  4 active torsions:
REMARK  status: ('A' for Active; 'I' for Inactive)
REMARK    1  A    between atoms: C_1  and  C_15
REMARK    2  A    between atoms: C_4  and  C_7
REMARK    3  A    between atoms: C_15  and  C_21
REMARK    4  A    between atoms: C_19  and  N_32
REMARK                            x       y       z     vdW  Elec       q    Type
REMARK                         _______ _______ _______ _____ _____    ______ ____
ROOT
ATOM      1  C   UNL     1      35.547  29.700  49.810  0.00  0.00    +0.000 A 
ATOM      2  C   UNL     1      36.543  29.526  50.757  0.00  0.00    +0.000 A 
ATOM      3  C   UNL     1      37.671  30.064  50.144  0.00  0.00    +0.000 A 
ATOM      4  C   UNL     1      37.332  30.521  48.905  0.00  0.00    +0.000 A 
ATOM      5  O   UNL     1      36.048  30.283  48.743  0.00  0.00    +0.000 OA
ATOM      6  H   UNL     1      36.463  29.078  51.745  0.00  0.00    +0.000 HD
ATOM      7  H   UNL     1      38.642  30.100  50.594  0.00  0.00    +0.000 HD
ENDROOT
BRANCH   4   9
ATOM      8  C   UNL     1      38.623  32.457  48.133  0.00  0.00    +0.000 A 
ATOM      9  C   UNL     1      38.204  31.157  47.920  0.00  0.00    +0.000 A 
ATOM     10  C   UNL     1      38.592  30.450  46.798  0.00  0.00    +0.000 A 
ATOM     11  C   UNL     1      39.421  31.043  45.852  0.00  0.00    +0.000 A 
ATOM     12  N   UNL     1      39.958  30.618  44.680  0.00  0.00    +0.000 N 
ATOM     13  N   UNL     1      40.670  31.624  44.211  0.00  0.00    +0.000 NA
ATOM     14  C   UNL     1      40.605  32.681  45.048  0.00  0.00    +0.000 A 
ATOM     15  C   UNL     1      39.802  32.332  46.120  0.00  0.00    +0.000 A 
ATOM     16  C   UNL     1      39.461  33.093  47.202  0.00  0.00    +0.000 A 
ATOM     17  H   UNL     1      38.297  32.983  49.031  0.00  0.00    +0.000 HD
ATOM     18  H   UNL     1      38.253  29.434  46.650  0.00  0.00    +0.000 HD
ATOM     19  H   UNL     1      39.769  29.652  44.323  0.00  0.00    +0.000 HD
ATOM     20  H   UNL     1      41.107  33.626  44.881  0.00  0.00    +0.000 HD
ATOM     21  H   UNL     1      39.787  34.091  47.360  0.00  0.00    +0.000 HD
ENDBRANCH   4   9
BRANCH   1  22
ATOM     22  C   UNL     1      34.164  29.291  49.988  0.00  0.00    +0.000 C 
ATOM     23  O   UNL     1      33.487  29.835  50.888  0.00  0.00    +0.000 OA
BRANCH  22  28
ATOM     24  C   UNL     1      31.692  27.156  48.351  0.00  0.00    +0.000 A 
ATOM     25  C   UNL     1      32.469  26.350  47.513  0.00  0.00    +0.000 A 
ATOM     26  C   UNL     1      33.826  26.539  47.511  0.00  0.00    +0.000 A 
ATOM     27  N   UNL     1      34.372  27.477  48.300  0.00  0.00    +0.000 NA
ATOM     28  C   UNL     1      33.601  28.262  49.118  0.00  0.00    +0.000 A 
ATOM     29  N   UNL     1      32.255  28.090  49.134  0.00  0.00    +0.000 NA
ATOM     30  H   UNL     1      30.615  27.092  48.432  0.00  0.00    +0.000 HD
ATOM     31  H   UNL     1      31.980  25.625  46.912  0.00  0.00    +0.000 HD
BRANCH  26  32
ATOM     32  N   UNL     1      34.675  25.755  46.684  0.00  0.00    +0.000 N 
ATOM     33  C   UNL     1      35.508  24.689  47.189  0.00  0.00    +0.000 C 
ATOM     34  H   UNL     1      35.816  24.784  48.227  0.00  0.00    +0.000 HD
ATOM     35  C   UNL     1      36.746  24.613  46.294  0.00  0.00    +0.000 C 
ATOM     36  H   UNL     1      37.486  23.889  46.710  0.00  0.00    +0.000 HD
ATOM     37  O   UNL     1      36.424  24.332  44.981  0.00  0.00    +0.000 OA
ATOM     38  C   UNL     1      35.156  24.688  44.599  0.00  0.00    +0.000 C 
ATOM     39  C   UNL     1      34.752  25.990  45.255  0.00  0.00    +0.000 C 
ENDBRANCH  26  32
ENDBRANCH  22  28
ENDBRANCH   1  22
TORSDOF 4
