
     RDKit          3D

 45 49  0  0  0  0  0  0  0  0999 V2000
   35.5473   29.6996   49.8098 C   0  0  0  0  0  0  0  0  0  0  0  0
   36.5428   29.5263   50.7574 C   0  0  0  0  0  0  0  0  0  0  0  0
   37.6708   30.0635   50.1435 C   0  0  0  0  0  0  0  0  0  0  0  0
   37.3324   30.5206   48.9053 C   0  0  0  0  0  0  0  0  0  0  0  0
   36.0477   30.2832   48.7430 O   0  0  0  0  0  0  0  0  0  0  0  0
   38.6232   32.4574   48.1332 C   0  0  0  0  0  0  0  0  0  0  0  0
   38.2039   31.1575   47.9205 C   0  0  0  0  0  0  0  0  0  0  0  0
   38.5917   30.4501   46.7978 C   0  0  0  0  0  0  0  0  0  0  0  0
   39.4210   31.0429   45.8517 C   0  0  0  0  0  0  0  0  0  0  0  0
   39.9581   30.6184   44.6804 N   0  0  0  0  0  0  0  0  0  0  0  0
   40.6702   31.6241   44.2111 N   0  0  0  0  0  0  0  0  0  0  0  0
   40.6049   32.6807   45.0479 C   0  0  0  0  0  0  0  0  0  0  0  0
   39.8018   32.3317   46.1196 C   0  0  0  0  0  0  0  0  0  0  0  0
   39.4613   33.0928   47.2021 C   0  0  0  0  0  0  0  0  0  0  0  0
   34.1636   29.2906   49.9878 C   0  0  0  0  0  0  0  0  0  0  0  0
   33.4872   29.8348   50.8875 O   0  0  0  0  0  0  0  0  0  0  0  0
   31.6915   27.1558   48.3512 C   0  0  0  0  0  0  0  0  0  0  0  0
   32.4690   26.3500   47.5128 C   0  0  0  0  0  0  0  0  0  0  0  0
   33.8259   26.5391   47.5110 C   0  0  0  0  0  0  0  0  0  0  0  0
   34.3722   27.4771   48.2998 N   0  0  0  0  0  0  0  0  0  0  0  0
   33.6010   28.2616   49.1179 C   0  0  0  0  0  0  0  0  0  0  0  0
   32.2554   28.0903   49.1344 N   0  0  0  0  0  0  0  0  0  0  0  0
   36.4633   29.0777   51.7455 H   0  0  0  0  0  0  0  0  0  0  0  0
   38.6424   30.1003   50.5944 H   0  0  0  0  0  0  0  0  0  0  0  0
   38.2966   32.9835   49.0306 H   0  0  0  0  0  0  0  0  0  0  0  0
   38.2531   29.4344   46.6497 H   0  0  0  0  0  0  0  0  0  0  0  0
   39.7686   29.6520   44.3226 H   0  0  0  0  0  0  0  0  0  0  0  0
   41.1066   33.6264   44.8810 H   0  0  0  0  0  0  0  0  0  0  0  0
   39.7867   34.0913   47.3600 H   0  0  0  0  0  0  0  0  0  0  0  0
   30.6150   27.0921   48.4316 H   0  0  0  0  0  0  0  0  0  0  0  0
   31.9797   25.6254   46.9122 H   0  0  0  0  0  0  0  0  0  0  0  0
   34.6748   25.7554   46.6838 N   0  0  0  0  0  0  0  0  0  0  0  0
   34.1891   24.9524   45.5860 C   0  0  1  0  0  0  0  0  0  0  0  0
   33.1631   24.6036   45.6763 H   0  0  0  0  0  0  0  0  0  0  0  0
   35.1265   23.7514   45.4483 C   0  0  2  0  0  0  0  0  0  0  0  0
   34.7294   23.0298   44.6960 H   0  0  0  0  0  0  0  0  0  0  0  0
   36.4237   24.1322   45.1707 O   0  0  0  0  0  0  0  0  0  0  0  0
   36.7651   25.3967   45.5790 C   0  0  0  0  0  0  0  0  0  0  0  0
   36.1080   25.7193   46.9026 C   0  0  0  0  0  0  0  0  0  0  0  0
   34.3721   25.5634   44.6669 H   0  0  0  0  0  0  0  0  0  0  0  0
   35.1139   23.2525   46.4446 H   0  0  0  0  0  0  0  0  0  0  0  0
   36.4927   26.1668   44.8343 H   0  0  0  0  0  0  0  0  0  0  0  0
   37.8566   25.4300   45.7612 H   0  0  0  0  0  0  0  0  0  0  0  0
   36.3991   26.7873   47.1165 H   0  0  0  0  0  0  0  0  0  0  0  0
   36.4331   25.0561   47.7019 H   0  0  0  0  0  0  0  0  0  0  0  0
  1 15  1  0
  1  2  2  0
  3  2  1  0
  4  3  2  0
  5  4  1  0
  5  1  1  0
  7  6  2  0
  7  4  1  0
  8  7  1  0
  9 13  1  0
  9  8  2  0
 10  9  1  0
 11 10  1  0
 11 12  2  0
 12 13  1  0
 13 14  2  0
 14  6  1  0
 15 16  2  0
 17 22  2  0
 18 17  1  0
 19 18  2  0
 19 20  1  0
 20 21  2  0
 21 22  1  0
 21 15  1  0
  2 23  1  0
  3 24  1  0
  6 25  1  0
  8 26  1  0
 10 27  1  0
 12 28  1  0
 14 29  1  0
 17 30  1  0
 18 31  1  0
 32 33  1  0
 33 34  1  1
 33 35  1  0
 35 36  1  6
 35 37  1  0
 37 38  1  0
 38 39  1  0
 39 32  1  0
 33 40  1  0
 35 41  1  0
 38 42  1  0
 38 43  1  0
 39 44  1  0
 39 45  1  0
 19 32  1  0
M  ISO  8  23  14  24  14  25  14  26  14  27   9  28  14  29  14  30  14
M  ISO  3  31  14  34   8  36  15
M  END
>  <DihAtoms>  (1) 
17,18,31,32

>  <DihDeg>  (1) 
-0.02859460050516145

$$$$
