
 OpenBabel03272503143D

 45 49  0  0  1  0  0  0  0  0999 V2000
   37.9360   26.3550   35.0880 C   0  0  0  0  0  0  0  0  0  0  0  0
   38.6950   26.8060   36.0180 O   0  0  0  0  0  0  0  0  0  0  0  0
   37.7000   24.9640   35.1260 N   0  0  0  0  0  0  0  0  0  0  0  0
   37.0880   24.5600   34.4020 H   0  0  0  0  0  0  0  0  0  0  0  0
   36.5100   28.2190   34.5850 C   0  0  0  0  0  0  0  0  0  0  0  0
   37.3980   27.2760   34.1050 C   0  0  0  0  0  0  0  0  0  0  0  0
   37.7620   27.1930   32.7990 C   0  0  0  0  0  0  0  0  0  0  0  0
   37.2260   28.0920   31.8890 C   0  0  0  0  0  0  0  0  0  0  0  0
   37.3890   28.2560   30.5680 N   0  0  0  0  0  0  0  0  0  0  0  0
   36.6370   29.2730   30.1900 C   0  0  0  0  0  0  0  0  0  0  0  0
   35.9890   29.7630   31.2620 N   0  0  0  0  0  0  0  0  0  0  0  0
   36.3350   29.0410   32.3620 C   0  0  0  0  0  0  0  0  0  0  0  0
   35.9530   29.1410   33.6900 C   0  0  0  0  0  0  0  0  0  0  0  0
   36.2580   28.2400   35.6310 H   0  0  0  0  0  0  0  0  0  0  0  0
   38.4640   26.4230   32.5060 H   0  0  0  0  0  0  0  0  0  0  0  0
   38.0240   27.6440   29.9990 H   0  0  0  0  0  0  0  0  0  0  0  0
   36.6060   29.5940   29.1580 H   0  0  0  0  0  0  0  0  0  0  0  0
   35.0700   30.0890   34.1340 O   0  0  0  0  0  0  0  0  0  0  0  0
   33.6000   32.7260   33.6060 H   0  0  0  0  0  0  0  0  0  0  0  0
   33.8320   32.0070   34.3050 N   0  0  0  0  0  0  0  0  0  0  0  0
   35.1400   31.4620   34.0530 C   0  0  1  0  0  3  0  0  0  0  0  0
   36.0600   31.9600   35.1540 C   0  0  0  0  0  3  0  0  0  0  0  0
   36.1400   33.0510   35.2030 H   0  0  0  0  0  0  0  0  0  0  0  0
   35.6140   31.3650   36.3290 O   0  0  0  0  0  0  0  0  0  0  0  0
   34.3640   31.8150   36.7130 C   0  0  0  0  0  2  0  0  0  0  0  0
   33.5480   32.4060   35.6300 C   0  0  0  0  0  2  0  0  0  0  0  0
   40.1590   23.8790   34.7540 F   0  0  0  0  0  0  0  0  0  0  0  0
   39.6130   23.7440   35.9990 C   0  0  0  0  0  0  0  0  0  0  0  0
   40.3030   23.0890   36.9790 C   0  0  0  0  0  0  0  0  0  0  0  0
   39.6920   22.9950   38.2000 C   0  0  0  0  0  0  0  0  0  0  0  0
   38.4520   23.5170   38.4610 C   0  0  0  0  0  0  0  0  0  0  0  0
   37.7700   24.1800   37.4480 C   0  0  0  0  0  0  0  0  0  0  0  0
   38.3680   24.2880   36.2040 C   0  0  0  0  0  0  0  0  0  0  0  0
   40.2280   22.4760   38.9960 H   0  0  0  0  0  0  0  0  0  0  0  0
   38.0490   23.3940   39.4570 H   0  0  0  0  0  0  0  0  0  0  0  0
   36.7930   24.5970   37.6380 H   0  0  0  0  0  0  0  0  0  0  0  0
   43.9850   22.7960   36.1270 C   0  0  0  0  0  0  0  0  0  0  0  0
   42.7210   23.3660   36.4450 C   0  0  0  0  0  0  0  0  0  0  0  0
   41.6210   22.5490   36.6520 C   0  0  0  0  0  0  0  0  0  0  0  0
   41.8120   21.2000   36.5370 N   0  0  0  0  0  0  0  0  0  0  0  0
   43.0100   20.6660   36.2360 C   0  0  0  0  0  0  0  0  0  0  0  0
   44.0700   21.4480   36.0360 N   0  0  0  0  0  0  0  0  0  0  0  0
   44.7590   23.5360   35.9900 H   0  0  0  0  0  0  0  0  0  0  0  0
   42.5830   24.4290   36.5320 H   0  0  0  0  0  0  0  0  0  0  0  0
   43.1540   19.5990   36.1470 H   0  0  0  0  0  0  0  0  0  0  0  0
  1  3  1  0  0  0  0
  1  2  2  0  0  0  0
  3 33  1  0  0  0  0
  4  3  1  0  0  0  0
  5 14  1  0  0  0  0
  6  5  1  0  0  0  0
  6  1  1  0  0  0  0
  7  6  2  0  0  0  0
  8 12  2  0  0  0  0
  8  7  1  0  0  0  0
  9  8  1  0  0  0  0
 10  9  1  0  0  0  0
 10 11  2  0  0  0  0
 11 12  1  0  0  0  0
 12 13  1  0  0  0  0
 13 18  1  0  0  0  0
 13  5  2  0  0  0  0
 15  7  1  0  0  0  0
 16  9  1  0  0  0  0
 17 10  1  0  0  0  0
 19 20  1  0  0  0  0
 20 26  1  0  0  0  0
 21 18  1  1  0  0  0
 21 20  1  0  0  0  0
 21 22  1  0  0  0  0
 22 23  1  0  0  0  0
 22 24  1  0  0  0  0
 24 25  1  0  0  0  0
 26 25  1  0  0  0  0
 27 28  1  0  0  0  0
 28 33  2  0  0  0  0
 28 29  1  0  0  0  0
 29 30  2  0  0  0  0
 30 31  1  0  0  0  0
 30 34  1  0  0  0  0
 31 35  1  0  0  0  0
 32 36  1  0  0  0  0
 32 31  2  0  0  0  0
 33 32  1  0  0  0  0
 37 38  1  0  0  0  0
 38 44  1  0  0  0  0
 38 39  2  0  0  0  0
 39 29  1  0  0  0  0
 40 39  1  0  0  0  0
 41 40  2  0  0  0  0
 42 37  2  0  0  0  0
 42 41  1  0  0  0  0
 43 37  1  0  0  0  0
 45 41  1  0  0  0  0
M  END
>  <minimizedAffinity>
-6.92828274

$$$$

 OpenBabel03272503143D

 45 49  0  0  1  0  0  0  0  0999 V2000
   36.8590   26.8710   32.5270 C   0  0  0  0  0  0  0  0  0  0  0  0
   37.8040   27.6170   32.9690 O   0  0  0  0  0  0  0  0  0  0  0  0
   35.7470   27.5590   31.9950 N   0  0  0  0  0  0  0  0  0  0  0  0
   34.9680   26.9980   31.6210 H   0  0  0  0  0  0  0  0  0  0  0  0
   37.8040   24.9580   33.6270 C   0  0  0  0  0  0  0  0  0  0  0  0
   37.0000   25.4300   32.6080 C   0  0  0  0  0  0  0  0  0  0  0  0
   36.3690   24.6160   31.7210 C   0  0  0  0  0  0  0  0  0  0  0  0
   36.5290   23.2430   31.8300 C   0  0  0  0  0  0  0  0  0  0  0  0
   36.0460   22.2120   31.1220 N   0  0  0  0  0  0  0  0  0  0  0  0
   36.5150   21.0990   31.6570 C   0  0  0  0  0  0  0  0  0  0  0  0
   37.2970   21.4100   32.7050 N   0  0  0  0  0  0  0  0  0  0  0  0
   37.3340   22.7630   32.8500 C   0  0  0  0  0  0  0  0  0  0  0  0
   37.9840   23.5760   33.7630 C   0  0  0  0  0  0  0  0  0  0  0  0
   38.2790   25.6490   34.3030 H   0  0  0  0  0  0  0  0  0  0  0  0
   35.7570   25.0680   30.9510 H   0  0  0  0  0  0  0  0  0  0  0  0
   35.4100   22.3430   30.2980 H   0  0  0  0  0  0  0  0  0  0  0  0
   36.2570   20.1310   31.2500 H   0  0  0  0  0  0  0  0  0  0  0  0
   38.7740   23.0770   34.7640 O   0  0  0  0  0  0  0  0  0  0  0  0
   39.8630   21.0500   36.7890 H   0  0  0  0  0  0  0  0  0  0  0  0
   39.5980   22.0310   36.6270 N   0  0  0  0  0  0  0  0  0  0  0  0
   38.4950   22.1100   35.7040 C   0  0  1  0  0  3  0  0  0  0  0  0
   37.2740   22.5470   36.4930 C   0  0  0  0  0  3  0  0  0  0  0  0
   37.0020   21.8620   37.3040 H   0  0  0  0  0  0  0  0  0  0  0  0
   37.5250   23.8510   36.9050 O   0  0  0  0  0  0  0  0  0  0  0  0
   38.5560   23.9300   37.8220 C   0  0  0  0  0  2  0  0  0  0  0  0
   39.4930   22.7850   37.8170 C   0  0  0  0  0  2  0  0  0  0  0  0
   34.8220   28.9320   34.1450 F   0  0  0  0  0  0  0  0  0  0  0  0
   35.3920   29.6700   33.1470 C   0  0  0  0  0  0  0  0  0  0  0  0
   35.4730   31.0290   33.2640 C   0  0  0  0  0  0  0  0  0  0  0  0
   36.0570   31.7000   32.2240 C   0  0  0  0  0  0  0  0  0  0  0  0
   36.5460   31.0740   31.1070 C   0  0  0  0  0  0  0  0  0  0  0  0
   36.4540   29.6910   31.0110 C   0  0  0  0  0  0  0  0  0  0  0  0
   35.8660   28.9910   32.0510 C   0  0  0  0  0  0  0  0  0  0  0  0
   36.1310   32.7850   32.3000 H   0  0  0  0  0  0  0  0  0  0  0  0
   36.9920   31.6870   30.3360 H   0  0  0  0  0  0  0  0  0  0  0  0
   36.8340   29.1840   30.1380 H   0  0  0  0  0  0  0  0  0  0  0  0
   35.0800   32.2840   36.8190 C   0  0  0  0  0  0  0  0  0  0  0  0
   35.6420   31.6690   35.6670 C   0  0  0  0  0  0  0  0  0  0  0  0
   34.9370   31.6490   34.4740 C   0  0  0  0  0  0  0  0  0  0  0  0
   33.7020   32.2390   34.4660 N   0  0  0  0  0  0  0  0  0  0  0  0
   33.1760   32.8190   35.5590 C   0  0  0  0  0  0  0  0  0  0  0  0
   33.8500   32.8400   36.7080 N   0  0  0  0  0  0  0  0  0  0  0  0
   35.7260   32.2320   37.6820 H   0  0  0  0  0  0  0  0  0  0  0  0
   36.6130   31.2070   35.6850 H   0  0  0  0  0  0  0  0  0  0  0  0
   32.2000   33.2840   35.5460 H   0  0  0  0  0  0  0  0  0  0  0  0
  1  6  1  0  0  0  0
  1  2  2  0  0  0  0
  3 33  1  0  0  0  0
  3  1  1  0  0  0  0
  4  3  1  0  0  0  0
  5 13  1  0  0  0  0
  5 14  1  0  0  0  0
  6  5  2  0  0  0  0
  7  8  2  0  0  0  0
  7  6  1  0  0  0  0
  8 12  1  0  0  0  0
  9 10  1  0  0  0  0
  9  8  1  0  0  0  0
 10 11  2  0  0  0  0
 11 12  1  0  0  0  0
 12 13  2  0  0  0  0
 13 18  1  0  0  0  0
 15  7  1  0  0  0  0
 16  9  1  0  0  0  0
 17 10  1  0  0  0  0
 20 19  1  0  0  0  0
 20 26  1  0  0  0  0
 21 18  1  6  0  0  0
 21 22  1  0  0  0  0
 21 20  1  0  0  0  0
 22 24  1  0  0  0  0
 22 23  1  0  0  0  0
 24 25  1  0  0  0  0
 26 25  1  0  0  0  0
 28 29  1  0  0  0  0
 28 27  1  0  0  0  0
 29 39  1  0  0  0  0
 30 34  1  0  0  0  0
 30 29  2  0  0  0  0
 31 30  1  0  0  0  0
 32 31  2  0  0  0  0
 32 33  1  0  0  0  0
 33 28  2  0  0  0  0
 35 31  1  0  0  0  0
 36 32  1  0  0  0  0
 37 43  1  0  0  0  0
 38 44  1  0  0  0  0
 38 37  2  0  0  0  0
 39 38  1  0  0  0  0
 40 39  2  0  0  0  0
 40 41  1  0  0  0  0
 41 42  2  0  0  0  0
 42 37  1  0  0  0  0
 45 41  1  0  0  0  0
M  END
>  <minimizedAffinity>
-6.80579519

$$$$

 OpenBabel03272503143D

 45 49  0  0  1  0  0  0  0  0999 V2000
   36.6910   25.7070   32.2590 C   0  0  0  0  0  0  0  0  0  0  0  0
   35.5620   26.0140   31.7330 O   0  0  0  0  0  0  0  0  0  0  0  0
   37.4570   26.7980   32.7220 N   0  0  0  0  0  0  0  0  0  0  0  0
   38.3680   26.5960   33.1590 H   0  0  0  0  0  0  0  0  0  0  0  0
   37.9080   23.9710   33.3850 C   0  0  0  0  0  0  0  0  0  0  0  0
   37.0790   24.3110   32.3340 C   0  0  0  0  0  0  0  0  0  0  0  0
   36.6410   23.4150   31.4120 C   0  0  0  0  0  0  0  0  0  0  0  0
   37.0330   22.0890   31.5170 C   0  0  0  0  0  0  0  0  0  0  0  0
   36.7710   21.0010   30.7790 N   0  0  0  0  0  0  0  0  0  0  0  0
   37.4030   19.9780   31.3250 C   0  0  0  0  0  0  0  0  0  0  0  0
   38.0720   20.4040   32.4110 N   0  0  0  0  0  0  0  0  0  0  0  0
   37.8640   21.7400   32.5690 C   0  0  0  0  0  0  0  0  0  0  0  0
   38.3210   22.6390   33.5180 C   0  0  0  0  0  0  0  0  0  0  0  0
   38.2240   24.7220   34.0880 H   0  0  0  0  0  0  0  0  0  0  0  0
   35.9940   23.7650   30.6180 H   0  0  0  0  0  0  0  0  0  0  0  0
   36.1580   21.0330   29.9270 H   0  0  0  0  0  0  0  0  0  0  0  0
   37.3370   18.9870   30.8990 H   0  0  0  0  0  0  0  0  0  0  0  0
   39.1410   22.2700   34.5500 O   0  0  0  0  0  0  0  0  0  0  0  0
   39.1280   22.1340   37.6120 H   0  0  0  0  0  0  0  0  0  0  0  0
   39.6530   21.9190   36.7530 N   0  0  0  0  0  0  0  0  0  0  0  0
   39.3970   22.9100   35.7420 C   0  0  1  0  0  3  0  0  0  0  0  0
   40.6630   23.7330   35.5810 C   0  0  0  0  0  3  0  0  0  0  0  0
   40.9780   24.2430   36.4990 H   0  0  0  0  0  0  0  0  0  0  0  0
   41.6170   22.8750   35.0470 O   0  0  0  0  0  0  0  0  0  0  0  0
   41.9840   21.8720   35.9250 C   0  0  0  0  0  2  0  0  0  0  0  0
   41.0050   21.5840   36.9960 C   0  0  0  0  0  2  0  0  0  0  0  0
   36.2330   28.0880   34.7710 F   0  0  0  0  0  0  0  0  0  0  0  0
   36.2200   28.7170   33.5590 C   0  0  0  0  0  0  0  0  0  0  0  0
   35.6110   29.9320   33.4270 C   0  0  0  0  0  0  0  0  0  0  0  0
   35.6400   30.5010   32.1820 C   0  0  0  0  0  0  0  0  0  0  0  0
   36.2390   29.9080   31.1010 C   0  0  0  0  0  0  0  0  0  0  0  0
   36.8530   28.6710   31.2600 C   0  0  0  0  0  0  0  0  0  0  0  0
   36.8360   28.0780   32.5100 C   0  0  0  0  0  0  0  0  0  0  0  0
   35.1600   31.4710   32.0570 H   0  0  0  0  0  0  0  0  0  0  0  0
   36.2130   30.4320   30.1560 H   0  0  0  0  0  0  0  0  0  0  0  0
   37.3290   28.1930   30.4180 H   0  0  0  0  0  0  0  0  0  0  0  0
   35.0400   31.8820   36.6270 C   0  0  0  0  0  0  0  0  0  0  0  0
   35.6900   31.3300   35.4890 C   0  0  0  0  0  0  0  0  0  0  0  0
   34.9870   30.5230   34.6090 C   0  0  0  0  0  0  0  0  0  0  0  0
   33.6670   30.2920   34.8880 N   0  0  0  0  0  0  0  0  0  0  0  0
   33.0590   30.8170   35.9660 C   0  0  0  0  0  0  0  0  0  0  0  0
   33.7310   31.5930   36.8150 N   0  0  0  0  0  0  0  0  0  0  0  0
   35.6940   32.4900   37.2320 H   0  0  0  0  0  0  0  0  0  0  0  0
   36.7280   31.5180   35.2800 H   0  0  0  0  0  0  0  0  0  0  0  0
   32.0160   30.6310   36.1810 H   0  0  0  0  0  0  0  0  0  0  0  0
  1  6  1  0  0  0  0
  1  3  1  0  0  0  0
  2  1  2  0  0  0  0
  3  4  1  0  0  0  0
  5 13  1  0  0  0  0
  5 14  1  0  0  0  0
  6  5  2  0  0  0  0
  7  8  2  0  0  0  0
  7  6  1  0  0  0  0
  8 12  1  0  0  0  0
  9 10  1  0  0  0  0
  9  8  1  0  0  0  0
 10 11  2  0  0  0  0
 11 12  1  0  0  0  0
 12 13  2  0  0  0  0
 13 18  1  0  0  0  0
 15  7  1  0  0  0  0
 16  9  1  0  0  0  0
 17 10  1  0  0  0  0
 20 26  1  0  0  0  0
 20 19  1  0  0  0  0
 21 18  1  6  0  0  0
 21 20  1  0  0  0  0
 22 21  1  0  0  0  0
 22 23  1  0  0  0  0
 24 22  1  0  0  0  0
 24 25  1  0  0  0  0
 25 26  1  0  0  0  0
 28 27  1  0  0  0  0
 29 28  1  0  0  0  0
 29 39  1  0  0  0  0
 30 29  2  0  0  0  0
 31 32  2  0  0  0  0
 31 30  1  0  0  0  0
 32 33  1  0  0  0  0
 33  3  1  0  0  0  0
 33 28  2  0  0  0  0
 34 30  1  0  0  0  0
 35 31  1  0  0  0  0
 36 32  1  0  0  0  0
 37 42  1  0  0  0  0
 37 43  1  0  0  0  0
 38 37  2  0  0  0  0
 39 40  2  0  0  0  0
 39 38  1  0  0  0  0
 40 41  1  0  0  0  0
 41 45  1  0  0  0  0
 41 42  2  0  0  0  0
 44 38  1  0  0  0  0
M  END
>  <minimizedAffinity>
-6.56782675

$$$$

 OpenBabel03272503143D

 45 49  0  0  1  0  0  0  0  0999 V2000
   38.0260   26.2560   34.8550 C   0  0  0  0  0  0  0  0  0  0  0  0
   38.7880   26.7460   35.7640 O   0  0  0  0  0  0  0  0  0  0  0  0
   37.7630   24.8740   34.9690 N   0  0  0  0  0  0  0  0  0  0  0  0
   37.1490   24.4410   34.2640 H   0  0  0  0  0  0  0  0  0  0  0  0
   38.0410   26.9430   32.5540 C   0  0  0  0  0  0  0  0  0  0  0  0
   37.5120   27.1300   33.8170 C   0  0  0  0  0  0  0  0  0  0  0  0
   36.5700   28.0680   34.0980 C   0  0  0  0  0  0  0  0  0  0  0  0
   36.1030   28.8850   33.0790 C   0  0  0  0  0  0  0  0  0  0  0  0
   35.1990   29.8740   33.0480 N   0  0  0  0  0  0  0  0  0  0  0  0
   35.1330   30.3240   31.8080 C   0  0  0  0  0  0  0  0  0  0  0  0
   35.9910   29.6270   31.0410 N   0  0  0  0  0  0  0  0  0  0  0  0
   36.6280   28.7030   31.8100 C   0  0  0  0  0  0  0  0  0  0  0  0
   37.5890   27.7530   31.5060 C   0  0  0  0  0  0  0  0  0  0  0  0
   38.7860   26.1840   32.3890 H   0  0  0  0  0  0  0  0  0  0  0  0
   36.2090   28.1490   35.1150 H   0  0  0  0  0  0  0  0  0  0  0  0
   34.6730   30.1830   33.9020 H   0  0  0  0  0  0  0  0  0  0  0  0
   34.4640   31.1300   31.5400 H   0  0  0  0  0  0  0  0  0  0  0  0
   38.0920   27.5920   30.2420 O   0  0  0  0  0  0  0  0  0  0  0  0
   39.8300   25.8190   28.4450 H   0  0  0  0  0  0  0  0  0  0  0  0
   39.2870   26.6910   28.5100 N   0  0  0  0  0  0  0  0  0  0  0  0
   39.3600   27.2340   29.8410 C   0  0  1  0  0  3  0  0  0  0  0  0
   40.2130   28.4880   29.7730 C   0  0  0  0  0  3  0  0  0  0  0  0
   41.2320   28.3110   29.4110 H   0  0  0  0  0  0  0  0  0  0  0  0
   39.4910   29.4070   29.0210 O   0  0  0  0  0  0  0  0  0  0  0  0
   39.3580   29.0270   27.6990 C   0  0  0  0  0  2  0  0  0  0  0  0
   39.5310   27.5810   27.4390 C   0  0  0  0  0  2  0  0  0  0  0  0
   40.2080   23.7320   34.6810 F   0  0  0  0  0  0  0  0  0  0  0  0
   39.6490   23.6740   35.9260 C   0  0  0  0  0  0  0  0  0  0  0  0
   40.3200   23.0640   36.9470 C   0  0  0  0  0  0  0  0  0  0  0  0
   39.6970   23.0460   38.1660 C   0  0  0  0  0  0  0  0  0  0  0  0
   38.4640   23.6020   38.3850 C   0  0  0  0  0  0  0  0  0  0  0  0
   37.8010   24.2190   37.3310 C   0  0  0  0  0  0  0  0  0  0  0  0
   38.4120   24.2480   36.0890 C   0  0  0  0  0  0  0  0  0  0  0  0
   40.2170   22.5640   38.9940 H   0  0  0  0  0  0  0  0  0  0  0  0
   38.0500   23.5410   39.3830 H   0  0  0  0  0  0  0  0  0  0  0  0
   36.8290   24.6610   37.4890 H   0  0  0  0  0  0  0  0  0  0  0  0
   44.0120   22.6650   36.1870 C   0  0  0  0  0  0  0  0  0  0  0  0
   42.7560   23.2720   36.4630 C   0  0  0  0  0  0  0  0  0  0  0  0
   41.6320   22.4860   36.6620 C   0  0  0  0  0  0  0  0  0  0  0  0
   41.7930   21.1300   36.5820 N   0  0  0  0  0  0  0  0  0  0  0  0
   42.9840   20.5620   36.3210 C   0  0  0  0  0  0  0  0  0  0  0  0
   44.0670   21.3140   36.1280 N   0  0  0  0  0  0  0  0  0  0  0  0
   44.8070   23.3830   36.0510 H   0  0  0  0  0  0  0  0  0  0  0  0
   42.6410   24.3400   36.5230 H   0  0  0  0  0  0  0  0  0  0  0  0
   43.1050   19.4900   36.2590 H   0  0  0  0  0  0  0  0  0  0  0  0
  1  3  1  0  0  0  0
  1  2  2  0  0  0  0
  3 33  1  0  0  0  0
  4  3  1  0  0  0  0
  5  6  1  0  0  0  0
  6  7  2  0  0  0  0
  6  1  1  0  0  0  0
  7 15  1  0  0  0  0
  8  7  1  0  0  0  0
  9  8  1  0  0  0  0
  9 16  1  0  0  0  0
 10  9  1  0  0  0  0
 11 10  2  0  0  0  0
 11 12  1  0  0  0  0
 12  8  2  0  0  0  0
 13 12  1  0  0  0  0
 13  5  2  0  0  0  0
 14  5  1  0  0  0  0
 17 10  1  0  0  0  0
 18 13  1  0  0  0  0
 19 20  1  0  0  0  0
 20 21  1  0  0  0  0
 21 18  1  6  0  0  0
 22 21  1  0  0  0  0
 23 22  1  0  0  0  0
 24 22  1  0  0  0  0
 25 24  1  0  0  0  0
 26 25  1  0  0  0  0
 26 20  1  0  0  0  0
 27 28  1  0  0  0  0
 28 33  2  0  0  0  0
 28 29  1  0  0  0  0
 29 30  2  0  0  0  0
 30 31  1  0  0  0  0
 30 34  1  0  0  0  0
 31 35  1  0  0  0  0
 32 36  1  0  0  0  0
 32 31  2  0  0  0  0
 33 32  1  0  0  0  0
 37 38  1  0  0  0  0
 38 44  1  0  0  0  0
 38 39  2  0  0  0  0
 39 29  1  0  0  0  0
 40 39  1  0  0  0  0
 41 40  2  0  0  0  0
 42 37  2  0  0  0  0
 42 41  1  0  0  0  0
 43 37  1  0  0  0  0
 45 41  1  0  0  0  0
M  END
>  <minimizedAffinity>
-6.5498476

$$$$

 OpenBabel03272503143D

 45 49  0  0  1  0  0  0  0  0999 V2000
   36.5170   26.0230   31.5580 C   0  0  0  0  0  0  0  0  0  0  0  0
   35.5140   26.4030   30.8530 O   0  0  0  0  0  0  0  0  0  0  0  0
   37.4270   27.0430   31.9090 N   0  0  0  0  0  0  0  0  0  0  0  0
   38.2430   26.7840   32.4820 H   0  0  0  0  0  0  0  0  0  0  0  0
   37.5040   24.3430   32.9600 C   0  0  0  0  0  0  0  0  0  0  0  0
   36.6340   24.6250   31.9250 C   0  0  0  0  0  0  0  0  0  0  0  0
   35.9200   23.6700   31.2730 C   0  0  0  0  0  0  0  0  0  0  0  0
   36.0590   22.3440   31.6530 C   0  0  0  0  0  0  0  0  0  0  0  0
   35.5010   21.2070   31.2110 N   0  0  0  0  0  0  0  0  0  0  0  0
   35.9860   20.2110   31.9290 C   0  0  0  0  0  0  0  0  0  0  0  0
   36.8540   20.7020   32.8320 N   0  0  0  0  0  0  0  0  0  0  0  0
   36.9300   22.0540   32.6910 C   0  0  0  0  0  0  0  0  0  0  0  0
   37.6650   23.0130   33.3660 C   0  0  0  0  0  0  0  0  0  0  0  0
   38.0440   25.1400   33.4420 H   0  0  0  0  0  0  0  0  0  0  0  0
   35.2600   23.9760   30.4720 H   0  0  0  0  0  0  0  0  0  0  0  0
   34.8070   21.1900   30.4240 H   0  0  0  0  0  0  0  0  0  0  0  0
   35.6780   19.1900   31.7510 H   0  0  0  0  0  0  0  0  0  0  0  0
   38.5190   22.7010   34.3900 O   0  0  0  0  0  0  0  0  0  0  0  0
   38.4700   21.5080   37.2130 H   0  0  0  0  0  0  0  0  0  0  0  0
   39.0620   21.8680   36.4520 N   0  0  0  0  0  0  0  0  0  0  0  0
   38.3880   22.9240   35.7430 C   0  0  1  0  0  3  0  0  0  0  0  0
   39.0940   24.2240   36.0860 C   0  0  0  0  0  3  0  0  0  0  0  0
   39.0880   24.4610   37.1550 H   0  0  0  0  0  0  0  0  0  0  0  0
   40.3630   24.1330   35.5260 O   0  0  0  0  0  0  0  0  0  0  0  0
   41.1440   23.1650   36.1300 C   0  0  0  0  0  2  0  0  0  0  0  0
   40.3950   22.1130   36.8520 C   0  0  0  0  0  2  0  0  0  0  0  0
   36.0150   28.7820   33.4420 F   0  0  0  0  0  0  0  0  0  0  0  0
   36.3570   29.2090   32.1900 C   0  0  0  0  0  0  0  0  0  0  0  0
   35.9880   30.4550   31.7690 C   0  0  0  0  0  0  0  0  0  0  0  0
   36.3670   30.8120   30.5040 C   0  0  0  0  0  0  0  0  0  0  0  0
   37.0800   29.9860   29.6740 C   0  0  0  0  0  0  0  0  0  0  0  0
   37.4450   28.7240   30.1240 C   0  0  0  0  0  0  0  0  0  0  0  0
   37.0720   28.3410   31.4010 C   0  0  0  0  0  0  0  0  0  0  0  0
   36.0820   31.8030   30.1500 H   0  0  0  0  0  0  0  0  0  0  0  0
   37.3360   30.3550   28.6900 H   0  0  0  0  0  0  0  0  0  0  0  0
   38.0070   28.0630   29.4820 H   0  0  0  0  0  0  0  0  0  0  0  0
   33.1460   32.1520   33.6170 C   0  0  0  0  0  0  0  0  0  0  0  0
   33.8430   31.3160   32.7010 C   0  0  0  0  0  0  0  0  0  0  0  0
   35.2280   31.2970   32.6920 C   0  0  0  0  0  0  0  0  0  0  0  0
   35.8730   32.1060   33.5880 N   0  0  0  0  0  0  0  0  0  0  0  0
   35.2080   32.8940   34.4510 C   0  0  0  0  0  0  0  0  0  0  0  0
   33.8760   32.9160   34.4630 N   0  0  0  0  0  0  0  0  0  0  0  0
   32.0740   32.0770   33.5240 H   0  0  0  0  0  0  0  0  0  0  0  0
   33.3250   30.6850   32.0010 H   0  0  0  0  0  0  0  0  0  0  0  0
   35.7230   33.5310   35.1560 H   0  0  0  0  0  0  0  0  0  0  0  0
  1  3  1  0  0  0  0
  1  6  1  0  0  0  0
  2  1  2  0  0  0  0
  3  4  1  0  0  0  0
  5 13  1  0  0  0  0
  5 14  1  0  0  0  0
  6  5  2  0  0  0  0
  7  8  2  0  0  0  0
  7  6  1  0  0  0  0
  8 12  1  0  0  0  0
  9  8  1  0  0  0  0
  9 10  1  0  0  0  0
 10 11  2  0  0  0  0
 12 11  1  0  0  0  0
 12 13  2  0  0  0  0
 13 18  1  0  0  0  0
 15  7  1  0  0  0  0
 16  9  1  0  0  0  0
 17 10  1  0  0  0  0
 20 26  1  0  0  0  0
 20 19  1  0  0  0  0
 21 18  1  6  0  0  0
 21 22  1  0  0  0  0
 21 20  1  0  0  0  0
 22 23  1  0  0  0  0
 24 22  1  0  0  0  0
 24 25  1  0  0  0  0
 25 26  1  0  0  0  0
 28 27  1  0  0  0  0
 29 28  1  0  0  0  0
 29 39  1  0  0  0  0
 30 29  2  0  0  0  0
 31 32  2  0  0  0  0
 31 30  1  0  0  0  0
 32 33  1  0  0  0  0
 33  3  1  0  0  0  0
 33 28  2  0  0  0  0
 34 30  1  0  0  0  0
 35 31  1  0  0  0  0
 36 32  1  0  0  0  0
 37 42  1  0  0  0  0
 38 37  2  0  0  0  0
 39 38  1  0  0  0  0
 39 40  2  0  0  0  0
 40 41  1  0  0  0  0
 41 42  2  0  0  0  0
 41 45  1  0  0  0  0
 43 37  1  0  0  0  0
 44 38  1  0  0  0  0
M  END
>  <minimizedAffinity>
-6.26552296

$$$$

 OpenBabel03272503143D

 45 49  0  0  1  0  0  0  0  0999 V2000
   36.3110   26.2080   31.9420 C   0  0  0  0  0  0  0  0  0  0  0  0
   35.1460   26.6000   31.5750 O   0  0  0  0  0  0  0  0  0  0  0  0
   37.1820   27.2310   32.3750 N   0  0  0  0  0  0  0  0  0  0  0  0
   38.1260   26.9600   32.6870 H   0  0  0  0  0  0  0  0  0  0  0  0
   37.8610   24.4330   32.4030 C   0  0  0  0  0  0  0  0  0  0  0  0
   36.6310   24.7940   31.8870 C   0  0  0  0  0  0  0  0  0  0  0  0
   35.7570   23.9010   31.3540 C   0  0  0  0  0  0  0  0  0  0  0  0
   36.0990   22.5580   31.3180 C   0  0  0  0  0  0  0  0  0  0  0  0
   35.4620   21.4680   30.8670 N   0  0  0  0  0  0  0  0  0  0  0  0
   36.2430   20.4250   31.0790 C   0  0  0  0  0  0  0  0  0  0  0  0
   37.3810   20.8390   31.6640 N   0  0  0  0  0  0  0  0  0  0  0  0
   37.3310   22.1880   31.8350 C   0  0  0  0  0  0  0  0  0  0  0  0
   38.2340   23.0840   32.3820 C   0  0  0  0  0  0  0  0  0  0  0  0
   38.5140   25.1830   32.8150 H   0  0  0  0  0  0  0  0  0  0  0  0
   34.8140   24.2680   30.9700 H   0  0  0  0  0  0  0  0  0  0  0  0
   34.5080   21.5130   30.4320 H   0  0  0  0  0  0  0  0  0  0  0  0
   35.9360   19.4280   30.7940 H   0  0  0  0  0  0  0  0  0  0  0  0
   39.4460   22.6940   32.8860 O   0  0  0  0  0  0  0  0  0  0  0  0
   41.3170   20.5980   34.1120 H   0  0  0  0  0  0  0  0  0  0  0  0
   41.1430   21.6020   33.9670 N   0  0  0  0  0  0  0  0  0  0  0  0
   39.7290   21.8740   33.9560 C   0  0  1  0  0  3  0  0  0  0  0  0
   39.4010   22.6230   35.2350 C   0  0  0  0  0  3  0  0  0  0  0  0
   39.6420   22.0670   36.1470 H   0  0  0  0  0  0  0  0  0  0  0  0
   40.0310   23.8580   35.1320 O   0  0  0  0  0  0  0  0  0  0  0  0
   41.4090   23.7550   35.1550 C   0  0  0  0  0  2  0  0  0  0  0  0
   41.9490   22.4300   34.7810 C   0  0  0  0  0  2  0  0  0  0  0  0
   36.0520   28.3390   34.5790 F   0  0  0  0  0  0  0  0  0  0  0  0
   36.0400   29.0940   33.4410 C   0  0  0  0  0  0  0  0  0  0  0  0
   35.4780   30.3390   33.4540 C   0  0  0  0  0  0  0  0  0  0  0  0
   35.5050   31.0360   32.2760 C   0  0  0  0  0  0  0  0  0  0  0  0
   36.0570   30.5400   31.1240 C   0  0  0  0  0  0  0  0  0  0  0  0
   36.6240   29.2720   31.1350 C   0  0  0  0  0  0  0  0  0  0  0  0
   36.6090   28.5480   32.3160 C   0  0  0  0  0  0  0  0  0  0  0  0
   35.0610   32.0320   32.2670 H   0  0  0  0  0  0  0  0  0  0  0  0
   36.0330   31.1640   30.2410 H   0  0  0  0  0  0  0  0  0  0  0  0
   37.0630   28.8680   30.2360 H   0  0  0  0  0  0  0  0  0  0  0  0
   35.0300   32.0200   36.8220 C   0  0  0  0  0  0  0  0  0  0  0  0
   35.6330   31.5720   35.6140 C   0  0  0  0  0  0  0  0  0  0  0  0
   34.9020   30.8220   34.7070 C   0  0  0  0  0  0  0  0  0  0  0  0
   33.6010   30.5440   35.0280 N   0  0  0  0  0  0  0  0  0  0  0  0
   33.0360   30.9710   36.1720 C   0  0  0  0  0  0  0  0  0  0  0  0
   33.7360   31.6910   37.0470 N   0  0  0  0  0  0  0  0  0  0  0  0
   35.7030   32.5920   37.4420 H   0  0  0  0  0  0  0  0  0  0  0  0
   36.6570   31.7960   35.3720 H   0  0  0  0  0  0  0  0  0  0  0  0
   32.0080   30.7480   36.4190 H   0  0  0  0  0  0  0  0  0  0  0  0
  1  3  1  0  0  0  0
  2  1  2  0  0  0  0
  3  4  1  0  0  0  0
  5 14  1  0  0  0  0
  6  1  1  0  0  0  0
  6  5  2  0  0  0  0
  7  6  1  0  0  0  0
  8  7  2  0  0  0  0
  8 12  1  0  0  0  0
  9 10  1  0  0  0  0
  9  8  1  0  0  0  0
 10 11  2  0  0  0  0
 11 12  1  0  0  0  0
 12 13  2  0  0  0  0
 13  5  1  0  0  0  0
 13 18  1  0  0  0  0
 15  7  1  0  0  0  0
 16  9  1  0  0  0  0
 17 10  1  0  0  0  0
 20 19  1  0  0  0  0
 20 26  1  0  0  0  0
 21 18  1  6  0  0  0
 21 20  1  0  0  0  0
 21 22  1  0  0  0  0
 22 23  1  0  0  0  0
 24 25  1  0  0  0  0
 24 22  1  0  0  0  0
 26 25  1  0  0  0  0
 28 29  1  0  0  0  0
 28 27  1  0  0  0  0
 29 39  1  0  0  0  0
 30 29  2  0  0  0  0
 31 32  2  0  0  0  0
 31 30  1  0  0  0  0
 32 33  1  0  0  0  0
 33  3  1  0  0  0  0
 33 28  2  0  0  0  0
 34 30  1  0  0  0  0
 35 31  1  0  0  0  0
 36 32  1  0  0  0  0
 37 42  1  0  0  0  0
 37 43  1  0  0  0  0
 38 37  2  0  0  0  0
 39 40  2  0  0  0  0
 39 38  1  0  0  0  0
 40 41  1  0  0  0  0
 41 45  1  0  0  0  0
 41 42  2  0  0  0  0
 44 38  1  0  0  0  0
M  END
>  <minimizedAffinity>
-6.22005177

$$$$

 OpenBabel03272503143D

 45 49  0  0  1  0  0  0  0  0999 V2000
   36.2440   25.9680   31.7040 C   0  0  0  0  0  0  0  0  0  0  0  0
   35.4220   26.2580   30.7630 O   0  0  0  0  0  0  0  0  0  0  0  0
   36.7740   27.0730   32.4040 N   0  0  0  0  0  0  0  0  0  0  0  0
   37.4320   26.8850   33.1740 H   0  0  0  0  0  0  0  0  0  0  0  0
   37.4200   24.3370   33.0170 C   0  0  0  0  0  0  0  0  0  0  0  0
   36.5540   24.5750   31.9670 C   0  0  0  0  0  0  0  0  0  0  0  0
   36.0120   23.5850   31.2110 C   0  0  0  0  0  0  0  0  0  0  0  0
   36.3320   22.2660   31.4930 C   0  0  0  0  0  0  0  0  0  0  0  0
   35.9650   21.1020   30.9380 N   0  0  0  0  0  0  0  0  0  0  0  0
   36.5660   20.1300   31.5990 C   0  0  0  0  0  0  0  0  0  0  0  0
   37.3200   20.6640   32.5770 N   0  0  0  0  0  0  0  0  0  0  0  0
   37.2000   22.0190   32.5450 C   0  0  0  0  0  0  0  0  0  0  0  0
   37.7610   23.0150   33.3260 C   0  0  0  0  0  0  0  0  0  0  0  0
   37.8180   25.1610   33.5840 H   0  0  0  0  0  0  0  0  0  0  0  0
   35.3420   23.8580   30.4060 H   0  0  0  0  0  0  0  0  0  0  0  0
   35.3080   21.0500   30.1210 H   0  0  0  0  0  0  0  0  0  0  0  0
   36.4190   19.0940   31.3290 H   0  0  0  0  0  0  0  0  0  0  0  0
   38.6160   22.7460   34.3610 O   0  0  0  0  0  0  0  0  0  0  0  0
   38.4590   21.5000   37.1570 H   0  0  0  0  0  0  0  0  0  0  0  0
   39.0810   21.8620   36.4210 N   0  0  0  0  0  0  0  0  0  0  0  0
   38.4480   22.9450   35.7140 C   0  0  1  0  0  3  0  0  0  0  0  0
   39.1680   24.2240   36.1030 C   0  0  0  0  0  3  0  0  0  0  0  0
   39.1340   24.4410   37.1770 H   0  0  0  0  0  0  0  0  0  0  0  0
   40.4520   24.1190   35.5800 O   0  0  0  0  0  0  0  0  0  0  0  0
   41.1950   23.1240   36.1870 C   0  0  0  0  0  2  0  0  0  0  0  0
   40.4060   22.0730   36.8650 C   0  0  0  0  0  2  0  0  0  0  0  0
   38.1520   28.4190   30.4930 F   0  0  0  0  0  0  0  0  0  0  0  0
   37.0140   29.0140   30.9590 C   0  0  0  0  0  0  0  0  0  0  0  0
   36.6240   30.2250   30.4610 C   0  0  0  0  0  0  0  0  0  0  0  0
   35.4730   30.7570   30.9750 C   0  0  0  0  0  0  0  0  0  0  0  0
   34.7250   30.1340   31.9420 C   0  0  0  0  0  0  0  0  0  0  0  0
   35.1410   28.9020   32.4320 C   0  0  0  0  0  0  0  0  0  0  0  0
   36.3030   28.3450   31.9260 C   0  0  0  0  0  0  0  0  0  0  0  0
   35.1450   31.7220   30.5900 H   0  0  0  0  0  0  0  0  0  0  0  0
   33.8290   30.6310   32.2880 H   0  0  0  0  0  0  0  0  0  0  0  0
   34.5630   28.4010   33.1930 H   0  0  0  0  0  0  0  0  0  0  0  0
   38.9730   32.5760   28.6380 C   0  0  0  0  0  0  0  0  0  0  0  0
   38.1780   32.0050   29.6700 C   0  0  0  0  0  0  0  0  0  0  0  0
   37.4550   30.8470   29.4320 C   0  0  0  0  0  0  0  0  0  0  0  0
   37.5450   30.2970   28.1830 N   0  0  0  0  0  0  0  0  0  0  0  0
   38.2980   30.8420   27.2110 C   0  0  0  0  0  0  0  0  0  0  0  0
   38.9950   31.9550   27.4350 N   0  0  0  0  0  0  0  0  0  0  0  0
   39.4850   33.4740   28.9480 H   0  0  0  0  0  0  0  0  0  0  0  0
   38.1140   32.4470   30.6490 H   0  0  0  0  0  0  0  0  0  0  0  0
   38.3650   30.4020   26.2260 H   0  0  0  0  0  0  0  0  0  0  0  0
  1  6  1  0  0  0  0
  1  3  1  0  0  0  0
  2  1  2  0  0  0  0
  3  4  1  0  0  0  0
  5 13  1  0  0  0  0
  5 14  1  0  0  0  0
  6  5  2  0  0  0  0
  7  8  2  0  0  0  0
  7  6  1  0  0  0  0
  8 12  1  0  0  0  0
  9  8  1  0  0  0  0
  9 10  1  0  0  0  0
 10 11  2  0  0  0  0
 12 11  1  0  0  0  0
 12 13  2  0  0  0  0
 13 18  1  0  0  0  0
 15  7  1  0  0  0  0
 16  9  1  0  0  0  0
 17 10  1  0  0  0  0
 20 26  1  0  0  0  0
 20 19  1  0  0  0  0
 21 18  1  6  0  0  0
 21 22  1  0  0  0  0
 21 20  1  0  0  0  0
 22 23  1  0  0  0  0
 24 22  1  0  0  0  0
 24 25  1  0  0  0  0
 25 26  1  0  0  0  0
 27 28  1  0  0  0  0
 28 33  1  0  0  0  0
 29 28  2  0  0  0  0
 29 30  1  0  0  0  0
 30 31  2  0  0  0  0
 31 35  1  0  0  0  0
 31 32  1  0  0  0  0
 32 36  1  0  0  0  0
 33  3  1  0  0  0  0
 33 32  2  0  0  0  0
 34 30  1  0  0  0  0
 37 43  1  0  0  0  0
 37 38  1  0  0  0  0
 38 44  1  0  0  0  0
 39 38  2  0  0  0  0
 39 29  1  0  0  0  0
 40 39  1  0  0  0  0
 41 42  1  0  0  0  0
 41 40  2  0  0  0  0
 42 37  2  0  0  0  0
 45 41  1  0  0  0  0
M  END
>  <minimizedAffinity>
-6.19035244

$$$$

 OpenBabel03272503143D

 45 49  0  0  1  0  0  0  0  0999 V2000
   36.7460   27.1130   31.5230 C   0  0  0  0  0  0  0  0  0  0  0  0
   37.3280   26.7410   32.6040 O   0  0  0  0  0  0  0  0  0  0  0  0
   36.8150   26.1930   30.4550 N   0  0  0  0  0  0  0  0  0  0  0  0
   36.3530   26.4480   29.5700 H   0  0  0  0  0  0  0  0  0  0  0  0
   35.0650   28.5890   32.3950 C   0  0  0  0  0  0  0  0  0  0  0  0
   36.0870   28.4040   31.4830 C   0  0  0  0  0  0  0  0  0  0  0  0
   36.4700   29.3560   30.5930 C   0  0  0  0  0  0  0  0  0  0  0  0
   35.8150   30.5790   30.5850 C   0  0  0  0  0  0  0  0  0  0  0  0
   35.9640   31.6860   29.8450 N   0  0  0  0  0  0  0  0  0  0  0  0
   35.0730   32.5710   30.2540 C   0  0  0  0  0  0  0  0  0  0  0  0
   34.3500   32.0360   31.2550 N   0  0  0  0  0  0  0  0  0  0  0  0
   34.7900   30.7710   31.4970 C   0  0  0  0  0  0  0  0  0  0  0  0
   34.3860   29.8130   32.4110 C   0  0  0  0  0  0  0  0  0  0  0  0
   34.8040   27.8000   33.0790 H   0  0  0  0  0  0  0  0  0  0  0  0
   37.2800   29.1300   29.9120 H   0  0  0  0  0  0  0  0  0  0  0  0
   36.6870   31.7640   29.0880 H   0  0  0  0  0  0  0  0  0  0  0  0
   35.0050   33.5490   29.7980 H   0  0  0  0  0  0  0  0  0  0  0  0
   33.3690   30.0270   33.3030 O   0  0  0  0  0  0  0  0  0  0  0  0
   30.8640   28.6310   32.2220 H   0  0  0  0  0  0  0  0  0  0  0  0
   31.4970   28.7390   33.0260 N   0  0  0  0  0  0  0  0  0  0  0  0
   32.0100   30.0830   33.0890 C   0  0  1  0  0  3  0  0  0  0  0  0
   31.3630   30.7600   34.2850 C   0  0  0  0  0  3  0  0  0  0  0  0
   30.2700   30.8050   34.2290 H   0  0  0  0  0  0  0  0  0  0  0  0
   31.8530   30.1070   35.4100 O   0  0  0  0  0  0  0  0  0  0  0  0
   31.4190   28.7980   35.4980 C   0  0  0  0  0  2  0  0  0  0  0  0
   30.9770   28.1940   34.2220 C   0  0  0  0  0  2  0  0  0  0  0  0
   35.5060   23.9730   31.3050 F   0  0  0  0  0  0  0  0  0  0  0  0
   36.8640   23.8770   31.1960 C   0  0  0  0  0  0  0  0  0  0  0  0
   37.4930   22.7060   31.5080 C   0  0  0  0  0  0  0  0  0  0  0  0
   38.8550   22.6860   31.3720 C   0  0  0  0  0  0  0  0  0  0  0  0
   39.5820   23.7680   30.9490 C   0  0  0  0  0  0  0  0  0  0  0  0
   38.9200   24.9490   30.6360 C   0  0  0  0  0  0  0  0  0  0  0  0
   37.5420   24.9920   30.7660 C   0  0  0  0  0  0  0  0  0  0  0  0
   39.3750   21.7590   31.6160 H   0  0  0  0  0  0  0  0  0  0  0  0
   40.6550   23.6590   30.8720 H   0  0  0  0  0  0  0  0  0  0  0  0
   39.4790   25.8090   30.3020 H   0  0  0  0  0  0  0  0  0  0  0  0
   35.4060   19.5420   31.5570 C   0  0  0  0  0  0  0  0  0  0  0  0
   36.2010   20.6190   31.0770 C   0  0  0  0  0  0  0  0  0  0  0  0
   36.6730   21.5810   31.9550 C   0  0  0  0  0  0  0  0  0  0  0  0
   36.3420   21.4420   33.2750 N   0  0  0  0  0  0  0  0  0  0  0  0
   35.5890   20.4210   33.7230 C   0  0  0  0  0  0  0  0  0  0  0  0
   35.1330   19.4940   32.8820 N   0  0  0  0  0  0  0  0  0  0  0  0
   35.1010   18.8620   30.7770 H   0  0  0  0  0  0  0  0  0  0  0  0
   36.4550   20.7180   30.0360 H   0  0  0  0  0  0  0  0  0  0  0  0
   35.3310   20.3170   34.7670 H   0  0  0  0  0  0  0  0  0  0  0  0
  1  2  2  0  0  0  0
  3 33  1  0  0  0  0
  3  1  1  0  0  0  0
  4  3  1  0  0  0  0
  5 13  1  0  0  0  0
  5 14  1  0  0  0  0
  6  1  1  0  0  0  0
  6  5  2  0  0  0  0
  7  6  1  0  0  0  0
  8  7  2  0  0  0  0
  8 12  1  0  0  0  0
  9 10  1  0  0  0  0
  9  8  1  0  0  0  0
 10 11  2  0  0  0  0
 11 12  1  0  0  0  0
 12 13  2  0  0  0  0
 13 18  1  0  0  0  0
 15  7  1  0  0  0  0
 16  9  1  0  0  0  0
 17 10  1  0  0  0  0
 19 20  1  0  0  0  0
 20 21  1  0  0  0  0
 20 26  1  0  0  0  0
 21 18  1  1  0  0  0
 21 22  1  0  0  0  0
 22 24  1  0  0  0  0
 23 22  1  0  0  0  0
 24 25  1  0  0  0  0
 26 25  1  0  0  0  0
 28 27  1  0  0  0  0
 28 29  1  0  0  0  0
 29 39  1  0  0  0  0
 30 29  2  0  0  0  0
 30 34  1  0  0  0  0
 31 30  1  0  0  0  0
 32 33  1  0  0  0  0
 32 31  2  0  0  0  0
 33 28  2  0  0  0  0
 35 31  1  0  0  0  0
 36 32  1  0  0  0  0
 37 42  1  0  0  0  0
 38 37  2  0  0  0  0
 38 39  1  0  0  0  0
 39 40  2  0  0  0  0
 40 41  1  0  0  0  0
 41 45  1  0  0  0  0
 42 41  2  0  0  0  0
 43 37  1  0  0  0  0
 44 38  1  0  0  0  0
M  END
>  <minimizedAffinity>
-6.15475655

$$$$

 OpenBabel03272503143D

 45 49  0  0  1  0  0  0  0  0999 V2000
   37.2220   26.5210   31.4970 C   0  0  0  0  0  0  0  0  0  0  0  0
   36.1230   26.0260   31.9360 O   0  0  0  0  0  0  0  0  0  0  0  0
   38.3710   25.7340   31.7250 N   0  0  0  0  0  0  0  0  0  0  0  0
   39.2750   26.0900   31.3810 H   0  0  0  0  0  0  0  0  0  0  0  0
   36.6300   28.8470   31.5310 C   0  0  0  0  0  0  0  0  0  0  0  0
   37.1990   27.8060   30.8240 C   0  0  0  0  0  0  0  0  0  0  0  0
   37.7130   27.9480   29.5740 C   0  0  0  0  0  0  0  0  0  0  0  0
   37.6720   29.1930   28.9640 C   0  0  0  0  0  0  0  0  0  0  0  0
   38.0890   29.6340   27.7680 N   0  0  0  0  0  0  0  0  0  0  0  0
   37.8050   30.9210   27.6890 C   0  0  0  0  0  0  0  0  0  0  0  0
   37.2080   31.3100   28.8300 N   0  0  0  0  0  0  0  0  0  0  0  0
   37.1040   30.2420   29.6670 C   0  0  0  0  0  0  0  0  0  0  0  0
   36.5760   30.1160   30.9410 C   0  0  0  0  0  0  0  0  0  0  0  0
   36.2400   28.6780   32.5200 H   0  0  0  0  0  0  0  0  0  0  0  0
   38.1400   27.0800   29.0900 H   0  0  0  0  0  0  0  0  0  0  0  0
   38.5520   29.0060   27.0670 H   0  0  0  0  0  0  0  0  0  0  0  0
   38.0510   31.4960   26.8080 H   0  0  0  0  0  0  0  0  0  0  0  0
   36.0190   31.1690   31.6170 O   0  0  0  0  0  0  0  0  0  0  0  0
   33.4400   31.5170   29.9980 H   0  0  0  0  0  0  0  0  0  0  0  0
   33.8520   31.1810   30.8790 N   0  0  0  0  0  0  0  0  0  0  0  0
   34.9790   31.9950   31.2520 C   0  0  1  0  0  3  0  0  0  0  0  0
   34.5680   32.8120   32.4640 C   0  0  0  0  0  3  0  0  0  0  0  0
   33.7080   33.4670   32.2850 H   0  0  0  0  0  0  0  0  0  0  0  0
   34.3900   31.9030   33.5010 O   0  0  0  0  0  0  0  0  0  0  0  0
   33.3140   31.0600   33.2910 C   0  0  0  0  0  2  0  0  0  0  0  0
   32.8900   30.9200   31.8810 C   0  0  0  0  0  2  0  0  0  0  0  0
   38.8800   25.5340   34.3830 F   0  0  0  0  0  0  0  0  0  0  0  0
   38.3710   24.4220   33.7730 C   0  0  0  0  0  0  0  0  0  0  0  0
   38.1450   23.2880   34.4990 C   0  0  0  0  0  0  0  0  0  0  0  0
   37.6330   22.2170   33.8190 C   0  0  0  0  0  0  0  0  0  0  0  0
   37.3520   22.2450   32.4780 C   0  0  0  0  0  0  0  0  0  0  0  0
   37.5900   23.4100   31.7600 C   0  0  0  0  0  0  0  0  0  0  0  0
   38.1070   24.5070   32.4270 C   0  0  0  0  0  0  0  0  0  0  0  0
   37.4440   21.3030   34.3830 H   0  0  0  0  0  0  0  0  0  0  0  0
   36.9480   21.3490   32.0260 H   0  0  0  0  0  0  0  0  0  0  0  0
   37.3730   23.4470   30.7030 H   0  0  0  0  0  0  0  0  0  0  0  0
   39.9000   22.8130   37.8250 C   0  0  0  0  0  0  0  0  0  0  0  0
   39.6350   22.7710   36.4290 C   0  0  0  0  0  0  0  0  0  0  0  0
   38.4610   23.3090   35.9260 C   0  0  0  0  0  0  0  0  0  0  0  0
   37.5940   23.8690   36.8240 N   0  0  0  0  0  0  0  0  0  0  0  0
   37.8500   23.9060   38.1440 C   0  0  0  0  0  0  0  0  0  0  0  0
   38.9770   23.3900   38.6310 N   0  0  0  0  0  0  0  0  0  0  0  0
   40.8440   22.3620   38.0890 H   0  0  0  0  0  0  0  0  0  0  0  0
   40.3240   22.3270   35.7320 H   0  0  0  0  0  0  0  0  0  0  0  0
   37.1610   24.3510   38.8470 H   0  0  0  0  0  0  0  0  0  0  0  0
  1  3  1  0  0  0  0
  1  2  2  0  0  0  0
  3 33  1  0  0  0  0
  4  3  1  0  0  0  0
  5 14  1  0  0  0  0
  6  1  1  0  0  0  0
  6  5  2  0  0  0  0
  7  6  1  0  0  0  0
  8  7  2  0  0  0  0
  8 12  1  0  0  0  0
  9  8  1  0  0  0  0
 10  9  1  0  0  0  0
 10 11  2  0  0  0  0
 11 12  1  0  0  0  0
 12 13  2  0  0  0  0
 13  5  1  0  0  0  0
 13 18  1  0  0  0  0
 15  7  1  0  0  0  0
 16  9  1  0  0  0  0
 17 10  1  0  0  0  0
 19 20  1  0  0  0  0
 20 21  1  0  0  0  0
 20 26  1  0  0  0  0
 21 18  1  1  0  0  0
 21 22  1  0  0  0  0
 22 24  1  0  0  0  0
 23 22  1  0  0  0  0
 25 24  1  0  0  0  0
 26 25  1  0  0  0  0
 28 27  1  0  0  0  0
 28 29  1  0  0  0  0
 29 39  1  0  0  0  0
 30 34  1  0  0  0  0
 30 29  2  0  0  0  0
 31 30  1  0  0  0  0
 32 33  1  0  0  0  0
 32 31  2  0  0  0  0
 33 28  2  0  0  0  0
 35 31  1  0  0  0  0
 36 32  1  0  0  0  0
 37 43  1  0  0  0  0
 37 42  1  0  0  0  0
 38 37  2  0  0  0  0
 39 38  1  0  0  0  0
 39 40  2  0  0  0  0
 40 41  1  0  0  0  0
 41 42  2  0  0  0  0
 41 45  1  0  0  0  0
 44 38  1  0  0  0  0
M  END
>  <minimizedAffinity>
-6.13119745

$$$$
