
 OpenBabel03272506413D

 18 19  0  0  1  0  0  0  0  0999 V2000
   35.5150   20.5690   33.2900 C   0  0  0  0  0  0  0  0  0  0  0  0
   35.1100   20.9740   32.0070 C   0  0  0  0  0  0  0  0  0  0  0  0
   35.8010   22.0390   31.3960 C   0  0  0  0  0  0  0  0  0  0  0  0
   36.8220   22.6090   32.0930 N   0  0  0  0  0  0  0  0  0  0  0  0
   37.1840   22.1970   33.3170 C   0  0  0  0  0  0  0  0  0  0  0  0
   36.5390   21.1850   33.9160 N   0  0  0  0  0  0  0  0  0  0  0  0
   34.9510   19.7390   33.7280 H   0  0  0  0  0  0  0  0  0  0  0  0
   34.2850   20.4840   31.4940 H   0  0  0  0  0  0  0  0  0  0  0  0
   35.5170   22.3830   30.4050 H   0  0  0  0  0  0  0  0  0  0  0  0
   38.5290   22.9540   34.2270 S   0  0  0  0  0  0  0  0  0  0  0  0
   36.6980   22.4340   36.1390 H   0  0  0  0  0  0  0  0  0  0  0  0
   37.5890   22.2960   36.6700 N   0  0  0  0  0  0  0  0  0  0  0  0
   38.7500   22.1790   35.8500 C   0  0  2  0  0  3  0  0  0  0  0  0
   39.9630   22.8820   36.4660 C   0  0  0  0  0  3  0  0  0  0  0  0
   39.8450   24.0040   36.3820 H   0  0  0  0  0  0  0  0  0  0  0  0
   39.9840   22.6260   37.8200 O   0  0  0  0  0  0  0  0  0  0  0  0
   38.9720   23.3860   38.3960 C   0  0  0  0  0  2  0  0  0  0  0  0
   37.6490   23.2550   37.7220 C   0  0  0  0  0  2  0  0  0  0  0  0
  1  7  1  0  0  0  0
  1  6  1  0  0  0  0
  2  1  2  0  0  0  0
  3  2  1  0  0  0  0
  3  4  2  0  0  0  0
  4  5  1  0  0  0  0
  5  6  2  0  0  0  0
  5 10  1  0  0  0  0
  8  2  1  0  0  0  0
  9  3  1  0  0  0  0
 11 12  1  0  0  0  0
 12 18  1  0  0  0  0
 13 10  1  6  0  0  0
 13 14  1  0  0  0  0
 13 12  1  0  0  0  0
 14 16  1  0  0  0  0
 15 14  1  0  0  0  0
 16 17  1  0  0  0  0
 18 17  1  0  0  0  0
M  END
>  <minimizedAffinity>
-4.00644493

$$$$

 OpenBabel03272506413D

 18 19  0  0  1  0  0  0  0  0999 V2000
   37.0220   26.8500   33.8990 C   0  0  0  0  0  0  0  0  0  0  0  0
   37.4350   27.6410   34.9830 C   0  0  0  0  0  0  0  0  0  0  0  0
   38.3520   27.0880   35.9000 C   0  0  0  0  0  0  0  0  0  0  0  0
   38.7790   25.8150   35.6710 N   0  0  0  0  0  0  0  0  0  0  0  0
   38.3630   25.0870   34.6240 C   0  0  0  0  0  0  0  0  0  0  0  0
   37.4920   25.5960   33.7410 N   0  0  0  0  0  0  0  0  0  0  0  0
   36.3100   27.3190   33.2120 H   0  0  0  0  0  0  0  0  0  0  0  0
   37.0620   28.6540   35.1190 H   0  0  0  0  0  0  0  0  0  0  0  0
   38.6950   27.6660   36.7530 H   0  0  0  0  0  0  0  0  0  0  0  0
   38.9310   23.4130   34.3330 S   0  0  0  0  0  0  0  0  0  0  0  0
   36.8890   22.8750   36.0130 H   0  0  0  0  0  0  0  0  0  0  0  0
   37.7100   22.5820   36.5920 N   0  0  0  0  0  0  0  0  0  0  0  0
   38.9250   22.4360   35.8600 C   0  0  2  0  0  3  0  0  0  0  0  0
   40.1380   22.9290   36.6530 C   0  0  0  0  0  3  0  0  0  0  0  0
   40.1380   24.0590   36.6990 H   0  0  0  0  0  0  0  0  0  0  0  0
   40.0100   22.5170   37.9620 O   0  0  0  0  0  0  0  0  0  0  0  0
   39.0280   23.3100   38.5450 C   0  0  0  0  0  2  0  0  0  0  0  0
   37.7660   23.4000   37.7570 C   0  0  0  0  0  2  0  0  0  0  0  0
  1  2  1  0  0  0  0
  2  8  1  0  0  0  0
  2  3  2  0  0  0  0
  3  9  1  0  0  0  0
  4  3  1  0  0  0  0
  5  4  2  0  0  0  0
  6  1  2  0  0  0  0
  6  5  1  0  0  0  0
  7  1  1  0  0  0  0
 10  5  1  0  0  0  0
 11 12  1  0  0  0  0
 12 18  1  0  0  0  0
 13 10  1  6  0  0  0
 13 12  1  0  0  0  0
 13 14  1  0  0  0  0
 14 15  1  0  0  0  0
 14 16  1  0  0  0  0
 16 17  1  0  0  0  0
 18 17  1  0  0  0  0
M  END
>  <minimizedAffinity>
-3.96818614

$$$$

 OpenBabel03272506413D

 18 19  0  0  1  0  0  0  0  0999 V2000
   37.7900   24.0230   38.0730 C   0  0  0  0  0  0  0  0  0  0  0  0
   38.8820   23.3340   38.6250 C   0  0  0  0  0  0  0  0  0  0  0  0
   39.8710   22.8420   37.7490 C   0  0  0  0  0  0  0  0  0  0  0  0
   39.7000   23.0700   36.4170 N   0  0  0  0  0  0  0  0  0  0  0  0
   38.6440   23.7330   35.9240 C   0  0  0  0  0  0  0  0  0  0  0  0
   37.6930   24.2080   36.7410 N   0  0  0  0  0  0  0  0  0  0  0  0
   37.0460   24.3880   38.7890 H   0  0  0  0  0  0  0  0  0  0  0  0
   38.9690   23.1790   39.6980 H   0  0  0  0  0  0  0  0  0  0  0  0
   40.7300   22.3020   38.1360 H   0  0  0  0  0  0  0  0  0  0  0  0
   38.4290   24.0270   34.1690 S   0  0  0  0  0  0  0  0  0  0  0  0
   39.5520   26.0290   35.5860 H   0  0  0  0  0  0  0  0  0  0  0  0
   38.9960   26.5670   34.8810 N   0  0  0  0  0  0  0  0  0  0  0  0
   38.5420   25.7920   33.7740 C   0  0  2  0  0  3  0  0  0  0  0  0
   37.1330   26.1920   33.3300 C   0  0  0  0  0  3  0  0  0  0  0  0
   36.3710   25.8240   34.0800 H   0  0  0  0  0  0  0  0  0  0  0  0
   37.0310   27.5660   33.3620 O   0  0  0  0  0  0  0  0  0  0  0  0
   36.9550   27.9390   34.6990 C   0  0  0  0  0  2  0  0  0  0  0  0
   38.0110   27.3370   35.5630 C   0  0  0  0  0  2  0  0  0  0  0  0
  1  2  1  0  0  0  0
  1  7  1  0  0  0  0
  2  8  1  0  0  0  0
  3  9  1  0  0  0  0
  3  2  2  0  0  0  0
  4  3  1  0  0  0  0
  5  4  2  0  0  0  0
  5  6  1  0  0  0  0
  6  1  2  0  0  0  0
 10  5  1  0  0  0  0
 12 18  1  0  0  0  0
 12 11  1  0  0  0  0
 13 10  1  1  0  0  0
 13 12  1  0  0  0  0
 14 16  1  0  0  0  0
 14 13  1  0  0  0  0
 14 15  1  0  0  0  0
 16 17  1  0  0  0  0
 17 18  1  0  0  0  0
M  END
>  <minimizedAffinity>
-3.79283047

$$$$

 OpenBabel03272506413D

 18 19  0  0  1  0  0  0  0  0999 V2000
   36.2180   28.3780   33.4730 C   0  0  0  0  0  0  0  0  0  0  0  0
   36.1310   27.6040   32.3030 C   0  0  0  0  0  0  0  0  0  0  0  0
   36.7050   26.3170   32.3120 C   0  0  0  0  0  0  0  0  0  0  0  0
   37.3100   25.9070   33.4610 N   0  0  0  0  0  0  0  0  0  0  0  0
   37.3750   26.6720   34.5600 C   0  0  0  0  0  0  0  0  0  0  0  0
   36.8350   27.8990   34.5720 N   0  0  0  0  0  0  0  0  0  0  0  0
   35.7590   29.3710   33.4220 H   0  0  0  0  0  0  0  0  0  0  0  0
   35.6350   27.9820   31.4110 H   0  0  0  0  0  0  0  0  0  0  0  0
   36.6600   25.6880   31.4280 H   0  0  0  0  0  0  0  0  0  0  0  0
   38.1750   26.1220   36.0670 S   0  0  0  0  0  0  0  0  0  0  0  0
   37.2010   24.4930   37.9840 H   0  0  0  0  0  0  0  0  0  0  0  0
   37.8120   23.8330   37.4500 N   0  0  0  0  0  0  0  0  0  0  0  0
   38.2200   24.3130   36.1710 C   0  0  2  0  0  3  0  0  0  0  0  0
   39.6660   23.9310   35.8460 C   0  0  0  0  0  3  0  0  0  0  0  0
   40.3800   24.5540   36.4630 H   0  0  0  0  0  0  0  0  0  0  0  0
   39.8840   22.6320   36.2520 O   0  0  0  0  0  0  0  0  0  0  0  0
   39.9650   22.6460   37.6400 C   0  0  0  0  0  2  0  0  0  0  0  0
   38.8470   23.3670   38.3120 C   0  0  0  0  0  2  0  0  0  0  0  0
  1  6  1  0  0  0  0
  2  3  1  0  0  0  0
  2  1  2  0  0  0  0
  3  4  2  0  0  0  0
  4  5  1  0  0  0  0
  5  6  2  0  0  0  0
  5 10  1  0  0  0  0
  7  1  1  0  0  0  0
  8  2  1  0  0  0  0
  9  3  1  0  0  0  0
 12 11  1  0  0  0  0
 12 18  1  0  0  0  0
 13 10  1  1  0  0  0
 13 12  1  0  0  0  0
 14 13  1  0  0  0  0
 14 16  1  0  0  0  0
 14 15  1  0  0  0  0
 16 17  1  0  0  0  0
 17 18  1  0  0  0  0
M  END
>  <minimizedAffinity>
-3.70317268

$$$$

 OpenBabel03272506413D

 18 19  0  0  1  0  0  0  0  0999 V2000
   39.9510   22.7710   37.5280 C   0  0  0  0  0  0  0  0  0  0  0  0
   39.0580   23.2700   38.4900 C   0  0  0  0  0  0  0  0  0  0  0  0
   37.6960   23.3760   38.1420 C   0  0  0  0  0  0  0  0  0  0  0  0
   37.3350   22.9840   36.8890 N   0  0  0  0  0  0  0  0  0  0  0  0
   38.2160   22.5110   35.9940 C   0  0  0  0  0  0  0  0  0  0  0  0
   39.5150   22.4030   36.3060 N   0  0  0  0  0  0  0  0  0  0  0  0
   40.9990   22.7060   37.8400 H   0  0  0  0  0  0  0  0  0  0  0  0
   39.4000   23.5700   39.4780 H   0  0  0  0  0  0  0  0  0  0  0  0
   36.9730   23.7590   38.8570 H   0  0  0  0  0  0  0  0  0  0  0  0
   37.7300   21.9990   34.3470 S   0  0  0  0  0  0  0  0  0  0  0  0
   38.9710   24.3730   34.6740 H   0  0  0  0  0  0  0  0  0  0  0  0
   38.5960   24.4730   33.7030 N   0  0  0  0  0  0  0  0  0  0  0  0
   38.1630   23.2510   33.1100 C   0  0  2  0  0  3  0  0  0  0  0  0
   36.8970   23.4350   32.2690 C   0  0  0  0  0  3  0  0  0  0  0  0
   36.0020   23.5870   32.9430 H   0  0  0  0  0  0  0  0  0  0  0  0
   37.0070   24.6070   31.5520 O   0  0  0  0  0  0  0  0  0  0  0  0
   36.8300   25.6540   32.4500 C   0  0  0  0  0  2  0  0  0  0  0  0
   37.6670   25.5530   33.6800 C   0  0  0  0  0  2  0  0  0  0  0  0
  1  7  1  0  0  0  0
  1  2  1  0  0  0  0
  2  8  1  0  0  0  0
  3  2  2  0  0  0  0
  3  9  1  0  0  0  0
  4  3  1  0  0  0  0
  5  6  1  0  0  0  0
  5  4  2  0  0  0  0
  6  1  2  0  0  0  0
 10  5  1  0  0  0  0
 12 11  1  0  0  0  0
 13 12  1  0  0  0  0
 13 10  1  1  0  0  0
 14 15  1  0  0  0  0
 14 13  1  0  0  0  0
 16 14  1  0  0  0  0
 16 17  1  0  0  0  0
 17 18  1  0  0  0  0
 18 12  1  0  0  0  0
M  END
>  <minimizedAffinity>
-3.59245396

$$$$

 OpenBabel03272506413D

 18 19  0  0  1  0  0  0  0  0999 V2000
   37.8150   23.4610   37.4090 C   0  0  0  0  0  0  0  0  0  0  0  0
   38.9440   23.2720   38.2230 C   0  0  0  0  0  0  0  0  0  0  0  0
   40.0720   22.6400   37.6600 C   0  0  0  0  0  0  0  0  0  0  0  0
   39.9910   22.2530   36.3580 N   0  0  0  0  0  0  0  0  0  0  0  0
   38.8960   22.4490   35.6090 C   0  0  0  0  0  0  0  0  0  0  0  0
   37.8130   23.0480   36.1250 N   0  0  0  0  0  0  0  0  0  0  0  0
   36.9620   23.9550   37.8860 H   0  0  0  0  0  0  0  0  0  0  0  0
   38.9550   23.6010   39.2600 H   0  0  0  0  0  0  0  0  0  0  0  0
   40.9640   22.4740   38.2570 H   0  0  0  0  0  0  0  0  0  0  0  0
   38.8000   21.9340   33.8950 S   0  0  0  0  0  0  0  0  0  0  0  0
   36.6510   20.3500   34.2860 H   0  0  0  0  0  0  0  0  0  0  0  0
   36.3260   20.9370   33.4830 N   0  0  0  0  0  0  0  0  0  0  0  0
   37.1150   22.1000   33.2470 C   0  0  2  0  0  3  0  0  0  0  0  0
   37.2890   22.3850   31.7530 C   0  0  0  0  0  3  0  0  0  0  0  0
   38.0040   21.6370   31.2960 H   0  0  0  0  0  0  0  0  0  0  0  0
   36.0870   22.1650   31.1160 O   0  0  0  0  0  0  0  0  0  0  0  0
   35.9010   20.7890   31.0580 C   0  0  0  0  0  2  0  0  0  0  0  0
   36.0930   20.0900   32.3610 C   0  0  0  0  0  2  0  0  0  0  0  0
  1  7  1  0  0  0  0
  1  2  1  0  0  0  0
  2  8  1  0  0  0  0
  3  2  2  0  0  0  0
  3  9  1  0  0  0  0
  4  3  1  0  0  0  0
  5  6  1  0  0  0  0
  5  4  2  0  0  0  0
  6  1  2  0  0  0  0
 10  5  1  0  0  0  0
 12 11  1  0  0  0  0
 13 12  1  0  0  0  0
 13 10  1  6  0  0  0
 14 13  1  0  0  0  0
 15 14  1  0  0  0  0
 16 14  1  0  0  0  0
 17 16  1  0  0  0  0
 17 18  1  0  0  0  0
 18 12  1  0  0  0  0
M  END
>  <minimizedAffinity>
-3.58010054

$$$$

 OpenBabel03272506413D

 18 19  0  0  1  0  0  0  0  0999 V2000
   40.0900   23.1570   36.4860 C   0  0  0  0  0  0  0  0  0  0  0  0
   39.6930   22.8070   37.7870 C   0  0  0  0  0  0  0  0  0  0  0  0
   38.5930   23.4840   38.3510 C   0  0  0  0  0  0  0  0  0  0  0  0
   37.9850   24.4370   37.5930 N   0  0  0  0  0  0  0  0  0  0  0  0
   38.3910   24.7470   36.3520 C   0  0  0  0  0  0  0  0  0  0  0  0
   39.4360   24.1140   35.7980 N   0  0  0  0  0  0  0  0  0  0  0  0
   40.9490   22.6060   36.0860 H   0  0  0  0  0  0  0  0  0  0  0  0
   40.2150   22.0360   38.3500 H   0  0  0  0  0  0  0  0  0  0  0  0
   38.2550   23.2440   39.3550 H   0  0  0  0  0  0  0  0  0  0  0  0
   37.5850   26.0040   35.3630 S   0  0  0  0  0  0  0  0  0  0  0  0
   39.8790   25.7160   33.9720 H   0  0  0  0  0  0  0  0  0  0  0  0
   39.1890   25.8540   33.1980 N   0  0  0  0  0  0  0  0  0  0  0  0
   37.8260   25.7090   33.5910 C   0  0  2  0  0  3  0  0  0  0  0  0
   36.9140   26.7190   32.8910 C   0  0  0  0  0  3  0  0  0  0  0  0
   37.0750   27.7520   33.3230 H   0  0  0  0  0  0  0  0  0  0  0  0
   37.2960   26.8220   31.5710 O   0  0  0  0  0  0  0  0  0  0  0  0
   38.4850   27.5420   31.5430 C   0  0  0  0  0  2  0  0  0  0  0  0
   39.5220   27.0460   32.4920 C   0  0  0  0  0  2  0  0  0  0  0  0
  1  2  1  0  0  0  0
  2  8  1  0  0  0  0
  2  3  2  0  0  0  0
  3  9  1  0  0  0  0
  4  3  1  0  0  0  0
  5  4  2  0  0  0  0
  6  5  1  0  0  0  0
  6  1  2  0  0  0  0
  7  1  1  0  0  0  0
 10  5  1  0  0  0  0
 12 13  1  0  0  0  0
 12 11  1  0  0  0  0
 13 10  1  1  0  0  0
 14 15  1  0  0  0  0
 14 13  1  0  0  0  0
 16 14  1  0  0  0  0
 17 16  1  0  0  0  0
 17 18  1  0  0  0  0
 18 12  1  0  0  0  0
M  END
>  <minimizedAffinity>
-3.4451654

$$$$

 OpenBabel03272506413D

 18 19  0  0  1  0  0  0  0  0999 V2000
   37.0970   27.1530   34.9210 C   0  0  0  0  0  0  0  0  0  0  0  0
   38.1470   26.8960   35.8180 C   0  0  0  0  0  0  0  0  0  0  0  0
   39.4500   26.7620   35.2960 C   0  0  0  0  0  0  0  0  0  0  0  0
   39.6050   26.8910   33.9500 N   0  0  0  0  0  0  0  0  0  0  0  0
   38.5780   27.1370   33.1220 C   0  0  0  0  0  0  0  0  0  0  0  0
   37.3320   27.2670   33.5980 N   0  0  0  0  0  0  0  0  0  0  0  0
   36.1020   27.2490   35.3680 H   0  0  0  0  0  0  0  0  0  0  0  0
   37.9680   26.8020   36.8870 H   0  0  0  0  0  0  0  0  0  0  0  0
   40.2890   26.5620   35.9570 H   0  0  0  0  0  0  0  0  0  0  0  0
   38.7930   27.3040   31.3510 S   0  0  0  0  0  0  0  0  0  0  0  0
   36.2230   27.5060   30.5530 H   0  0  0  0  0  0  0  0  0  0  0  0
   36.3970   26.4830   30.4190 N   0  0  0  0  0  0  0  0  0  0  0  0
   37.7730   26.1110   30.4440 C   0  0  2  0  0  3  0  0  0  0  0  0
   37.9960   24.7740   31.1550 C   0  0  0  0  0  3  0  0  0  0  0  0
   37.8650   24.9020   32.2720 H   0  0  0  0  0  0  0  0  0  0  0  0
   37.0000   23.8990   30.7780 O   0  0  0  0  0  0  0  0  0  0  0  0
   35.8360   24.3020   31.4230 C   0  0  0  0  0  2  0  0  0  0  0  0
   35.5270   25.7530   31.2780 C   0  0  0  0  0  2  0  0  0  0  0  0
  1  7  1  0  0  0  0
  1  2  1  0  0  0  0
  2  8  1  0  0  0  0
  3  2  2  0  0  0  0
  3  9  1  0  0  0  0
  4  3  1  0  0  0  0
  5  6  1  0  0  0  0
  5  4  2  0  0  0  0
  6  1  2  0  0  0  0
 10  5  1  0  0  0  0
 12 13  1  0  0  0  0
 12 11  1  0  0  0  0
 12 18  1  0  0  0  0
 13 14  1  0  0  0  0
 13 10  1  1  0  0  0
 14 15  1  0  0  0  0
 16 14  1  0  0  0  0
 16 17  1  0  0  0  0
 18 17  1  0  0  0  0
M  END
>  <minimizedAffinity>
-3.42546964

$$$$

 OpenBabel03272506413D

 18 19  0  0  1  0  0  0  0  0999 V2000
   37.7860   24.0000   38.0960 C   0  0  0  0  0  0  0  0  0  0  0  0
   38.9200   23.3870   38.6540 C   0  0  0  0  0  0  0  0  0  0  0  0
   39.8600   22.8050   37.7790 C   0  0  0  0  0  0  0  0  0  0  0  0
   39.6040   22.8760   36.4440 N   0  0  0  0  0  0  0  0  0  0  0  0
   38.5090   23.4690   35.9450 C   0  0  0  0  0  0  0  0  0  0  0  0
   37.6040   24.0280   36.7600 N   0  0  0  0  0  0  0  0  0  0  0  0
   37.0820   24.4390   38.8110 H   0  0  0  0  0  0  0  0  0  0  0  0
   39.0760   23.3580   39.7300 H   0  0  0  0  0  0  0  0  0  0  0  0
   40.7500   22.3200   38.1700 H   0  0  0  0  0  0  0  0  0  0  0  0
   38.1810   23.5560   34.1850 S   0  0  0  0  0  0  0  0  0  0  0  0
   37.0730   24.4260   31.8840 H   0  0  0  0  0  0  0  0  0  0  0  0
   37.4290   25.3230   32.2890 N   0  0  0  0  0  0  0  0  0  0  0  0
   37.7830   25.2470   33.6680 C   0  0  2  0  0  3  0  0  0  0  0  0
   39.0350   26.0660   33.9880 C   0  0  0  0  0  3  0  0  0  0  0  0
   39.9540   25.5470   33.5790 H   0  0  0  0  0  0  0  0  0  0  0  0
   38.9690   27.2620   33.3060 O   0  0  0  0  0  0  0  0  0  0  0  0
   39.2220   26.9850   31.9670 C   0  0  0  0  0  2  0  0  0  0  0  0
   38.4120   25.8640   31.4110 C   0  0  0  0  0  2  0  0  0  0  0  0
  1  2  1  0  0  0  0
  1  7  1  0  0  0  0
  2  8  1  0  0  0  0
  3  9  1  0  0  0  0
  3  2  2  0  0  0  0
  4  3  1  0  0  0  0
  5  4  2  0  0  0  0
  5  6  1  0  0  0  0
  6  1  2  0  0  0  0
 10  5  1  0  0  0  0
 11 12  1  0  0  0  0
 12 13  1  0  0  0  0
 13 14  1  0  0  0  0
 13 10  1  6  0  0  0
 15 14  1  0  0  0  0
 16 14  1  0  0  0  0
 17 16  1  0  0  0  0
 18 17  1  0  0  0  0
 18 12  1  0  0  0  0
M  END
>  <minimizedAffinity>
-3.4017818

$$$$
