
 OpenBabel03272508473D

 39 43  0  0  0  0  0  0  0  0999 V2000
   35.6330   29.8560   49.4420 C   0  0  0  0  0  0  0  0  0  0  0  0
   36.7170   29.5850   50.2600 C   0  0  0  0  0  0  0  0  0  0  0  0
   37.7770   30.2170   49.6160 C   0  0  0  0  0  0  0  0  0  0  0  0
   37.3160   30.8190   48.4820 C   0  0  0  0  0  0  0  0  0  0  0  0
   36.0240   30.5770   48.4140 O   0  0  0  0  0  0  0  0  0  0  0  0
   36.7370   29.0150   51.1870 H   0  0  0  0  0  0  0  0  0  0  0  0
   38.7860   30.2160   49.9730 H   0  0  0  0  0  0  0  0  0  0  0  0
   39.0270   32.4950   47.9580 C   0  0  0  0  0  0  0  0  0  0  0  0
   38.0840   31.5900   47.5070 C   0  0  0  0  0  0  0  0  0  0  0  0
   37.8550   31.4010   46.1580 C   0  0  0  0  0  0  0  0  0  0  0  0
   38.5780   32.1280   45.2190 C   0  0  0  0  0  0  0  0  0  0  0  0
   38.5790   32.1650   43.8620 N   0  0  0  0  0  0  0  0  0  0  0  0
   39.4870   33.0570   43.5150 N   0  0  0  0  0  0  0  0  0  0  0  0
   40.0670   33.5920   44.6100 C   0  0  0  0  0  0  0  0  0  0  0  0
   39.4970   33.0090   45.7280 C   0  0  0  0  0  0  0  0  0  0  0  0
   39.7790   33.2500   47.0430 C   0  0  0  0  0  0  0  0  0  0  0  0
   39.1810   32.6160   49.0310 H   0  0  0  0  0  0  0  0  0  0  0  0
   37.1130   30.6880   45.8260 H   0  0  0  0  0  0  0  0  0  0  0  0
   37.9350   31.5520   43.3090 H   0  0  0  0  0  0  0  0  0  0  0  0
   40.8430   34.3470   44.5840 H   0  0  0  0  0  0  0  0  0  0  0  0
   40.5050   33.9460   47.3820 H   0  0  0  0  0  0  0  0  0  0  0  0
   34.2770   29.4010   49.6970 C   0  0  0  0  0  0  0  0  0  0  0  0
   33.7850   29.5820   50.8330 O   0  0  0  0  0  0  0  0  0  0  0  0
   31.8350   27.2460   48.0410 C   0  0  0  0  0  0  0  0  0  0  0  0
   32.0700   27.4790   46.6820 C   0  0  0  0  0  0  0  0  0  0  0  0
   33.0570   28.3670   46.3410 C   0  0  0  0  0  0  0  0  0  0  0  0
   33.7640   28.9830   47.3000 N   0  0  0  0  0  0  0  0  0  0  0  0
   33.5250   28.7470   48.6290 C   0  0  0  0  0  0  0  0  0  0  0  0
   32.5530   27.8710   48.9880 N   0  0  0  0  0  0  0  0  0  0  0  0
   31.0840   26.5670   48.4220 H   0  0  0  0  0  0  0  0  0  0  0  0
   31.4780   26.9620   45.9700 H   0  0  0  0  0  0  0  0  0  0  0  0
   33.3490   28.6510   44.9790 N   0  0  0  0  0  0  0  0  0  0  0  0
   34.6890   28.8610   44.4850 C   0  0  0  0  0  3  0  0  0  0  0  0
   35.4050   29.2380   45.2100 H   0  0  0  0  0  0  0  0  0  0  0  0
   34.5950   29.8340   43.3080 C   0  0  0  0  0  3  0  0  0  0  0  0
   35.6130   30.1310   42.9630 H   0  0  0  0  0  0  0  0  0  0  0  0
   33.8210   29.3340   42.2790 O   0  0  0  0  0  0  0  0  0  0  0  0
   32.8880   28.3990   42.6460 C   0  0  0  0  0  2  0  0  0  0  0  0
   32.2900   28.7490   43.9910 C   0  0  0  0  0  2  0  0  0  0  0  0
  1 22  1  0  0  0  0
  1  2  2  0  0  0  0
  2  6  1  0  0  0  0
  3  7  1  0  0  0  0
  3  2  1  0  0  0  0
  4  3  2  0  0  0  0
  5  4  1  0  0  0  0
  5  1  1  0  0  0  0
  8 17  1  0  0  0  0
  9  8  1  0  0  0  0
  9  4  1  0  0  0  0
 10  9  2  0  0  0  0
 11 15  2  0  0  0  0
 11 10  1  0  0  0  0
 12 11  1  0  0  0  0
 13 12  1  0  0  0  0
 13 14  2  0  0  0  0
 14 15  1  0  0  0  0
 15 16  1  0  0  0  0
 16 21  1  0  0  0  0
 16  8  2  0  0  0  0
 18 10  1  0  0  0  0
 19 12  1  0  0  0  0
 20 14  1  0  0  0  0
 22 23  2  0  0  0  0
 24 30  1  0  0  0  0
 24 29  1  0  0  0  0
 25 24  2  0  0  0  0
 26 25  1  0  0  0  0
 26 27  2  0  0  0  0
 27 28  1  0  0  0  0
 28 29  2  0  0  0  0
 28 22  1  0  0  0  0
 31 25  1  0  0  0  0
 32 26  1  0  0  0  0
 33 32  1  0  0  0  0
 33 34  1  0  0  0  0
 35 33  1  0  0  0  0
 36 35  1  0  0  0  0
 37 38  1  0  0  0  0
 37 35  1  0  0  0  0
 38 39  1  0  0  0  0
 39 32  1  0  0  0  0
M  END
>  <minimizedAffinity>
-6.03538418

>  <minimizedRMSD>
2.53897095

$$$$
