
     RDKit          3D

 51 55  0  0  0  0  0  0  0  0999 V2000
   32.7088   28.2120   47.4379 N   0  0  0  0  0  0  0  0  0  0  0  0
   33.3052   27.7595   48.6474 C   0  0  0  0  0  0  0  0  0  0  0  0
   34.4710   28.5306   49.1385 C   0  0  0  0  0  0  0  0  0  0  0  0
   35.4170   29.0069   48.1295 C   0  0  0  0  0  0  0  0  0  0  0  0
   34.7143   29.4079   46.8214 C   0  0  0  0  0  0  0  0  0  0  0  0
   33.7529   28.2681   46.4518 C   0  0  0  0  0  0  0  0  0  0  0  0
   35.9416   30.7412   49.7828 C   0  0  0  0  0  0  0  0  0  0  0  0
   36.1971   30.2046   48.5308 C   0  0  0  0  0  0  0  0  0  0  0  0
   37.0990   30.7277   47.6437 C   0  0  0  0  0  0  0  0  0  0  0  0
   37.7966   31.8708   48.0336 C   0  0  0  0  0  0  0  0  0  0  0  0
   37.5476   32.4090   49.2734 C   0  0  0  0  0  0  0  0  0  0  0  0
   36.6307   31.8773   50.1774 C   0  0  0  0  0  0  0  0  0  0  0  0
   38.3424   33.5460   49.4727 O   0  0  0  0  0  0  0  0  0  0  0  0
   39.3236   33.4863   48.4462 C   0  0  0  0  0  0  0  0  0  0  0  0
   38.7660   32.6785   47.4381 O   0  0  0  0  0  0  0  0  0  0  0  0
   31.3413   28.5544   47.1962 C   0  0  0  0  0  0  0  0  0  0  0  0
   30.8708   29.3667   46.1679 C   0  0  0  0  0  0  0  0  0  0  0  0
   29.4894   29.5707   46.1109 C   0  0  0  0  0  0  0  0  0  0  0  0
   28.6875   28.9791   47.0424 N   0  0  0  0  0  0  0  0  0  0  0  0
   29.1859   28.2146   48.0015 C   0  0  0  0  0  0  0  0  0  0  0  0
   30.4933   27.9961   48.0900 N   0  0  0  0  0  0  0  0  0  0  0  0
   33.6161   26.6972   48.5288 H   0  0  0  0  0  0  0  0  0  0  0  0
   32.5099   27.7482   49.4393 H   0  0  0  0  0  0  0  0  0  0  0  0
   33.9709   29.4616   49.5697 H   0  0  0  0  0  0  0  0  0  0  0  0
   34.9358   28.0150   49.9859 H   0  0  0  0  0  0  0  0  0  0  0  0
   36.1402   28.2059   47.8305 H   0  0  0  0  0  0  0  0  0  0  0  0
   35.4271   29.5135   46.0047 H   0  0  0  0  0  0  0  0  0  0  0  0
   34.1019   30.2774   47.0680 H   0  0  0  0  0  0  0  0  0  0  0  0
   33.3346   28.4860   45.4368 H   0  0  0  0  0  0  0  0  0  0  0  0
   34.3027   27.2971   46.3426 H   0  0  0  0  0  0  0  0  0  0  0  0
   35.2705   30.4131   50.5628 H   0  0  0  0  0  0  0  0  0  0  0  0
   37.2679   30.2881   46.6942 H   0  0  0  0  0  0  0  0  0  0  0  0
   36.4841   32.3654   51.1569 H   0  0  0  0  0  0  0  0  0  0  0  0
   40.2308   32.9508   48.8440 H   0  0  0  0  0  0  0  0  0  0  0  0
   39.6004   34.4940   48.0936 H   0  0  0  0  0  0  0  0  0  0  0  0
   31.6164   29.7671   45.5052 H   0  0  0  0  0  0  0  0  0  0  0  0
   29.1379   30.1989   45.3136 H   0  0  0  0  0  0  0  0  0  0  0  0
   28.2629   27.6493   48.9168 N   0  0  0  0  0  0  0  0  0  0  0  0
   27.1856   28.4138   49.5148 C   0  0  1  0  0  0  0  0  0  0  0  0
   27.5513   29.4075   49.8636 H   0  0  0  0  0  0  0  0  0  0  0  0
   26.5662   27.6716   50.6788 C   0  0  1  0  0  0  0  0  0  0  0  0
   25.9988   28.4192   51.2730 H   0  0  0  0  0  0  0  0  0  0  0  0
   27.4776   27.0682   51.4999 O   0  0  0  0  0  0  0  0  0  0  0  0
   28.4898   26.3711   50.8950 C   0  0  0  0  0  0  0  0  0  0  0  0
   28.2087   26.2881   49.4097 C   0  0  0  0  0  0  0  0  0  0  0  0
   26.3681   28.5471   48.7654 H   0  0  0  0  0  0  0  0  0  0  0  0
   25.8407   26.9397   50.2874 H   0  0  0  0  0  0  0  0  0  0  0  0
   29.4790   26.8672   51.0399 H   0  0  0  0  0  0  0  0  0  0  0  0
   28.5079   25.3542   51.3431 H   0  0  0  0  0  0  0  0  0  0  0  0
   28.9394   25.6298   48.8972 H   0  0  0  0  0  0  0  0  0  0  0  0
   27.2079   25.8688   49.2192 H   0  0  0  0  0  0  0  0  0  0  0  0
  1  2  1  0
  2  3  1  0
  4  8  1  0
  4  3  1  0
  5  4  1  0
  6  5  1  0
  6  1  1  0
  7 12  2  0
  8  7  1  0
  9 10  1  0
  9  8  2  0
 10 11  2  0
 11 13  1  0
 11 12  1  0
 14 13  1  0
 15 10  1  0
 15 14  1  0
 16  1  1  0
 16 21  1  0
 17 16  2  0
 18 17  1  0
 18 19  2  0
 19 20  1  0
 20 21  2  0
  2 22  1  0
  2 23  1  0
  3 24  1  0
  3 25  1  0
  4 26  1  0
  5 27  1  0
  5 28  1  0
  6 29  1  0
  6 30  1  0
  7 31  1  0
  9 32  1  0
 12 33  1  0
 14 34  1  0
 14 35  1  0
 17 36  1  0
 18 37  1  0
 38 39  1  0
 39 40  1  1
 39 41  1  0
 41 42  1  1
 41 43  1  0
 43 44  1  0
 44 45  1  0
 45 38  1  0
 39 46  1  0
 41 47  1  0
 44 48  1  0
 44 49  1  0
 45 50  1  0
 45 51  1  0
 20 38  1  0
M  ISO  8  22  13  23  13  24  13  25  13  26  13  27  13  28  13  29  13
M  ISO  8  30  13  31  14  32  14  33  14  34  13  35  13  36  14  37  14
M  ISO  2  40   8  42  15
M  END
>  <DihAtoms>  (1) 
18,19,37,38

>  <DihDeg>  (1) 
-0.08683368073062844

$$$$
