
 OpenBabel03272508463D

 39 43  0  0  0  0  0  0  0  0999 V2000
   35.5030   29.4910   49.5550 C   0  0  0  0  0  0  0  0  0  0  0  0
   36.5610   28.9870   50.2940 C   0  0  0  0  0  0  0  0  0  0  0  0
   37.6800   29.5280   49.6680 C   0  0  0  0  0  0  0  0  0  0  0  0
   37.2770   30.3020   48.6210 C   0  0  0  0  0  0  0  0  0  0  0  0
   35.9630   30.2530   48.5870 O   0  0  0  0  0  0  0  0  0  0  0  0
   36.5250   28.3280   51.1590 H   0  0  0  0  0  0  0  0  0  0  0  0
   38.6890   29.3490   49.9780 H   0  0  0  0  0  0  0  0  0  0  0  0
   38.6080   32.2890   48.0790 C   0  0  0  0  0  0  0  0  0  0  0  0
   38.1180   31.0550   47.6930 C   0  0  0  0  0  0  0  0  0  0  0  0
   38.4070   30.5220   46.4510 C   0  0  0  0  0  0  0  0  0  0  0  0
   39.2060   31.2270   45.5580 C   0  0  0  0  0  0  0  0  0  0  0  0
   39.6530   30.9750   44.3010 N   0  0  0  0  0  0  0  0  0  0  0  0
   40.3820   32.0160   43.9500 N   0  0  0  0  0  0  0  0  0  0  0  0
   40.4150   32.9280   44.9450 C   0  0  0  0  0  0  0  0  0  0  0  0
   39.6610   32.4430   45.9990 C   0  0  0  0  0  0  0  0  0  0  0  0
   39.4190   33.0340   47.2060 C   0  0  0  0  0  0  0  0  0  0  0  0
   38.3600   32.6770   49.0670 H   0  0  0  0  0  0  0  0  0  0  0  0
   38.0140   29.5550   46.1690 H   0  0  0  0  0  0  0  0  0  0  0  0
   39.4000   30.0850   43.8110 H   0  0  0  0  0  0  0  0  0  0  0  0
   40.9490   33.8690   44.8950 H   0  0  0  0  0  0  0  0  0  0  0  0
   39.7990   33.9810   47.4970 H   0  0  0  0  0  0  0  0  0  0  0  0
   34.1030   29.2060   49.8240 C   0  0  0  0  0  0  0  0  0  0  0  0
   33.5420   29.7960   50.7740 O   0  0  0  0  0  0  0  0  0  0  0  0
   31.3710   27.1900   48.4780 C   0  0  0  0  0  0  0  0  0  0  0  0
   31.9850   26.4590   47.4560 C   0  0  0  0  0  0  0  0  0  0  0  0
   33.3220   26.6580   47.2320 C   0  0  0  0  0  0  0  0  0  0  0  0
   34.0030   27.5350   47.9870 N   0  0  0  0  0  0  0  0  0  0  0  0
   33.3910   28.2460   48.9860 C   0  0  0  0  0  0  0  0  0  0  0  0
   32.0670   28.0620   49.2230 N   0  0  0  0  0  0  0  0  0  0  0  0
   30.3240   27.1110   48.7400 H   0  0  0  0  0  0  0  0  0  0  0  0
   31.3940   25.7800   46.8930 H   0  0  0  0  0  0  0  0  0  0  0  0
   34.0080   25.9490   46.2100 N   0  0  0  0  0  0  0  0  0  0  0  0
   34.3310   24.5450   46.3000 C   0  0  0  0  0  3  0  0  0  0  0  0
   34.4480   24.1520   47.3070 H   0  0  0  0  0  0  0  0  0  0  0  0
   35.6240   24.3210   45.5130 C   0  0  0  0  0  3  0  0  0  0  0  0
   35.9900   23.2760   45.6510 H   0  0  0  0  0  0  0  0  0  0  0  0
   35.4860   24.6540   44.1800 O   0  0  0  0  0  0  0  0  0  0  0  0
   34.5040   25.5700   43.9020 C   0  0  0  0  0  2  0  0  0  0  0  0
   34.4320   26.6150   44.9930 C   0  0  0  0  0  2  0  0  0  0  0  0
  1 22  1  0  0  0  0
  1  2  2  0  0  0  0
  2  6  1  0  0  0  0
  3  7  1  0  0  0  0
  3  2  1  0  0  0  0
  4  3  2  0  0  0  0
  5  4  1  0  0  0  0
  5  1  1  0  0  0  0
  8 17  1  0  0  0  0
  9  8  1  0  0  0  0
  9  4  1  0  0  0  0
 10  9  2  0  0  0  0
 11 15  2  0  0  0  0
 11 10  1  0  0  0  0
 12 11  1  0  0  0  0
 13 12  1  0  0  0  0
 13 14  2  0  0  0  0
 14 15  1  0  0  0  0
 15 16  1  0  0  0  0
 16 21  1  0  0  0  0
 16  8  2  0  0  0  0
 18 10  1  0  0  0  0
 19 12  1  0  0  0  0
 20 14  1  0  0  0  0
 22 23  2  0  0  0  0
 24 30  1  0  0  0  0
 24 29  1  0  0  0  0
 25 24  2  0  0  0  0
 26 25  1  0  0  0  0
 26 27  2  0  0  0  0
 27 28  1  0  0  0  0
 28 29  2  0  0  0  0
 28 22  1  0  0  0  0
 31 25  1  0  0  0  0
 32 33  1  0  0  0  0
 32 26  1  0  0  0  0
 33 34  1  0  0  0  0
 35 36  1  0  0  0  0
 35 33  1  0  0  0  0
 37 35  1  0  0  0  0
 38 37  1  0  0  0  0
 38 39  1  0  0  0  0
 39 32  1  0  0  0  0
M  END
>  <minimizedAffinity>
-6.17377901

>  <minimizedRMSD>
0.665267408

$$$$
