
 OpenBabel03272504313D

 39 42  0  0  0  0  0  0  0  0999 V2000
   35.3020   29.5850   47.6910 C   0  0  0  0  0  0  0  0  0  0  0  0
   35.5250   30.0480   46.4060 C   0  0  0  0  0  0  0  0  0  0  0  0
   34.5210   29.9770   45.4460 C   0  0  0  0  0  0  0  0  0  0  0  0
   33.3320   29.4400   45.8320 N   0  0  0  0  0  0  0  0  0  0  0  0
   33.1340   28.9940   47.0900 C   0  0  0  0  0  0  0  0  0  0  0  0
   34.1080   29.0590   48.0360 N   0  0  0  0  0  0  0  0  0  0  0  0
   36.4830   30.4610   46.1670 H   0  0  0  0  0  0  0  0  0  0  0  0
   34.6850   30.3310   44.4580 H   0  0  0  0  0  0  0  0  0  0  0  0
   31.8360   28.4220   47.4590 C   0  0  0  0  0  0  0  0  0  0  0  0
   31.7380   27.4670   48.4310 C   0  0  0  0  0  0  0  0  0  0  0  0
   30.5370   26.9030   48.8100 C   0  0  0  0  0  0  0  0  0  0  0  0
   29.4320   27.3630   48.1430 N   0  0  0  0  0  0  0  0  0  0  0  0
   29.5430   28.2950   47.1960 C   0  0  0  0  0  0  0  0  0  0  0  0
   30.7230   28.8380   46.8360 N   0  0  0  0  0  0  0  0  0  0  0  0
   32.6470   27.1420   48.9260 H   0  0  0  0  0  0  0  0  0  0  0  0
   30.5440   26.1540   49.5870 H   0  0  0  0  0  0  0  0  0  0  0  0
   28.3710   28.7470   46.5270 N   0  0  0  0  0  0  0  0  0  0  0  0
   28.3320   29.9460   45.7300 C   0  0  0  0  0  0  0  0  0  0  0  0
   28.5890   30.7950   46.3930 H   0  0  0  0  0  0  0  0  0  0  0  0
   26.8590   30.1740   45.3690 C   0  0  0  0  0  0  0  0  0  0  0  0
   26.3360   30.2980   46.3560 H   0  0  0  0  0  0  0  0  0  0  0  0
   26.3220   29.1270   44.6410 O   0  0  0  0  0  0  0  0  0  0  0  0
   26.6250   27.8850   45.1620 C   0  0  0  0  0  0  0  0  0  0  0  0
   27.1170   28.0210   46.6000 C   0  0  0  0  0  0  0  0  0  0  0  0
   36.2860   29.6270   48.7260 N   0  0  0  0  0  0  0  0  0  0  0  0
   36.1770   28.8660   49.9520 C   0  0  0  0  0  0  0  0  0  0  0  0
   36.5180   29.6250   51.1940 C   0  0  0  0  0  0  0  0  0  0  0  0
   37.4450   30.6810   51.0830 N   0  0  0  0  0  0  0  0  0  0  0  0
   37.3340   31.4260   49.8370 C   0  0  0  0  0  0  0  0  0  0  0  0
   37.4840   30.3840   48.7330 C   0  0  0  0  0  0  0  0  0  0  0  0
   36.8920   28.0040   49.8530 H   0  0  0  0  0  0  0  0  0  0  0  0
   35.1690   28.4020   50.0550 H   0  0  0  0  0  0  0  0  0  0  0  0
   35.5470   30.0300   51.6030 H   0  0  0  0  0  0  0  0  0  0  0  0
   36.8910   28.8920   51.9500 H   0  0  0  0  0  0  0  0  0  0  0  0
   37.3300   31.3270   51.8830 H   0  0  0  0  0  0  0  0  0  0  0  0
   38.1520   32.1720   49.8060 H   0  0  0  0  0  0  0  0  0  0  0  0
   36.3300   31.8520   49.7590 H   0  0  0  0  0  0  0  0  0  0  0  0
   37.5230   30.9630   47.7730 H   0  0  0  0  0  0  0  0  0  0  0  0
   38.3960   29.7760   48.8790 H   0  0  0  0  0  0  0  0  0  0  0  0
  1  6  1  0  0  0  0
  1 25  1  0  0  0  0
  2  1  2  0  0  0  0
  3  4  2  0  0  0  0
  3  2  1  0  0  0  0
  4  5  1  0  0  0  0
  5  9  1  0  0  0  0
  5  6  2  0  0  0  0
  7  2  1  0  0  0  0
  8  3  1  0  0  0  0
  9 10  1  0  0  0  0
 10 11  2  0  0  0  0
 10 15  1  0  0  0  0
 11 16  1  0  0  0  0
 12 11  1  0  0  0  0
 13 12  2  0  0  0  0
 14 13  1  0  0  0  0
 14  9  2  0  0  0  0
 17 24  1  0  0  0  0
 17 13  1  0  0  0  0
 18 19  1  0  0  0  0
 18 17  1  0  0  0  0
 20 18  1  0  0  0  0
 20 21  1  0  0  0  0
 22 23  1  0  0  0  0
 22 20  1  0  0  0  0
 23 24  1  0  0  0  0
 25 30  1  0  0  0  0
 25 26  1  0  0  0  0
 26 32  1  0  0  0  0
 26 27  1  0  0  0  0
 27 33  1  0  0  0  0
 27 34  1  0  0  0  0
 28 27  1  0  0  0  0
 28 35  1  0  0  0  0
 29 28  1  0  0  0  0
 30 39  1  0  0  0  0
 30 29  1  0  0  0  0
 31 26  1  0  0  0  0
 36 29  1  0  0  0  0
 37 29  1  0  0  0  0
 38 30  1  0  0  0  0
M  END
>  <minimizedAffinity>
-5.58594227

>  <minimizedRMSD>
0.313327849

$$$$
