
 OpenBabel03272510183D

 35 38  0  0  0  0  0  0  0  0999 V2000
   37.2250   29.2880   50.9330 Br  0  0  0  0  0  0  0  0  0  0  0  0
   35.8800   29.3240   49.5860 C   0  0  0  0  0  0  0  0  0  0  0  0
   35.9250   30.2770   48.5570 C   0  0  0  0  0  0  0  0  0  0  0  0
   34.9220   30.2440   47.6220 C   0  0  0  0  0  0  0  0  0  0  0  0
   33.8830   29.3240   47.6470 C   0  0  0  0  0  0  0  0  0  0  0  0
   33.8710   28.4070   48.6630 C   0  0  0  0  0  0  0  0  0  0  0  0
   34.8640   28.4210   49.6150 C   0  0  0  0  0  0  0  0  0  0  0  0
   34.9100   30.9590   46.8050 H   0  0  0  0  0  0  0  0  0  0  0  0
   33.0760   27.6700   48.7220 H   0  0  0  0  0  0  0  0  0  0  0  0
   34.8500   27.6930   50.4180 H   0  0  0  0  0  0  0  0  0  0  0  0
   32.8220   29.2900   46.6560 C   0  0  0  0  0  0  0  0  0  0  0  0
   32.0280   28.2000   46.3870 C   0  0  0  0  0  0  0  0  0  0  0  0
   31.0270   28.2120   45.4320 C   0  0  0  0  0  0  0  0  0  0  0  0
   30.8060   29.3360   44.7210 N   0  0  0  0  0  0  0  0  0  0  0  0
   31.5770   30.3970   44.9800 C   0  0  0  0  0  0  0  0  0  0  0  0
   32.5350   30.3700   45.9010 N   0  0  0  0  0  0  0  0  0  0  0  0
   32.2040   27.2860   46.9600 H   0  0  0  0  0  0  0  0  0  0  0  0
   30.4440   27.3010   45.2830 H   0  0  0  0  0  0  0  0  0  0  0  0
   31.3580   31.5890   44.2420 N   0  0  0  0  0  0  0  0  0  0  0  0
   31.4760   31.6590   42.8000 C   0  0  0  0  0  3  0  0  0  0  0  0
   30.4430   31.7700   42.3720 H   0  0  0  0  0  0  0  0  0  0  0  0
   32.3460   32.8540   42.3910 C   0  0  0  0  0  3  0  0  0  0  0  0
   33.4020   32.5780   42.5340 H   0  0  0  0  0  0  0  0  0  0  0  0
   32.0070   33.9970   43.0820 O   0  0  0  0  0  0  0  0  0  0  0  0
   32.0790   33.8360   44.4490 C   0  0  0  0  0  2  0  0  0  0  0  0
   30.9970   32.8450   44.8690 C   0  0  0  0  0  2  0  0  0  0  0  0
   37.9790   33.1520   49.4460 C   0  0  0  0  0  0  0  0  0  0  0  0
   39.0070   33.1340   48.4410 C   0  0  0  0  0  0  0  0  0  0  0  0
   38.9600   32.1360   47.4900 C   0  0  0  0  0  0  0  0  0  0  0  0
   37.9500   31.2100   47.5400 N   0  0  0  0  0  0  0  0  0  0  0  0
   36.9920   31.2500   48.4990 C   0  0  0  0  0  0  0  0  0  0  0  0
   37.0230   32.2250   49.4410 N   0  0  0  0  0  0  0  0  0  0  0  0
   37.9700   33.9130   50.2140 H   0  0  0  0  0  0  0  0  0  0  0  0
   39.7720   33.8990   48.4660 H   0  0  0  0  0  0  0  0  0  0  0  0
   39.7180   32.0880   46.7140 H   0  0  0  0  0  0  0  0  0  0  0  0
  2  7  1  0  0  0  0
  2  1  1  0  0  0  0
  3  2  2  0  0  0  0
  4  5  2  0  0  0  0
  4  3  1  0  0  0  0
  5  6  1  0  0  0  0
  6  9  1  0  0  0  0
  6  7  2  0  0  0  0
  7 10  1  0  0  0  0
  8  4  1  0  0  0  0
 11  5  1  0  0  0  0
 12 11  1  0  0  0  0
 12 17  1  0  0  0  0
 13 12  2  0  0  0  0
 14 15  2  0  0  0  0
 14 13  1  0  0  0  0
 15 16  1  0  0  0  0
 16 11  2  0  0  0  0
 18 13  1  0  0  0  0
 19 26  1  0  0  0  0
 19 15  1  0  0  0  0
 20 19  1  0  0  0  0
 21 20  1  0  0  0  0
 22 23  1  0  0  0  0
 22 20  1  0  0  0  0
 22 24  1  0  0  0  0
 24 25  1  0  0  0  0
 25 26  1  0  0  0  0
 27 33  1  0  0  0  0
 28 34  1  0  0  0  0
 28 27  2  0  0  0  0
 29 30  2  0  0  0  0
 29 28  1  0  0  0  0
 30 31  1  0  0  0  0
 31  3  1  0  0  0  0
 31 32  2  0  0  0  0
 32 27  1  0  0  0  0
 35 29  1  0  0  0  0
M  END
>  <minimizedAffinity>
-6.61928034

>  <minimizedRMSD>
0.374536484

$$$$
