
 OpenBabel03272510193D

 35 38  0  0  0  0  0  0  0  0999 V2000
   37.2190   29.2710   50.9540 Br  0  0  0  0  0  0  0  0  0  0  0  0
   35.8950   29.2990   49.5860 C   0  0  0  0  0  0  0  0  0  0  0  0
   35.9460   30.2560   48.5620 C   0  0  0  0  0  0  0  0  0  0  0  0
   34.9580   30.2170   47.6100 C   0  0  0  0  0  0  0  0  0  0  0  0
   33.9280   29.2880   47.6170 C   0  0  0  0  0  0  0  0  0  0  0  0
   33.9080   28.3670   48.6290 C   0  0  0  0  0  0  0  0  0  0  0  0
   34.8870   28.3860   49.5960 C   0  0  0  0  0  0  0  0  0  0  0  0
   34.9520   30.9350   46.7970 H   0  0  0  0  0  0  0  0  0  0  0  0
   33.1200   27.6230   48.6720 H   0  0  0  0  0  0  0  0  0  0  0  0
   34.8670   27.6560   50.3960 H   0  0  0  0  0  0  0  0  0  0  0  0
   32.8840   29.2470   46.6080 C   0  0  0  0  0  0  0  0  0  0  0  0
   32.3720   28.1010   46.0470 C   0  0  0  0  0  0  0  0  0  0  0  0
   31.3750   28.1090   45.0880 C   0  0  0  0  0  0  0  0  0  0  0  0
   30.8690   29.2870   44.6710 N   0  0  0  0  0  0  0  0  0  0  0  0
   31.3650   30.4030   45.2150 C   0  0  0  0  0  0  0  0  0  0  0  0
   32.3230   30.3790   46.1360 N   0  0  0  0  0  0  0  0  0  0  0  0
   32.7800   27.1430   46.3810 H   0  0  0  0  0  0  0  0  0  0  0  0
   31.0280   27.1510   44.6950 H   0  0  0  0  0  0  0  0  0  0  0  0
   30.8430   31.6520   44.7890 N   0  0  0  0  0  0  0  0  0  0  0  0
   29.4250   31.9070   44.6330 C   0  0  0  0  0  3  0  0  0  0  0  0
   29.1030   32.5940   45.4600 H   0  0  0  0  0  0  0  0  0  0  0  0
   29.1450   32.5530   43.2700 C   0  0  0  0  0  3  0  0  0  0  0  0
   29.1600   31.7650   42.5040 H   0  0  0  0  0  0  0  0  0  0  0  0
   30.0330   33.5710   42.9920 O   0  0  0  0  0  0  0  0  0  0  0  0
   31.3470   33.1590   43.0310 C   0  0  0  0  0  2  0  0  0  0  0  0
   31.6870   32.7890   44.4730 C   0  0  0  0  0  2  0  0  0  0  0  0
   37.9540   33.1530   49.4880 C   0  0  0  0  0  0  0  0  0  0  0  0
   39.0020   33.1430   48.5040 C   0  0  0  0  0  0  0  0  0  0  0  0
   38.9850   32.1430   47.5540 C   0  0  0  0  0  0  0  0  0  0  0  0
   37.9830   31.2080   47.5850 N   0  0  0  0  0  0  0  0  0  0  0  0
   37.0050   31.2390   48.5240 C   0  0  0  0  0  0  0  0  0  0  0  0
   37.0070   32.2160   49.4650 N   0  0  0  0  0  0  0  0  0  0  0  0
   37.9220   33.9150   50.2540 H   0  0  0  0  0  0  0  0  0  0  0  0
   39.7600   33.9150   48.5440 H   0  0  0  0  0  0  0  0  0  0  0  0
   39.7590   32.1010   46.7940 H   0  0  0  0  0  0  0  0  0  0  0  0
  2  7  1  0  0  0  0
  2  1  1  0  0  0  0
  3  2  2  0  0  0  0
  4  5  2  0  0  0  0
  4  3  1  0  0  0  0
  5  6  1  0  0  0  0
  6  9  1  0  0  0  0
  6  7  2  0  0  0  0
  7 10  1  0  0  0  0
  8  4  1  0  0  0  0
 11  5  1  0  0  0  0
 12 17  1  0  0  0  0
 12 11  2  0  0  0  0
 13 12  1  0  0  0  0
 14 13  2  0  0  0  0
 14 15  1  0  0  0  0
 15 16  2  0  0  0  0
 16 11  1  0  0  0  0
 18 13  1  0  0  0  0
 19 15  1  0  0  0  0
 20 19  1  0  0  0  0
 20 21  1  0  0  0  0
 22 20  1  0  0  0  0
 23 22  1  0  0  0  0
 24 25  1  0  0  0  0
 24 22  1  0  0  0  0
 25 26  1  0  0  0  0
 26 19  1  0  0  0  0
 27 33  1  0  0  0  0
 28 34  1  0  0  0  0
 28 27  2  0  0  0  0
 29 30  2  0  0  0  0
 29 28  1  0  0  0  0
 30 31  1  0  0  0  0
 31  3  1  0  0  0  0
 31 32  2  0  0  0  0
 32 27  1  0  0  0  0
 35 29  1  0  0  0  0
M  END
>  <minimizedAffinity>
-6.71184731

>  <minimizedRMSD>
0.301831037

$$$$
