
 OpenBabel03272510183D

 35 38  0  0  0  0  0  0  0  0999 V2000
   37.2470   29.2800   50.9250 Br  0  0  0  0  0  0  0  0  0  0  0  0
   35.8920   29.3130   49.5870 C   0  0  0  0  0  0  0  0  0  0  0  0
   35.9290   30.2650   48.5570 C   0  0  0  0  0  0  0  0  0  0  0  0
   34.9200   30.2300   47.6280 C   0  0  0  0  0  0  0  0  0  0  0  0
   33.8820   29.3100   47.6620 C   0  0  0  0  0  0  0  0  0  0  0  0
   33.8770   28.3940   48.6790 C   0  0  0  0  0  0  0  0  0  0  0  0
   34.8770   28.4090   49.6240 C   0  0  0  0  0  0  0  0  0  0  0  0
   34.9020   30.9440   46.8110 H   0  0  0  0  0  0  0  0  0  0  0  0
   33.0840   27.6570   48.7440 H   0  0  0  0  0  0  0  0  0  0  0  0
   34.8690   27.6830   50.4280 H   0  0  0  0  0  0  0  0  0  0  0  0
   32.8150   29.2730   46.6780 C   0  0  0  0  0  0  0  0  0  0  0  0
   32.0260   28.1800   46.4080 C   0  0  0  0  0  0  0  0  0  0  0  0
   31.0190   28.1900   45.4610 C   0  0  0  0  0  0  0  0  0  0  0  0
   30.7840   29.3160   44.7570 N   0  0  0  0  0  0  0  0  0  0  0  0
   31.5500   30.3810   45.0180 C   0  0  0  0  0  0  0  0  0  0  0  0
   32.5150   30.3560   45.9320 N   0  0  0  0  0  0  0  0  0  0  0  0
   32.2130   27.2640   46.9750 H   0  0  0  0  0  0  0  0  0  0  0  0
   30.4410   27.2750   45.3110 H   0  0  0  0  0  0  0  0  0  0  0  0
   31.3160   31.5760   44.2880 N   0  0  0  0  0  0  0  0  0  0  0  0
   31.1120   31.6000   42.8540 C   0  0  0  0  0  3  0  0  0  0  0  0
   30.0310   31.8360   42.6620 H   0  0  0  0  0  0  0  0  0  0  0  0
   32.0070   32.6610   42.2030 C   0  0  0  0  0  3  0  0  0  0  0  0
   33.0250   32.2520   42.1200 H   0  0  0  0  0  0  0  0  0  0  0  0
   31.9760   33.8540   42.8940 O   0  0  0  0  0  0  0  0  0  0  0  0
   32.3360   33.7130   44.2170 C   0  0  0  0  0  2  0  0  0  0  0  0
   31.2630   32.8820   44.9160 C   0  0  0  0  0  2  0  0  0  0  0  0
   37.9800   33.1500   49.4220 C   0  0  0  0  0  0  0  0  0  0  0  0
   39.0080   33.1260   48.4160 C   0  0  0  0  0  0  0  0  0  0  0  0
   38.9620   32.1200   47.4730 C   0  0  0  0  0  0  0  0  0  0  0  0
   37.9520   31.1940   47.5310 N   0  0  0  0  0  0  0  0  0  0  0  0
   36.9950   31.2390   48.4910 C   0  0  0  0  0  0  0  0  0  0  0  0
   37.0250   32.2210   49.4250 N   0  0  0  0  0  0  0  0  0  0  0  0
   37.9710   33.9170   50.1840 H   0  0  0  0  0  0  0  0  0  0  0  0
   39.7720   33.8910   48.4350 H   0  0  0  0  0  0  0  0  0  0  0  0
   39.7180   32.0670   46.6970 H   0  0  0  0  0  0  0  0  0  0  0  0
  2  7  1  0  0  0  0
  2  1  1  0  0  0  0
  3  2  2  0  0  0  0
  4  5  2  0  0  0  0
  4  3  1  0  0  0  0
  5  6  1  0  0  0  0
  6  9  1  0  0  0  0
  6  7  2  0  0  0  0
  7 10  1  0  0  0  0
  8  4  1  0  0  0  0
 11  5  1  0  0  0  0
 12 11  1  0  0  0  0
 12 17  1  0  0  0  0
 13 12  2  0  0  0  0
 14 15  2  0  0  0  0
 14 13  1  0  0  0  0
 15 16  1  0  0  0  0
 16 11  2  0  0  0  0
 18 13  1  0  0  0  0
 19 26  1  0  0  0  0
 19 15  1  0  0  0  0
 20 19  1  0  0  0  0
 21 20  1  0  0  0  0
 22 20  1  0  0  0  0
 22 24  1  0  0  0  0
 23 22  1  0  0  0  0
 24 25  1  0  0  0  0
 25 26  1  0  0  0  0
 27 32  1  0  0  0  0
 27 33  1  0  0  0  0
 28 34  1  0  0  0  0
 28 27  2  0  0  0  0
 29 30  2  0  0  0  0
 29 28  1  0  0  0  0
 30 31  1  0  0  0  0
 31  3  1  0  0  0  0
 31 32  2  0  0  0  0
 35 29  1  0  0  0  0
M  END
>  <minimizedAffinity>
-6.53304434

>  <minimizedRMSD>
0.33193469

$$$$
