
 OpenBabel03262520413D

 45 48  0  0  1  0  0  0  0  0999 V2000
   39.1780   25.5030   31.7730 C   0  0  2  0  0  0  0  0  0  0  0  0
   40.0480   25.0730   30.6470 C   0  0  0  0  0  0  0  0  0  0  0  0
   41.0270   23.9730   31.0540 C   0  0  0  0  0  0  0  0  0  0  0  0
   41.9220   24.4500   32.1750 C   0  0  0  0  0  0  0  0  0  0  0  0
   41.1800   25.1950   33.2520 C   0  0  0  0  0  0  0  0  0  0  0  0
   39.6830   25.0080   33.1150 C   0  0  1  0  0  0  0  0  0  0  0  0
   39.1240   26.6240   31.8940 H   0  0  0  0  0  0  0  0  0  0  0  0
   39.6850   24.8010   29.7030 H   0  0  0  0  0  0  0  0  0  0  0  0
   40.7550   25.9640   30.4590 H   0  0  0  0  0  0  0  0  0  0  0  0
   41.6610   23.8080   30.1510 H   0  0  0  0  0  0  0  0  0  0  0  0
   40.5000   23.0460   31.3250 H   0  0  0  0  0  0  0  0  0  0  0  0
   42.7240   25.0780   31.7110 H   0  0  0  0  0  0  0  0  0  0  0  0
   42.4340   23.5600   32.5760 H   0  0  0  0  0  0  0  0  0  0  0  0
   41.4940   24.9870   34.2710 H   0  0  0  0  0  0  0  0  0  0  0  0
   41.3620   26.2820   33.0460 H   0  0  0  0  0  0  0  0  0  0  0  0
   39.5020   23.9160   33.1900 H   0  0  0  0  0  0  0  0  0  0  0  0
   38.9980   25.6680   34.1730 N   0  0  2  0  0  0  0  0  0  0  0  0
   39.4660   27.0070   34.4870 C   0  0  0  0  0  0  0  0  0  0  0  0
   38.7350   27.2860   35.8050 C   0  0  0  0  0  0  0  0  0  0  0  0
   38.1610   25.9420   36.2640 C   0  0  0  0  0  0  0  0  0  0  0  0
   39.0630   25.0350   35.4320 C   0  0  1  0  0  0  0  0  0  0  0  0
   40.5520   27.0050   34.7290 H   0  0  0  0  0  0  0  0  0  0  0  0
   39.2150   27.7520   33.7130 H   0  0  0  0  0  0  0  0  0  0  0  0
   37.9480   28.0260   35.5800 H   0  0  0  0  0  0  0  0  0  0  0  0
   39.4140   27.7210   36.5570 H   0  0  0  0  0  0  0  0  0  0  0  0
   38.3570   25.8870   37.3400 H   0  0  0  0  0  0  0  0  0  0  0  0
   37.1220   25.9570   35.9470 H   0  0  0  0  0  0  0  0  0  0  0  0
   40.1080   25.3040   35.8940 H   0  0  0  0  0  0  0  0  0  0  0  0
   38.9530   23.6720   35.5790 N   0  0  1  0  0  0  0  0  0  0  0  0
   40.1860   23.0340   36.0700 C   0  0  0  0  0  3  0  0  0  0  0  0
   40.3040   22.1090   35.4720 H   0  0  0  0  0  0  0  0  0  0  0  0
   39.9710   22.5970   37.5120 C   0  0  0  0  0  3  0  0  0  0  0  0
   39.5100   21.5890   37.5590 H   0  0  0  0  0  0  0  0  0  0  0  0
   39.1250   23.4700   38.1880 O   0  0  0  0  0  0  0  0  0  0  0  0
   37.8190   23.2270   37.7020 C   0  0  0  0  0  2  0  0  0  0  0  0
   37.8790   23.0150   36.1980 C   0  0  0  0  0  2  0  0  0  0  0  0
   37.7780   25.0570   31.6340 C   0  0  0  0  0  0  0  0  0  0  0  0
   36.8600   26.0820   31.3110 C   0  0  0  0  0  0  0  0  0  0  0  0
   35.5520   25.7180   31.1120 C   0  0  0  0  0  0  0  0  0  0  0  0
   35.1860   24.4040   31.2340 N   0  0  0  0  0  0  0  0  0  0  0  0
   36.0930   23.4350   31.5500 C   0  0  0  0  0  0  0  0  0  0  0  0
   37.3740   23.7830   31.7450 N   0  0  0  0  0  0  0  0  0  0  0  0
   36.9050   27.1350   31.1630 H   0  0  0  0  0  0  0  0  0  0  0  0
   34.6880   26.3120   30.8600 H   0  0  0  0  0  0  0  0  0  0  0  0
   35.7220   22.4060   31.6310 H   0  0  0  0  0  0  0  0  0  0  0  0
  1  7  1  1  0  0  0
  1  6  1  0  0  0  0
  2  3  1  0  0  0  0
  2  1  1  0  0  0  0
  3 11  1  0  0  0  0
  3  4  1  0  0  0  0
  4 13  1  0  0  0  0
  4  5  1  0  0  0  0
  5 14  1  0  0  0  0
  6 16  1  1  0  0  0
  6  5  1  0  0  0  0
  6 17  1  0  0  0  0
  8  2  1  0  0  0  0
  9  2  1  0  0  0  0
 10  3  1  0  0  0  0
 12  4  1  0  0  0  0
 15  5  1  0  0  0  0
 17 18  1  1  0  0  0
 17 21  1  0  0  0  0
 18 22  1  0  0  0  0
 18 19  1  0  0  0  0
 19 20  1  0  0  0  0
 19 25  1  0  0  0  0
 20 26  1  0  0  0  0
 21 29  1  0  0  0  0
 21 28  1  1  0  0  0
 21 20  1  0  0  0  0
 23 18  1  0  0  0  0
 24 19  1  0  0  0  0
 27 20  1  0  0  0  0
 29 30  1  0  0  0  0
 29 36  1  1  0  0  0
 30 32  1  0  0  0  0
 31 30  1  0  0  0  0
 32 33  1  0  0  0  0
 32 34  1  0  0  0  0
 35 34  1  0  0  0  0
 36 35  1  0  0  0  0
 37 42  1  0  0  0  0
 37  1  1  0  0  0  0
 38 37  2  0  0  0  0
 39 40  2  0  0  0  0
 39 38  1  0  0  0  0
 40 41  1  0  0  0  0
 41 45  1  0  0  0  0
 41 42  2  0  0  0  0
 43 38  1  0  0  0  0
 44 39  1  0  0  0  0
M  END
>  <minimizedAffinity>
-5.26305628

$$$$

 OpenBabel03262520413D

 45 48  0  0  1  0  0  0  0  0999 V2000
   38.8350   27.0030   32.0750 C   0  0  2  0  0  0  0  0  0  0  0  0
   39.6250   27.5420   30.9380 C   0  0  0  0  0  0  0  0  0  0  0  0
   41.0810   27.0820   30.9690 C   0  0  0  0  0  0  0  0  0  0  0  0
   41.7490   27.5290   32.2500 C   0  0  0  0  0  0  0  0  0  0  0  0
   40.8950   27.3160   33.4700 C   0  0  0  0  0  0  0  0  0  0  0  0
   39.7150   26.4180   33.1640 C   0  0  1  0  0  0  0  0  0  0  0  0
   38.2220   27.7870   32.6070 H   0  0  0  0  0  0  0  0  0  0  0  0
   39.3230   27.4760   29.9370 H   0  0  0  0  0  0  0  0  0  0  0  0
   39.7260   28.6700   31.1530 H   0  0  0  0  0  0  0  0  0  0  0  0
   41.5680   27.6180   30.1200 H   0  0  0  0  0  0  0  0  0  0  0  0
   41.1620   25.9940   30.8300 H   0  0  0  0  0  0  0  0  0  0  0  0
   42.0270   28.6050   32.1180 H   0  0  0  0  0  0  0  0  0  0  0  0
   42.7030   26.9820   32.3210 H   0  0  0  0  0  0  0  0  0  0  0  0
   41.4180   26.9640   34.3560 H   0  0  0  0  0  0  0  0  0  0  0  0
   40.4500   28.3190   33.7050 H   0  0  0  0  0  0  0  0  0  0  0  0
   40.1440   25.4600   32.8080 H   0  0  0  0  0  0  0  0  0  0  0  0
   38.9510   26.1780   34.3390 N   0  0  2  0  0  0  0  0  0  0  0  0
   38.8830   27.2810   35.2820 C   0  0  0  0  0  0  0  0  0  0  0  0
   38.2570   26.6010   36.5050 C   0  0  0  0  0  0  0  0  0  0  0  0
   38.3180   25.0960   36.2310 C   0  0  0  0  0  0  0  0  0  0  0  0
   39.4050   25.1230   35.1600 C   0  0  1  0  0  0  0  0  0  0  0  0
   39.9010   27.6050   35.5940 H   0  0  0  0  0  0  0  0  0  0  0  0
   38.2700   28.1260   34.9250 H   0  0  0  0  0  0  0  0  0  0  0  0
   37.2210   26.9740   36.5800 H   0  0  0  0  0  0  0  0  0  0  0  0
   38.7890   26.8720   37.4320 H   0  0  0  0  0  0  0  0  0  0  0  0
   38.6420   24.6360   37.1700 H   0  0  0  0  0  0  0  0  0  0  0  0
   37.3300   24.8360   35.8630 H   0  0  0  0  0  0  0  0  0  0  0  0
   40.3030   25.5440   35.7870 H   0  0  0  0  0  0  0  0  0  0  0  0
   39.8600   23.9330   34.6440 N   0  0  1  0  0  0  0  0  0  0  0  0
   41.3290   23.8240   34.6300 C   0  0  0  0  0  3  0  0  0  0  0  0
   41.5880   23.3730   33.6530 H   0  0  0  0  0  0  0  0  0  0  0  0
   41.7570   22.8280   35.6990 C   0  0  0  0  0  3  0  0  0  0  0  0
   41.7440   21.7910   35.3050 H   0  0  0  0  0  0  0  0  0  0  0  0
   40.9060   22.8630   36.7980 O   0  0  0  0  0  0  0  0  0  0  0  0
   39.7030   22.2350   36.4010 C   0  0  0  0  0  2  0  0  0  0  0  0
   39.3610   22.6660   34.9840 C   0  0  0  0  0  2  0  0  0  0  0  0
   37.8710   25.9590   31.6760 C   0  0  0  0  0  0  0  0  0  0  0  0
   36.5190   26.3670   31.6880 C   0  0  0  0  0  0  0  0  0  0  0  0
   35.5800   25.4570   31.2710 C   0  0  0  0  0  0  0  0  0  0  0  0
   35.9760   24.2090   30.8680 N   0  0  0  0  0  0  0  0  0  0  0  0
   37.2900   23.8400   30.8690 C   0  0  0  0  0  0  0  0  0  0  0  0
   38.2130   24.7260   31.2750 N   0  0  0  0  0  0  0  0  0  0  0  0
   35.9850   27.2520   31.9470 H   0  0  0  0  0  0  0  0  0  0  0  0
   34.5070   25.5380   31.1930 H   0  0  0  0  0  0  0  0  0  0  0  0
   37.5280   22.8230   30.5340 H   0  0  0  0  0  0  0  0  0  0  0  0
  1  7  1  1  0  0  0
  1  6  1  0  0  0  0
  2  3  1  0  0  0  0
  2  9  1  0  0  0  0
  2  1  1  0  0  0  0
  3  4  1  0  0  0  0
  4 13  1  0  0  0  0
  4  5  1  0  0  0  0
  5 15  1  0  0  0  0
  5 14  1  0  0  0  0
  6 16  1  6  0  0  0
  6  5  1  0  0  0  0
  6 17  1  0  0  0  0
  8  2  1  0  0  0  0
 10  3  1  0  0  0  0
 11  3  1  0  0  0  0
 12  4  1  0  0  0  0
 17 21  1  0  0  0  0
 17 18  1  1  0  0  0
 18 22  1  0  0  0  0
 18 19  1  0  0  0  0
 19 24  1  0  0  0  0
 19 25  1  0  0  0  0
 20 19  1  0  0  0  0
 20 26  1  0  0  0  0
 21 28  1  1  0  0  0
 21 20  1  0  0  0  0
 23 18  1  0  0  0  0
 27 20  1  0  0  0  0
 29 36  1  1  0  0  0
 29 21  1  0  0  0  0
 30 29  1  0  0  0  0
 30 32  1  0  0  0  0
 31 30  1  0  0  0  0
 32 34  1  0  0  0  0
 33 32  1  0  0  0  0
 35 34  1  0  0  0  0
 36 35  1  0  0  0  0
 37 38  1  0  0  0  0
 37  1  1  0  0  0  0
 38 43  1  0  0  0  0
 39 38  2  0  0  0  0
 40 41  2  0  0  0  0
 40 39  1  0  0  0  0
 41 42  1  0  0  0  0
 42 37  2  0  0  0  0
 44 39  1  0  0  0  0
 45 41  1  0  0  0  0
M  END
>  <minimizedAffinity>
-4.9996171

$$$$

 OpenBabel03262520413D

 45 48  0  0  1  0  0  0  0  0999 V2000
   35.9680   28.2370   31.5880 C   0  0  2  0  0  0  0  0  0  0  0  0
   36.7800   28.3660   30.3500 C   0  0  0  0  0  0  0  0  0  0  0  0
   37.4130   29.7500   30.2090 C   0  0  0  0  0  0  0  0  0  0  0  0
   36.3430   30.8180   30.1750 C   0  0  0  0  0  0  0  0  0  0  0  0
   35.2660   30.6140   31.2060 C   0  0  0  0  0  0  0  0  0  0  0  0
   35.6790   29.5800   32.2320 C   0  0  1  0  0  0  0  0  0  0  0  0
   34.9460   27.7910   31.4080 H   0  0  0  0  0  0  0  0  0  0  0  0
   37.5200   27.6820   30.0670 H   0  0  0  0  0  0  0  0  0  0  0  0
   36.0140   28.3650   29.4880 H   0  0  0  0  0  0  0  0  0  0  0  0
   37.9170   29.7330   29.2140 H   0  0  0  0  0  0  0  0  0  0  0  0
   38.1470   29.9400   31.0070 H   0  0  0  0  0  0  0  0  0  0  0  0
   35.9270   30.8340   29.1360 H   0  0  0  0  0  0  0  0  0  0  0  0
   36.8530   31.7860   30.3070 H   0  0  0  0  0  0  0  0  0  0  0  0
   34.9100   31.5140   31.7000 H   0  0  0  0  0  0  0  0  0  0  0  0
   34.4040   30.1550   30.6540 H   0  0  0  0  0  0  0  0  0  0  0  0
   36.6080   29.9650   32.6990 H   0  0  0  0  0  0  0  0  0  0  0  0
   34.6770   29.4410   33.2330 N   0  0  2  0  0  0  0  0  0  0  0  0
   33.3230   29.2470   32.7450 C   0  0  0  0  0  0  0  0  0  0  0  0
   32.5060   29.4250   34.0300 C   0  0  0  0  0  0  0  0  0  0  0  0
   33.4690   30.0100   35.0670 C   0  0  0  0  0  0  0  0  0  0  0  0
   34.5200   30.5450   34.0980 C   0  0  1  0  0  0  0  0  0  0  0  0
   33.0190   30.0770   32.0670 H   0  0  0  0  0  0  0  0  0  0  0  0
   33.1580   28.2570   32.2880 H   0  0  0  0  0  0  0  0  0  0  0  0
   32.1390   28.4230   34.3130 H   0  0  0  0  0  0  0  0  0  0  0  0
   31.6330   30.0780   33.8640 H   0  0  0  0  0  0  0  0  0  0  0  0
   32.9080   30.7970   35.5820 H   0  0  0  0  0  0  0  0  0  0  0  0
   33.7940   29.1600   35.6600 H   0  0  0  0  0  0  0  0  0  0  0  0
   33.8800   31.3410   33.5190 H   0  0  0  0  0  0  0  0  0  0  0  0
   35.5900   31.2470   34.5990 N   0  0  1  0  0  0  0  0  0  0  0  0
   35.7110   32.6060   34.0430 C   0  0  0  0  0  3  0  0  0  0  0  0
   36.7900   32.7540   33.8430 H   0  0  0  0  0  0  0  0  0  0  0  0
   35.3230   33.6110   35.1190 C   0  0  0  0  0  3  0  0  0  0  0  0
   36.1940   33.8670   35.7560 H   0  0  0  0  0  0  0  0  0  0  0  0
   34.3320   33.1070   35.9540 O   0  0  0  0  0  0  0  0  0  0  0  0
   34.9520   32.1450   36.7850 C   0  0  0  0  0  2  0  0  0  0  0  0
   35.9320   31.3300   35.9570 C   0  0  0  0  0  2  0  0  0  0  0  0
   36.5940   27.3790   32.6130 C   0  0  0  0  0  0  0  0  0  0  0  0
   37.0210   28.0600   33.7740 C   0  0  0  0  0  0  0  0  0  0  0  0
   37.5590   27.3060   34.7860 C   0  0  0  0  0  0  0  0  0  0  0  0
   37.6630   25.9480   34.6410 N   0  0  0  0  0  0  0  0  0  0  0  0
   37.2440   25.3160   33.5060 C   0  0  0  0  0  0  0  0  0  0  0  0
   36.7170   26.0470   32.5120 N   0  0  0  0  0  0  0  0  0  0  0  0
   37.0410   29.0710   34.1090 H   0  0  0  0  0  0  0  0  0  0  0  0
   37.9460   27.5960   35.7500 H   0  0  0  0  0  0  0  0  0  0  0  0
   37.3630   24.2260   33.4640 H   0  0  0  0  0  0  0  0  0  0  0  0
  1  7  1  6  0  0  0
  1  6  1  0  0  0  0
  1 37  1  0  0  0  0
  2  1  1  0  0  0  0
  3  2  1  0  0  0  0
  3 11  1  0  0  0  0
  4  3  1  0  0  0  0
  4 13  1  0  0  0  0
  4  5  1  0  0  0  0
  5 14  1  0  0  0  0
  5  6  1  0  0  0  0
  6 16  1  1  0  0  0
  6 17  1  0  0  0  0
  8  2  1  0  0  0  0
  9  2  1  0  0  0  0
 10  3  1  0  0  0  0
 12  4  1  0  0  0  0
 15  5  1  0  0  0  0
 17 18  1  6  0  0  0
 17 21  1  0  0  0  0
 18 19  1  0  0  0  0
 19 24  1  0  0  0  0
 19 20  1  0  0  0  0
 20 26  1  0  0  0  0
 20 27  1  0  0  0  0
 21 28  1  6  0  0  0
 21 29  1  0  0  0  0
 21 20  1  0  0  0  0
 22 18  1  0  0  0  0
 23 18  1  0  0  0  0
 25 19  1  0  0  0  0
 29 36  1  1  0  0  0
 30 29  1  0  0  0  0
 30 32  1  0  0  0  0
 31 30  1  0  0  0  0
 32 33  1  0  0  0  0
 32 34  1  0  0  0  0
 34 35  1  0  0  0  0
 36 35  1  0  0  0  0
 37 38  1  0  0  0  0
 38 43  1  0  0  0  0
 38 39  2  0  0  0  0
 39 44  1  0  0  0  0
 40 39  1  0  0  0  0
 41 40  2  0  0  0  0
 42 37  2  0  0  0  0
 42 41  1  0  0  0  0
 45 41  1  0  0  0  0
M  END
>  <minimizedAffinity>
-4.9824295

$$$$

 OpenBabel03262520413D

 45 48  0  0  1  0  0  0  0  0999 V2000
   39.0130   26.0210   34.4260 C   0  0  2  0  0  0  0  0  0  0  0  0
   38.4650   27.1360   35.2430 C   0  0  0  0  0  0  0  0  0  0  0  0
   37.0240   27.4790   34.8680 C   0  0  0  0  0  0  0  0  0  0  0  0
   36.9380   27.8840   33.4140 C   0  0  0  0  0  0  0  0  0  0  0  0
   37.7310   26.9900   32.5000 C   0  0  0  0  0  0  0  0  0  0  0  0
   38.1570   25.7220   33.2090 C   0  0  1  0  0  0  0  0  0  0  0  0
   40.0340   26.2390   33.9990 H   0  0  0  0  0  0  0  0  0  0  0  0
   38.5050   27.1640   36.2880 H   0  0  0  0  0  0  0  0  0  0  0  0
   39.0340   28.0730   34.8880 H   0  0  0  0  0  0  0  0  0  0  0  0
   36.7720   28.3700   35.4910 H   0  0  0  0  0  0  0  0  0  0  0  0
   36.3400   26.6470   35.0960 H   0  0  0  0  0  0  0  0  0  0  0  0
   37.2750   28.9500   33.3490 H   0  0  0  0  0  0  0  0  0  0  0  0
   35.8690   27.8930   33.1470 H   0  0  0  0  0  0  0  0  0  0  0  0
   37.2610   26.7510   31.5500 H   0  0  0  0  0  0  0  0  0  0  0  0
   38.6840   27.5440   32.2880 H   0  0  0  0  0  0  0  0  0  0  0  0
   37.2220   25.2250   33.5370 H   0  0  0  0  0  0  0  0  0  0  0  0
   38.8550   24.8600   32.3170 N   0  0  2  0  0  0  0  0  0  0  0  0
   39.4160   25.4960   31.1380 C   0  0  0  0  0  0  0  0  0  0  0  0
   39.8180   24.2790   30.2960 C   0  0  0  0  0  0  0  0  0  0  0  0
   39.1580   23.0670   30.9590 C   0  0  0  0  0  0  0  0  0  0  0  0
   38.0900   23.8190   31.7500 C   0  0  1  0  0  0  0  0  0  0  0  0
   38.6290   26.0280   30.5570 H   0  0  0  0  0  0  0  0  0  0  0  0
   40.2800   26.1450   31.3580 H   0  0  0  0  0  0  0  0  0  0  0  0
   40.9200   24.2250   30.3230 H   0  0  0  0  0  0  0  0  0  0  0  0
   39.5040   24.3960   29.2460 H   0  0  0  0  0  0  0  0  0  0  0  0
   38.7520   22.4650   30.1400 H   0  0  0  0  0  0  0  0  0  0  0  0
   39.9370   22.6200   31.5690 H   0  0  0  0  0  0  0  0  0  0  0  0
   37.4750   24.2910   30.8680 H   0  0  0  0  0  0  0  0  0  0  0  0
   37.1710   23.0990   32.4760 N   0  0  1  0  0  0  0  0  0  0  0  0
   35.8190   23.1150   31.8920 C   0  0  0  0  0  3  0  0  0  0  0  0
   35.1240   23.2510   32.7440 H   0  0  0  0  0  0  0  0  0  0  0  0
   35.5240   21.7430   31.3020 C   0  0  0  0  0  3  0  0  0  0  0  0
   35.1090   21.0600   32.0710 H   0  0  0  0  0  0  0  0  0  0  0  0
   36.6740   21.1480   30.7960 O   0  0  0  0  0  0  0  0  0  0  0  0
   37.4400   20.7330   31.9090 C   0  0  0  0  0  2  0  0  0  0  0  0
   37.3800   21.8070   32.9830 C   0  0  0  0  0  2  0  0  0  0  0  0
   39.1660   24.7620   35.1810 C   0  0  0  0  0  0  0  0  0  0  0  0
   40.4960   24.3000   35.2950 C   0  0  0  0  0  0  0  0  0  0  0  0
   40.7090   23.1640   36.0350 C   0  0  0  0  0  0  0  0  0  0  0  0
   39.6480   22.5280   36.6250 N   0  0  0  0  0  0  0  0  0  0  0  0
   38.3720   22.9960   36.4950 C   0  0  0  0  0  0  0  0  0  0  0  0
   38.1570   24.1060   35.7730 N   0  0  0  0  0  0  0  0  0  0  0  0
   41.4520   24.6130   34.9440 H   0  0  0  0  0  0  0  0  0  0  0  0
   41.6190   22.6320   36.2620 H   0  0  0  0  0  0  0  0  0  0  0  0
   37.5760   22.4300   36.9940 H   0  0  0  0  0  0  0  0  0  0  0  0
  1  7  1  6  0  0  0
  1 37  1  0  0  0  0
  1  2  1  0  0  0  0
  2  8  1  0  0  0  0
  3 11  1  0  0  0  0
  3  2  1  0  0  0  0
  3 10  1  0  0  0  0
  4  3  1  0  0  0  0
  5  6  1  0  0  0  0
  5  4  1  0  0  0  0
  6 16  1  1  0  0  0
  6  1  1  0  0  0  0
  9  2  1  0  0  0  0
 12  4  1  0  0  0  0
 13  4  1  0  0  0  0
 14  5  1  0  0  0  0
 15  5  1  0  0  0  0
 17 18  1  6  0  0  0
 17  6  1  0  0  0  0
 18 23  1  0  0  0  0
 19 24  1  0  0  0  0
 19 20  1  0  0  0  0
 19 18  1  0  0  0  0
 20 27  1  0  0  0  0
 20 21  1  0  0  0  0
 21 28  1  6  0  0  0
 21 17  1  0  0  0  0
 21 29  1  0  0  0  0
 22 18  1  0  0  0  0
 25 19  1  0  0  0  0
 26 20  1  0  0  0  0
 29 36  1  6  0  0  0
 30 29  1  0  0  0  0
 30 31  1  0  0  0  0
 32 30  1  0  0  0  0
 32 33  1  0  0  0  0
 34 32  1  0  0  0  0
 34 35  1  0  0  0  0
 35 36  1  0  0  0  0
 37 38  2  0  0  0  0
 37 42  1  0  0  0  0
 38 39  1  0  0  0  0
 39 44  1  0  0  0  0
 39 40  2  0  0  0  0
 41 40  1  0  0  0  0
 41 45  1  0  0  0  0
 42 41  2  0  0  0  0
 43 38  1  0  0  0  0
M  END
>  <minimizedAffinity>
-4.94789839

$$$$

 OpenBabel03262520413D

 45 48  0  0  1  0  0  0  0  0999 V2000
   39.5050   23.6220   35.9540 C   0  0  2  0  0  0  0  0  0  0  0  0
   39.0340   23.0070   37.2220 C   0  0  0  0  0  0  0  0  0  0  0  0
   37.6850   23.5630   37.6740 C   0  0  0  0  0  0  0  0  0  0  0  0
   37.7740   25.0570   37.8880 C   0  0  0  0  0  0  0  0  0  0  0  0
   38.5230   25.7710   36.7960 C   0  0  0  0  0  0  0  0  0  0  0  0
   38.7250   24.8730   35.5930 C   0  0  1  0  0  0  0  0  0  0  0  0
   40.5790   23.9690   35.9960 H   0  0  0  0  0  0  0  0  0  0  0  0
   38.9890   21.9740   37.3850 H   0  0  0  0  0  0  0  0  0  0  0  0
   39.7440   23.4150   38.0330 H   0  0  0  0  0  0  0  0  0  0  0  0
   37.4950   23.0820   38.6620 H   0  0  0  0  0  0  0  0  0  0  0  0
   36.8850   23.3050   36.9630 H   0  0  0  0  0  0  0  0  0  0  0  0
   38.2450   25.2180   38.8900 H   0  0  0  0  0  0  0  0  0  0  0  0
   36.7410   25.4290   37.9820 H   0  0  0  0  0  0  0  0  0  0  0  0
   38.1090   26.7270   36.4870 H   0  0  0  0  0  0  0  0  0  0  0  0
   39.5520   25.9520   37.2050 H   0  0  0  0  0  0  0  0  0  0  0  0
   37.7110   24.5820   35.2540 H   0  0  0  0  0  0  0  0  0  0  0  0
   39.3820   25.5780   34.5470 N   0  0  2  0  0  0  0  0  0  0  0  0
   40.6200   26.2430   34.9160 C   0  0  0  0  0  0  0  0  0  0  0  0
   40.8850   27.1070   33.6780 C   0  0  0  0  0  0  0  0  0  0  0  0
   39.5950   27.0740   32.8540 C   0  0  0  0  0  0  0  0  0  0  0  0
   38.6480   26.6350   33.9670 C   0  0  1  0  0  0  0  0  0  0  0  0
   40.4590   26.9510   35.7600 H   0  0  0  0  0  0  0  0  0  0  0  0
   41.4510   25.5440   35.1140 H   0  0  0  0  0  0  0  0  0  0  0  0
   41.7360   26.6470   33.1470 H   0  0  0  0  0  0  0  0  0  0  0  0
   41.1680   28.1350   33.9590 H   0  0  0  0  0  0  0  0  0  0  0  0
   39.4300   28.1040   32.5200 H   0  0  0  0  0  0  0  0  0  0  0  0
   39.7690   26.3240   32.0880 H   0  0  0  0  0  0  0  0  0  0  0  0
   38.7420   27.5520   34.6930 H   0  0  0  0  0  0  0  0  0  0  0  0
   37.3040   26.5360   33.6950 N   0  0  1  0  0  0  0  0  0  0  0  0
   36.5050   27.6230   34.2850 C   0  0  0  0  0  3  0  0  0  0  0  0
   35.5950   27.1410   34.6940 H   0  0  0  0  0  0  0  0  0  0  0  0
   36.0440   28.5520   33.1710 C   0  0  0  0  0  3  0  0  0  0  0  0
   35.0970   28.1930   32.7190 H   0  0  0  0  0  0  0  0  0  0  0  0
   36.9860   28.6310   32.1510 O   0  0  0  0  0  0  0  0  0  0  0  0
   36.9180   27.4090   31.4410 C   0  0  0  0  0  2  0  0  0  0  0  0
   36.7560   26.2670   32.4310 C   0  0  0  0  0  2  0  0  0  0  0  0
   39.4360   22.7070   34.7970 C   0  0  0  0  0  0  0  0  0  0  0  0
   38.1280   22.3200   34.4280 C   0  0  0  0  0  0  0  0  0  0  0  0
   37.9960   21.5160   33.3240 C   0  0  0  0  0  0  0  0  0  0  0  0
   39.1120   21.1210   32.6330 N   0  0  0  0  0  0  0  0  0  0  0  0
   40.3640   21.5080   33.0160 C   0  0  0  0  0  0  0  0  0  0  0  0
   40.5000   22.2950   34.0930 N   0  0  0  0  0  0  0  0  0  0  0  0
   37.1430   22.4950   34.7920 H   0  0  0  0  0  0  0  0  0  0  0  0
   37.1170   21.1010   32.8570 H   0  0  0  0  0  0  0  0  0  0  0  0
   41.2070   21.1490   32.4130 H   0  0  0  0  0  0  0  0  0  0  0  0
  1  7  1  1  0  0  0
  1  2  1  0  0  0  0
  2  8  1  0  0  0  0
  2  3  1  0  0  0  0
  2  9  1  0  0  0  0
  3  4  1  0  0  0  0
  3 10  1  0  0  0  0
  4 13  1  0  0  0  0
  4 12  1  0  0  0  0
  5 15  1  0  0  0  0
  5  4  1  0  0  0  0
  6 16  1  6  0  0  0
  6  1  1  0  0  0  0
  6  5  1  0  0  0  0
 11  3  1  0  0  0  0
 14  5  1  0  0  0  0
 17 18  1  1  0  0  0
 17  6  1  0  0  0  0
 18 23  1  0  0  0  0
 18 22  1  0  0  0  0
 19 25  1  0  0  0  0
 19 18  1  0  0  0  0
 20 19  1  0  0  0  0
 20 21  1  0  0  0  0
 21 17  1  0  0  0  0
 21 28  1  1  0  0  0
 24 19  1  0  0  0  0
 26 20  1  0  0  0  0
 27 20  1  0  0  0  0
 29 36  1  6  0  0  0
 29 21  1  0  0  0  0
 29 30  1  0  0  0  0
 30 31  1  0  0  0  0
 32 30  1  0  0  0  0
 33 32  1  0  0  0  0
 34 32  1  0  0  0  0
 35 34  1  0  0  0  0
 35 36  1  0  0  0  0
 37  1  1  0  0  0  0
 38 43  1  0  0  0  0
 38 37  1  0  0  0  0
 39 38  2  0  0  0  0
 40 41  2  0  0  0  0
 40 39  1  0  0  0  0
 41 42  1  0  0  0  0
 42 37  2  0  0  0  0
 44 39  1  0  0  0  0
 45 41  1  0  0  0  0
M  END
>  <minimizedAffinity>
-4.81546354

$$$$

 OpenBabel03262520413D

 45 48  0  0  1  0  0  0  0  0999 V2000
   37.8780   23.5260   34.0670 C   0  0  2  0  0  0  0  0  0  0  0  0
   38.7080   22.3830   34.5290 C   0  0  0  0  0  0  0  0  0  0  0  0
   39.5830   21.8100   33.4150 C   0  0  0  0  0  0  0  0  0  0  0  0
   38.7270   21.3260   32.2670 C   0  0  0  0  0  0  0  0  0  0  0  0
   37.6250   22.2840   31.9030 C   0  0  0  0  0  0  0  0  0  0  0  0
   37.8350   23.6350   32.5540 C   0  0  1  0  0  0  0  0  0  0  0  0
   36.7940   23.4420   34.3690 H   0  0  0  0  0  0  0  0  0  0  0  0
   39.3120   22.4110   35.3840 H   0  0  0  0  0  0  0  0  0  0  0  0
   37.9600   21.5250   34.7110 H   0  0  0  0  0  0  0  0  0  0  0  0
   40.0820   20.9230   33.8730 H   0  0  0  0  0  0  0  0  0  0  0  0
   40.3350   22.5400   33.0790 H   0  0  0  0  0  0  0  0  0  0  0  0
   38.3270   20.3220   32.5540 H   0  0  0  0  0  0  0  0  0  0  0  0
   39.4040   21.1460   31.4170 H   0  0  0  0  0  0  0  0  0  0  0  0
   37.4360   22.4040   30.8400 H   0  0  0  0  0  0  0  0  0  0  0  0
   36.6960   21.8690   32.3770 H   0  0  0  0  0  0  0  0  0  0  0  0
   38.8160   24.0020   32.1900 H   0  0  0  0  0  0  0  0  0  0  0  0
   36.8190   24.5470   32.1550 N   0  0  2  0  0  0  0  0  0  0  0  0
   35.6830   23.9610   31.4640 C   0  0  0  0  0  0  0  0  0  0  0  0
   34.9630   25.2100   30.9450 C   0  0  0  0  0  0  0  0  0  0  0  0
   35.9400   26.3740   31.1360 C   0  0  0  0  0  0  0  0  0  0  0  0
   37.2210   25.5530   31.2510 C   0  0  1  0  0  0  0  0  0  0  0  0
   36.0110   23.3950   30.5630 H   0  0  0  0  0  0  0  0  0  0  0  0
   35.0350   23.3570   32.1210 H   0  0  0  0  0  0  0  0  0  0  0  0
   34.0480   25.3240   31.5520 H   0  0  0  0  0  0  0  0  0  0  0  0
   34.6640   25.0920   29.8900 H   0  0  0  0  0  0  0  0  0  0  0  0
   35.8800   26.9650   30.2170 H   0  0  0  0  0  0  0  0  0  0  0  0
   35.6280   26.8540   32.0590 H   0  0  0  0  0  0  0  0  0  0  0  0
   37.2470   25.0610   30.1850 H   0  0  0  0  0  0  0  0  0  0  0  0
   38.4230   26.2100   31.3670 N   0  0  1  0  0  0  0  0  0  0  0  0
   39.3690   25.8970   30.2820 C   0  0  0  0  0  3  0  0  0  0  0  0
   40.3560   25.7710   30.7690 H   0  0  0  0  0  0  0  0  0  0  0  0
   39.4850   27.1090   29.3680 C   0  0  0  0  0  3  0  0  0  0  0  0
   40.2530   27.8170   29.7420 H   0  0  0  0  0  0  0  0  0  0  0  0
   38.2840   27.8050   29.2900 O   0  0  0  0  0  0  0  0  0  0  0  0
   38.1280   28.4870   30.5180 C   0  0  0  0  0  2  0  0  0  0  0  0
   38.5690   27.5760   31.6520 C   0  0  0  0  0  2  0  0  0  0  0  0
   38.3300   24.8290   34.5940 C   0  0  0  0  0  0  0  0  0  0  0  0
   39.7060   25.0930   34.4150 C   0  0  0  0  0  0  0  0  0  0  0  0
   40.1740   26.3130   34.8330 C   0  0  0  0  0  0  0  0  0  0  0  0
   39.3120   27.2150   35.3980 N   0  0  0  0  0  0  0  0  0  0  0  0
   37.9860   26.9310   35.5610 C   0  0  0  0  0  0  0  0  0  0  0  0
   37.5220   25.7400   35.1550 N   0  0  0  0  0  0  0  0  0  0  0  0
   40.5430   24.5720   34.0130 H   0  0  0  0  0  0  0  0  0  0  0  0
   41.1670   26.7350   34.8000 H   0  0  0  0  0  0  0  0  0  0  0  0
   37.3600   27.7030   36.0250 H   0  0  0  0  0  0  0  0  0  0  0  0
  1  7  1  1  0  0  0
  1  2  1  0  0  0  0
  1 37  1  0  0  0  0
  2  9  1  0  0  0  0
  2  8  1  0  0  0  0
  3 10  1  0  0  0  0
  3  2  1  0  0  0  0
  4 12  1  0  0  0  0
  4  3  1  0  0  0  0
  5  4  1  0  0  0  0
  5 15  1  0  0  0  0
  5  6  1  0  0  0  0
  6 16  1  6  0  0  0
  6  1  1  0  0  0  0
 11  3  1  0  0  0  0
 13  4  1  0  0  0  0
 14  5  1  0  0  0  0
 17 18  1  6  0  0  0
 17  6  1  0  0  0  0
 18 23  1  0  0  0  0
 19 20  1  0  0  0  0
 19 18  1  0  0  0  0
 19 24  1  0  0  0  0
 20 21  1  0  0  0  0
 20 27  1  0  0  0  0
 21 28  1  6  0  0  0
 21 29  1  0  0  0  0
 21 17  1  0  0  0  0
 22 18  1  0  0  0  0
 25 19  1  0  0  0  0
 26 20  1  0  0  0  0
 29 36  1  6  0  0  0
 30 31  1  0  0  0  0
 30 29  1  0  0  0  0
 32 33  1  0  0  0  0
 32 30  1  0  0  0  0
 34 32  1  0  0  0  0
 34 35  1  0  0  0  0
 35 36  1  0  0  0  0
 37 42  1  0  0  0  0
 38 37  2  0  0  0  0
 38 39  1  0  0  0  0
 39 40  2  0  0  0  0
 40 41  1  0  0  0  0
 41 45  1  0  0  0  0
 42 41  2  0  0  0  0
 43 38  1  0  0  0  0
 44 39  1  0  0  0  0
M  END
>  <minimizedAffinity>
-4.78575802

$$$$

 OpenBabel03262520413D

 45 48  0  0  1  0  0  0  0  0999 V2000
   38.9940   24.6650   34.0920 C   0  0  2  0  0  0  0  0  0  0  0  0
   38.6140   24.3060   35.4840 C   0  0  0  0  0  0  0  0  0  0  0  0
   37.7690   25.3880   36.1540 C   0  0  0  0  0  0  0  0  0  0  0  0
   38.5260   26.6960   36.2020 C   0  0  0  0  0  0  0  0  0  0  0  0
   39.2320   27.0220   34.9140 C   0  0  0  0  0  0  0  0  0  0  0  0
   38.7540   26.1310   33.7870 C   0  0  1  0  0  0  0  0  0  0  0  0
   40.0910   24.5130   33.8740 H   0  0  0  0  0  0  0  0  0  0  0  0
   38.1770   23.3930   35.7500 H   0  0  0  0  0  0  0  0  0  0  0  0
   39.5960   24.3640   36.0850 H   0  0  0  0  0  0  0  0  0  0  0  0
   37.6280   25.0310   37.2010 H   0  0  0  0  0  0  0  0  0  0  0  0
   36.7950   25.5050   35.6550 H   0  0  0  0  0  0  0  0  0  0  0  0
   39.2390   26.6320   37.0630 H   0  0  0  0  0  0  0  0  0  0  0  0
   37.7980   27.4770   36.4750 H   0  0  0  0  0  0  0  0  0  0  0  0
   39.2010   28.0650   34.6100 H   0  0  0  0  0  0  0  0  0  0  0  0
   40.3050   26.7390   35.0780 H   0  0  0  0  0  0  0  0  0  0  0  0
   37.6630   26.3090   33.6970 H   0  0  0  0  0  0  0  0  0  0  0  0
   39.3860   26.4890   32.5640 N   0  0  2  0  0  0  0  0  0  0  0  0
   40.7150   27.0630   32.6860 C   0  0  0  0  0  0  0  0  0  0  0  0
   40.9580   27.5790   31.2630 C   0  0  0  0  0  0  0  0  0  0  0  0
   39.6040   27.5150   30.5510 C   0  0  0  0  0  0  0  0  0  0  0  0
   38.7180   27.4650   31.7930 C   0  0  1  0  0  0  0  0  0  0  0  0
   40.7040   27.9620   33.3430 H   0  0  0  0  0  0  0  0  0  0  0  0
   41.4810   26.3330   32.9940 H   0  0  0  0  0  0  0  0  0  0  0  0
   41.7060   26.9070   30.8060 H   0  0  0  0  0  0  0  0  0  0  0  0
   41.3710   28.6010   31.2710 H   0  0  0  0  0  0  0  0  0  0  0  0
   39.5190   28.4520   29.9910 H   0  0  0  0  0  0  0  0  0  0  0  0
   39.6290   26.5930   29.9790 H   0  0  0  0  0  0  0  0  0  0  0  0
   38.9730   28.5070   32.2700 H   0  0  0  0  0  0  0  0  0  0  0  0
   37.3520   27.4730   31.6360 N   0  0  1  0  0  0  0  0  0  0  0  0
   36.6480   28.2600   32.6630 C   0  0  0  0  0  3  0  0  0  0  0  0
   35.7640   27.6580   32.9490 H   0  0  0  0  0  0  0  0  0  0  0  0
   36.1210   29.5370   32.0250 C   0  0  0  0  0  3  0  0  0  0  0  0
   35.1240   29.3710   31.5660 H   0  0  0  0  0  0  0  0  0  0  0  0
   36.9680   29.9930   31.0210 O   0  0  0  0  0  0  0  0  0  0  0  0
   36.7940   29.1250   29.9180 C   0  0  0  0  0  2  0  0  0  0  0  0
   36.6840   27.6950   30.4230 C   0  0  0  0  0  2  0  0  0  0  0  0
   38.2810   23.8760   33.0690 C   0  0  0  0  0  0  0  0  0  0  0  0
   39.0080   22.7790   32.5550 C   0  0  0  0  0  0  0  0  0  0  0  0
   38.3750   21.9740   31.6410 C   0  0  0  0  0  0  0  0  0  0  0  0
   37.0880   22.2550   31.2650 N   0  0  0  0  0  0  0  0  0  0  0  0
   36.4100   23.3240   31.7760 C   0  0  0  0  0  0  0  0  0  0  0  0
   37.0230   24.1140   32.6690 N   0  0  0  0  0  0  0  0  0  0  0  0
   39.9820   22.3700   32.6920 H   0  0  0  0  0  0  0  0  0  0  0  0
   38.7190   21.0940   31.1210 H   0  0  0  0  0  0  0  0  0  0  0  0
   35.3840   23.4840   31.4230 H   0  0  0  0  0  0  0  0  0  0  0  0
  1  7  1  6  0  0  0
  1  2  1  0  0  0  0
  2  8  1  0  0  0  0
  2  9  1  0  0  0  0
  2  3  1  0  0  0  0
  3  4  1  0  0  0  0
  3 10  1  0  0  0  0
  4 13  1  0  0  0  0
  4 12  1  0  0  0  0
  5 15  1  0  0  0  0
  5  4  1  0  0  0  0
  6 16  1  6  0  0  0
  6  1  1  0  0  0  0
  6  5  1  0  0  0  0
 11  3  1  0  0  0  0
 14  5  1  0  0  0  0
 17 18  1  1  0  0  0
 17  6  1  0  0  0  0
 18 23  1  0  0  0  0
 18 22  1  0  0  0  0
 19 25  1  0  0  0  0
 19 18  1  0  0  0  0
 20 19  1  0  0  0  0
 20 21  1  0  0  0  0
 21 28  1  1  0  0  0
 21 17  1  0  0  0  0
 24 19  1  0  0  0  0
 26 20  1  0  0  0  0
 27 20  1  0  0  0  0
 29 36  1  6  0  0  0
 29 21  1  0  0  0  0
 29 30  1  0  0  0  0
 30 31  1  0  0  0  0
 32 30  1  0  0  0  0
 33 32  1  0  0  0  0
 34 32  1  0  0  0  0
 35 36  1  0  0  0  0
 35 34  1  0  0  0  0
 37  1  1  0  0  0  0
 38 43  1  0  0  0  0
 38 37  2  0  0  0  0
 39 38  1  0  0  0  0
 40 39  2  0  0  0  0
 40 41  1  0  0  0  0
 41 42  2  0  0  0  0
 42 37  1  0  0  0  0
 44 39  1  0  0  0  0
 45 41  1  0  0  0  0
M  END
>  <minimizedAffinity>
-4.76692104

$$$$

 OpenBabel03262520413D

 45 48  0  0  1  0  0  0  0  0999 V2000
   38.5360   23.6750   35.6110 C   0  0  2  0  0  0  0  0  0  0  0  0
   38.0950   23.2870   36.9760 C   0  0  0  0  0  0  0  0  0  0  0  0
   39.2510   23.2530   37.9740 C   0  0  0  0  0  0  0  0  0  0  0  0
   40.3030   22.2620   37.5290 C   0  0  0  0  0  0  0  0  0  0  0  0
   40.6170   22.3490   36.0600 C   0  0  0  0  0  0  0  0  0  0  0  0
   40.0440   23.6110   35.4510 C   0  0  1  0  0  0  0  0  0  0  0  0
   38.1430   22.9920   34.8020 H   0  0  0  0  0  0  0  0  0  0  0  0
   37.2940   23.7390   37.4780 H   0  0  0  0  0  0  0  0  0  0  0  0
   37.8160   22.1720   36.8940 H   0  0  0  0  0  0  0  0  0  0  0  0
   38.7980   22.8740   38.9210 H   0  0  0  0  0  0  0  0  0  0  0  0
   39.6790   24.2540   38.1290 H   0  0  0  0  0  0  0  0  0  0  0  0
   39.9410   21.2440   37.8190 H   0  0  0  0  0  0  0  0  0  0  0  0
   41.1970   22.4470   38.1470 H   0  0  0  0  0  0  0  0  0  0  0  0
   41.6650   22.2450   35.7950 H   0  0  0  0  0  0  0  0  0  0  0  0
   40.0510   21.5070   35.5810 H   0  0  0  0  0  0  0  0  0  0  0  0
   40.5030   24.4550   36.0050 H   0  0  0  0  0  0  0  0  0  0  0  0
   40.3980   23.7090   34.0770 N   0  0  2  0  0  0  0  0  0  0  0  0
   40.6840   22.4510   33.4090 C   0  0  0  0  0  0  0  0  0  0  0  0
   41.2890   22.9360   32.0870 C   0  0  0  0  0  0  0  0  0  0  0  0
   41.5670   24.4300   32.2700 C   0  0  0  0  0  0  0  0  0  0  0  0
   41.5610   24.4570   33.7960 C   0  0  1  0  0  0  0  0  0  0  0  0
   41.4930   21.8940   33.9340 H   0  0  0  0  0  0  0  0  0  0  0  0
   39.7890   21.8270   33.2470 H   0  0  0  0  0  0  0  0  0  0  0  0
   40.5350   22.7400   31.3040 H   0  0  0  0  0  0  0  0  0  0  0  0
   42.2030   22.3750   31.8340 H   0  0  0  0  0  0  0  0  0  0  0  0
   42.5560   24.6040   31.8330 H   0  0  0  0  0  0  0  0  0  0  0  0
   40.7220   24.9330   31.8080 H   0  0  0  0  0  0  0  0  0  0  0  0
   42.4770   23.7570   34.0190 H   0  0  0  0  0  0  0  0  0  0  0  0
   41.8520   25.6360   34.4410 N   0  0  1  0  0  0  0  0  0  0  0  0
   43.1710   25.6340   35.0980 C   0  0  0  0  0  3  0  0  0  0  0  0
   43.0170   26.1170   36.0830 H   0  0  0  0  0  0  0  0  0  0  0  0
   44.1100   26.5370   34.3110 C   0  0  0  0  0  3  0  0  0  0  0  0
   44.0210   27.5910   34.6440 H   0  0  0  0  0  0  0  0  0  0  0  0
   43.8260   26.5070   32.9500 O   0  0  0  0  0  0  0  0  0  0  0  0
   42.6330   27.2440   32.7690 C   0  0  0  0  0  2  0  0  0  0  0  0
   41.6690   26.9160   33.8970 C   0  0  0  0  0  2  0  0  0  0  0  0
   38.1060   25.0320   35.2190 C   0  0  0  0  0  0  0  0  0  0  0  0
   38.4690   26.0520   36.1250 C   0  0  0  0  0  0  0  0  0  0  0  0
   38.1460   27.3420   35.7860 C   0  0  0  0  0  0  0  0  0  0  0  0
   37.4940   27.5920   34.6070 N   0  0  0  0  0  0  0  0  0  0  0  0
   37.1520   26.5860   33.7520 C   0  0  0  0  0  0  0  0  0  0  0  0
   37.4660   25.3220   34.0770 N   0  0  0  0  0  0  0  0  0  0  0  0
   38.9650   26.1040   37.0660 H   0  0  0  0  0  0  0  0  0  0  0  0
   38.3190   28.2710   36.3070 H   0  0  0  0  0  0  0  0  0  0  0  0
   36.6300   26.8660   32.8290 H   0  0  0  0  0  0  0  0  0  0  0  0
  1  7  1  6  0  0  0
  1  2  1  0  0  0  0
  2  8  1  0  0  0  0
  2  3  1  0  0  0  0
  3 11  1  0  0  0  0
  3 10  1  0  0  0  0
  4 12  1  0  0  0  0
  4  3  1  0  0  0  0
  4 13  1  0  0  0  0
  5  4  1  0  0  0  0
  6  1  1  0  0  0  0
  6 16  1  1  0  0  0
  6  5  1  0  0  0  0
  9  2  1  0  0  0  0
 14  5  1  0  0  0  0
 15  5  1  0  0  0  0
 17 18  1  1  0  0  0
 17  6  1  0  0  0  0
 18 22  1  0  0  0  0
 19 20  1  0  0  0  0
 19 18  1  0  0  0  0
 20 21  1  0  0  0  0
 21 28  1  1  0  0  0
 21 17  1  0  0  0  0
 21 29  1  0  0  0  0
 23 18  1  0  0  0  0
 24 19  1  0  0  0  0
 25 19  1  0  0  0  0
 26 20  1  0  0  0  0
 27 20  1  0  0  0  0
 29 36  1  6  0  0  0
 29 30  1  0  0  0  0
 30 31  1  0  0  0  0
 32 33  1  0  0  0  0
 32 30  1  0  0  0  0
 34 32  1  0  0  0  0
 35 34  1  0  0  0  0
 35 36  1  0  0  0  0
 37  1  1  0  0  0  0
 37 38  1  0  0  0  0
 38 43  1  0  0  0  0
 39 38  2  0  0  0  0
 39 44  1  0  0  0  0
 40 39  1  0  0  0  0
 41 42  1  0  0  0  0
 41 40  2  0  0  0  0
 42 37  2  0  0  0  0
 45 41  1  0  0  0  0
M  END
>  <minimizedAffinity>
-4.70997381

$$$$

 OpenBabel03262520413D

 45 48  0  0  1  0  0  0  0  0999 V2000
   37.8200   24.5980   34.0450 C   0  0  2  0  0  0  0  0  0  0  0  0
   37.3420   25.7600   33.2520 C   0  0  0  0  0  0  0  0  0  0  0  0
   38.2520   26.9790   33.3980 C   0  0  0  0  0  0  0  0  0  0  0  0
   38.3340   27.4070   34.8460 C   0  0  0  0  0  0  0  0  0  0  0  0
   38.5080   26.2540   35.7970 C   0  0  0  0  0  0  0  0  0  0  0  0
   38.8800   24.9860   35.0590 C   0  0  1  0  0  0  0  0  0  0  0  0
   37.0100   24.1130   34.6630 H   0  0  0  0  0  0  0  0  0  0  0  0
   37.0910   25.7080   32.2370 H   0  0  0  0  0  0  0  0  0  0  0  0
   36.3840   26.1120   33.7880 H   0  0  0  0  0  0  0  0  0  0  0  0
   37.7380   27.7880   32.8270 H   0  0  0  0  0  0  0  0  0  0  0  0
   39.2500   26.7880   32.9770 H   0  0  0  0  0  0  0  0  0  0  0  0
   37.4080   27.9940   35.0680 H   0  0  0  0  0  0  0  0  0  0  0  0
   39.1670   28.1240   34.9200 H   0  0  0  0  0  0  0  0  0  0  0  0
   39.1930   26.4240   36.6230 H   0  0  0  0  0  0  0  0  0  0  0  0
   37.4890   26.0590   36.2240 H   0  0  0  0  0  0  0  0  0  0  0  0
   39.8270   25.2070   34.5260 H   0  0  0  0  0  0  0  0  0  0  0  0
   39.0990   23.9200   35.9740 N   0  0  2  0  0  0  0  0  0  0  0  0
   38.5510   24.1110   37.3060 C   0  0  0  0  0  0  0  0  0  0  0  0
   39.2010   22.9540   38.0740 C   0  0  0  0  0  0  0  0  0  0  0  0
   40.3000   22.4030   37.1620 C   0  0  0  0  0  0  0  0  0  0  0  0
   40.4500   23.6230   36.2570 C   0  0  1  0  0  0  0  0  0  0  0  0
   38.9380   25.0460   37.7680 H   0  0  0  0  0  0  0  0  0  0  0  0
   37.4500   24.0570   37.3390 H   0  0  0  0  0  0  0  0  0  0  0  0
   38.4040   22.2150   38.2670 H   0  0  0  0  0  0  0  0  0  0  0  0
   39.6010   23.2910   39.0440 H   0  0  0  0  0  0  0  0  0  0  0  0
   41.1660   22.2310   37.8100 H   0  0  0  0  0  0  0  0  0  0  0  0
   39.8580   21.5370   36.6790 H   0  0  0  0  0  0  0  0  0  0  0  0
   40.8150   24.4180   37.0400 H   0  0  0  0  0  0  0  0  0  0  0  0
   41.4210   23.6140   35.2840 N   0  0  1  0  0  0  0  0  0  0  0  0
   42.1260   24.9000   35.1470 C   0  0  0  0  0  3  0  0  0  0  0  0
   42.2300   25.0720   34.0570 H   0  0  0  0  0  0  0  0  0  0  0  0
   43.5350   24.7480   35.7010 C   0  0  0  0  0  3  0  0  0  0  0  0
   44.2290   24.3620   34.9260 H   0  0  0  0  0  0  0  0  0  0  0  0
   43.5690   23.8560   36.7680 O   0  0  0  0  0  0  0  0  0  0  0  0
   43.4230   22.5610   36.2190 C   0  0  0  0  0  2  0  0  0  0  0  0
   42.3800   22.6040   35.1140 C   0  0  0  0  0  2  0  0  0  0  0  0
   38.3780   23.5120   33.2140 C   0  0  0  0  0  0  0  0  0  0  0  0
   37.6310   22.3130   33.2290 C   0  0  0  0  0  0  0  0  0  0  0  0
   38.0680   21.2860   32.4310 C   0  0  0  0  0  0  0  0  0  0  0  0
   39.1910   21.4530   31.6630 N   0  0  0  0  0  0  0  0  0  0  0  0
   39.8950   22.6220   31.6700 C   0  0  0  0  0  0  0  0  0  0  0  0
   39.4720   23.6310   32.4480 N   0  0  0  0  0  0  0  0  0  0  0  0
   36.7560   21.9590   33.7220 H   0  0  0  0  0  0  0  0  0  0  0  0
   37.6700   20.2960   32.2770 H   0  0  0  0  0  0  0  0  0  0  0  0
   40.7840   22.6780   31.0300 H   0  0  0  0  0  0  0  0  0  0  0  0
  1  7  1  1  0  0  0
  1  6  1  0  0  0  0
  2  3  1  0  0  0  0
  2  9  1  0  0  0  0
  2  1  1  0  0  0  0
  3  4  1  0  0  0  0
  4 13  1  0  0  0  0
  4 12  1  0  0  0  0
  4  5  1  0  0  0  0
  5 15  1  0  0  0  0
  5 14  1  0  0  0  0
  6 16  1  6  0  0  0
  6  5  1  0  0  0  0
  6 17  1  0  0  0  0
  8  2  1  0  0  0  0
 10  3  1  0  0  0  0
 11  3  1  0  0  0  0
 17 21  1  0  0  0  0
 17 18  1  1  0  0  0
 18 23  1  0  0  0  0
 18 22  1  0  0  0  0
 18 19  1  0  0  0  0
 19 24  1  0  0  0  0
 19 25  1  0  0  0  0
 20 26  1  0  0  0  0
 20 19  1  0  0  0  0
 21 28  1  1  0  0  0
 21 20  1  0  0  0  0
 27 20  1  0  0  0  0
 29 36  1  1  0  0  0
 29 21  1  0  0  0  0
 30 29  1  0  0  0  0
 30 32  1  0  0  0  0
 31 30  1  0  0  0  0
 32 34  1  0  0  0  0
 33 32  1  0  0  0  0
 35 34  1  0  0  0  0
 36 35  1  0  0  0  0
 37 38  1  0  0  0  0
 37  1  1  0  0  0  0
 38 43  1  0  0  0  0
 39 38  2  0  0  0  0
 40 41  2  0  0  0  0
 40 39  1  0  0  0  0
 41 42  1  0  0  0  0
 42 37  2  0  0  0  0
 44 39  1  0  0  0  0
 45 41  1  0  0  0  0
M  END
>  <minimizedAffinity>
-4.69953918

$$$$
