
 OpenBabel03272510183D

 35 38  0  0  0  0  0  0  0  0999 V2000
   37.4570   29.2140   50.8560 Br  0  0  0  0  0  0  0  0  0  0  0  0
   36.0280   29.2680   49.5970 C   0  0  0  0  0  0  0  0  0  0  0  0
   35.9920   30.2540   48.6000 C   0  0  0  0  0  0  0  0  0  0  0  0
   34.9320   30.2330   47.7290 C   0  0  0  0  0  0  0  0  0  0  0  0
   33.9130   29.2940   47.7900 C   0  0  0  0  0  0  0  0  0  0  0  0
   33.9800   28.3450   48.7730 C   0  0  0  0  0  0  0  0  0  0  0  0
   35.0310   28.3460   49.6600 C   0  0  0  0  0  0  0  0  0  0  0  0
   34.8570   30.9730   46.9390 H   0  0  0  0  0  0  0  0  0  0  0  0
   33.2030   27.5920   48.8570 H   0  0  0  0  0  0  0  0  0  0  0  0
   35.0800   27.5930   50.4380 H   0  0  0  0  0  0  0  0  0  0  0  0
   32.7920   29.2710   46.8660 C   0  0  0  0  0  0  0  0  0  0  0  0
   31.8580   28.2660   46.7820 C   0  0  0  0  0  0  0  0  0  0  0  0
   30.8050   28.2870   45.8860 C   0  0  0  0  0  0  0  0  0  0  0  0
   30.6720   29.3320   45.0460 N   0  0  0  0  0  0  0  0  0  0  0  0
   31.5790   30.3110   45.1250 C   0  0  0  0  0  0  0  0  0  0  0  0
   32.5860   30.2780   45.9920 N   0  0  0  0  0  0  0  0  0  0  0  0
   31.9620   27.4150   47.4600 H   0  0  0  0  0  0  0  0  0  0  0  0
   30.1090   27.4450   45.8870 H   0  0  0  0  0  0  0  0  0  0  0  0
   31.4540   31.4210   44.2500 N   0  0  0  0  0  0  0  0  0  0  0  0
   32.1680   32.6680   44.4450 C   0  0  0  0  0  3  0  0  0  0  0  0
   32.9620   32.7410   43.6540 H   0  0  0  0  0  0  0  0  0  0  0  0
   31.2050   33.8580   44.3370 C   0  0  0  0  0  3  0  0  0  0  0  0
   30.6540   33.9440   45.2850 H   0  0  0  0  0  0  0  0  0  0  0  0
   30.3650   33.7410   43.2510 O   0  0  0  0  0  0  0  0  0  0  0  0
   29.6350   32.5730   43.2630 C   0  0  0  0  0  2  0  0  0  0  0  0
   30.6000   31.4060   43.0790 C   0  0  0  0  0  2  0  0  0  0  0  0
   38.0100   33.1770   49.4160 C   0  0  0  0  0  0  0  0  0  0  0  0
   39.0110   33.1730   48.3840 C   0  0  0  0  0  0  0  0  0  0  0  0
   38.9600   32.1670   47.4410 C   0  0  0  0  0  0  0  0  0  0  0  0
   37.9700   31.2220   47.5230 N   0  0  0  0  0  0  0  0  0  0  0  0
   37.0370   31.2480   48.5080 C   0  0  0  0  0  0  0  0  0  0  0  0
   37.0730   32.2300   49.4430 N   0  0  0  0  0  0  0  0  0  0  0  0
   38.0060   33.9420   50.1790 H   0  0  0  0  0  0  0  0  0  0  0  0
   39.7610   33.9520   48.3840 H   0  0  0  0  0  0  0  0  0  0  0  0
   39.6970   32.1290   46.6460 H   0  0  0  0  0  0  0  0  0  0  0  0
  2  7  1  0  0  0  0
  2  1  1  0  0  0  0
  3  2  2  0  0  0  0
  4  5  2  0  0  0  0
  4  3  1  0  0  0  0
  5  6  1  0  0  0  0
  6  9  1  0  0  0  0
  6  7  2  0  0  0  0
  7 10  1  0  0  0  0
  8  4  1  0  0  0  0
 11  5  1  0  0  0  0
 12 11  1  0  0  0  0
 12 17  1  0  0  0  0
 13 18  1  0  0  0  0
 13 12  2  0  0  0  0
 14 15  2  0  0  0  0
 14 13  1  0  0  0  0
 15 16  1  0  0  0  0
 16 11  2  0  0  0  0
 19 20  1  0  0  0  0
 19 15  1  0  0  0  0
 21 20  1  0  0  0  0
 22 20  1  0  0  0  0
 22 23  1  0  0  0  0
 24 25  1  0  0  0  0
 24 22  1  0  0  0  0
 26 25  1  0  0  0  0
 26 19  1  0  0  0  0
 27 32  1  0  0  0  0
 27 33  1  0  0  0  0
 28 27  2  0  0  0  0
 29 30  2  0  0  0  0
 29 28  1  0  0  0  0
 30 31  1  0  0  0  0
 31  3  1  0  0  0  0
 31 32  2  0  0  0  0
 34 28  1  0  0  0  0
 35 29  1  0  0  0  0
M  END
>  <minimizedAffinity>
-6.67983389

>  <minimizedRMSD>
0.514390886

$$$$
