
 OpenBabel03272510193D

 35 38  0  0  0  0  0  0  0  0999 V2000
   37.4430   29.2180   50.8910 Br  0  0  0  0  0  0  0  0  0  0  0  0
   36.0330   29.2720   49.6130 C   0  0  0  0  0  0  0  0  0  0  0  0
   36.0120   30.2570   48.6140 C   0  0  0  0  0  0  0  0  0  0  0  0
   34.9650   30.2350   47.7280 C   0  0  0  0  0  0  0  0  0  0  0  0
   33.9430   29.2980   47.7760 C   0  0  0  0  0  0  0  0  0  0  0  0
   33.9950   28.3500   48.7620 C   0  0  0  0  0  0  0  0  0  0  0  0
   35.0340   28.3510   49.6630 C   0  0  0  0  0  0  0  0  0  0  0  0
   34.9010   30.9750   46.9370 H   0  0  0  0  0  0  0  0  0  0  0  0
   33.2160   27.5980   48.8350 H   0  0  0  0  0  0  0  0  0  0  0  0
   35.0710   27.5990   50.4430 H   0  0  0  0  0  0  0  0  0  0  0  0
   32.8360   29.2760   46.8360 C   0  0  0  0  0  0  0  0  0  0  0  0
   31.8590   28.3090   46.7890 C   0  0  0  0  0  0  0  0  0  0  0  0
   30.8210   28.3280   45.8760 C   0  0  0  0  0  0  0  0  0  0  0  0
   30.7450   29.3330   44.9810 N   0  0  0  0  0  0  0  0  0  0  0  0
   31.6940   30.2750   45.0250 C   0  0  0  0  0  0  0  0  0  0  0  0
   32.6860   30.2440   45.9090 N   0  0  0  0  0  0  0  0  0  0  0  0
   31.9160   27.4900   47.5120 H   0  0  0  0  0  0  0  0  0  0  0  0
   30.0880   27.5180   45.9090 H   0  0  0  0  0  0  0  0  0  0  0  0
   31.6300   31.3420   44.0920 N   0  0  0  0  0  0  0  0  0  0  0  0
   31.8310   32.7290   44.4590 C   0  0  0  0  0  3  0  0  0  0  0  0
   32.8220   33.0580   44.0460 H   0  0  0  0  0  0  0  0  0  0  0  0
   30.7060   33.6020   43.8910 C   0  0  0  0  0  3  0  0  0  0  0  0
   29.8210   33.4880   44.5330 H   0  0  0  0  0  0  0  0  0  0  0  0
   30.4400   33.3010   42.5720 O   0  0  0  0  0  0  0  0  0  0  0  0
   30.1170   31.9760   42.3820 C   0  0  0  0  0  2  0  0  0  0  0  0
   31.3570   31.1380   42.6830 C   0  0  0  0  0  2  0  0  0  0  0  0
   38.0100   33.1900   49.4420 C   0  0  0  0  0  0  0  0  0  0  0  0
   39.0370   33.1720   48.4360 C   0  0  0  0  0  0  0  0  0  0  0  0
   39.0090   32.1530   47.5050 C   0  0  0  0  0  0  0  0  0  0  0  0
   38.0170   31.2090   47.5750 N   0  0  0  0  0  0  0  0  0  0  0  0
   37.0600   31.2490   48.5350 C   0  0  0  0  0  0  0  0  0  0  0  0
   37.0720   32.2430   49.4580 N   0  0  0  0  0  0  0  0  0  0  0  0
   37.9870   33.9660   50.1940 H   0  0  0  0  0  0  0  0  0  0  0  0
   39.7870   33.9510   48.4440 H   0  0  0  0  0  0  0  0  0  0  0  0
   39.7660   32.1040   46.7300 H   0  0  0  0  0  0  0  0  0  0  0  0
  2  7  1  0  0  0  0
  2  1  1  0  0  0  0
  3  2  2  0  0  0  0
  4  5  2  0  0  0  0
  4  3  1  0  0  0  0
  5  6  1  0  0  0  0
  6  9  1  0  0  0  0
  6  7  2  0  0  0  0
  7 10  1  0  0  0  0
  8  4  1  0  0  0  0
 11  5  1  0  0  0  0
 12 11  1  0  0  0  0
 12 17  1  0  0  0  0
 13 18  1  0  0  0  0
 13 12  2  0  0  0  0
 14 15  2  0  0  0  0
 14 13  1  0  0  0  0
 15 16  1  0  0  0  0
 16 11  2  0  0  0  0
 19 20  1  0  0  0  0
 19 15  1  0  0  0  0
 21 20  1  0  0  0  0
 22 20  1  0  0  0  0
 22 23  1  0  0  0  0
 24 22  1  0  0  0  0
 25 24  1  0  0  0  0
 25 26  1  0  0  0  0
 26 19  1  0  0  0  0
 27 32  1  0  0  0  0
 27 33  1  0  0  0  0
 28 34  1  0  0  0  0
 28 27  2  0  0  0  0
 29 30  2  0  0  0  0
 29 28  1  0  0  0  0
 30 31  1  0  0  0  0
 31  3  1  0  0  0  0
 31 32  2  0  0  0  0
 35 29  1  0  0  0  0
M  END
>  <minimizedAffinity>
-6.58345461

>  <minimizedRMSD>
0.634414315

$$$$
