
 OpenBabel03262522113D

 29 31  0  0  1  0  0  0  0  0999 V2000
   37.7980   31.6910   47.5440 C   0  0  0  0  0  0  0  0  0  0  0  0
   37.9040   32.5510   48.6270 C   0  0  0  0  0  0  0  0  0  0  0  0
   38.9410   33.4700   48.6690 C   0  0  0  0  0  0  0  0  0  0  0  0
   39.8080   33.4500   47.5960 C   0  0  0  0  0  0  0  0  0  0  0  0
   39.6960   32.5940   46.5270 C   0  0  0  0  0  0  0  0  0  0  0  0
   38.6720   31.6990   46.5010 N   0  0  0  0  0  0  0  0  0  0  0  0
   37.1800   32.5080   49.4380 H   0  0  0  0  0  0  0  0  0  0  0  0
   39.0390   34.1480   49.5050 H   0  0  0  0  0  0  0  0  0  0  0  0
   40.6240   34.1650   47.6190 H   0  0  0  0  0  0  0  0  0  0  0  0
   36.6830   30.7520   47.5720 C   0  0  0  0  0  0  0  0  0  0  0  0
   36.1450   30.3740   46.5280 O   0  0  0  0  0  0  0  0  0  0  0  0
   37.0200   29.6450   49.7590 C   0  0  0  0  0  0  0  0  0  0  0  0
   36.1510   30.2150   48.8270 C   0  0  0  0  0  0  0  0  0  0  0  0
   34.7940   30.2470   49.1410 C   0  0  0  0  0  0  0  0  0  0  0  0
   34.3500   29.7350   50.3230 N   0  0  0  0  0  0  0  0  0  0  0  0
   35.2550   29.1860   51.2020 C   0  0  0  0  0  0  0  0  0  0  0  0
   36.5370   29.1450   50.9260 N   0  0  0  0  0  0  0  0  0  0  0  0
   38.0710   29.6140   49.5290 H   0  0  0  0  0  0  0  0  0  0  0  0
   34.1410   30.6940   48.4060 H   0  0  0  0  0  0  0  0  0  0  0  0
   34.8250   28.8000   52.1210 H   0  0  0  0  0  0  0  0  0  0  0  0
   40.8250   32.5780   45.1530 S   0  0  0  0  0  0  0  0  0  0  0  0
   40.4960   29.7840   44.8640 H   0  0  0  0  0  0  0  0  0  0  0  0
   39.8480   30.2360   44.1800 N   0  0  0  0  0  0  0  0  0  0  0  0
   40.2830   31.5640   43.7820 C   0  0  1  0  0  0  0  0  0  0  0  0
   39.1580   32.1810   42.9880 C   0  0  0  0  0  0  0  0  0  0  0  0
   38.4700   32.7710   43.6050 H   0  0  0  0  0  0  0  0  0  0  0  0
   38.4020   31.2040   42.3260 O   0  0  0  0  0  0  0  0  0  0  0  0
   39.3080   30.2650   41.7980 C   0  0  0  0  0  0  0  0  0  0  0  0
   39.8680   29.4420   42.9480 C   0  0  0  0  0  0  0  0  0  0  0  0
  1 10  1  0  0  0  0
  1  2  1  0  0  0  0
  2  3  2  0  0  0  0
  2  7  1  0  0  0  0
  3  8  1  0  0  0  0
  4  9  1  0  0  0  0
  4  3  1  0  0  0  0
  5  4  2  0  0  0  0
  6  5  1  0  0  0  0
  6  1  2  0  0  0  0
 10 13  1  0  0  0  0
 11 10  2  0  0  0  0
 12 17  1  0  0  0  0
 13 14  1  0  0  0  0
 13 12  2  0  0  0  0
 14 15  2  0  0  0  0
 15 16  1  0  0  0  0
 16 20  1  0  0  0  0
 17 16  2  0  0  0  0
 18 12  1  0  0  0  0
 19 14  1  0  0  0  0
 21  5  1  0  0  0  0
 23 22  1  0  0  0  0
 24 23  1  0  0  0  0
 24 21  1  1  0  0  0
 25 26  1  0  0  0  0
 25 24  1  0  0  0  0
 27 25  1  0  0  0  0
 28 27  1  0  0  0  0
 28 29  1  0  0  0  0
 29 23  1  0  0  0  0
M  END
>  <minimizedAffinity>
-5.42539835

>  <minimizedRMSD>
2.29638171

$$$$
