
 OpenBabel03272510183D

 35 38  0  0  0  0  0  0  0  0999 V2000
   37.4450   29.2020   50.8550 Br  0  0  0  0  0  0  0  0  0  0  0  0
   36.0310   29.2800   49.5820 C   0  0  0  0  0  0  0  0  0  0  0  0
   36.0110   30.2810   48.5980 C   0  0  0  0  0  0  0  0  0  0  0  0
   34.9610   30.2760   47.7150 C   0  0  0  0  0  0  0  0  0  0  0  0
   33.9370   29.3410   47.7500 C   0  0  0  0  0  0  0  0  0  0  0  0
   33.9890   28.3780   48.7210 C   0  0  0  0  0  0  0  0  0  0  0  0
   35.0300   28.3620   49.6200 C   0  0  0  0  0  0  0  0  0  0  0  0
   34.8980   31.0280   46.9350 H   0  0  0  0  0  0  0  0  0  0  0  0
   33.2080   27.6270   48.7840 H   0  0  0  0  0  0  0  0  0  0  0  0
   35.0660   27.5980   50.3870 H   0  0  0  0  0  0  0  0  0  0  0  0
   32.8270   29.3370   46.8130 C   0  0  0  0  0  0  0  0  0  0  0  0
   31.8730   28.3510   46.7230 C   0  0  0  0  0  0  0  0  0  0  0  0
   30.8310   28.3880   45.8150 C   0  0  0  0  0  0  0  0  0  0  0  0
   30.7300   29.4320   44.9680 N   0  0  0  0  0  0  0  0  0  0  0  0
   31.6570   30.3920   45.0530 C   0  0  0  0  0  0  0  0  0  0  0  0
   32.6520   30.3430   45.9320 N   0  0  0  0  0  0  0  0  0  0  0  0
   31.9520   27.5010   47.4070 H   0  0  0  0  0  0  0  0  0  0  0  0
   30.1180   27.5600   45.8120 H   0  0  0  0  0  0  0  0  0  0  0  0
   31.5650   31.4990   44.1700 N   0  0  0  0  0  0  0  0  0  0  0  0
   30.8290   32.7070   44.4870 C   0  0  0  0  0  3  0  0  0  0  0  0
   31.5730   33.5270   44.6760 H   0  0  0  0  0  0  0  0  0  0  0  0
   29.9040   33.0900   43.3260 C   0  0  0  0  0  3  0  0  0  0  0  0
   29.0100   32.4500   43.3700 H   0  0  0  0  0  0  0  0  0  0  0  0
   30.5470   33.0100   42.1090 O   0  0  0  0  0  0  0  0  0  0  0  0
   31.0770   31.7620   41.8660 C   0  0  0  0  0  2  0  0  0  0  0  0
   32.2040   31.5200   42.8680 C   0  0  0  0  0  2  0  0  0  0  0  0
   38.0210   33.1920   49.4700 C   0  0  0  0  0  0  0  0  0  0  0  0
   39.0440   33.1890   48.4580 C   0  0  0  0  0  0  0  0  0  0  0  0
   39.0080   32.1880   47.5100 C   0  0  0  0  0  0  0  0  0  0  0  0
   38.0140   31.2460   47.5670 N   0  0  0  0  0  0  0  0  0  0  0  0
   37.0610   31.2710   48.5320 C   0  0  0  0  0  0  0  0  0  0  0  0
   37.0810   32.2490   49.4720 N   0  0  0  0  0  0  0  0  0  0  0  0
   38.0040   33.9540   50.2360 H   0  0  0  0  0  0  0  0  0  0  0  0
   39.7960   33.9660   48.4770 H   0  0  0  0  0  0  0  0  0  0  0  0
   39.7620   32.1510   46.7300 H   0  0  0  0  0  0  0  0  0  0  0  0
  2  7  1  0  0  0  0
  2  1  1  0  0  0  0
  3  2  2  0  0  0  0
  4  5  2  0  0  0  0
  4  3  1  0  0  0  0
  5  6  1  0  0  0  0
  6  9  1  0  0  0  0
  6  7  2  0  0  0  0
  7 10  1  0  0  0  0
  8  4  1  0  0  0  0
 11  5  1  0  0  0  0
 12 11  1  0  0  0  0
 12 17  1  0  0  0  0
 13 12  2  0  0  0  0
 14 15  2  0  0  0  0
 14 13  1  0  0  0  0
 15 16  1  0  0  0  0
 16 11  2  0  0  0  0
 18 13  1  0  0  0  0
 19 20  1  0  0  0  0
 19 15  1  0  0  0  0
 20 21  1  0  0  0  0
 22 23  1  0  0  0  0
 22 20  1  0  0  0  0
 24 22  1  0  0  0  0
 25 24  1  0  0  0  0
 25 26  1  0  0  0  0
 26 19  1  0  0  0  0
 27 32  1  0  0  0  0
 27 33  1  0  0  0  0
 28 34  1  0  0  0  0
 28 27  2  0  0  0  0
 29 30  2  0  0  0  0
 29 28  1  0  0  0  0
 30 31  1  0  0  0  0
 31  3  1  0  0  0  0
 31 32  2  0  0  0  0
 35 29  1  0  0  0  0
M  END
>  <minimizedAffinity>
-6.59915924

>  <minimizedRMSD>
0.528572738

$$$$
