
 OpenBabel03272510003D

 20 21  0  0  0  0  0  0  0  0999 V2000
   38.3640   31.5450   50.0640 C   0  0  0  0  0  0  0  0  0  0  0  0
   38.5150   31.7480   48.6850 C   0  0  0  0  0  0  0  0  0  0  0  0
   37.5740   31.1940   47.8290 C   0  0  0  0  0  0  0  0  0  0  0  0
   36.5500   30.4770   48.3800 N   0  0  0  0  0  0  0  0  0  0  0  0
   36.4270   30.2940   49.7080 C   0  0  0  0  0  0  0  0  0  0  0  0
   37.3310   30.8270   50.5310 N   0  0  0  0  0  0  0  0  0  0  0  0
   39.1280   32.0020   50.6770 H   0  0  0  0  0  0  0  0  0  0  0  0
   39.3220   32.3130   48.2510 H   0  0  0  0  0  0  0  0  0  0  0  0
   37.5990   31.3170   46.4140 N   0  0  0  0  0  0  0  0  0  0  0  0
   36.7970   30.4670   45.5290 C   0  0  0  0  0  3  0  0  0  0  0  0
   37.3480   29.5570   45.2870 H   0  0  0  0  0  0  0  0  0  0  0  0
   36.5470   31.3180   44.2920 C   0  0  0  0  0  3  0  0  0  0  0  0
   35.8150   30.8630   43.5960 H   0  0  0  0  0  0  0  0  0  0  0  0
   37.7370   31.4470   43.5970 O   0  0  0  0  0  0  0  0  0  0  0  0
   38.8120   31.7760   44.3940 C   0  0  0  0  0  2  0  0  0  0  0  0
   38.4180   32.2910   45.7530 C   0  0  0  0  0  2  0  0  0  0  0  0
   35.2810   29.5000   50.2110 C   0  0  0  0  0  0  0  0  0  0  0  0
   35.3940   29.1700   51.5500 F   0  0  0  0  0  0  0  0  0  0  0  0
   34.0870   30.1910   50.0590 F   0  0  0  0  0  0  0  0  0  0  0  0
   35.1090   28.3140   49.5250 F   0  0  0  0  0  0  0  0  0  0  0  0
  1  6  1  0  0  0  0
  1  7  1  0  0  0  0
  2  1  2  0  0  0  0
  3  4  2  0  0  0  0
  3  2  1  0  0  0  0
  4  5  1  0  0  0  0
  5 17  1  0  0  0  0
  5  6  2  0  0  0  0
  8  2  1  0  0  0  0
  9  3  1  0  0  0  0
 10  9  1  0  0  0  0
 11 10  1  0  0  0  0
 12 10  1  0  0  0  0
 13 12  1  0  0  0  0
 14 12  1  0  0  0  0
 14 15  1  0  0  0  0
 15 16  1  0  0  0  0
 16  9  1  0  0  0  0
 17 18  1  0  0  0  0
 19 17  1  0  0  0  0
 20 17  1  0  0  0  0
M  END
>  <minimizedAffinity>
-4.96937513

>  <minimizedRMSD>
0.597477257

$$$$
