
 OpenBabel03272501193D

 29 31  0  0  1  0  0  0  0  0999 V2000
   37.8210   25.3880   34.1980 C   0  0  0  0  0  0  0  0  0  0  0  0
   38.4840   25.5020   35.4030 C   0  0  0  0  0  0  0  0  0  0  0  0
   38.4230   26.7650   35.9800 C   0  0  0  0  0  0  0  0  0  0  0  0
   37.7340   27.8140   35.3620 C   0  0  0  0  0  0  0  0  0  0  0  0
   37.0990   27.6000   34.1500 C   0  0  0  0  0  0  0  0  0  0  0  0
   37.1360   26.3660   33.5450 C   0  0  0  0  0  0  0  0  0  0  0  0
   38.9290   26.8990   36.9260 H   0  0  0  0  0  0  0  0  0  0  0  0
   37.7640   28.7360   35.9120 H   0  0  0  0  0  0  0  0  0  0  0  0
   36.6230   28.5020   33.8170 H   0  0  0  0  0  0  0  0  0  0  0  0
   38.6540   23.8030   37.1780 C   0  0  0  0  0  0  0  0  0  0  0  0
   39.1860   24.4270   36.0350 C   0  0  0  0  0  0  0  0  0  0  0  0
   40.4030   23.9440   35.5720 C   0  0  0  0  0  0  0  0  0  0  0  0
   41.0130   22.9200   36.2240 N   0  0  0  0  0  0  0  0  0  0  0  0
   40.4490   22.3520   37.3290 C   0  0  0  0  0  0  0  0  0  0  0  0
   39.2560   22.7960   37.8150 N   0  0  0  0  0  0  0  0  0  0  0  0
   37.7030   24.1930   37.5250 H   0  0  0  0  0  0  0  0  0  0  0  0
   40.8550   24.3750   34.7130 H   0  0  0  0  0  0  0  0  0  0  0  0
   40.9140   21.5490   37.8500 H   0  0  0  0  0  0  0  0  0  0  0  0
   37.8310   24.1440   33.5400 O   0  0  0  0  0  0  0  0  0  0  0  0
   37.1340   23.4350   33.7650 H   0  0  0  0  0  0  0  0  0  0  0  0
   36.4970   26.1830   32.3490 O   0  0  0  0  0  0  0  0  0  0  0  0
   36.4120   26.8550   29.2660 H   0  0  0  0  0  0  0  0  0  0  0  0
   36.1950   27.0390   30.2520 N   0  0  0  0  0  0  0  0  0  0  0  0
   37.0840   26.2280   31.1090 C   0  0  1  0  0  3  0  0  0  0  0  0
   38.4270   26.9370   31.1540 C   0  0  0  0  0  3  0  0  0  0  0  0
   38.5440   27.5750   32.0510 H   0  0  0  0  0  0  0  0  0  0  0  0
   38.5730   27.6400   29.9670 O   0  0  0  0  0  0  0  0  0  0  0  0
   37.7830   28.7850   29.9330 C   0  0  0  0  0  2  0  0  0  0  0  0
   36.4410   28.4220   30.5550 C   0  0  0  0  0  2  0  0  0  0  0  0
  1  2  1  0  0  0  0
  2  3  2  0  0  0  0
  2 11  1  0  0  0  0
  3  7  1  0  0  0  0
  4  8  1  0  0  0  0
  4  3  1  0  0  0  0
  5  4  2  0  0  0  0
  6  5  1  0  0  0  0
  6  1  2  0  0  0  0
  9  5  1  0  0  0  0
 10 16  1  0  0  0  0
 10 15  1  0  0  0  0
 11 10  2  0  0  0  0
 12 11  1  0  0  0  0
 12 13  2  0  0  0  0
 13 14  1  0  0  0  0
 14 15  2  0  0  0  0
 14 18  1  0  0  0  0
 17 12  1  0  0  0  0
 19 20  1  0  0  0  0
 19  1  1  0  0  0  0
 21  6  1  0  0  0  0
 22 23  1  0  0  0  0
 23 29  1  0  0  0  0
 23 24  1  0  0  0  0
 24 25  1  0  0  0  0
 24 21  1  1  0  0  0
 25 26  1  0  0  0  0
 27 25  1  0  0  0  0
 28 27  1  0  0  0  0
 28 29  1  0  0  0  0
M  END
>  <minimizedAffinity>
-5.31615686

$$$$

 OpenBabel03272501193D

 29 31  0  0  1  0  0  0  0  0999 V2000
   38.6710   25.3530   33.5950 C   0  0  0  0  0  0  0  0  0  0  0  0
   38.9200   26.6440   33.1760 C   0  0  0  0  0  0  0  0  0  0  0  0
   40.0570   27.2230   33.7280 C   0  0  0  0  0  0  0  0  0  0  0  0
   40.8630   26.5230   34.6320 C   0  0  0  0  0  0  0  0  0  0  0  0
   40.5280   25.2290   34.9920 C   0  0  0  0  0  0  0  0  0  0  0  0
   39.4120   24.6190   34.4690 C   0  0  0  0  0  0  0  0  0  0  0  0
   40.2890   28.2340   33.4260 H   0  0  0  0  0  0  0  0  0  0  0  0
   41.7080   27.0840   34.9830 H   0  0  0  0  0  0  0  0  0  0  0  0
   41.2460   24.8400   35.6890 H   0  0  0  0  0  0  0  0  0  0  0  0
   36.9650   28.0640   32.6960 C   0  0  0  0  0  0  0  0  0  0  0  0
   38.0960   27.3570   32.2490 C   0  0  0  0  0  0  0  0  0  0  0  0
   38.3540   27.3970   30.8850 C   0  0  0  0  0  0  0  0  0  0  0  0
   37.5270   28.0960   30.0630 N   0  0  0  0  0  0  0  0  0  0  0  0
   36.4440   28.7630   30.5550 C   0  0  0  0  0  0  0  0  0  0  0  0
   36.1560   28.7500   31.8860 N   0  0  0  0  0  0  0  0  0  0  0  0
   36.7790   28.0220   33.7650 H   0  0  0  0  0  0  0  0  0  0  0  0
   39.1930   26.8830   30.4860 H   0  0  0  0  0  0  0  0  0  0  0  0
   35.7870   29.3150   29.9240 H   0  0  0  0  0  0  0  0  0  0  0  0
   37.5380   24.6880   33.0880 O   0  0  0  0  0  0  0  0  0  0  0  0
   37.5900   24.1810   32.2040 H   0  0  0  0  0  0  0  0  0  0  0  0
   39.1080   23.3380   34.8400 O   0  0  0  0  0  0  0  0  0  0  0  0
   38.2240   21.4750   37.2310 H   0  0  0  0  0  0  0  0  0  0  0  0
   38.9150   22.0020   36.6840 N   0  0  0  0  0  0  0  0  0  0  0  0
   38.2160   22.9740   35.8190 C   0  0  1  0  0  3  0  0  0  0  0  0
   37.8380   24.1570   36.6940 C   0  0  0  0  0  3  0  0  0  0  0  0
   38.5670   24.9880   36.6290 H   0  0  0  0  0  0  0  0  0  0  0  0
   37.6670   23.6870   37.9880 O   0  0  0  0  0  0  0  0  0  0  0  0
   38.8790   23.4040   38.6090 C   0  0  0  0  0  2  0  0  0  0  0  0
   39.7720   22.7420   37.5680 C   0  0  0  0  0  2  0  0  0  0  0  0
  1  6  1  0  0  0  0
  2  1  2  0  0  0  0
  2  3  1  0  0  0  0
  3  4  2  0  0  0  0
  4  8  1  0  0  0  0
  4  5  1  0  0  0  0
  5  9  1  0  0  0  0
  6 21  1  0  0  0  0
  6  5  2  0  0  0  0
  7  3  1  0  0  0  0
 10 16  1  0  0  0  0
 11 10  1  0  0  0  0
 11  2  1  0  0  0  0
 12 11  2  0  0  0  0
 13 14  2  0  0  0  0
 13 12  1  0  0  0  0
 14 15  1  0  0  0  0
 15 10  2  0  0  0  0
 17 12  1  0  0  0  0
 18 14  1  0  0  0  0
 19  1  1  0  0  0  0
 20 19  1  0  0  0  0
 23 22  1  0  0  0  0
 23 29  1  0  0  0  0
 24 21  1  6  0  0  0
 24 23  1  0  0  0  0
 24 25  1  0  0  0  0
 25 27  1  0  0  0  0
 26 25  1  0  0  0  0
 27 28  1  0  0  0  0
 29 28  1  0  0  0  0
M  END
>  <minimizedAffinity>
-5.17010069

$$$$

 OpenBabel03272501193D

 29 31  0  0  1  0  0  0  0  0999 V2000
   37.6670   24.9210   33.0720 C   0  0  0  0  0  0  0  0  0  0  0  0
   37.0200   25.2970   31.9130 C   0  0  0  0  0  0  0  0  0  0  0  0
   36.4680   24.2460   31.1900 C   0  0  0  0  0  0  0  0  0  0  0  0
   36.5780   22.9230   31.6320 C   0  0  0  0  0  0  0  0  0  0  0  0
   37.2490   22.6460   32.8100 C   0  0  0  0  0  0  0  0  0  0  0  0
   37.8100   23.6560   33.5550 C   0  0  0  0  0  0  0  0  0  0  0  0
   35.9510   24.4970   30.2750 H   0  0  0  0  0  0  0  0  0  0  0  0
   36.1090   22.2090   30.9820 H   0  0  0  0  0  0  0  0  0  0  0  0
   37.2410   21.5900   33.0020 H   0  0  0  0  0  0  0  0  0  0  0  0
   37.8750   27.2030   30.6070 C   0  0  0  0  0  0  0  0  0  0  0  0
   36.9060   26.6510   31.4640 C   0  0  0  0  0  0  0  0  0  0  0  0
   35.8580   27.4840   31.8340 C   0  0  0  0  0  0  0  0  0  0  0  0
   35.8150   28.7600   31.3690 N   0  0  0  0  0  0  0  0  0  0  0  0
   36.7850   29.2410   30.5390 C   0  0  0  0  0  0  0  0  0  0  0  0
   37.8290   28.4560   30.1510 N   0  0  0  0  0  0  0  0  0  0  0  0
   38.6870   26.5370   30.3280 H   0  0  0  0  0  0  0  0  0  0  0  0
   35.0950   27.1260   32.4800 H   0  0  0  0  0  0  0  0  0  0  0  0
   36.7650   30.2380   30.1660 H   0  0  0  0  0  0  0  0  0  0  0  0
   38.2580   25.9200   33.8680 O   0  0  0  0  0  0  0  0  0  0  0  0
   37.7070   26.4130   34.5700 H   0  0  0  0  0  0  0  0  0  0  0  0
   38.4650   23.3530   34.7170 O   0  0  0  0  0  0  0  0  0  0  0  0
   38.4960   21.2940   37.1100 H   0  0  0  0  0  0  0  0  0  0  0  0
   38.9390   21.9560   36.4630 N   0  0  0  0  0  0  0  0  0  0  0  0
   37.8990   22.8010   35.8400 C   0  0  1  0  0  3  0  0  0  0  0  0
   37.5260   23.8680   36.8550 C   0  0  0  0  0  3  0  0  0  0  0  0
   38.0610   24.8230   36.6900 H   0  0  0  0  0  0  0  0  0  0  0  0
   37.7410   23.3390   38.1200 O   0  0  0  0  0  0  0  0  0  0  0  0
   39.0940   23.2740   38.4400 C   0  0  0  0  0  2  0  0  0  0  0  0
   39.8290   22.8210   37.1860 C   0  0  0  0  0  2  0  0  0  0  0  0
  1  6  1  0  0  0  0
  1 19  1  0  0  0  0
  2  1  2  0  0  0  0
  3  4  2  0  0  0  0
  3  2  1  0  0  0  0
  4  5  1  0  0  0  0
  5  9  1  0  0  0  0
  5  6  2  0  0  0  0
  6 21  1  0  0  0  0
  7  3  1  0  0  0  0
  8  4  1  0  0  0  0
 10 11  1  0  0  0  0
 11 12  2  0  0  0  0
 11  2  1  0  0  0  0
 12 17  1  0  0  0  0
 13 12  1  0  0  0  0
 14 13  2  0  0  0  0
 15 14  1  0  0  0  0
 15 10  2  0  0  0  0
 16 10  1  0  0  0  0
 18 14  1  0  0  0  0
 19 20  1  0  0  0  0
 23 22  1  0  0  0  0
 23 29  1  0  0  0  0
 24 21  1  6  0  0  0
 24 23  1  0  0  0  0
 24 25  1  0  0  0  0
 25 27  1  0  0  0  0
 26 25  1  0  0  0  0
 27 28  1  0  0  0  0
 29 28  1  0  0  0  0
M  END
>  <minimizedAffinity>
-4.93881989

$$$$

 OpenBabel03272501193D

 29 31  0  0  1  0  0  0  0  0999 V2000
   35.9450   29.0010   33.3810 C   0  0  0  0  0  0  0  0  0  0  0  0
   35.4580   30.2860   33.5100 C   0  0  0  0  0  0  0  0  0  0  0  0
   35.4680   31.0310   32.3370 C   0  0  0  0  0  0  0  0  0  0  0  0
   35.9400   30.4890   31.1360 C   0  0  0  0  0  0  0  0  0  0  0  0
   36.4100   29.1870   31.1070 C   0  0  0  0  0  0  0  0  0  0  0  0
   36.4170   28.4160   32.2460 C   0  0  0  0  0  0  0  0  0  0  0  0
   35.0960   32.0430   32.3940 H   0  0  0  0  0  0  0  0  0  0  0  0
   35.8940   31.1680   30.3060 H   0  0  0  0  0  0  0  0  0  0  0  0
   36.7320   28.9310   30.1160 H   0  0  0  0  0  0  0  0  0  0  0  0
   33.6210   30.6970   35.0990 C   0  0  0  0  0  0  0  0  0  0  0  0
   34.9740   30.8380   34.7380 C   0  0  0  0  0  0  0  0  0  0  0  0
   35.7860   31.5270   35.6300 C   0  0  0  0  0  0  0  0  0  0  0  0
   35.2560   32.0240   36.7780 N   0  0  0  0  0  0  0  0  0  0  0  0
   33.9350   31.8570   37.0750 C   0  0  0  0  0  0  0  0  0  0  0  0
   33.1050   31.1870   36.2280 N   0  0  0  0  0  0  0  0  0  0  0  0
   33.0010   30.1560   34.3910 H   0  0  0  0  0  0  0  0  0  0  0  0
   36.8160   31.6650   35.4130 H   0  0  0  0  0  0  0  0  0  0  0  0
   33.5060   32.2400   37.9710 H   0  0  0  0  0  0  0  0  0  0  0  0
   35.9730   28.1740   34.5190 O   0  0  0  0  0  0  0  0  0  0  0  0
   35.1540   27.6260   34.7800 H   0  0  0  0  0  0  0  0  0  0  0  0
   36.8850   27.1320   32.1870 O   0  0  0  0  0  0  0  0  0  0  0  0
   37.7990   24.6520   30.4590 H   0  0  0  0  0  0  0  0  0  0  0  0
   37.6750   25.1610   31.3430 N   0  0  0  0  0  0  0  0  0  0  0  0
   36.7030   26.2560   31.1450 C   0  0  1  0  0  3  0  0  0  0  0  0
   35.3180   25.6340   31.1770 C   0  0  0  0  0  3  0  0  0  0  0  0
   34.8370   25.7100   32.1710 H   0  0  0  0  0  0  0  0  0  0  0  0
   35.4330   24.3250   30.7300 O   0  0  0  0  0  0  0  0  0  0  0  0
   36.0100   23.4930   31.6850 C   0  0  0  0  0  2  0  0  0  0  0  0
   37.1380   24.2770   32.3400 C   0  0  0  0  0  2  0  0  0  0  0  0
  1  2  1  0  0  0  0
  1 19  1  0  0  0  0
  2 11  1  0  0  0  0
  3  7  1  0  0  0  0
  3  2  2  0  0  0  0
  4  3  1  0  0  0  0
  5  4  2  0  0  0  0
  5  6  1  0  0  0  0
  6  1  2  0  0  0  0
  8  4  1  0  0  0  0
  9  5  1  0  0  0  0
 10 15  1  0  0  0  0
 11 10  2  0  0  0  0
 11 12  1  0  0  0  0
 12 13  2  0  0  0  0
 13 14  1  0  0  0  0
 14 18  1  0  0  0  0
 15 14  2  0  0  0  0
 16 10  1  0  0  0  0
 17 12  1  0  0  0  0
 19 20  1  0  0  0  0
 21  6  1  0  0  0  0
 22 23  1  0  0  0  0
 23 29  1  0  0  0  0
 24 25  1  0  0  0  0
 24 23  1  0  0  0  0
 24 21  1  1  0  0  0
 25 26  1  0  0  0  0
 27 25  1  0  0  0  0
 27 28  1  0  0  0  0
 28 29  1  0  0  0  0
M  END
>  <minimizedAffinity>
-4.79878283

$$$$

 OpenBabel03272501193D

 29 31  0  0  1  0  0  0  0  0999 V2000
   37.2710   25.5600   32.6700 C   0  0  0  0  0  0  0  0  0  0  0  0
   36.3930   26.0330   31.7170 C   0  0  0  0  0  0  0  0  0  0  0  0
   35.7000   25.0460   31.0260 C   0  0  0  0  0  0  0  0  0  0  0  0
   35.9000   23.6890   31.3020 C   0  0  0  0  0  0  0  0  0  0  0  0
   36.8050   23.3130   32.2800 C   0  0  0  0  0  0  0  0  0  0  0  0
   37.5120   24.2570   32.9860 C   0  0  0  0  0  0  0  0  0  0  0  0
   35.0020   25.3740   30.2690 H   0  0  0  0  0  0  0  0  0  0  0  0
   35.3030   23.0310   30.6980 H   0  0  0  0  0  0  0  0  0  0  0  0
   36.8370   22.2430   32.3630 H   0  0  0  0  0  0  0  0  0  0  0  0
   36.8370   28.0340   30.3490 C   0  0  0  0  0  0  0  0  0  0  0  0
   36.1880   27.4210   31.4370 C   0  0  0  0  0  0  0  0  0  0  0  0
   35.3570   28.2310   32.2010 C   0  0  0  0  0  0  0  0  0  0  0  0
   35.2100   29.5420   31.8760 N   0  0  0  0  0  0  0  0  0  0  0  0
   35.8660   30.0810   30.8080 C   0  0  0  0  0  0  0  0  0  0  0  0
   36.6900   29.3220   30.0330 N   0  0  0  0  0  0  0  0  0  0  0  0
   37.4820   27.3860   29.7640 H   0  0  0  0  0  0  0  0  0  0  0  0
   34.8400   27.8260   33.0360 H   0  0  0  0  0  0  0  0  0  0  0  0
   35.7610   31.1070   30.5410 H   0  0  0  0  0  0  0  0  0  0  0  0
   38.0180   26.4890   33.4180 O   0  0  0  0  0  0  0  0  0  0  0  0
   37.6280   26.9010   34.2660 H   0  0  0  0  0  0  0  0  0  0  0  0
   38.3980   23.8560   33.9480 O   0  0  0  0  0  0  0  0  0  0  0  0
   38.2540   21.5140   36.0600 H   0  0  0  0  0  0  0  0  0  0  0  0
   38.7040   22.0420   35.3030 N   0  0  0  0  0  0  0  0  0  0  0  0
   38.0710   23.3720   35.1910 C   0  0  1  0  0  3  0  0  0  0  0  0
   38.6550   24.2370   36.2950 C   0  0  0  0  0  3  0  0  0  0  0  0
   39.4920   24.8710   35.9450 H   0  0  0  0  0  0  0  0  0  0  0  0
   39.0130   23.3990   37.3420 O   0  0  0  0  0  0  0  0  0  0  0  0
   40.1710   22.6790   37.0670 C   0  0  0  0  0  2  0  0  0  0  0  0
   40.0930   22.2440   35.6100 C   0  0  0  0  0  2  0  0  0  0  0  0
  1  6  1  0  0  0  0
  1 19  1  0  0  0  0
  2  1  2  0  0  0  0
  3  4  2  0  0  0  0
  3  2  1  0  0  0  0
  4  5  1  0  0  0  0
  5  9  1  0  0  0  0
  5  6  2  0  0  0  0
  6 21  1  0  0  0  0
  7  3  1  0  0  0  0
  8  4  1  0  0  0  0
 10 11  1  0  0  0  0
 11  2  1  0  0  0  0
 11 12  2  0  0  0  0
 12 17  1  0  0  0  0
 13 12  1  0  0  0  0
 14 13  2  0  0  0  0
 15 10  2  0  0  0  0
 15 14  1  0  0  0  0
 16 10  1  0  0  0  0
 18 14  1  0  0  0  0
 19 20  1  0  0  0  0
 23 29  1  0  0  0  0
 23 22  1  0  0  0  0
 24 21  1  6  0  0  0
 24 23  1  0  0  0  0
 24 25  1  0  0  0  0
 25 27  1  0  0  0  0
 26 25  1  0  0  0  0
 28 27  1  0  0  0  0
 29 28  1  0  0  0  0
M  END
>  <minimizedAffinity>
-4.79633379

$$$$

 OpenBabel03272501193D

 29 31  0  0  1  0  0  0  0  0999 V2000
   38.9510   25.5460   33.4900 C   0  0  0  0  0  0  0  0  0  0  0  0
   39.6320   25.5300   34.6900 C   0  0  0  0  0  0  0  0  0  0  0  0
   40.7270   26.3850   34.7460 C   0  0  0  0  0  0  0  0  0  0  0  0
   41.0810   27.1850   33.6540 C   0  0  0  0  0  0  0  0  0  0  0  0
   40.3330   27.1300   32.4910 C   0  0  0  0  0  0  0  0  0  0  0  0
   39.2430   26.2980   32.3930 C   0  0  0  0  0  0  0  0  0  0  0  0
   41.2890   26.4030   35.6690 H   0  0  0  0  0  0  0  0  0  0  0  0
   41.9450   27.7980   33.8290 H   0  0  0  0  0  0  0  0  0  0  0  0
   40.7380   27.8020   31.7580 H   0  0  0  0  0  0  0  0  0  0  0  0
   38.2310   25.1090   36.6710 C   0  0  0  0  0  0  0  0  0  0  0  0
   39.2660   24.7130   35.8060 C   0  0  0  0  0  0  0  0  0  0  0  0
   39.8940   23.5080   36.0980 C   0  0  0  0  0  0  0  0  0  0  0  0
   39.4930   22.7840   37.1760 N   0  0  0  0  0  0  0  0  0  0  0  0
   38.4810   23.2190   37.9800 C   0  0  0  0  0  0  0  0  0  0  0  0
   37.8400   24.3940   37.7290 N   0  0  0  0  0  0  0  0  0  0  0  0
   37.7520   26.0520   36.4280 H   0  0  0  0  0  0  0  0  0  0  0  0
   40.6830   23.1560   35.4810 H   0  0  0  0  0  0  0  0  0  0  0  0
   38.1570   22.6630   38.8280 H   0  0  0  0  0  0  0  0  0  0  0  0
   37.8280   24.7100   33.3420 O   0  0  0  0  0  0  0  0  0  0  0  0
   36.9060   25.0260   33.6430 H   0  0  0  0  0  0  0  0  0  0  0  0
   38.5210   26.2670   31.2320 O   0  0  0  0  0  0  0  0  0  0  0  0
   36.0560   27.3760   29.6000 H   0  0  0  0  0  0  0  0  0  0  0  0
   36.5050   26.7300   30.2610 N   0  0  0  0  0  0  0  0  0  0  0  0
   37.7900   27.3050   30.7100 C   0  0  1  0  0  3  0  0  0  0  0  0
   37.4650   28.3440   31.7700 C   0  0  0  0  0  3  0  0  0  0  0  0
   37.5580   27.9480   32.8000 H   0  0  0  0  0  0  0  0  0  0  0  0
   36.2020   28.8470   31.4950 O   0  0  0  0  0  0  0  0  0  0  0  0
   35.1940   27.9480   31.8310 C   0  0  0  0  0  2  0  0  0  0  0  0
   35.6730   26.5630   31.4190 C   0  0  0  0  0  2  0  0  0  0  0  0
  1  2  1  0  0  0  0
  2  3  2  0  0  0  0
  2 11  1  0  0  0  0
  3  7  1  0  0  0  0
  4  8  1  0  0  0  0
  4  3  1  0  0  0  0
  5  4  2  0  0  0  0
  6  5  1  0  0  0  0
  6  1  2  0  0  0  0
  9  5  1  0  0  0  0
 10 15  1  0  0  0  0
 11 12  1  0  0  0  0
 11 10  2  0  0  0  0
 12 13  2  0  0  0  0
 13 14  1  0  0  0  0
 14 18  1  0  0  0  0
 15 14  2  0  0  0  0
 16 10  1  0  0  0  0
 17 12  1  0  0  0  0
 19  1  1  0  0  0  0
 19 20  1  0  0  0  0
 21  6  1  0  0  0  0
 22 23  1  0  0  0  0
 23 24  1  0  0  0  0
 23 29  1  0  0  0  0
 24 21  1  1  0  0  0
 24 25  1  0  0  0  0
 25 26  1  0  0  0  0
 27 25  1  0  0  0  0
 27 28  1  0  0  0  0
 29 28  1  0  0  0  0
M  END
>  <minimizedAffinity>
-4.7538476

$$$$

 OpenBabel03272501193D

 29 31  0  0  1  0  0  0  0  0999 V2000
   33.8210   30.1770   34.6860 C   0  0  0  0  0  0  0  0  0  0  0  0
   35.1920   30.2300   34.5430 C   0  0  0  0  0  0  0  0  0  0  0  0
   35.8380   31.0570   35.4560 C   0  0  0  0  0  0  0  0  0  0  0  0
   35.1230   31.7620   36.4300 C   0  0  0  0  0  0  0  0  0  0  0  0
   33.7450   31.6430   36.4920 C   0  0  0  0  0  0  0  0  0  0  0  0
   33.0680   30.8370   35.6080 C   0  0  0  0  0  0  0  0  0  0  0  0
   36.9140   31.1270   35.3790 H   0  0  0  0  0  0  0  0  0  0  0  0
   35.7410   32.3630   37.0700 H   0  0  0  0  0  0  0  0  0  0  0  0
   33.3570   32.2460   37.2900 H   0  0  0  0  0  0  0  0  0  0  0  0
   36.1090   30.0490   32.2640 C   0  0  0  0  0  0  0  0  0  0  0  0
   35.9220   29.5060   33.5480 C   0  0  0  0  0  0  0  0  0  0  0  0
   36.4780   28.2550   33.7810 C   0  0  0  0  0  0  0  0  0  0  0  0
   37.1590   27.6250   32.7880 N   0  0  0  0  0  0  0  0  0  0  0  0
   37.3080   28.2010   31.5610 C   0  0  0  0  0  0  0  0  0  0  0  0
   36.7790   29.4270   31.2910 N   0  0  0  0  0  0  0  0  0  0  0  0
   35.6680   31.0270   32.1000 H   0  0  0  0  0  0  0  0  0  0  0  0
   36.3710   27.7920   34.7310 H   0  0  0  0  0  0  0  0  0  0  0  0
   37.8390   27.7200   30.7730 H   0  0  0  0  0  0  0  0  0  0  0  0
   33.0830   29.3650   33.8030 O   0  0  0  0  0  0  0  0  0  0  0  0
   32.9450   28.3760   34.0050 H   0  0  0  0  0  0  0  0  0  0  0  0
   31.7060   30.7360   35.6950 O   0  0  0  0  0  0  0  0  0  0  0  0
   29.1840   29.1180   36.6870 H   0  0  0  0  0  0  0  0  0  0  0  0
   29.8990   29.3700   35.9950 N   0  0  0  0  0  0  0  0  0  0  0  0
   31.0100   30.0710   36.6730 C   0  0  1  0  0  3  0  0  0  0  0  0
   31.8650   29.0070   37.3390 C   0  0  0  0  0  3  0  0  0  0  0  0
   32.7410   28.7170   36.7280 H   0  0  0  0  0  0  0  0  0  0  0  0
   31.0410   27.9340   37.6480 O   0  0  0  0  0  0  0  0  0  0  0  0
   30.7030   27.1910   36.5210 C   0  0  0  0  0  2  0  0  0  0  0  0
   30.4360   28.1800   35.3950 C   0  0  0  0  0  2  0  0  0  0  0  0
  1  6  1  0  0  0  0
  2  1  2  0  0  0  0
  2  3  1  0  0  0  0
  3  4  2  0  0  0  0
  4  5  1  0  0  0  0
  4  8  1  0  0  0  0
  5  9  1  0  0  0  0
  6 21  1  0  0  0  0
  6  5  2  0  0  0  0
  7  3  1  0  0  0  0
 10 11  1  0  0  0  0
 11 12  2  0  0  0  0
 11  2  1  0  0  0  0
 12 17  1  0  0  0  0
 13 12  1  0  0  0  0
 14 13  2  0  0  0  0
 15 14  1  0  0  0  0
 15 10  2  0  0  0  0
 16 10  1  0  0  0  0
 18 14  1  0  0  0  0
 19 20  1  0  0  0  0
 19  1  1  0  0  0  0
 23 24  1  0  0  0  0
 23 22  1  0  0  0  0
 24 21  1  6  0  0  0
 24 25  1  0  0  0  0
 25 27  1  0  0  0  0
 26 25  1  0  0  0  0
 28 27  1  0  0  0  0
 29 23  1  0  0  0  0
 29 28  1  0  0  0  0
M  END
>  <minimizedAffinity>
-4.73415804

$$$$

 OpenBabel03272501193D

 29 31  0  0  1  0  0  0  0  0999 V2000
   37.8610   24.5130   33.6090 C   0  0  0  0  0  0  0  0  0  0  0  0
   38.0900   23.2580   34.1350 C   0  0  0  0  0  0  0  0  0  0  0  0
   37.4610   22.2210   33.4560 C   0  0  0  0  0  0  0  0  0  0  0  0
   36.6660   22.4660   32.3310 C   0  0  0  0  0  0  0  0  0  0  0  0
   36.4950   23.7630   31.8790 C   0  0  0  0  0  0  0  0  0  0  0  0
   37.1000   24.8180   32.5220 C   0  0  0  0  0  0  0  0  0  0  0  0
   37.6150   21.2210   33.8350 H   0  0  0  0  0  0  0  0  0  0  0  0
   36.2390   21.5790   31.9010 H   0  0  0  0  0  0  0  0  0  0  0  0
   35.8610   23.7740   31.0140 H   0  0  0  0  0  0  0  0  0  0  0  0
   40.2180   22.5240   35.1360 C   0  0  0  0  0  0  0  0  0  0  0  0
   38.9060   23.0090   35.2840 C   0  0  0  0  0  0  0  0  0  0  0  0
   38.4670   23.2260   36.5830 C   0  0  0  0  0  0  0  0  0  0  0  0
   39.2970   22.9670   37.6270 N   0  0  0  0  0  0  0  0  0  0  0  0
   40.5620   22.4970   37.4220 C   0  0  0  0  0  0  0  0  0  0  0  0
   41.0310   22.2720   36.1630 N   0  0  0  0  0  0  0  0  0  0  0  0
   40.5450   22.3610   34.1130 H   0  0  0  0  0  0  0  0  0  0  0  0
   37.4850   23.5910   36.7600 H   0  0  0  0  0  0  0  0  0  0  0  0
   41.2240   22.2900   38.2300 H   0  0  0  0  0  0  0  0  0  0  0  0
   38.4580   25.6240   34.2340 O   0  0  0  0  0  0  0  0  0  0  0  0
   39.4040   25.9090   33.9850 H   0  0  0  0  0  0  0  0  0  0  0  0
   36.9150   26.0890   32.0520 O   0  0  0  0  0  0  0  0  0  0  0  0
   36.6320   27.4720   29.2280 H   0  0  0  0  0  0  0  0  0  0  0  0
   36.3730   27.3300   30.2120 N   0  0  0  0  0  0  0  0  0  0  0  0
   37.4610   26.6090   30.9050 C   0  0  1  0  0  3  0  0  0  0  0  0
   38.5430   27.6300   31.2170 C   0  0  0  0  0  3  0  0  0  0  0  0
   38.4730   28.0250   32.2480 H   0  0  0  0  0  0  0  0  0  0  0  0
   38.4770   28.6240   30.2510 O   0  0  0  0  0  0  0  0  0  0  0  0
   37.3900   29.4710   30.4420 C   0  0  0  0  0  2  0  0  0  0  0  0
   36.2120   28.6020   30.8590 C   0  0  0  0  0  2  0  0  0  0  0  0
  1  2  1  0  0  0  0
  1 19  1  0  0  0  0
  2 11  1  0  0  0  0
  3  7  1  0  0  0  0
  3  2  2  0  0  0  0
  4  3  1  0  0  0  0
  5  4  2  0  0  0  0
  5  6  1  0  0  0  0
  6  1  2  0  0  0  0
  8  4  1  0  0  0  0
  9  5  1  0  0  0  0
 10 11  2  0  0  0  0
 10 15  1  0  0  0  0
 11 12  1  0  0  0  0
 12 17  1  0  0  0  0
 12 13  2  0  0  0  0
 14 13  1  0  0  0  0
 14 18  1  0  0  0  0
 15 14  2  0  0  0  0
 16 10  1  0  0  0  0
 20 19  1  0  0  0  0
 21  6  1  0  0  0  0
 22 23  1  0  0  0  0
 23 29  1  0  0  0  0
 23 24  1  0  0  0  0
 24 25  1  0  0  0  0
 24 21  1  1  0  0  0
 25 26  1  0  0  0  0
 27 28  1  0  0  0  0
 27 25  1  0  0  0  0
 28 29  1  0  0  0  0
M  END
>  <minimizedAffinity>
-4.60363913

$$$$

 OpenBabel03272501193D

 29 31  0  0  1  0  0  0  0  0999 V2000
   39.7360   23.9030   35.8670 C   0  0  0  0  0  0  0  0  0  0  0  0
   40.4510   23.1210   36.7510 C   0  0  0  0  0  0  0  0  0  0  0  0
   39.8260   22.9100   37.9740 C   0  0  0  0  0  0  0  0  0  0  0  0
   38.5710   23.4610   38.2530 C   0  0  0  0  0  0  0  0  0  0  0  0
   37.9320   24.2350   37.2990 C   0  0  0  0  0  0  0  0  0  0  0  0
   38.5150   24.4680   36.0770 C   0  0  0  0  0  0  0  0  0  0  0  0
   40.3520   22.3020   38.6970 H   0  0  0  0  0  0  0  0  0  0  0  0
   38.2010   23.2220   39.2330 H   0  0  0  0  0  0  0  0  0  0  0  0
   36.9860   24.5770   37.6730 H   0  0  0  0  0  0  0  0  0  0  0  0
   41.8550   21.1930   36.1360 C   0  0  0  0  0  0  0  0  0  0  0  0
   41.7330   22.5550   36.4620 C   0  0  0  0  0  0  0  0  0  0  0  0
   42.9080   23.2970   36.4840 C   0  0  0  0  0  0  0  0  0  0  0  0
   44.0910   22.6920   36.1990 N   0  0  0  0  0  0  0  0  0  0  0  0
   44.1480   21.3650   35.8890 C   0  0  0  0  0  0  0  0  0  0  0  0
   43.0190   20.6030   35.8560 N   0  0  0  0  0  0  0  0  0  0  0  0
   40.9270   20.6290   36.1240 H   0  0  0  0  0  0  0  0  0  0  0  0
   42.8810   24.3310   36.7230 H   0  0  0  0  0  0  0  0  0  0  0  0
   45.0670   20.8780   35.6640 H   0  0  0  0  0  0  0  0  0  0  0  0
   40.2930   24.1700   34.6020 O   0  0  0  0  0  0  0  0  0  0  0  0
   40.1560   23.5190   33.8290 H   0  0  0  0  0  0  0  0  0  0  0  0
   37.8600   25.2340   35.1520 O   0  0  0  0  0  0  0  0  0  0  0  0
   39.2300   27.7630   33.8530 H   0  0  0  0  0  0  0  0  0  0  0  0
   38.8600   26.8060   33.8300 N   0  0  0  0  0  0  0  0  0  0  0  0
   37.9830   26.5920   35.0000 C   0  0  1  0  0  3  0  0  0  0  0  0
   36.6470   27.2400   34.6780 C   0  0  0  0  0  3  0  0  0  0  0  0
   35.9030   26.5160   34.2910 H   0  0  0  0  0  0  0  0  0  0  0  0
   36.8860   28.2900   33.8030 O   0  0  0  0  0  0  0  0  0  0  0  0
   37.1690   27.8460   32.5150 C   0  0  0  0  0  2  0  0  0  0  0  0
   38.0630   26.6220   32.6490 C   0  0  0  0  0  2  0  0  0  0  0  0
  1  6  2  0  0  0  0
  1  2  1  0  0  0  0
  2  3  2  0  0  0  0
  3  4  1  0  0  0  0
  3  7  1  0  0  0  0
  4  8  1  0  0  0  0
  5  9  1  0  0  0  0
  5  4  2  0  0  0  0
  6  5  1  0  0  0  0
 10 11  1  0  0  0  0
 11 12  2  0  0  0  0
 11  2  1  0  0  0  0
 12 17  1  0  0  0  0
 13 12  1  0  0  0  0
 14 13  2  0  0  0  0
 15 14  1  0  0  0  0
 15 10  2  0  0  0  0
 16 10  1  0  0  0  0
 18 14  1  0  0  0  0
 19  1  1  0  0  0  0
 20 19  1  0  0  0  0
 21  6  1  0  0  0  0
 23 22  1  0  0  0  0
 23 24  1  0  0  0  0
 24 21  1  6  0  0  0
 25 24  1  0  0  0  0
 26 25  1  0  0  0  0
 27 25  1  0  0  0  0
 28 29  1  0  0  0  0
 28 27  1  0  0  0  0
 29 23  1  0  0  0  0
M  END
>  <minimizedAffinity>
-4.57893991

$$$$
