
 OpenBabel03272505293D

 39 42  0  0  0  0  0  0  0  0999 V2000
   37.3480   31.1390   47.1040 N   0  0  0  0  0  0  0  0  0  0  0  0
   36.7010   30.9030   45.9280 C   0  0  0  0  0  0  0  0  0  0  0  0
   37.1570   31.4400   44.7300 C   0  0  0  0  0  0  0  0  0  0  0  0
   38.3060   32.2350   44.7710 C   0  0  0  0  0  0  0  0  0  0  0  0
   38.7510   32.7380   43.7150 O   0  0  0  0  0  0  0  0  0  0  0  0
   38.9510   32.4650   45.9620 N   0  0  0  0  0  0  0  0  0  0  0  0
   38.4200   31.8970   47.0420 C   0  0  0  0  0  0  0  0  0  0  0  0
   39.0390   32.1350   48.1060 O   0  0  0  0  0  0  0  0  0  0  0  0
   35.8090   30.2830   45.9200 H   0  0  0  0  0  0  0  0  0  0  0  0
   36.5140   31.2250   43.4610 C   0  0  0  0  0  0  0  0  0  0  0  0
   36.7690   30.1490   42.6480 C   0  0  0  0  0  0  0  0  0  0  0  0
   36.1870   29.8970   41.4310 C   0  0  0  0  0  0  0  0  0  0  0  0
   35.2400   30.8140   40.9630 C   0  0  0  0  0  0  0  0  0  0  0  0
   34.9960   31.9040   41.8110 C   0  0  0  0  0  0  0  0  0  0  0  0
   35.6070   32.0720   42.9750 N   0  0  0  0  0  0  0  0  0  0  0  0
   37.5010   29.3980   42.9620 H   0  0  0  0  0  0  0  0  0  0  0  0
   36.4170   29.0360   40.8240 H   0  0  0  0  0  0  0  0  0  0  0  0
   34.7910   30.6120   40.0180 H   0  0  0  0  0  0  0  0  0  0  0  0
   34.0250   32.8450   41.3280 N   0  0  0  0  0  0  0  0  0  0  0  0
   33.8680   33.0310   39.9000 C   0  0  0  0  0  0  0  0  0  0  0  0
   34.7140   33.6540   39.5470 H   0  0  0  0  0  0  0  0  0  0  0  0
   32.6000   33.8570   39.7200 C   0  0  0  0  0  0  0  0  0  0  0  0
   31.7710   33.2730   40.1940 H   0  0  0  0  0  0  0  0  0  0  0  0
   32.8010   35.0420   40.4360 O   0  0  0  0  0  0  0  0  0  0  0  0
   32.6450   34.8420   41.7990 C   0  0  0  0  0  0  0  0  0  0  0  0
   33.2350   33.5760   42.2970 C   0  0  0  0  0  0  0  0  0  0  0  0
   37.2500   29.4190   50.3920 C   0  0  0  0  0  0  0  0  0  0  0  0
   37.7360   29.9510   49.1900 C   0  0  0  0  0  0  0  0  0  0  0  0
   36.8890   30.5970   48.3110 C   0  0  0  0  0  0  0  0  0  0  0  0
   35.5830   30.6940   48.6580 N   0  0  0  0  0  0  0  0  0  0  0  0
   35.0920   30.1800   49.8270 C   0  0  0  0  0  0  0  0  0  0  0  0
   35.9390   29.5470   50.6790 N   0  0  0  0  0  0  0  0  0  0  0  0
   37.8860   28.9160   51.0850 H   0  0  0  0  0  0  0  0  0  0  0  0
   38.7900   29.8380   48.9770 H   0  0  0  0  0  0  0  0  0  0  0  0
   34.0480   30.3360   49.9540 H   0  0  0  0  0  0  0  0  0  0  0  0
   40.1350   33.2870   45.9880 C   0  0  0  0  0  0  0  0  0  0  0  0
   40.0590   34.2760   45.0540 F   0  0  0  0  0  0  0  0  0  0  0  0
   41.2960   32.5890   45.7230 F   0  0  0  0  0  0  0  0  0  0  0  0
   40.2220   33.9030   47.2510 F   0  0  0  0  0  0  0  0  0  0  0  0
  1 29  1  0  0  0  0
  2  1  1  0  0  0  0
  3  4  1  0  0  0  0
  3  2  2  0  0  0  0
  4  6  1  0  0  0  0
  5  4  2  0  0  0  0
  6 36  1  0  0  0  0
  6  7  1  0  0  0  0
  7  1  1  0  0  0  0
  7  8  2  0  0  0  0
  9  2  1  0  0  0  0
 10  3  1  0  0  0  0
 11 16  1  0  0  0  0
 11 10  2  0  0  0  0
 12 11  1  0  0  0  0
 13 12  2  0  0  0  0
 13 14  1  0  0  0  0
 14 15  2  0  0  0  0
 15 10  1  0  0  0  0
 17 12  1  0  0  0  0
 18 13  1  0  0  0  0
 19 14  1  0  0  0  0
 19 26  1  0  0  0  0
 20 19  1  0  0  0  0
 21 20  1  0  0  0  0
 22 20  1  0  0  0  0
 22 23  1  0  0  0  0
 22 24  1  0  0  0  0
 24 25  1  0  0  0  0
 25 26  1  0  0  0  0
 27 32  1  0  0  0  0
 27 33  1  0  0  0  0
 28 27  2  0  0  0  0
 29 30  2  0  0  0  0
 29 28  1  0  0  0  0
 30 31  1  0  0  0  0
 31 35  1  0  0  0  0
 31 32  2  0  0  0  0
 34 28  1  0  0  0  0
 36 39  1  0  0  0  0
 37 36  1  0  0  0  0
 38 36  1  0  0  0  0
M  END
>  <minimizedAffinity>
-6.77585268

>  <minimizedRMSD>
0.424674153

$$$$
