
 OpenBabel03272500493D

 44 49  0  0  1  0  0  0  0  0999 V2000
   31.5010   27.7920   48.7510 C   0  0  1  0  0  0  0  0  0  0  0  0
   31.8630   26.4920   47.9370 C   0  0  0  0  0  0  0  0  0  0  0  0
   31.7850   27.8570   47.3210 C   0  0  2  0  0  0  0  0  0  0  0  0
   32.2910   28.0240   49.5220 H   0  0  0  0  0  0  0  0  0  0  0  0
   31.0080   25.8220   47.7070 H   0  0  0  0  0  0  0  0  0  0  0  0
   32.8610   26.0850   48.0790 H   0  0  0  0  0  0  0  0  0  0  0  0
   30.9230   28.0530   46.6340 H   0  0  0  0  0  0  0  0  0  0  0  0
   28.0730   28.6000   49.4680 C   0  0  0  0  0  0  0  0  0  0  0  0
   28.2860   27.5940   50.3840 C   0  0  0  0  0  0  0  0  0  0  0  0
   29.6200   27.1430   50.2440 C   0  0  0  0  0  0  0  0  0  0  0  0
   30.1480   27.8970   49.2510 N   0  0  0  0  0  0  0  0  0  0  0  0
   29.2220   28.7170   48.8380 N   0  0  0  0  0  0  0  0  0  0  0  0
   27.6060   27.1690   51.1160 H   0  0  0  0  0  0  0  0  0  0  0  0
   30.1130   26.3570   50.8270 H   0  0  0  0  0  0  0  0  0  0  0  0
   25.5730   28.6580   49.6010 C   0  0  0  0  0  0  0  0  0  0  0  0
   26.8200   29.2850   49.3310 C   0  0  0  0  0  0  0  0  0  0  0  0
   26.7760   30.5970   48.9260 C   0  0  0  0  0  0  0  0  0  0  0  0
   25.5700   31.2190   48.8050 N   0  0  0  0  0  0  0  0  0  0  0  0
   24.4060   30.5820   49.0720 C   0  0  0  0  0  0  0  0  0  0  0  0
   24.4040   29.2910   49.4730 N   0  0  0  0  0  0  0  0  0  0  0  0
   25.5730   27.6290   49.9260 H   0  0  0  0  0  0  0  0  0  0  0  0
   27.7150   31.1270   48.7020 H   0  0  0  0  0  0  0  0  0  0  0  0
   23.5950   31.2560   48.9130 H   0  0  0  0  0  0  0  0  0  0  0  0
   33.0500   28.5070   46.8390 C   0  0  0  0  0  0  0  0  0  0  0  0
   33.4620   28.5870   45.5220 C   0  0  0  0  0  0  0  0  0  0  0  0
   34.6380   29.2630   45.4850 N   0  0  0  0  0  0  0  0  0  0  0  0
   34.9750   29.6110   46.7520 C   0  0  0  0  0  0  0  0  0  0  0  0
   33.9990   29.1400   47.5460 N   0  0  0  0  0  0  0  0  0  0  0  0
   32.9240   28.1730   44.6650 H   0  0  0  0  0  0  0  0  0  0  0  0
   35.1930   29.4810   44.6060 H   0  0  0  0  0  0  0  0  0  0  0  0
   36.1780   30.3610   47.1670 C   0  0  0  0  0  0  0  0  0  0  0  0
   36.3200   30.8180   48.5030 C   0  0  0  0  0  0  0  0  0  0  0  0
   37.9340   31.6670   48.4770 S   0  0  0  0  0  0  0  0  0  0  0  0
   38.1630   31.2560   46.6220 C   0  0  0  0  0  0  0  0  0  0  0  0
   37.2080   30.6850   46.3960 N   0  0  0  0  0  0  0  0  0  0  0  0
   35.5910   30.6590   49.2900 H   0  0  0  0  0  0  0  0  0  0  0  0
   39.4300   31.8190   46.2550 N   0  0  0  0  0  0  0  0  0  0  0  0
   39.7900   33.2400   46.2740 C   0  0  0  0  0  0  0  0  0  0  0  0
   39.0130   33.8540   46.7450 H   0  0  0  0  0  0  0  0  0  0  0  0
   40.0130   33.5950   44.7970 C   0  0  0  0  0  0  0  0  0  0  0  0
   41.0080   34.0490   44.6290 H   0  0  0  0  0  0  0  0  0  0  0  0
   39.8800   32.5110   43.9580 O   0  0  0  0  0  0  0  0  0  0  0  0
   40.6770   31.4170   44.2860 C   0  0  0  0  0  0  0  0  0  0  0  0
   40.5520   31.0420   45.7620 C   0  0  0  0  0  0  0  0  0  0  0  0
  1 11  1  0  0  0  0
  1  4  1  1  0  0  0
  2  6  1  0  0  0  0
  2  1  1  0  0  0  0
  3  7  1  6  0  0  0
  3  2  1  0  0  0  0
  3  1  1  0  0  0  0
  5  2  1  0  0  0  0
  8  9  1  0  0  0  0
  9 13  1  0  0  0  0
 10  9  2  0  0  0  0
 10 14  1  0  0  0  0
 11 10  1  0  0  0  0
 12 11  1  0  0  0  0
 12  8  2  0  0  0  0
 15 21  1  0  0  0  0
 16  8  1  0  0  0  0
 16 15  2  0  0  0  0
 17 16  1  0  0  0  0
 18 17  2  0  0  0  0
 18 19  1  0  0  0  0
 19 20  2  0  0  0  0
 20 15  1  0  0  0  0
 22 17  1  0  0  0  0
 23 19  1  0  0  0  0
 24  3  1  0  0  0  0
 24 28  1  0  0  0  0
 25 24  2  0  0  0  0
 26 25  1  0  0  0  0
 26 27  1  0  0  0  0
 27 31  1  0  0  0  0
 27 28  2  0  0  0  0
 29 25  1  0  0  0  0
 30 26  1  0  0  0  0
 31 32  2  0  0  0  0
 32 36  1  0  0  0  0
 33 32  1  0  0  0  0
 34 33  1  0  0  0  0
 35 34  2  0  0  0  0
 35 31  1  0  0  0  0
 37 38  1  0  0  0  0
 37 34  1  0  0  0  0
 38 39  1  0  0  0  0
 40 38  1  0  0  0  0
 41 40  1  0  0  0  0
 42 43  1  0  0  0  0
 42 40  1  0  0  0  0
 43 44  1  0  0  0  0
 44 37  1  0  0  0  0
M  END
>  <minimizedAffinity>
-7.25305653

>  <minimizedRMSD>
2.51512718

$$$$
