
     RDKit          3D

 38 40  0  0  0  0  0  0  0  0999 V2000
   38.0015   31.3948   47.6304 C   0  0  0  0  0  0  0  0  0  0  0  0
   37.0799   31.3327   48.6800 C   0  0  0  0  0  0  0  0  0  0  0  0
   37.1937   32.3515   49.6280 C   0  0  0  0  0  0  0  0  0  0  0  0
   38.1784   33.3435   49.4934 C   0  0  0  0  0  0  0  0  0  0  0  0
   39.0489   33.3194   48.4137 C   0  0  0  0  0  0  0  0  0  0  0  0
   38.9604   32.3297   47.4654 C   0  0  0  0  0  0  0  0  0  0  0  0
   34.9368   30.3518   47.9833 C   0  0  0  0  0  0  0  0  0  0  0  0
   36.0813   30.3112   48.7994 C   0  0  0  0  0  0  0  0  0  0  0  0
   36.1938   29.2582   49.7031 C   0  0  0  0  0  0  0  0  0  0  0  0
   35.1983   28.3274   49.7513 N   0  0  0  0  0  0  0  0  0  0  0  0
   34.1063   28.4100   48.9380 C   0  0  0  0  0  0  0  0  0  0  0  0
   33.9821   29.4098   48.0683 N   0  0  0  0  0  0  0  0  0  0  0  0
   37.3750   29.1627   50.5885 C   0  0  0  0  0  0  0  0  0  0  0  0
   37.9440   30.4036   46.6444 O   0  0  0  0  0  0  0  0  0  0  0  0
   39.8353   32.3377   46.4097 O   0  0  0  0  0  0  0  0  0  0  0  0
   36.4798   32.3012   50.4384 H   0  0  0  0  0  0  0  0  0  0  0  0
   38.1437   34.0527   50.2916 H   0  0  0  0  0  0  0  0  0  0  0  0
   39.7149   34.1499   48.4932 H   0  0  0  0  0  0  0  0  0  0  0  0
   34.8188   31.1583   47.2695 H   0  0  0  0  0  0  0  0  0  0  0  0
   33.4114   27.5868   49.1077 H   0  0  0  0  0  0  0  0  0  0  0  0
   38.2070   29.7382   50.1704 H   0  0  0  0  0  0  0  0  0  0  0  0
   37.1140   29.6419   51.5723 H   0  0  0  0  0  0  0  0  0  0  0  0
   37.6953   28.1156   50.7855 H   0  0  0  0  0  0  0  0  0  0  0  0
   38.6899   30.1611   46.0343 H   0  0  0  0  0  0  0  0  0  0  0  0
   39.8072   33.8137   44.5431 H   0  0  0  0  0  0  0  0  0  0  0  0
   40.7992   33.5858   44.7617 N   0  0  0  0  0  0  0  0  0  0  0  0
   40.8419   33.2660   46.1755 C   0  0  1  0  0  0  0  0  0  0  0  0
   40.5978   34.4833   47.0385 C   0  0  2  0  0  0  0  0  0  0  0  0
   41.0080   34.2649   48.0465 H   0  0  0  0  0  0  0  0  0  0  0  0
   41.2177   35.6227   46.5785 O   0  0  0  0  0  0  0  0  0  0  0  0
   40.9587   35.8978   45.2472 C   0  0  0  0  0  0  0  0  0  0  0  0
   41.5785   34.7621   44.4436 C   0  0  0  0  0  0  0  0  0  0  0  0
   41.8412   32.8732   46.3996 H   0  0  0  0  0  0  0  0  0  0  0  0
   39.4945   34.6252   47.1772 H   0  0  0  0  0  0  0  0  0  0  0  0
   41.4678   36.8234   44.9742 H   0  0  0  0  0  0  0  0  0  0  0  0
   39.8795   35.9188   44.9920 H   0  0  0  0  0  0  0  0  0  0  0  0
   42.6446   34.5988   44.7377 H   0  0  0  0  0  0  0  0  0  0  0  0
   41.4766   34.9276   43.3551 H   0  0  0  0  0  0  0  0  0  0  0  0
  1  2  2  0
  2  8  1  0
  2  3  1  0
  4  3  2  0
  5  4  1  0
  6  1  1  0
  6  5  2  0
  7 12  2  0
  7  8  1  0
  8  9  2  0
  9 10  1  0
  9 13  1  0
 11 10  2  0
 12 11  1  0
 14  1  1  0
 15  6  1  0
  3 16  1  0
  4 17  1  0
  5 18  1  0
  7 19  1  0
 11 20  1  0
 13 21  1  0
 13 22  1  0
 13 23  1  0
 14 24  1  0
 25 26  1  0
 26 27  1  0
 27 28  1  0
 28 29  1  1
 28 30  1  0
 30 31  1  0
 31 32  1  0
 32 26  1  0
 27 33  1  1
 28 34  1  0
 31 35  1  0
 31 36  1  0
 32 37  1  0
 32 38  1  0
 15 27  1  0
M  ISO  8  16  14  17  14  18  14  19  14  20  14  21   8  22   8  23   8
M  ISO  3  24   3  25   5  29  15
M  END
>  <DihAtoms>  (1) 
5,14,26,25

>  <DihDeg>  (1) 
118.20505061858508

$$$$
