REMARK  Name = 
REMARK  5 active torsions:
REMARK  status: ('A' for Active; 'I' for Inactive)
REMARK    1  A    between atoms: C_1  and  O_14
REMARK    2  A    between atoms: C_2  and  C_8
REMARK    3  A    between atoms: C_6  and  O_15
REMARK    4  A    between atoms: C_9  and  C_13
REMARK    5  A    between atoms: O_15  and  C_27
REMARK                            x       y       z     vdW  Elec       q    Type
REMARK                         _______ _______ _______ _____ _____    ______ ____
ROOT
ATOM      1  C   UNL     1      38.002  31.395  47.630  0.00  0.00    +0.000 A 
ATOM      2  C   UNL     1      37.080  31.333  48.680  0.00  0.00    +0.000 A 
ATOM      3  C   UNL     1      37.194  32.352  49.628  0.00  0.00    +0.000 A 
ATOM      4  C   UNL     1      38.178  33.343  49.493  0.00  0.00    +0.000 A 
ATOM      5  C   UNL     1      39.049  33.319  48.414  0.00  0.00    +0.000 A 
ATOM      6  C   UNL     1      38.960  32.330  47.465  0.00  0.00    +0.000 A 
ATOM      7  H   UNL     1      36.480  32.301  50.438  0.00  0.00    +0.000 HD
ATOM      8  H   UNL     1      38.144  34.053  50.292  0.00  0.00    +0.000 HD
ATOM      9  H   UNL     1      39.715  34.150  48.493  0.00  0.00    +0.000 HD
ENDROOT
BRANCH   2  11
ATOM     10  C   UNL     1      34.937  30.352  47.983  0.00  0.00    +0.000 A 
ATOM     11  C   UNL     1      36.081  30.311  48.799  0.00  0.00    +0.000 A 
ATOM     12  C   UNL     1      36.194  29.258  49.703  0.00  0.00    +0.000 A 
ATOM     13  N   UNL     1      35.198  28.327  49.751  0.00  0.00    +0.000 NA
ATOM     14  C   UNL     1      34.106  28.410  48.938  0.00  0.00    +0.000 A 
ATOM     15  N   UNL     1      33.982  29.410  48.068  0.00  0.00    +0.000 NA
ATOM     16  H   UNL     1      34.819  31.158  47.270  0.00  0.00    +0.000 HD
ATOM     17  H   UNL     1      33.411  27.587  49.108  0.00  0.00    +0.000 HD
BRANCH  12  18
ATOM     18  C   UNL     1      37.375  29.163  50.589  0.00  0.00    +0.000 C 
ATOM     19  H   UNL     1      38.207  29.738  50.170  0.00  0.00    +0.000 HD
ATOM     20  H   UNL     1      37.114  29.642  51.572  0.00  0.00    +0.000 HD
ATOM     21  H   UNL     1      37.695  28.116  50.785  0.00  0.00    +0.000 HD
ENDBRANCH  12  18
ENDBRANCH   2  11
BRANCH   1  22
ATOM     22  O   UNL     1      37.944  30.404  46.644  0.00  0.00    +0.000 OA
ATOM     23  H   UNL     1      38.690  30.161  46.034  0.00  0.00    +0.000 HD
ENDBRANCH   1  22
BRANCH   6  24
ATOM     24  O   UNL     1      39.835  32.338  46.410  0.00  0.00    +0.000 OA
BRANCH  24  27
ATOM     25  H   UNL     1      41.428  32.946  48.070  0.00  0.00    +0.000 HD
ATOM     26  N   UNL     1      41.252  33.777  47.469  0.00  0.00    +0.000 NA
ATOM     27  C   UNL     1      40.842  33.266  46.175  0.00  0.00    +0.000 C 
ATOM     28  C   UNL     1      41.980  32.584  45.450  0.00  0.00    +0.000 C 
ATOM     29  H   UNL     1      41.722  32.564  44.370  0.00  0.00    +0.000 HD
ATOM     30  O   UNL     1      43.186  33.235  45.574  0.00  0.00    +0.000 OA
ATOM     31  C   UNL     1      43.532  33.520  46.883  0.00  0.00    +0.000 C 
ATOM     32  C   UNL     1      42.496  34.512  47.397  0.00  0.00    +0.000 C 
ENDBRANCH  24  27
ENDBRANCH   6  24
TORSDOF 5
