
 OpenBabel03272503003D

 33 35  0  0  1  0  0  0  0  0999 V2000
   38.2640   22.7810   35.8350 N   0  0  0  0  0  0  0  0  0  0  0  0
   39.5650   22.3680   36.3160 C   0  0  0  0  0  0  0  0  0  0  0  0
   39.8470   22.5800   37.7500 C   0  0  0  0  0  0  0  0  0  0  0  0
   39.1240   23.6480   38.4610 C   0  0  0  0  0  0  0  0  0  0  0  0
   37.8210   24.0670   37.8140 C   0  0  0  0  0  0  0  0  0  0  0  0
   38.0080   24.1160   36.3080 C   0  0  1  0  0  0  0  0  0  0  0  0
   40.3180   22.9020   35.7000 H   0  0  0  0  0  0  0  0  0  0  0  0
   39.6770   21.2890   36.0410 H   0  0  0  0  0  0  0  0  0  0  0  0
   40.9430   22.7420   37.8780 H   0  0  0  0  0  0  0  0  0  0  0  0
   39.6730   21.5940   38.2760 H   0  0  0  0  0  0  0  0  0  0  0  0
   39.7200   24.5830   38.6270 H   0  0  0  0  0  0  0  0  0  0  0  0
   38.8360   23.3010   39.4900 H   0  0  0  0  0  0  0  0  0  0  0  0
   37.0410   23.3140   38.0050 H   0  0  0  0  0  0  0  0  0  0  0  0
   37.5590   25.0810   38.1790 H   0  0  0  0  0  0  0  0  0  0  0  0
   37.1040   24.5820   35.8760 H   0  0  0  0  0  0  0  0  0  0  0  0
   37.3990   21.9750   35.0260 C   0  0  0  0  0  0  0  0  0  0  0  0
   36.3710   21.1850   35.5360 C   0  0  0  0  0  0  0  0  0  0  0  0
   35.6030   20.4510   34.6430 C   0  0  0  0  0  0  0  0  0  0  0  0
   35.9040   20.5480   33.3120 N   0  0  0  0  0  0  0  0  0  0  0  0
   36.9000   21.3170   32.8620 C   0  0  0  0  0  0  0  0  0  0  0  0
   37.6450   22.0300   33.7210 N   0  0  0  0  0  0  0  0  0  0  0  0
   36.2200   21.1830   36.6060 H   0  0  0  0  0  0  0  0  0  0  0  0
   34.8220   19.8560   35.0750 H   0  0  0  0  0  0  0  0  0  0  0  0
   37.0700   21.3360   31.7920 H   0  0  0  0  0  0  0  0  0  0  0  0
   39.1250   24.9480   36.0930 O   0  0  0  0  0  0  0  0  0  0  0  0
   36.9530   25.2040   34.7490 H   0  0  0  0  0  0  0  0  0  0  0  0
   37.8490   25.3230   34.1940 N   0  0  0  0  0  0  0  0  0  0  0  0
   38.8080   25.9030   35.1160 C   0  0  1  0  0  3  0  0  0  0  0  0
   38.2580   27.1720   35.6830 C   0  0  0  0  0  3  0  0  0  0  0  0
   38.0890   27.1280   36.7770 H   0  0  0  0  0  0  0  0  0  0  0  0
   36.9900   27.4600   35.1290 O   0  0  0  0  0  0  0  0  0  0  0  0
   37.1380   27.6180   33.7570 C   0  0  0  0  0  2  0  0  0  0  0  0
   37.5910   26.3180   33.1440 C   0  0  0  0  0  2  0  0  0  0  0  0
  1  6  1  0  0  0  0
  1  2  1  0  0  0  0
  2  3  1  0  0  0  0
  3  9  1  0  0  0  0
  3 10  1  0  0  0  0
  3  4  1  0  0  0  0
  4 11  1  0  0  0  0
  4 12  1  0  0  0  0
  5 13  1  0  0  0  0
  5 14  1  0  0  0  0
  5  4  1  0  0  0  0
  6 15  1  6  0  0  0
  6  5  1  0  0  0  0
  7  2  1  0  0  0  0
  8  2  1  0  0  0  0
 16 17  1  0  0  0  0
 16  1  1  0  0  0  0
 17 22  1  0  0  0  0
 18 23  1  0  0  0  0
 18 17  2  0  0  0  0
 19 18  1  0  0  0  0
 20 19  2  0  0  0  0
 20 21  1  0  0  0  0
 21 16  2  0  0  0  0
 24 20  1  0  0  0  0
 25  6  1  0  0  0  0
 27 26  1  0  0  0  0
 27 28  1  0  0  0  0
 28 29  1  0  0  0  0
 28 25  1  1  0  0  0
 29 30  1  0  0  0  0
 31 29  1  0  0  0  0
 32 31  1  0  0  0  0
 33 32  1  0  0  0  0
 33 27  1  0  0  0  0
M  END
>  <minimizedAffinity>
-4.90532875

$$$$

 OpenBabel03272503003D

 33 35  0  0  1  0  0  0  0  0999 V2000
   38.2670   24.2310   36.0570 N   0  0  0  0  0  0  0  0  0  0  0  0
   37.9130   23.8650   37.4110 C   0  0  0  0  0  0  0  0  0  0  0  0
   38.9660   23.2380   38.2340 C   0  0  0  0  0  0  0  0  0  0  0  0
   40.0520   22.5120   37.5550 C   0  0  0  0  0  0  0  0  0  0  0  0
   40.2720   22.9090   36.1100 C   0  0  0  0  0  0  0  0  0  0  0  0
   38.9230   23.1070   35.4410 C   0  0  1  0  0  0  0  0  0  0  0  0
   37.0360   23.1880   37.3410 H   0  0  0  0  0  0  0  0  0  0  0  0
   37.5240   24.7950   37.8990 H   0  0  0  0  0  0  0  0  0  0  0  0
   38.4840   22.5550   38.9710 H   0  0  0  0  0  0  0  0  0  0  0  0
   39.4080   24.0480   38.8890 H   0  0  0  0  0  0  0  0  0  0  0  0
   39.9480   21.3950   37.5730 H   0  0  0  0  0  0  0  0  0  0  0  0
   41.0320   22.7190   38.0630 H   0  0  0  0  0  0  0  0  0  0  0  0
   40.7910   23.8790   36.0570 H   0  0  0  0  0  0  0  0  0  0  0  0
   40.8120   22.0860   35.5990 H   0  0  0  0  0  0  0  0  0  0  0  0
   39.1060   23.2300   34.3580 H   0  0  0  0  0  0  0  0  0  0  0  0
   37.9990   25.5050   35.4570 C   0  0  0  0  0  0  0  0  0  0  0  0
   38.1940   26.7240   36.1010 C   0  0  0  0  0  0  0  0  0  0  0  0
   37.8960   27.8880   35.4080 C   0  0  0  0  0  0  0  0  0  0  0  0
   37.4260   27.7660   34.1290 N   0  0  0  0  0  0  0  0  0  0  0  0
   37.2520   26.5770   33.5440 C   0  0  0  0  0  0  0  0  0  0  0  0
   37.5390   25.4470   34.2110 N   0  0  0  0  0  0  0  0  0  0  0  0
   38.5720   26.7040   37.1140 H   0  0  0  0  0  0  0  0  0  0  0  0
   38.0600   28.8060   35.9390 H   0  0  0  0  0  0  0  0  0  0  0  0
   36.8750   26.5700   32.5290 H   0  0  0  0  0  0  0  0  0  0  0  0
   38.2070   21.9170   35.6750 O   0  0  0  0  0  0  0  0  0  0  0  0
   37.8850   20.3760   33.6460 H   0  0  0  0  0  0  0  0  0  0  0  0
   37.6000   21.3870   33.5010 N   0  0  0  0  0  0  0  0  0  0  0  0
   37.1200   21.8510   34.7890 C   0  0  1  0  0  3  0  0  0  0  0  0
   36.0180   20.9610   35.2670 C   0  0  0  0  0  3  0  0  0  0  0  0
   36.2690   20.4100   36.1950 H   0  0  0  0  0  0  0  0  0  0  0  0
   35.7360   19.9570   34.3120 O   0  0  0  0  0  0  0  0  0  0  0  0
   35.3260   20.5750   33.1380 C   0  0  0  0  0  2  0  0  0  0  0  0
   36.4580   21.3970   32.5760 C   0  0  0  0  0  2  0  0  0  0  0  0
  1  2  1  0  0  0  0
  2  8  1  0  0  0  0
  2  3  1  0  0  0  0
  3 10  1  0  0  0  0
  3  9  1  0  0  0  0
  4 11  1  0  0  0  0
  4 12  1  0  0  0  0
  4  3  1  0  0  0  0
  5  4  1  0  0  0  0
  6 15  1  6  0  0  0
  6 25  1  0  0  0  0
  6  1  1  0  0  0  0
  6  5  1  0  0  0  0
  7  2  1  0  0  0  0
 13  5  1  0  0  0  0
 14  5  1  0  0  0  0
 16  1  1  0  0  0  0
 16 17  1  0  0  0  0
 17 22  1  0  0  0  0
 18 23  1  0  0  0  0
 18 17  2  0  0  0  0
 19 18  1  0  0  0  0
 20 19  2  0  0  0  0
 20 21  1  0  0  0  0
 21 16  2  0  0  0  0
 24 20  1  0  0  0  0
 27 26  1  0  0  0  0
 27 28  1  0  0  0  0
 28 29  1  0  0  0  0
 28 25  1  1  0  0  0
 29 30  1  0  0  0  0
 31 29  1  0  0  0  0
 32 31  1  0  0  0  0
 33 32  1  0  0  0  0
 33 27  1  0  0  0  0
M  END
>  <minimizedAffinity>
-4.84510279

$$$$

 OpenBabel03272503003D

 33 35  0  0  1  0  0  0  0  0999 V2000
   39.0160   24.9400   34.7570 N   0  0  0  0  0  0  0  0  0  0  0  0
   40.1350   25.7140   34.2610 C   0  0  0  0  0  0  0  0  0  0  0  0
   39.8230   26.9980   33.6030 C   0  0  0  0  0  0  0  0  0  0  0  0
   38.5000   27.1670   32.9780 C   0  0  0  0  0  0  0  0  0  0  0  0
   37.4280   26.2380   33.5070 C   0  0  0  0  0  0  0  0  0  0  0  0
   38.0260   24.8570   33.7150 C   0  0  1  0  0  0  0  0  0  0  0  0
   40.6940   25.0570   33.5620 H   0  0  0  0  0  0  0  0  0  0  0  0
   40.8240   25.8660   35.1300 H   0  0  0  0  0  0  0  0  0  0  0  0
   40.6090   27.2090   32.8420 H   0  0  0  0  0  0  0  0  0  0  0  0
   39.9840   27.8150   34.3680 H   0  0  0  0  0  0  0  0  0  0  0  0
   38.4960   27.0640   31.8610 H   0  0  0  0  0  0  0  0  0  0  0  0
   38.1090   28.2010   33.1750 H   0  0  0  0  0  0  0  0  0  0  0  0
   37.0830   26.5790   34.4960 H   0  0  0  0  0  0  0  0  0  0  0  0
   36.6180   26.1710   32.7520 H   0  0  0  0  0  0  0  0  0  0  0  0
   37.1940   24.1650   33.9380 H   0  0  0  0  0  0  0  0  0  0  0  0
   38.9350   24.3660   36.0670 C   0  0  0  0  0  0  0  0  0  0  0  0
   37.9850   24.7300   37.0180 C   0  0  0  0  0  0  0  0  0  0  0  0
   38.0150   24.0960   38.2520 C   0  0  0  0  0  0  0  0  0  0  0  0
   38.9800   23.1500   38.4600 N   0  0  0  0  0  0  0  0  0  0  0  0
   39.8760   22.8280   37.5210 C   0  0  0  0  0  0  0  0  0  0  0  0
   39.8520   23.4380   36.3250 N   0  0  0  0  0  0  0  0  0  0  0  0
   37.2660   25.4910   36.7470 H   0  0  0  0  0  0  0  0  0  0  0  0
   37.2660   24.4040   38.9560 H   0  0  0  0  0  0  0  0  0  0  0  0
   40.6070   22.0680   37.7690 H   0  0  0  0  0  0  0  0  0  0  0  0
   38.6190   24.5140   32.4840 O   0  0  0  0  0  0  0  0  0  0  0  0
   36.4760   23.3770   33.3260 H   0  0  0  0  0  0  0  0  0  0  0  0
   37.2380   22.7210   32.9890 N   0  0  0  0  0  0  0  0  0  0  0  0
   37.9260   23.4290   31.9250 C   0  0  1  0  0  3  0  0  0  0  0  0
   36.9460   23.8300   30.8710 C   0  0  0  0  0  3  0  0  0  0  0  0
   36.8410   24.9280   30.7620 H   0  0  0  0  0  0  0  0  0  0  0  0
   35.6490   23.3700   31.1920 O   0  0  0  0  0  0  0  0  0  0  0  0
   35.6810   21.9830   31.2580 C   0  0  0  0  0  2  0  0  0  0  0  0
   36.5830   21.5520   32.3870 C   0  0  0  0  0  2  0  0  0  0  0  0
  1 16  1  0  0  0  0
  2  1  1  0  0  0  0
  2  8  1  0  0  0  0
  3  2  1  0  0  0  0
  3 10  1  0  0  0  0
  4 12  1  0  0  0  0
  4  5  1  0  0  0  0
  4  3  1  0  0  0  0
  5  6  1  0  0  0  0
  5 13  1  0  0  0  0
  6 15  1  1  0  0  0
  6  1  1  0  0  0  0
  7  2  1  0  0  0  0
  9  3  1  0  0  0  0
 11  4  1  0  0  0  0
 14  5  1  0  0  0  0
 16 21  2  0  0  0  0
 16 17  1  0  0  0  0
 17 18  2  0  0  0  0
 18 19  1  0  0  0  0
 18 23  1  0  0  0  0
 20 24  1  0  0  0  0
 20 19  2  0  0  0  0
 21 20  1  0  0  0  0
 22 17  1  0  0  0  0
 25  6  1  0  0  0  0
 27 26  1  0  0  0  0
 28 25  1  1  0  0  0
 28 27  1  0  0  0  0
 29 31  1  0  0  0  0
 29 28  1  0  0  0  0
 30 29  1  0  0  0  0
 31 32  1  0  0  0  0
 32 33  1  0  0  0  0
 33 27  1  0  0  0  0
M  END
>  <minimizedAffinity>
-4.74745607

$$$$

 OpenBabel03272503003D

 33 35  0  0  1  0  0  0  0  0999 V2000
   36.9450   22.6610   32.2130 N   0  0  0  0  0  0  0  0  0  0  0  0
   37.8210   21.8710   31.3750 C   0  0  0  0  0  0  0  0  0  0  0  0
   37.4720   20.4480   31.1940 C   0  0  0  0  0  0  0  0  0  0  0  0
   36.6820   19.7770   32.2410 C   0  0  0  0  0  0  0  0  0  0  0  0
   35.8790   20.7100   33.1220 C   0  0  0  0  0  0  0  0  0  0  0  0
   36.7160   21.9380   33.4370 C   0  0  1  0  0  0  0  0  0  0  0  0
   38.8410   21.9580   31.8050 H   0  0  0  0  0  0  0  0  0  0  0  0
   37.8760   22.3980   30.3890 H   0  0  0  0  0  0  0  0  0  0  0  0
   38.4100   19.8690   31.0260 H   0  0  0  0  0  0  0  0  0  0  0  0
   36.9350   20.3570   30.2020 H   0  0  0  0  0  0  0  0  0  0  0  0
   37.2800   19.1190   32.9250 H   0  0  0  0  0  0  0  0  0  0  0  0
   35.9220   19.0950   31.7740 H   0  0  0  0  0  0  0  0  0  0  0  0
   34.9890   21.0710   32.5820 H   0  0  0  0  0  0  0  0  0  0  0  0
   35.6420   20.1820   34.0680 H   0  0  0  0  0  0  0  0  0  0  0  0
   36.1770   22.5180   34.2080 H   0  0  0  0  0  0  0  0  0  0  0  0
   36.4120   23.9430   31.8590 C   0  0  0  0  0  0  0  0  0  0  0  0
   35.2490   24.1230   31.1150 C   0  0  0  0  0  0  0  0  0  0  0  0
   34.8390   25.4200   30.8400 C   0  0  0  0  0  0  0  0  0  0  0  0
   35.6060   26.4460   31.3190 N   0  0  0  0  0  0  0  0  0  0  0  0
   36.7180   26.2330   32.0290 C   0  0  0  0  0  0  0  0  0  0  0  0
   37.1190   24.9800   32.2980 N   0  0  0  0  0  0  0  0  0  0  0  0
   34.7180   23.2400   30.7880 H   0  0  0  0  0  0  0  0  0  0  0  0
   33.9380   25.5150   30.2660 H   0  0  0  0  0  0  0  0  0  0  0  0
   37.2670   27.1030   32.3690 H   0  0  0  0  0  0  0  0  0  0  0  0
   37.9260   21.4450   33.9640 O   0  0  0  0  0  0  0  0  0  0  0  0
   37.9520   21.1010   36.5080 H   0  0  0  0  0  0  0  0  0  0  0  0
   37.6440   22.0620   36.1810 N   0  0  0  0  0  0  0  0  0  0  0  0
   38.3850   22.3200   34.9600 C   0  0  1  0  0  3  0  0  0  0  0  0
   39.8510   22.1990   35.2260 C   0  0  0  0  0  3  0  0  0  0  0  0
   40.3320   21.3690   34.6710 H   0  0  0  0  0  0  0  0  0  0  0  0
   40.0900   21.9130   36.5890 O   0  0  0  0  0  0  0  0  0  0  0  0
   39.5900   22.9610   37.3510 C   0  0  0  0  0  2  0  0  0  0  0  0
   38.0930   23.0380   37.1830 C   0  0  0  0  0  2  0  0  0  0  0  0
  1  6  1  0  0  0  0
  2  7  1  0  0  0  0
  2  1  1  0  0  0  0
  3  2  1  0  0  0  0
  3  4  1  0  0  0  0
  4 11  1  0  0  0  0
  4  5  1  0  0  0  0
  5  6  1  0  0  0  0
  5 14  1  0  0  0  0
  6 25  1  0  0  0  0
  6 15  1  1  0  0  0
  8  2  1  0  0  0  0
  9  3  1  0  0  0  0
 10  3  1  0  0  0  0
 12  4  1  0  0  0  0
 13  5  1  0  0  0  0
 16  1  1  0  0  0  0
 16 21  1  0  0  0  0
 17 16  2  0  0  0  0
 18 17  1  0  0  0  0
 18 19  2  0  0  0  0
 19 20  1  0  0  0  0
 20 21  2  0  0  0  0
 20 24  1  0  0  0  0
 22 17  1  0  0  0  0
 23 18  1  0  0  0  0
 27 26  1  0  0  0  0
 27 33  1  0  0  0  0
 28 25  1  6  0  0  0
 28 29  1  0  0  0  0
 28 27  1  0  0  0  0
 29 31  1  0  0  0  0
 30 29  1  0  0  0  0
 31 32  1  0  0  0  0
 33 32  1  0  0  0  0
M  END
>  <minimizedAffinity>
-4.74721909

$$$$

 OpenBabel03272503003D

 33 35  0  0  1  0  0  0  0  0999 V2000
   37.2310   27.5870   33.5010 N   0  0  0  0  0  0  0  0  0  0  0  0
   37.1720   27.4580   34.9410 C   0  0  0  0  0  0  0  0  0  0  0  0
   38.4570   27.3750   35.6610 C   0  0  0  0  0  0  0  0  0  0  0  0
   39.6360   26.8610   34.9420 C   0  0  0  0  0  0  0  0  0  0  0  0
   39.5490   26.9580   33.4340 C   0  0  0  0  0  0  0  0  0  0  0  0
   38.1410   26.5930   32.9940 C   0  0  1  0  0  0  0  0  0  0  0  0
   36.5590   26.5570   35.1560 H   0  0  0  0  0  0  0  0  0  0  0  0
   36.5600   28.3190   35.3110 H   0  0  0  0  0  0  0  0  0  0  0  0
   38.3100   26.7710   36.5860 H   0  0  0  0  0  0  0  0  0  0  0  0
   38.6840   28.4070   36.0640 H   0  0  0  0  0  0  0  0  0  0  0  0
   39.9020   25.7980   35.1840 H   0  0  0  0  0  0  0  0  0  0  0  0
   40.5470   27.4570   35.2170 H   0  0  0  0  0  0  0  0  0  0  0  0
   39.7150   27.9970   33.1090 H   0  0  0  0  0  0  0  0  0  0  0  0
   40.2640   26.2340   32.9930 H   0  0  0  0  0  0  0  0  0  0  0  0
   38.1490   26.5090   31.8920 H   0  0  0  0  0  0  0  0  0  0  0  0
   36.4980   28.5510   32.7350 C   0  0  0  0  0  0  0  0  0  0  0  0
   35.4900   29.3560   33.2600 C   0  0  0  0  0  0  0  0  0  0  0  0
   34.8570   30.2510   32.4100 C   0  0  0  0  0  0  0  0  0  0  0  0
   35.2630   30.2900   31.1040 N   0  0  0  0  0  0  0  0  0  0  0  0
   36.2360   29.5000   30.6380 C   0  0  0  0  0  0  0  0  0  0  0  0
   36.8520   28.6310   31.4560 N   0  0  0  0  0  0  0  0  0  0  0  0
   35.2490   29.2440   34.3070 H   0  0  0  0  0  0  0  0  0  0  0  0
   34.0860   30.8530   32.8520 H   0  0  0  0  0  0  0  0  0  0  0  0
   36.4960   29.5940   29.5910 H   0  0  0  0  0  0  0  0  0  0  0  0
   37.8810   25.3340   33.5690 O   0  0  0  0  0  0  0  0  0  0  0  0
   36.6000   23.1130   33.7090 H   0  0  0  0  0  0  0  0  0  0  0  0
   37.4970   23.0870   33.1450 N   0  0  0  0  0  0  0  0  0  0  0  0
   37.6270   24.4040   32.5490 C   0  0  1  0  0  3  0  0  0  0  0  0
   36.4030   24.7190   31.7510 C   0  0  0  0  0  3  0  0  0  0  0  0
   35.8270   25.5780   32.1490 H   0  0  0  0  0  0  0  0  0  0  0  0
   35.4990   23.6330   31.7720 O   0  0  0  0  0  0  0  0  0  0  0  0
   36.1250   22.5320   31.2020 C   0  0  0  0  0  2  0  0  0  0  0  0
   37.3050   22.1260   32.0490 C   0  0  0  0  0  2  0  0  0  0  0  0
  1  2  1  0  0  0  0
  2  7  1  0  0  0  0
  2  8  1  0  0  0  0
  2  3  1  0  0  0  0
  3 10  1  0  0  0  0
  3  9  1  0  0  0  0
  4 11  1  0  0  0  0
  4 12  1  0  0  0  0
  4  3  1  0  0  0  0
  5  4  1  0  0  0  0
  6 15  1  6  0  0  0
  6  5  1  0  0  0  0
  6  1  1  0  0  0  0
  6 25  1  0  0  0  0
 13  5  1  0  0  0  0
 14  5  1  0  0  0  0
 16 17  1  0  0  0  0
 16  1  1  0  0  0  0
 17 22  1  0  0  0  0
 18 23  1  0  0  0  0
 18 17  2  0  0  0  0
 19 18  1  0  0  0  0
 20 19  2  0  0  0  0
 20 21  1  0  0  0  0
 21 16  2  0  0  0  0
 24 20  1  0  0  0  0
 27 26  1  0  0  0  0
 28 27  1  0  0  0  0
 28 25  1  1  0  0  0
 29 31  1  0  0  0  0
 29 30  1  0  0  0  0
 29 28  1  0  0  0  0
 32 31  1  0  0  0  0
 32 33  1  0  0  0  0
 33 27  1  0  0  0  0
M  END
>  <minimizedAffinity>
-4.70822668

$$$$

 OpenBabel03272503003D

 33 35  0  0  1  0  0  0  0  0999 V2000
   36.3500   27.7550   32.9210 N   0  0  0  0  0  0  0  0  0  0  0  0
   36.2850   27.2720   31.5580 C   0  0  0  0  0  0  0  0  0  0  0  0
   36.4990   28.2630   30.4850 C   0  0  0  0  0  0  0  0  0  0  0  0
   36.1970   29.6780   30.7600 C   0  0  0  0  0  0  0  0  0  0  0  0
   36.1980   30.0500   32.2280 C   0  0  0  0  0  0  0  0  0  0  0  0
   35.5350   28.9380   33.0220 C   0  0  1  0  0  0  0  0  0  0  0  0
   35.2920   26.7920   31.4350 H   0  0  0  0  0  0  0  0  0  0  0  0
   37.0240   26.4350   31.4830 H   0  0  0  0  0  0  0  0  0  0  0  0
   35.9260   27.9430   29.5840 H   0  0  0  0  0  0  0  0  0  0  0  0
   37.5750   28.1670   30.1490 H   0  0  0  0  0  0  0  0  0  0  0  0
   35.2240   30.0380   30.3350 H   0  0  0  0  0  0  0  0  0  0  0  0
   36.9780   30.3380   30.2950 H   0  0  0  0  0  0  0  0  0  0  0  0
   37.2320   30.1240   32.6010 H   0  0  0  0  0  0  0  0  0  0  0  0
   35.6120   30.9830   32.3540 H   0  0  0  0  0  0  0  0  0  0  0  0
   35.3990   29.3040   34.0560 H   0  0  0  0  0  0  0  0  0  0  0  0
   37.1070   27.1400   33.9710 C   0  0  0  0  0  0  0  0  0  0  0  0
   37.5540   27.8140   35.1040 C   0  0  0  0  0  0  0  0  0  0  0  0
   38.2780   27.1000   36.0490 C   0  0  0  0  0  0  0  0  0  0  0  0
   38.5090   25.7740   35.8080 N   0  0  0  0  0  0  0  0  0  0  0  0
   38.0630   25.1630   34.7060 C   0  0  0  0  0  0  0  0  0  0  0  0
   37.3620   25.8480   33.7890 N   0  0  0  0  0  0  0  0  0  0  0  0
   37.3130   28.8640   35.1940 H   0  0  0  0  0  0  0  0  0  0  0  0
   38.6040   27.6560   36.9070 H   0  0  0  0  0  0  0  0  0  0  0  0
   38.2910   24.1090   34.5930 H   0  0  0  0  0  0  0  0  0  0  0  0
   34.2800   28.7370   32.4140 O   0  0  0  0  0  0  0  0  0  0  0  0
   31.9780   27.9670   33.2500 H   0  0  0  0  0  0  0  0  0  0  0  0
   32.0020   28.9260   32.7980 N   0  0  0  0  0  0  0  0  0  0  0  0
   33.3090   29.4750   33.1070 C   0  0  1  0  0  3  0  0  0  0  0  0
   33.5140   29.4850   34.5870 C   0  0  0  0  0  3  0  0  0  0  0  0
   34.3400   28.8260   34.9210 H   0  0  0  0  0  0  0  0  0  0  0  0
   32.3670   29.0000   35.2550 O   0  0  0  0  0  0  0  0  0  0  0  0
   31.2990   29.8350   34.9530 C   0  0  0  0  0  2  0  0  0  0  0  0
   31.0020   29.7620   33.4770 C   0  0  0  0  0  2  0  0  0  0  0  0
  1  6  1  0  0  0  0
  1 16  1  0  0  0  0
  2  1  1  0  0  0  0
  3  4  1  0  0  0  0
  3  2  1  0  0  0  0
  4  5  1  0  0  0  0
  5 14  1  0  0  0  0
  5 13  1  0  0  0  0
  5  6  1  0  0  0  0
  6 15  1  1  0  0  0
  7  2  1  0  0  0  0
  8  2  1  0  0  0  0
  9  3  1  0  0  0  0
 10  3  1  0  0  0  0
 11  4  1  0  0  0  0
 12  4  1  0  0  0  0
 16 17  1  0  0  0  0
 17 22  1  0  0  0  0
 17 18  2  0  0  0  0
 18 23  1  0  0  0  0
 19 18  1  0  0  0  0
 20 19  2  0  0  0  0
 21 16  2  0  0  0  0
 21 20  1  0  0  0  0
 24 20  1  0  0  0  0
 25  6  1  0  0  0  0
 27 28  1  0  0  0  0
 27 26  1  0  0  0  0
 27 33  1  0  0  0  0
 28 25  1  6  0  0  0
 28 29  1  0  0  0  0
 29 30  1  0  0  0  0
 29 31  1  0  0  0  0
 32 31  1  0  0  0  0
 33 32  1  0  0  0  0
M  END
>  <minimizedAffinity>
-4.68348312

$$$$

 OpenBabel03272503003D

 33 35  0  0  1  0  0  0  0  0999 V2000
   39.6010   24.7880   34.7280 N   0  0  0  0  0  0  0  0  0  0  0  0
   40.6930   24.2970   33.9160 C   0  0  0  0  0  0  0  0  0  0  0  0
   41.6130   25.3030   33.3500 C   0  0  0  0  0  0  0  0  0  0  0  0
   41.1130   26.6710   33.1290 C   0  0  0  0  0  0  0  0  0  0  0  0
   39.9060   27.0450   33.9640 C   0  0  0  0  0  0  0  0  0  0  0  0
   38.9550   25.8620   34.0180 C   0  0  1  0  0  0  0  0  0  0  0  0
   40.2400   23.6970   33.0990 H   0  0  0  0  0  0  0  0  0  0  0  0
   41.2480   23.5570   34.5460 H   0  0  0  0  0  0  0  0  0  0  0  0
   42.0220   24.9120   32.3890 H   0  0  0  0  0  0  0  0  0  0  0  0
   42.5240   25.3400   34.0190 H   0  0  0  0  0  0  0  0  0  0  0  0
   40.8560   26.9070   32.0630 H   0  0  0  0  0  0  0  0  0  0  0  0
   41.9000   27.4210   33.4090 H   0  0  0  0  0  0  0  0  0  0  0  0
   40.2100   27.2470   35.0020 H   0  0  0  0  0  0  0  0  0  0  0  0
   39.3930   27.8980   33.4750 H   0  0  0  0  0  0  0  0  0  0  0  0
   38.0170   26.2110   34.4860 H   0  0  0  0  0  0  0  0  0  0  0  0
   39.2460   24.2750   36.0180 C   0  0  0  0  0  0  0  0  0  0  0  0
   38.1380   24.7010   36.7460 C   0  0  0  0  0  0  0  0  0  0  0  0
   37.9050   24.1210   37.9850 C   0  0  0  0  0  0  0  0  0  0  0  0
   38.7810   23.1630   38.4170 N   0  0  0  0  0  0  0  0  0  0  0  0
   39.8340   22.7820   37.6880 C   0  0  0  0  0  0  0  0  0  0  0  0
   40.0640   23.3390   36.4890 N   0  0  0  0  0  0  0  0  0  0  0  0
   37.5100   25.4640   36.3090 H   0  0  0  0  0  0  0  0  0  0  0  0
   37.0410   24.4760   38.5140 H   0  0  0  0  0  0  0  0  0  0  0  0
   40.4790   22.0170   38.1050 H   0  0  0  0  0  0  0  0  0  0  0  0
   38.7180   25.5050   32.6760 O   0  0  0  0  0  0  0  0  0  0  0  0
   37.4570   26.0050   30.4960 H   0  0  0  0  0  0  0  0  0  0  0  0
   37.0330   26.4210   31.3750 N   0  0  0  0  0  0  0  0  0  0  0  0
   37.3350   25.4850   32.4410 C   0  0  1  0  0  3  0  0  0  0  0  0
   36.8130   24.1300   32.0850 C   0  0  0  0  0  3  0  0  0  0  0  0
   37.6100   23.3700   31.9610 H   0  0  0  0  0  0  0  0  0  0  0  0
   36.1440   24.1630   30.8410 O   0  0  0  0  0  0  0  0  0  0  0  0
   35.0680   25.0350   30.9460 C   0  0  0  0  0  2  0  0  0  0  0  0
   35.5740   26.4330   31.2000 C   0  0  0  0  0  2  0  0  0  0  0  0
  1 16  1  0  0  0  0
  2  8  1  0  0  0  0
  2  1  1  0  0  0  0
  3  2  1  0  0  0  0
  3 10  1  0  0  0  0
  4  3  1  0  0  0  0
  4 12  1  0  0  0  0
  4  5  1  0  0  0  0
  5  6  1  0  0  0  0
  5 13  1  0  0  0  0
  6 15  1  1  0  0  0
  6  1  1  0  0  0  0
  7  2  1  0  0  0  0
  9  3  1  0  0  0  0
 11  4  1  0  0  0  0
 14  5  1  0  0  0  0
 16 21  2  0  0  0  0
 16 17  1  0  0  0  0
 17 18  2  0  0  0  0
 18 19  1  0  0  0  0
 18 23  1  0  0  0  0
 20 24  1  0  0  0  0
 20 19  2  0  0  0  0
 21 20  1  0  0  0  0
 22 17  1  0  0  0  0
 25  6  1  0  0  0  0
 26 27  1  0  0  0  0
 27 28  1  0  0  0  0
 28 25  1  6  0  0  0
 29 28  1  0  0  0  0
 30 29  1  0  0  0  0
 31 32  1  0  0  0  0
 31 29  1  0  0  0  0
 32 33  1  0  0  0  0
 33 27  1  0  0  0  0
M  END
>  <minimizedAffinity>
-4.67647314

$$$$

 OpenBabel03272503003D

 33 35  0  0  1  0  0  0  0  0999 V2000
   38.0690   24.2000   35.4550 N   0  0  0  0  0  0  0  0  0  0  0  0
   38.0710   23.7620   36.8340 C   0  0  0  0  0  0  0  0  0  0  0  0
   39.2320   22.9700   37.2840 C   0  0  0  0  0  0  0  0  0  0  0  0
   39.9880   22.1960   36.2840 C   0  0  0  0  0  0  0  0  0  0  0  0
   39.8350   22.6850   34.8590 C   0  0  0  0  0  0  0  0  0  0  0  0
   38.3850   23.0710   34.6200 C   0  0  1  0  0  0  0  0  0  0  0  0
   37.1360   23.1840   36.9880 H   0  0  0  0  0  0  0  0  0  0  0  0
   37.9490   24.6830   37.4590 H   0  0  0  0  0  0  0  0  0  0  0  0
   38.9010   22.2800   38.0950 H   0  0  0  0  0  0  0  0  0  0  0  0
   39.9340   23.6750   37.8210 H   0  0  0  0  0  0  0  0  0  0  0  0
   39.7610   21.0980   36.2760 H   0  0  0  0  0  0  0  0  0  0  0  0
   41.0890   22.2630   36.4950 H   0  0  0  0  0  0  0  0  0  0  0  0
   40.4290   23.6000   34.7050 H   0  0  0  0  0  0  0  0  0  0  0  0
   40.1060   21.8570   34.1730 H   0  0  0  0  0  0  0  0  0  0  0  0
   38.2670   23.2620   33.5390 H   0  0  0  0  0  0  0  0  0  0  0  0
   37.7950   25.5380   35.0220 C   0  0  0  0  0  0  0  0  0  0  0  0
   37.9940   26.6670   35.8130 C   0  0  0  0  0  0  0  0  0  0  0  0
   37.6890   27.9090   35.2730 C   0  0  0  0  0  0  0  0  0  0  0  0
   37.2090   27.9480   33.9930 N   0  0  0  0  0  0  0  0  0  0  0  0
   37.0320   26.8410   33.2650 C   0  0  0  0  0  0  0  0  0  0  0  0
   37.3250   25.6370   33.7820 N   0  0  0  0  0  0  0  0  0  0  0  0
   38.3790   26.5210   36.8130 H   0  0  0  0  0  0  0  0  0  0  0  0
   37.8560   28.7530   35.9140 H   0  0  0  0  0  0  0  0  0  0  0  0
   36.6470   26.9620   32.2600 H   0  0  0  0  0  0  0  0  0  0  0  0
   37.6280   21.9420   34.9940 O   0  0  0  0  0  0  0  0  0  0  0  0
   35.1680   21.5700   34.3590 H   0  0  0  0  0  0  0  0  0  0  0  0
   35.8170   20.7520   34.1700 N   0  0  0  0  0  0  0  0  0  0  0  0
   37.1040   21.3370   33.8420 C   0  0  1  0  0  3  0  0  0  0  0  0
   36.9500   22.2800   32.6930 C   0  0  0  0  0  3  0  0  0  0  0  0
   37.1760   23.3330   32.9550 H   0  0  0  0  0  0  0  0  0  0  0  0
   35.6130   22.2980   32.2350 O   0  0  0  0  0  0  0  0  0  0  0  0
   35.2820   21.0200   31.8020 C   0  0  0  0  0  2  0  0  0  0  0  0
   35.3260   20.0650   32.9680 C   0  0  0  0  0  2  0  0  0  0  0  0
  1  2  1  0  0  0  0
  2  7  1  0  0  0  0
  2  3  1  0  0  0  0
  2  8  1  0  0  0  0
  3 10  1  0  0  0  0
  3  9  1  0  0  0  0
  4 12  1  0  0  0  0
  4  3  1  0  0  0  0
  5  4  1  0  0  0  0
  6 15  1  6  0  0  0
  6  5  1  0  0  0  0
  6 25  1  0  0  0  0
  6  1  1  0  0  0  0
 11  4  1  0  0  0  0
 13  5  1  0  0  0  0
 14  5  1  0  0  0  0
 16  1  1  0  0  0  0
 16 17  1  0  0  0  0
 17 22  1  0  0  0  0
 18 17  2  0  0  0  0
 18 23  1  0  0  0  0
 19 18  1  0  0  0  0
 20 21  1  0  0  0  0
 20 19  2  0  0  0  0
 21 16  2  0  0  0  0
 24 20  1  0  0  0  0
 27 26  1  0  0  0  0
 28 27  1  0  0  0  0
 28 25  1  1  0  0  0
 29 30  1  0  0  0  0
 29 28  1  0  0  0  0
 31 29  1  0  0  0  0
 32 31  1  0  0  0  0
 32 33  1  0  0  0  0
 33 27  1  0  0  0  0
M  END
>  <minimizedAffinity>
-4.61112165

$$$$

 OpenBabel03272503003D

 33 35  0  0  1  0  0  0  0  0999 V2000
   38.4200   24.1670   35.6490 N   0  0  0  0  0  0  0  0  0  0  0  0
   37.7330   24.2790   36.9180 C   0  0  0  0  0  0  0  0  0  0  0  0
   38.4490   23.7920   38.1130 C   0  0  0  0  0  0  0  0  0  0  0  0
   39.4800   22.7530   37.9440 C   0  0  0  0  0  0  0  0  0  0  0  0
   40.0620   22.6620   36.5490 C   0  0  0  0  0  0  0  0  0  0  0  0
   38.9440   22.8310   35.5340 C   0  0  1  0  0  0  0  0  0  0  0  0
   36.7700   23.7390   36.8090 H   0  0  0  0  0  0  0  0  0  0  0  0
   37.4510   25.3560   37.0310 H   0  0  0  0  0  0  0  0  0  0  0  0
   37.7000   23.4360   38.8580 H   0  0  0  0  0  0  0  0  0  0  0  0
   38.9060   24.6930   38.6230 H   0  0  0  0  0  0  0  0  0  0  0  0
   39.1490   21.7190   38.2260 H   0  0  0  0  0  0  0  0  0  0  0  0
   40.3590   22.9670   38.6090 H   0  0  0  0  0  0  0  0  0  0  0  0
   40.7670   23.4890   36.3760 H   0  0  0  0  0  0  0  0  0  0  0  0
   40.5150   21.6570   36.4230 H   0  0  0  0  0  0  0  0  0  0  0  0
   39.3620   22.5960   34.5380 H   0  0  0  0  0  0  0  0  0  0  0  0
   38.5430   25.2240   34.6900 C   0  0  0  0  0  0  0  0  0  0  0  0
   37.6370   25.4440   33.6550 C   0  0  0  0  0  0  0  0  0  0  0  0
   37.8720   26.5050   32.7920 C   0  0  0  0  0  0  0  0  0  0  0  0
   38.9810   27.2740   33.0120 N   0  0  0  0  0  0  0  0  0  0  0  0
   39.8280   27.0310   34.0170 C   0  0  0  0  0  0  0  0  0  0  0  0
   39.6060   26.0050   34.8550 N   0  0  0  0  0  0  0  0  0  0  0  0
   36.7920   24.7750   33.5740 H   0  0  0  0  0  0  0  0  0  0  0  0
   37.1510   26.6410   32.0090 H   0  0  0  0  0  0  0  0  0  0  0  0
   40.6830   27.6880   34.1200 H   0  0  0  0  0  0  0  0  0  0  0  0
   37.9690   21.8770   35.8830 O   0  0  0  0  0  0  0  0  0  0  0  0
   37.8530   20.4090   33.7800 H   0  0  0  0  0  0  0  0  0  0  0  0
   37.5840   21.4260   33.6420 N   0  0  0  0  0  0  0  0  0  0  0  0
   36.9770   21.8460   34.8910 C   0  0  1  0  0  3  0  0  0  0  0  0
   35.8320   20.9440   35.2230 C   0  0  0  0  0  3  0  0  0  0  0  0
   35.9880   20.3600   36.1520 H   0  0  0  0  0  0  0  0  0  0  0  0
   35.6480   19.9760   34.2100 O   0  0  0  0  0  0  0  0  0  0  0  0
   35.3580   20.6350   33.0230 C   0  0  0  0  0  2  0  0  0  0  0  0
   36.5410   21.4730   32.6080 C   0  0  0  0  0  2  0  0  0  0  0  0
  1  2  1  0  0  0  0
  2  8  1  0  0  0  0
  2  3  1  0  0  0  0
  3 10  1  0  0  0  0
  3  9  1  0  0  0  0
  4  3  1  0  0  0  0
  4 11  1  0  0  0  0
  4 12  1  0  0  0  0
  5  4  1  0  0  0  0
  6 15  1  6  0  0  0
  6  1  1  0  0  0  0
  6 25  1  0  0  0  0
  6  5  1  0  0  0  0
  7  2  1  0  0  0  0
 13  5  1  0  0  0  0
 14  5  1  0  0  0  0
 16 21  1  0  0  0  0
 16  1  1  0  0  0  0
 17 16  2  0  0  0  0
 18 19  2  0  0  0  0
 18 17  1  0  0  0  0
 19 20  1  0  0  0  0
 20 24  1  0  0  0  0
 20 21  2  0  0  0  0
 22 17  1  0  0  0  0
 23 18  1  0  0  0  0
 27 26  1  0  0  0  0
 27 28  1  0  0  0  0
 28 29  1  0  0  0  0
 28 25  1  1  0  0  0
 29 30  1  0  0  0  0
 31 29  1  0  0  0  0
 32 31  1  0  0  0  0
 33 32  1  0  0  0  0
 33 27  1  0  0  0  0
M  END
>  <minimizedAffinity>
-4.55108309

$$$$
