
     RDKit          3D

 26 27  0  0  0  0  0  0  0  0999 V2000
   38.3102   31.2428   50.1234 C   0  0  0  0  0  0  0  0  0  0  0  0
   38.2957   31.6090   48.7700 C   0  0  0  0  0  0  0  0  0  0  0  0
   37.2123   31.2235   47.9933 C   0  0  0  0  0  0  0  0  0  0  0  0
   36.2174   30.5062   48.5930 N   0  0  0  0  0  0  0  0  0  0  0  0
   36.2535   30.1661   49.8947 C   0  0  0  0  0  0  0  0  0  0  0  0
   37.2948   30.5364   50.6425 N   0  0  0  0  0  0  0  0  0  0  0  0
   35.1246   29.3853   50.4556 C   0  0  0  0  0  0  0  0  0  0  0  0
   35.2688   29.1143   51.8049 F   0  0  0  0  0  0  0  0  0  0  0  0
   33.9218   30.0588   50.3005 F   0  0  0  0  0  0  0  0  0  0  0  0
   34.9500   28.1695   49.8260 F   0  0  0  0  0  0  0  0  0  0  0  0
   39.1804   31.5727   50.6740 H   0  0  0  0  0  0  0  0  0  0  0  0
   39.0796   32.1743   48.2972 H   0  0  0  0  0  0  0  0  0  0  0  0
   37.0625   31.5223   46.6128 N   0  0  0  0  0  0  0  0  0  0  0  0
   36.6262   30.5275   45.6292 C   0  0  1  0  0  0  0  0  0  0  0  0
   37.4883   29.9839   45.2401 H   0  0  0  0  0  0  0  0  0  0  0  0
   35.9342   31.3341   44.5393 C   0  0  1  0  0  0  0  0  0  0  0  0
   35.4088   30.6978   43.7992 H   0  0  0  0  0  0  0  0  0  0  0  0
   36.8925   32.0516   43.8447 O   0  0  0  0  0  0  0  0  0  0  0  0
   37.7897   32.7107   44.6576 C   0  0  0  0  0  0  0  0  0  0  0  0
   37.3310   32.8289   46.0879 C   0  0  0  0  0  0  0  0  0  0  0  0
   35.9145   29.8397   46.1338 H   0  0  0  0  0  0  0  0  0  0  0  0
   35.2407   32.0276   45.0734 H   0  0  0  0  0  0  0  0  0  0  0  0
   37.9426   33.7267   44.2369 H   0  0  0  0  0  0  0  0  0  0  0  0
   38.7862   32.2110   44.6349 H   0  0  0  0  0  0  0  0  0  0  0  0
   38.2168   33.2650   46.6370 H   0  0  0  0  0  0  0  0  0  0  0  0
   36.5169   33.5542   46.1707 H   0  0  0  0  0  0  0  0  0  0  0  0
  1  6  2  0
  2  1  1  0
  3  4  1  0
  3  2  2  0
  4  5  2  0
  5  7  1  0
  5  6  1  0
  7  8  1  0
  9  7  1  0
 10  7  1  0
  1 11  1  0
  2 12  1  0
 13 14  1  0
 14 15  1  6
 14 16  1  0
 16 17  1  6
 16 18  1  0
 18 19  1  0
 19 20  1  0
 20 13  1  0
 14 21  1  0
 16 22  1  0
 19 23  1  0
 19 24  1  0
 20 25  1  0
 20 26  1  0
  3 13  1  0
M  ISO  4  11  14  12  14  15   8  17  15
M  END
>  <DihAtoms>  (1) 
3,2,12,13

>  <DihDeg>  (1) 
0.006113507110377807

$$$$
