
 OpenBabel03272510003D

 20 21  0  0  0  0  0  0  0  0999 V2000
   38.3590   31.5380   50.0940 C   0  0  0  0  0  0  0  0  0  0  0  0
   38.5210   31.7490   48.7180 C   0  0  0  0  0  0  0  0  0  0  0  0
   37.5870   31.1980   47.8510 C   0  0  0  0  0  0  0  0  0  0  0  0
   36.5590   30.4780   48.3910 N   0  0  0  0  0  0  0  0  0  0  0  0
   36.4260   30.2890   49.7170 C   0  0  0  0  0  0  0  0  0  0  0  0
   37.3230   30.8190   50.5500 N   0  0  0  0  0  0  0  0  0  0  0  0
   39.1190   31.9930   50.7150 H   0  0  0  0  0  0  0  0  0  0  0  0
   39.3310   32.3150   48.2920 H   0  0  0  0  0  0  0  0  0  0  0  0
   37.6220   31.3280   46.4380 N   0  0  0  0  0  0  0  0  0  0  0  0
   38.4550   32.3210   45.7540 C   0  0  0  0  0  3  0  0  0  0  0  0
   37.9100   33.2600   45.6530 H   0  0  0  0  0  0  0  0  0  0  0  0
   38.7630   31.7030   44.3970 C   0  0  0  0  0  3  0  0  0  0  0  0
   39.5220   32.2750   43.8250 H   0  0  0  0  0  0  0  0  0  0  0  0
   37.6060   31.7020   43.6390 O   0  0  0  0  0  0  0  0  0  0  0  0
   36.4990   31.2370   44.3180 C   0  0  0  0  0  2  0  0  0  0  0  0
   36.8380   30.4880   45.5800 C   0  0  0  0  0  2  0  0  0  0  0  0
   35.2760   29.4920   50.2080 C   0  0  0  0  0  0  0  0  0  0  0  0
   35.3800   29.1550   51.5460 F   0  0  0  0  0  0  0  0  0  0  0  0
   34.0830   30.1830   50.0510 F   0  0  0  0  0  0  0  0  0  0  0  0
   35.1100   28.3090   49.5150 F   0  0  0  0  0  0  0  0  0  0  0  0
  1  6  1  0  0  0  0
  1  7  1  0  0  0  0
  2  1  2  0  0  0  0
  3  4  2  0  0  0  0
  3  2  1  0  0  0  0
  4  5  1  0  0  0  0
  5 17  1  0  0  0  0
  5  6  2  0  0  0  0
  8  2  1  0  0  0  0
  9  3  1  0  0  0  0
 10  9  1  0  0  0  0
 11 10  1  0  0  0  0
 12 10  1  0  0  0  0
 13 12  1  0  0  0  0
 14 15  1  0  0  0  0
 14 12  1  0  0  0  0
 15 16  1  0  0  0  0
 16  9  1  0  0  0  0
 17 18  1  0  0  0  0
 19 17  1  0  0  0  0
 20 17  1  0  0  0  0
M  END
>  <minimizedAffinity>
-4.96176624

>  <minimizedRMSD>
0.603142798

$$$$
