
 OpenBabel03272510003D

 20 21  0  0  0  0  0  0  0  0999 V2000
   38.5020   32.5920   49.5610 C   0  0  0  0  0  0  0  0  0  0  0  0
   38.7730   32.7180   48.1920 C   0  0  0  0  0  0  0  0  0  0  0  0
   38.0080   31.9820   47.2970 C   0  0  0  0  0  0  0  0  0  0  0  0
   37.0330   31.1710   47.8040 N   0  0  0  0  0  0  0  0  0  0  0  0
   36.7930   31.0660   49.1240 C   0  0  0  0  0  0  0  0  0  0  0  0
   37.5270   31.7740   49.9840 N   0  0  0  0  0  0  0  0  0  0  0  0
   39.1300   33.1910   50.2060 H   0  0  0  0  0  0  0  0  0  0  0  0
   39.5410   33.3570   47.7920 H   0  0  0  0  0  0  0  0  0  0  0  0
   38.1680   32.0090   45.8860 N   0  0  0  0  0  0  0  0  0  0  0  0
   37.3020   31.2560   44.9750 C   0  0  0  0  0  3  0  0  0  0  0  0
   37.6990   30.2510   44.8270 H   0  0  0  0  0  0  0  0  0  0  0  0
   37.3080   32.0570   43.6800 C   0  0  0  0  0  3  0  0  0  0  0  0
   36.5650   31.6920   42.9440 H   0  0  0  0  0  0  0  0  0  0  0  0
   38.5550   31.9340   43.0900 O   0  0  0  0  0  0  0  0  0  0  0  0
   39.6030   32.1210   43.9650 C   0  0  0  0  0  2  0  0  0  0  0  0
   39.1990   32.7820   45.2570 C   0  0  0  0  0  2  0  0  0  0  0  0
   35.7110   30.1590   49.5780 C   0  0  0  0  0  0  0  0  0  0  0  0
   35.8410   29.7780   50.9010 F   0  0  0  0  0  0  0  0  0  0  0  0
   34.4660   30.7570   49.4450 F   0  0  0  0  0  0  0  0  0  0  0  0
   35.6430   28.9960   48.8380 F   0  0  0  0  0  0  0  0  0  0  0  0
  1  6  1  0  0  0  0
  1  7  1  0  0  0  0
  2  1  2  0  0  0  0
  3  4  2  0  0  0  0
  3  2  1  0  0  0  0
  4  5  1  0  0  0  0
  5 17  1  0  0  0  0
  5  6  2  0  0  0  0
  8  2  1  0  0  0  0
  9  3  1  0  0  0  0
 10  9  1  0  0  0  0
 11 10  1  0  0  0  0
 12 10  1  0  0  0  0
 13 12  1  0  0  0  0
 14 12  1  0  0  0  0
 14 15  1  0  0  0  0
 15 16  1  0  0  0  0
 16  9  1  0  0  0  0
 17 18  1  0  0  0  0
 19 17  1  0  0  0  0
 20 17  1  0  0  0  0
M  END
>  <minimizedAffinity>
-5.0395565

>  <minimizedRMSD>
1.5463835

$$$$
