
 OpenBabel03272505333D

 39 42  0  0  0  0  0  0  0  0999 V2000
   38.0680   23.5870   34.2640 N   0  0  0  0  0  0  0  0  0  0  0  0
   38.0700   24.8550   33.7630 C   0  0  0  0  0  0  0  0  0  0  0  0
   37.4070   25.1680   32.5820 C   0  0  0  0  0  0  0  0  0  0  0  0
   36.7340   24.1350   31.9230 C   0  0  0  0  0  0  0  0  0  0  0  0
   36.1230   24.3740   30.8570 O   0  0  0  0  0  0  0  0  0  0  0  0
   36.7370   22.8610   32.4380 N   0  0  0  0  0  0  0  0  0  0  0  0
   37.4070   22.6850   33.5740 C   0  0  0  0  0  0  0  0  0  0  0  0
   37.3840   21.5080   34.0060 O   0  0  0  0  0  0  0  0  0  0  0  0
   38.6010   25.6400   34.2920 H   0  0  0  0  0  0  0  0  0  0  0  0
   37.3770   26.4860   32.0070 C   0  0  0  0  0  0  0  0  0  0  0  0
   38.2380   26.9110   31.0250 C   0  0  0  0  0  0  0  0  0  0  0  0
   38.2540   28.1530   30.4430 C   0  0  0  0  0  0  0  0  0  0  0  0
   37.3080   29.0860   30.8820 C   0  0  0  0  0  0  0  0  0  0  0  0
   36.4400   28.6300   31.8850 C   0  0  0  0  0  0  0  0  0  0  0  0
   36.4950   27.4070   32.3930 N   0  0  0  0  0  0  0  0  0  0  0  0
   38.9990   26.2240   30.6420 H   0  0  0  0  0  0  0  0  0  0  0  0
   38.9500   28.4450   29.6720 H   0  0  0  0  0  0  0  0  0  0  0  0
   37.3250   30.0490   30.4250 H   0  0  0  0  0  0  0  0  0  0  0  0
   35.4710   29.5880   32.3330 N   0  0  0  0  0  0  0  0  0  0  0  0
   35.7990   30.9990   32.2920 C   0  0  0  0  0  3  0  0  0  0  0  0
   36.4730   31.2130   33.1450 H   0  0  0  0  0  0  0  0  0  0  0  0
   34.4950   31.7420   32.5570 C   0  0  0  0  0  3  0  0  0  0  0  0
   33.7790   31.4200   31.7580 H   0  0  0  0  0  0  0  0  0  0  0  0
   34.0350   31.2950   33.7990 O   0  0  0  0  0  0  0  0  0  0  0  0
   33.4610   30.0360   33.7030 C   0  0  0  0  0  2  0  0  0  0  0  0
   34.1940   29.1020   32.8130 C   0  0  0  0  0  2  0  0  0  0  0  0
   38.8950   23.2450   37.8670 C   0  0  0  0  0  0  0  0  0  0  0  0
   38.2050   23.5730   36.6920 C   0  0  0  0  0  0  0  0  0  0  0  0
   38.7360   23.2710   35.4540 C   0  0  0  0  0  0  0  0  0  0  0  0
   39.9390   22.6490   35.4240 N   0  0  0  0  0  0  0  0  0  0  0  0
   40.6270   22.3210   36.5610 C   0  0  0  0  0  0  0  0  0  0  0  0
   40.0890   22.6270   37.7700 N   0  0  0  0  0  0  0  0  0  0  0  0
   38.5040   23.4700   38.8330 H   0  0  0  0  0  0  0  0  0  0  0  0
   37.2490   24.0700   36.7890 H   0  0  0  0  0  0  0  0  0  0  0  0
   41.5550   21.8380   36.3720 H   0  0  0  0  0  0  0  0  0  0  0  0
   36.0380   21.8070   31.7460 C   0  0  0  0  0  0  0  0  0  0  0  0
   35.2780   22.3140   30.7350 F   0  0  0  0  0  0  0  0  0  0  0  0
   35.1820   21.0900   32.5560 F   0  0  0  0  0  0  0  0  0  0  0  0
   36.9900   20.9450   31.1690 F   0  0  0  0  0  0  0  0  0  0  0  0
  1 29  1  0  0  0  0
  2  1  1  0  0  0  0
  2  9  1  0  0  0  0
  3  2  2  0  0  0  0
  4  6  1  0  0  0  0
  4  3  1  0  0  0  0
  5  4  2  0  0  0  0
  6  7  1  0  0  0  0
  7  8  2  0  0  0  0
  7  1  1  0  0  0  0
 10 15  1  0  0  0  0
 10  3  1  0  0  0  0
 11 10  2  0  0  0  0
 12 13  2  0  0  0  0
 12 11  1  0  0  0  0
 13 14  1  0  0  0  0
 14 19  1  0  0  0  0
 14 15  2  0  0  0  0
 16 11  1  0  0  0  0
 17 12  1  0  0  0  0
 18 13  1  0  0  0  0
 19 26  1  0  0  0  0
 20 19  1  0  0  0  0
 20 22  1  0  0  0  0
 20 21  1  0  0  0  0
 22 24  1  0  0  0  0
 23 22  1  0  0  0  0
 25 24  1  0  0  0  0
 26 25  1  0  0  0  0
 27 33  1  0  0  0  0
 28 34  1  0  0  0  0
 28 27  2  0  0  0  0
 29 28  1  0  0  0  0
 30 29  2  0  0  0  0
 30 31  1  0  0  0  0
 31 32  2  0  0  0  0
 32 27  1  0  0  0  0
 35 31  1  0  0  0  0
 36  6  1  0  0  0  0
 36 38  1  0  0  0  0
 37 36  1  0  0  0  0
 39 36  1  0  0  0  0
M  END
>  <minimizedAffinity>
-6.62445593

$$$$

 OpenBabel03272505333D

 39 42  0  0  0  0  0  0  0  0999 V2000
   38.0440   23.5440   34.2930 N   0  0  0  0  0  0  0  0  0  0  0  0
   38.0530   24.7980   33.7590 C   0  0  0  0  0  0  0  0  0  0  0  0
   37.3920   25.0840   32.5700 C   0  0  0  0  0  0  0  0  0  0  0  0
   36.7130   24.0380   31.9380 C   0  0  0  0  0  0  0  0  0  0  0  0
   36.1040   24.2520   30.8660 O   0  0  0  0  0  0  0  0  0  0  0  0
   36.7090   22.7780   32.4860 N   0  0  0  0  0  0  0  0  0  0  0  0
   37.3780   22.6280   33.6270 C   0  0  0  0  0  0  0  0  0  0  0  0
   37.3480   21.4630   34.0910 O   0  0  0  0  0  0  0  0  0  0  0  0
   38.5880   25.5950   34.2670 H   0  0  0  0  0  0  0  0  0  0  0  0
   37.3700   26.3870   31.9600 C   0  0  0  0  0  0  0  0  0  0  0  0
   36.6200   27.4370   32.4290 C   0  0  0  0  0  0  0  0  0  0  0  0
   36.5610   28.6960   31.8870 C   0  0  0  0  0  0  0  0  0  0  0  0
   37.3350   28.9480   30.7490 C   0  0  0  0  0  0  0  0  0  0  0  0
   38.0920   27.8610   30.2890 C   0  0  0  0  0  0  0  0  0  0  0  0
   38.0890   26.6730   30.8760 N   0  0  0  0  0  0  0  0  0  0  0  0
   35.9950   27.2990   33.3170 H   0  0  0  0  0  0  0  0  0  0  0  0
   35.9580   29.4940   32.2900 H   0  0  0  0  0  0  0  0  0  0  0  0
   37.2860   29.9290   30.3330 H   0  0  0  0  0  0  0  0  0  0  0  0
   38.8840   28.1220   29.1210 N   0  0  0  0  0  0  0  0  0  0  0  0
   38.4240   29.1010   28.1570 C   0  0  0  0  0  3  0  0  0  0  0  0
   37.6160   28.6320   27.5610 H   0  0  0  0  0  0  0  0  0  0  0  0
   39.5940   29.3430   27.2110 C   0  0  0  0  0  3  0  0  0  0  0  0
   40.4460   29.6970   27.8450 H   0  0  0  0  0  0  0  0  0  0  0  0
   39.9140   28.0980   26.6590 O   0  0  0  0  0  0  0  0  0  0  0  0
   40.6200   27.3130   27.5570 C   0  0  0  0  0  2  0  0  0  0  0  0
   40.1220   27.3890   28.9520 C   0  0  0  0  0  2  0  0  0  0  0  0
   38.8560   23.2680   37.9050 C   0  0  0  0  0  0  0  0  0  0  0  0
   38.1670   23.5680   36.7220 C   0  0  0  0  0  0  0  0  0  0  0  0
   38.7100   23.2560   35.4910 C   0  0  0  0  0  0  0  0  0  0  0  0
   39.9230   22.6520   35.4770 N   0  0  0  0  0  0  0  0  0  0  0  0
   40.6080   22.3520   36.6230 C   0  0  0  0  0  0  0  0  0  0  0  0
   40.0590   22.6670   37.8250 N   0  0  0  0  0  0  0  0  0  0  0  0
   38.4550   23.5000   38.8660 H   0  0  0  0  0  0  0  0  0  0  0  0
   37.2030   24.0510   36.8060 H   0  0  0  0  0  0  0  0  0  0  0  0
   41.5450   21.8810   36.4460 H   0  0  0  0  0  0  0  0  0  0  0  0
   36.0040   21.7100   31.8230 C   0  0  0  0  0  0  0  0  0  0  0  0
   35.3130   22.1820   30.7470 F   0  0  0  0  0  0  0  0  0  0  0  0
   35.0830   21.0730   32.6290 F   0  0  0  0  0  0  0  0  0  0  0  0
   36.9490   20.7820   31.3440 F   0  0  0  0  0  0  0  0  0  0  0  0
  1 29  1  0  0  0  0
  2  9  1  0  0  0  0
  2  1  1  0  0  0  0
  3  2  2  0  0  0  0
  4  6  1  0  0  0  0
  4  3  1  0  0  0  0
  5  4  2  0  0  0  0
  6  7  1  0  0  0  0
  7  8  2  0  0  0  0
  7  1  1  0  0  0  0
 10 11  1  0  0  0  0
 10  3  1  0  0  0  0
 11 16  1  0  0  0  0
 12 17  1  0  0  0  0
 12 11  2  0  0  0  0
 13 12  1  0  0  0  0
 14 13  2  0  0  0  0
 14 15  1  0  0  0  0
 15 10  2  0  0  0  0
 18 13  1  0  0  0  0
 19 14  1  0  0  0  0
 20 19  1  0  0  0  0
 21 20  1  0  0  0  0
 22 23  1  0  0  0  0
 22 20  1  0  0  0  0
 24 22  1  0  0  0  0
 24 25  1  0  0  0  0
 25 26  1  0  0  0  0
 26 19  1  0  0  0  0
 27 33  1  0  0  0  0
 28 34  1  0  0  0  0
 28 27  2  0  0  0  0
 29 28  1  0  0  0  0
 30 29  2  0  0  0  0
 30 31  1  0  0  0  0
 31 32  2  0  0  0  0
 32 27  1  0  0  0  0
 35 31  1  0  0  0  0
 36  6  1  0  0  0  0
 36 38  1  0  0  0  0
 37 36  1  0  0  0  0
 39 36  1  0  0  0  0
M  END
>  <minimizedAffinity>
-6.54748249

$$$$

 OpenBabel03272505333D

 39 42  0  0  0  0  0  0  0  0999 V2000
   35.8640   29.4420   34.0030 N   0  0  0  0  0  0  0  0  0  0  0  0
   36.4240   28.2590   34.3850 C   0  0  0  0  0  0  0  0  0  0  0  0
   37.1100   27.4570   33.4800 C   0  0  0  0  0  0  0  0  0  0  0  0
   37.2070   27.9070   32.1600 C   0  0  0  0  0  0  0  0  0  0  0  0
   37.8170   27.2150   31.3130 O   0  0  0  0  0  0  0  0  0  0  0  0
   36.6410   29.1010   31.7870 N   0  0  0  0  0  0  0  0  0  0  0  0
   36.0100   29.7800   32.7420 C   0  0  0  0  0  0  0  0  0  0  0  0
   35.5080   30.8630   32.3570 O   0  0  0  0  0  0  0  0  0  0  0  0
   36.3340   27.9300   35.4160 H   0  0  0  0  0  0  0  0  0  0  0  0
   37.7180   26.2000   33.8270 C   0  0  0  0  0  0  0  0  0  0  0  0
   38.6610   26.0550   34.8130 C   0  0  0  0  0  0  0  0  0  0  0  0
   39.2720   24.8830   35.1830 C   0  0  0  0  0  0  0  0  0  0  0  0
   38.9080   23.7180   34.4990 C   0  0  0  0  0  0  0  0  0  0  0  0
   37.9430   23.8930   33.4960 C   0  0  0  0  0  0  0  0  0  0  0  0
   37.4030   25.0670   33.2030 N   0  0  0  0  0  0  0  0  0  0  0  0
   38.9850   26.9320   35.3830 H   0  0  0  0  0  0  0  0  0  0  0  0
   40.0100   24.8130   35.9670 H   0  0  0  0  0  0  0  0  0  0  0  0
   39.3860   22.8120   34.7910 H   0  0  0  0  0  0  0  0  0  0  0  0
   37.5720   22.6970   32.7950 N   0  0  0  0  0  0  0  0  0  0  0  0
   38.5450   21.6350   32.6410 C   0  0  0  0  0  3  0  0  0  0  0  0
   39.2510   21.9380   31.8420 H   0  0  0  0  0  0  0  0  0  0  0  0
   37.7730   20.4280   32.1190 C   0  0  0  0  0  3  0  0  0  0  0  0
   36.9790   20.2080   32.8770 H   0  0  0  0  0  0  0  0  0  0  0  0
   37.1730   20.8360   30.9240 O   0  0  0  0  0  0  0  0  0  0  0  0
   36.0570   21.6230   31.1610 C   0  0  0  0  0  2  0  0  0  0  0  0
   36.2270   22.5990   32.2660 C   0  0  0  0  0  2  0  0  0  0  0  0
   35.1030   31.9870   36.5970 C   0  0  0  0  0  0  0  0  0  0  0  0
   35.8190   31.1900   35.6930 C   0  0  0  0  0  0  0  0  0  0  0  0
   35.1730   30.2510   34.9150 C   0  0  0  0  0  0  0  0  0  0  0  0
   33.8310   30.1340   35.0600 N   0  0  0  0  0  0  0  0  0  0  0  0
   33.1160   30.9030   35.9370 C   0  0  0  0  0  0  0  0  0  0  0  0
   33.7690   31.8220   36.6950 N   0  0  0  0  0  0  0  0  0  0  0  0
   35.5820   32.7180   37.2080 H   0  0  0  0  0  0  0  0  0  0  0  0
   36.8890   31.3360   35.6290 H   0  0  0  0  0  0  0  0  0  0  0  0
   32.0740   30.6930   35.9350 H   0  0  0  0  0  0  0  0  0  0  0  0
   36.7510   29.5510   30.4210 C   0  0  0  0  0  0  0  0  0  0  0  0
   35.7590   30.4370   30.1230 F   0  0  0  0  0  0  0  0  0  0  0  0
   36.6550   28.5320   29.4960 F   0  0  0  0  0  0  0  0  0  0  0  0
   37.9780   30.2240   30.2720 F   0  0  0  0  0  0  0  0  0  0  0  0
  1  2  1  0  0  0  0
  1 29  1  0  0  0  0
  2  9  1  0  0  0  0
  3 10  1  0  0  0  0
  3  2  2  0  0  0  0
  4  3  1  0  0  0  0
  5  4  2  0  0  0  0
  6  4  1  0  0  0  0
  6  7  1  0  0  0  0
  7  1  1  0  0  0  0
  8  7  2  0  0  0  0
 10 11  1  0  0  0  0
 11 12  2  0  0  0  0
 11 16  1  0  0  0  0
 12 17  1  0  0  0  0
 13 18  1  0  0  0  0
 13 12  1  0  0  0  0
 14 13  2  0  0  0  0
 15 14  1  0  0  0  0
 15 10  2  0  0  0  0
 19 14  1  0  0  0  0
 20 19  1  0  0  0  0
 21 20  1  0  0  0  0
 22 20  1  0  0  0  0
 22 23  1  0  0  0  0
 24 25  1  0  0  0  0
 24 22  1  0  0  0  0
 25 26  1  0  0  0  0
 26 19  1  0  0  0  0
 27 32  1  0  0  0  0
 27 33  1  0  0  0  0
 28 27  2  0  0  0  0
 29 30  2  0  0  0  0
 29 28  1  0  0  0  0
 30 31  1  0  0  0  0
 31 32  2  0  0  0  0
 34 28  1  0  0  0  0
 35 31  1  0  0  0  0
 36  6  1  0  0  0  0
 37 36  1  0  0  0  0
 38 36  1  0  0  0  0
 39 36  1  0  0  0  0
M  END
>  <minimizedAffinity>
-6.3706913

$$$$

 OpenBabel03272505333D

 39 42  0  0  0  0  0  0  0  0999 V2000
   38.0550   23.0820   34.8020 N   0  0  0  0  0  0  0  0  0  0  0  0
   38.5280   23.9340   33.8490 C   0  0  0  0  0  0  0  0  0  0  0  0
   38.1790   23.7890   32.5110 C   0  0  0  0  0  0  0  0  0  0  0  0
   37.3230   22.7350   32.1740 C   0  0  0  0  0  0  0  0  0  0  0  0
   36.9840   22.5690   30.9810 O   0  0  0  0  0  0  0  0  0  0  0  0
   36.8530   21.8840   33.1440 N   0  0  0  0  0  0  0  0  0  0  0  0
   37.2560   22.1240   34.3890 C   0  0  0  0  0  0  0  0  0  0  0  0
   36.8030   21.3220   35.2400 O   0  0  0  0  0  0  0  0  0  0  0  0
   39.1920   24.7440   34.1340 H   0  0  0  0  0  0  0  0  0  0  0  0
   38.6490   24.6560   31.4640 C   0  0  0  0  0  0  0  0  0  0  0  0
   39.6640   24.3290   30.5990 C   0  0  0  0  0  0  0  0  0  0  0  0
   40.1500   25.1160   29.5860 C   0  0  0  0  0  0  0  0  0  0  0  0
   39.5640   26.3730   29.4040 C   0  0  0  0  0  0  0  0  0  0  0  0
   38.5300   26.6850   30.2990 C   0  0  0  0  0  0  0  0  0  0  0  0
   38.1220   25.8610   31.2540 N   0  0  0  0  0  0  0  0  0  0  0  0
   40.1590   23.3570   30.6930 H   0  0  0  0  0  0  0  0  0  0  0  0
   40.9510   24.8190   28.9270 H   0  0  0  0  0  0  0  0  0  0  0  0
   39.9460   26.9800   28.6150 H   0  0  0  0  0  0  0  0  0  0  0  0
   37.9310   27.9750   30.1120 N   0  0  0  0  0  0  0  0  0  0  0  0
   38.7330   29.0580   29.5790 C   0  0  0  0  0  3  0  0  0  0  0  0
   39.3850   29.4280   30.3960 H   0  0  0  0  0  0  0  0  0  0  0  0
   37.7580   30.1800   29.2430 C   0  0  0  0  0  3  0  0  0  0  0  0
   37.0260   29.7550   28.5090 H   0  0  0  0  0  0  0  0  0  0  0  0
   37.0930   30.4890   30.4340 O   0  0  0  0  0  0  0  0  0  0  0  0
   36.1230   29.5450   30.7320 C   0  0  0  0  0  2  0  0  0  0  0  0
   36.5370   28.1450   30.4650 C   0  0  0  0  0  2  0  0  0  0  0  0
   37.9980   24.0740   38.3790 C   0  0  0  0  0  0  0  0  0  0  0  0
   37.6230   23.9440   37.0350 C   0  0  0  0  0  0  0  0  0  0  0  0
   38.4050   23.2280   36.1510 C   0  0  0  0  0  0  0  0  0  0  0  0
   39.5370   22.6610   36.6340 N   0  0  0  0  0  0  0  0  0  0  0  0
   39.9170   22.7780   37.9430 C   0  0  0  0  0  0  0  0  0  0  0  0
   39.1360   23.4870   38.7990 N   0  0  0  0  0  0  0  0  0  0  0  0
   37.4090   24.6230   39.0790 H   0  0  0  0  0  0  0  0  0  0  0  0
   36.7070   24.4230   36.7170 H   0  0  0  0  0  0  0  0  0  0  0  0
   40.8290   22.2780   38.1670 H   0  0  0  0  0  0  0  0  0  0  0  0
   35.9710   20.8020   32.7810 C   0  0  0  0  0  0  0  0  0  0  0  0
   35.1080   21.1910   31.7990 F   0  0  0  0  0  0  0  0  0  0  0  0
   35.1930   20.3510   33.8270 F   0  0  0  0  0  0  0  0  0  0  0  0
   36.7480   19.7470   32.2670 F   0  0  0  0  0  0  0  0  0  0  0  0
  1 29  1  0  0  0  0
  2  9  1  0  0  0  0
  2  1  1  0  0  0  0
  3  2  2  0  0  0  0
  4  3  1  0  0  0  0
  4  6  1  0  0  0  0
  5  4  2  0  0  0  0
  6  7  1  0  0  0  0
  7  1  1  0  0  0  0
  7  8  2  0  0  0  0
 10  3  1  0  0  0  0
 11 16  1  0  0  0  0
 11 10  2  0  0  0  0
 12 11  1  0  0  0  0
 13 12  2  0  0  0  0
 13 14  1  0  0  0  0
 14 15  2  0  0  0  0
 15 10  1  0  0  0  0
 17 12  1  0  0  0  0
 18 13  1  0  0  0  0
 19 14  1  0  0  0  0
 19 26  1  0  0  0  0
 20 19  1  0  0  0  0
 20 21  1  0  0  0  0
 22 20  1  0  0  0  0
 22 24  1  0  0  0  0
 23 22  1  0  0  0  0
 24 25  1  0  0  0  0
 26 25  1  0  0  0  0
 27 32  1  0  0  0  0
 27 33  1  0  0  0  0
 28 27  2  0  0  0  0
 29 30  2  0  0  0  0
 29 28  1  0  0  0  0
 30 31  1  0  0  0  0
 31 35  1  0  0  0  0
 31 32  2  0  0  0  0
 34 28  1  0  0  0  0
 36  6  1  0  0  0  0
 36 38  1  0  0  0  0
 37 36  1  0  0  0  0
 39 36  1  0  0  0  0
M  END
>  <minimizedAffinity>
-6.35615015

$$$$

 OpenBabel03272505333D

 39 42  0  0  0  0  0  0  0  0999 V2000
   35.3680   30.1980   33.4330 N   0  0  0  0  0  0  0  0  0  0  0  0
   35.4840   28.8430   33.3370 C   0  0  0  0  0  0  0  0  0  0  0  0
   35.9750   28.2390   32.1850 C   0  0  0  0  0  0  0  0  0  0  0  0
   36.3480   29.0700   31.1240 C   0  0  0  0  0  0  0  0  0  0  0  0
   36.7950   28.5670   30.0690 O   0  0  0  0  0  0  0  0  0  0  0  0
   36.2270   30.4340   31.2330 N   0  0  0  0  0  0  0  0  0  0  0  0
   35.7440   30.8950   32.3850 C   0  0  0  0  0  0  0  0  0  0  0  0
   35.6500   32.1440   32.4390 O   0  0  0  0  0  0  0  0  0  0  0  0
   35.1880   28.2180   34.1730 H   0  0  0  0  0  0  0  0  0  0  0  0
   36.1180   26.8160   32.0270 C   0  0  0  0  0  0  0  0  0  0  0  0
   35.3640   26.0640   31.1610 C   0  0  0  0  0  0  0  0  0  0  0  0
   35.4580   24.7090   30.9720 C   0  0  0  0  0  0  0  0  0  0  0  0
   36.4100   24.0140   31.7260 C   0  0  0  0  0  0  0  0  0  0  0  0
   37.1670   24.8030   32.6030 C   0  0  0  0  0  0  0  0  0  0  0  0
   37.0100   26.1130   32.7240 N   0  0  0  0  0  0  0  0  0  0  0  0
   34.6040   26.5540   30.5440 H   0  0  0  0  0  0  0  0  0  0  0  0
   34.8450   24.1560   30.2780 H   0  0  0  0  0  0  0  0  0  0  0  0
   36.4790   22.9610   31.5740 H   0  0  0  0  0  0  0  0  0  0  0  0
   38.1420   24.0880   33.3770 N   0  0  0  0  0  0  0  0  0  0  0  0
   37.8900   22.7060   33.7320 C   0  0  0  0  0  3  0  0  0  0  0  0
   37.1590   22.7010   34.5650 H   0  0  0  0  0  0  0  0  0  0  0  0
   39.2030   22.1670   34.2880 C   0  0  0  0  0  3  0  0  0  0  0  0
   39.9660   22.2940   33.4790 H   0  0  0  0  0  0  0  0  0  0  0  0
   39.5350   22.9880   35.3710 O   0  0  0  0  0  0  0  0  0  0  0  0
   40.0520   24.2030   34.9450 C   0  0  0  0  0  2  0  0  0  0  0  0
   39.3500   24.7820   33.7730 C   0  0  0  0  0  2  0  0  0  0  0  0
   35.1900   31.9640   36.6940 C   0  0  0  0  0  0  0  0  0  0  0  0
   35.7120   31.3590   35.5420 C   0  0  0  0  0  0  0  0  0  0  0  0
   34.8740   30.8070   34.5940 C   0  0  0  0  0  0  0  0  0  0  0  0
   33.5400   30.8760   34.8210 N   0  0  0  0  0  0  0  0  0  0  0  0
   33.0140   31.4620   35.9410 C   0  0  0  0  0  0  0  0  0  0  0  0
   33.8530   31.9990   36.8630 N   0  0  0  0  0  0  0  0  0  0  0  0
   35.8190   32.3960   37.4390 H   0  0  0  0  0  0  0  0  0  0  0  0
   36.7870   31.3400   35.4240 H   0  0  0  0  0  0  0  0  0  0  0  0
   31.9520   31.4350   35.9740 H   0  0  0  0  0  0  0  0  0  0  0  0
   36.6150   31.2780   30.1310 C   0  0  0  0  0  0  0  0  0  0  0  0
   35.6280   32.1690   29.8330 F   0  0  0  0  0  0  0  0  0  0  0  0
   36.8760   30.5820   28.9690 F   0  0  0  0  0  0  0  0  0  0  0  0
   37.7500   32.0180   30.5150 F   0  0  0  0  0  0  0  0  0  0  0  0
  1 29  1  0  0  0  0
  2  1  1  0  0  0  0
  2  9  1  0  0  0  0
  3  2  2  0  0  0  0
  4  6  1  0  0  0  0
  4  3  1  0  0  0  0
  5  4  2  0  0  0  0
  6  7  1  0  0  0  0
  7  8  2  0  0  0  0
  7  1  1  0  0  0  0
 10  3  1  0  0  0  0
 10 15  1  0  0  0  0
 11 10  2  0  0  0  0
 12 11  1  0  0  0  0
 12 13  2  0  0  0  0
 13 14  1  0  0  0  0
 14 15  2  0  0  0  0
 14 19  1  0  0  0  0
 16 11  1  0  0  0  0
 17 12  1  0  0  0  0
 18 13  1  0  0  0  0
 19 20  1  0  0  0  0
 19 26  1  0  0  0  0
 20 22  1  0  0  0  0
 20 21  1  0  0  0  0
 22 24  1  0  0  0  0
 23 22  1  0  0  0  0
 25 24  1  0  0  0  0
 26 25  1  0  0  0  0
 27 32  1  0  0  0  0
 27 33  1  0  0  0  0
 28 27  2  0  0  0  0
 29 30  2  0  0  0  0
 29 28  1  0  0  0  0
 30 31  1  0  0  0  0
 31 35  1  0  0  0  0
 31 32  2  0  0  0  0
 34 28  1  0  0  0  0
 36 39  1  0  0  0  0
 36  6  1  0  0  0  0
 37 36  1  0  0  0  0
 38 36  1  0  0  0  0
M  END
>  <minimizedAffinity>
-6.33022022

$$$$

 OpenBabel03272505333D

 39 42  0  0  0  0  0  0  0  0999 V2000
   38.3090   24.0090   33.8320 N   0  0  0  0  0  0  0  0  0  0  0  0
   38.1600   25.3190   33.4890 C   0  0  0  0  0  0  0  0  0  0  0  0
   37.2380   25.7150   32.5270 C   0  0  0  0  0  0  0  0  0  0  0  0
   36.4660   24.7200   31.9200 C   0  0  0  0  0  0  0  0  0  0  0  0
   35.6240   25.0340   31.0490 O   0  0  0  0  0  0  0  0  0  0  0  0
   36.6250   23.4030   32.2740 N   0  0  0  0  0  0  0  0  0  0  0  0
   37.5380   23.1470   33.2080 C   0  0  0  0  0  0  0  0  0  0  0  0
   37.6500   21.9320   33.4990 O   0  0  0  0  0  0  0  0  0  0  0  0
   38.7720   26.0740   33.9730 H   0  0  0  0  0  0  0  0  0  0  0  0
   37.0390   27.0820   32.1250 C   0  0  0  0  0  0  0  0  0  0  0  0
   37.6410   27.6510   31.0300 C   0  0  0  0  0  0  0  0  0  0  0  0
   37.4870   28.9460   30.6030 C   0  0  0  0  0  0  0  0  0  0  0  0
   36.6390   29.7760   31.3430 C   0  0  0  0  0  0  0  0  0  0  0  0
   36.0360   29.1730   32.4560 C   0  0  0  0  0  0  0  0  0  0  0  0
   36.2420   27.9090   32.7990 N   0  0  0  0  0  0  0  0  0  0  0  0
   38.3150   27.0500   30.4120 H   0  0  0  0  0  0  0  0  0  0  0  0
   37.9800   29.3530   29.7340 H   0  0  0  0  0  0  0  0  0  0  0  0
   36.5230   30.7810   31.0060 H   0  0  0  0  0  0  0  0  0  0  0  0
   35.1670   30.0260   33.2150 N   0  0  0  0  0  0  0  0  0  0  0  0
   35.4340   31.4490   33.2610 C   0  0  0  0  0  3  0  0  0  0  0  0
   36.2790   31.6100   33.9610 H   0  0  0  0  0  0  0  0  0  0  0  0
   34.2030   32.0890   33.8920 C   0  0  0  0  0  3  0  0  0  0  0  0
   33.3340   31.8130   33.2420 H   0  0  0  0  0  0  0  0  0  0  0  0
   34.0520   31.4920   35.1470 O   0  0  0  0  0  0  0  0  0  0  0  0
   33.5090   30.2210   35.0410 C   0  0  0  0  0  2  0  0  0  0  0  0
   34.0470   29.4250   33.9100 C   0  0  0  0  0  2  0  0  0  0  0  0
   39.8200   22.9760   37.0630 C   0  0  0  0  0  0  0  0  0  0  0  0
   38.8700   23.3760   36.1120 C   0  0  0  0  0  0  0  0  0  0  0  0
   39.2380   23.6090   34.8020 C   0  0  0  0  0  0  0  0  0  0  0  0
   40.5420   23.4350   34.4770 N   0  0  0  0  0  0  0  0  0  0  0  0
   41.4820   23.0450   35.3920 C   0  0  0  0  0  0  0  0  0  0  0  0
   41.1030   22.8210   36.6770 N   0  0  0  0  0  0  0  0  0  0  0  0
   39.5580   22.7910   38.0790 H   0  0  0  0  0  0  0  0  0  0  0  0
   37.8470   23.4960   36.4400 H   0  0  0  0  0  0  0  0  0  0  0  0
   42.4590   22.9540   34.9840 H   0  0  0  0  0  0  0  0  0  0  0  0
   35.8200   22.3880   31.6400 C   0  0  0  0  0  0  0  0  0  0  0  0
   34.9000   21.8860   32.5110 F   0  0  0  0  0  0  0  0  0  0  0  0
   36.5510   21.3120   31.1820 F   0  0  0  0  0  0  0  0  0  0  0  0
   35.1150   22.9800   30.5750 F   0  0  0  0  0  0  0  0  0  0  0  0
  1 29  1  0  0  0  0
  2  1  1  0  0  0  0
  2  9  1  0  0  0  0
  3  2  2  0  0  0  0
  4  6  1  0  0  0  0
  4  3  1  0  0  0  0
  5  4  2  0  0  0  0
  6  7  1  0  0  0  0
  7  8  2  0  0  0  0
  7  1  1  0  0  0  0
 10  3  1  0  0  0  0
 10 15  1  0  0  0  0
 11 10  2  0  0  0  0
 12 11  1  0  0  0  0
 12 13  2  0  0  0  0
 13 14  1  0  0  0  0
 14 15  2  0  0  0  0
 14 19  1  0  0  0  0
 16 11  1  0  0  0  0
 17 12  1  0  0  0  0
 18 13  1  0  0  0  0
 19 20  1  0  0  0  0
 19 26  1  0  0  0  0
 20 22  1  0  0  0  0
 20 21  1  0  0  0  0
 22 24  1  0  0  0  0
 23 22  1  0  0  0  0
 25 24  1  0  0  0  0
 26 25  1  0  0  0  0
 27 33  1  0  0  0  0
 28 34  1  0  0  0  0
 28 27  2  0  0  0  0
 29 28  1  0  0  0  0
 30 29  2  0  0  0  0
 30 31  1  0  0  0  0
 31 32  2  0  0  0  0
 32 27  1  0  0  0  0
 35 31  1  0  0  0  0
 36  6  1  0  0  0  0
 36 37  1  0  0  0  0
 38 36  1  0  0  0  0
 39 36  1  0  0  0  0
M  END
>  <minimizedAffinity>
-6.29458809

$$$$

 OpenBabel03272505333D

 39 42  0  0  0  0  0  0  0  0999 V2000
   37.1380   24.1180   32.5580 N   0  0  0  0  0  0  0  0  0  0  0  0
   36.7010   25.2930   32.0220 C   0  0  0  0  0  0  0  0  0  0  0  0
   36.9300   26.5080   32.6570 C   0  0  0  0  0  0  0  0  0  0  0  0
   37.6270   26.4860   33.8690 C   0  0  0  0  0  0  0  0  0  0  0  0
   37.8540   27.5580   34.4730 O   0  0  0  0  0  0  0  0  0  0  0  0
   38.0630   25.2960   34.3990 N   0  0  0  0  0  0  0  0  0  0  0  0
   37.7840   24.1990   33.7000 C   0  0  0  0  0  0  0  0  0  0  0  0
   38.2010   23.1370   34.2210 O   0  0  0  0  0  0  0  0  0  0  0  0
   36.1610   25.2850   31.0800 H   0  0  0  0  0  0  0  0  0  0  0  0
   36.4910   27.7760   32.1380 C   0  0  0  0  0  0  0  0  0  0  0  0
   37.1890   28.5030   31.2060 C   0  0  0  0  0  0  0  0  0  0  0  0
   36.8180   29.7150   30.6800 C   0  0  0  0  0  0  0  0  0  0  0  0
   35.6140   30.2730   31.1250 C   0  0  0  0  0  0  0  0  0  0  0  0
   34.9200   29.5120   32.0760 C   0  0  0  0  0  0  0  0  0  0  0  0
   35.3530   28.3460   32.5330 N   0  0  0  0  0  0  0  0  0  0  0  0
   38.1370   28.1160   30.8210 H   0  0  0  0  0  0  0  0  0  0  0  0
   37.3970   30.2530   29.9470 H   0  0  0  0  0  0  0  0  0  0  0  0
   35.3310   31.2140   30.7120 H   0  0  0  0  0  0  0  0  0  0  0  0
   33.6870   30.0880   32.5320 N   0  0  0  0  0  0  0  0  0  0  0  0
   33.5460   31.5290   32.5640 C   0  0  0  0  0  3  0  0  0  0  0  0
   34.1000   31.9020   33.4480 H   0  0  0  0  0  0  0  0  0  0  0  0
   32.0680   31.8030   32.8150 C   0  0  0  0  0  3  0  0  0  0  0  0
   31.5080   31.3120   31.9790 H   0  0  0  0  0  0  0  0  0  0  0  0
   31.7520   31.1690   34.0200 O   0  0  0  0  0  0  0  0  0  0  0  0
   31.6130   29.8000   33.8500 C   0  0  0  0  0  2  0  0  0  0  0  0
   32.6230   29.1960   32.9460 C   0  0  0  0  0  2  0  0  0  0  0  0
   35.4800   21.0350   31.3220 C   0  0  0  0  0  0  0  0  0  0  0  0
   35.6820   22.2610   31.9710 C   0  0  0  0  0  0  0  0  0  0  0  0
   36.9080   22.8930   31.9190 C   0  0  0  0  0  0  0  0  0  0  0  0
   37.8960   22.2860   31.2180 N   0  0  0  0  0  0  0  0  0  0  0  0
   37.7160   21.0900   30.5780 C   0  0  0  0  0  0  0  0  0  0  0  0
   36.5030   20.4810   30.6410 N   0  0  0  0  0  0  0  0  0  0  0  0
   34.5410   20.5300   31.3500 H   0  0  0  0  0  0  0  0  0  0  0  0
   34.8500   22.6890   32.5130 H   0  0  0  0  0  0  0  0  0  0  0  0
   38.5850   20.7430   30.0730 H   0  0  0  0  0  0  0  0  0  0  0  0
   38.7810   25.2900   35.6500 C   0  0  0  0  0  0  0  0  0  0  0  0
   38.7510   24.0520   36.2180 F   0  0  0  0  0  0  0  0  0  0  0  0
   38.2640   26.1610   36.5860 F   0  0  0  0  0  0  0  0  0  0  0  0
   40.1290   25.6040   35.3910 F   0  0  0  0  0  0  0  0  0  0  0  0
  1  7  1  0  0  0  0
  2  1  1  0  0  0  0
  2  3  2  0  0  0  0
  3  4  1  0  0  0  0
  4  6  1  0  0  0  0
  4  5  2  0  0  0  0
  6 36  1  0  0  0  0
  7  8  2  0  0  0  0
  7  6  1  0  0  0  0
  9  2  1  0  0  0  0
 10 15  1  0  0  0  0
 10  3  1  0  0  0  0
 11 10  2  0  0  0  0
 12 13  2  0  0  0  0
 12 11  1  0  0  0  0
 13 14  1  0  0  0  0
 14 19  1  0  0  0  0
 14 15  2  0  0  0  0
 16 11  1  0  0  0  0
 17 12  1  0  0  0  0
 18 13  1  0  0  0  0
 19 20  1  0  0  0  0
 19 26  1  0  0  0  0
 20 22  1  0  0  0  0
 20 21  1  0  0  0  0
 22 24  1  0  0  0  0
 23 22  1  0  0  0  0
 25 24  1  0  0  0  0
 26 25  1  0  0  0  0
 27 33  1  0  0  0  0
 27 28  1  0  0  0  0
 28 34  1  0  0  0  0
 29 28  2  0  0  0  0
 29  1  1  0  0  0  0
 30 29  1  0  0  0  0
 31 32  1  0  0  0  0
 31 30  2  0  0  0  0
 32 27  2  0  0  0  0
 35 31  1  0  0  0  0
 36 37  1  0  0  0  0
 36 38  1  0  0  0  0
 39 36  1  0  0  0  0
M  END
>  <minimizedAffinity>
-6.29023075

$$$$

 OpenBabel03272505333D

 39 42  0  0  0  0  0  0  0  0999 V2000
   36.3040   27.7690   32.8190 N   0  0  0  0  0  0  0  0  0  0  0  0
   36.5480   26.6880   32.0250 C   0  0  0  0  0  0  0  0  0  0  0  0
   37.4200   25.6810   32.4200 C   0  0  0  0  0  0  0  0  0  0  0  0
   38.0420   25.8130   33.6660 C   0  0  0  0  0  0  0  0  0  0  0  0
   38.8340   24.9280   34.0600 O   0  0  0  0  0  0  0  0  0  0  0  0
   37.7870   26.9060   34.4580 N   0  0  0  0  0  0  0  0  0  0  0  0
   36.9340   27.8040   33.9720 C   0  0  0  0  0  0  0  0  0  0  0  0
   36.7320   28.7840   34.7280 O   0  0  0  0  0  0  0  0  0  0  0  0
   36.0550   26.6080   31.0610 H   0  0  0  0  0  0  0  0  0  0  0  0
   37.7170   24.5210   31.6230 C   0  0  0  0  0  0  0  0  0  0  0  0
   38.5560   24.5350   30.5370 C   0  0  0  0  0  0  0  0  0  0  0  0
   38.8720   23.4610   29.7430 C   0  0  0  0  0  0  0  0  0  0  0  0
   38.2920   22.2280   30.0600 C   0  0  0  0  0  0  0  0  0  0  0  0
   37.4380   22.2390   31.1730 C   0  0  0  0  0  0  0  0  0  0  0  0
   37.1870   23.3270   31.8860 N   0  0  0  0  0  0  0  0  0  0  0  0
   39.0400   25.4710   30.2410 H   0  0  0  0  0  0  0  0  0  0  0  0
   39.5390   23.5160   28.8970 H   0  0  0  0  0  0  0  0  0  0  0  0
   38.5420   21.3970   29.4410 H   0  0  0  0  0  0  0  0  0  0  0  0
   36.8430   20.9740   31.4960 N   0  0  0  0  0  0  0  0  0  0  0  0
   36.5840   20.0220   30.4360 C   0  0  0  0  0  3  0  0  0  0  0  0
   35.6780   20.3610   29.8930 H   0  0  0  0  0  0  0  0  0  0  0  0
   36.2260   18.7100   31.1250 C   0  0  0  0  0  3  0  0  0  0  0  0
   37.1010   18.4420   31.7690 H   0  0  0  0  0  0  0  0  0  0  0  0
   35.1200   18.9840   31.9350 O   0  0  0  0  0  0  0  0  0  0  0  0
   35.4920   19.6520   33.0920 C   0  0  0  0  0  2  0  0  0  0  0  0
   36.5240   20.6970   32.8820 C   0  0  0  0  0  2  0  0  0  0  0  0
   34.8960   30.7660   31.1390 C   0  0  0  0  0  0  0  0  0  0  0  0
   35.7970   29.7610   31.5200 C   0  0  0  0  0  0  0  0  0  0  0  0
   35.4240   28.7840   32.4210 C   0  0  0  0  0  0  0  0  0  0  0  0
   34.1640   28.8360   32.9150 N   0  0  0  0  0  0  0  0  0  0  0  0
   33.2720   29.8090   32.5540 C   0  0  0  0  0  0  0  0  0  0  0  0
   33.6560   30.7630   31.6670 N   0  0  0  0  0  0  0  0  0  0  0  0
   35.1640   31.5300   30.4450 H   0  0  0  0  0  0  0  0  0  0  0  0
   36.7880   29.7800   31.0870 H   0  0  0  0  0  0  0  0  0  0  0  0
   32.3240   29.7130   33.0270 H   0  0  0  0  0  0  0  0  0  0  0  0
   38.4360   27.0280   35.7400 C   0  0  0  0  0  0  0  0  0  0  0  0
   38.0150   28.1490   36.3900 F   0  0  0  0  0  0  0  0  0  0  0  0
   39.8100   27.1170   35.6570 F   0  0  0  0  0  0  0  0  0  0  0  0
   38.0720   25.9200   36.5300 F   0  0  0  0  0  0  0  0  0  0  0  0
  1  7  1  0  0  0  0
  2  3  2  0  0  0  0
  2  1  1  0  0  0  0
  3  4  1  0  0  0  0
  4  5  2  0  0  0  0
  4  6  1  0  0  0  0
  6 36  1  0  0  0  0
  7  6  1  0  0  0  0
  7  8  2  0  0  0  0
  9  2  1  0  0  0  0
 10 15  1  0  0  0  0
 10  3  1  0  0  0  0
 11 10  2  0  0  0  0
 12 13  2  0  0  0  0
 12 11  1  0  0  0  0
 13 14  1  0  0  0  0
 14 19  1  0  0  0  0
 14 15  2  0  0  0  0
 16 11  1  0  0  0  0
 17 12  1  0  0  0  0
 18 13  1  0  0  0  0
 19 26  1  0  0  0  0
 20 22  1  0  0  0  0
 20 19  1  0  0  0  0
 21 20  1  0  0  0  0
 22 23  1  0  0  0  0
 22 24  1  0  0  0  0
 24 25  1  0  0  0  0
 26 25  1  0  0  0  0
 27 28  2  0  0  0  0
 27 32  1  0  0  0  0
 28 29  1  0  0  0  0
 29  1  1  0  0  0  0
 29 30  2  0  0  0  0
 31 30  1  0  0  0  0
 31 35  1  0  0  0  0
 32 31  2  0  0  0  0
 33 27  1  0  0  0  0
 34 28  1  0  0  0  0
 36 37  1  0  0  0  0
 36 39  1  0  0  0  0
 38 36  1  0  0  0  0
M  END
>  <minimizedAffinity>
-6.22138453

$$$$

 OpenBabel03272505333D

 39 42  0  0  0  0  0  0  0  0999 V2000
   38.1260   24.1690   34.0690 N   0  0  0  0  0  0  0  0  0  0  0  0
   37.9360   25.4920   33.8020 C   0  0  0  0  0  0  0  0  0  0  0  0
   37.1080   25.9100   32.7670 C   0  0  0  0  0  0  0  0  0  0  0  0
   36.4720   24.9230   32.0060 C   0  0  0  0  0  0  0  0  0  0  0  0
   35.7170   25.2570   31.0650 O   0  0  0  0  0  0  0  0  0  0  0  0
   36.6700   23.5930   32.2860 N   0  0  0  0  0  0  0  0  0  0  0  0
   37.4850   23.3170   33.3010 C   0  0  0  0  0  0  0  0  0  0  0  0
   37.6370   22.0920   33.5190 O   0  0  0  0  0  0  0  0  0  0  0  0
   38.4410   26.2400   34.4050 H   0  0  0  0  0  0  0  0  0  0  0  0
   36.8720   27.2910   32.4390 C   0  0  0  0  0  0  0  0  0  0  0  0
   36.1130   28.1390   33.2050 C   0  0  0  0  0  0  0  0  0  0  0  0
   35.8560   29.4600   32.9400 C   0  0  0  0  0  0  0  0  0  0  0  0
   36.4160   30.0090   31.7810 C   0  0  0  0  0  0  0  0  0  0  0  0
   37.1870   29.1230   31.0140 C   0  0  0  0  0  0  0  0  0  0  0  0
   37.3840   27.8550   31.3460 N   0  0  0  0  0  0  0  0  0  0  0  0
   35.6500   27.7660   34.1250 H   0  0  0  0  0  0  0  0  0  0  0  0
   35.2530   30.0930   33.5720 H   0  0  0  0  0  0  0  0  0  0  0  0
   36.2140   31.0360   31.5800 H   0  0  0  0  0  0  0  0  0  0  0  0
   37.7600   29.6870   29.8250 N   0  0  0  0  0  0  0  0  0  0  0  0
   37.0680   30.7650   29.1480 C   0  0  0  0  0  3  0  0  0  0  0  0
   36.2220   30.3210   28.5850 H   0  0  0  0  0  0  0  0  0  0  0  0
   38.0490   31.3150   28.1200 C   0  0  0  0  0  3  0  0  0  0  0  0
   38.9540   31.6460   28.6900 H   0  0  0  0  0  0  0  0  0  0  0  0
   38.3900   30.2410   27.2910 O   0  0  0  0  0  0  0  0  0  0  0  0
   39.2960   29.3940   27.9090 C   0  0  0  0  0  2  0  0  0  0  0  0
   39.0170   29.1520   29.3460 C   0  0  0  0  0  2  0  0  0  0  0  0
   39.3350   23.0890   37.4100 C   0  0  0  0  0  0  0  0  0  0  0  0
   38.4770   23.5110   36.3840 C   0  0  0  0  0  0  0  0  0  0  0  0
   38.9600   23.7470   35.1130 C   0  0  0  0  0  0  0  0  0  0  0  0
   40.2850   23.5540   34.9010 N   0  0  0  0  0  0  0  0  0  0  0  0
   41.1360   23.1430   35.8900 C   0  0  0  0  0  0  0  0  0  0  0  0
   40.6430   22.9160   37.1350 N   0  0  0  0  0  0  0  0  0  0  0  0
   38.9830   22.9010   38.3980 H   0  0  0  0  0  0  0  0  0  0  0  0
   37.4310   23.6450   36.6240 H   0  0  0  0  0  0  0  0  0  0  0  0
   42.1440   23.0390   35.5670 H   0  0  0  0  0  0  0  0  0  0  0  0
   36.0070   22.5880   31.4930 C   0  0  0  0  0  0  0  0  0  0  0  0
   35.2040   23.1650   30.5550 F   0  0  0  0  0  0  0  0  0  0  0  0
   35.2010   21.7460   32.2320 F   0  0  0  0  0  0  0  0  0  0  0  0
   36.9860   21.8420   30.8100 F   0  0  0  0  0  0  0  0  0  0  0  0
  1 29  1  0  0  0  0
  2  1  1  0  0  0  0
  2  9  1  0  0  0  0
  3  2  2  0  0  0  0
  4  6  1  0  0  0  0
  4  3  1  0  0  0  0
  5  4  2  0  0  0  0
  6  7  1  0  0  0  0
  7  8  2  0  0  0  0
  7  1  1  0  0  0  0
 10  3  1  0  0  0  0
 10 11  1  0  0  0  0
 11 16  1  0  0  0  0
 12 11  2  0  0  0  0
 12 17  1  0  0  0  0
 13 12  1  0  0  0  0
 14 15  1  0  0  0  0
 14 13  2  0  0  0  0
 15 10  2  0  0  0  0
 18 13  1  0  0  0  0
 19 14  1  0  0  0  0
 20 19  1  0  0  0  0
 21 20  1  0  0  0  0
 22 23  1  0  0  0  0
 22 20  1  0  0  0  0
 24 25  1  0  0  0  0
 24 22  1  0  0  0  0
 25 26  1  0  0  0  0
 26 19  1  0  0  0  0
 27 33  1  0  0  0  0
 28 34  1  0  0  0  0
 28 27  2  0  0  0  0
 29 28  1  0  0  0  0
 30 29  2  0  0  0  0
 30 31  1  0  0  0  0
 31 32  2  0  0  0  0
 32 27  1  0  0  0  0
 35 31  1  0  0  0  0
 36 38  1  0  0  0  0
 36  6  1  0  0  0  0
 37 36  1  0  0  0  0
 39 36  1  0  0  0  0
M  END
>  <minimizedAffinity>
-6.20987415

$$$$
