
 OpenBabel03272510293D

 27 29  0  0  0  0  0  0  0  0999 V2000
   37.1840   31.3120   49.1900 C   0  0  0  0  0  0  0  0  0  0  0  0
   37.3580   32.5700   49.7860 C   0  0  0  0  0  0  0  0  0  0  0  0
   38.3120   33.3990   49.2140 C   0  0  0  0  0  0  0  0  0  0  0  0
   39.0110   32.9600   48.1320 N   0  0  0  0  0  0  0  0  0  0  0  0
   38.8090   31.7340   47.5890 C   0  0  0  0  0  0  0  0  0  0  0  0
   37.8730   30.8840   48.1280 N   0  0  0  0  0  0  0  0  0  0  0  0
   36.8160   32.9190   50.6300 H   0  0  0  0  0  0  0  0  0  0  0  0
   38.5580   34.3910   49.5600 H   0  0  0  0  0  0  0  0  0  0  0  0
   36.1350   30.4140   49.7620 C   0  0  0  0  0  0  0  0  0  0  0  0
   36.1400   28.9830   49.5940 C   0  0  0  0  0  0  0  0  0  0  0  0
   36.6510   29.5330   50.9070 C   0  0  0  0  0  0  0  0  0  0  0  0
   35.1810   30.9500   49.9600 H   0  0  0  0  0  0  0  0  0  0  0  0
   36.9600   28.5070   48.9850 H   0  0  0  0  0  0  0  0  0  0  0  0
   35.2000   28.4210   49.5580 H   0  0  0  0  0  0  0  0  0  0  0  0
   36.0200   29.5830   51.7990 H   0  0  0  0  0  0  0  0  0  0  0  0
   37.7380   29.5340   51.1110 H   0  0  0  0  0  0  0  0  0  0  0  0
   39.5360   31.2730   46.4160 C   0  0  0  0  0  0  0  0  0  0  0  0
   40.6000   31.6320   46.3810 H   0  0  0  0  0  0  0  0  0  0  0  0
   39.5430   30.1760   46.3770 H   0  0  0  0  0  0  0  0  0  0  0  0
   38.8730   31.8660   45.2610 N   0  0  0  0  0  0  0  0  0  0  0  0
   39.6740   32.8350   44.5900 C   0  0  0  0  0  3  0  0  0  0  0  0
   39.4740   33.8240   45.0630 H   0  0  0  0  0  0  0  0  0  0  0  0
   39.3640   32.9890   43.1300 C   0  0  0  0  0  3  0  0  0  0  0  0
   40.2330   33.4750   42.6410 H   0  0  0  0  0  0  0  0  0  0  0  0
   39.1360   31.7830   42.4720 O   0  0  0  0  0  0  0  0  0  0  0  0
   37.9890   31.2320   43.0570 C   0  0  0  0  0  2  0  0  0  0  0  0
   38.3770   30.8000   44.4500 C   0  0  0  0  0  2  0  0  0  0  0  0
  1  9  1  0  0  0  0
  1  2  1  0  0  0  0
  2  7  1  0  0  0  0
  3  8  1  0  0  0  0
  3  2  2  0  0  0  0
  4  3  1  0  0  0  0
  5  6  1  0  0  0  0
  5  4  2  0  0  0  0
  6  1  2  0  0  0  0
  9 12  1  0  0  0  0
  9 11  1  0  0  0  0
 10  9  1  0  0  0  0
 10 11  1  0  0  0  0
 11 16  1  0  0  0  0
 11 15  1  0  0  0  0
 13 10  1  0  0  0  0
 14 10  1  0  0  0  0
 17  5  1  0  0  0  0
 18 17  1  0  0  0  0
 19 17  1  0  0  0  0
 20 17  1  0  0  0  0
 21 22  1  0  0  0  0
 21 20  1  0  0  0  0
 23 21  1  0  0  0  0
 24 23  1  0  0  0  0
 25 26  1  0  0  0  0
 25 23  1  0  0  0  0
 26 27  1  0  0  0  0
 27 20  1  0  0  0  0
M  END
>  <minimizedAffinity>
-5.16753197

>  <minimizedRMSD>
1.05717123

$$$$
