
 OpenBabel03272501123D

 27 29  0  0  1  0  0  0  0  0999 V2000
   35.9620   30.6010   49.8110 C   0  0  1  0  0  0  0  0  0  0  0  0
   35.4610   29.3130   49.3890 C   0  0  1  0  0  0  0  0  0  0  0  0
   36.4350   29.3460   50.5440 C   0  0  0  0  0  0  0  0  0  0  0  0
   35.3930   31.3170   50.4380 H   0  0  0  0  0  0  0  0  0  0  0  0
   35.8750   28.9030   48.4380 H   0  0  0  0  0  0  0  0  0  0  0  0
   37.4700   29.0020   50.3980 H   0  0  0  0  0  0  0  0  0  0  0  0
   36.0130   29.2060   51.5550 H   0  0  0  0  0  0  0  0  0  0  0  0
   37.0840   31.2930   49.0720 C   0  0  0  0  0  0  0  0  0  0  0  0
   37.4990   32.5180   49.5970 C   0  0  0  0  0  0  0  0  0  0  0  0
   38.5180   33.1480   48.8800 C   0  0  0  0  0  0  0  0  0  0  0  0
   39.0410   32.5690   47.7450 N   0  0  0  0  0  0  0  0  0  0  0  0
   38.5920   31.3730   47.2840 C   0  0  0  0  0  0  0  0  0  0  0  0
   37.5920   30.7260   47.9660 N   0  0  0  0  0  0  0  0  0  0  0  0
   37.0740   32.9420   50.4780 H   0  0  0  0  0  0  0  0  0  0  0  0
   38.8910   34.1030   49.2290 H   0  0  0  0  0  0  0  0  0  0  0  0
   39.0330   30.9570   46.3900 H   0  0  0  0  0  0  0  0  0  0  0  0
   34.0050   29.0170   49.6140 C   0  0  0  0  0  0  0  0  0  0  0  0
   33.8090   28.8410   50.7050 H   0  0  0  0  0  0  0  0  0  0  0  0
   33.4240   29.8950   49.2730 H   0  0  0  0  0  0  0  0  0  0  0  0
   33.5410   27.8440   48.9310 N   0  0  0  0  0  0  0  0  0  0  0  0
   34.2160   27.5970   47.6710 C   0  0  0  0  0  0  0  0  0  0  0  0
   35.1740   27.0860   47.9110 H   0  0  0  0  0  0  0  0  0  0  0  0
   33.3570   26.5800   46.9090 C   0  0  0  0  0  0  0  0  0  0  0  0
   33.0240   25.7720   47.5790 H   0  0  0  0  0  0  0  0  0  0  0  0
   32.2440   27.2450   46.4250 O   0  0  0  0  0  0  0  0  0  0  0  0
   31.8550   28.2680   47.3040 C   0  0  0  0  0  0  0  0  0  0  0  0
   32.1350   27.7950   48.7160 C   0  0  0  0  0  0  0  0  0  0  0  0
  1  4  1  1  0  0  0
  1  3  1  0  0  0  0
  2  5  1  6  0  0  0
  2 17  1  0  0  0  0
  2  1  1  0  0  0  0
  2  3  1  0  0  0  0
  3  7  1  0  0  0  0
  6  3  1  0  0  0  0
  8  9  1  0  0  0  0
  8  1  1  0  0  0  0
  9 14  1  0  0  0  0
 10 15  1  0  0  0  0
 10  9  2  0  0  0  0
 11 10  1  0  0  0  0
 12 11  2  0  0  0  0
 12 13  1  0  0  0  0
 13  8  2  0  0  0  0
 16 12  1  0  0  0  0
 17 18  1  0  0  0  0
 19 17  1  0  0  0  0
 20 17  1  0  0  0  0
 21 22  1  0  0  0  0
 21 20  1  0  0  0  0
 23 24  1  0  0  0  0
 23 21  1  0  0  0  0
 25 23  1  0  0  0  0
 25 26  1  0  0  0  0
 26 27  1  0  0  0  0
 27 20  1  0  0  0  0
M  END
>  <minimizedAffinity>
-4.75459909

>  <minimizedRMSD>
1.4430908

$$$$
