
 OpenBabel03272510293D

 27 29  0  0  0  0  0  0  0  0999 V2000
   37.1550   31.3090   49.2290 C   0  0  0  0  0  0  0  0  0  0  0  0
   37.3390   32.5550   49.8450 C   0  0  0  0  0  0  0  0  0  0  0  0
   38.2960   33.3880   49.2830 C   0  0  0  0  0  0  0  0  0  0  0  0
   38.9870   32.9620   48.1910 N   0  0  0  0  0  0  0  0  0  0  0  0
   38.7740   31.7470   47.6280 C   0  0  0  0  0  0  0  0  0  0  0  0
   37.8350   30.8950   48.1570 N   0  0  0  0  0  0  0  0  0  0  0  0
   36.8030   32.8930   50.6980 H   0  0  0  0  0  0  0  0  0  0  0  0
   38.5500   34.3720   49.6450 H   0  0  0  0  0  0  0  0  0  0  0  0
   36.1020   30.4070   49.7900 C   0  0  0  0  0  0  0  0  0  0  0  0
   36.0980   28.9790   49.6010 C   0  0  0  0  0  0  0  0  0  0  0  0
   36.6170   29.5060   50.9210 C   0  0  0  0  0  0  0  0  0  0  0  0
   35.1520   30.9450   50.0000 H   0  0  0  0  0  0  0  0  0  0  0  0
   36.9140   28.5080   48.9810 H   0  0  0  0  0  0  0  0  0  0  0  0
   35.1560   28.4230   49.5590 H   0  0  0  0  0  0  0  0  0  0  0  0
   35.9890   29.5460   51.8150 H   0  0  0  0  0  0  0  0  0  0  0  0
   37.7050   29.4980   51.1210 H   0  0  0  0  0  0  0  0  0  0  0  0
   39.4930   31.3020   46.4430 C   0  0  0  0  0  0  0  0  0  0  0  0
   40.2490   32.0470   46.0740 H   0  0  0  0  0  0  0  0  0  0  0  0
   40.0130   30.3570   46.6450 H   0  0  0  0  0  0  0  0  0  0  0  0
   38.5010   31.1740   45.3830 N   0  0  0  0  0  0  0  0  0  0  0  0
   38.1410   32.4220   44.7980 C   0  0  0  0  0  3  0  0  0  0  0  0
   37.2880   32.8360   45.3840 H   0  0  0  0  0  0  0  0  0  0  0  0
   37.6760   32.3250   43.3740 C   0  0  0  0  0  3  0  0  0  0  0  0
   37.7590   33.3320   42.9130 H   0  0  0  0  0  0  0  0  0  0  0  0
   38.4230   31.4460   42.5950 O   0  0  0  0  0  0  0  0  0  0  0  0
   38.2340   30.1760   43.1540 C   0  0  0  0  0  2  0  0  0  0  0  0
   38.9600   30.1710   44.4760 C   0  0  0  0  0  2  0  0  0  0  0  0
  1  9  1  0  0  0  0
  1  2  1  0  0  0  0
  2  7  1  0  0  0  0
  3  8  1  0  0  0  0
  3  2  2  0  0  0  0
  4  3  1  0  0  0  0
  5  6  1  0  0  0  0
  5  4  2  0  0  0  0
  6  1  2  0  0  0  0
  9 12  1  0  0  0  0
  9 11  1  0  0  0  0
 10  9  1  0  0  0  0
 10 11  1  0  0  0  0
 11 16  1  0  0  0  0
 11 15  1  0  0  0  0
 13 10  1  0  0  0  0
 14 10  1  0  0  0  0
 17 19  1  0  0  0  0
 17  5  1  0  0  0  0
 18 17  1  0  0  0  0
 20 17  1  0  0  0  0
 21 20  1  0  0  0  0
 21 22  1  0  0  0  0
 23 21  1  0  0  0  0
 24 23  1  0  0  0  0
 25 26  1  0  0  0  0
 25 23  1  0  0  0  0
 26 27  1  0  0  0  0
 27 20  1  0  0  0  0
M  END
>  <minimizedAffinity>
-5.15941143

>  <minimizedRMSD>
0.64513272

$$$$
