
 OpenBabel03272510293D

 27 29  0  0  0  0  0  0  0  0999 V2000
   37.2810   31.3660   49.3190 C   0  0  0  0  0  0  0  0  0  0  0  0
   37.4970   32.6440   49.8540 C   0  0  0  0  0  0  0  0  0  0  0  0
   38.3850   33.4610   49.1670 C   0  0  0  0  0  0  0  0  0  0  0  0
   38.9840   32.9900   48.0400 N   0  0  0  0  0  0  0  0  0  0  0  0
   38.7440   31.7450   47.5590 C   0  0  0  0  0  0  0  0  0  0  0  0
   37.8710   30.9070   48.2120 N   0  0  0  0  0  0  0  0  0  0  0  0
   37.0330   33.0190   50.7330 H   0  0  0  0  0  0  0  0  0  0  0  0
   38.6520   34.4660   49.4550 H   0  0  0  0  0  0  0  0  0  0  0  0
   36.3000   30.4800   50.0160 C   0  0  0  0  0  0  0  0  0  0  0  0
   36.2980   29.0450   49.8910 C   0  0  0  0  0  0  0  0  0  0  0  0
   36.9310   29.6360   51.1310 C   0  0  0  0  0  0  0  0  0  0  0  0
   35.3650   31.0180   50.2910 H   0  0  0  0  0  0  0  0  0  0  0  0
   37.0580   28.5550   49.2180 H   0  0  0  0  0  0  0  0  0  0  0  0
   35.3640   28.4780   49.9630 H   0  0  0  0  0  0  0  0  0  0  0  0
   36.3900   29.7100   52.0790 H   0  0  0  0  0  0  0  0  0  0  0  0
   38.0330   29.6490   51.2280 H   0  0  0  0  0  0  0  0  0  0  0  0
   39.3630   31.2490   46.3380 C   0  0  0  0  0  0  0  0  0  0  0  0
   40.4850   31.2370   46.3810 H   0  0  0  0  0  0  0  0  0  0  0  0
   39.0150   30.2310   46.1200 H   0  0  0  0  0  0  0  0  0  0  0  0
   39.0100   32.1940   45.2860 N   0  0  0  0  0  0  0  0  0  0  0  0
   40.0370   32.3540   44.3100 C   0  0  0  0  0  3  0  0  0  0  0  0
   40.7070   33.1750   44.6560 H   0  0  0  0  0  0  0  0  0  0  0  0
   39.5400   32.7540   42.9510 C   0  0  0  0  0  3  0  0  0  0  0  0
   40.3300   32.5140   42.2100 H   0  0  0  0  0  0  0  0  0  0  0  0
   38.3810   32.0900   42.5560 O   0  0  0  0  0  0  0  0  0  0  0  0
   37.3850   32.4740   43.4630 C   0  0  0  0  0  2  0  0  0  0  0  0
   37.7260   31.8260   44.7820 C   0  0  0  0  0  2  0  0  0  0  0  0
  1  2  1  0  0  0  0
  1  9  1  0  0  0  0
  2  7  1  0  0  0  0
  3  8  1  0  0  0  0
  3  2  2  0  0  0  0
  4  3  1  0  0  0  0
  5  4  2  0  0  0  0
  5  6  1  0  0  0  0
  6  1  2  0  0  0  0
  9 12  1  0  0  0  0
  9 11  1  0  0  0  0
 10 14  1  0  0  0  0
 10  9  1  0  0  0  0
 10 11  1  0  0  0  0
 11 16  1  0  0  0  0
 11 15  1  0  0  0  0
 13 10  1  0  0  0  0
 17 18  1  0  0  0  0
 17  5  1  0  0  0  0
 19 17  1  0  0  0  0
 20 17  1  0  0  0  0
 21 22  1  0  0  0  0
 21 20  1  0  0  0  0
 23 21  1  0  0  0  0
 24 23  1  0  0  0  0
 25 23  1  0  0  0  0
 25 26  1  0  0  0  0
 26 27  1  0  0  0  0
 27 20  1  0  0  0  0
M  END
>  <minimizedAffinity>
-5.26397085

>  <minimizedRMSD>
1.63700676

$$$$
