
 OpenBabel03272509233D

 45 49  0  0  0  0  0  0  0  0999 V2000
   35.9100   29.0410   33.5270 C   0  0  0  0  0  0  0  0  0  0  0  0
   35.3830   30.3150   33.6390 C   0  0  0  0  0  0  0  0  0  0  0  0
   35.4470   31.0570   32.4570 C   0  0  0  0  0  0  0  0  0  0  0  0
   36.0020   30.5350   31.2720 C   0  0  0  0  0  0  0  0  0  0  0  0
   36.5110   29.2190   31.2770 C   0  0  0  0  0  0  0  0  0  0  0  0
   36.4570   28.4720   32.4330 C   0  0  0  0  0  0  0  0  0  0  0  0
   35.0620   32.0780   32.4200 H   0  0  0  0  0  0  0  0  0  0  0  0
   36.0320   31.1450   30.3780 H   0  0  0  0  0  0  0  0  0  0  0  0
   36.9250   28.8590   30.3540 H   0  0  0  0  0  0  0  0  0  0  0  0
   35.6090   31.5950   35.7050 C   0  0  0  0  0  0  0  0  0  0  0  0
   34.8190   30.8490   34.8370 C   0  0  0  0  0  0  0  0  0  0  0  0
   33.4670   30.6470   35.1750 C   0  0  0  0  0  0  0  0  0  0  0  0
   33.0120   31.1920   36.3350 N   0  0  0  0  0  0  0  0  0  0  0  0
   33.8220   31.9100   37.1500 C   0  0  0  0  0  0  0  0  0  0  0  0
   35.1080   32.1100   36.8380 N   0  0  0  0  0  0  0  0  0  0  0  0
   36.6410   31.7390   35.4290 H   0  0  0  0  0  0  0  0  0  0  0  0
   33.4160   32.3310   38.0730 H   0  0  0  0  0  0  0  0  0  0  0  0
   32.5830   29.8610   34.2860 C   0  0  0  0  0  0  0  0  0  0  0  0
   31.7630   29.4300   34.9170 H   0  0  0  0  0  0  0  0  0  0  0  0
   32.1970   30.4730   33.4450 H   0  0  0  0  0  0  0  0  0  0  0  0
   33.1650   28.9740   33.9380 H   0  0  0  0  0  0  0  0  0  0  0  0
   35.8940   28.2070   34.6660 O   0  0  0  0  0  0  0  0  0  0  0  0
   36.7840   28.1120   35.1410 H   0  0  0  0  0  0  0  0  0  0  0  0
   36.9710   27.2010   32.3600 O   0  0  0  0  0  0  0  0  0  0  0  0
   37.9850   25.6870   34.0730 C   0  0  0  0  0  0  0  0  0  0  0  0
   37.9940   26.6690   33.1070 C   0  0  0  0  0  0  0  0  0  0  0  0
   39.2070   27.2710   32.7780 C   0  0  0  0  0  0  0  0  0  0  0  0
   40.3970   26.8840   33.4180 C   0  0  0  0  0  0  0  0  0  0  0  0
   41.6880   27.2620   33.3260 N   0  0  0  0  0  0  0  0  0  0  0  0
   42.4460   26.5590   34.1830 C   0  0  0  0  0  0  0  0  0  0  0  0
   41.5940   25.7110   34.8330 N   0  0  0  0  0  0  0  0  0  0  0  0
   40.3390   25.9000   34.3740 C   0  0  0  0  0  0  0  0  0  0  0  0
   39.1410   25.3030   34.7020 C   0  0  0  0  0  0  0  0  0  0  0  0
   36.9960   25.2910   34.2480 H   0  0  0  0  0  0  0  0  0  0  0  0
   39.3740   28.0510   32.0460 H   0  0  0  0  0  0  0  0  0  0  0  0
   42.0580   28.0000   32.6800 H   0  0  0  0  0  0  0  0  0  0  0  0
   43.5110   26.6340   34.3420 H   0  0  0  0  0  0  0  0  0  0  0  0
   39.0510   24.2810   35.6890 N   0  0  0  0  0  0  0  0  0  0  0  0
   39.5750   22.9340   35.5920 C   0  0  0  0  0  3  0  0  0  0  0  0
   40.1450   22.6970   36.5220 H   0  0  0  0  0  0  0  0  0  0  0  0
   38.3770   22.0140   35.5570 C   0  0  0  0  0  3  0  0  0  0  0  0
   38.0260   21.8350   34.5070 H   0  0  0  0  0  0  0  0  0  0  0  0
   37.3200   22.6090   36.2250 O   0  0  0  0  0  0  0  0  0  0  0  0
   37.7170   23.2710   37.3790 C   0  0  0  0  0  2  0  0  0  0  0  0
   38.3640   24.5760   36.9580 C   0  0  0  0  0  2  0  0  0  0  0  0
  1  2  1  0  0  0  0
  1 22  1  0  0  0  0
  2 11  1  0  0  0  0
  3  2  2  0  0  0  0
  4  5  2  0  0  0  0
  4  3  1  0  0  0  0
  5  6  1  0  0  0  0
  6  1  2  0  0  0  0
  7  3  1  0  0  0  0
  8  4  1  0  0  0  0
  9  5  1  0  0  0  0
 10 15  1  0  0  0  0
 11 12  1  0  0  0  0
 11 10  2  0  0  0  0
 12 13  2  0  0  0  0
 13 14  1  0  0  0  0
 14 17  1  0  0  0  0
 15 14  2  0  0  0  0
 16 10  1  0  0  0  0
 18 19  1  0  0  0  0
 18 12  1  0  0  0  0
 20 18  1  0  0  0  0
 21 18  1  0  0  0  0
 22 23  1  0  0  0  0
 24  6  1  0  0  0  0
 24 26  1  0  0  0  0
 25 34  1  0  0  0  0
 25 33  1  0  0  0  0
 26 25  2  0  0  0  0
 27 26  1  0  0  0  0
 27 28  2  0  0  0  0
 28 32  1  0  0  0  0
 29 28  1  0  0  0  0
 29 30  1  0  0  0  0
 30 37  1  0  0  0  0
 30 31  2  0  0  0  0
 32 33  2  0  0  0  0
 32 31  1  0  0  0  0
 33 38  1  0  0  0  0
 35 27  1  0  0  0  0
 36 29  1  0  0  0  0
 38 45  1  0  0  0  0
 39 38  1  0  0  0  0
 39 40  1  0  0  0  0
 41 39  1  0  0  0  0
 41 43  1  0  0  0  0
 42 41  1  0  0  0  0
 43 44  1  0  0  0  0
 45 44  1  0  0  0  0
M  END
>  <minimizedAffinity>
-6.44406223

$$$$

 OpenBabel03272509233D

 45 49  0  0  0  0  0  0  0  0999 V2000
   36.1230   28.6510   33.5510 C   0  0  0  0  0  0  0  0  0  0  0  0
   35.1330   29.6160   33.4900 C   0  0  0  0  0  0  0  0  0  0  0  0
   34.9780   30.1840   32.2230 C   0  0  0  0  0  0  0  0  0  0  0  0
   35.7680   29.7940   31.1230 C   0  0  0  0  0  0  0  0  0  0  0  0
   36.7490   28.7960   31.3060 C   0  0  0  0  0  0  0  0  0  0  0  0
   36.9170   28.2250   32.5480 C   0  0  0  0  0  0  0  0  0  0  0  0
   34.2290   30.9580   32.0480 H   0  0  0  0  0  0  0  0  0  0  0  0
   35.6150   30.2600   30.1580 H   0  0  0  0  0  0  0  0  0  0  0  0
   37.3300   28.5270   30.4440 H   0  0  0  0  0  0  0  0  0  0  0  0
   33.1060   29.3980   34.8310 C   0  0  0  0  0  0  0  0  0  0  0  0
   34.3300   30.0160   34.6000 C   0  0  0  0  0  0  0  0  0  0  0  0
   34.7400   31.0310   35.4850 C   0  0  0  0  0  0  0  0  0  0  0  0
   33.9130   31.3490   36.5170 N   0  0  0  0  0  0  0  0  0  0  0  0
   32.7290   30.7180   36.7000 C   0  0  0  0  0  0  0  0  0  0  0  0
   32.3290   29.7520   35.8660 N   0  0  0  0  0  0  0  0  0  0  0  0
   32.8090   28.6230   34.1420 H   0  0  0  0  0  0  0  0  0  0  0  0
   32.0940   31.0040   37.5420 H   0  0  0  0  0  0  0  0  0  0  0  0
   36.0330   31.7210   35.2850 C   0  0  0  0  0  0  0  0  0  0  0  0
   35.9510   32.7380   35.7480 H   0  0  0  0  0  0  0  0  0  0  0  0
   36.8810   31.1340   35.6930 H   0  0  0  0  0  0  0  0  0  0  0  0
   36.1380   31.9200   34.1900 H   0  0  0  0  0  0  0  0  0  0  0  0
   36.3610   28.0140   34.7890 O   0  0  0  0  0  0  0  0  0  0  0  0
   37.1840   28.3340   35.2850 H   0  0  0  0  0  0  0  0  0  0  0  0
   37.8910   27.2630   32.6480 O   0  0  0  0  0  0  0  0  0  0  0  0
   38.2410   25.0470   33.7540 C   0  0  0  0  0  0  0  0  0  0  0  0
   37.7150   25.9110   32.8190 C   0  0  0  0  0  0  0  0  0  0  0  0
   36.8530   25.4010   31.8500 C   0  0  0  0  0  0  0  0  0  0  0  0
   36.5250   24.0350   31.8280 C   0  0  0  0  0  0  0  0  0  0  0  0
   35.7460   23.2600   31.0470 N   0  0  0  0  0  0  0  0  0  0  0  0
   35.7790   21.9850   31.4660 C   0  0  0  0  0  0  0  0  0  0  0  0
   36.6110   21.9660   32.5510 N   0  0  0  0  0  0  0  0  0  0  0  0
   37.0730   23.2120   32.7820 C   0  0  0  0  0  0  0  0  0  0  0  0
   37.9260   23.7120   33.7410 C   0  0  0  0  0  0  0  0  0  0  0  0
   38.8940   25.5460   34.4540 H   0  0  0  0  0  0  0  0  0  0  0  0
   36.3640   25.9500   31.0540 H   0  0  0  0  0  0  0  0  0  0  0  0
   35.1890   23.5960   30.2250 H   0  0  0  0  0  0  0  0  0  0  0  0
   35.2630   21.1350   31.0470 H   0  0  0  0  0  0  0  0  0  0  0  0
   38.5080   22.8830   34.7410 N   0  0  0  0  0  0  0  0  0  0  0  0
   37.9560   22.5810   36.0450 C   0  0  0  0  0  3  0  0  0  0  0  0
   38.0020   21.4780   36.2130 H   0  0  0  0  0  0  0  0  0  0  0  0
   38.8750   23.2250   37.0560 C   0  0  0  0  0  3  0  0  0  0  0  0
   38.5600   24.2760   37.2890 H   0  0  0  0  0  0  0  0  0  0  0  0
   40.1530   23.3090   36.5290 O   0  0  0  0  0  0  0  0  0  0  0  0
   40.5130   22.1770   35.8090 C   0  0  0  0  0  2  0  0  0  0  0  0
   39.8070   22.2440   34.4680 C   0  0  0  0  0  2  0  0  0  0  0  0
  1 22  1  0  0  0  0
  2  1  1  0  0  0  0
  2 11  1  0  0  0  0
  3  2  2  0  0  0  0
  4  5  2  0  0  0  0
  4  3  1  0  0  0  0
  5  6  1  0  0  0  0
  6 24  1  0  0  0  0
  6  1  2  0  0  0  0
  7  3  1  0  0  0  0
  8  4  1  0  0  0  0
  9  5  1  0  0  0  0
 10 15  1  0  0  0  0
 11 10  2  0  0  0  0
 11 12  1  0  0  0  0
 12 13  2  0  0  0  0
 13 14  1  0  0  0  0
 14 17  1  0  0  0  0
 15 14  2  0  0  0  0
 16 10  1  0  0  0  0
 18 12  1  0  0  0  0
 18 20  1  0  0  0  0
 18 19  1  0  0  0  0
 21 18  1  0  0  0  0
 22 23  1  0  0  0  0
 24 26  1  0  0  0  0
 25 34  1  0  0  0  0
 26 25  2  0  0  0  0
 27 26  1  0  0  0  0
 28 27  2  0  0  0  0
 28 32  1  0  0  0  0
 29 30  1  0  0  0  0
 29 28  1  0  0  0  0
 30 31  2  0  0  0  0
 31 32  1  0  0  0  0
 32 33  2  0  0  0  0
 33 25  1  0  0  0  0
 33 38  1  0  0  0  0
 35 27  1  0  0  0  0
 36 29  1  0  0  0  0
 37 30  1  0  0  0  0
 38 39  1  0  0  0  0
 39 40  1  0  0  0  0
 39 41  1  0  0  0  0
 41 42  1  0  0  0  0
 43 41  1  0  0  0  0
 44 43  1  0  0  0  0
 45 38  1  0  0  0  0
 45 44  1  0  0  0  0
M  END
>  <minimizedAffinity>
-6.38309956

$$$$

 OpenBabel03272509233D

 45 49  0  0  0  0  0  0  0  0999 V2000
   35.1600   30.1660   32.9590 C   0  0  0  0  0  0  0  0  0  0  0  0
   35.3440   31.4320   33.4860 C   0  0  0  0  0  0  0  0  0  0  0  0
   36.1410   32.2620   32.6930 C   0  0  0  0  0  0  0  0  0  0  0  0
   36.6960   31.8270   31.4740 C   0  0  0  0  0  0  0  0  0  0  0  0
   36.4400   30.5100   31.0370 C   0  0  0  0  0  0  0  0  0  0  0  0
   35.6570   29.6770   31.8050 C   0  0  0  0  0  0  0  0  0  0  0  0
   36.3580   33.2850   33.0030 H   0  0  0  0  0  0  0  0  0  0  0  0
   37.3090   32.5030   30.8910 H   0  0  0  0  0  0  0  0  0  0  0  0
   36.8820   30.2170   30.1030 H   0  0  0  0  0  0  0  0  0  0  0  0
   35.5020   31.7370   35.9020 C   0  0  0  0  0  0  0  0  0  0  0  0
   34.7830   31.8790   34.7200 C   0  0  0  0  0  0  0  0  0  0  0  0
   33.5070   32.4700   34.7850 C   0  0  0  0  0  0  0  0  0  0  0  0
   33.0500   32.8670   36.0030 N   0  0  0  0  0  0  0  0  0  0  0  0
   33.7880   32.7060   37.1270 C   0  0  0  0  0  0  0  0  0  0  0  0
   35.0020   32.1460   37.0780 N   0  0  0  0  0  0  0  0  0  0  0  0
   36.4780   31.2820   35.8320 H   0  0  0  0  0  0  0  0  0  0  0  0
   33.3830   33.0390   38.0860 H   0  0  0  0  0  0  0  0  0  0  0  0
   32.7000   32.6440   33.5580 C   0  0  0  0  0  0  0  0  0  0  0  0
   31.6210   32.6650   33.8600 H   0  0  0  0  0  0  0  0  0  0  0  0
   33.0020   33.5500   32.9920 H   0  0  0  0  0  0  0  0  0  0  0  0
   32.8040   31.7090   32.9550 H   0  0  0  0  0  0  0  0  0  0  0  0
   34.3690   29.2480   33.6840 O   0  0  0  0  0  0  0  0  0  0  0  0
   34.8880   28.5390   34.1890 H   0  0  0  0  0  0  0  0  0  0  0  0
   35.4530   28.4110   31.3140 O   0  0  0  0  0  0  0  0  0  0  0  0
   36.9300   27.0060   32.7630 C   0  0  0  0  0  0  0  0  0  0  0  0
   35.9990   27.2380   31.7750 C   0  0  0  0  0  0  0  0  0  0  0  0
   35.4770   26.1480   31.0810 C   0  0  0  0  0  0  0  0  0  0  0  0
   35.8910   24.8400   31.3830 C   0  0  0  0  0  0  0  0  0  0  0  0
   35.5850   23.6150   30.9080 N   0  0  0  0  0  0  0  0  0  0  0  0
   36.2810   22.6700   31.5600 C   0  0  0  0  0  0  0  0  0  0  0  0
   37.0510   23.3320   32.4750 N   0  0  0  0  0  0  0  0  0  0  0  0
   36.8220   24.6580   32.3760 C   0  0  0  0  0  0  0  0  0  0  0  0
   37.3400   25.7330   33.0650 C   0  0  0  0  0  0  0  0  0  0  0  0
   37.2660   27.9180   33.2340 H   0  0  0  0  0  0  0  0  0  0  0  0
   34.7440   26.1690   30.2840 H   0  0  0  0  0  0  0  0  0  0  0  0
   34.9000   23.4180   30.1390 H   0  0  0  0  0  0  0  0  0  0  0  0
   36.2530   21.6020   31.4060 H   0  0  0  0  0  0  0  0  0  0  0  0
   38.3050   25.5740   34.0990 N   0  0  0  0  0  0  0  0  0  0  0  0
   38.0440   25.4790   35.5200 C   0  0  0  0  0  3  0  0  0  0  0  0
   38.6050   24.6080   35.9360 H   0  0  0  0  0  0  0  0  0  0  0  0
   38.6290   26.7240   36.1440 C   0  0  0  0  0  3  0  0  0  0  0  0
   37.8820   27.5600   36.1750 H   0  0  0  0  0  0  0  0  0  0  0  0
   39.6860   27.1750   35.3700 O   0  0  0  0  0  0  0  0  0  0  0  0
   40.4770   26.1410   34.8860 C   0  0  0  0  0  2  0  0  0  0  0  0
   39.7310   25.4940   33.7360 C   0  0  0  0  0  2  0  0  0  0  0  0
  1  2  1  0  0  0  0
  1 22  1  0  0  0  0
  2 11  1  0  0  0  0
  3  7  1  0  0  0  0
  3  2  2  0  0  0  0
  4  3  1  0  0  0  0
  5  4  2  0  0  0  0
  5  6  1  0  0  0  0
  6  1  2  0  0  0  0
  8  4  1  0  0  0  0
  9  5  1  0  0  0  0
 10 15  1  0  0  0  0
 11 12  1  0  0  0  0
 11 10  2  0  0  0  0
 12 13  2  0  0  0  0
 13 14  1  0  0  0  0
 14 17  1  0  0  0  0
 15 14  2  0  0  0  0
 16 10  1  0  0  0  0
 18 19  1  0  0  0  0
 18 12  1  0  0  0  0
 20 18  1  0  0  0  0
 21 18  1  0  0  0  0
 22 23  1  0  0  0  0
 24 26  1  0  0  0  0
 24  6  1  0  0  0  0
 25 33  1  0  0  0  0
 25 34  1  0  0  0  0
 26 25  2  0  0  0  0
 27 28  2  0  0  0  0
 27 26  1  0  0  0  0
 28 32  1  0  0  0  0
 29 28  1  0  0  0  0
 29 30  1  0  0  0  0
 30 31  2  0  0  0  0
 32 31  1  0  0  0  0
 32 33  2  0  0  0  0
 33 38  1  0  0  0  0
 35 27  1  0  0  0  0
 36 29  1  0  0  0  0
 37 30  1  0  0  0  0
 38 39  1  0  0  0  0
 39 40  1  0  0  0  0
 39 41  1  0  0  0  0
 41 42  1  0  0  0  0
 43 41  1  0  0  0  0
 44 43  1  0  0  0  0
 45 38  1  0  0  0  0
 45 44  1  0  0  0  0
M  END
>  <minimizedAffinity>
-6.25380707

$$$$

 OpenBabel03272509233D

 45 49  0  0  0  0  0  0  0  0999 V2000
   37.6850   25.5430   31.8870 C   0  0  0  0  0  0  0  0  0  0  0  0
   36.6210   26.2810   31.4020 C   0  0  0  0  0  0  0  0  0  0  0  0
   35.4690   25.5250   31.1710 C   0  0  0  0  0  0  0  0  0  0  0  0
   35.4200   24.1380   31.4180 C   0  0  0  0  0  0  0  0  0  0  0  0
   36.5720   23.4910   31.9140 C   0  0  0  0  0  0  0  0  0  0  0  0
   37.7170   24.2200   32.1470 C   0  0  0  0  0  0  0  0  0  0  0  0
   34.5630   25.9950   30.7880 H   0  0  0  0  0  0  0  0  0  0  0  0
   34.5070   23.5900   31.2250 H   0  0  0  0  0  0  0  0  0  0  0  0
   36.4930   22.4340   32.0880 H   0  0  0  0  0  0  0  0  0  0  0  0
   36.9570   28.1550   29.8740 C   0  0  0  0  0  0  0  0  0  0  0  0
   36.6640   27.6860   31.1500 C   0  0  0  0  0  0  0  0  0  0  0  0
   36.4150   28.6290   32.1650 C   0  0  0  0  0  0  0  0  0  0  0  0
   36.4770   29.9480   31.8380 N   0  0  0  0  0  0  0  0  0  0  0  0
   36.7670   30.3570   30.5800 C   0  0  0  0  0  0  0  0  0  0  0  0
   37.0050   29.4690   29.6070 N   0  0  0  0  0  0  0  0  0  0  0  0
   37.1440   27.4170   29.1100 H   0  0  0  0  0  0  0  0  0  0  0  0
   36.8070   31.4260   30.3600 H   0  0  0  0  0  0  0  0  0  0  0  0
   36.0990   28.1840   33.5400 C   0  0  0  0  0  0  0  0  0  0  0  0
   36.4040   29.0030   34.2420 H   0  0  0  0  0  0  0  0  0  0  0  0
   35.0300   27.9060   33.6470 H   0  0  0  0  0  0  0  0  0  0  0  0
   36.7870   27.3370   33.7810 H   0  0  0  0  0  0  0  0  0  0  0  0
   38.8990   26.2140   32.1540 O   0  0  0  0  0  0  0  0  0  0  0  0
   39.6250   26.0800   31.4600 H   0  0  0  0  0  0  0  0  0  0  0  0
   38.7950   23.5210   32.6290 O   0  0  0  0  0  0  0  0  0  0  0  0
   40.3690   22.9780   34.4960 C   0  0  0  0  0  0  0  0  0  0  0  0
   39.1670   23.3590   33.9420 C   0  0  0  0  0  0  0  0  0  0  0  0
   38.1010   23.6430   34.7930 C   0  0  0  0  0  0  0  0  0  0  0  0
   38.2490   23.5450   36.1870 C   0  0  0  0  0  0  0  0  0  0  0  0
   37.4350   23.7470   37.2430 N   0  0  0  0  0  0  0  0  0  0  0  0
   38.0870   23.5080   38.3920 C   0  0  0  0  0  0  0  0  0  0  0  0
   39.3550   23.1430   38.0370 N   0  0  0  0  0  0  0  0  0  0  0  0
   39.4660   23.1620   36.6920 C   0  0  0  0  0  0  0  0  0  0  0  0
   40.5230   22.8790   35.8550 C   0  0  0  0  0  0  0  0  0  0  0  0
   41.1230   22.7820   33.7480 H   0  0  0  0  0  0  0  0  0  0  0  0
   37.1020   23.9530   34.5110 H   0  0  0  0  0  0  0  0  0  0  0  0
   36.4320   24.0480   37.1850 H   0  0  0  0  0  0  0  0  0  0  0  0
   37.7050   23.5820   39.3990 H   0  0  0  0  0  0  0  0  0  0  0  0
   41.7960   22.4800   36.3510 N   0  0  0  0  0  0  0  0  0  0  0  0
   42.9540   23.3270   36.5450 C   0  0  0  0  0  3  0  0  0  0  0  0
   43.3710   23.1450   37.5650 H   0  0  0  0  0  0  0  0  0  0  0  0
   43.9920   22.8620   35.5510 C   0  0  0  0  0  3  0  0  0  0  0  0
   43.8980   23.4030   34.5730 H   0  0  0  0  0  0  0  0  0  0  0  0
   43.7950   21.5190   35.2730 O   0  0  0  0  0  0  0  0  0  0  0  0
   43.4600   20.7810   36.4000 C   0  0  0  0  0  2  0  0  0  0  0  0
   42.0050   21.0690   36.7190 C   0  0  0  0  0  2  0  0  0  0  0  0
  1  6  1  0  0  0  0
  1 22  1  0  0  0  0
  2  1  2  0  0  0  0
  3  2  1  0  0  0  0
  3  4  2  0  0  0  0
  4  5  1  0  0  0  0
  5  9  1  0  0  0  0
  5  6  2  0  0  0  0
  6 24  1  0  0  0  0
  7  3  1  0  0  0  0
  8  4  1  0  0  0  0
 10 11  1  0  0  0  0
 11  2  1  0  0  0  0
 11 12  2  0  0  0  0
 12 18  1  0  0  0  0
 13 12  1  0  0  0  0
 14 13  2  0  0  0  0
 15 10  2  0  0  0  0
 15 14  1  0  0  0  0
 16 10  1  0  0  0  0
 17 14  1  0  0  0  0
 18 20  1  0  0  0  0
 18 21  1  0  0  0  0
 18 19  1  0  0  0  0
 23 22  1  0  0  0  0
 24 26  1  0  0  0  0
 25 33  1  0  0  0  0
 26 25  2  0  0  0  0
 26 27  1  0  0  0  0
 27 28  2  0  0  0  0
 28 32  1  0  0  0  0
 28 29  1  0  0  0  0
 29 30  1  0  0  0  0
 30 37  1  0  0  0  0
 31 30  2  0  0  0  0
 32 31  1  0  0  0  0
 33 38  1  0  0  0  0
 33 32  2  0  0  0  0
 34 25  1  0  0  0  0
 35 27  1  0  0  0  0
 36 29  1  0  0  0  0
 38 39  1  0  0  0  0
 38 45  1  0  0  0  0
 39 40  1  0  0  0  0
 41 39  1  0  0  0  0
 42 41  1  0  0  0  0
 43 41  1  0  0  0  0
 43 44  1  0  0  0  0
 44 45  1  0  0  0  0
M  END
>  <minimizedAffinity>
-6.24474525

$$$$

 OpenBabel03272509233D

 45 49  0  0  0  0  0  0  0  0999 V2000
   37.1280   27.2940   33.9430 C   0  0  0  0  0  0  0  0  0  0  0  0
   37.4440   25.9690   33.7040 C   0  0  0  0  0  0  0  0  0  0  0  0
   36.8820   25.4590   32.5320 C   0  0  0  0  0  0  0  0  0  0  0  0
   36.0710   26.2410   31.6850 C   0  0  0  0  0  0  0  0  0  0  0  0
   35.8170   27.5850   32.0330 C   0  0  0  0  0  0  0  0  0  0  0  0
   36.3630   28.1050   33.1850 C   0  0  0  0  0  0  0  0  0  0  0  0
   37.0580   24.4230   32.2350 H   0  0  0  0  0  0  0  0  0  0  0  0
   35.6550   25.8050   30.7860 H   0  0  0  0  0  0  0  0  0  0  0  0
   35.1950   28.1470   31.3620 H   0  0  0  0  0  0  0  0  0  0  0  0
   37.6930   24.4640   35.6100 C   0  0  0  0  0  0  0  0  0  0  0  0
   38.2640   25.1710   34.5570 C   0  0  0  0  0  0  0  0  0  0  0  0
   39.6560   25.0710   34.3670 C   0  0  0  0  0  0  0  0  0  0  0  0
   40.3620   24.2880   35.2260 N   0  0  0  0  0  0  0  0  0  0  0  0
   39.7600   23.6200   36.2380 C   0  0  0  0  0  0  0  0  0  0  0  0
   38.4380   23.7060   36.4290 N   0  0  0  0  0  0  0  0  0  0  0  0
   36.6260   24.5530   35.7400 H   0  0  0  0  0  0  0  0  0  0  0  0
   40.3640   23.0010   36.9060 H   0  0  0  0  0  0  0  0  0  0  0  0
   40.3140   25.8030   33.2620 C   0  0  0  0  0  0  0  0  0  0  0  0
   41.3810   25.9800   33.5590 H   0  0  0  0  0  0  0  0  0  0  0  0
   40.2250   25.2600   32.2980 H   0  0  0  0  0  0  0  0  0  0  0  0
   39.8610   26.8230   33.2230 H   0  0  0  0  0  0  0  0  0  0  0  0
   37.6480   27.9070   35.1050 O   0  0  0  0  0  0  0  0  0  0  0  0
   36.9860   28.0180   35.8640 H   0  0  0  0  0  0  0  0  0  0  0  0
   36.0710   29.4200   33.4560 O   0  0  0  0  0  0  0  0  0  0  0  0
   33.9090   29.4400   34.7130 C   0  0  0  0  0  0  0  0  0  0  0  0
   35.1570   29.9040   34.3590 C   0  0  0  0  0  0  0  0  0  0  0  0
   35.6390   31.0560   34.9770 C   0  0  0  0  0  0  0  0  0  0  0  0
   34.8720   31.7290   35.9420 C   0  0  0  0  0  0  0  0  0  0  0  0
   35.0520   32.8310   36.6970 N   0  0  0  0  0  0  0  0  0  0  0  0
   33.9830   33.0470   37.4800 C   0  0  0  0  0  0  0  0  0  0  0  0
   33.1020   32.0390   37.2010 N   0  0  0  0  0  0  0  0  0  0  0  0
   33.6340   31.2270   36.2630 C   0  0  0  0  0  0  0  0  0  0  0  0
   33.1520   30.0890   35.6540 C   0  0  0  0  0  0  0  0  0  0  0  0
   33.6350   28.5450   34.1740 H   0  0  0  0  0  0  0  0  0  0  0  0
   36.5930   31.5400   34.8060 H   0  0  0  0  0  0  0  0  0  0  0  0
   35.9040   33.4420   36.6820 H   0  0  0  0  0  0  0  0  0  0  0  0
   33.8300   33.8460   38.1890 H   0  0  0  0  0  0  0  0  0  0  0  0
   31.8740   29.5470   35.9670 N   0  0  0  0  0  0  0  0  0  0  0  0
   31.5230   28.7790   37.1430 C   0  0  0  0  0  3  0  0  0  0  0  0
   30.5860   29.1970   37.5850 H   0  0  0  0  0  0  0  0  0  0  0  0
   31.2040   27.3840   36.6610 C   0  0  0  0  0  3  0  0  0  0  0  0
   32.1180   26.7340   36.6450 H   0  0  0  0  0  0  0  0  0  0  0  0
   30.7450   27.4420   35.3550 O   0  0  0  0  0  0  0  0  0  0  0  0
   29.8990   28.5200   35.1300 C   0  0  0  0  0  2  0  0  0  0  0  0
   30.7600   29.7630   35.0270 C   0  0  0  0  0  2  0  0  0  0  0  0
  1 22  1  0  0  0  0
  2  1  1  0  0  0  0
  2 11  1  0  0  0  0
  3  2  2  0  0  0  0
  4  5  2  0  0  0  0
  4  3  1  0  0  0  0
  5  6  1  0  0  0  0
  6 24  1  0  0  0  0
  6  1  2  0  0  0  0
  7  3  1  0  0  0  0
  8  4  1  0  0  0  0
  9  5  1  0  0  0  0
 10 16  1  0  0  0  0
 10 15  1  0  0  0  0
 11 10  2  0  0  0  0
 12 11  1  0  0  0  0
 12 13  2  0  0  0  0
 13 14  1  0  0  0  0
 14 15  2  0  0  0  0
 14 17  1  0  0  0  0
 18 19  1  0  0  0  0
 18 12  1  0  0  0  0
 20 18  1  0  0  0  0
 21 18  1  0  0  0  0
 22 23  1  0  0  0  0
 24 26  1  0  0  0  0
 25 33  1  0  0  0  0
 26 25  2  0  0  0  0
 26 27  1  0  0  0  0
 27 28  2  0  0  0  0
 28 32  1  0  0  0  0
 28 29  1  0  0  0  0
 29 30  1  0  0  0  0
 30 37  1  0  0  0  0
 31 30  2  0  0  0  0
 32 31  1  0  0  0  0
 33 38  1  0  0  0  0
 33 32  2  0  0  0  0
 34 25  1  0  0  0  0
 35 27  1  0  0  0  0
 36 29  1  0  0  0  0
 38 39  1  0  0  0  0
 39 40  1  0  0  0  0
 41 39  1  0  0  0  0
 42 41  1  0  0  0  0
 43 41  1  0  0  0  0
 44 43  1  0  0  0  0
 45 44  1  0  0  0  0
 45 38  1  0  0  0  0
M  END
>  <minimizedAffinity>
-6.20257378

$$$$

 OpenBabel03272509233D

 45 49  0  0  0  0  0  0  0  0999 V2000
   36.2280   28.5910   33.6580 C   0  0  0  0  0  0  0  0  0  0  0  0
   35.1910   29.4900   33.4830 C   0  0  0  0  0  0  0  0  0  0  0  0
   35.0380   29.9220   32.1640 C   0  0  0  0  0  0  0  0  0  0  0  0
   35.8730   29.4710   31.1230 C   0  0  0  0  0  0  0  0  0  0  0  0
   36.9010   28.5500   31.4230 C   0  0  0  0  0  0  0  0  0  0  0  0
   37.0680   28.1130   32.7180 C   0  0  0  0  0  0  0  0  0  0  0  0
   34.2530   30.6330   31.9000 H   0  0  0  0  0  0  0  0  0  0  0  0
   35.7200   29.8320   30.1150 H   0  0  0  0  0  0  0  0  0  0  0  0
   37.5160   28.2310   30.6030 H   0  0  0  0  0  0  0  0  0  0  0  0
   33.1190   29.3270   34.7640 C   0  0  0  0  0  0  0  0  0  0  0  0
   34.3410   29.9510   34.5330 C   0  0  0  0  0  0  0  0  0  0  0  0
   34.7010   31.0340   35.3580 C   0  0  0  0  0  0  0  0  0  0  0  0
   33.8310   31.4070   36.3350 N   0  0  0  0  0  0  0  0  0  0  0  0
   32.6520   30.7680   36.5200 C   0  0  0  0  0  0  0  0  0  0  0  0
   32.2990   29.7380   35.7420 N   0  0  0  0  0  0  0  0  0  0  0  0
   32.8610   28.4990   34.1220 H   0  0  0  0  0  0  0  0  0  0  0  0
   31.9820   31.1000   37.3160 H   0  0  0  0  0  0  0  0  0  0  0  0
   35.9880   31.7330   35.1550 C   0  0  0  0  0  0  0  0  0  0  0  0
   35.8730   32.7790   35.5420 H   0  0  0  0  0  0  0  0  0  0  0  0
   36.8310   31.1920   35.6340 H   0  0  0  0  0  0  0  0  0  0  0  0
   36.1300   31.8560   34.0540 H   0  0  0  0  0  0  0  0  0  0  0  0
   36.4680   28.0910   34.9570 O   0  0  0  0  0  0  0  0  0  0  0  0
   37.2610   28.5020   35.4350 H   0  0  0  0  0  0  0  0  0  0  0  0
   38.0880   27.2190   32.9310 O   0  0  0  0  0  0  0  0  0  0  0  0
   37.4010   24.8830   32.3590 C   0  0  0  0  0  0  0  0  0  0  0  0
   37.9840   25.8640   33.1310 C   0  0  0  0  0  0  0  0  0  0  0  0
   38.5880   25.4970   34.3310 C   0  0  0  0  0  0  0  0  0  0  0  0
   38.6050   24.1550   34.7460 C   0  0  0  0  0  0  0  0  0  0  0  0
   39.0940   23.5000   35.8180 N   0  0  0  0  0  0  0  0  0  0  0  0
   38.8350   22.1860   35.7260 C   0  0  0  0  0  0  0  0  0  0  0  0
   38.1580   22.0160   34.5510 N   0  0  0  0  0  0  0  0  0  0  0  0
   38.0120   23.2120   33.9430 C   0  0  0  0  0  0  0  0  0  0  0  0
   37.4130   23.5700   32.7550 C   0  0  0  0  0  0  0  0  0  0  0  0
   36.9640   25.2780   31.4540 H   0  0  0  0  0  0  0  0  0  0  0  0
   39.0840   26.1480   35.0410 H   0  0  0  0  0  0  0  0  0  0  0  0
   39.6060   23.9450   36.6180 H   0  0  0  0  0  0  0  0  0  0  0  0
   39.0970   21.4070   36.4260 H   0  0  0  0  0  0  0  0  0  0  0  0
   36.7900   22.6150   31.9030 N   0  0  0  0  0  0  0  0  0  0  0  0
   35.3850   22.2670   31.8720 C   0  0  0  0  0  3  0  0  0  0  0  0
   35.0300   22.2810   30.8130 H   0  0  0  0  0  0  0  0  0  0  0  0
   35.2900   20.8390   32.3540 C   0  0  0  0  0  3  0  0  0  0  0  0
   35.1650   20.7870   33.4670 H   0  0  0  0  0  0  0  0  0  0  0  0
   36.4710   20.1750   32.0640 O   0  0  0  0  0  0  0  0  0  0  0  0
   36.9820   20.5080   30.8160 C   0  0  0  0  0  2  0  0  0  0  0  0
   37.6210   21.8780   30.9350 C   0  0  0  0  0  2  0  0  0  0  0  0
  1 22  1  0  0  0  0
  2  1  1  0  0  0  0
  2 11  1  0  0  0  0
  3  2  2  0  0  0  0
  4  5  2  0  0  0  0
  4  3  1  0  0  0  0
  5  6  1  0  0  0  0
  6 24  1  0  0  0  0
  6  1  2  0  0  0  0
  7  3  1  0  0  0  0
  8  4  1  0  0  0  0
  9  5  1  0  0  0  0
 10 15  1  0  0  0  0
 11 10  2  0  0  0  0
 11 12  1  0  0  0  0
 12 13  2  0  0  0  0
 13 14  1  0  0  0  0
 14 17  1  0  0  0  0
 15 14  2  0  0  0  0
 16 10  1  0  0  0  0
 18 12  1  0  0  0  0
 18 19  1  0  0  0  0
 18 20  1  0  0  0  0
 21 18  1  0  0  0  0
 22 23  1  0  0  0  0
 24 26  1  0  0  0  0
 25 33  2  0  0  0  0
 25 26  1  0  0  0  0
 26 27  2  0  0  0  0
 27 28  1  0  0  0  0
 27 35  1  0  0  0  0
 28 29  1  0  0  0  0
 29 36  1  0  0  0  0
 30 29  1  0  0  0  0
 30 37  1  0  0  0  0
 31 30  2  0  0  0  0
 32 31  1  0  0  0  0
 32 28  2  0  0  0  0
 33 32  1  0  0  0  0
 34 25  1  0  0  0  0
 38 33  1  0  0  0  0
 39 38  1  0  0  0  0
 39 41  1  0  0  0  0
 40 39  1  0  0  0  0
 41 42  1  0  0  0  0
 43 41  1  0  0  0  0
 44 45  1  0  0  0  0
 44 43  1  0  0  0  0
 45 38  1  0  0  0  0
M  END
>  <minimizedAffinity>
-6.15986919

$$$$

 OpenBabel03272509233D

 45 49  0  0  0  0  0  0  0  0999 V2000
   39.7790   24.5210   36.0360 C   0  0  0  0  0  0  0  0  0  0  0  0
   40.3500   23.3330   36.4590 C   0  0  0  0  0  0  0  0  0  0  0  0
   39.6330   22.6930   37.4720 C   0  0  0  0  0  0  0  0  0  0  0  0
   38.4410   23.2260   38.0000 C   0  0  0  0  0  0  0  0  0  0  0  0
   37.9530   24.4480   37.4890 C   0  0  0  0  0  0  0  0  0  0  0  0
   38.6460   25.0940   36.4900 C   0  0  0  0  0  0  0  0  0  0  0  0
   39.9840   21.7470   37.8890 H   0  0  0  0  0  0  0  0  0  0  0  0
   37.9170   22.6970   38.7860 H   0  0  0  0  0  0  0  0  0  0  0  0
   37.0420   24.8200   37.9190 H   0  0  0  0  0  0  0  0  0  0  0  0
   42.7610   22.9770   36.5990 C   0  0  0  0  0  0  0  0  0  0  0  0
   41.5580   22.7880   35.9280 C   0  0  0  0  0  0  0  0  0  0  0  0
   41.5740   22.0510   34.7280 C   0  0  0  0  0  0  0  0  0  0  0  0
   42.7690   21.5670   34.2940 N   0  0  0  0  0  0  0  0  0  0  0  0
   43.9150   21.7790   34.9830 C   0  0  0  0  0  0  0  0  0  0  0  0
   43.9120   22.4770   36.1250 N   0  0  0  0  0  0  0  0  0  0  0  0
   42.7280   23.5430   37.5160 H   0  0  0  0  0  0  0  0  0  0  0  0
   44.8540   21.3730   34.6000 H   0  0  0  0  0  0  0  0  0  0  0  0
   40.3230   21.8210   33.9740 C   0  0  0  0  0  0  0  0  0  0  0  0
   40.5970   21.6660   32.8980 H   0  0  0  0  0  0  0  0  0  0  0  0
   39.7400   20.9740   34.3910 H   0  0  0  0  0  0  0  0  0  0  0  0
   39.7490   22.7790   33.9810 H   0  0  0  0  0  0  0  0  0  0  0  0
   40.4260   25.2480   35.0130 O   0  0  0  0  0  0  0  0  0  0  0  0
   40.9440   26.0600   35.3260 H   0  0  0  0  0  0  0  0  0  0  0  0
   38.1090   26.2760   36.0450 O   0  0  0  0  0  0  0  0  0  0  0  0
   37.4360   25.7350   33.6980 C   0  0  0  0  0  0  0  0  0  0  0  0
   37.5440   26.5280   34.8190 C   0  0  0  0  0  0  0  0  0  0  0  0
   37.0150   27.8170   34.7770 C   0  0  0  0  0  0  0  0  0  0  0  0
   36.3830   28.2960   33.6170 C   0  0  0  0  0  0  0  0  0  0  0  0
   35.7890   29.4570   33.2720 N   0  0  0  0  0  0  0  0  0  0  0  0
   35.3340   29.3960   32.0110 C   0  0  0  0  0  0  0  0  0  0  0  0
   35.6570   28.1500   31.5520 N   0  0  0  0  0  0  0  0  0  0  0  0
   36.2980   27.4680   32.5250 C   0  0  0  0  0  0  0  0  0  0  0  0
   36.8210   26.1940   32.5620 C   0  0  0  0  0  0  0  0  0  0  0  0
   37.8780   24.7600   33.8400 H   0  0  0  0  0  0  0  0  0  0  0  0
   37.0210   28.5530   35.5710 H   0  0  0  0  0  0  0  0  0  0  0  0
   35.6910   30.2950   33.8950 H   0  0  0  0  0  0  0  0  0  0  0  0
   34.8180   30.1640   31.4550 H   0  0  0  0  0  0  0  0  0  0  0  0
   36.7470   25.3140   31.4450 N   0  0  0  0  0  0  0  0  0  0  0  0
   35.5690   24.6260   30.9600 C   0  0  0  0  0  3  0  0  0  0  0  0
   35.4910   24.7740   29.8550 H   0  0  0  0  0  0  0  0  0  0  0  0
   35.8080   23.1540   31.1970 C   0  0  0  0  0  3  0  0  0  0  0  0
   35.4430   22.8350   32.2080 H   0  0  0  0  0  0  0  0  0  0  0  0
   37.1700   22.8990   31.1770 O   0  0  0  0  0  0  0  0  0  0  0  0
   37.8350   23.6130   30.1880 C   0  0  0  0  0  2  0  0  0  0  0  0
   37.9720   25.0440   30.6710 C   0  0  0  0  0  2  0  0  0  0  0  0
  1  2  2  0  0  0  0
  1  6  1  0  0  0  0
  2  3  1  0  0  0  0
  3  7  1  0  0  0  0
  3  4  2  0  0  0  0
  4  8  1  0  0  0  0
  5  9  1  0  0  0  0
  5  4  1  0  0  0  0
  6  5  2  0  0  0  0
 10 16  1  0  0  0  0
 11  2  1  0  0  0  0
 11 10  2  0  0  0  0
 12 11  1  0  0  0  0
 13 12  2  0  0  0  0
 13 14  1  0  0  0  0
 14 15  2  0  0  0  0
 15 10  1  0  0  0  0
 17 14  1  0  0  0  0
 18 21  1  0  0  0  0
 18 20  1  0  0  0  0
 18 12  1  0  0  0  0
 19 18  1  0  0  0  0
 22 23  1  0  0  0  0
 22  1  1  0  0  0  0
 24  6  1  0  0  0  0
 25 34  1  0  0  0  0
 25 26  1  0  0  0  0
 26 24  1  0  0  0  0
 27 26  2  0  0  0  0
 27 35  1  0  0  0  0
 28 27  1  0  0  0  0
 29 28  1  0  0  0  0
 29 36  1  0  0  0  0
 30 29  1  0  0  0  0
 31 30  2  0  0  0  0
 31 32  1  0  0  0  0
 32 33  1  0  0  0  0
 32 28  2  0  0  0  0
 33 25  2  0  0  0  0
 37 30  1  0  0  0  0
 38 33  1  0  0  0  0
 39 41  1  0  0  0  0
 39 38  1  0  0  0  0
 40 39  1  0  0  0  0
 41 42  1  0  0  0  0
 43 41  1  0  0  0  0
 44 45  1  0  0  0  0
 44 43  1  0  0  0  0
 45 38  1  0  0  0  0
M  END
>  <minimizedAffinity>
-6.07084608

$$$$

 OpenBabel03272509233D

 45 49  0  0  0  0  0  0  0  0999 V2000
   38.3960   25.8960   34.3810 C   0  0  0  0  0  0  0  0  0  0  0  0
   38.5470   24.5240   34.4800 C   0  0  0  0  0  0  0  0  0  0  0  0
   37.8170   23.8070   33.5290 C   0  0  0  0  0  0  0  0  0  0  0  0
   37.0090   24.4440   32.5670 C   0  0  0  0  0  0  0  0  0  0  0  0
   36.9330   25.8530   32.5620 C   0  0  0  0  0  0  0  0  0  0  0  0
   37.6440   26.5770   33.4930 C   0  0  0  0  0  0  0  0  0  0  0  0
   37.8550   22.7170   33.5060 H   0  0  0  0  0  0  0  0  0  0  0  0
   36.4590   23.8500   31.8470 H   0  0  0  0  0  0  0  0  0  0  0  0
   36.3060   26.3000   31.8130 H   0  0  0  0  0  0  0  0  0  0  0  0
   40.6830   23.5520   35.1510 C   0  0  0  0  0  0  0  0  0  0  0  0
   39.3640   23.8730   35.4530 C   0  0  0  0  0  0  0  0  0  0  0  0
   38.8740   23.5390   36.7300 C   0  0  0  0  0  0  0  0  0  0  0  0
   39.7210   22.9200   37.5960 N   0  0  0  0  0  0  0  0  0  0  0  0
   40.9990   22.6270   37.2540 C   0  0  0  0  0  0  0  0  0  0  0  0
   41.4760   22.9400   36.0440 N   0  0  0  0  0  0  0  0  0  0  0  0
   41.0400   23.8160   34.1680 H   0  0  0  0  0  0  0  0  0  0  0  0
   41.6460   22.1290   37.9800 H   0  0  0  0  0  0  0  0  0  0  0  0
   37.4780   23.8570   37.1030 C   0  0  0  0  0  0  0  0  0  0  0  0
   37.1640   23.1300   37.8950 H   0  0  0  0  0  0  0  0  0  0  0  0
   37.3690   24.9130   37.4250 H   0  0  0  0  0  0  0  0  0  0  0  0
   36.8350   23.6100   36.2240 H   0  0  0  0  0  0  0  0  0  0  0  0
   39.0930   26.7140   35.2980 O   0  0  0  0  0  0  0  0  0  0  0  0
   38.5280   27.0970   36.0470 H   0  0  0  0  0  0  0  0  0  0  0  0
   37.5200   27.9430   33.4250 O   0  0  0  0  0  0  0  0  0  0  0  0
   35.3900   28.8700   34.3520 C   0  0  0  0  0  0  0  0  0  0  0  0
   36.3580   28.6750   33.3920 C   0  0  0  0  0  0  0  0  0  0  0  0
   36.2020   29.2930   32.1530 C   0  0  0  0  0  0  0  0  0  0  0  0
   35.0820   30.0990   31.8880 C   0  0  0  0  0  0  0  0  0  0  0  0
   34.6560   30.8100   30.8250 N   0  0  0  0  0  0  0  0  0  0  0  0
   33.4900   31.4170   31.1000 C   0  0  0  0  0  0  0  0  0  0  0  0
   33.1780   31.0690   32.3850 N   0  0  0  0  0  0  0  0  0  0  0  0
   34.1430   30.2640   32.8770 C   0  0  0  0  0  0  0  0  0  0  0  0
   34.2930   29.6540   34.1030 C   0  0  0  0  0  0  0  0  0  0  0  0
   35.6100   28.3460   35.2710 H   0  0  0  0  0  0  0  0  0  0  0  0
   36.8730   29.2370   31.3040 H   0  0  0  0  0  0  0  0  0  0  0  0
   35.1580   30.8860   29.9080 H   0  0  0  0  0  0  0  0  0  0  0  0
   32.9040   32.0510   30.4540 H   0  0  0  0  0  0  0  0  0  0  0  0
   33.3360   29.8070   35.1460 N   0  0  0  0  0  0  0  0  0  0  0  0
   32.2280   28.9240   35.4420 C   0  0  0  0  0  3  0  0  0  0  0  0
   32.2250   28.6970   36.5360 H   0  0  0  0  0  0  0  0  0  0  0  0
   30.9700   29.7050   35.1450 C   0  0  0  0  0  3  0  0  0  0  0  0
   30.6460   29.5740   34.0790 H   0  0  0  0  0  0  0  0  0  0  0  0
   31.2170   31.0570   35.3130 O   0  0  0  0  0  0  0  0  0  0  0  0
   32.0160   31.3240   36.4170 C   0  0  0  0  0  2  0  0  0  0  0  0
   33.4430   30.9710   36.0440 C   0  0  0  0  0  2  0  0  0  0  0  0
  1  2  1  0  0  0  0
  1 22  1  0  0  0  0
  2 11  1  0  0  0  0
  3  2  2  0  0  0  0
  4  3  1  0  0  0  0
  5  4  2  0  0  0  0
  5  6  1  0  0  0  0
  6  1  2  0  0  0  0
  7  3  1  0  0  0  0
  8  4  1  0  0  0  0
  9  5  1  0  0  0  0
 10 11  2  0  0  0  0
 10 15  1  0  0  0  0
 11 12  1  0  0  0  0
 12 18  1  0  0  0  0
 12 13  2  0  0  0  0
 14 13  1  0  0  0  0
 14 17  1  0  0  0  0
 15 14  2  0  0  0  0
 16 10  1  0  0  0  0
 18 20  1  0  0  0  0
 18 19  1  0  0  0  0
 21 18  1  0  0  0  0
 22 23  1  0  0  0  0
 24  6  1  0  0  0  0
 25 34  1  0  0  0  0
 26 24  1  0  0  0  0
 26 25  2  0  0  0  0
 27 26  1  0  0  0  0
 28 27  2  0  0  0  0
 28 32  1  0  0  0  0
 29 30  1  0  0  0  0
 29 28  1  0  0  0  0
 30 31  2  0  0  0  0
 31 32  1  0  0  0  0
 32 33  2  0  0  0  0
 33 25  1  0  0  0  0
 33 38  1  0  0  0  0
 35 27  1  0  0  0  0
 36 29  1  0  0  0  0
 37 30  1  0  0  0  0
 38 39  1  0  0  0  0
 38 45  1  0  0  0  0
 39 40  1  0  0  0  0
 41 43  1  0  0  0  0
 41 39  1  0  0  0  0
 42 41  1  0  0  0  0
 43 44  1  0  0  0  0
 45 44  1  0  0  0  0
M  END
>  <minimizedAffinity>
-6.02679396

$$$$

 OpenBabel03272509233D

 45 49  0  0  0  0  0  0  0  0999 V2000
   36.0410   28.3270   31.9500 C   0  0  0  0  0  0  0  0  0  0  0  0
   35.5240   29.4140   32.6320 C   0  0  0  0  0  0  0  0  0  0  0  0
   35.7810   29.3910   34.0050 C   0  0  0  0  0  0  0  0  0  0  0  0
   36.5030   28.3470   34.6170 C   0  0  0  0  0  0  0  0  0  0  0  0
   36.9830   27.2870   33.8170 C   0  0  0  0  0  0  0  0  0  0  0  0
   36.7380   27.2920   32.4620 C   0  0  0  0  0  0  0  0  0  0  0  0
   35.4240   30.1940   34.6510 H   0  0  0  0  0  0  0  0  0  0  0  0
   36.6790   28.3680   35.6850 H   0  0  0  0  0  0  0  0  0  0  0  0
   37.5270   26.5110   34.3210 H   0  0  0  0  0  0  0  0  0  0  0  0
   35.4680   31.4920   31.3530 C   0  0  0  0  0  0  0  0  0  0  0  0
   34.7930   30.4750   32.0180 C   0  0  0  0  0  0  0  0  0  0  0  0
   33.3860   30.5290   32.0630 C   0  0  0  0  0  0  0  0  0  0  0  0
   32.7690   31.5750   31.4510 N   0  0  0  0  0  0  0  0  0  0  0  0
   33.4720   32.5430   30.8160 C   0  0  0  0  0  0  0  0  0  0  0  0
   34.8090   32.5020   30.7670 N   0  0  0  0  0  0  0  0  0  0  0  0
   36.5450   31.4330   31.3290 H   0  0  0  0  0  0  0  0  0  0  0  0
   32.9370   33.3670   30.3370 H   0  0  0  0  0  0  0  0  0  0  0  0
   32.6190   29.4730   32.7580 C   0  0  0  0  0  0  0  0  0  0  0  0
   31.6440   29.9190   33.0840 H   0  0  0  0  0  0  0  0  0  0  0  0
   32.4830   28.5740   32.1210 H   0  0  0  0  0  0  0  0  0  0  0  0
   33.1550   29.2440   33.7110 H   0  0  0  0  0  0  0  0  0  0  0  0
   35.8370   28.2530   30.5540 O   0  0  0  0  0  0  0  0  0  0  0  0
   35.1180   27.6030   30.2590 H   0  0  0  0  0  0  0  0  0  0  0  0
   37.2370   26.2290   31.7510 O   0  0  0  0  0  0  0  0  0  0  0  0
   38.0200   24.2680   33.0920 C   0  0  0  0  0  0  0  0  0  0  0  0
   37.2690   24.9090   32.1320 C   0  0  0  0  0  0  0  0  0  0  0  0
   36.3670   24.1590   31.3800 C   0  0  0  0  0  0  0  0  0  0  0  0
   36.2260   22.7780   31.5970 C   0  0  0  0  0  0  0  0  0  0  0  0
   35.4660   21.8050   31.0530 N   0  0  0  0  0  0  0  0  0  0  0  0
   35.7240   20.6240   31.6370 C   0  0  0  0  0  0  0  0  0  0  0  0
   36.6820   20.8710   32.5810 N   0  0  0  0  0  0  0  0  0  0  0  0
   36.9970   22.1830   32.5660 C   0  0  0  0  0  0  0  0  0  0  0  0
   37.8890   22.9210   33.3110 C   0  0  0  0  0  0  0  0  0  0  0  0
   38.6830   24.9430   33.6130 H   0  0  0  0  0  0  0  0  0  0  0  0
   35.7110   24.5160   30.5960 H   0  0  0  0  0  0  0  0  0  0  0  0
   34.7690   21.9430   30.2820 H   0  0  0  0  0  0  0  0  0  0  0  0
   35.2780   19.6660   31.4200 H   0  0  0  0  0  0  0  0  0  0  0  0
   38.7010   22.3310   34.3220 N   0  0  0  0  0  0  0  0  0  0  0  0
   38.3340   22.1050   35.7040 C   0  0  0  0  0  3  0  0  0  0  0  0
   38.5920   21.0540   35.9820 H   0  0  0  0  0  0  0  0  0  0  0  0
   39.2130   23.0130   36.5310 C   0  0  0  0  0  3  0  0  0  0  0  0
   38.7380   24.0170   36.6860 H   0  0  0  0  0  0  0  0  0  0  0  0
   40.4010   23.2430   35.8580 O   0  0  0  0  0  0  0  0  0  0  0  0
   40.8890   22.1070   35.2260 C   0  0  0  0  0  2  0  0  0  0  0  0
   40.0620   21.8900   33.9730 C   0  0  0  0  0  2  0  0  0  0  0  0
  1  6  2  0  0  0  0
  1  2  1  0  0  0  0
  2  3  2  0  0  0  0
  3  4  1  0  0  0  0
  3  7  1  0  0  0  0
  4  8  1  0  0  0  0
  5  9  1  0  0  0  0
  5  4  2  0  0  0  0
  6  5  1  0  0  0  0
 10 11  1  0  0  0  0
 11 12  2  0  0  0  0
 11  2  1  0  0  0  0
 12 18  1  0  0  0  0
 13 12  1  0  0  0  0
 14 13  2  0  0  0  0
 15 14  1  0  0  0  0
 15 10  2  0  0  0  0
 16 10  1  0  0  0  0
 17 14  1  0  0  0  0
 18 19  1  0  0  0  0
 18 21  1  0  0  0  0
 20 18  1  0  0  0  0
 22  1  1  0  0  0  0
 23 22  1  0  0  0  0
 24 26  1  0  0  0  0
 24  6  1  0  0  0  0
 25 33  1  0  0  0  0
 25 34  1  0  0  0  0
 26 25  2  0  0  0  0
 27 28  2  0  0  0  0
 27 26  1  0  0  0  0
 28 32  1  0  0  0  0
 29 28  1  0  0  0  0
 29 30  1  0  0  0  0
 30 31  2  0  0  0  0
 32 31  1  0  0  0  0
 32 33  2  0  0  0  0
 33 38  1  0  0  0  0
 35 27  1  0  0  0  0
 36 29  1  0  0  0  0
 37 30  1  0  0  0  0
 38 39  1  0  0  0  0
 39 40  1  0  0  0  0
 39 41  1  0  0  0  0
 41 42  1  0  0  0  0
 43 41  1  0  0  0  0
 44 43  1  0  0  0  0
 45 38  1  0  0  0  0
 45 44  1  0  0  0  0
M  END
>  <minimizedAffinity>
-5.98660851

$$$$
