
 OpenBabel03272510293D

 27 29  0  0  0  0  0  0  0  0999 V2000
   37.1550   31.3080   49.2270 C   0  0  0  0  0  0  0  0  0  0  0  0
   37.3410   32.5540   49.8440 C   0  0  0  0  0  0  0  0  0  0  0  0
   38.2980   33.3870   49.2830 C   0  0  0  0  0  0  0  0  0  0  0  0
   38.9890   32.9620   48.1900 N   0  0  0  0  0  0  0  0  0  0  0  0
   38.7750   31.7470   47.6260 C   0  0  0  0  0  0  0  0  0  0  0  0
   37.8360   30.8950   48.1540 N   0  0  0  0  0  0  0  0  0  0  0  0
   36.8050   32.8920   50.6970 H   0  0  0  0  0  0  0  0  0  0  0  0
   38.5530   34.3710   49.6450 H   0  0  0  0  0  0  0  0  0  0  0  0
   36.1030   30.4070   49.7880 C   0  0  0  0  0  0  0  0  0  0  0  0
   36.1010   28.9790   49.6010 C   0  0  0  0  0  0  0  0  0  0  0  0
   36.6150   29.5090   50.9210 C   0  0  0  0  0  0  0  0  0  0  0  0
   35.1510   30.9450   49.9930 H   0  0  0  0  0  0  0  0  0  0  0  0
   36.9180   28.5070   48.9850 H   0  0  0  0  0  0  0  0  0  0  0  0
   35.1590   28.4210   49.5580 H   0  0  0  0  0  0  0  0  0  0  0  0
   35.9850   29.5500   51.8140 H   0  0  0  0  0  0  0  0  0  0  0  0
   37.7030   29.5030   51.1240 H   0  0  0  0  0  0  0  0  0  0  0  0
   39.4940   31.3020   46.4410 C   0  0  0  0  0  0  0  0  0  0  0  0
   40.2490   32.0480   46.0710 H   0  0  0  0  0  0  0  0  0  0  0  0
   40.0140   30.3570   46.6420 H   0  0  0  0  0  0  0  0  0  0  0  0
   38.5020   31.1750   45.3820 N   0  0  0  0  0  0  0  0  0  0  0  0
   38.1410   32.4220   44.7960 C   0  0  0  0  0  3  0  0  0  0  0  0
   37.2870   32.8360   45.3820 H   0  0  0  0  0  0  0  0  0  0  0  0
   37.6750   32.3260   43.3730 C   0  0  0  0  0  3  0  0  0  0  0  0
   37.7580   33.3320   42.9130 H   0  0  0  0  0  0  0  0  0  0  0  0
   38.4220   31.4470   42.5920 O   0  0  0  0  0  0  0  0  0  0  0  0
   38.2350   30.1770   43.1510 C   0  0  0  0  0  2  0  0  0  0  0  0
   38.9600   30.1720   44.4730 C   0  0  0  0  0  2  0  0  0  0  0  0
  1  9  1  0  0  0  0
  1  2  1  0  0  0  0
  2  7  1  0  0  0  0
  3  8  1  0  0  0  0
  3  2  2  0  0  0  0
  4  3  1  0  0  0  0
  5  6  1  0  0  0  0
  5  4  2  0  0  0  0
  6  1  2  0  0  0  0
  9 12  1  0  0  0  0
  9 11  1  0  0  0  0
 10  9  1  0  0  0  0
 10 11  1  0  0  0  0
 11 16  1  0  0  0  0
 11 15  1  0  0  0  0
 13 10  1  0  0  0  0
 14 10  1  0  0  0  0
 17 19  1  0  0  0  0
 17  5  1  0  0  0  0
 18 17  1  0  0  0  0
 20 17  1  0  0  0  0
 21 22  1  0  0  0  0
 21 20  1  0  0  0  0
 23 21  1  0  0  0  0
 24 23  1  0  0  0  0
 25 26  1  0  0  0  0
 25 23  1  0  0  0  0
 26 27  1  0  0  0  0
 27 20  1  0  0  0  0
M  END
>  <minimizedAffinity>
-5.15986919

>  <minimizedRMSD>
0.513530612

$$$$
