
 OpenBabel03272503533D

 43 46  0  0  1  0  0  0  0  0999 V2000
   36.3220   30.1040   45.9600 C   0  0  1  0  0  0  0  0  0  0  0  0
   34.9280   30.1470   45.2760 C   0  0  0  0  0  0  0  0  0  0  0  0
   35.1430   29.3360   43.9820 C   0  0  0  0  0  0  0  0  0  0  0  0
   35.9750   30.2020   43.0950 C   0  0  0  0  0  0  0  0  0  0  0  0
   37.3090   30.4840   43.7440 C   0  0  0  0  0  0  0  0  0  0  0  0
   37.1680   31.0280   45.1380 C   0  0  2  0  0  0  0  0  0  0  0  0
   36.5930   29.0380   45.8960 H   0  0  0  0  0  0  0  0  0  0  0  0
   34.7230   31.2050   45.0140 H   0  0  0  0  0  0  0  0  0  0  0  0
   34.1530   29.7020   45.9160 H   0  0  0  0  0  0  0  0  0  0  0  0
   35.6870   28.4160   44.2990 H   0  0  0  0  0  0  0  0  0  0  0  0
   34.1640   29.1160   43.5500 H   0  0  0  0  0  0  0  0  0  0  0  0
   35.4110   31.1520   42.9560 H   0  0  0  0  0  0  0  0  0  0  0  0
   36.1900   29.6950   42.1420 H   0  0  0  0  0  0  0  0  0  0  0  0
   37.8940   29.5610   43.6790 H   0  0  0  0  0  0  0  0  0  0  0  0
   37.7830   31.2650   43.1140 H   0  0  0  0  0  0  0  0  0  0  0  0
   36.6180   31.9980   45.0270 H   0  0  0  0  0  0  0  0  0  0  0  0
   35.3650   29.9590   48.2760 C   0  0  0  0  0  0  0  0  0  0  0  0
   35.3990   30.3380   49.6110 C   0  0  0  0  0  0  0  0  0  0  0  0
   36.3400   31.2760   50.0550 C   0  0  0  0  0  0  0  0  0  0  0  0
   37.2170   31.7960   49.1200 C   0  0  0  0  0  0  0  0  0  0  0  0
   37.1910   31.4260   47.8010 C   0  0  0  0  0  0  0  0  0  0  0  0
   36.2370   30.4810   47.3710 C   0  0  0  0  0  0  0  0  0  0  0  0
   34.7180   29.9380   50.3520 H   0  0  0  0  0  0  0  0  0  0  0  0
   36.3920   31.5930   51.0900 H   0  0  0  0  0  0  0  0  0  0  0  0
   37.9380   32.5260   49.5040 H   0  0  0  0  0  0  0  0  0  0  0  0
   37.9280   31.9090   47.1810 H   0  0  0  0  0  0  0  0  0  0  0  0
   33.3770   26.7900   47.7520 C   0  0  0  0  0  0  0  0  0  0  0  0
   34.4540   27.6220   48.1160 C   0  0  0  0  0  0  0  0  0  0  0  0
   34.3340   28.9980   47.9340 C   0  0  0  0  0  0  0  0  0  0  0  0
   33.1730   29.4350   47.4120 N   0  0  0  0  0  0  0  0  0  0  0  0
   32.1460   28.6370   47.0640 C   0  0  0  0  0  0  0  0  0  0  0  0
   32.2560   27.3290   47.2360 N   0  0  0  0  0  0  0  0  0  0  0  0
   33.5380   25.7380   47.9200 H   0  0  0  0  0  0  0  0  0  0  0  0
   35.3820   27.2780   48.5330 H   0  0  0  0  0  0  0  0  0  0  0  0
   31.2760   29.1110   46.6590 H   0  0  0  0  0  0  0  0  0  0  0  0
   38.4340   31.3190   45.7030 N   0  0  2  0  0  0  0  0  0  0  0  0
   38.7640   32.7000   45.5700 C   0  0  0  0  0  3  0  0  0  0  0  0
   37.9150   33.3640   45.4220 H   0  0  0  0  0  0  0  0  0  0  0  0
   39.8540   32.9040   44.5450 C   0  0  0  0  0  3  0  0  0  0  0  0
   40.0440   34.0010   44.4580 H   0  0  0  0  0  0  0  0  0  0  0  0
   41.0260   32.3040   44.9870 O   0  0  0  0  0  0  0  0  0  0  0  0
   40.8490   31.0510   45.5310 C   0  0  0  0  0  2  0  0  0  0  0  0
   39.4970   30.4440   45.2970 C   0  0  0  0  0  2  0  0  0  0  0  0
  1  7  1  6  0  0  0
  1 22  1  0  0  0  0
  2  9  1  0  0  0  0
  2  1  1  0  0  0  0
  3 10  1  0  0  0  0
  3  2  1  0  0  0  0
  4  5  1  0  0  0  0
  4  3  1  0  0  0  0
  5  6  1  0  0  0  0
  6 16  1  6  0  0  0
  6 36  1  0  0  0  0
  6  1  1  0  0  0  0
  8  2  1  0  0  0  0
 11  3  1  0  0  0  0
 12  4  1  0  0  0  0
 13  4  1  0  0  0  0
 14  5  1  0  0  0  0
 15  5  1  0  0  0  0
 17 18  1  0  0  0  0
 18 19  2  0  0  0  0
 18 23  1  0  0  0  0
 19 24  1  0  0  0  0
 20 25  1  0  0  0  0
 20 19  1  0  0  0  0
 21 20  2  0  0  0  0
 22 21  1  0  0  0  0
 22 17  2  0  0  0  0
 26 21  1  0  0  0  0
 27 33  1  0  0  0  0
 27 28  1  0  0  0  0
 28 34  1  0  0  0  0
 29 28  2  0  0  0  0
 29 17  1  0  0  0  0
 30 29  1  0  0  0  0
 31 32  1  0  0  0  0
 31 30  2  0  0  0  0
 32 27  2  0  0  0  0
 35 31  1  0  0  0  0
 36 43  1  6  0  0  0
 37 36  1  0  0  0  0
 38 37  1  0  0  0  0
 39 41  1  0  0  0  0
 39 37  1  0  0  0  0
 40 39  1  0  0  0  0
 41 42  1  0  0  0  0
 43 42  1  0  0  0  0
M  END
>  <minimizedAffinity>
-5.77222729

>  <minimizedRMSD>
3.69787407

$$$$
