REMARK  Name = 
REMARK  3 active torsions:
REMARK  status: ('A' for Active; 'I' for Inactive)
REMARK    1  A    between atoms: C_1  and  C_9
REMARK    2  A    between atoms: C_6  and  C_13
REMARK    3  A    between atoms: C_18  and  N_36
REMARK                            x       y       z     vdW  Elec       q    Type
REMARK                         _______ _______ _______ _____ _____    ______ ____
ROOT
ATOM      1  C   UNL     1      38.550  31.243  46.483  0.00  0.00    +0.000 C 
ATOM      2  C   UNL     1      37.420  31.686  45.514  0.00  0.00    +0.000 C 
ATOM      3  C   UNL     1      36.976  30.363  44.858  0.00  0.00    +0.000 C 
ATOM      4  C   UNL     1      38.080  29.982  43.928  0.00  0.00    +0.000 C 
ATOM      5  C   UNL     1      39.359  29.761  44.700  0.00  0.00    +0.000 C 
ATOM      6  C   UNL     1      39.707  30.925  45.584  0.00  0.00    +0.000 C 
ATOM      7  H   UNL     1      38.105  30.377  46.998  0.00  0.00    +0.000 HD
ATOM      8  H   UNL     1      37.883  32.337  44.745  0.00  0.00    +0.000 HD
ATOM      9  H   UNL     1      36.596  32.173  46.055  0.00  0.00    +0.000 HD
ATOM     10  H   UNL     1      36.869  29.639  45.700  0.00  0.00    +0.000 HD
ATOM     11  H   UNL     1      36.034  30.540  44.335  0.00  0.00    +0.000 HD
ATOM     12  H   UNL     1      38.206  30.830  43.217  0.00  0.00    +0.000 HD
ATOM     13  H   UNL     1      37.853  29.033  43.418  0.00  0.00    +0.000 HD
ATOM     14  H   UNL     1      39.248  28.810  45.231  0.00  0.00    +0.000 HD
ATOM     15  H   UNL     1      40.153  29.662  43.931  0.00  0.00    +0.000 HD
ATOM     16  H   UNL     1      39.858  31.793  44.892  0.00  0.00    +0.000 HD
ENDROOT
BRANCH   1  22
ATOM     17  C   UNL     1      38.417  32.273  48.768  0.00  0.00    +0.000 A 
ATOM     18  C   UNL     1      38.793  33.273  49.654  0.00  0.00    +0.000 A 
ATOM     19  C   UNL     1      39.624  34.318  49.228  0.00  0.00    +0.000 A 
ATOM     20  C   UNL     1      40.044  34.306  47.910  0.00  0.00    +0.000 A 
ATOM     21  C   UNL     1      39.678  33.322  47.029  0.00  0.00    +0.000 A 
ATOM     22  C   UNL     1      38.841  32.278  47.475  0.00  0.00    +0.000 A 
ATOM     23  H   UNL     1      38.471  33.293  50.688  0.00  0.00    +0.000 HD
ATOM     24  H   UNL     1      39.935  35.113  49.895  0.00  0.00    +0.000 HD
ATOM     25  H   UNL     1      40.692  35.138  47.614  0.00  0.00    +0.000 HD
ATOM     26  H   UNL     1      40.074  33.435  46.034  0.00  0.00    +0.000 HD
BRANCH  17  29
ATOM     27  C   UNL     1      37.015  29.286  50.607  0.00  0.00    +0.000 A 
ATOM     28  C   UNL     1      37.967  30.205  50.123  0.00  0.00    +0.000 A 
ATOM     29  C   UNL     1      37.539  31.259  49.319  0.00  0.00    +0.000 A 
ATOM     30  N   UNL     1      36.219  31.318  49.061  0.00  0.00    +0.000 NA
ATOM     31  C   UNL     1      35.312  30.438  49.524  0.00  0.00    +0.000 A 
ATOM     32  N   UNL     1      35.715  29.435  50.289  0.00  0.00    +0.000 NA
ATOM     33  H   UNL     1      37.416  28.497  51.222  0.00  0.00    +0.000 HD
ATOM     34  H   UNL     1      39.021  30.162  50.327  0.00  0.00    +0.000 HD
ATOM     35  H   UNL     1      34.291  30.598  49.245  0.00  0.00    +0.000 HD
ENDBRANCH  17  29
ENDBRANCH   1  22
BRANCH   6  36
ATOM     36  N   UNL     1      40.931  30.704  46.263  0.00  0.00    +0.000 NA
ATOM     37  C   UNL     1      41.931  31.635  45.858  0.00  0.00    +0.000 C 
ATOM     38  H   UNL     1      41.554  32.555  45.417  0.00  0.00    +0.000 HD
ATOM     39  C   UNL     1      42.985  30.967  45.007  0.00  0.00    +0.000 C 
ATOM     40  H   UNL     1      43.719  31.747  44.691  0.00  0.00    +0.000 HD
ATOM     41  O   UNL     1      43.668  30.026  45.766  0.00  0.00    +0.000 OA
ATOM     42  C   UNL     1      42.857  29.244  46.559  0.00  0.00    +0.000 C 
ATOM     43  C   UNL     1      41.391  29.345  46.260  0.00  0.00    +0.000 C 
ENDBRANCH   6  36
TORSDOF 3
