
     RDKit          3D

 41 43  0  0  0  0  0  0  0  0999 V2000
   34.7890   29.5463   47.5250 S   0  0  0  0  0  0  0  0  0  0  0  0
   37.3767   29.4662   50.5284 C   0  0  0  0  0  0  0  0  0  0  0  0
   37.9878   30.7206   50.5187 C   0  0  0  0  0  0  0  0  0  0  0  0
   37.5747   31.6351   49.5300 C   0  0  0  0  0  0  0  0  0  0  0  0
   36.6187   31.2555   48.6515 N   0  0  0  0  0  0  0  0  0  0  0  0
   36.0511   30.0343   48.6923 C   0  0  0  0  0  0  0  0  0  0  0  0
   36.4179   29.1376   49.6180 N   0  0  0  0  0  0  0  0  0  0  0  0
   32.3902   28.3616   47.4599 C   0  0  2  0  0  0  0  0  0  0  0  0
   33.6226   28.4149   48.3455 C   0  0  1  0  0  0  0  0  0  0  0  0
   34.1760   27.1633   48.3669 O   0  0  0  0  0  0  0  0  0  0  0  0
   33.5686   26.3675   47.4082 C   0  0  0  0  0  0  0  0  0  0  0  0
   32.8501   27.3327   46.4574 C   0  0  1  0  0  0  0  0  0  0  0  0
   32.1327   29.5955   46.8873 O   0  0  0  0  0  0  0  0  0  0  0  0
   31.8000   26.6809   45.8378 O   0  0  0  0  0  0  0  0  0  0  0  0
   37.6202   28.6887   51.2458 H   0  0  0  0  0  0  0  0  0  0  0  0
   38.7369   30.9442   51.2487 H   0  0  0  0  0  0  0  0  0  0  0  0
   38.0430   32.6102   49.5148 H   0  0  0  0  0  0  0  0  0  0  0  0
   31.5506   27.9970   48.0805 H   0  0  0  0  0  0  0  0  0  0  0  0
   33.2949   28.8023   49.3211 H   0  0  0  0  0  0  0  0  0  0  0  0
   34.3858   25.8204   46.8862 H   0  0  0  0  0  0  0  0  0  0  0  0
   32.7906   25.7083   47.8228 H   0  0  0  0  0  0  0  0  0  0  0  0
   33.5865   27.7910   45.8015 H   0  0  0  0  0  0  0  0  0  0  0  0
   31.6105   29.5320   46.0604 H   0  0  0  0  0  0  0  0  0  0  0  0
   33.6891   27.7167   43.0721 O   0  0  0  0  0  0  0  0  0  0  0  0
   32.7312   28.0072   44.0483 C   0  0  2  0  0  0  0  0  0  0  0  0
   31.9700   26.7882   44.4579 C   0  0  2  0  0  0  0  0  0  0  0  0
   30.7507   26.6383   43.8196 O   0  0  0  0  0  0  0  0  0  0  0  0
   29.9731   27.7872   43.8502 C   0  0  0  0  0  0  0  0  0  0  0  0
   30.6657   28.7427   42.8981 C   0  0  2  0  0  0  0  0  0  0  0  0
   30.9983   27.9847   41.7578 O   0  0  0  0  0  0  0  0  0  0  0  0
   31.9311   29.1697   43.5877 C   0  0  1  0  0  0  0  0  0  0  0  0
   31.5707   29.9948   44.6701 O   0  0  0  0  0  0  0  0  0  0  0  0
   33.2914   27.1417   42.3982 H   0  0  0  0  0  0  0  0  0  0  0  0
   33.3416   28.3867   44.9203 H   0  0  0  0  0  0  0  0  0  0  0  0
   32.5711   25.9057   44.1494 H   0  0  0  0  0  0  0  0  0  0  0  0
   29.9427   28.2488   44.8612 H   0  0  0  0  0  0  0  0  0  0  0  0
   28.9650   27.5282   43.4880 H   0  0  0  0  0  0  0  0  0  0  0  0
   30.0332   29.6064   42.6380 H   0  0  0  0  0  0  0  0  0  0  0  0
   31.2463   28.5705   41.0008 H   0  0  0  0  0  0  0  0  0  0  0  0
   32.5502   29.7796   42.8705 H   0  0  0  0  0  0  0  0  0  0  0  0
   32.3235   30.6416   44.7952 H   0  0  0  0  0  0  0  0  0  0  0  0
  1  6  1  0
  3  2  2  0
  4  3  1  0
  5  6  1  0
  5  4  2  0
  6  7  2  0
  7  2  1  0
  8 13  1  0
  8  9  1  0
  9  1  1  0
  9 10  1  0
 11 10  1  0
 12 14  1  0
 12 11  1  0
 12  8  1  0
  2 15  1  0
  3 16  1  0
  4 17  1  0
  8 18  1  1
  9 19  1  1
 11 20  1  0
 11 21  1  0
 12 22  1  6
 13 23  1  0
 24 25  1  0
 25 26  1  0
 26 27  1  0
 27 28  1  0
 28 29  1  0
 29 30  1  0
 29 31  1  0
 31 32  1  0
 31 25  1  0
 24 33  1  0
 25 34  1  1
 26 35  1  6
 28 36  1  0
 28 37  1  0
 29 38  1  6
 30 39  1  0
 31 40  1  6
 32 41  1  0
 14 26  1  0
M  ISO  8  15  14  16  14  17  14  18  13  19  13  20  13  21  13  22  13
M  ISO  1  23   3
M  END
>  <DihAtoms>  (1) 
11,13,25,24

>  <DihDeg>  (1) 
-117.48005748375701

$$$$
