
 OpenBabel03272504573D

 36 38  0  0  1  0  0  0  0  0999 V2000
   36.9550   31.4880   48.6160 C   0  0  1  0  0  0  0  0  0  0  0  0
   36.1920   30.8660   47.5630 C   0  0  0  0  0  0  0  0  0  0  0  0
   37.1480   30.0580   48.3790 C   0  0  2  0  0  0  0  0  0  0  0  0
   36.5010   31.7330   49.6410 H   0  0  0  0  0  0  0  0  0  0  0  0
   35.1580   31.1080   47.7180 H   0  0  0  0  0  0  0  0  0  0  0  0
   36.5110   31.0870   46.5220 H   0  0  0  0  0  0  0  0  0  0  0  0
   37.8470   29.5510   47.7430 H   0  0  0  0  0  0  0  0  0  0  0  0
   38.1100   32.3930   48.3020 C   0  0  0  0  0  0  0  0  0  0  0  0
   38.4540   33.3300   49.3100 C   0  0  0  0  0  0  0  0  0  0  0  0
   39.5170   34.1430   48.9880 C   0  0  0  0  0  0  0  0  0  0  0  0
   40.1500   34.0130   47.7840 N   0  0  0  0  0  0  0  0  0  0  0  0
   39.7840   33.1020   46.8510 C   0  0  0  0  0  0  0  0  0  0  0  0
   38.7320   32.2810   47.1440 N   0  0  0  0  0  0  0  0  0  0  0  0
   40.4310   32.9750   45.6190 N   0  0  0  0  0  0  0  0  0  0  0  0
   37.9630   33.4310   50.2460 H   0  0  0  0  0  0  0  0  0  0  0  0
   39.8220   34.8760   49.7190 H   0  0  0  0  0  0  0  0  0  0  0  0
   41.3110   33.5510   45.4760 H   0  0  0  0  0  0  0  0  0  0  0  0
   40.0520   32.3410   44.8830 H   0  0  0  0  0  0  0  0  0  0  0  0
   36.5560   29.2170   49.3350 O   0  0  0  0  0  0  0  0  0  0  0  0
   34.5200   27.6760   49.6600 O   0  0  0  0  0  0  0  0  0  0  0  0
   34.9710   28.8980   48.9280 P   0  0  1  0  0  0  0  0  0  0  0  0
   33.9670   30.1830   49.5160 O   0  0  0  0  0  0  0  0  0  0  0  0
   34.4440   30.6370   50.2640 H   0  0  0  0  0  0  0  0  0  0  0  0
   34.8440   28.7860   47.2590 O   0  0  0  0  0  0  0  0  0  0  0  0
   33.7150   26.9600   46.3480 C   0  0  2  0  0  3  0  0  0  0  0  0
   33.6060   28.3900   46.8160 C   0  0  1  0  0  3  0  0  0  0  0  0
   32.5970   28.5980   47.7500 O   0  0  0  0  0  0  0  0  0  0  0  0
   31.3910   28.3310   47.0610 C   0  0  0  0  0  2  0  0  0  0  0  0
   31.3640   26.8020   46.9490 C   0  0  1  0  0  3  0  0  0  0  0  0
   32.3780   26.4950   45.8420 C   0  0  2  0  0  3  0  0  0  0  0  0
   34.0600   26.1070   47.4130 O   0  0  0  0  0  0  0  0  0  0  0  0
   34.9980   25.8710   47.2950 H   0  0  0  0  0  0  0  0  0  0  0  0
   31.9000   26.2870   48.1280 O   0  0  0  0  0  0  0  0  0  0  0  0
   31.3780   25.4990   48.3760 H   0  0  0  0  0  0  0  0  0  0  0  0
   32.3680   25.1490   45.5220 O   0  0  0  0  0  0  0  0  0  0  0  0
   32.8810   24.6650   46.2340 H   0  0  0  0  0  0  0  0  0  0  0  0
  1  4  1  1  0  0  0
  2  5  1  0  0  0  0
  2  3  1  0  0  0  0
  2  1  1  0  0  0  0
  3  7  1  6  0  0  0
  3  1  1  0  0  0  0
  3 19  1  0  0  0  0
  6  2  1  0  0  0  0
  8  1  1  0  0  0  0
  8  9  1  0  0  0  0
  9 15  1  0  0  0  0
 10  9  2  0  0  0  0
 10 16  1  0  0  0  0
 11 10  1  0  0  0  0
 12 13  1  0  0  0  0
 12 11  2  0  0  0  0
 13  8  2  0  0  0  0
 14 12  1  0  0  0  0
 17 14  1  0  0  0  0
 18 14  1  0  0  0  0
 21 19  1  0  0  0  0
 21 22  1  0  0  0  0
 21 20  2  1  0  0  0
 22 23  1  0  0  0  0
 24 21  1  0  0  0  0
 25 26  1  0  0  0  0
 25 31  1  1  0  0  0
 26 24  1  1  0  0  0
 26 27  1  0  0  0  0
 28 27  1  0  0  0  0
 29 28  1  0  0  0  0
 29 33  1  1  0  0  0
 30 35  1  1  0  0  0
 30 25  1  0  0  0  0
 30 29  1  0  0  0  0
 32 31  1  0  0  0  0
 33 34  1  0  0  0  0
 35 36  1  0  0  0  0
M  END
>  <minimizedAffinity>
-4.93960333

>  <minimizedRMSD>
0.479198605

$$$$
