
 OpenBabel03272509583D

 49 52  0  0  1  0  0  0  0  0999 V2000
   33.5810   27.5330   47.7020 C   0  0  0  0  0  0  0  0  0  0  0  0
   33.8350   27.3560   46.6220 H   0  0  0  0  0  0  0  0  0  0  0  0
   33.7570   26.5620   48.2010 H   0  0  0  0  0  0  0  0  0  0  0  0
   32.1390   27.8930   47.7080 C   0  0  0  0  0  0  0  0  0  0  0  0
   31.3500   27.4150   48.7490 C   0  0  0  0  0  0  0  0  0  0  0  0
   30.0160   27.7000   48.8300 C   0  0  0  0  0  0  0  0  0  0  0  0
   29.4560   28.4530   47.8890 N   0  0  0  0  0  0  0  0  0  0  0  0
   30.2320   28.9210   46.8680 C   0  0  0  0  0  0  0  0  0  0  0  0
   31.5430   28.6590   46.7610 N   0  0  0  0  0  0  0  0  0  0  0  0
   31.7630   26.7960   49.5430 H   0  0  0  0  0  0  0  0  0  0  0  0
   29.4130   27.3180   49.6500 H   0  0  0  0  0  0  0  0  0  0  0  0
   29.5580   29.7560   45.8440 C   0  0  0  0  0  0  0  0  0  0  0  0
   29.0200   30.5980   46.3090 H   0  0  0  0  0  0  0  0  0  0  0  0
   30.2480   30.2040   45.1030 H   0  0  0  0  0  0  0  0  0  0  0  0
   27.7770   29.6640   44.0900 C   0  0  2  0  0  3  0  0  0  0  0  0
   28.5000   28.9010   45.1800 C   0  0  1  0  0  3  0  0  0  0  0  0
   29.0480   27.7680   44.5830 O   0  0  0  0  0  0  0  0  0  0  0  0
   28.0500   26.7980   44.5310 C   0  0  0  0  0  2  0  0  0  0  0  0
   26.6940   27.3890   44.2320 C   0  0  1  0  0  3  0  0  0  0  0  0
   26.7960   28.6860   43.4610 C   0  0  1  0  0  3  0  0  0  0  0  0
   28.7340   30.0630   43.1490 O   0  0  0  0  0  0  0  0  0  0  0  0
   28.6210   29.5310   42.3100 H   0  0  0  0  0  0  0  0  0  0  0  0
   26.0170   26.4800   43.4150 O   0  0  0  0  0  0  0  0  0  0  0  0
   25.3170   25.9700   43.9290 H   0  0  0  0  0  0  0  0  0  0  0  0
   25.5330   29.2770   43.5400 O   0  0  0  0  0  0  0  0  0  0  0  0
   25.0450   29.1930   42.6860 H   0  0  0  0  0  0  0  0  0  0  0  0
   34.4590   28.6440   48.1840 C   0  0  0  0  0  0  0  0  0  0  0  0
   33.8180   29.5570   48.2790 H   0  0  0  0  0  0  0  0  0  0  0  0
   35.2570   28.9220   47.4420 H   0  0  0  0  0  0  0  0  0  0  0  0
   35.0050   28.3660   49.4610 O   0  0  0  0  0  0  0  0  0  0  0  0
   37.3420   30.1790   51.5300 C   0  0  0  0  0  0  0  0  0  0  0  0
   38.0680   30.8660   50.5240 C   0  0  0  0  0  0  0  0  0  0  0  0
   37.7060   30.6610   49.2070 C   0  0  0  0  0  0  0  0  0  0  0  0
   36.6690   29.8040   48.9880 N   0  0  0  0  0  0  0  0  0  0  0  0
   35.9910   29.1600   49.9370 C   0  0  0  0  0  0  0  0  0  0  0  0
   36.3400   29.3570   51.2280 N   0  0  0  0  0  0  0  0  0  0  0  0
   37.6770   30.3850   52.5370 H   0  0  0  0  0  0  0  0  0  0  0  0
   38.8820   31.5370   50.7200 H   0  0  0  0  0  0  0  0  0  0  0  0
   38.9370   33.2760   49.0200 F   0  0  0  0  0  0  0  0  0  0  0  0
   38.9150   32.4880   47.9510 C   0  0  0  0  0  0  0  0  0  0  0  0
   38.3390   31.2810   48.0610 C   0  0  0  0  0  0  0  0  0  0  0  0
   38.3650   30.5240   46.8780 C   0  0  0  0  0  0  0  0  0  0  0  0
   38.9340   30.9930   45.7240 C   0  0  0  0  0  0  0  0  0  0  0  0
   39.5110   32.2430   45.6680 C   0  0  0  0  0  0  0  0  0  0  0  0
   39.4910   32.9820   46.8020 C   0  0  0  0  0  0  0  0  0  0  0  0
   37.9360   29.5290   46.8260 H   0  0  0  0  0  0  0  0  0  0  0  0
   38.9430   30.3880   44.8180 H   0  0  0  0  0  0  0  0  0  0  0  0
   39.9640   32.6260   44.7620 H   0  0  0  0  0  0  0  0  0  0  0  0
   39.9420   33.9710   46.7830 H   0  0  0  0  0  0  0  0  0  0  0  0
  1  4  1  0  0  0  0
  1 27  1  0  0  0  0
  1  3  1  0  0  0  0
  2  1  1  0  0  0  0
  4  5  1  0  0  0  0
  5  6  2  0  0  0  0
  5 10  1  0  0  0  0
  6 11  1  0  0  0  0
  7  6  1  0  0  0  0
  8  7  2  0  0  0  0
  9  8  1  0  0  0  0
  9  4  2  0  0  0  0
 12 13  1  0  0  0  0
 12  8  1  0  0  0  0
 14 12  1  0  0  0  0
 15 21  1  6  0  0  0
 15 16  1  0  0  0  0
 16 12  1  6  0  0  0
 17 16  1  0  0  0  0
 18 17  1  0  0  0  0
 19 23  1  6  0  0  0
 19 18  1  0  0  0  0
 20 25  1  1  0  0  0
 20 15  1  0  0  0  0
 20 19  1  0  0  0  0
 22 21  1  0  0  0  0
 23 24  1  0  0  0  0
 26 25  1  0  0  0  0
 27 28  1  0  0  0  0
 27 30  1  0  0  0  0
 29 27  1  0  0  0  0
 30 35  1  0  0  0  0
 31 37  1  0  0  0  0
 32 38  1  0  0  0  0
 32 31  2  0  0  0  0
 33 32  1  0  0  0  0
 34 33  2  0  0  0  0
 34 35  1  0  0  0  0
 35 36  2  0  0  0  0
 36 31  1  0  0  0  0
 40 41  1  0  0  0  0
 40 39  1  0  0  0  0
 41 33  1  0  0  0  0
 42 41  2  0  0  0  0
 43 42  1  0  0  0  0
 44 43  2  0  0  0  0
 44 45  1  0  0  0  0
 45 40  2  0  0  0  0
 46 42  1  0  0  0  0
 47 43  1  0  0  0  0
 48 44  1  0  0  0  0
 49 45  1  0  0  0  0
M  END
>  <minimizedAffinity>
-6.70159483

>  <minimizedRMSD>
0.734837174

$$$$
