
 OpenBabel03262521103D

 27 28  0  0  1  0  0  0  0  0999 V2000
   35.1780   29.9650   46.4210 O   0  0  0  0  0  0  0  0  0  0  0  0
   34.2610   29.4740   47.5180 P   0  0  1  0  0  0  0  0  0  0  0  0
   34.6140   27.8510   47.9060 O   0  0  0  0  0  0  0  0  0  0  0  0
   34.3270   27.6380   48.8270 H   0  0  0  0  0  0  0  0  0  0  0  0
   34.4470   30.3540   48.9680 O   0  0  0  0  0  0  0  0  0  0  0  0
   35.6260   30.3510   49.6960 C   0  0  0  0  0  0  0  0  0  0  0  0
   35.9210   29.4900   50.7590 C   0  0  0  0  0  0  0  0  0  0  0  0
   37.1490   29.6140   51.3860 C   0  0  0  0  0  0  0  0  0  0  0  0
   38.0300   30.5660   50.9510 N   0  0  0  0  0  0  0  0  0  0  0  0
   37.7130   31.3940   49.9080 C   0  0  0  0  0  0  0  0  0  0  0  0
   36.5110   31.2710   49.2980 N   0  0  0  0  0  0  0  0  0  0  0  0
   35.1580   28.7760   51.0220 H   0  0  0  0  0  0  0  0  0  0  0  0
   37.3760   28.9510   52.2050 H   0  0  0  0  0  0  0  0  0  0  0  0
   38.4180   32.1450   49.5740 H   0  0  0  0  0  0  0  0  0  0  0  0
   32.6880   29.6340   46.9440 O   0  0  0  0  0  0  0  0  0  0  0  0
   32.3130   27.6700   48.2880 C   0  0  2  0  0  0  0  0  0  0  0  0
   32.0870   28.3800   46.9700 C   0  0  2  0  0  0  0  0  0  0  0  0
   32.7250   27.6200   45.9990 O   0  0  0  0  0  0  0  0  0  0  0  0
   32.1000   26.4230   45.7380 C   0  0  0  0  0  0  0  0  0  0  0  0
   31.2750   25.8750   46.8440 C   0  0  2  0  0  0  0  0  0  0  0  0
   31.5290   26.3800   48.2080 C   0  0  2  0  0  0  0  0  0  0  0  0
   31.8750   28.4500   49.3670 O   0  0  0  0  0  0  0  0  0  0  0  0
   32.4840   28.2990   50.1260 H   0  0  0  0  0  0  0  0  0  0  0  0
   31.4570   24.4740   46.8680 O   0  0  0  0  0  0  0  0  0  0  0  0
   30.8260   24.0350   47.4600 H   0  0  0  0  0  0  0  0  0  0  0  0
   30.3280   26.6110   48.9150 O   0  0  0  0  0  0  0  0  0  0  0  0
   29.9970   25.7990   49.3710 H   0  0  0  0  0  0  0  0  0  0  0  0
  2  1  2  6  0  0  0
  2  3  1  0  0  0  0
  2  5  1  0  0  0  0
  3  4  1  0  0  0  0
  5  6  1  0  0  0  0
  6  7  1  0  0  0  0
  7 12  1  0  0  0  0
  7  8  2  0  0  0  0
  8 13  1  0  0  0  0
  9  8  1  0  0  0  0
 10  9  2  0  0  0  0
 11  6  2  0  0  0  0
 11 10  1  0  0  0  0
 14 10  1  0  0  0  0
 15  2  1  0  0  0  0
 16 22  1  1  0  0  0
 17 15  1  1  0  0  0
 17 16  1  0  0  0  0
 18 17  1  0  0  0  0
 19 18  1  0  0  0  0
 19 20  1  0  0  0  0
 20 24  1  1  0  0  0
 20 21  1  0  0  0  0
 21 16  1  0  0  0  0
 21 26  1  6  0  0  0
 22 23  1  0  0  0  0
 24 25  1  0  0  0  0
 26 27  1  0  0  0  0
M  END
>  <minimizedAffinity>
-4.56575298

>  <minimizedRMSD>
1.69422972

$$$$
