
 OpenBabel03272509583D

 49 52  0  0  1  0  0  0  0  0999 V2000
   33.5720   28.0480   47.1250 C   0  0  0  0  0  0  0  0  0  0  0  0
   33.5840   28.3040   46.0310 H   0  0  0  0  0  0  0  0  0  0  0  0
   33.9540   27.0110   47.1810 H   0  0  0  0  0  0  0  0  0  0  0  0
   32.1430   28.1220   47.5270 C   0  0  0  0  0  0  0  0  0  0  0  0
   31.7750   27.5590   48.7440 C   0  0  0  0  0  0  0  0  0  0  0  0
   30.4830   27.5840   49.1880 C   0  0  0  0  0  0  0  0  0  0  0  0
   29.5510   28.1610   48.4360 N   0  0  0  0  0  0  0  0  0  0  0  0
   29.9140   28.7130   47.2410 C   0  0  0  0  0  0  0  0  0  0  0  0
   31.1730   28.7050   46.7790 N   0  0  0  0  0  0  0  0  0  0  0  0
   32.5010   27.0760   49.3940 H   0  0  0  0  0  0  0  0  0  0  0  0
   30.2120   27.1390   50.1420 H   0  0  0  0  0  0  0  0  0  0  0  0
   28.8360   29.3450   46.4410 C   0  0  0  0  0  0  0  0  0  0  0  0
   27.9830   29.6290   47.0780 H   0  0  0  0  0  0  0  0  0  0  0  0
   29.1480   30.2670   45.9150 H   0  0  0  0  0  0  0  0  0  0  0  0
   28.4800   28.7390   44.0410 C   0  0  2  0  0  3  0  0  0  0  0  0
   28.3090   28.3010   45.4800 C   0  0  1  0  0  3  0  0  0  0  0  0
   28.9770   27.0870   45.6140 O   0  0  0  0  0  0  0  0  0  0  0  0
   28.1150   26.0840   45.1790 C   0  0  0  0  0  2  0  0  0  0  0  0
   27.2910   26.5150   43.9900 C   0  0  1  0  0  3  0  0  0  0  0  0
   27.9790   27.5900   43.1800 C   0  0  1  0  0  3  0  0  0  0  0  0
   29.8490   28.9460   43.8250 O   0  0  0  0  0  0  0  0  0  0  0  0
   30.2080   28.2220   43.2360 H   0  0  0  0  0  0  0  0  0  0  0  0
   27.1510   25.4010   43.1580 O   0  0  0  0  0  0  0  0  0  0  0  0
   26.2320   24.9960   43.2330 H   0  0  0  0  0  0  0  0  0  0  0  0
   27.0000   28.1170   42.3360 O   0  0  0  0  0  0  0  0  0  0  0  0
   27.1220   27.8030   41.4070 H   0  0  0  0  0  0  0  0  0  0  0  0
   34.4250   29.0600   47.8240 C   0  0  0  0  0  0  0  0  0  0  0  0
   33.7380   29.8300   48.2570 H   0  0  0  0  0  0  0  0  0  0  0  0
   35.0930   29.6260   47.1190 H   0  0  0  0  0  0  0  0  0  0  0  0
   35.1560   28.4840   48.8900 O   0  0  0  0  0  0  0  0  0  0  0  0
   37.2960   30.0920   51.3130 C   0  0  0  0  0  0  0  0  0  0  0  0
   38.0870   30.8850   50.4430 C   0  0  0  0  0  0  0  0  0  0  0  0
   37.8320   30.8140   49.0870 C   0  0  0  0  0  0  0  0  0  0  0  0
   36.8290   29.9760   48.7000 N   0  0  0  0  0  0  0  0  0  0  0  0
   36.0890   29.2330   49.5220 C   0  0  0  0  0  0  0  0  0  0  0  0
   36.3330   29.2970   50.8500 N   0  0  0  0  0  0  0  0  0  0  0  0
   37.5480   30.1950   52.3590 H   0  0  0  0  0  0  0  0  0  0  0  0
   38.8730   31.5380   50.7700 H   0  0  0  0  0  0  0  0  0  0  0  0
   38.8690   33.5160   49.2050 F   0  0  0  0  0  0  0  0  0  0  0  0
   39.0310   32.8030   48.0960 C   0  0  0  0  0  0  0  0  0  0  0  0
   38.5420   31.5540   48.0640 C   0  0  0  0  0  0  0  0  0  0  0  0
   38.7630   30.8830   46.8500 C   0  0  0  0  0  0  0  0  0  0  0  0
   39.4220   31.4690   45.8020 C   0  0  0  0  0  0  0  0  0  0  0  0
   39.9030   32.7570   45.8900 C   0  0  0  0  0  0  0  0  0  0  0  0
   39.6960   33.4140   47.0560 C   0  0  0  0  0  0  0  0  0  0  0  0
   38.4210   29.8660   46.6870 H   0  0  0  0  0  0  0  0  0  0  0  0
   39.5820   30.9300   44.8690 H   0  0  0  0  0  0  0  0  0  0  0  0
   40.4250   33.2320   45.0700 H   0  0  0  0  0  0  0  0  0  0  0  0
   40.0670   34.4300   47.1500 H   0  0  0  0  0  0  0  0  0  0  0  0
  1  3  1  0  0  0  0
  1  4  1  0  0  0  0
  1 27  1  0  0  0  0
  2  1  1  0  0  0  0
  4  5  1  0  0  0  0
  5  6  2  0  0  0  0
  5 10  1  0  0  0  0
  6 11  1  0  0  0  0
  7  6  1  0  0  0  0
  8  7  2  0  0  0  0
  9  8  1  0  0  0  0
  9  4  2  0  0  0  0
 12 13  1  0  0  0  0
 12  8  1  0  0  0  0
 14 12  1  0  0  0  0
 15 21  1  6  0  0  0
 15 16  1  0  0  0  0
 16 17  1  0  0  0  0
 16 12  1  1  0  0  0
 18 17  1  0  0  0  0
 19 23  1  6  0  0  0
 19 18  1  0  0  0  0
 20 25  1  6  0  0  0
 20 19  1  0  0  0  0
 20 15  1  0  0  0  0
 22 21  1  0  0  0  0
 23 24  1  0  0  0  0
 26 25  1  0  0  0  0
 27 28  1  0  0  0  0
 27 30  1  0  0  0  0
 29 27  1  0  0  0  0
 30 35  1  0  0  0  0
 31 37  1  0  0  0  0
 32 38  1  0  0  0  0
 32 31  2  0  0  0  0
 33 32  1  0  0  0  0
 34 33  2  0  0  0  0
 34 35  1  0  0  0  0
 35 36  2  0  0  0  0
 36 31  1  0  0  0  0
 40 39  1  0  0  0  0
 41 40  1  0  0  0  0
 41 33  1  0  0  0  0
 42 41  2  0  0  0  0
 43 44  2  0  0  0  0
 43 42  1  0  0  0  0
 44 45  1  0  0  0  0
 45 49  1  0  0  0  0
 45 40  2  0  0  0  0
 46 42  1  0  0  0  0
 47 43  1  0  0  0  0
 48 44  1  0  0  0  0
M  END
>  <minimizedAffinity>
-6.53274488

>  <minimizedRMSD>
0.832439959

$$$$
