
     RDKit          3D

 33 34  0  0  0  0  0  0  0  0999 V2000
   37.3399   30.1569   51.3555 C   0  0  0  0  0  0  0  0  0  0  0  0
   37.9939   30.5052   50.1751 C   0  0  0  0  0  0  0  0  0  0  0  0
   37.4153   30.1413   48.9471 C   0  0  0  0  0  0  0  0  0  0  0  0
   36.2396   29.4640   48.9893 N   0  0  0  0  0  0  0  0  0  0  0  0
   35.6383   29.1458   50.1573 C   0  0  0  0  0  0  0  0  0  0  0  0
   36.1878   29.4916   51.3310 N   0  0  0  0  0  0  0  0  0  0  0  0
   37.8669   30.3709   47.6903 O   0  0  0  0  0  0  0  0  0  0  0  0
   39.0596   32.7297   48.1393 O   0  0  0  0  0  0  0  0  0  0  0  0
   38.7007   31.7251   47.1047 P   0  0  2  0  0  0  0  0  0  0  0  0
   37.8261   32.4608   45.8519 O   0  0  0  0  0  0  0  0  0  0  0  0
   40.1519   31.1808   46.4116 O   0  0  0  0  0  0  0  0  0  0  0  0
   37.8967   30.4990   52.2060 H   0  0  0  0  0  0  0  0  0  0  0  0
   38.9215   31.0375   50.0582 H   0  0  0  0  0  0  0  0  0  0  0  0
   34.6962   28.6025   50.1684 H   0  0  0  0  0  0  0  0  0  0  0  0
   37.5281   33.3687   46.0584 H   0  0  0  0  0  0  0  0  0  0  0  0
   38.6808   31.9878   44.4161 O   0  0  0  0  0  0  0  0  0  0  0  0
   40.0538   31.9480   44.2267 C   0  0  2  0  0  0  0  0  0  0  0  0
   40.7295   32.1286   45.5755 C   0  0  1  0  0  0  0  0  0  0  0  0
   40.3754   33.3872   46.0491 O   0  0  0  0  0  0  0  0  0  0  0  0
   41.0214   34.4104   45.3708 C   0  0  0  0  0  0  0  0  0  0  0  0
   41.4387   34.0115   43.9788 C   0  0  2  0  0  0  0  0  0  0  0  0
   41.4425   35.1686   43.1906 O   0  0  0  0  0  0  0  0  0  0  0  0
   40.4763   33.0596   43.3308 C   0  0  2  0  0  0  0  0  0  0  0  0
   39.3769   33.6968   42.8130 O   0  0  0  0  0  0  0  0  0  0  0  0
   38.4372   32.6883   45.0657 H   0  0  0  0  0  0  0  0  0  0  0  0
   40.3836   30.9412   43.8579 H   0  0  0  0  0  0  0  0  0  0  0  0
   41.8198   32.0790   45.5239 H   0  0  0  0  0  0  0  0  0  0  0  0
   41.9702   34.6270   45.9340 H   0  0  0  0  0  0  0  0  0  0  0  0
   40.4238   35.3296   45.3995 H   0  0  0  0  0  0  0  0  0  0  0  0
   42.4440   33.5504   43.9943 H   0  0  0  0  0  0  0  0  0  0  0  0
   41.8649   35.0135   42.3089 H   0  0  0  0  0  0  0  0  0  0  0  0
   41.0069   32.5976   42.4496 H   0  0  0  0  0  0  0  0  0  0  0  0
   39.4244   34.6793   42.8716 H   0  0  0  0  0  0  0  0  0  0  0  0
  2  1  2  0
  3  4  2  0
  3  2  1  0
  4  5  1  0
  5  6  2  0
  6  1  1  0
  7  3  1  0
  9  7  1  1
  9  8  2  0
 10  9  1  0
 11  9  1  0
  1 12  1  0
  2 13  1  0
  5 14  1  0
 10 15  1  0
 16 17  1  0
 17 18  1  0
 18 19  1  0
 19 20  1  0
 20 21  1  0
 21 22  1  0
 21 23  1  0
 23 24  1  0
 23 17  1  0
 16 25  1  0
 17 26  1  6
 18 27  1  6
 20 28  1  0
 20 29  1  0
 21 30  1  1
 22 31  1  0
 23 32  1  6
 24 33  1  0
 11 18  1  0
M  ISO  4  12  14  13  14  14  14  15   3
M  END
>  <DihAtoms>  (1) 
8,10,17,16

>  <DihDeg>  (1) 
125.29268121756033

$$$$
