REMARK  Name = 
REMARK  6 active torsions:
REMARK  status: ('A' for Active; 'I' for Inactive)
REMARK    1  A    between atoms: C_2  and  C_12
REMARK    2  A    between atoms: C_6  and  O_16
REMARK    3  A    between atoms: O_16  and  C_26
REMARK    4  A    between atoms: O_24  and  C_25
REMARK    5  A    between atoms: C_29  and  O_30
REMARK    6  A    between atoms: C_31  and  O_32
REMARK                            x       y       z     vdW  Elec       q    Type
REMARK                         _______ _______ _______ _____ _____    ______ ____
ROOT
ATOM      1  C   UNL     1      36.848  30.555  46.913  0.00  0.00    +0.000 A 
ATOM      2  C   UNL     1      37.516  31.038  48.028  0.00  0.00    +0.000 A 
ATOM      3  C   UNL     1      38.518  31.998  47.904  0.00  0.00    +0.000 A 
ATOM      4  C   UNL     1      38.805  32.434  46.616  0.00  0.00    +0.000 A 
ATOM      5  N   UNL     1      39.727  33.353  46.220  0.00  0.00    +0.000 N 
ATOM      6  C   UNL     1      39.648  33.450  44.896  0.00  0.00    +0.000 A 
ATOM      7  N   UNL     1      38.714  32.630  44.438  0.00  0.00    +0.000 NA
ATOM      8  C   UNL     1      38.158  31.973  45.476  0.00  0.00    +0.000 A 
ATOM      9  C   UNL     1      37.164  31.017  45.635  0.00  0.00    +0.000 A 
ATOM     10  H   UNL     1      36.063  29.811  46.952  0.00  0.00    +0.000 HD
ATOM     11  H   UNL     1      39.024  32.363  48.764  0.00  0.00    +0.000 HD
ATOM     12  H   UNL     1      40.374  33.877  46.880  0.00  0.00    +0.000 HD
ATOM     13  H   UNL     1      36.655  30.654  44.745  0.00  0.00    +0.000 HD
ENDROOT
BRANCH   2  16
ATOM     14  C   UNL     1      37.380  30.086  51.656  0.00  0.00    +0.000 A 
ATOM     15  C   UNL     1      37.867  30.651  50.482  0.00  0.00    +0.000 A 
ATOM     16  C   UNL     1      37.120  30.499  49.318  0.00  0.00    +0.000 A 
ATOM     17  N   UNL     1      35.950  29.803  49.398  0.00  0.00    +0.000 NA
ATOM     18  C   UNL     1      35.503  29.265  50.559  0.00  0.00    +0.000 A 
ATOM     19  N   UNL     1      36.219  29.411  51.672  0.00  0.00    +0.000 NA
ATOM     20  H   UNL     1      37.959  30.201  52.569  0.00  0.00    +0.000 HD
ATOM     21  H   UNL     1      38.795  31.201  50.429  0.00  0.00    +0.000 HD
ATOM     22  H   UNL     1      34.563  28.740  50.482  0.00  0.00    +0.000 HD
ENDBRANCH   2  16
BRANCH   6  23
ATOM     23  O   UNL     1      40.459  34.309  44.150  0.00  0.00    +0.000 OA
BRANCH  23  25
ATOM     24  C   UNL     1      39.318  33.519  42.163  0.00  0.00    +0.000 C 
ATOM     25  C   UNL     1      40.381  34.416  42.756  0.00  0.00    +0.000 C 
ATOM     26  O   UNL     1      40.138  35.741  42.426  0.00  0.00    +0.000 OA
ATOM     27  C   UNL     1      39.663  35.873  41.133  0.00  0.00    +0.000 C 
ATOM     28  C   UNL     1      38.213  35.502  41.109  0.00  0.00    +0.000 C 
ATOM     29  C   UNL     1      38.008  34.268  41.961  0.00  0.00    +0.000 C 
BRANCH  24  30
ATOM     30  O   UNL     1      39.792  32.976  40.956  0.00  0.00    +0.000 OA
ATOM     31  H   UNL     1      40.774  32.986  41.012  0.00  0.00    +0.000 HD
ENDBRANCH  24  30
BRANCH  28  32
ATOM     32  O   UNL     1      37.816  35.272  39.792  0.00  0.00    +0.000 OA
ATOM     33  H   UNL     1      37.447  34.373  39.688  0.00  0.00    +0.000 HD
ENDBRANCH  28  32
BRANCH  29  34
ATOM     34  O   UNL     1      37.545  34.603  43.232  0.00  0.00    +0.000 OA
ATOM     35  H   UNL     1      36.998  33.869  43.596  0.00  0.00    +0.000 HD
ENDBRANCH  29  34
ENDBRANCH  23  25
ENDBRANCH   6  23
TORSDOF 6
