REMARK  Name = 
REMARK  7 active torsions:
REMARK  status: ('A' for Active; 'I' for Inactive)
REMARK    1  A    between atoms: C_3  and  C_7
REMARK    2  A    between atoms: C_8  and  C_9
REMARK    3  A    between atoms: C_9  and  S_10
REMARK    4  A    between atoms: S_10  and  C_20
REMARK    5  A    between atoms: O_18  and  C_19
REMARK    6  A    between atoms: C_23  and  O_24
REMARK    7  A    between atoms: C_25  and  O_26
REMARK                            x       y       z     vdW  Elec       q    Type
REMARK                         _______ _______ _______ _____ _____    ______ ____
ROOT
ATOM      1  C   UNL     1      39.431  32.525  46.557  0.00  0.00    +0.000 C 
ATOM      2  H   UNL     1      39.767  33.556  46.690  0.00  0.00    +0.000 HD
ATOM      3  H   UNL     1      40.370  31.944  46.315  0.00  0.00    +0.000 HD
ENDROOT
BRANCH   1   5
ATOM      4  C   UNL     1      38.193  30.794  47.820  0.00  0.00    +0.000 C 
ATOM      5  C   UNL     1      38.800  31.937  47.759  0.00  0.00    +0.000 C 
BRANCH   4   8
ATOM      6  C   UNL     1      37.321  30.253  51.400  0.00  0.00    +0.000 A 
ATOM      7  C   UNL     1      37.975  30.717  50.251  0.00  0.00    +0.000 A 
ATOM      8  C   UNL     1      37.544  30.348  49.005  0.00  0.00    +0.000 A 
ATOM      9  N   UNL     1      36.459  29.518  48.906  0.00  0.00    +0.000 NA
ATOM     10  C   UNL     1      35.850  29.090  50.038  0.00  0.00    +0.000 A 
ATOM     11  N   UNL     1      36.272  29.449  51.267  0.00  0.00    +0.000 NA
ATOM     12  H   UNL     1      37.654  30.525  52.406  0.00  0.00    +0.000 HD
ATOM     13  H   UNL     1      38.822  31.367  50.400  0.00  0.00    +0.000 HD
ATOM     14  H   UNL     1      34.973  28.425  50.056  0.00  0.00    +0.000 HD
ENDBRANCH   4   8
ENDBRANCH   1   5
BRANCH   1  15
ATOM     15  S   UNL     1      38.255  32.381  45.168  0.00  0.00    +0.000 S 
BRANCH  15  17
ATOM     16  C   UNL     1      37.768  30.274  43.576  0.00  0.00    +0.000 C 
ATOM     17  C   UNL     1      38.892  31.253  43.855  0.00  0.00    +0.000 C 
ATOM     18  O   UNL     1      40.000  30.640  44.395  0.00  0.00    +0.000 OA
ATOM     19  C   UNL     1      40.429  29.492  43.801  0.00  0.00    +0.000 C 
ATOM     20  C   UNL     1      39.377  28.411  44.040  0.00  0.00    +0.000 C 
ATOM     21  C   UNL     1      38.161  28.875  43.296  0.00  0.00    +0.000 C 
BRANCH  16  22
ATOM     22  O   UNL     1      37.025  30.729  42.490  0.00  0.00    +0.000 OA
ATOM     23  H   UNL     1      36.044  30.595  42.635  0.00  0.00    +0.000 HD
ENDBRANCH  16  22
BRANCH  20  24
ATOM     24  O   UNL     1      39.140  28.266  45.385  0.00  0.00    +0.000 OA
ATOM     25  H   UNL     1      38.193  28.444  45.639  0.00  0.00    +0.000 HD
ENDBRANCH  20  24
BRANCH  21  26
ATOM     26  O   UNL     1      38.245  28.622  41.924  0.00  0.00    +0.000 OA
ATOM     27  H   UNL     1      37.296  28.605  41.599  0.00  0.00    +0.000 HD
ENDBRANCH  21  26
ENDBRANCH  15  17
ENDBRANCH   1  15
TORSDOF 7
