
 OpenBabel03262522203D

 22 23  0  0  1  0  0  0  0  0999 V2000
   37.9660   30.8520   46.3350 C   0  0  2  0  0  0  0  0  0  0  0  0
   37.8970   30.9270   47.8280 C   0  0  1  0  0  0  0  0  0  0  0  0
   38.7120   31.8740   48.4110 O   0  0  0  0  0  0  0  0  0  0  0  0
   39.1600   32.8900   47.6280 C   0  0  0  0  0  0  0  0  0  0  0  0
   39.7550   32.4670   46.3130 C   0  0  1  0  0  0  0  0  0  0  0  0
   39.4360   31.0330   45.9690 C   0  0  2  0  0  0  0  0  0  0  0  0
   37.2840   31.8470   45.6650 O   0  0  0  0  0  0  0  0  0  0  0  0
   36.3390   31.9420   45.9010 H   0  0  0  0  0  0  0  0  0  0  0  0
   39.1780   33.2500   45.2960 O   0  0  0  0  0  0  0  0  0  0  0  0
   39.1180   32.7300   44.4520 H   0  0  0  0  0  0  0  0  0  0  0  0
   39.6150   30.8040   44.6070 O   0  0  0  0  0  0  0  0  0  0  0  0
   39.0600   30.0310   44.3840 H   0  0  0  0  0  0  0  0  0  0  0  0
   36.6120   31.0580   48.3430 O   0  0  0  0  0  0  0  0  0  0  0  0
   35.7260   29.1250   49.2710 C   0  0  0  0  0  0  0  0  0  0  0  0
   35.5810   30.1580   48.3130 C   0  0  0  0  0  0  0  0  0  0  0  0
   34.4530   30.1110   47.5110 C   0  0  0  0  0  0  0  0  0  0  0  0
   33.5690   29.1090   47.6760 N   0  0  0  0  0  0  0  0  0  0  0  0
   33.7270   28.1450   48.5870 C   0  0  0  0  0  0  0  0  0  0  0  0
   34.8060   28.1440   49.3910 N   0  0  0  0  0  0  0  0  0  0  0  0
   36.5570   29.0350   49.9650 H   0  0  0  0  0  0  0  0  0  0  0  0
   34.4040   30.9110   46.8160 H   0  0  0  0  0  0  0  0  0  0  0  0
   33.0130   27.3430   48.7130 H   0  0  0  0  0  0  0  0  0  0  0  0
  1  7  1  6  0  0  0
  1  2  1  0  0  0  0
  2 13  1  6  0  0  0
  2  3  1  0  0  0  0
  4  3  1  0  0  0  0
  5  9  1  6  0  0  0
  5  4  1  0  0  0  0
  6 11  1  6  0  0  0
  6  5  1  0  0  0  0
  6  1  1  0  0  0  0
  7  8  1  0  0  0  0
 10  9  1  0  0  0  0
 12 11  1  0  0  0  0
 14 19  1  0  0  0  0
 14 20  1  0  0  0  0
 15 13  1  0  0  0  0
 15 14  2  0  0  0  0
 16 17  2  0  0  0  0
 16 15  1  0  0  0  0
 17 18  1  0  0  0  0
 18 22  1  0  0  0  0
 18 19  2  0  0  0  0
 21 16  1  0  0  0  0
M  END
>  <minimizedAffinity>
-5.00556087

>  <minimizedRMSD>
2.22772336

$$$$
