
 OpenBabel03272509433D

 41 43  0  0  1  0  0  0  0  0999 V2000
   37.0080   30.9050   49.1030 C   0  0  0  0  0  0  0  0  0  0  0  0
   36.7020   31.8180   50.1130 C   0  0  0  0  0  0  0  0  0  0  0  0
   37.2820   33.0800   50.1570 C   0  0  0  0  0  0  0  0  0  0  0  0
   38.1940   33.4500   49.1650 C   0  0  0  0  0  0  0  0  0  0  0  0
   38.4820   32.5440   48.1840 C   0  0  0  0  0  0  0  0  0  0  0  0
   37.8860   31.2930   48.1720 C   0  0  0  0  0  0  0  0  0  0  0  0
   35.9850   31.5130   50.8800 H   0  0  0  0  0  0  0  0  0  0  0  0
   36.9730   33.6990   50.9790 H   0  0  0  0  0  0  0  0  0  0  0  0
   38.5880   34.4390   49.2770 H   0  0  0  0  0  0  0  0  0  0  0  0
   39.2060   32.9750   47.4890 H   0  0  0  0  0  0  0  0  0  0  0  0
   36.4340   29.5770   49.0790 C   0  0  2  0  0  0  0  0  0  0  0  0
   36.9400   29.0420   48.1860 H   0  0  0  0  0  0  0  0  0  0  0  0
   33.5830   29.8900   46.8500 C   0  0  0  0  0  0  0  0  0  0  0  0
   32.8410   28.7470   47.0930 C   0  0  0  0  0  0  0  0  0  0  0  0
   33.2810   27.8830   48.0770 C   0  0  0  0  0  0  0  0  0  0  0  0
   34.4320   28.1820   48.7750 N   0  0  0  0  0  0  0  0  0  0  0  0
   35.0960   29.2840   48.4940 C   0  0  0  0  0  0  0  0  0  0  0  0
   34.6810   30.1380   47.5420 N   0  0  0  0  0  0  0  0  0  0  0  0
   33.2110   30.5450   46.0730 H   0  0  0  0  0  0  0  0  0  0  0  0
   31.9310   28.4450   46.5870 H   0  0  0  0  0  0  0  0  0  0  0  0
   32.7980   26.9560   48.3730 H   0  0  0  0  0  0  0  0  0  0  0  0
   36.9100   28.8170   50.0040 O   0  0  0  0  0  0  0  0  0  0  0  0
   36.7830   29.1950   50.9310 H   0  0  0  0  0  0  0  0  0  0  0  0
   38.3010   30.4250   47.0950 C   0  0  0  0  0  3  0  0  0  0  0  0
   38.8660   30.8610   45.9630 C   0  0  0  0  0  3  0  0  0  0  0  0
   39.3670   30.0650   44.8180 C   0  0  0  0  0  0  0  0  0  0  0  0
   40.4920   30.0210   44.7870 H   0  0  0  0  0  0  0  0  0  0  0  0
   39.0260   29.0180   44.9180 H   0  0  0  0  0  0  0  0  0  0  0  0
   38.7800   30.7860   43.2820 S   0  0  0  0  0  0  0  0  0  0  0  0
   39.7930   31.7040   40.9680 C   0  0  1  0  0  3  0  0  0  0  0  0
   39.8420   30.4860   41.8750 C   0  0  2  0  0  3  0  0  0  0  0  0
   39.4940   29.3270   41.1970 O   0  0  0  0  0  0  0  0  0  0  0  0
   40.2340   29.2740   40.0100 C   0  0  0  0  0  2  0  0  0  0  0  0
   39.5290   30.1990   39.0420 C   0  0  1  0  0  3  0  0  0  0  0  0
   38.9710   31.4310   39.7160 C   0  0  2  0  0  3  0  0  0  0  0  0
   39.1780   32.7770   41.6160 O   0  0  0  0  0  0  0  0  0  0  0  0
   39.2310   32.7200   42.6030 H   0  0  0  0  0  0  0  0  0  0  0  0
   40.4140   30.6290   38.0800 O   0  0  0  0  0  0  0  0  0  0  0  0
   41.2600   30.1520   38.0950 H   0  0  0  0  0  0  0  0  0  0  0  0
   39.0750   32.5620   38.9090 O   0  0  0  0  0  0  0  0  0  0  0  0
   40.0040   32.8600   38.7900 H   0  0  0  0  0  0  0  0  0  0  0  0
  1  2  1  0  0  0  0
  2  3  2  0  0  0  0
  2  7  1  0  0  0  0
  3  8  1  0  0  0  0
  4  9  1  0  0  0  0
  4  3  1  0  0  0  0
  5  4  2  0  0  0  0
  6  5  1  0  0  0  0
  6  1  2  0  0  0  0
 10  5  1  0  0  0  0
 11 12  1  6  0  0  0
 11  1  1  0  0  0  0
 11 22  1  0  0  0  0
 13 14  2  0  0  0  0
 13 18  1  0  0  0  0
 14 15  1  0  0  0  0
 15 21  1  0  0  0  0
 15 16  2  0  0  0  0
 17 16  1  0  0  0  0
 17 11  1  0  0  0  0
 18 17  2  0  0  0  0
 19 13  1  0  0  0  0
 20 14  1  0  0  0  0
 22 23  1  0  0  0  0
 24  6  1  0  0  0  0
 25 24  2  0  0  0  0
 26 28  1  0  0  0  0
 26 25  1  0  0  0  0
 27 26  1  0  0  0  0
 29 26  1  0  0  0  0
 30 36  1  1  0  0  0
 30 31  1  0  0  0  0
 31 29  1  1  0  0  0
 32 31  1  0  0  0  0
 33 32  1  0  0  0  0
 34 38  1  6  0  0  0
 34 35  1  0  0  0  0
 34 33  1  0  0  0  0
 35 40  1  6  0  0  0
 35 30  1  0  0  0  0
 36 37  1  0  0  0  0
 38 39  1  0  0  0  0
 41 40  1  0  0  0  0
M  END
>  <minimizedAffinity>
-5.62462902

>  <minimizedRMSD>
0.591157675

$$$$
