
     RDKit          3D

 41 43  0  0  0  0  0  0  0  0999 V2000
   38.0215   30.3153   50.1940 C   0  0  0  0  0  0  0  0  0  0  0  0
   37.3968   30.5004   48.9279 C   0  0  0  0  0  0  0  0  0  0  0  0
   36.0673   30.1026   48.8101 C   0  0  0  0  0  0  0  0  0  0  0  0
   35.4269   29.5673   49.8718 N   0  0  0  0  0  0  0  0  0  0  0  0
   36.0609   29.4024   51.0822 C   0  0  0  0  0  0  0  0  0  0  0  0
   37.3597   29.7807   51.2309 N   0  0  0  0  0  0  0  0  0  0  0  0
   38.1971   31.0792   47.8942 C   0  0  0  0  0  0  0  0  0  0  0  0
   38.5299   30.2751   46.8258 C   0  0  0  0  0  0  0  0  0  0  0  0
   39.2923   30.6591   45.7386 C   0  0  0  0  0  0  0  0  0  0  0  0
   39.7764   31.9808   45.7070 C   0  0  0  0  0  0  0  0  0  0  0  0
   39.4473   32.7909   46.7727 C   0  0  0  0  0  0  0  0  0  0  0  0
   38.6861   32.3811   47.8420 C   0  0  0  0  0  0  0  0  0  0  0  0
   38.2519   33.4187   49.2290 S   0  0  0  0  0  0  0  0  0  0  0  0
   35.2864   30.2355   47.5476 C   0  0  0  0  0  0  0  0  0  0  0  0
   34.0140   30.7738   47.8288 F   0  0  0  0  0  0  0  0  0  0  0  0
   35.8510   30.9789   46.5625 F   0  0  0  0  0  0  0  0  0  0  0  0
   34.9954   28.9661   47.0337 F   0  0  0  0  0  0  0  0  0  0  0  0
   39.0546   30.6139   50.3196 H   0  0  0  0  0  0  0  0  0  0  0  0
   35.4433   28.9623   51.8586 H   0  0  0  0  0  0  0  0  0  0  0  0
   38.1878   29.2312   46.7809 H   0  0  0  0  0  0  0  0  0  0  0  0
   39.5197   29.9781   44.9281 H   0  0  0  0  0  0  0  0  0  0  0  0
   40.3734   32.3469   44.8958 H   0  0  0  0  0  0  0  0  0  0  0  0
   39.8016   33.8261   46.7911 H   0  0  0  0  0  0  0  0  0  0  0  0
   40.8203   34.3354   47.9164 O   0  0  0  0  0  0  0  0  0  0  0  0
   39.6991   35.1551   47.7812 C   0  0  1  0  0  0  0  0  0  0  0  0
   38.9289   35.0798   49.0706 C   0  0  1  0  0  0  0  0  0  0  0  0
   37.9356   36.0448   49.1605 O   0  0  0  0  0  0  0  0  0  0  0  0
   38.5611   37.2604   49.2761 C   0  0  0  0  0  0  0  0  0  0  0  0
   39.3270   37.6305   48.0565 C   0  0  1  0  0  0  0  0  0  0  0  0
   40.2351   38.6476   48.4335 O   0  0  0  0  0  0  0  0  0  0  0  0
   40.0426   36.5433   47.3537 C   0  0  2  0  0  0  0  0  0  0  0  0
   39.8734   36.7120   45.9688 O   0  0  0  0  0  0  0  0  0  0  0  0
   40.6803   33.4064   47.6075 H   0  0  0  0  0  0  0  0  0  0  0  0
   39.0789   34.7054   46.9725 H   0  0  0  0  0  0  0  0  0  0  0  0
   39.6555   35.2479   49.8972 H   0  0  0  0  0  0  0  0  0  0  0  0
   39.2142   37.3709   50.1620 H   0  0  0  0  0  0  0  0  0  0  0  0
   37.7507   38.0309   49.4338 H   0  0  0  0  0  0  0  0  0  0  0  0
   38.6248   38.1712   47.3602 H   0  0  0  0  0  0  0  0  0  0  0  0
   40.3415   38.6851   49.4039 H   0  0  0  0  0  0  0  0  0  0  0  0
   41.1523   36.6648   47.5281 H   0  0  0  0  0  0  0  0  0  0  0  0
   38.9464   36.9551   45.7436 H   0  0  0  0  0  0  0  0  0  0  0  0
  1  6  2  0
  2  1  1  0
  3  2  2  0
  3  4  1  0
  4  5  2  0
  5  6  1  0
  7  2  1  0
  8  7  2  0
  9  8  1  0
 10  9  2  0
 10 11  1  0
 11 12  2  0
 12  7  1  0
 12 13  1  0
 14 15  1  0
 14  3  1  0
 16 14  1  0
 17 14  1  0
  1 18  1  0
  5 19  1  0
  8 20  1  0
  9 21  1  0
 10 22  1  0
 11 23  1  0
 24 25  1  0
 25 26  1  0
 26 27  1  0
 27 28  1  0
 28 29  1  0
 29 30  1  0
 29 31  1  0
 31 32  1  0
 31 25  1  0
 24 33  1  0
 25 34  1  6
 26 35  1  1
 28 36  1  0
 28 37  1  0
 29 38  1  6
 30 39  1  0
 31 40  1  6
 32 41  1  0
 13 26  1  0
M  ISO  6  18  14  19  14  20  14  21  14  22  14  23  14
M  END
>  <DihAtoms>  (1) 
11,12,25,24

>  <DihDeg>  (1) 
-179.99849044044998

$$$$
