REMARK  Name = 
REMARK  8 active torsions:
REMARK  status: ('A' for Active; 'I' for Inactive)
REMARK    1  A    between atoms: C_1  and  C_7
REMARK    2  A    between atoms: C_6  and  C_15
REMARK    3  A    between atoms: C_7  and  C_13
REMARK    4  A    between atoms: C_16  and  C_17
REMARK    5  A    between atoms: C_17  and  C_31
REMARK    6  A    between atoms: O_29  and  C_30
REMARK    7  A    between atoms: C_34  and  O_35
REMARK    8  A    between atoms: C_36  and  O_37
REMARK                            x       y       z     vdW  Elec       q    Type
REMARK                         _______ _______ _______ _____ _____    ______ ____
ROOT
ATOM      1  C   UNL     1      37.131  30.954  49.018  0.00  0.00    +0.000 A 
ATOM      2  C   UNL     1      36.917  31.930  50.006  0.00  0.00    +0.000 A 
ATOM      3  C   UNL     1      37.555  33.163  49.985  0.00  0.00    +0.000 A 
ATOM      4  C   UNL     1      38.447  33.467  48.952  0.00  0.00    +0.000 A 
ATOM      5  C   UNL     1      38.648  32.498  47.987  0.00  0.00    +0.000 A 
ATOM      6  C   UNL     1      37.997  31.277  48.036  0.00  0.00    +0.000 A 
ATOM      7  H   UNL     1      36.233  31.734  50.824  0.00  0.00    +0.000 HD
ATOM      8  H   UNL     1      37.345  33.868  50.778  0.00  0.00    +0.000 HD
ATOM      9  H   UNL     1      38.931  34.436  48.961  0.00  0.00    +0.000 HD
ATOM     10  H   UNL     1      39.351  32.820  47.231  0.00  0.00    +0.000 HD
ENDROOT
BRANCH   1  11
ATOM     11  C   UNL     1      36.425  29.706  49.123  0.00  0.00    +0.000 C 
ATOM     12  O   UNL     1      36.929  28.865  49.943  0.00  0.00    +0.000 OA
BRANCH  11  17
ATOM     13  C   UNL     1      33.630  30.185  46.849  0.00  0.00    +0.000 A 
ATOM     14  C   UNL     1      32.962  28.963  46.873  0.00  0.00    +0.000 A 
ATOM     15  C   UNL     1      33.470  27.954  47.681  0.00  0.00    +0.000 A 
ATOM     16  N   UNL     1      34.593  28.190  48.414  0.00  0.00    +0.000 NA
ATOM     17  C   UNL     1      35.211  29.360  48.374  0.00  0.00    +0.000 A 
ATOM     18  N   UNL     1      34.715  30.346  47.586  0.00  0.00    +0.000 NA
ATOM     19  H   UNL     1      33.199  30.942  46.206  0.00  0.00    +0.000 HD
ATOM     20  H   UNL     1      32.070  28.823  46.271  0.00  0.00    +0.000 HD
ATOM     21  H   UNL     1      32.984  26.988  47.731  0.00  0.00    +0.000 HD
ENDBRANCH  11  17
ENDBRANCH   1  11
BRANCH   6  22
ATOM     22  C   UNL     1      38.340  30.390  46.961  0.00  0.00    +0.000 C 
ATOM     23  C   UNL     1      38.787  30.699  45.757  0.00  0.00    +0.000 C 
BRANCH  23  24
ATOM     24  C   UNL     1      39.202  29.911  44.601  0.00  0.00    +0.000 C 
ATOM     25  H   UNL     1      38.619  30.270  43.715  0.00  0.00    +0.000 HD
ATOM     26  H   UNL     1      40.264  30.139  44.371  0.00  0.00    +0.000 HD
BRANCH  24  28
ATOM     27  C   UNL     1      37.985  27.769  44.013  0.00  0.00    +0.000 C 
ATOM     28  C   UNL     1      39.091  28.422  44.739  0.00  0.00    +0.000 C 
ATOM     29  O   UNL     1      40.319  27.854  44.440  0.00  0.00    +0.000 OA
ATOM     30  C   UNL     1      40.701  27.998  43.117  0.00  0.00    +0.000 C 
ATOM     31  C   UNL     1      39.613  27.414  42.244  0.00  0.00    +0.000 C 
ATOM     32  C   UNL     1      38.605  26.686  43.111  0.00  0.00    +0.000 C 
BRANCH  27  33
ATOM     33  O   UNL     1      37.287  28.592  43.133  0.00  0.00    +0.000 OA
ATOM     34  H   UNL     1      36.415  28.105  42.983  0.00  0.00    +0.000 HD
ENDBRANCH  27  33
BRANCH  31  35
ATOM     35  O   UNL     1      40.202  26.525  41.354  0.00  0.00    +0.000 OA
ATOM     36  H   UNL     1      41.003  26.969  40.988  0.00  0.00    +0.000 HD
ENDBRANCH  31  35
BRANCH  32  37
ATOM     37  O   UNL     1      37.596  26.110  42.358  0.00  0.00    +0.000 OA
ATOM     38  H   UNL     1      37.972  25.895  41.467  0.00  0.00    +0.000 HD
ENDBRANCH  32  37
ENDBRANCH  24  28
ENDBRANCH  23  24
ENDBRANCH   6  22
TORSDOF 8
