
 OpenBabel03272509573D

 49 52  0  0  1  0  0  0  0  0999 V2000
   33.5220   27.5980   47.6020 C   0  0  0  0  0  0  0  0  0  0  0  0
   33.6840   27.5290   46.4920 H   0  0  0  0  0  0  0  0  0  0  0  0
   33.7680   26.5920   47.9910 H   0  0  0  0  0  0  0  0  0  0  0  0
   32.0770   27.9040   47.7660 C   0  0  0  0  0  0  0  0  0  0  0  0
   31.4390   27.4550   48.9170 C   0  0  0  0  0  0  0  0  0  0  0  0
   30.1130   27.6940   49.1460 C   0  0  0  0  0  0  0  0  0  0  0  0
   29.4130   28.3730   48.2430 N   0  0  0  0  0  0  0  0  0  0  0  0
   30.0400   28.8140   47.1140 C   0  0  0  0  0  0  0  0  0  0  0  0
   31.3400   28.5950   46.8610 N   0  0  0  0  0  0  0  0  0  0  0  0
   31.9700   26.8950   49.6850 H   0  0  0  0  0  0  0  0  0  0  0  0
   29.6300   27.3350   50.0510 H   0  0  0  0  0  0  0  0  0  0  0  0
   29.2130   29.5670   46.1390 C   0  0  0  0  0  0  0  0  0  0  0  0
   28.4730   30.2010   46.6530 H   0  0  0  0  0  0  0  0  0  0  0  0
   29.7940   30.2420   45.4830 H   0  0  0  0  0  0  0  0  0  0  0  0
   27.0800   29.1260   44.9090 C   0  0  2  0  0  3  0  0  0  0  0  0
   28.4150   28.5580   45.3410 C   0  0  1  0  0  3  0  0  0  0  0  0
   29.0820   28.1690   44.1820 O   0  0  0  0  0  0  0  0  0  0  0  0
   28.6230   26.9000   43.8400 C   0  0  0  0  0  2  0  0  0  0  0  0
   27.1480   26.7340   44.1120 C   0  0  1  0  0  3  0  0  0  0  0  0
   26.4080   28.0520   44.0670 C   0  0  1  0  0  3  0  0  0  0  0  0
   27.3380   30.2610   44.1300 O   0  0  0  0  0  0  0  0  0  0  0  0
   27.1220   30.0670   43.1740 H   0  0  0  0  0  0  0  0  0  0  0  0
   26.6250   25.9370   43.0890 O   0  0  0  0  0  0  0  0  0  0  0  0
   26.4550   24.9950   43.4030 H   0  0  0  0  0  0  0  0  0  0  0  0
   25.1600   27.8090   44.6470 O   0  0  0  0  0  0  0  0  0  0  0  0
   24.4510   27.7660   43.9610 H   0  0  0  0  0  0  0  0  0  0  0  0
   34.4090   28.6920   48.1090 C   0  0  0  0  0  0  0  0  0  0  0  0
   33.7720   29.6030   48.2370 H   0  0  0  0  0  0  0  0  0  0  0  0
   35.2010   28.9890   47.3680 H   0  0  0  0  0  0  0  0  0  0  0  0
   34.9640   28.3740   49.3710 O   0  0  0  0  0  0  0  0  0  0  0  0
   37.2920   30.1490   51.4840 C   0  0  0  0  0  0  0  0  0  0  0  0
   38.0360   30.8390   50.4930 C   0  0  0  0  0  0  0  0  0  0  0  0
   37.6880   30.6480   49.1700 C   0  0  0  0  0  0  0  0  0  0  0  0
   36.6460   29.8010   48.9310 N   0  0  0  0  0  0  0  0  0  0  0  0
   35.9510   29.1560   49.8660 C   0  0  0  0  0  0  0  0  0  0  0  0
   36.2870   29.3380   51.1630 N   0  0  0  0  0  0  0  0  0  0  0  0
   37.6170   30.3430   52.4970 H   0  0  0  0  0  0  0  0  0  0  0  0
   38.8530   31.5010   50.7050 H   0  0  0  0  0  0  0  0  0  0  0  0
   38.9150   33.2670   49.0120 F   0  0  0  0  0  0  0  0  0  0  0  0
   38.9140   32.4810   47.9400 C   0  0  0  0  0  0  0  0  0  0  0  0
   38.3390   31.2730   48.0360 C   0  0  0  0  0  0  0  0  0  0  0  0
   38.3880   30.5190   46.8530 C   0  0  0  0  0  0  0  0  0  0  0  0
   38.9760   30.9930   45.7100 C   0  0  0  0  0  0  0  0  0  0  0  0
   39.5510   32.2440   45.6680 C   0  0  0  0  0  0  0  0  0  0  0  0
   39.5090   32.9800   46.8030 C   0  0  0  0  0  0  0  0  0  0  0  0
   37.9630   29.5230   46.7900 H   0  0  0  0  0  0  0  0  0  0  0  0
   39.0030   30.3900   44.8020 H   0  0  0  0  0  0  0  0  0  0  0  0
   40.0190   32.6310   44.7710 H   0  0  0  0  0  0  0  0  0  0  0  0
   39.9570   33.9700   46.7940 H   0  0  0  0  0  0  0  0  0  0  0  0
  1  4  1  0  0  0  0
  1  3  1  0  0  0  0
  1 27  1  0  0  0  0
  2  1  1  0  0  0  0
  4  5  1  0  0  0  0
  5  6  2  0  0  0  0
  5 10  1  0  0  0  0
  6 11  1  0  0  0  0
  7  6  1  0  0  0  0
  8  7  2  0  0  0  0
  9  8  1  0  0  0  0
  9  4  2  0  0  0  0
 12 13  1  0  0  0  0
 12  8  1  0  0  0  0
 14 12  1  0  0  0  0
 15 21  1  6  0  0  0
 15 16  1  0  0  0  0
 16 12  1  6  0  0  0
 17 16  1  0  0  0  0
 18 19  1  0  0  0  0
 18 17  1  0  0  0  0
 19 23  1  6  0  0  0
 20 19  1  0  0  0  0
 20 25  1  1  0  0  0
 20 15  1  0  0  0  0
 22 21  1  0  0  0  0
 23 24  1  0  0  0  0
 26 25  1  0  0  0  0
 27 28  1  0  0  0  0
 27 30  1  0  0  0  0
 29 27  1  0  0  0  0
 30 35  1  0  0  0  0
 31 37  1  0  0  0  0
 32 38  1  0  0  0  0
 32 31  2  0  0  0  0
 33 32  1  0  0  0  0
 34 33  2  0  0  0  0
 34 35  1  0  0  0  0
 35 36  2  0  0  0  0
 36 31  1  0  0  0  0
 40 41  1  0  0  0  0
 40 39  1  0  0  0  0
 41 33  1  0  0  0  0
 42 41  2  0  0  0  0
 43 42  1  0  0  0  0
 44 43  2  0  0  0  0
 44 45  1  0  0  0  0
 45 40  2  0  0  0  0
 46 42  1  0  0  0  0
 47 43  1  0  0  0  0
 48 44  1  0  0  0  0
 49 45  1  0  0  0  0
M  END
>  <minimizedAffinity>
-6.87435865

>  <minimizedRMSD>
0.680452049

$$$$
