
 OpenBabel03262522203D

 22 23  0  0  1  0  0  0  0  0999 V2000
   38.1510   23.4020   36.8310 C   0  0  2  0  0  3  0  0  0  0  0  0
   38.6390   24.4700   35.9020 C   0  0  1  0  0  3  0  0  0  0  0  0
   40.0030   24.4990   35.7000 O   0  0  0  0  0  0  0  0  0  0  0  0
   40.7090   23.3750   35.9900 C   0  0  0  0  0  2  0  0  0  0  0  0
   40.4220   22.7700   37.3370 C   0  0  1  0  0  3  0  0  0  0  0  0
   39.1680   23.3300   37.9650 C   0  0  2  0  0  3  0  0  0  0  0  0
   38.0950   22.1340   36.2910 O   0  0  0  0  0  0  0  0  0  0  0  0
   37.5770   22.0510   35.4640 H   0  0  0  0  0  0  0  0  0  0  0  0
   40.1890   21.3930   37.1620 O   0  0  0  0  0  0  0  0  0  0  0  0
   39.5380   21.0650   37.8360 H   0  0  0  0  0  0  0  0  0  0  0  0
   38.7010   22.4800   38.9650 O   0  0  0  0  0  0  0  0  0  0  0  0
   37.7470   22.6710   39.0620 H   0  0  0  0  0  0  0  0  0  0  0  0
   37.9990   24.5010   34.6690 O   0  0  0  0  0  0  0  0  0  0  0  0
   37.1840   26.6660   34.8500 C   0  0  0  0  0  0  0  0  0  0  0  0
   37.4870   25.5780   33.9960 C   0  0  0  0  0  0  0  0  0  0  0  0
   37.2300   25.7530   32.6460 C   0  0  0  0  0  0  0  0  0  0  0  0
   36.7150   26.9220   32.2200 N   0  0  0  0  0  0  0  0  0  0  0  0
   36.4380   27.9360   33.0450 C   0  0  0  0  0  0  0  0  0  0  0  0
   36.6690   27.8170   34.3660 N   0  0  0  0  0  0  0  0  0  0  0  0
   37.3330   26.6700   35.9260 H   0  0  0  0  0  0  0  0  0  0  0  0
   37.4770   24.9030   32.0620 H   0  0  0  0  0  0  0  0  0  0  0  0
   36.0260   28.8720   32.6950 H   0  0  0  0  0  0  0  0  0  0  0  0
  1  7  1  6  0  0  0
  1  6  1  0  0  0  0
  2 13  1  6  0  0  0
  2  1  1  0  0  0  0
  3  2  1  0  0  0  0
  3  4  1  0  0  0  0
  4  5  1  0  0  0  0
  5  9  1  6  0  0  0
  5  6  1  0  0  0  0
  6 11  1  1  0  0  0
  8  7  1  0  0  0  0
  9 10  1  0  0  0  0
 11 12  1  0  0  0  0
 14 20  1  0  0  0  0
 15 13  1  0  0  0  0
 15 14  2  0  0  0  0
 16 15  1  0  0  0  0
 17 16  2  0  0  0  0
 17 18  1  0  0  0  0
 18 19  2  0  0  0  0
 19 14  1  0  0  0  0
 21 16  1  0  0  0  0
 22 18  1  0  0  0  0
M  END
>  <minimizedAffinity>
-5.1053853

$$$$

 OpenBabel03262522203D

 22 23  0  0  1  0  0  0  0  0999 V2000
   38.2140   23.1010   36.5690 C   0  0  2  0  0  3  0  0  0  0  0  0
   38.6870   24.0840   35.5460 C   0  0  1  0  0  3  0  0  0  0  0  0
   40.0540   24.2560   35.4780 O   0  0  0  0  0  0  0  0  0  0  0  0
   40.8400   23.2780   36.0010 C   0  0  0  0  0  2  0  0  0  0  0  0
   40.4650   22.8310   37.3870 C   0  0  1  0  0  3  0  0  0  0  0  0
   39.0940   23.3100   37.7980 C   0  0  2  0  0  3  0  0  0  0  0  0
   38.3590   21.7740   36.2210 O   0  0  0  0  0  0  0  0  0  0  0  0
   37.9520   21.5150   35.3690 H   0  0  0  0  0  0  0  0  0  0  0  0
   40.4060   21.4250   37.3970 O   0  0  0  0  0  0  0  0  0  0  0  0
   39.7210   21.1130   38.0440 H   0  0  0  0  0  0  0  0  0  0  0  0
   38.6090   22.5530   38.8610 O   0  0  0  0  0  0  0  0  0  0  0  0
   37.6350   22.6350   38.8330 H   0  0  0  0  0  0  0  0  0  0  0  0
   38.1950   23.8680   34.2640 O   0  0  0  0  0  0  0  0  0  0  0  0
   37.0950   24.1380   32.2380 C   0  0  0  0  0  0  0  0  0  0  0  0
   37.5610   24.7480   33.4280 C   0  0  0  0  0  0  0  0  0  0  0  0
   37.3170   26.1030   33.5710 C   0  0  0  0  0  0  0  0  0  0  0  0
   36.6630   26.7610   32.5950 N   0  0  0  0  0  0  0  0  0  0  0  0
   36.2320   26.1640   31.4800 C   0  0  0  0  0  0  0  0  0  0  0  0
   36.4450   24.8490   31.2920 N   0  0  0  0  0  0  0  0  0  0  0  0
   37.2160   23.0860   31.9920 H   0  0  0  0  0  0  0  0  0  0  0  0
   37.6900   26.4990   34.4820 H   0  0  0  0  0  0  0  0  0  0  0  0
   35.7080   26.6990   30.7010 H   0  0  0  0  0  0  0  0  0  0  0  0
  1  7  1  6  0  0  0
  1  6  1  0  0  0  0
  2 13  1  6  0  0  0
  2  1  1  0  0  0  0
  3  2  1  0  0  0  0
  3  4  1  0  0  0  0
  4  5  1  0  0  0  0
  5  9  1  6  0  0  0
  5  6  1  0  0  0  0
  6 11  1  1  0  0  0
  8  7  1  0  0  0  0
  9 10  1  0  0  0  0
 12 11  1  0  0  0  0
 14 15  1  0  0  0  0
 15 16  2  0  0  0  0
 15 13  1  0  0  0  0
 16 21  1  0  0  0  0
 17 16  1  0  0  0  0
 18 17  2  0  0  0  0
 19 18  1  0  0  0  0
 19 14  2  0  0  0  0
 20 14  1  0  0  0  0
 22 18  1  0  0  0  0
M  END
>  <minimizedAffinity>
-5.01934958

$$$$

 OpenBabel03262522203D

 22 23  0  0  1  0  0  0  0  0999 V2000
   37.5130   23.2420   36.4760 C   0  0  2  0  0  3  0  0  0  0  0  0
   38.1990   22.6860   35.2680 C   0  0  1  0  0  3  0  0  0  0  0  0
   39.5080   22.2940   35.4590 O   0  0  0  0  0  0  0  0  0  0  0  0
   39.9150   22.0530   36.7330 C   0  0  0  0  0  2  0  0  0  0  0  0
   39.5700   23.1270   37.7280 C   0  0  1  0  0  3  0  0  0  0  0  0
   38.5490   24.1020   37.1940 C   0  0  2  0  0  3  0  0  0  0  0  0
   37.0940   22.3050   37.3980 O   0  0  0  0  0  0  0  0  0  0  0  0
   36.5190   21.5960   37.0460 H   0  0  0  0  0  0  0  0  0  0  0  0
   38.9770   22.5160   38.8480 O   0  0  0  0  0  0  0  0  0  0  0  0
   38.3090   23.1240   39.2600 H   0  0  0  0  0  0  0  0  0  0  0  0
   37.9440   24.7980   38.2380 O   0  0  0  0  0  0  0  0  0  0  0  0
   37.0810   25.1060   37.8970 H   0  0  0  0  0  0  0  0  0  0  0  0
   37.5090   21.6610   34.6310 O   0  0  0  0  0  0  0  0  0  0  0  0
   35.8190   20.7610   33.3220 C   0  0  0  0  0  0  0  0  0  0  0  0
   36.9010   21.6700   33.4040 C   0  0  0  0  0  0  0  0  0  0  0  0
   37.1800   22.4130   32.2700 C   0  0  0  0  0  0  0  0  0  0  0  0
   36.4260   22.2390   31.1670 N   0  0  0  0  0  0  0  0  0  0  0  0
   35.4090   21.3760   31.1130 C   0  0  0  0  0  0  0  0  0  0  0  0
   35.0970   20.6290   32.1880 N   0  0  0  0  0  0  0  0  0  0  0  0
   35.4870   20.1150   34.1300 H   0  0  0  0  0  0  0  0  0  0  0  0
   38.0000   23.0730   32.3970 H   0  0  0  0  0  0  0  0  0  0  0  0
   34.8090   21.2420   30.2240 H   0  0  0  0  0  0  0  0  0  0  0  0
  1  6  1  0  0  0  0
  1  7  1  1  0  0  0
  2 13  1  1  0  0  0
  2  3  1  0  0  0  0
  2  1  1  0  0  0  0
  3  4  1  0  0  0  0
  4  5  1  0  0  0  0
  5  9  1  1  0  0  0
  6  5  1  0  0  0  0
  6 11  1  1  0  0  0
  8  7  1  0  0  0  0
  9 10  1  0  0  0  0
 12 11  1  0  0  0  0
 14 15  1  0  0  0  0
 14 20  1  0  0  0  0
 15 13  1  0  0  0  0
 16 21  1  0  0  0  0
 16 15  2  0  0  0  0
 17 16  1  0  0  0  0
 18 17  2  0  0  0  0
 18 19  1  0  0  0  0
 19 14  2  0  0  0  0
 22 18  1  0  0  0  0
M  END
>  <minimizedAffinity>
-4.7810607

$$$$

 OpenBabel03262522203D

 22 23  0  0  1  0  0  0  0  0999 V2000
   37.3230   24.7460   31.4740 C   0  0  2  0  0  3  0  0  0  0  0  0
   36.2310   23.7540   31.7270 C   0  0  1  0  0  3  0  0  0  0  0  0
   34.9480   24.2340   31.5700 O   0  0  0  0  0  0  0  0  0  0  0  0
   34.7820   25.3620   30.8300 C   0  0  0  0  0  2  0  0  0  0  0  0
   35.6950   26.5010   31.1900 C   0  0  1  0  0  3  0  0  0  0  0  0
   36.8430   26.0660   32.0690 C   0  0  2  0  0  3  0  0  0  0  0  0
   37.5860   25.0040   30.1450 O   0  0  0  0  0  0  0  0  0  0  0  0
   37.7830   24.2180   29.5940 H   0  0  0  0  0  0  0  0  0  0  0  0
   36.2760   26.9920   30.0060 O   0  0  0  0  0  0  0  0  0  0  0  0
   37.1880   27.3390   30.1870 H   0  0  0  0  0  0  0  0  0  0  0  0
   37.8710   27.0040   32.0310 O   0  0  0  0  0  0  0  0  0  0  0  0
   38.6870   26.5250   32.2810 H   0  0  0  0  0  0  0  0  0  0  0  0
   36.3580   22.5620   31.0240 O   0  0  0  0  0  0  0  0  0  0  0  0
   35.7880   21.2170   32.8270 C   0  0  0  0  0  0  0  0  0  0  0  0
   36.1110   21.2840   31.4490 C   0  0  0  0  0  0  0  0  0  0  0  0
   36.1300   20.0870   30.7540 C   0  0  0  0  0  0  0  0  0  0  0  0
   35.8470   18.9430   31.4050 N   0  0  0  0  0  0  0  0  0  0  0  0
   35.5440   18.9040   32.7060 C   0  0  0  0  0  0  0  0  0  0  0  0
   35.5130   20.0390   33.4270 N   0  0  0  0  0  0  0  0  0  0  0  0
   35.7360   22.0730   33.4940 H   0  0  0  0  0  0  0  0  0  0  0  0
   36.3780   20.2060   29.7300 H   0  0  0  0  0  0  0  0  0  0  0  0
   35.3190   17.9810   33.2210 H   0  0  0  0  0  0  0  0  0  0  0  0
  1  7  1  6  0  0  0
  1  2  1  0  0  0  0
  1  6  1  0  0  0  0
  2 13  1  6  0  0  0
  3  2  1  0  0  0  0
  4  5  1  0  0  0  0
  4  3  1  0  0  0  0
  5  9  1  6  0  0  0
  5  6  1  0  0  0  0
  6 11  1  6  0  0  0
  8  7  1  0  0  0  0
  9 10  1  0  0  0  0
 11 12  1  0  0  0  0
 13 15  1  0  0  0  0
 14 19  1  0  0  0  0
 14 20  1  0  0  0  0
 15 14  2  0  0  0  0
 16 17  2  0  0  0  0
 16 15  1  0  0  0  0
 17 18  1  0  0  0  0
 18 22  1  0  0  0  0
 18 19  2  0  0  0  0
 21 16  1  0  0  0  0
M  END
>  <minimizedAffinity>
-4.65237427

$$$$

 OpenBabel03262522203D

 22 23  0  0  1  0  0  0  0  0999 V2000
   38.0900   23.1740   36.7130 C   0  0  2  0  0  3  0  0  0  0  0  0
   38.5090   24.2040   35.7110 C   0  0  1  0  0  3  0  0  0  0  0  0
   39.8700   24.3730   35.5700 O   0  0  0  0  0  0  0  0  0  0  0  0
   40.6790   23.3670   35.9980 C   0  0  0  0  0  2  0  0  0  0  0  0
   40.3840   22.8560   37.3810 C   0  0  1  0  0  3  0  0  0  0  0  0
   39.0430   23.3200   37.8950 C   0  0  2  0  0  3  0  0  0  0  0  0
   38.2050   21.8650   36.2940 O   0  0  0  0  0  0  0  0  0  0  0  0
   37.7470   21.6490   35.4560 H   0  0  0  0  0  0  0  0  0  0  0  0
   40.3160   21.4510   37.3270 O   0  0  0  0  0  0  0  0  0  0  0  0
   39.6690   21.1110   37.9980 H   0  0  0  0  0  0  0  0  0  0  0  0
   38.6170   22.5150   38.9480 O   0  0  0  0  0  0  0  0  0  0  0  0
   37.6440   22.6020   38.9830 H   0  0  0  0  0  0  0  0  0  0  0  0
   37.9390   24.0510   34.4520 O   0  0  0  0  0  0  0  0  0  0  0  0
   38.9190   23.3410   32.4720 C   0  0  0  0  0  0  0  0  0  0  0  0
   38.4360   24.4320   33.2340 C   0  0  0  0  0  0  0  0  0  0  0  0
   38.5320   25.6870   32.6570 C   0  0  0  0  0  0  0  0  0  0  0  0
   39.0690   25.8070   31.4280 N   0  0  0  0  0  0  0  0  0  0  0  0
   39.5180   24.7620   30.7270 C   0  0  0  0  0  0  0  0  0  0  0  0
   39.4480   23.5220   31.2430 N   0  0  0  0  0  0  0  0  0  0  0  0
   38.9080   22.3040   32.7970 H   0  0  0  0  0  0  0  0  0  0  0  0
   38.1540   26.4600   33.2780 H   0  0  0  0  0  0  0  0  0  0  0  0
   39.9470   24.8670   29.7410 H   0  0  0  0  0  0  0  0  0  0  0  0
  1  7  1  6  0  0  0
  1  6  1  0  0  0  0
  2 13  1  6  0  0  0
  2  1  1  0  0  0  0
  3  2  1  0  0  0  0
  3  4  1  0  0  0  0
  4  5  1  0  0  0  0
  5  9  1  6  0  0  0
  5  6  1  0  0  0  0
  6 11  1  1  0  0  0
  8  7  1  0  0  0  0
  9 10  1  0  0  0  0
 11 12  1  0  0  0  0
 14 20  1  0  0  0  0
 14 15  1  0  0  0  0
 15 13  1  0  0  0  0
 16 15  2  0  0  0  0
 16 21  1  0  0  0  0
 17 16  1  0  0  0  0
 18 19  1  0  0  0  0
 18 17  2  0  0  0  0
 19 14  2  0  0  0  0
 22 18  1  0  0  0  0
M  END
>  <minimizedAffinity>
-4.52103329

$$$$

 OpenBabel03262522203D

 22 23  0  0  1  0  0  0  0  0999 V2000
   38.7050   24.3720   36.7640 C   0  0  2  0  0  3  0  0  0  0  0  0
   39.1370   24.8950   35.4300 C   0  0  1  0  0  3  0  0  0  0  0  0
   39.2330   23.9510   34.4290 O   0  0  0  0  0  0  0  0  0  0  0  0
   38.5630   22.7810   34.5960 C   0  0  0  0  0  2  0  0  0  0  0  0
   38.7700   22.1120   35.9270 C   0  0  1  0  0  3  0  0  0  0  0  0
   39.4080   23.0300   36.9420 C   0  0  2  0  0  3  0  0  0  0  0  0
   37.3550   24.1110   36.8850 O   0  0  0  0  0  0  0  0  0  0  0  0
   36.7610   24.8580   36.6660 H   0  0  0  0  0  0  0  0  0  0  0  0
   37.5080   21.7700   36.4500 O   0  0  0  0  0  0  0  0  0  0  0  0
   37.5220   21.8140   37.4420 H   0  0  0  0  0  0  0  0  0  0  0  0
   39.1970   22.5530   38.2330 O   0  0  0  0  0  0  0  0  0  0  0  0
   39.2790   23.3260   38.8270 H   0  0  0  0  0  0  0  0  0  0  0  0
   38.3960   25.9750   34.9640 O   0  0  0  0  0  0  0  0  0  0  0  0
   36.9930   26.2470   33.1370 C   0  0  0  0  0  0  0  0  0  0  0  0
   38.2830   26.4490   33.6850 C   0  0  0  0  0  0  0  0  0  0  0  0
   39.2140   27.0760   32.8750 C   0  0  0  0  0  0  0  0  0  0  0  0
   38.8580   27.4550   31.6330 N   0  0  0  0  0  0  0  0  0  0  0  0
   37.6330   27.2550   31.1370 C   0  0  0  0  0  0  0  0  0  0  0  0
   36.6920   26.6500   31.8830 N   0  0  0  0  0  0  0  0  0  0  0  0
   36.1660   25.7710   33.6550 H   0  0  0  0  0  0  0  0  0  0  0  0
   40.1590   27.1960   33.3430 H   0  0  0  0  0  0  0  0  0  0  0  0
   37.3550   27.5630   30.1390 H   0  0  0  0  0  0  0  0  0  0  0  0
  1  7  1  6  0  0  0
  1  6  1  0  0  0  0
  2 13  1  6  0  0  0
  2  1  1  0  0  0  0
  3  4  1  0  0  0  0
  3  2  1  0  0  0  0
  4  5  1  0  0  0  0
  5  9  1  1  0  0  0
  5  6  1  0  0  0  0
  6 11  1  1  0  0  0
  8  7  1  0  0  0  0
  9 10  1  0  0  0  0
 11 12  1  0  0  0  0
 14 20  1  0  0  0  0
 14 15  1  0  0  0  0
 15 13  1  0  0  0  0
 16 21  1  0  0  0  0
 16 15  2  0  0  0  0
 17 16  1  0  0  0  0
 18 17  2  0  0  0  0
 18 19  1  0  0  0  0
 19 14  2  0  0  0  0
 22 18  1  0  0  0  0
M  END
>  <minimizedAffinity>
-4.31406927

$$$$

 OpenBabel03262522203D

 22 23  0  0  1  0  0  0  0  0999 V2000
   39.0270   22.5830   35.8730 C   0  0  2  0  0  3  0  0  0  0  0  0
   39.3830   23.9870   35.4990 C   0  0  1  0  0  3  0  0  0  0  0  0
   38.7130   24.9720   36.1950 O   0  0  0  0  0  0  0  0  0  0  0  0
   38.1420   24.6310   37.3800 C   0  0  0  0  0  2  0  0  0  0  0  0
   37.2970   23.3870   37.3460 C   0  0  1  0  0  3  0  0  0  0  0  0
   37.5180   22.5720   36.0950 C   0  0  2  0  0  3  0  0  0  0  0  0
   39.5860   22.1280   37.0490 O   0  0  0  0  0  0  0  0  0  0  0  0
   40.5610   22.1990   37.1080 H   0  0  0  0  0  0  0  0  0  0  0  0
   37.6830   22.5630   38.4210 O   0  0  0  0  0  0  0  0  0  0  0  0
   37.5700   21.6070   38.1800 H   0  0  0  0  0  0  0  0  0  0  0  0
   37.0760   21.2640   36.2780 O   0  0  0  0  0  0  0  0  0  0  0  0
   37.5640   20.7180   35.6300 H   0  0  0  0  0  0  0  0  0  0  0  0
   40.7450   24.2650   35.5220 O   0  0  0  0  0  0  0  0  0  0  0  0
   42.6380   24.6660   34.2420 C   0  0  0  0  0  0  0  0  0  0  0  0
   41.4440   25.1900   34.7940 C   0  0  0  0  0  0  0  0  0  0  0  0
   41.1650   26.5200   34.5280 C   0  0  0  0  0  0  0  0  0  0  0  0
   42.0220   27.2340   33.7740 N   0  0  0  0  0  0  0  0  0  0  0  0
   43.1430   26.7180   33.2620 C   0  0  0  0  0  0  0  0  0  0  0  0
   43.4610   25.4310   33.4930 N   0  0  0  0  0  0  0  0  0  0  0  0
   42.9840   23.6430   34.3680 H   0  0  0  0  0  0  0  0  0  0  0  0
   40.2590   26.8510   34.9700 H   0  0  0  0  0  0  0  0  0  0  0  0
   43.8250   27.2980   32.6580 H   0  0  0  0  0  0  0  0  0  0  0  0
  1  6  1  0  0  0  0
  1  7  1  1  0  0  0
  2 13  1  1  0  0  0
  2  1  1  0  0  0  0
  2  3  1  0  0  0  0
  3  4  1  0  0  0  0
  5  4  1  0  0  0  0
  5  9  1  1  0  0  0
  6 11  1  1  0  0  0
  6  5  1  0  0  0  0
  7  8  1  0  0  0  0
 10  9  1  0  0  0  0
 12 11  1  0  0  0  0
 14 20  1  0  0  0  0
 14 15  1  0  0  0  0
 15 13  1  0  0  0  0
 16 15  2  0  0  0  0
 16 21  1  0  0  0  0
 17 16  1  0  0  0  0
 18 19  1  0  0  0  0
 18 17  2  0  0  0  0
 19 14  2  0  0  0  0
 22 18  1  0  0  0  0
M  END
>  <minimizedAffinity>
-4.28676653

$$$$

 OpenBabel03262522203D

 22 23  0  0  1  0  0  0  0  0999 V2000
   38.9620   23.8640   35.8020 C   0  0  2  0  0  3  0  0  0  0  0  0
   38.5070   25.2810   35.9530 C   0  0  1  0  0  3  0  0  0  0  0  0
   37.9090   25.5860   37.1580 O   0  0  0  0  0  0  0  0  0  0  0  0
   38.1470   24.7570   38.2080 C   0  0  0  0  0  2  0  0  0  0  0  0
   37.9620   23.2920   37.9200 C   0  0  1  0  0  3  0  0  0  0  0  0
   37.8780   23.0010   36.4420 C   0  0  2  0  0  3  0  0  0  0  0  0
   40.1330   23.5480   36.4590 O   0  0  0  0  0  0  0  0  0  0  0  0
   40.9010   24.1170   36.2470 H   0  0  0  0  0  0  0  0  0  0  0  0
   39.0970   22.6040   38.3890 O   0  0  0  0  0  0  0  0  0  0  0  0
   39.2770   21.8090   37.8220 H   0  0  0  0  0  0  0  0  0  0  0  0
   38.1370   21.6550   36.1930 O   0  0  0  0  0  0  0  0  0  0  0  0
   38.4380   21.6020   35.2640 H   0  0  0  0  0  0  0  0  0  0  0  0
   39.4820   26.2340   35.6790 O   0  0  0  0  0  0  0  0  0  0  0  0
   39.0000   26.7350   33.4650 C   0  0  0  0  0  0  0  0  0  0  0  0
   39.9940   26.6130   34.4670 C   0  0  0  0  0  0  0  0  0  0  0  0
   41.2970   26.8860   34.0890 C   0  0  0  0  0  0  0  0  0  0  0  0
   41.5530   27.2450   32.8170 N   0  0  0  0  0  0  0  0  0  0  0  0
   40.5980   27.3550   31.8880 C   0  0  0  0  0  0  0  0  0  0  0  0
   39.3150   27.0990   32.2040 N   0  0  0  0  0  0  0  0  0  0  0  0
   37.9400   26.5520   33.6170 H   0  0  0  0  0  0  0  0  0  0  0  0
   41.9920   26.7760   34.8840 H   0  0  0  0  0  0  0  0  0  0  0  0
   40.8120   27.6440   30.8690 H   0  0  0  0  0  0  0  0  0  0  0  0
  1  2  1  0  0  0  0
  1  6  1  0  0  0  0
  1  7  1  1  0  0  0
  2 13  1  1  0  0  0
  2  3  1  0  0  0  0
  3  4  1  0  0  0  0
  5  4  1  0  0  0  0
  5  9  1  6  0  0  0
  6 11  1  1  0  0  0
  6  5  1  0  0  0  0
  8  7  1  0  0  0  0
 10  9  1  0  0  0  0
 12 11  1  0  0  0  0
 14 20  1  0  0  0  0
 14 15  1  0  0  0  0
 15 13  1  0  0  0  0
 16 15  2  0  0  0  0
 16 21  1  0  0  0  0
 17 16  1  0  0  0  0
 18 19  1  0  0  0  0
 18 17  2  0  0  0  0
 19 14  2  0  0  0  0
 22 18  1  0  0  0  0
M  END
>  <minimizedAffinity>
-4.27836561

$$$$

 OpenBabel03262522203D

 22 23  0  0  1  0  0  0  0  0999 V2000
   35.6080   21.3180   32.5810 C   0  0  2  0  0  3  0  0  0  0  0  0
   36.5700   21.7610   31.5250 C   0  0  1  0  0  3  0  0  0  0  0  0
   37.0120   20.7690   30.6730 O   0  0  0  0  0  0  0  0  0  0  0  0
   36.2670   19.6350   30.5850 C   0  0  0  0  0  2  0  0  0  0  0  0
   35.8810   19.0210   31.9020 C   0  0  1  0  0  3  0  0  0  0  0  0
   36.1040   19.9580   33.0640 C   0  0  2  0  0  3  0  0  0  0  0  0
   34.3130   21.1170   32.1500 O   0  0  0  0  0  0  0  0  0  0  0  0
   33.9000   21.8760   31.6890 H   0  0  0  0  0  0  0  0  0  0  0  0
   34.4990   18.7550   31.8760 O   0  0  0  0  0  0  0  0  0  0  0  0
   34.1130   18.8440   32.7860 H   0  0  0  0  0  0  0  0  0  0  0  0
   35.3630   19.5510   34.1710 O   0  0  0  0  0  0  0  0  0  0  0  0
   35.2410   20.3470   34.7260 H   0  0  0  0  0  0  0  0  0  0  0  0
   36.1420   22.8470   30.7700 O   0  0  0  0  0  0  0  0  0  0  0  0
   35.3330   24.9980   31.0900 C   0  0  0  0  0  0  0  0  0  0  0  0
   36.4680   24.1690   30.9090 C   0  0  0  0  0  0  0  0  0  0  0  0
   37.7020   24.7960   30.8980 C   0  0  0  0  0  0  0  0  0  0  0  0
   37.7640   26.1310   31.0560 N   0  0  0  0  0  0  0  0  0  0  0  0
   36.6800   26.8930   31.2270 C   0  0  0  0  0  0  0  0  0  0  0  0
   35.4560   26.3330   31.2450 N   0  0  0  0  0  0  0  0  0  0  0  0
   34.3060   24.6450   31.1200 H   0  0  0  0  0  0  0  0  0  0  0  0
   38.5090   24.1210   30.7570 H   0  0  0  0  0  0  0  0  0  0  0  0
   36.7380   27.9650   31.3540 H   0  0  0  0  0  0  0  0  0  0  0  0
  1  7  1  6  0  0  0
  1  6  1  0  0  0  0
  2 13  1  6  0  0  0
  2  1  1  0  0  0  0
  3  2  1  0  0  0  0
  4  3  1  0  0  0  0
  4  5  1  0  0  0  0
  5  9  1  6  0  0  0
  5  6  1  0  0  0  0
  6 11  1  1  0  0  0
  8  7  1  0  0  0  0
  9 10  1  0  0  0  0
 11 12  1  0  0  0  0
 13 15  1  0  0  0  0
 14 20  1  0  0  0  0
 14 19  1  0  0  0  0
 15 14  2  0  0  0  0
 16 15  1  0  0  0  0
 16 17  2  0  0  0  0
 17 18  1  0  0  0  0
 18 19  2  0  0  0  0
 18 22  1  0  0  0  0
 21 16  1  0  0  0  0
M  END
>  <minimizedAffinity>
-4.25365162

$$$$
