REMARK  Name = 
REMARK  5 active torsions:
REMARK  status: ('A' for Active; 'I' for Inactive)
REMARK    1  A    between atoms: C_5  and  O_7
REMARK    2  A    between atoms: O_7  and  C_13
REMARK    3  A    between atoms: O_11  and  C_12
REMARK    4  A    between atoms: C_16  and  O_17
REMARK    5  A    between atoms: C_18  and  O_19
REMARK                            x       y       z     vdW  Elec       q    Type
REMARK                         _______ _______ _______ _____ _____    ______ ____
ROOT
ATOM      1  C   UNL     1      33.303  28.676  51.431  0.00  0.00    +0.000 C 
ATOM      2  C   UNL     1      34.015  27.681  50.572  0.00  0.00    +0.000 C 
ATOM      3  O   UNL     1      33.175  26.769  49.954  0.00  0.00    +0.000 OA
ATOM      4  C   UNL     1      32.128  27.338  49.261  0.00  0.00    +0.000 C 
ATOM      5  C   UNL     1      31.199  28.143  50.142  0.00  0.00    +0.000 C 
ATOM      6  C   UNL     1      31.797  28.458  51.468  0.00  0.00    +0.000 C 
ENDROOT
BRANCH   1   7
ATOM      7  O   UNL     1      33.595  30.006  51.063  0.00  0.00    +0.000 OA
ATOM      8  H   UNL     1      33.853  30.074  50.111  0.00  0.00    +0.000 HD
ENDBRANCH   1   7
BRANCH   5   9
ATOM      9  O   UNL     1      30.828  29.334  49.490  0.00  0.00    +0.000 OA
ATOM     10  H   UNL     1      31.653  29.749  49.144  0.00  0.00    +0.000 HD
ENDBRANCH   5   9
BRANCH   6  11
ATOM     11  O   UNL     1      31.185  29.615  51.945  0.00  0.00    +0.000 OA
ATOM     12  H   UNL     1      31.756  30.407  51.822  0.00  0.00    +0.000 HD
ENDBRANCH   6  11
BRANCH   2  13
ATOM     13  O   UNL     1      34.870  28.270  49.598  0.00  0.00    +0.000 OA
BRANCH  13  18
ATOM     14  C   UNL     1      37.330  30.235  51.422  0.00  0.00    +0.000 A 
ATOM     15  C   UNL     1      38.086  30.742  50.350  0.00  0.00    +0.000 A 
ATOM     16  C   UNL     1      37.700  30.374  49.048  0.00  0.00    +0.000 A 
ATOM     17  N   UNL     1      36.606  29.540  48.895  0.00  0.00    +0.000 NA
ATOM     18  C   UNL     1      35.923  29.087  49.961  0.00  0.00    +0.000 A 
ATOM     19  N   UNL     1      36.277  29.427  51.215  0.00  0.00    +0.000 NA
ATOM     20  H   UNL     1      37.563  30.471  52.453  0.00  0.00    +0.000 HD
ATOM     21  H   UNL     1      38.923  31.386  50.545  0.00  0.00    +0.000 HD
ATOM     22  H   UNL     1      38.243  30.736  48.208  0.00  0.00    +0.000 HD
ENDBRANCH  13  18
ENDBRANCH   2  13
TORSDOF 5
