
 OpenBabel03272503133D

 49 53  0  0  1  0  0  0  0  0999 V2000
   39.1680   32.2120   42.5780 C   0  0  0  0  0  0  0  0  0  0  0  0
   39.7040   31.5220   43.6320 C   0  0  0  0  0  0  0  0  0  0  0  0
   40.6020   30.4980   43.4680 C   0  0  0  0  0  0  0  0  0  0  0  0
   40.9970   30.1330   42.1860 C   0  0  0  0  0  0  0  0  0  0  0  0
   41.8320   29.2030   41.7220 N   0  0  0  0  0  0  0  0  0  0  0  0
   41.8400   29.2870   40.4040 C   0  0  0  0  0  0  0  0  0  0  0  0
   41.0110   30.2680   40.0240 N   0  0  0  0  0  0  0  0  0  0  0  0
   40.4500   30.8370   41.1230 C   0  0  0  0  0  0  0  0  0  0  0  0
   39.5350   31.8790   41.2680 C   0  0  0  0  0  0  0  0  0  0  0  0
   38.4820   32.9900   42.7910 H   0  0  0  0  0  0  0  0  0  0  0  0
   40.9770   30.0050   44.3540 H   0  0  0  0  0  0  0  0  0  0  0  0
   42.3820   28.5300   42.3060 H   0  0  0  0  0  0  0  0  0  0  0  0
   42.3820   28.7140   39.6600 H   0  0  0  0  0  0  0  0  0  0  0  0
   39.2830   31.9110   44.9620 C   0  0  0  0  0  0  0  0  0  0  0  0
   38.1780   32.5560   45.0800 O   0  0  0  0  0  0  0  0  0  0  0  0
   39.9750   31.6500   46.1650 N   0  0  0  0  0  0  0  0  0  0  0  0
   40.8780   31.1270   46.0810 H   0  0  0  0  0  0  0  0  0  0  0  0
   38.1190   30.1530   47.4980 F   0  0  0  0  0  0  0  0  0  0  0  0
   38.3720   31.3960   47.9940 C   0  0  0  0  0  0  0  0  0  0  0  0
   37.7120   31.8390   49.1040 C   0  0  0  0  0  0  0  0  0  0  0  0
   38.0150   33.1000   49.5480 C   0  0  0  0  0  0  0  0  0  0  0  0
   38.9340   33.8990   48.9270 C   0  0  0  0  0  0  0  0  0  0  0  0
   39.5990   33.4300   47.7950 C   0  0  0  0  0  0  0  0  0  0  0  0
   39.3050   32.1600   47.3310 C   0  0  0  0  0  0  0  0  0  0  0  0
   37.4980   33.4610   50.4280 H   0  0  0  0  0  0  0  0  0  0  0  0
   39.1150   34.8810   49.3430 H   0  0  0  0  0  0  0  0  0  0  0  0
   40.3250   34.0690   47.3080 H   0  0  0  0  0  0  0  0  0  0  0  0
   36.0720   29.3470   51.4520 C   0  0  0  0  0  0  0  0  0  0  0  0
   37.0360   30.2120   50.8690 C   0  0  0  0  0  0  0  0  0  0  0  0
   36.7380   30.9390   49.7290 C   0  0  0  0  0  0  0  0  0  0  0  0
   35.4880   30.7870   49.2010 N   0  0  0  0  0  0  0  0  0  0  0  0
   34.5760   29.9680   49.7560 C   0  0  0  0  0  0  0  0  0  0  0  0
   34.8640   29.2680   50.8530 N   0  0  0  0  0  0  0  0  0  0  0  0
   36.3380   28.7920   52.3450 H   0  0  0  0  0  0  0  0  0  0  0  0
   38.0090   30.2930   51.3280 H   0  0  0  0  0  0  0  0  0  0  0  0
   33.6230   29.9340   49.2440 H   0  0  0  0  0  0  0  0  0  0  0  0
   39.0190   32.5490   40.2010 O   0  0  0  0  0  0  0  0  0  0  0  0
   37.8880   34.2510   38.9030 C   0  0  2  0  0  0  0  0  0  0  0  0
   37.8830   33.3050   40.1180 C   0  0  1  0  0  0  0  0  0  0  0  0
   36.7000   32.5510   40.1120 O   0  0  0  0  0  0  0  0  0  0  0  0
   36.3720   32.0660   38.8500 C   0  0  0  0  0  0  0  0  0  0  0  0
   35.9790   33.1730   37.9010 C   0  0  2  0  0  0  0  0  0  0  0  0
   36.4320   34.4770   38.5510 C   0  0  1  0  0  0  0  0  0  0  0  0
   38.4900   33.6590   37.7960 O   0  0  0  0  0  0  0  0  0  0  0  0
   39.0800   34.2840   37.3050 H   0  0  0  0  0  0  0  0  0  0  0  0
   34.6570   33.1700   37.5370 O   0  0  0  0  0  0  0  0  0  0  0  0
   34.1310   33.4980   38.3220 H   0  0  0  0  0  0  0  0  0  0  0  0
   35.6580   34.7720   39.6710 O   0  0  0  0  0  0  0  0  0  0  0  0
   36.1250   35.5230   40.1300 H   0  0  0  0  0  0  0  0  0  0  0  0
  1 10  1  0  0  0  0
  1  2  1  0  0  0  0
  2 14  1  0  0  0  0
  3  2  2  0  0  0  0
  3 11  1  0  0  0  0
  4  3  1  0  0  0  0
  5  4  1  0  0  0  0
  5 12  1  0  0  0  0
  6  5  1  0  0  0  0
  7  6  2  0  0  0  0
  7  8  1  0  0  0  0
  8  9  1  0  0  0  0
  8  4  2  0  0  0  0
  9  1  2  0  0  0  0
 13  6  1  0  0  0  0
 14 15  2  0  0  0  0
 14 16  1  0  0  0  0
 16 24  1  0  0  0  0
 17 16  1  0  0  0  0
 18 19  1  0  0  0  0
 19 20  1  0  0  0  0
 20 21  2  0  0  0  0
 20 30  1  0  0  0  0
 21 25  1  0  0  0  0
 22 26  1  0  0  0  0
 22 21  1  0  0  0  0
 23 22  2  0  0  0  0
 24 23  1  0  0  0  0
 24 19  2  0  0  0  0
 27 23  1  0  0  0  0
 28 34  1  0  0  0  0
 29 35  1  0  0  0  0
 29 28  1  0  0  0  0
 30 29  2  0  0  0  0
 31 30  1  0  0  0  0
 31 32  2  0  0  0  0
 32 33  1  0  0  0  0
 33 28  2  0  0  0  0
 36 32  1  0  0  0  0
 37  9  1  0  0  0  0
 38 44  1  6  0  0  0
 38 39  1  0  0  0  0
 39 37  1  6  0  0  0
 40 39  1  0  0  0  0
 41 40  1  0  0  0  0
 42 46  1  1  0  0  0
 42 43  1  0  0  0  0
 42 41  1  0  0  0  0
 43 38  1  0  0  0  0
 43 48  1  1  0  0  0
 45 44  1  0  0  0  0
 46 47  1  0  0  0  0
 48 49  1  0  0  0  0
M  END
>  <minimizedAffinity>
-7.40042067

>  <minimizedRMSD>
0.837146819

$$$$
