
 OpenBabel03272509413D

 38 40  0  0  1  0  0  0  0  0999 V2000
   36.5010   28.6960   32.5460 C   0  0  0  0  0  0  0  0  0  0  0  0
   35.9980   29.8380   31.9000 C   0  0  0  0  0  0  0  0  0  0  0  0
   35.3730   30.8690   32.5890 C   0  0  0  0  0  0  0  0  0  0  0  0
   35.2290   30.7900   33.9770 C   0  0  0  0  0  0  0  0  0  0  0  0
   35.7280   29.6610   34.6000 C   0  0  0  0  0  0  0  0  0  0  0  0
   36.3460   28.6500   33.8850 C   0  0  0  0  0  0  0  0  0  0  0  0
   36.0890   29.9380   30.8240 H   0  0  0  0  0  0  0  0  0  0  0  0
   35.0080   31.7190   32.0280 H   0  0  0  0  0  0  0  0  0  0  0  0
   34.7370   31.6080   34.4890 H   0  0  0  0  0  0  0  0  0  0  0  0
   35.5730   29.6880   35.6700 H   0  0  0  0  0  0  0  0  0  0  0  0
   37.1330   27.6800   31.7490 C   0  0  0  0  0  0  0  0  0  0  0  0
   38.1660   28.0630   31.1010 O   0  0  0  0  0  0  0  0  0  0  0  0
   34.9130   24.9270   30.9080 C   0  0  0  0  0  0  0  0  0  0  0  0
   35.6070   23.7940   31.3250 C   0  0  0  0  0  0  0  0  0  0  0  0
   36.8560   23.9680   31.9070 C   0  0  0  0  0  0  0  0  0  0  0  0
   37.3560   25.2270   32.0480 N   0  0  0  0  0  0  0  0  0  0  0  0
   36.6770   26.2890   31.6430 C   0  0  0  0  0  0  0  0  0  0  0  0
   35.4570   26.1200   31.0750 N   0  0  0  0  0  0  0  0  0  0  0  0
   33.9440   24.7450   30.4600 H   0  0  0  0  0  0  0  0  0  0  0  0
   35.1670   22.8110   31.1910 H   0  0  0  0  0  0  0  0  0  0  0  0
   37.4320   23.1160   32.2460 H   0  0  0  0  0  0  0  0  0  0  0  0
   36.7880   27.5490   34.6940 C   0  0  0  0  0  3  0  0  0  0  0  0
   38.0030   27.3070   35.1510 C   0  0  0  0  0  3  0  0  0  0  0  0
   38.5730   26.2650   35.9980 C   0  0  0  0  0  0  0  0  0  0  0  0
   39.6850   26.2850   35.8650 H   0  0  0  0  0  0  0  0  0  0  0  0
   38.3970   26.5280   37.0620 H   0  0  0  0  0  0  0  0  0  0  0  0
   39.0360   23.8160   35.5500 C   0  0  2  0  0  3  0  0  0  0  0  0
   38.0420   24.8780   35.7930 C   0  0  1  0  0  3  0  0  0  0  0  0
   37.1910   24.5660   36.8430 O   0  0  0  0  0  0  0  0  0  0  0  0
   37.8250   24.4590   38.0690 C   0  0  0  0  0  2  0  0  0  0  0  0
   38.9240   23.4290   37.9470 C   0  0  2  0  0  3  0  0  0  0  0  0
   38.8080   22.7230   36.6100 C   0  0  2  0  0  3  0  0  0  0  0  0
   40.3630   24.1960   35.7260 O   0  0  0  0  0  0  0  0  0  0  0  0
   40.8880   23.4910   35.2280 H   0  0  0  0  0  0  0  0  0  0  0  0
   38.7780   22.5140   38.9810 O   0  0  0  0  0  0  0  0  0  0  0  0
   38.6170   23.0310   39.8050 H   0  0  0  0  0  0  0  0  0  0  0  0
   39.7800   21.7490   36.4540 O   0  0  0  0  0  0  0  0  0  0  0  0
   40.0160   21.4140   37.3570 H   0  0  0  0  0  0  0  0  0  0  0  0
  1  6  1  0  0  0  0
  2  1  2  0  0  0  0
  2  3  1  0  0  0  0
  3  4  2  0  0  0  0
  4  9  1  0  0  0  0
  4  5  1  0  0  0  0
  5 10  1  0  0  0  0
  6  5  2  0  0  0  0
  6 22  1  0  0  0  0
  7  2  1  0  0  0  0
  8  3  1  0  0  0  0
 11  1  1  0  0  0  0
 12 11  2  0  0  0  0
 13 18  2  0  0  0  0
 13 14  1  0  0  0  0
 14 15  2  0  0  0  0
 15 16  1  0  0  0  0
 15 21  1  0  0  0  0
 17 11  1  0  0  0  0
 17 16  2  0  0  0  0
 18 17  1  0  0  0  0
 19 13  1  0  0  0  0
 20 14  1  0  0  0  0
 22 23  2  0  0  0  0
 23 24  1  0  0  0  0
 24 26  1  0  0  0  0
 25 24  1  0  0  0  0
 27 33  1  1  0  0  0
 27 28  1  0  0  0  0
 27 32  1  0  0  0  0
 28 24  1  1  0  0  0
 28 29  1  0  0  0  0
 29 30  1  0  0  0  0
 31 30  1  0  0  0  0
 31 35  1  1  0  0  0
 32 37  1  1  0  0  0
 32 31  1  0  0  0  0
 34 33  1  0  0  0  0
 35 36  1  0  0  0  0
 37 38  1  0  0  0  0
M  END
>  <minimizedAffinity>
-6.88597488

$$$$

 OpenBabel03272509413D

 38 40  0  0  1  0  0  0  0  0999 V2000
   36.0070   29.2090   32.7980 C   0  0  0  0  0  0  0  0  0  0  0  0
   35.9460   29.9380   31.5980 C   0  0  0  0  0  0  0  0  0  0  0  0
   36.7010   29.6020   30.4830 C   0  0  0  0  0  0  0  0  0  0  0  0
   37.5610   28.5000   30.5320 C   0  0  0  0  0  0  0  0  0  0  0  0
   37.6110   27.7920   31.7170 C   0  0  0  0  0  0  0  0  0  0  0  0
   36.8460   28.1530   32.8130 C   0  0  0  0  0  0  0  0  0  0  0  0
   35.2920   30.7990   31.5190 H   0  0  0  0  0  0  0  0  0  0  0  0
   36.6060   30.2080   29.5920 H   0  0  0  0  0  0  0  0  0  0  0  0
   38.1380   28.2610   29.6470 H   0  0  0  0  0  0  0  0  0  0  0  0
   38.3000   26.9600   31.6620 H   0  0  0  0  0  0  0  0  0  0  0  0
   35.1870   29.6320   33.9000 C   0  0  0  0  0  0  0  0  0  0  0  0
   35.8100   30.2390   34.8380 O   0  0  0  0  0  0  0  0  0  0  0  0
   31.9270   29.4320   35.4950 C   0  0  0  0  0  0  0  0  0  0  0  0
   31.0660   29.0790   34.4590 C   0  0  0  0  0  0  0  0  0  0  0  0
   31.6040   28.9020   33.1910 C   0  0  0  0  0  0  0  0  0  0  0  0
   32.9410   29.0800   33.0040 N   0  0  0  0  0  0  0  0  0  0  0  0
   33.7390   29.4160   34.0050 C   0  0  0  0  0  0  0  0  0  0  0  0
   33.2150   29.5880   35.2430 N   0  0  0  0  0  0  0  0  0  0  0  0
   31.4650   29.5590   36.4660 H   0  0  0  0  0  0  0  0  0  0  0  0
   30.0070   28.9490   34.6570 H   0  0  0  0  0  0  0  0  0  0  0  0
   30.9720   28.6280   32.3550 H   0  0  0  0  0  0  0  0  0  0  0  0
   37.0390   27.3130   33.9610 C   0  0  0  0  0  3  0  0  0  0  0  0
   38.1740   26.8460   34.4500 C   0  0  0  0  0  3  0  0  0  0  0  0
   38.5120   26.0270   35.6100 C   0  0  0  0  0  0  0  0  0  0  0  0
   39.6140   26.1200   35.7840 H   0  0  0  0  0  0  0  0  0  0  0  0
   38.0300   26.4610   36.5110 H   0  0  0  0  0  0  0  0  0  0  0  0
   39.1960   23.5930   35.4700 C   0  0  2  0  0  3  0  0  0  0  0  0
   38.1070   24.5850   35.5450 C   0  0  1  0  0  3  0  0  0  0  0  0
   37.2300   24.3200   36.5860 O   0  0  0  0  0  0  0  0  0  0  0  0
   37.8030   24.4070   37.8420 C   0  0  0  0  0  2  0  0  0  0  0  0
   38.9880   23.4690   37.8880 C   0  0  2  0  0  3  0  0  0  0  0  0
   39.0020   22.6100   36.6390 C   0  0  2  0  0  3  0  0  0  0  0  0
   40.4760   24.1040   35.6590 O   0  0  0  0  0  0  0  0  0  0  0  0
   41.0830   23.3960   35.2690 H   0  0  0  0  0  0  0  0  0  0  0  0
   38.8620   22.6670   39.0150 O   0  0  0  0  0  0  0  0  0  0  0  0
   38.6160   23.2570   39.7650 H   0  0  0  0  0  0  0  0  0  0  0  0
   40.0570   21.7140   36.6410 O   0  0  0  0  0  0  0  0  0  0  0  0
   40.2710   21.5030   37.5860 H   0  0  0  0  0  0  0  0  0  0  0  0
  1  6  1  0  0  0  0
  1 11  1  0  0  0  0
  2  1  2  0  0  0  0
  3  4  2  0  0  0  0
  3  2  1  0  0  0  0
  4  5  1  0  0  0  0
  5  6  2  0  0  0  0
  6 22  1  0  0  0  0
  7  2  1  0  0  0  0
  8  3  1  0  0  0  0
  9  4  1  0  0  0  0
 10  5  1  0  0  0  0
 11 17  1  0  0  0  0
 11 12  2  0  0  0  0
 13 19  1  0  0  0  0
 14 20  1  0  0  0  0
 14 13  2  0  0  0  0
 15 14  1  0  0  0  0
 16 15  2  0  0  0  0
 16 17  1  0  0  0  0
 17 18  2  0  0  0  0
 18 13  1  0  0  0  0
 21 15  1  0  0  0  0
 22 23  2  0  0  0  0
 23 24  1  0  0  0  0
 24 25  1  0  0  0  0
 24 26  1  0  0  0  0
 27 28  1  0  0  0  0
 27 33  1  1  0  0  0
 27 32  1  0  0  0  0
 28 24  1  1  0  0  0
 28 29  1  0  0  0  0
 29 30  1  0  0  0  0
 30 31  1  0  0  0  0
 31 35  1  1  0  0  0
 32 37  1  1  0  0  0
 32 31  1  0  0  0  0
 34 33  1  0  0  0  0
 35 36  1  0  0  0  0
 37 38  1  0  0  0  0
M  END
>  <minimizedAffinity>
-6.43949556

$$$$

 OpenBabel03272509413D

 38 40  0  0  1  0  0  0  0  0999 V2000
   36.2650   28.4840   32.4300 C   0  0  0  0  0  0  0  0  0  0  0  0
   35.6710   29.6310   31.8780 C   0  0  0  0  0  0  0  0  0  0  0  0
   35.1400   30.6460   32.6640 C   0  0  0  0  0  0  0  0  0  0  0  0
   35.1880   30.5440   34.0570 C   0  0  0  0  0  0  0  0  0  0  0  0
   35.7760   29.4100   34.5870 C   0  0  0  0  0  0  0  0  0  0  0  0
   36.2960   28.4150   33.7770 C   0  0  0  0  0  0  0  0  0  0  0  0
   35.6140   29.7490   30.8020 H   0  0  0  0  0  0  0  0  0  0  0  0
   34.6960   31.5020   32.1730 H   0  0  0  0  0  0  0  0  0  0  0  0
   34.7660   31.3500   34.6450 H   0  0  0  0  0  0  0  0  0  0  0  0
   35.7680   29.4180   35.6680 H   0  0  0  0  0  0  0  0  0  0  0  0
   36.7880   27.4860   31.5370 C   0  0  0  0  0  0  0  0  0  0  0  0
   35.9300   26.6470   31.0990 O   0  0  0  0  0  0  0  0  0  0  0  0
   40.1160   26.0490   31.2690 C   0  0  0  0  0  0  0  0  0  0  0  0
   40.8130   26.9560   30.4730 C   0  0  0  0  0  0  0  0  0  0  0  0
   40.1380   28.0820   30.0190 C   0  0  0  0  0  0  0  0  0  0  0  0
   38.8320   28.2590   30.3620 N   0  0  0  0  0  0  0  0  0  0  0  0
   38.1920   27.3830   31.1190 C   0  0  0  0  0  0  0  0  0  0  0  0
   38.8500   26.2840   31.5640 N   0  0  0  0  0  0  0  0  0  0  0  0
   40.6810   25.1870   31.6000 H   0  0  0  0  0  0  0  0  0  0  0  0
   41.8530   26.7710   30.2270 H   0  0  0  0  0  0  0  0  0  0  0  0
   40.6390   28.8130   29.3980 H   0  0  0  0  0  0  0  0  0  0  0  0
   36.8510   27.3060   34.4990 C   0  0  0  0  0  3  0  0  0  0  0  0
   38.0480   27.2050   35.0480 C   0  0  0  0  0  3  0  0  0  0  0  0
   38.7170   26.1690   35.8280 C   0  0  0  0  0  0  0  0  0  0  0  0
   39.8080   26.2000   35.5750 H   0  0  0  0  0  0  0  0  0  0  0  0
   38.6540   26.4310   36.9050 H   0  0  0  0  0  0  0  0  0  0  0  0
   39.1730   23.6950   35.5320 C   0  0  2  0  0  3  0  0  0  0  0  0
   38.1800   24.7770   35.6800 C   0  0  1  0  0  3  0  0  0  0  0  0
   37.2890   24.5300   36.7130 O   0  0  0  0  0  0  0  0  0  0  0  0
   37.8770   24.4860   37.9650 C   0  0  0  0  0  2  0  0  0  0  0  0
   38.9700   23.4430   37.9410 C   0  0  2  0  0  3  0  0  0  0  0  0
   38.8960   22.6640   36.6420 C   0  0  2  0  0  3  0  0  0  0  0  0
   40.4960   24.0750   35.7360 O   0  0  0  0  0  0  0  0  0  0  0  0
   41.0320   23.3390   35.2970 H   0  0  0  0  0  0  0  0  0  0  0  0
   38.7780   22.5880   39.0180 O   0  0  0  0  0  0  0  0  0  0  0  0
   38.5920   23.1510   39.8060 H   0  0  0  0  0  0  0  0  0  0  0  0
   39.8640   21.6770   36.5760 O   0  0  0  0  0  0  0  0  0  0  0  0
   40.0640   21.3900   37.5040 H   0  0  0  0  0  0  0  0  0  0  0  0
  1  6  1  0  0  0  0
  2  1  2  0  0  0  0
  2  3  1  0  0  0  0
  3  4  2  0  0  0  0
  4  5  1  0  0  0  0
  4  9  1  0  0  0  0
  5 10  1  0  0  0  0
  6 22  1  0  0  0  0
  6  5  2  0  0  0  0
  7  2  1  0  0  0  0
  8  3  1  0  0  0  0
 11  1  1  0  0  0  0
 12 11  2  0  0  0  0
 13 18  1  0  0  0  0
 13 19  1  0  0  0  0
 14 13  2  0  0  0  0
 15 16  2  0  0  0  0
 15 14  1  0  0  0  0
 16 17  1  0  0  0  0
 17 11  1  0  0  0  0
 17 18  2  0  0  0  0
 20 14  1  0  0  0  0
 21 15  1  0  0  0  0
 22 23  2  0  0  0  0
 23 24  1  0  0  0  0
 24 26  1  0  0  0  0
 25 24  1  0  0  0  0
 27 28  1  0  0  0  0
 27 33  1  1  0  0  0
 27 32  1  0  0  0  0
 28 24  1  1  0  0  0
 28 29  1  0  0  0  0
 29 30  1  0  0  0  0
 31 30  1  0  0  0  0
 31 35  1  1  0  0  0
 32 37  1  1  0  0  0
 32 31  1  0  0  0  0
 34 33  1  0  0  0  0
 35 36  1  0  0  0  0
 37 38  1  0  0  0  0
M  END
>  <minimizedAffinity>
-6.2063508

$$$$

 OpenBabel03272509413D

 38 40  0  0  1  0  0  0  0  0999 V2000
   36.2990   28.9590   32.1090 C   0  0  0  0  0  0  0  0  0  0  0  0
   36.3280   29.4620   30.7970 C   0  0  0  0  0  0  0  0  0  0  0  0
   37.2170   28.9930   29.8390 C   0  0  0  0  0  0  0  0  0  0  0  0
   38.1270   27.9840   30.1700 C   0  0  0  0  0  0  0  0  0  0  0  0
   38.0880   27.4990   31.4640 C   0  0  0  0  0  0  0  0  0  0  0  0
   37.1890   27.9880   32.3970 C   0  0  0  0  0  0  0  0  0  0  0  0
   35.6390   30.2440   30.5000 H   0  0  0  0  0  0  0  0  0  0  0  0
   37.1860   29.4250   28.8480 H   0  0  0  0  0  0  0  0  0  0  0  0
   38.8100   27.6380   29.4040 H   0  0  0  0  0  0  0  0  0  0  0  0
   38.8250   26.7240   31.6280 H   0  0  0  0  0  0  0  0  0  0  0  0
   35.3420   29.5060   33.0320 C   0  0  0  0  0  0  0  0  0  0  0  0
   34.1980   28.9370   33.0280 O   0  0  0  0  0  0  0  0  0  0  0  0
   35.8240   32.9660   34.0390 C   0  0  0  0  0  0  0  0  0  0  0  0
   36.0400   32.8900   35.4130 C   0  0  0  0  0  0  0  0  0  0  0  0
   36.0240   31.6370   36.0110 C   0  0  0  0  0  0  0  0  0  0  0  0
   35.7990   30.5350   35.2430 N   0  0  0  0  0  0  0  0  0  0  0  0
   35.5950   30.6320   33.9390 C   0  0  0  0  0  0  0  0  0  0  0  0
   35.6120   31.8560   33.3530 N   0  0  0  0  0  0  0  0  0  0  0  0
   35.8450   33.9620   33.6150 H   0  0  0  0  0  0  0  0  0  0  0  0
   36.2150   33.7970   35.9820 H   0  0  0  0  0  0  0  0  0  0  0  0
   36.1870   31.5300   37.0760 H   0  0  0  0  0  0  0  0  0  0  0  0
   37.3040   27.3780   33.6910 C   0  0  0  0  0  3  0  0  0  0  0  0
   38.1650   26.4600   34.0890 C   0  0  0  0  0  3  0  0  0  0  0  0
   38.4120   25.7910   35.3630 C   0  0  0  0  0  0  0  0  0  0  0  0
   39.4760   25.9860   35.6510 H   0  0  0  0  0  0  0  0  0  0  0  0
   37.7970   26.2750   36.1500 H   0  0  0  0  0  0  0  0  0  0  0  0
   39.2710   23.4100   35.4420 C   0  0  2  0  0  3  0  0  0  0  0  0
   38.1120   24.3230   35.4100 C   0  0  1  0  0  3  0  0  0  0  0  0
   37.2280   24.0810   36.4500 O   0  0  0  0  0  0  0  0  0  0  0  0
   37.7590   24.3130   37.7070 C   0  0  0  0  0  2  0  0  0  0  0  0
   39.0050   23.4710   37.8580 C   0  0  2  0  0  3  0  0  0  0  0  0
   39.1150   22.5150   36.6860 C   0  0  2  0  0  3  0  0  0  0  0  0
   40.5060   24.0280   35.6150 O   0  0  0  0  0  0  0  0  0  0  0  0
   41.1720   23.3360   35.2990 H   0  0  0  0  0  0  0  0  0  0  0  0
   38.9060   22.7570   39.0440 O   0  0  0  0  0  0  0  0  0  0  0  0
   38.5980   23.3870   39.7370 H   0  0  0  0  0  0  0  0  0  0  0  0
   40.2300   21.7010   36.7850 O   0  0  0  0  0  0  0  0  0  0  0  0
   40.4320   21.5860   37.7480 H   0  0  0  0  0  0  0  0  0  0  0  0
  1  6  1  0  0  0  0
  1 11  1  0  0  0  0
  2  1  2  0  0  0  0
  3  4  2  0  0  0  0
  3  2  1  0  0  0  0
  4  5  1  0  0  0  0
  5 10  1  0  0  0  0
  5  6  2  0  0  0  0
  6 22  1  0  0  0  0
  7  2  1  0  0  0  0
  8  3  1  0  0  0  0
  9  4  1  0  0  0  0
 11 17  1  0  0  0  0
 12 11  2  0  0  0  0
 13 14  1  0  0  0  0
 14 20  1  0  0  0  0
 14 15  2  0  0  0  0
 15 21  1  0  0  0  0
 16 15  1  0  0  0  0
 17 16  2  0  0  0  0
 18 17  1  0  0  0  0
 18 13  2  0  0  0  0
 19 13  1  0  0  0  0
 22 23  2  0  0  0  0
 23 24  1  0  0  0  0
 24 25  1  0  0  0  0
 24 26  1  0  0  0  0
 27 33  1  1  0  0  0
 27 32  1  0  0  0  0
 28 24  1  1  0  0  0
 28 27  1  0  0  0  0
 28 29  1  0  0  0  0
 29 30  1  0  0  0  0
 30 31  1  0  0  0  0
 31 35  1  1  0  0  0
 32 37  1  1  0  0  0
 32 31  1  0  0  0  0
 34 33  1  0  0  0  0
 35 36  1  0  0  0  0
 37 38  1  0  0  0  0
M  END
>  <minimizedAffinity>
-6.17858696

$$$$

 OpenBabel03272509413D

 38 40  0  0  1  0  0  0  0  0999 V2000
   38.9930   27.5590   31.2590 C   0  0  0  0  0  0  0  0  0  0  0  0
   39.2760   28.0710   29.9810 C   0  0  0  0  0  0  0  0  0  0  0  0
   40.5750   28.2660   29.5290 C   0  0  0  0  0  0  0  0  0  0  0  0
   41.6550   27.9480   30.3570 C   0  0  0  0  0  0  0  0  0  0  0  0
   41.3620   27.4450   31.6110 C   0  0  0  0  0  0  0  0  0  0  0  0
   40.0560   27.2630   32.0340 C   0  0  0  0  0  0  0  0  0  0  0  0
   38.4670   28.3310   29.3080 H   0  0  0  0  0  0  0  0  0  0  0  0
   40.7210   28.6650   28.5340 H   0  0  0  0  0  0  0  0  0  0  0  0
   42.6570   28.1100   29.9790 H   0  0  0  0  0  0  0  0  0  0  0  0
   42.2560   27.2280   32.1790 H   0  0  0  0  0  0  0  0  0  0  0  0
   37.6170   27.3920   31.6400 C   0  0  0  0  0  0  0  0  0  0  0  0
   37.0580   28.4330   32.1280 O   0  0  0  0  0  0  0  0  0  0  0  0
   34.7820   25.2600   30.8450 C   0  0  0  0  0  0  0  0  0  0  0  0
   35.2260   23.9770   31.1560 C   0  0  0  0  0  0  0  0  0  0  0  0
   36.5170   23.8320   31.6500 C   0  0  0  0  0  0  0  0  0  0  0  0
   37.2960   24.9370   31.8090 N   0  0  0  0  0  0  0  0  0  0  0  0
   36.8520   26.1460   31.5060 C   0  0  0  0  0  0  0  0  0  0  0  0
   35.5920   26.2890   31.0250 N   0  0  0  0  0  0  0  0  0  0  0  0
   33.7710   25.3260   30.4650 H   0  0  0  0  0  0  0  0  0  0  0  0
   34.5670   23.1270   31.0120 H   0  0  0  0  0  0  0  0  0  0  0  0
   36.9050   22.8540   31.9050 H   0  0  0  0  0  0  0  0  0  0  0  0
   39.9420   26.7470   33.3690 C   0  0  0  0  0  3  0  0  0  0  0  0
   40.5240   25.6800   33.8850 C   0  0  0  0  0  3  0  0  0  0  0  0
   40.5250   25.0730   35.2120 C   0  0  0  0  0  0  0  0  0  0  0  0
   41.5380   25.2320   35.6610 H   0  0  0  0  0  0  0  0  0  0  0  0
   39.8200   25.6300   35.8650 H   0  0  0  0  0  0  0  0  0  0  0  0
   41.0210   22.7390   36.0600 C   0  0  2  0  0  3  0  0  0  0  0  0
   40.1370   23.6260   35.2800 C   0  0  1  0  0  3  0  0  0  0  0  0
   38.8150   23.5370   35.6890 O   0  0  0  0  0  0  0  0  0  0  0  0
   38.5970   23.9600   36.9880 C   0  0  0  0  0  2  0  0  0  0  0  0
   39.4960   23.1620   37.9050 C   0  0  2  0  0  3  0  0  0  0  0  0
   40.1500   22.0410   37.1210 C   0  0  2  0  0  3  0  0  0  0  0  0
   42.0080   23.3860   36.7970 O   0  0  0  0  0  0  0  0  0  0  0  0
   42.6850   22.6610   36.9910 H   0  0  0  0  0  0  0  0  0  0  0  0
   38.7160   22.6340   38.9260 O   0  0  0  0  0  0  0  0  0  0  0  0
   38.1310   23.3590   39.2480 H   0  0  0  0  0  0  0  0  0  0  0  0
   40.9690   21.2610   37.9190 O   0  0  0  0  0  0  0  0  0  0  0  0
   40.6080   21.2940   38.8420 H   0  0  0  0  0  0  0  0  0  0  0  0
  1 11  1  0  0  0  0
  1  6  1  0  0  0  0
  2  1  2  0  0  0  0
  3  2  1  0  0  0  0
  3  4  2  0  0  0  0
  4  5  1  0  0  0  0
  5  6  2  0  0  0  0
  5 10  1  0  0  0  0
  6 22  1  0  0  0  0
  7  2  1  0  0  0  0
  8  3  1  0  0  0  0
  9  4  1  0  0  0  0
 11 12  2  0  0  0  0
 13 18  2  0  0  0  0
 13 14  1  0  0  0  0
 14 15  2  0  0  0  0
 15 16  1  0  0  0  0
 15 21  1  0  0  0  0
 17 11  1  0  0  0  0
 17 16  2  0  0  0  0
 18 17  1  0  0  0  0
 19 13  1  0  0  0  0
 20 14  1  0  0  0  0
 22 23  2  0  0  0  0
 23 24  1  0  0  0  0
 24 25  1  0  0  0  0
 24 26  1  0  0  0  0
 27 33  1  1  0  0  0
 27 32  1  0  0  0  0
 28 24  1  1  0  0  0
 28 29  1  0  0  0  0
 28 27  1  0  0  0  0
 29 30  1  0  0  0  0
 30 31  1  0  0  0  0
 31 35  1  1  0  0  0
 32 31  1  0  0  0  0
 32 37  1  1  0  0  0
 33 34  1  0  0  0  0
 35 36  1  0  0  0  0
 37 38  1  0  0  0  0
M  END
>  <minimizedAffinity>
-6.06261206

$$$$

 OpenBabel03272509413D

 38 40  0  0  1  0  0  0  0  0999 V2000
   39.1970   25.9610   34.6460 C   0  0  0  0  0  0  0  0  0  0  0  0
   39.0120   27.0570   35.5060 C   0  0  0  0  0  0  0  0  0  0  0  0
   37.8580   27.8280   35.4920 C   0  0  0  0  0  0  0  0  0  0  0  0
   36.8270   27.5220   34.5980 C   0  0  0  0  0  0  0  0  0  0  0  0
   37.0220   26.4420   33.7580 C   0  0  0  0  0  0  0  0  0  0  0  0
   38.1850   25.6920   33.7950 C   0  0  0  0  0  0  0  0  0  0  0  0
   39.7870   27.3270   36.2140 H   0  0  0  0  0  0  0  0  0  0  0  0
   37.7820   28.6580   36.1810 H   0  0  0  0  0  0  0  0  0  0  0  0
   35.9390   28.1410   34.6080 H   0  0  0  0  0  0  0  0  0  0  0  0
   36.1760   26.2800   33.1040 H   0  0  0  0  0  0  0  0  0  0  0  0
   40.4260   25.2200   34.7330 C   0  0  0  0  0  0  0  0  0  0  0  0
   41.3590   25.6260   33.9590 O   0  0  0  0  0  0  0  0  0  0  0  0
   39.6460   22.6860   37.2190 C   0  0  0  0  0  0  0  0  0  0  0  0
   40.8320   21.9680   37.3520 C   0  0  0  0  0  0  0  0  0  0  0  0
   41.9220   22.3530   36.5820 C   0  0  0  0  0  0  0  0  0  0  0  0
   41.7960   23.4080   35.7310 N   0  0  0  0  0  0  0  0  0  0  0  0
   40.6580   24.0760   35.6220 C   0  0  0  0  0  0  0  0  0  0  0  0
   39.5940   23.7010   36.3740 N   0  0  0  0  0  0  0  0  0  0  0  0
   38.8240   22.3510   37.8390 H   0  0  0  0  0  0  0  0  0  0  0  0
   40.8840   21.1340   38.0450 H   0  0  0  0  0  0  0  0  0  0  0  0
   42.8640   21.8230   36.6520 H   0  0  0  0  0  0  0  0  0  0  0  0
   38.2190   24.6200   32.8410 C   0  0  0  0  0  3  0  0  0  0  0  0
   37.5970   23.4560   32.8960 C   0  0  0  0  0  3  0  0  0  0  0  0
   37.5160   22.3110   31.9950 C   0  0  0  0  0  0  0  0  0  0  0  0
   36.7590   22.5500   31.2060 H   0  0  0  0  0  0  0  0  0  0  0  0
   38.4820   22.2040   31.4590 H   0  0  0  0  0  0  0  0  0  0  0  0
   35.8000   20.5730   32.6660 C   0  0  2  0  0  3  0  0  0  0  0  0
   37.2160   20.9870   32.6320 C   0  0  1  0  0  3  0  0  0  0  0  0
   38.0290   20.0210   32.0580 O   0  0  0  0  0  0  0  0  0  0  0  0
   37.7550   19.7740   30.7240 C   0  0  0  0  0  2  0  0  0  0  0  0
   36.2980   19.3890   30.6020 C   0  0  2  0  0  3  0  0  0  0  0  0
   35.7090   19.1940   31.9850 C   0  0  2  0  0  3  0  0  0  0  0  0
   34.9310   21.3760   31.9330 O   0  0  0  0  0  0  0  0  0  0  0  0
   34.0200   21.1600   32.3130 H   0  0  0  0  0  0  0  0  0  0  0  0
   36.2220   18.2040   29.8820 O   0  0  0  0  0  0  0  0  0  0  0  0
   36.8180   18.2990   29.1030 H   0  0  0  0  0  0  0  0  0  0  0  0
   34.3780   18.8170   31.9320 O   0  0  0  0  0  0  0  0  0  0  0  0
   34.2400   18.3230   31.0830 H   0  0  0  0  0  0  0  0  0  0  0  0
  1 11  1  0  0  0  0
  1  2  1  0  0  0  0
  2  7  1  0  0  0  0
  3  2  2  0  0  0  0
  3  8  1  0  0  0  0
  4  9  1  0  0  0  0
  4  3  1  0  0  0  0
  5  6  1  0  0  0  0
  5  4  2  0  0  0  0
  6  1  2  0  0  0  0
 10  5  1  0  0  0  0
 11 17  1  0  0  0  0
 12 11  2  0  0  0  0
 13 14  1  0  0  0  0
 13 19  1  0  0  0  0
 14 20  1  0  0  0  0
 15 21  1  0  0  0  0
 15 14  2  0  0  0  0
 16 15  1  0  0  0  0
 17 16  2  0  0  0  0
 17 18  1  0  0  0  0
 18 13  2  0  0  0  0
 22 23  2  0  0  0  0
 22  6  1  0  0  0  0
 24 23  1  0  0  0  0
 25 24  1  0  0  0  0
 26 24  1  0  0  0  0
 27 33  1  6  0  0  0
 28 24  1  6  0  0  0
 28 27  1  0  0  0  0
 29 28  1  0  0  0  0
 30 29  1  0  0  0  0
 31 35  1  6  0  0  0
 31 30  1  0  0  0  0
 31 32  1  0  0  0  0
 32 37  1  6  0  0  0
 32 27  1  0  0  0  0
 33 34  1  0  0  0  0
 36 35  1  0  0  0  0
 38 37  1  0  0  0  0
M  END
>  <minimizedAffinity>
-6.04577589

$$$$

 OpenBabel03272509413D

 38 40  0  0  1  0  0  0  0  0999 V2000
   38.3090   27.6230   31.3880 C   0  0  0  0  0  0  0  0  0  0  0  0
   37.6690   28.5850   30.5890 C   0  0  0  0  0  0  0  0  0  0  0  0
   36.5290   29.2590   31.0050 C   0  0  0  0  0  0  0  0  0  0  0  0
   35.9800   28.9870   32.2620 C   0  0  0  0  0  0  0  0  0  0  0  0
   36.6190   28.0380   33.0370 C   0  0  0  0  0  0  0  0  0  0  0  0
   37.7550   27.3820   32.5940 C   0  0  0  0  0  0  0  0  0  0  0  0
   38.0630   28.8260   29.6080 H   0  0  0  0  0  0  0  0  0  0  0  0
   36.0860   29.9880   30.3390 H   0  0  0  0  0  0  0  0  0  0  0  0
   35.0890   29.5270   32.5600 H   0  0  0  0  0  0  0  0  0  0  0  0
   36.1250   27.8940   33.9890 H   0  0  0  0  0  0  0  0  0  0  0  0
   39.4850   26.9760   30.8730 C   0  0  0  0  0  0  0  0  0  0  0  0
   40.5940   27.4550   31.2910 O   0  0  0  0  0  0  0  0  0  0  0  0
   39.9470   25.2270   27.7200 C   0  0  0  0  0  0  0  0  0  0  0  0
   39.5750   23.9150   28.0040 C   0  0  0  0  0  0  0  0  0  0  0  0
   39.1560   23.6180   29.2940 C   0  0  0  0  0  0  0  0  0  0  0  0
   39.1240   24.6080   30.2290 N   0  0  0  0  0  0  0  0  0  0  0  0
   39.4830   25.8470   29.9350 C   0  0  0  0  0  0  0  0  0  0  0  0
   39.8920   26.1390   28.6750 N   0  0  0  0  0  0  0  0  0  0  0  0
   40.2670   25.4140   26.7030 H   0  0  0  0  0  0  0  0  0  0  0  0
   39.6170   23.1610   27.2250 H   0  0  0  0  0  0  0  0  0  0  0  0
   38.8570   22.6120   29.5610 H   0  0  0  0  0  0  0  0  0  0  0  0
   38.2730   26.4200   33.5240 C   0  0  0  0  0  3  0  0  0  0  0  0
   37.8990   25.1640   33.6950 C   0  0  0  0  0  3  0  0  0  0  0  0
   38.3560   24.0840   34.5630 C   0  0  0  0  0  0  0  0  0  0  0  0
   37.5190   23.3470   34.6610 H   0  0  0  0  0  0  0  0  0  0  0  0
   39.1770   23.5360   34.0550 H   0  0  0  0  0  0  0  0  0  0  0  0
   38.1590   23.9300   37.0830 C   0  0  2  0  0  3  0  0  0  0  0  0
   38.8650   24.4890   35.9140 C   0  0  1  0  0  3  0  0  0  0  0  0
   40.2300   24.2520   35.9650 O   0  0  0  0  0  0  0  0  0  0  0  0
   40.5730   22.9130   35.9120 C   0  0  0  0  0  2  0  0  0  0  0  0
   39.8620   22.1960   37.0380 C   0  0  2  0  0  3  0  0  0  0  0  0
   39.2100   23.2140   37.9520 C   0  0  2  0  0  3  0  0  0  0  0  0
   37.2220   22.9430   36.7920 O   0  0  0  0  0  0  0  0  0  0  0  0
   36.6360   22.9130   37.6150 H   0  0  0  0  0  0  0  0  0  0  0  0
   40.8030   21.4580   37.7450 O   0  0  0  0  0  0  0  0  0  0  0  0
   41.3630   20.9910   37.0810 H   0  0  0  0  0  0  0  0  0  0  0  0
   38.5620   22.6120   39.0180 O   0  0  0  0  0  0  0  0  0  0  0  0
   39.0310   21.7600   39.2110 H   0  0  0  0  0  0  0  0  0  0  0  0
  1  6  1  0  0  0  0
  2  3  1  0  0  0  0
  2  1  2  0  0  0  0
  3  4  2  0  0  0  0
  4  9  1  0  0  0  0
  4  5  1  0  0  0  0
  5 10  1  0  0  0  0
  6  5  2  0  0  0  0
  6 22  1  0  0  0  0
  7  2  1  0  0  0  0
  8  3  1  0  0  0  0
 11 12  2  0  0  0  0
 11  1  1  0  0  0  0
 13 14  2  0  0  0  0
 13 18  1  0  0  0  0
 14 15  1  0  0  0  0
 15 21  1  0  0  0  0
 15 16  2  0  0  0  0
 17 16  1  0  0  0  0
 17 11  1  0  0  0  0
 18 17  2  0  0  0  0
 19 13  1  0  0  0  0
 20 14  1  0  0  0  0
 22 23  2  0  0  0  0
 23 24  1  0  0  0  0
 24 25  1  0  0  0  0
 26 24  1  0  0  0  0
 27 33  1  6  0  0  0
 27 32  1  0  0  0  0
 28 24  1  6  0  0  0
 28 29  1  0  0  0  0
 28 27  1  0  0  0  0
 30 29  1  0  0  0  0
 30 31  1  0  0  0  0
 31 35  1  1  0  0  0
 31 32  1  0  0  0  0
 32 37  1  1  0  0  0
 33 34  1  0  0  0  0
 36 35  1  0  0  0  0
 37 38  1  0  0  0  0
M  END
>  <minimizedAffinity>
-5.98797464

$$$$

 OpenBabel03272509413D

 38 40  0  0  1  0  0  0  0  0999 V2000
   39.5470   25.6390   34.8290 C   0  0  0  0  0  0  0  0  0  0  0  0
   39.4210   26.8530   35.5240 C   0  0  0  0  0  0  0  0  0  0  0  0
   38.2530   27.6040   35.5050 C   0  0  0  0  0  0  0  0  0  0  0  0
   37.1490   27.1540   34.7750 C   0  0  0  0  0  0  0  0  0  0  0  0
   37.2870   25.9580   34.0970 C   0  0  0  0  0  0  0  0  0  0  0  0
   38.4650   25.2320   34.1340 C   0  0  0  0  0  0  0  0  0  0  0  0
   40.2540   27.2370   36.1020 H   0  0  0  0  0  0  0  0  0  0  0  0
   38.2250   28.5310   36.0620 H   0  0  0  0  0  0  0  0  0  0  0  0
   36.2510   27.7600   34.7780 H   0  0  0  0  0  0  0  0  0  0  0  0
   36.3850   25.6900   33.5620 H   0  0  0  0  0  0  0  0  0  0  0  0
   40.7960   24.9300   34.9080 C   0  0  0  0  0  0  0  0  0  0  0  0
   41.7280   25.3920   34.1650 O   0  0  0  0  0  0  0  0  0  0  0  0
   42.6410   22.1260   36.3000 C   0  0  0  0  0  0  0  0  0  0  0  0
   41.7620   21.5690   37.2260 C   0  0  0  0  0  0  0  0  0  0  0  0
   40.5130   22.1570   37.3790 C   0  0  0  0  0  0  0  0  0  0  0  0
   40.1940   23.2480   36.6290 N   0  0  0  0  0  0  0  0  0  0  0  0
   41.0470   23.7590   35.7560 C   0  0  0  0  0  0  0  0  0  0  0  0
   42.2660   23.1850   35.6050 N   0  0  0  0  0  0  0  0  0  0  0  0
   43.6020   21.6350   36.2130 H   0  0  0  0  0  0  0  0  0  0  0  0
   42.0620   20.6990   37.8000 H   0  0  0  0  0  0  0  0  0  0  0  0
   39.7970   21.7590   38.0870 H   0  0  0  0  0  0  0  0  0  0  0  0
   38.4310   24.0250   33.3580 C   0  0  0  0  0  3  0  0  0  0  0  0
   38.0480   22.8200   33.7380 C   0  0  0  0  0  3  0  0  0  0  0  0
   37.9310   21.5360   33.0540 C   0  0  0  0  0  0  0  0  0  0  0  0
   38.9640   21.1950   32.7860 H   0  0  0  0  0  0  0  0  0  0  0  0
   37.5450   20.7800   33.7700 H   0  0  0  0  0  0  0  0  0  0  0  0
   37.3020   20.4510   30.8540 C   0  0  2  0  0  3  0  0  0  0  0  0
   37.0350   21.5030   31.8520 C   0  0  1  0  0  3  0  0  0  0  0  0
   35.7160   21.4960   32.2790 O   0  0  0  0  0  0  0  0  0  0  0  0
   35.3470   20.3430   32.9510 C   0  0  0  0  0  2  0  0  0  0  0  0
   35.6260   19.1610   32.0510 C   0  0  2  0  0  3  0  0  0  0  0  0
   35.9970   19.6550   30.6670 C   0  0  2  0  0  3  0  0  0  0  0  0
   38.2370   19.4940   31.2390 O   0  0  0  0  0  0  0  0  0  0  0  0
   38.5260   19.0710   30.3680 H   0  0  0  0  0  0  0  0  0  0  0  0
   34.4750   18.3850   31.9860 O   0  0  0  0  0  0  0  0  0  0  0  0
   34.1370   18.2900   32.9070 H   0  0  0  0  0  0  0  0  0  0  0  0
   36.2410   18.6090   29.7930 O   0  0  0  0  0  0  0  0  0  0  0  0
   35.6970   17.8360   30.0910 H   0  0  0  0  0  0  0  0  0  0  0  0
  1 11  1  0  0  0  0
  1  2  1  0  0  0  0
  2  7  1  0  0  0  0
  3  2  2  0  0  0  0
  3  8  1  0  0  0  0
  4  9  1  0  0  0  0
  4  3  1  0  0  0  0
  5  6  1  0  0  0  0
  5  4  2  0  0  0  0
  6  1  2  0  0  0  0
 10  5  1  0  0  0  0
 11 17  1  0  0  0  0
 12 11  2  0  0  0  0
 13 14  1  0  0  0  0
 14 15  2  0  0  0  0
 14 20  1  0  0  0  0
 15 21  1  0  0  0  0
 16 15  1  0  0  0  0
 17 16  2  0  0  0  0
 18 17  1  0  0  0  0
 18 13  2  0  0  0  0
 19 13  1  0  0  0  0
 22 23  2  0  0  0  0
 22  6  1  0  0  0  0
 24 23  1  0  0  0  0
 24 26  1  0  0  0  0
 25 24  1  0  0  0  0
 27 33  1  1  0  0  0
 27 28  1  0  0  0  0
 28 29  1  0  0  0  0
 28 24  1  1  0  0  0
 29 30  1  0  0  0  0
 31 35  1  6  0  0  0
 31 30  1  0  0  0  0
 32 37  1  6  0  0  0
 32 27  1  0  0  0  0
 32 31  1  0  0  0  0
 34 33  1  0  0  0  0
 35 36  1  0  0  0  0
 37 38  1  0  0  0  0
M  END
>  <minimizedAffinity>
-5.94073296

$$$$

 OpenBabel03272509413D

 38 40  0  0  1  0  0  0  0  0999 V2000
   40.0140   22.9260   36.3900 C   0  0  0  0  0  0  0  0  0  0  0  0
   40.6040   21.8750   37.1110 C   0  0  0  0  0  0  0  0  0  0  0  0
   41.9780   21.6770   37.1480 C   0  0  0  0  0  0  0  0  0  0  0  0
   42.8250   22.5430   36.4500 C   0  0  0  0  0  0  0  0  0  0  0  0
   42.2310   23.5720   35.7440 C   0  0  0  0  0  0  0  0  0  0  0  0
   40.8570   23.7440   35.7260 C   0  0  0  0  0  0  0  0  0  0  0  0
   39.9830   21.1810   37.6670 H   0  0  0  0  0  0  0  0  0  0  0  0
   42.3660   20.8460   37.7230 H   0  0  0  0  0  0  0  0  0  0  0  0
   43.8920   22.3640   36.4960 H   0  0  0  0  0  0  0  0  0  0  0  0
   42.9600   24.1890   35.2370 H   0  0  0  0  0  0  0  0  0  0  0  0
   38.5820   23.0530   36.4110 C   0  0  0  0  0  0  0  0  0  0  0  0
   38.1270   23.9320   37.2190 O   0  0  0  0  0  0  0  0  0  0  0  0
   35.7570   20.8860   35.6770 C   0  0  0  0  0  0  0  0  0  0  0  0
   35.7980   20.7350   34.2930 C   0  0  0  0  0  0  0  0  0  0  0  0
   36.8090   21.3810   33.5930 C   0  0  0  0  0  0  0  0  0  0  0  0
   37.7150   22.1340   34.2750 N   0  0  0  0  0  0  0  0  0  0  0  0
   37.6550   22.2630   35.5910 C   0  0  0  0  0  0  0  0  0  0  0  0
   36.6690   21.6310   36.2760 N   0  0  0  0  0  0  0  0  0  0  0  0
   34.9530   20.3650   36.1820 H   0  0  0  0  0  0  0  0  0  0  0  0
   35.0530   20.1240   33.7940 H   0  0  0  0  0  0  0  0  0  0  0  0
   36.8790   21.2920   32.5160 H   0  0  0  0  0  0  0  0  0  0  0  0
   40.4180   24.8540   34.9300 C   0  0  0  0  0  3  0  0  0  0  0  0
   39.8940   24.8340   33.7170 C   0  0  0  0  0  3  0  0  0  0  0  0
   39.3800   25.8650   32.8220 C   0  0  0  0  0  0  0  0  0  0  0  0
   40.1550   26.6700   32.7470 H   0  0  0  0  0  0  0  0  0  0  0  0
   39.2890   25.4430   31.7990 H   0  0  0  0  0  0  0  0  0  0  0  0
   37.5970   27.6110   32.3890 C   0  0  2  0  0  3  0  0  0  0  0  0
   38.0450   26.4480   33.1790 C   0  0  1  0  0  3  0  0  0  0  0  0
   37.1030   25.4310   33.1920 O   0  0  0  0  0  0  0  0  0  0  0  0
   36.8570   24.8750   31.9490 C   0  0  0  0  0  2  0  0  0  0  0  0
   36.4380   25.9810   31.0080 C   0  0  2  0  0  3  0  0  0  0  0  0
   36.2210   27.2590   31.7960 C   0  0  2  0  0  3  0  0  0  0  0  0
   38.3840   27.9120   31.2820 O   0  0  0  0  0  0  0  0  0  0  0  0
   38.1440   28.8700   31.0640 H   0  0  0  0  0  0  0  0  0  0  0  0
   35.2550   25.5990   30.3890 O   0  0  0  0  0  0  0  0  0  0  0  0
   35.3690   24.6640   30.0990 H   0  0  0  0  0  0  0  0  0  0  0  0
   35.8120   28.3030   30.9840 O   0  0  0  0  0  0  0  0  0  0  0  0
   35.3200   27.9120   30.2170 H   0  0  0  0  0  0  0  0  0  0  0  0
  1 11  1  0  0  0  0
  1  2  1  0  0  0  0
  2  3  2  0  0  0  0
  2  7  1  0  0  0  0
  3  8  1  0  0  0  0
  4  9  1  0  0  0  0
  4  3  1  0  0  0  0
  5  4  2  0  0  0  0
  6  5  1  0  0  0  0
  6  1  2  0  0  0  0
 10  5  1  0  0  0  0
 11 12  2  0  0  0  0
 13 19  1  0  0  0  0
 13 18  1  0  0  0  0
 14 13  2  0  0  0  0
 15 16  2  0  0  0  0
 15 14  1  0  0  0  0
 16 17  1  0  0  0  0
 17 18  2  0  0  0  0
 17 11  1  0  0  0  0
 20 14  1  0  0  0  0
 21 15  1  0  0  0  0
 22  6  1  0  0  0  0
 23 22  2  0  0  0  0
 24 23  1  0  0  0  0
 25 24  1  0  0  0  0
 26 24  1  0  0  0  0
 27 33  1  6  0  0  0
 27 28  1  0  0  0  0
 28 24  1  6  0  0  0
 28 29  1  0  0  0  0
 30 29  1  0  0  0  0
 31 35  1  1  0  0  0
 31 32  1  0  0  0  0
 31 30  1  0  0  0  0
 32 37  1  6  0  0  0
 32 27  1  0  0  0  0
 34 33  1  0  0  0  0
 36 35  1  0  0  0  0
 38 37  1  0  0  0  0
M  END
>  <minimizedAffinity>
-5.9223032

$$$$
