
 OpenBabel03272509433D

 41 43  0  0  1  0  0  0  0  0999 V2000
   37.0060   30.9300   49.0680 C   0  0  0  0  0  0  0  0  0  0  0  0
   36.6840   31.8130   50.1000 C   0  0  0  0  0  0  0  0  0  0  0  0
   37.2660   33.0720   50.1930 C   0  0  0  0  0  0  0  0  0  0  0  0
   38.1960   33.4680   49.2290 C   0  0  0  0  0  0  0  0  0  0  0  0
   38.4990   32.5930   48.2260 C   0  0  0  0  0  0  0  0  0  0  0  0
   37.9000   31.3440   48.1650 C   0  0  0  0  0  0  0  0  0  0  0  0
   35.9530   31.4870   50.8460 H   0  0  0  0  0  0  0  0  0  0  0  0
   36.9450   33.6650   51.0280 H   0  0  0  0  0  0  0  0  0  0  0  0
   38.5910   34.4530   49.3780 H   0  0  0  0  0  0  0  0  0  0  0  0
   39.2370   33.0420   47.5570 H   0  0  0  0  0  0  0  0  0  0  0  0
   36.4290   29.6050   48.9940 C   0  0  2  0  0  0  0  0  0  0  0  0
   36.9630   29.0900   48.1050 H   0  0  0  0  0  0  0  0  0  0  0  0
   33.5920   30.0650   46.7720 C   0  0  0  0  0  0  0  0  0  0  0  0
   32.8940   28.8750   46.8700 C   0  0  0  0  0  0  0  0  0  0  0  0
   33.3570   27.9190   47.7530 C   0  0  0  0  0  0  0  0  0  0  0  0
   34.4880   28.1790   48.4990 N   0  0  0  0  0  0  0  0  0  0  0  0
   35.1100   29.3320   48.3580 C   0  0  0  0  0  0  0  0  0  0  0  0
   34.6710   30.2740   47.5060 N   0  0  0  0  0  0  0  0  0  0  0  0
   33.2020   30.7920   46.0720 H   0  0  0  0  0  0  0  0  0  0  0  0
   32.0020   28.5990   46.3190 H   0  0  0  0  0  0  0  0  0  0  0  0
   32.9090   26.9460   47.9320 H   0  0  0  0  0  0  0  0  0  0  0  0
   36.8720   28.8210   49.9150 O   0  0  0  0  0  0  0  0  0  0  0  0
   36.7160   29.1770   50.8460 H   0  0  0  0  0  0  0  0  0  0  0  0
   38.3320   30.5080   47.0690 C   0  0  0  0  0  3  0  0  0  0  0  0
   38.9740   30.9690   45.9890 C   0  0  0  0  0  3  0  0  0  0  0  0
   39.4970   30.2040   44.8330 C   0  0  0  0  0  0  0  0  0  0  0  0
   40.4610   29.6730   45.0730 H   0  0  0  0  0  0  0  0  0  0  0  0
   38.7770   29.4130   44.5560 H   0  0  0  0  0  0  0  0  0  0  0  0
   39.7870   31.3190   43.4560 S   0  0  0  0  0  0  0  0  0  0  0  0
   39.3030   29.9310   41.2060 C   0  0  1  0  0  3  0  0  0  0  0  0
   40.4540   30.5290   41.9960 C   0  0  2  0  0  3  0  0  0  0  0  0
   41.4110   29.5760   42.3120 O   0  0  0  0  0  0  0  0  0  0  0  0
   41.7290   28.8740   41.1440 C   0  0  0  0  0  2  0  0  0  0  0  0
   40.6160   27.8690   40.9490 C   0  0  1  0  0  3  0  0  0  0  0  0
   39.2630   28.4160   41.3430 C   0  0  2  0  0  3  0  0  0  0  0  0
   38.0780   30.4010   41.6840 O   0  0  0  0  0  0  0  0  0  0  0  0
   38.1480   31.2750   42.1460 H   0  0  0  0  0  0  0  0  0  0  0  0
   40.5360   27.5110   39.6220 O   0  0  0  0  0  0  0  0  0  0  0  0
   41.2860   27.8300   39.0930 H   0  0  0  0  0  0  0  0  0  0  0  0
   38.2470   27.9570   40.5060 O   0  0  0  0  0  0  0  0  0  0  0  0
   38.3060   28.3330   39.5990 H   0  0  0  0  0  0  0  0  0  0  0  0
  1  2  1  0  0  0  0
  2  3  2  0  0  0  0
  2  7  1  0  0  0  0
  3  8  1  0  0  0  0
  4  9  1  0  0  0  0
  4  3  1  0  0  0  0
  5  4  2  0  0  0  0
  6  5  1  0  0  0  0
  6  1  2  0  0  0  0
 10  5  1  0  0  0  0
 11 12  1  6  0  0  0
 11  1  1  0  0  0  0
 11 22  1  0  0  0  0
 13 14  2  0  0  0  0
 13 18  1  0  0  0  0
 14 15  1  0  0  0  0
 15 21  1  0  0  0  0
 15 16  2  0  0  0  0
 17 16  1  0  0  0  0
 17 11  1  0  0  0  0
 18 17  2  0  0  0  0
 19 13  1  0  0  0  0
 20 14  1  0  0  0  0
 22 23  1  0  0  0  0
 24  6  1  0  0  0  0
 25 24  2  0  0  0  0
 26 27  1  0  0  0  0
 26 25  1  0  0  0  0
 28 26  1  0  0  0  0
 29 26  1  0  0  0  0
 30 35  1  0  0  0  0
 30 36  1  1  0  0  0
 30 31  1  0  0  0  0
 31 32  1  0  0  0  0
 31 29  1  1  0  0  0
 33 32  1  0  0  0  0
 34 38  1  6  0  0  0
 34 33  1  0  0  0  0
 34 35  1  0  0  0  0
 35 40  1  6  0  0  0
 36 37  1  0  0  0  0
 39 38  1  0  0  0  0
 41 40  1  0  0  0  0
M  END
>  <minimizedAffinity>
-6.16394806

>  <minimizedRMSD>
0.617107034

$$$$
