
 OpenBabel03272503143D

 49 53  0  0  1  0  0  0  0  0999 V2000
   36.5180   28.2050   34.4940 C   0  0  0  0  0  0  0  0  0  0  0  0
   37.4190   27.2940   34.0120 C   0  0  0  0  0  0  0  0  0  0  0  0
   37.7970   27.2520   32.6950 C   0  0  0  0  0  0  0  0  0  0  0  0
   37.2550   28.1650   31.7970 C   0  0  0  0  0  0  0  0  0  0  0  0
   37.4260   28.3660   30.4900 N   0  0  0  0  0  0  0  0  0  0  0  0
   36.6580   29.3790   30.1330 C   0  0  0  0  0  0  0  0  0  0  0  0
   35.9960   29.8260   31.2080 N   0  0  0  0  0  0  0  0  0  0  0  0
   36.3440   29.0850   32.2920 C   0  0  0  0  0  0  0  0  0  0  0  0
   35.9440   29.1440   33.6270 C   0  0  0  0  0  0  0  0  0  0  0  0
   36.2790   28.1700   35.5250 H   0  0  0  0  0  0  0  0  0  0  0  0
   38.5150   26.4990   32.3960 H   0  0  0  0  0  0  0  0  0  0  0  0
   38.0590   27.8140   29.8640 H   0  0  0  0  0  0  0  0  0  0  0  0
   36.5090   29.8510   29.1670 H   0  0  0  0  0  0  0  0  0  0  0  0
   37.9740   26.3470   34.9570 C   0  0  0  0  0  0  0  0  0  0  0  0
   38.7110   26.8030   35.9050 O   0  0  0  0  0  0  0  0  0  0  0  0
   37.7850   24.9470   34.9430 N   0  0  0  0  0  0  0  0  0  0  0  0
   37.1880   24.5630   34.1730 H   0  0  0  0  0  0  0  0  0  0  0  0
   40.2820   23.8930   34.5980 F   0  0  0  0  0  0  0  0  0  0  0  0
   39.7200   23.7430   35.8290 C   0  0  0  0  0  0  0  0  0  0  0  0
   40.4000   23.0920   36.8190 C   0  0  0  0  0  0  0  0  0  0  0  0
   39.7740   22.9770   38.0330 C   0  0  0  0  0  0  0  0  0  0  0  0
   38.5260   23.4830   38.2710 C   0  0  0  0  0  0  0  0  0  0  0  0
   37.8470   24.1440   37.2490 C   0  0  0  0  0  0  0  0  0  0  0  0
   38.4630   24.2690   36.0160 C   0  0  0  0  0  0  0  0  0  0  0  0
   40.3050   22.4630   38.8250 H   0  0  0  0  0  0  0  0  0  0  0  0
   38.1050   23.3490   39.2580 H   0  0  0  0  0  0  0  0  0  0  0  0
   36.8590   24.5410   37.4440 H   0  0  0  0  0  0  0  0  0  0  0  0
   44.1350   22.8530   36.1830 C   0  0  0  0  0  0  0  0  0  0  0  0
   42.8540   23.3860   36.4890 C   0  0  0  0  0  0  0  0  0  0  0  0
   41.7340   22.5710   36.5070 C   0  0  0  0  0  0  0  0  0  0  0  0
   41.9200   21.2490   36.2230 N   0  0  0  0  0  0  0  0  0  0  0  0
   43.1340   20.7470   35.9350 C   0  0  0  0  0  0  0  0  0  0  0  0
   44.2120   21.5320   35.9170 N   0  0  0  0  0  0  0  0  0  0  0  0
   44.9910   23.5190   36.1770 H   0  0  0  0  0  0  0  0  0  0  0  0
   42.7650   24.4390   36.7050 H   0  0  0  0  0  0  0  0  0  0  0  0
   43.1510   19.6850   35.7280 H   0  0  0  0  0  0  0  0  0  0  0  0
   35.0460   30.0620   34.0790 O   0  0  0  0  0  0  0  0  0  0  0  0
   35.9480   31.8940   35.3800 C   0  0  2  0  0  3  0  0  0  0  0  0
   34.9860   30.6940   35.2910 C   0  0  1  0  0  3  0  0  0  0  0  0
   33.6960   31.1080   35.6510 O   0  0  0  0  0  0  0  0  0  0  0  0
   33.3400   32.3290   35.0870 C   0  0  0  0  0  2  0  0  0  0  0  0
   34.1470   33.4720   35.6540 C   0  0  2  0  0  3  0  0  0  0  0  0
   35.3290   32.8430   36.3860 C   0  0  1  0  0  3  0  0  0  0  0  0
   36.0290   32.5760   34.1700 O   0  0  0  0  0  0  0  0  0  0  0  0
   36.9550   32.8440   33.9450 H   0  0  0  0  0  0  0  0  0  0  0  0
   33.4290   34.3510   36.4250 O   0  0  0  0  0  0  0  0  0  0  0  0
   33.2400   33.8980   37.2970 H   0  0  0  0  0  0  0  0  0  0  0  0
   34.9100   32.1870   37.5410 O   0  0  0  0  0  0  0  0  0  0  0  0
   35.6970   31.6620   37.8530 H   0  0  0  0  0  0  0  0  0  0  0  0
  1 10  1  0  0  0  0
  2  1  1  0  0  0  0
  2 14  1  0  0  0  0
  3  2  2  0  0  0  0
  4  8  2  0  0  0  0
  4  3  1  0  0  0  0
  5  4  1  0  0  0  0
  6  5  1  0  0  0  0
  6  7  2  0  0  0  0
  7  8  1  0  0  0  0
  8  9  1  0  0  0  0
  9 37  1  0  0  0  0
  9  1  2  0  0  0  0
 11  3  1  0  0  0  0
 12  5  1  0  0  0  0
 13  6  1  0  0  0  0
 14 15  2  0  0  0  0
 16 14  1  0  0  0  0
 16 24  1  0  0  0  0
 17 16  1  0  0  0  0
 18 19  1  0  0  0  0
 19 24  2  0  0  0  0
 19 20  1  0  0  0  0
 20 21  2  0  0  0  0
 21 22  1  0  0  0  0
 21 25  1  0  0  0  0
 22 26  1  0  0  0  0
 23 27  1  0  0  0  0
 23 22  2  0  0  0  0
 24 23  1  0  0  0  0
 28 29  1  0  0  0  0
 29 30  2  0  0  0  0
 29 35  1  0  0  0  0
 30 20  1  0  0  0  0
 31 30  1  0  0  0  0
 32 31  2  0  0  0  0
 33 32  1  0  0  0  0
 33 28  2  0  0  0  0
 34 28  1  0  0  0  0
 36 32  1  0  0  0  0
 38 44  1  6  0  0  0
 38 43  1  0  0  0  0
 39 37  1  6  0  0  0
 39 38  1  0  0  0  0
 39 40  1  0  0  0  0
 41 40  1  0  0  0  0
 41 42  1  0  0  0  0
 42 43  1  0  0  0  0
 42 46  1  1  0  0  0
 43 48  1  1  0  0  0
 45 44  1  0  0  0  0
 46 47  1  0  0  0  0
 48 49  1  0  0  0  0
M  END
>  <minimizedAffinity>
-7.63321447

$$$$

 OpenBabel03272503143D

 49 53  0  0  1  0  0  0  0  0999 V2000
   38.1870   24.4000   32.8240 C   0  0  0  0  0  0  0  0  0  0  0  0
   37.0160   24.6910   32.1770 C   0  0  0  0  0  0  0  0  0  0  0  0
   36.2620   23.7360   31.5440 C   0  0  0  0  0  0  0  0  0  0  0  0
   36.6890   22.4130   31.5490 C   0  0  0  0  0  0  0  0  0  0  0  0
   36.1820   21.2920   31.0340 N   0  0  0  0  0  0  0  0  0  0  0  0
   37.0010   20.3010   31.3380 C   0  0  0  0  0  0  0  0  0  0  0  0
   38.0300   20.7860   32.0450 N   0  0  0  0  0  0  0  0  0  0  0  0
   37.8750   22.1260   32.2060 C   0  0  0  0  0  0  0  0  0  0  0  0
   38.6570   23.0820   32.8550 C   0  0  0  0  0  0  0  0  0  0  0  0
   38.7090   25.1960   33.2890 H   0  0  0  0  0  0  0  0  0  0  0  0
   35.3490   24.0510   31.0560 H   0  0  0  0  0  0  0  0  0  0  0  0
   35.2920   21.2190   30.4870 H   0  0  0  0  0  0  0  0  0  0  0  0
   36.9500   19.2430   31.1070 H   0  0  0  0  0  0  0  0  0  0  0  0
   36.5840   26.0740   32.1780 C   0  0  0  0  0  0  0  0  0  0  0  0
   35.3940   26.3340   31.7700 O   0  0  0  0  0  0  0  0  0  0  0  0
   37.3520   27.1870   32.5880 N   0  0  0  0  0  0  0  0  0  0  0  0
   38.3240   26.9860   32.9210 H   0  0  0  0  0  0  0  0  0  0  0  0
   36.1850   28.3520   34.7660 F   0  0  0  0  0  0  0  0  0  0  0  0
   36.0650   29.0130   33.5810 C   0  0  0  0  0  0  0  0  0  0  0  0
   35.3890   30.1980   33.5230 C   0  0  0  0  0  0  0  0  0  0  0  0
   35.3080   30.8100   32.2980 C   0  0  0  0  0  0  0  0  0  0  0  0
   35.8700   30.2790   31.1700 C   0  0  0  0  0  0  0  0  0  0  0  0
   36.5560   29.0680   31.2490 C   0  0  0  0  0  0  0  0  0  0  0  0
   36.6490   28.4370   32.4770 C   0  0  0  0  0  0  0  0  0  0  0  0
   34.7740   31.7500   32.2400 H   0  0  0  0  0  0  0  0  0  0  0  0
   35.7590   30.8260   30.2440 H   0  0  0  0  0  0  0  0  0  0  0  0
   36.9980   28.6540   30.3520 H   0  0  0  0  0  0  0  0  0  0  0  0
   34.9380   32.0160   36.8250 C   0  0  0  0  0  0  0  0  0  0  0  0
   35.5270   31.5260   35.6300 C   0  0  0  0  0  0  0  0  0  0  0  0
   34.8080   30.7190   34.7640 C   0  0  0  0  0  0  0  0  0  0  0  0
   33.5200   30.4250   35.1100 N   0  0  0  0  0  0  0  0  0  0  0  0
   32.9640   30.8910   36.2430 C   0  0  0  0  0  0  0  0  0  0  0  0
   33.6580   31.6670   37.0760 N   0  0  0  0  0  0  0  0  0  0  0  0
   35.5290   32.6450   37.4820 H   0  0  0  0  0  0  0  0  0  0  0  0
   36.5490   31.7890   35.4050 H   0  0  0  0  0  0  0  0  0  0  0  0
   31.9380   30.5880   36.4050 H   0  0  0  0  0  0  0  0  0  0  0  0
   39.8180   22.7630   33.4920 O   0  0  0  0  0  0  0  0  0  0  0  0
   40.7850   23.1350   35.6790 C   0  0  2  0  0  3  0  0  0  0  0  0
   40.0060   22.2090   34.7270 C   0  0  1  0  0  3  0  0  0  0  0  0
   38.8190   21.7980   35.3510 O   0  0  0  0  0  0  0  0  0  0  0  0
   38.1620   22.8350   36.0050 C   0  0  0  0  0  2  0  0  0  0  0  0
   38.9320   23.3240   37.2090 C   0  0  2  0  0  3  0  0  0  0  0  0
   40.3420   22.7560   37.0770 C   0  0  1  0  0  3  0  0  0  0  0  0
   40.4410   24.4700   35.4900 O   0  0  0  0  0  0  0  0  0  0  0  0
   41.2270   25.0720   35.5130 H   0  0  0  0  0  0  0  0  0  0  0  0
   38.3390   23.0500   38.4150 O   0  0  0  0  0  0  0  0  0  0  0  0
   38.4570   22.0720   38.5900 H   0  0  0  0  0  0  0  0  0  0  0  0
   40.3440   21.3770   37.2760 O   0  0  0  0  0  0  0  0  0  0  0  0
   41.2510   21.0670   36.9980 H   0  0  0  0  0  0  0  0  0  0  0  0
  1  9  1  0  0  0  0
  1 10  1  0  0  0  0
  2 14  1  0  0  0  0
  2  1  2  0  0  0  0
  3  4  2  0  0  0  0
  3  2  1  0  0  0  0
  4  8  1  0  0  0  0
  5  6  1  0  0  0  0
  5  4  1  0  0  0  0
  6  7  2  0  0  0  0
  7  8  1  0  0  0  0
  8  9  2  0  0  0  0
  9 37  1  0  0  0  0
 11  3  1  0  0  0  0
 12  5  1  0  0  0  0
 13  6  1  0  0  0  0
 14 16  1  0  0  0  0
 15 14  2  0  0  0  0
 16 17  1  0  0  0  0
 19 18  1  0  0  0  0
 20 19  1  0  0  0  0
 20 30  1  0  0  0  0
 21 20  2  0  0  0  0
 22 23  2  0  0  0  0
 22 21  1  0  0  0  0
 23 24  1  0  0  0  0
 24 16  1  0  0  0  0
 24 19  2  0  0  0  0
 25 21  1  0  0  0  0
 26 22  1  0  0  0  0
 27 23  1  0  0  0  0
 28 33  1  0  0  0  0
 28 34  1  0  0  0  0
 29 28  2  0  0  0  0
 30 31  2  0  0  0  0
 30 29  1  0  0  0  0
 31 32  1  0  0  0  0
 32 36  1  0  0  0  0
 32 33  2  0  0  0  0
 35 29  1  0  0  0  0
 38 44  1  6  0  0  0
 38 43  1  0  0  0  0
 39 37  1  6  0  0  0
 39 40  1  0  0  0  0
 39 38  1  0  0  0  0
 40 41  1  0  0  0  0
 41 42  1  0  0  0  0
 42 46  1  1  0  0  0
 43 42  1  0  0  0  0
 43 48  1  6  0  0  0
 44 45  1  0  0  0  0
 46 47  1  0  0  0  0
 49 48  1  0  0  0  0
M  END
>  <minimizedAffinity>
-7.57375288

$$$$

 OpenBabel03272503143D

 49 53  0  0  1  0  0  0  0  0999 V2000
   37.2310   27.1650   33.8630 C   0  0  0  0  0  0  0  0  0  0  0  0
   36.6570   27.9330   32.8850 C   0  0  0  0  0  0  0  0  0  0  0  0
   36.9850   27.8110   31.5590 C   0  0  0  0  0  0  0  0  0  0  0  0
   37.9370   26.8730   31.1730 C   0  0  0  0  0  0  0  0  0  0  0  0
   38.4490   26.5320   29.9900 N   0  0  0  0  0  0  0  0  0  0  0  0
   39.3300   25.5700   30.1930 C   0  0  0  0  0  0  0  0  0  0  0  0
   39.3840   25.2960   31.5030 N   0  0  0  0  0  0  0  0  0  0  0  0
   38.5130   26.1000   32.1680 C   0  0  0  0  0  0  0  0  0  0  0  0
   38.1960   26.2080   33.5220 C   0  0  0  0  0  0  0  0  0  0  0  0
   36.9220   27.3220   34.8640 H   0  0  0  0  0  0  0  0  0  0  0  0
   36.4840   28.4560   30.8510 H   0  0  0  0  0  0  0  0  0  0  0  0
   38.1920   26.9570   29.0670 H   0  0  0  0  0  0  0  0  0  0  0  0
   39.9590   25.0250   29.4970 H   0  0  0  0  0  0  0  0  0  0  0  0
   35.6690   28.9060   33.3020 C   0  0  0  0  0  0  0  0  0  0  0  0
   35.2790   29.7770   32.4410 O   0  0  0  0  0  0  0  0  0  0  0  0
   35.0780   28.9980   34.5820 N   0  0  0  0  0  0  0  0  0  0  0  0
   35.3890   28.2950   35.2920 H   0  0  0  0  0  0  0  0  0  0  0  0
   35.6710   31.2820   35.9580 F   0  0  0  0  0  0  0  0  0  0  0  0
   34.4350   31.2140   35.3900 C   0  0  0  0  0  0  0  0  0  0  0  0
   33.5620   32.2560   35.5220 C   0  0  0  0  0  0  0  0  0  0  0  0
   32.3350   32.1210   34.9240 C   0  0  0  0  0  0  0  0  0  0  0  0
   31.9770   31.0050   34.2210 C   0  0  0  0  0  0  0  0  0  0  0  0
   32.8820   29.9510   34.0970 C   0  0  0  0  0  0  0  0  0  0  0  0
   34.1240   30.0690   34.6940 C   0  0  0  0  0  0  0  0  0  0  0  0
   31.6350   32.9410   35.0220 H   0  0  0  0  0  0  0  0  0  0  0  0
   30.9900   30.9790   33.7800 H   0  0  0  0  0  0  0  0  0  0  0  0
   32.5910   29.0700   33.5380 H   0  0  0  0  0  0  0  0  0  0  0  0
   34.0880   34.7580   38.3280 C   0  0  0  0  0  0  0  0  0  0  0  0
   33.6480   33.6130   37.6130 C   0  0  0  0  0  0  0  0  0  0  0  0
   34.0000   33.4280   36.2860 C   0  0  0  0  0  0  0  0  0  0  0  0
   34.7830   34.3860   35.7090 N   0  0  0  0  0  0  0  0  0  0  0  0
   35.1990   35.4690   36.3890 C   0  0  0  0  0  0  0  0  0  0  0  0
   34.8580   35.6470   37.6660 N   0  0  0  0  0  0  0  0  0  0  0  0
   33.7930   34.8730   39.3660 H   0  0  0  0  0  0  0  0  0  0  0  0
   33.0300   32.8870   38.1180 H   0  0  0  0  0  0  0  0  0  0  0  0
   35.8140   36.1550   35.8220 H   0  0  0  0  0  0  0  0  0  0  0  0
   38.7830   25.4310   34.4730 O   0  0  0  0  0  0  0  0  0  0  0  0
   39.5620   23.2790   35.2610 C   0  0  2  0  0  3  0  0  0  0  0  0
   38.3800   24.2250   34.9770 C   0  0  1  0  0  3  0  0  0  0  0  0
   37.5850   24.3290   36.1280 O   0  0  0  0  0  0  0  0  0  0  0  0
   38.3310   24.4760   37.2920 C   0  0  0  0  0  2  0  0  0  0  0  0
   39.1110   23.2280   37.6290 C   0  0  2  0  0  3  0  0  0  0  0  0
   39.0960   22.3610   36.3720 C   0  0  1  0  0  3  0  0  0  0  0  0
   40.6690   23.9720   35.7400 O   0  0  0  0  0  0  0  0  0  0  0  0
   41.5180   23.6530   35.3430 H   0  0  0  0  0  0  0  0  0  0  0  0
   38.6810   22.5720   38.7540 O   0  0  0  0  0  0  0  0  0  0  0  0
   37.8220   22.1140   38.5230 H   0  0  0  0  0  0  0  0  0  0  0  0
   37.8230   21.8480   36.1350 O   0  0  0  0  0  0  0  0  0  0  0  0
   37.8580   21.4550   35.2200 H   0  0  0  0  0  0  0  0  0  0  0  0
  1 10  1  0  0  0  0
  2 14  1  0  0  0  0
  2  1  2  0  0  0  0
  3  2  1  0  0  0  0
  4  3  2  0  0  0  0
  4  8  1  0  0  0  0
  5  6  1  0  0  0  0
  5  4  1  0  0  0  0
  6  7  2  0  0  0  0
  7  8  1  0  0  0  0
  8  9  2  0  0  0  0
  9  1  1  0  0  0  0
  9 37  1  0  0  0  0
 11  3  1  0  0  0  0
 12  5  1  0  0  0  0
 13  6  1  0  0  0  0
 14 16  1  0  0  0  0
 15 14  2  0  0  0  0
 16 24  1  0  0  0  0
 16 17  1  0  0  0  0
 19 20  1  0  0  0  0
 19 18  1  0  0  0  0
 20 30  1  0  0  0  0
 21 25  1  0  0  0  0
 21 20  2  0  0  0  0
 22 21  1  0  0  0  0
 23 22  2  0  0  0  0
 23 24  1  0  0  0  0
 24 19  2  0  0  0  0
 26 22  1  0  0  0  0
 27 23  1  0  0  0  0
 28 34  1  0  0  0  0
 29 35  1  0  0  0  0
 29 28  2  0  0  0  0
 30 29  1  0  0  0  0
 31 30  2  0  0  0  0
 31 32  1  0  0  0  0
 32 33  2  0  0  0  0
 33 28  1  0  0  0  0
 36 32  1  0  0  0  0
 38 44  1  1  0  0  0
 38 43  1  0  0  0  0
 39 37  1  1  0  0  0
 39 38  1  0  0  0  0
 39 40  1  0  0  0  0
 40 41  1  0  0  0  0
 41 42  1  0  0  0  0
 42 46  1  1  0  0  0
 43 48  1  6  0  0  0
 43 42  1  0  0  0  0
 45 44  1  0  0  0  0
 47 46  1  0  0  0  0
 49 48  1  0  0  0  0
M  END
>  <minimizedAffinity>
-7.24048758

$$$$

 OpenBabel03272503143D

 49 53  0  0  1  0  0  0  0  0999 V2000
   36.5900   27.9270   33.9830 C   0  0  0  0  0  0  0  0  0  0  0  0
   37.6350   27.1060   33.6520 C   0  0  0  0  0  0  0  0  0  0  0  0
   38.2050   27.1000   32.4050 C   0  0  0  0  0  0  0  0  0  0  0  0
   37.7170   27.9570   31.4240 C   0  0  0  0  0  0  0  0  0  0  0  0
   38.0580   28.1730   30.1530 N   0  0  0  0  0  0  0  0  0  0  0  0
   37.2580   29.1080   29.6740 C   0  0  0  0  0  0  0  0  0  0  0  0
   36.4070   29.4900   30.6340 N   0  0  0  0  0  0  0  0  0  0  0  0
   36.6600   28.7860   31.7680 C   0  0  0  0  0  0  0  0  0  0  0  0
   36.0640   28.8070   33.0290 C   0  0  0  0  0  0  0  0  0  0  0  0
   36.2070   27.8700   34.9700 H   0  0  0  0  0  0  0  0  0  0  0  0
   39.0270   26.4200   32.2250 H   0  0  0  0  0  0  0  0  0  0  0  0
   38.8260   27.6840   29.6350 H   0  0  0  0  0  0  0  0  0  0  0  0
   37.2090   29.5630   28.6900 H   0  0  0  0  0  0  0  0  0  0  0  0
   38.1320   26.2180   34.6820 C   0  0  0  0  0  0  0  0  0  0  0  0
   38.9290   26.7030   35.5640 O   0  0  0  0  0  0  0  0  0  0  0  0
   37.8260   24.8450   34.8180 N   0  0  0  0  0  0  0  0  0  0  0  0
   37.1780   24.4380   34.1020 H   0  0  0  0  0  0  0  0  0  0  0  0
   40.3140   23.7400   34.5920 F   0  0  0  0  0  0  0  0  0  0  0  0
   39.7230   23.6720   35.8180 C   0  0  0  0  0  0  0  0  0  0  0  0
   40.3730   23.0750   36.8600 C   0  0  0  0  0  0  0  0  0  0  0  0
   39.7210   23.0420   38.0650 C   0  0  0  0  0  0  0  0  0  0  0  0
   38.4760   23.5780   38.2440 C   0  0  0  0  0  0  0  0  0  0  0  0
   37.8280   24.1840   37.1690 C   0  0  0  0  0  0  0  0  0  0  0  0
   38.4700   24.2260   35.9440 C   0  0  0  0  0  0  0  0  0  0  0  0
   40.2270   22.5710   38.8980 H   0  0  0  0  0  0  0  0  0  0  0  0
   38.0320   23.5100   39.2280 H   0  0  0  0  0  0  0  0  0  0  0  0
   36.8410   24.6050   37.3180 H   0  0  0  0  0  0  0  0  0  0  0  0
   43.2410   20.6440   36.3310 C   0  0  0  0  0  0  0  0  0  0  0  0
   41.9390   21.1540   36.5760 C   0  0  0  0  0  0  0  0  0  0  0  0
   41.7070   22.5190   36.6090 C   0  0  0  0  0  0  0  0  0  0  0  0
   42.7770   23.3390   36.3960 N   0  0  0  0  0  0  0  0  0  0  0  0
   44.0100   22.8530   36.1640 C   0  0  0  0  0  0  0  0  0  0  0  0
   44.2320   21.5390   36.1330 N   0  0  0  0  0  0  0  0  0  0  0  0
   43.3890   19.5700   36.3120 H   0  0  0  0  0  0  0  0  0  0  0  0
   41.1290   20.4600   36.7390 H   0  0  0  0  0  0  0  0  0  0  0  0
   44.7740   23.6040   36.0100 H   0  0  0  0  0  0  0  0  0  0  0  0
   35.0260   29.6350   33.3310 O   0  0  0  0  0  0  0  0  0  0  0  0
   32.8310   29.3900   34.3210 C   0  0  2  0  0  3  0  0  0  0  0  0
   33.6950   29.4950   33.0510 C   0  0  1  0  0  3  0  0  0  0  0  0
   33.1810   30.5060   32.2250 O   0  0  0  0  0  0  0  0  0  0  0  0
   32.8310   31.6540   32.9260 C   0  0  0  0  0  2  0  0  0  0  0  0
   31.6420   31.4280   33.8300 C   0  0  2  0  0  3  0  0  0  0  0  0
   31.4640   29.9160   33.9340 C   0  0  1  0  0  3  0  0  0  0  0  0
   33.3120   30.2100   35.3380 O   0  0  0  0  0  0  0  0  0  0  0  0
   33.2900   29.7700   36.2240 H   0  0  0  0  0  0  0  0  0  0  0  0
   30.5020   32.0900   33.4500 O   0  0  0  0  0  0  0  0  0  0  0  0
   30.1330   31.6160   32.6500 H   0  0  0  0  0  0  0  0  0  0  0  0
   31.0150   29.3810   32.7290 O   0  0  0  0  0  0  0  0  0  0  0  0
   31.0990   28.3930   32.8250 H   0  0  0  0  0  0  0  0  0  0  0  0
  1 10  1  0  0  0  0
  2  1  1  0  0  0  0
  2 14  1  0  0  0  0
  3  2  2  0  0  0  0
  4  8  2  0  0  0  0
  4  3  1  0  0  0  0
  5  4  1  0  0  0  0
  6  5  1  0  0  0  0
  6  7  2  0  0  0  0
  7  8  1  0  0  0  0
  8  9  1  0  0  0  0
  9 37  1  0  0  0  0
  9  1  2  0  0  0  0
 11  3  1  0  0  0  0
 12  5  1  0  0  0  0
 13  6  1  0  0  0  0
 14 16  1  0  0  0  0
 14 15  2  0  0  0  0
 16 24  1  0  0  0  0
 17 16  1  0  0  0  0
 18 19  1  0  0  0  0
 19 24  2  0  0  0  0
 19 20  1  0  0  0  0
 20 21  2  0  0  0  0
 21 22  1  0  0  0  0
 21 25  1  0  0  0  0
 22 26  1  0  0  0  0
 23 27  1  0  0  0  0
 23 22  2  0  0  0  0
 24 23  1  0  0  0  0
 28 29  1  0  0  0  0
 29 30  2  0  0  0  0
 29 35  1  0  0  0  0
 30 20  1  0  0  0  0
 31 30  1  0  0  0  0
 32 31  2  0  0  0  0
 33 32  1  0  0  0  0
 33 28  2  0  0  0  0
 34 28  1  0  0  0  0
 36 32  1  0  0  0  0
 38 44  1  1  0  0  0
 39 37  1  1  0  0  0
 39 38  1  0  0  0  0
 40 41  1  0  0  0  0
 40 39  1  0  0  0  0
 41 42  1  0  0  0  0
 42 46  1  6  0  0  0
 42 43  1  0  0  0  0
 43 48  1  6  0  0  0
 43 38  1  0  0  0  0
 44 45  1  0  0  0  0
 47 46  1  0  0  0  0
 48 49  1  0  0  0  0
M  END
>  <minimizedAffinity>
-7.09516144

$$$$

 OpenBabel03272503143D

 49 53  0  0  1  0  0  0  0  0999 V2000
   37.9260   26.4770   33.7200 C   0  0  0  0  0  0  0  0  0  0  0  0
   37.3380   27.5490   33.1050 C   0  0  0  0  0  0  0  0  0  0  0  0
   37.4600   27.7900   31.7600 C   0  0  0  0  0  0  0  0  0  0  0  0
   38.2060   26.9200   30.9730 C   0  0  0  0  0  0  0  0  0  0  0  0
   38.4960   26.8930   29.6720 N   0  0  0  0  0  0  0  0  0  0  0  0
   39.2510   25.8320   29.4480 C   0  0  0  0  0  0  0  0  0  0  0  0
   39.4440   25.1820   30.6030 N   0  0  0  0  0  0  0  0  0  0  0  0
   38.7980   25.8360   31.6030 C   0  0  0  0  0  0  0  0  0  0  0  0
   38.6890   25.5730   32.9690 C   0  0  0  0  0  0  0  0  0  0  0  0
   37.7830   26.3630   34.7630 H   0  0  0  0  0  0  0  0  0  0  0  0
   36.9630   28.6610   31.3530 H   0  0  0  0  0  0  0  0  0  0  0  0
   38.1770   27.5910   28.9600 H   0  0  0  0  0  0  0  0  0  0  0  0
   39.6930   25.4570   28.5320 H   0  0  0  0  0  0  0  0  0  0  0  0
   36.5660   28.4490   33.9360 C   0  0  0  0  0  0  0  0  0  0  0  0
   36.4930   28.1960   35.1940 O   0  0  0  0  0  0  0  0  0  0  0  0
   35.8700   29.5980   33.4980 N   0  0  0  0  0  0  0  0  0  0  0  0
   35.9200   29.8130   32.4750 H   0  0  0  0  0  0  0  0  0  0  0  0
   33.2560   29.0740   34.0960 F   0  0  0  0  0  0  0  0  0  0  0  0
   33.8780   30.0220   34.8510 C   0  0  0  0  0  0  0  0  0  0  0  0
   33.1970   30.6590   35.8490 C   0  0  0  0  0  0  0  0  0  0  0  0
   33.8840   31.6010   36.5700 C   0  0  0  0  0  0  0  0  0  0  0  0
   35.1930   31.9100   36.3210 C   0  0  0  0  0  0  0  0  0  0  0  0
   35.8720   31.2500   35.2980 C   0  0  0  0  0  0  0  0  0  0  0  0
   35.1940   30.2950   34.5600 C   0  0  0  0  0  0  0  0  0  0  0  0
   33.3540   32.1120   37.3640 H   0  0  0  0  0  0  0  0  0  0  0  0
   35.6600   32.6660   36.9370 H   0  0  0  0  0  0  0  0  0  0  0  0
   36.9080   31.4990   35.1070 H   0  0  0  0  0  0  0  0  0  0  0  0
   30.0730   28.8870   37.0780 C   0  0  0  0  0  0  0  0  0  0  0  0
   31.4380   29.2230   36.8820 C   0  0  0  0  0  0  0  0  0  0  0  0
   31.7960   30.2870   36.0710 C   0  0  0  0  0  0  0  0  0  0  0  0
   30.7850   30.9870   35.4780 N   0  0  0  0  0  0  0  0  0  0  0  0
   29.4930   30.6660   35.6660 C   0  0  0  0  0  0  0  0  0  0  0  0
   29.1490   29.6410   36.4470 N   0  0  0  0  0  0  0  0  0  0  0  0
   29.8270   28.0470   37.7200 H   0  0  0  0  0  0  0  0  0  0  0  0
   32.1970   28.6350   37.3750 H   0  0  0  0  0  0  0  0  0  0  0  0
   28.7860   31.2970   35.1420 H   0  0  0  0  0  0  0  0  0  0  0  0
   39.2840   24.4980   33.5540 O   0  0  0  0  0  0  0  0  0  0  0  0
   39.7660   22.4710   34.7860 C   0  0  2  0  0  3  0  0  0  0  0  0
   38.7400   23.5390   34.3630 C   0  0  1  0  0  3  0  0  0  0  0  0
   38.1110   24.0530   35.5070 O   0  0  0  0  0  0  0  0  0  0  0  0
   38.9990   24.3120   36.5450 C   0  0  0  0  0  2  0  0  0  0  0  0
   39.5850   23.0440   37.1200 C   0  0  2  0  0  3  0  0  0  0  0  0
   39.2780   21.9360   36.1170 C   0  0  1  0  0  3  0  0  0  0  0  0
   41.0230   23.0250   35.0030 O   0  0  0  0  0  0  0  0  0  0  0  0
   41.7540   22.4660   34.6370 H   0  0  0  0  0  0  0  0  0  0  0  0
   39.1800   22.7560   38.3980 O   0  0  0  0  0  0  0  0  0  0  0  0
   38.2350   22.4340   38.3460 H   0  0  0  0  0  0  0  0  0  0  0  0
   37.9170   21.6400   36.1010 O   0  0  0  0  0  0  0  0  0  0  0  0
   37.7800   21.0510   35.3080 H   0  0  0  0  0  0  0  0  0  0  0  0
  1 10  1  0  0  0  0
  2  1  1  0  0  0  0
  2 14  1  0  0  0  0
  3  2  2  0  0  0  0
  4  8  2  0  0  0  0
  4  3  1  0  0  0  0
  5  4  1  0  0  0  0
  6  5  1  0  0  0  0
  6  7  2  0  0  0  0
  7  8  1  0  0  0  0
  8  9  1  0  0  0  0
  9 37  1  0  0  0  0
  9  1  2  0  0  0  0
 11  3  1  0  0  0  0
 12  5  1  0  0  0  0
 13  6  1  0  0  0  0
 14 15  2  0  0  0  0
 16 14  1  0  0  0  0
 16 24  1  0  0  0  0
 17 16  1  0  0  0  0
 18 19  1  0  0  0  0
 19 20  1  0  0  0  0
 20 30  1  0  0  0  0
 20 21  2  0  0  0  0
 21 25  1  0  0  0  0
 22 21  1  0  0  0  0
 22 26  1  0  0  0  0
 23 22  2  0  0  0  0
 24 19  2  0  0  0  0
 24 23  1  0  0  0  0
 27 23  1  0  0  0  0
 28 34  1  0  0  0  0
 29 28  1  0  0  0  0
 29 35  1  0  0  0  0
 30 29  2  0  0  0  0
 31 32  2  0  0  0  0
 31 30  1  0  0  0  0
 32 33  1  0  0  0  0
 33 28  2  0  0  0  0
 36 32  1  0  0  0  0
 38 44  1  1  0  0  0
 38 43  1  0  0  0  0
 39 37  1  1  0  0  0
 39 38  1  0  0  0  0
 39 40  1  0  0  0  0
 40 41  1  0  0  0  0
 41 42  1  0  0  0  0
 42 46  1  1  0  0  0
 43 48  1  6  0  0  0
 43 42  1  0  0  0  0
 45 44  1  0  0  0  0
 47 46  1  0  0  0  0
 49 48  1  0  0  0  0
M  END
>  <minimizedAffinity>
-7.00628805

$$$$

 OpenBabel03272503143D

 49 53  0  0  1  0  0  0  0  0999 V2000
   37.8270   24.1060   33.2130 C   0  0  0  0  0  0  0  0  0  0  0  0
   36.9670   24.5070   32.2260 C   0  0  0  0  0  0  0  0  0  0  0  0
   36.0430   23.6650   31.6620 C   0  0  0  0  0  0  0  0  0  0  0  0
   35.9620   22.3460   32.0970 C   0  0  0  0  0  0  0  0  0  0  0  0
   35.1870   21.3190   31.7480 N   0  0  0  0  0  0  0  0  0  0  0  0
   35.5330   20.2810   32.4870 C   0  0  0  0  0  0  0  0  0  0  0  0
   36.5290   20.6420   33.3080 N   0  0  0  0  0  0  0  0  0  0  0  0
   36.8370   21.9480   33.0960 C   0  0  0  0  0  0  0  0  0  0  0  0
   37.7840   22.7870   33.6830 C   0  0  0  0  0  0  0  0  0  0  0  0
   38.5100   24.8190   33.5960 H   0  0  0  0  0  0  0  0  0  0  0  0
   35.4010   24.0610   30.8870 H   0  0  0  0  0  0  0  0  0  0  0  0
   34.4370   21.3410   31.0170 H   0  0  0  0  0  0  0  0  0  0  0  0
   35.1490   19.2670   32.5110 H   0  0  0  0  0  0  0  0  0  0  0  0
   37.0630   25.8810   31.7810 C   0  0  0  0  0  0  0  0  0  0  0  0
   37.8060   26.6840   32.4550 O   0  0  0  0  0  0  0  0  0  0  0  0
   36.4100   26.4420   30.6600 N   0  0  0  0  0  0  0  0  0  0  0  0
   35.8000   25.7980   30.1040 H   0  0  0  0  0  0  0  0  0  0  0  0
   34.9620   28.3790   31.9300 F   0  0  0  0  0  0  0  0  0  0  0  0
   35.9660   28.8030   31.1130 C   0  0  0  0  0  0  0  0  0  0  0  0
   36.2090   30.1380   30.9610 C   0  0  0  0  0  0  0  0  0  0  0  0
   37.2350   30.4940   30.1240 C   0  0  0  0  0  0  0  0  0  0  0  0
   37.9980   29.5740   29.4600 C   0  0  0  0  0  0  0  0  0  0  0  0
   37.7350   28.2150   29.6270 C   0  0  0  0  0  0  0  0  0  0  0  0
   36.7030   27.8370   30.4680 C   0  0  0  0  0  0  0  0  0  0  0  0
   37.4360   31.5500   29.9960 H   0  0  0  0  0  0  0  0  0  0  0  0
   38.7880   29.9400   28.8190 H   0  0  0  0  0  0  0  0  0  0  0  0
   38.3430   27.4920   29.0980 H   0  0  0  0  0  0  0  0  0  0  0  0
   34.9090   32.5410   33.5970 C   0  0  0  0  0  0  0  0  0  0  0  0
   35.7530   31.6320   32.9060 C   0  0  0  0  0  0  0  0  0  0  0  0
   35.3600   31.0790   31.6980 C   0  0  0  0  0  0  0  0  0  0  0  0
   34.1390   31.4480   31.2120 N   0  0  0  0  0  0  0  0  0  0  0  0
   33.3420   32.3090   31.8690 C   0  0  0  0  0  0  0  0  0  0  0  0
   33.7210   32.8400   33.0320 N   0  0  0  0  0  0  0  0  0  0  0  0
   35.2470   32.9550   34.5410 H   0  0  0  0  0  0  0  0  0  0  0  0
   36.7080   31.3750   33.3370 H   0  0  0  0  0  0  0  0  0  0  0  0
   32.4000   32.5220   31.3800 H   0  0  0  0  0  0  0  0  0  0  0  0
   38.6270   22.3620   34.6640 O   0  0  0  0  0  0  0  0  0  0  0  0
   39.6530   22.7270   36.8250 C   0  0  2  0  0  3  0  0  0  0  0  0
   38.4210   22.2870   36.0130 C   0  0  1  0  0  3  0  0  0  0  0  0
   37.2970   23.0010   36.4550 O   0  0  0  0  0  0  0  0  0  0  0  0
   37.5560   24.3530   36.6510 C   0  0  0  0  0  2  0  0  0  0  0  0
   38.4880   24.5910   37.8150 C   0  0  2  0  0  3  0  0  0  0  0  0
   39.1140   23.2390   38.1460 C   0  0  1  0  0  3  0  0  0  0  0  0
   40.3170   23.7870   36.2160 O   0  0  0  0  0  0  0  0  0  0  0  0
   41.3010   23.6860   36.2440 H   0  0  0  0  0  0  0  0  0  0  0  0
   37.9070   25.2060   38.8950 O   0  0  0  0  0  0  0  0  0  0  0  0
   37.3250   24.5300   39.3470 H   0  0  0  0  0  0  0  0  0  0  0  0
   38.1730   22.3750   38.7030 O   0  0  0  0  0  0  0  0  0  0  0  0
   38.6080   21.4780   38.7190 H   0  0  0  0  0  0  0  0  0  0  0  0
  1 10  1  0  0  0  0
  1  9  1  0  0  0  0
  2  1  2  0  0  0  0
  3  4  2  0  0  0  0
  3  2  1  0  0  0  0
  4  8  1  0  0  0  0
  5  4  1  0  0  0  0
  5  6  1  0  0  0  0
  6 13  1  0  0  0  0
  6  7  2  0  0  0  0
  8  7  1  0  0  0  0
  8  9  2  0  0  0  0
  9 37  1  0  0  0  0
 11  3  1  0  0  0  0
 12  5  1  0  0  0  0
 14  2  1  0  0  0  0
 14 15  2  0  0  0  0
 16 14  1  0  0  0  0
 17 16  1  0  0  0  0
 19 18  1  0  0  0  0
 20 19  1  0  0  0  0
 20 30  1  0  0  0  0
 21 20  2  0  0  0  0
 22 23  2  0  0  0  0
 22 21  1  0  0  0  0
 23 24  1  0  0  0  0
 24 16  1  0  0  0  0
 24 19  2  0  0  0  0
 25 21  1  0  0  0  0
 26 22  1  0  0  0  0
 27 23  1  0  0  0  0
 28 34  1  0  0  0  0
 29 35  1  0  0  0  0
 29 28  2  0  0  0  0
 30 29  1  0  0  0  0
 31 30  2  0  0  0  0
 31 32  1  0  0  0  0
 32 33  2  0  0  0  0
 33 28  1  0  0  0  0
 36 32  1  0  0  0  0
 38 44  1  6  0  0  0
 38 43  1  0  0  0  0
 39 37  1  6  0  0  0
 39 40  1  0  0  0  0
 39 38  1  0  0  0  0
 40 41  1  0  0  0  0
 41 42  1  0  0  0  0
 42 43  1  0  0  0  0
 42 46  1  1  0  0  0
 43 48  1  6  0  0  0
 44 45  1  0  0  0  0
 46 47  1  0  0  0  0
 48 49  1  0  0  0  0
M  END
>  <minimizedAffinity>
-6.91177654

$$$$

 OpenBabel03272503143D

 49 53  0  0  1  0  0  0  0  0999 V2000
   37.7530   24.0330   32.9330 C   0  0  0  0  0  0  0  0  0  0  0  0
   36.7130   24.4690   32.1570 C   0  0  0  0  0  0  0  0  0  0  0  0
   35.9380   23.6180   31.4110 C   0  0  0  0  0  0  0  0  0  0  0  0
   36.2040   22.2530   31.4330 C   0  0  0  0  0  0  0  0  0  0  0  0
   35.6380   21.2070   30.8300 N   0  0  0  0  0  0  0  0  0  0  0  0
   36.2920   20.1220   31.2050 C   0  0  0  0  0  0  0  0  0  0  0  0
   37.2740   20.4720   32.0450 N   0  0  0  0  0  0  0  0  0  0  0  0
   37.2580   21.8200   32.2220 C   0  0  0  0  0  0  0  0  0  0  0  0
   38.0600   22.6680   32.9860 C   0  0  0  0  0  0  0  0  0  0  0  0
   38.3030   24.7560   33.4790 H   0  0  0  0  0  0  0  0  0  0  0  0
   35.1350   24.0440   30.8250 H   0  0  0  0  0  0  0  0  0  0  0  0
   34.8200   21.2460   30.1780 H   0  0  0  0  0  0  0  0  0  0  0  0
   36.1470   19.0800   30.9420 H   0  0  0  0  0  0  0  0  0  0  0  0
   36.4490   25.8930   32.1410 C   0  0  0  0  0  0  0  0  0  0  0  0
   35.3240   26.2920   31.6660 O   0  0  0  0  0  0  0  0  0  0  0  0
   37.3160   26.9070   32.6050 N   0  0  0  0  0  0  0  0  0  0  0  0
   38.2370   26.5930   32.9930 H   0  0  0  0  0  0  0  0  0  0  0  0
   36.0740   28.1610   34.6900 F   0  0  0  0  0  0  0  0  0  0  0  0
   36.1500   28.8520   33.5180 C   0  0  0  0  0  0  0  0  0  0  0  0
   35.6220   30.1080   33.4270 C   0  0  0  0  0  0  0  0  0  0  0  0
   35.7340   30.7460   32.2190 C   0  0  0  0  0  0  0  0  0  0  0  0
   36.3440   30.1740   31.1380 C   0  0  0  0  0  0  0  0  0  0  0  0
   36.8780   28.8910   31.2490 C   0  0  0  0  0  0  0  0  0  0  0  0
   36.7740   28.2310   32.4610 C   0  0  0  0  0  0  0  0  0  0  0  0
   35.3180   31.7420   32.1360 H   0  0  0  0  0  0  0  0  0  0  0  0
   36.3910   30.7460   30.2210 H   0  0  0  0  0  0  0  0  0  0  0  0
   37.3600   28.4440   30.3880 H   0  0  0  0  0  0  0  0  0  0  0  0
   35.0380   31.9400   36.7010 C   0  0  0  0  0  0  0  0  0  0  0  0
   35.6870   31.4070   35.5560 C   0  0  0  0  0  0  0  0  0  0  0  0
   34.9800   30.6710   34.6190 C   0  0  0  0  0  0  0  0  0  0  0  0
   33.6460   30.4860   34.8490 N   0  0  0  0  0  0  0  0  0  0  0  0
   33.0350   30.9930   35.9340 C   0  0  0  0  0  0  0  0  0  0  0  0
   33.7160   31.7020   36.8350 N   0  0  0  0  0  0  0  0  0  0  0  0
   35.6210   32.5120   37.4150 H   0  0  0  0  0  0  0  0  0  0  0  0
   36.7430   31.5830   35.4240 H   0  0  0  0  0  0  0  0  0  0  0  0
   31.9760   30.7780   36.0020 H   0  0  0  0  0  0  0  0  0  0  0  0
   39.0880   22.2060   33.7500 O   0  0  0  0  0  0  0  0  0  0  0  0
   40.0200   22.9420   35.8590 C   0  0  2  0  0  3  0  0  0  0  0  0
   40.1200   22.8960   34.3230 C   0  0  1  0  0  3  0  0  0  0  0  0
   41.3890   22.4250   33.9570 O   0  0  0  0  0  0  0  0  0  0  0  0
   41.8030   21.3350   34.7150 C   0  0  0  0  0  2  0  0  0  0  0  0
   42.0720   21.7120   36.1530 C   0  0  2  0  0  3  0  0  0  0  0  0
   41.4420   23.0860   36.3610 C   0  0  1  0  0  3  0  0  0  0  0  0
   39.5230   21.7490   36.3760 O   0  0  0  0  0  0  0  0  0  0  0  0
   38.8680   21.8940   37.1050 H   0  0  0  0  0  0  0  0  0  0  0  0
   43.3910   21.6500   36.5220 O   0  0  0  0  0  0  0  0  0  0  0  0
   43.8540   22.4340   36.1080 H   0  0  0  0  0  0  0  0  0  0  0  0
   42.1480   24.0690   35.6700 O   0  0  0  0  0  0  0  0  0  0  0  0
   41.5790   24.8860   35.7090 H   0  0  0  0  0  0  0  0  0  0  0  0
  1  9  1  0  0  0  0
  1 10  1  0  0  0  0
  2  1  2  0  0  0  0
  3  4  2  0  0  0  0
  3  2  1  0  0  0  0
  4  8  1  0  0  0  0
  5  6  1  0  0  0  0
  5  4  1  0  0  0  0
  6  7  2  0  0  0  0
  7  8  1  0  0  0  0
  8  9  2  0  0  0  0
  9 37  1  0  0  0  0
 11  3  1  0  0  0  0
 12  5  1  0  0  0  0
 13  6  1  0  0  0  0
 14  2  1  0  0  0  0
 14 16  1  0  0  0  0
 15 14  2  0  0  0  0
 16 17  1  0  0  0  0
 19 18  1  0  0  0  0
 20 19  1  0  0  0  0
 20 30  1  0  0  0  0
 21 20  2  0  0  0  0
 22 23  2  0  0  0  0
 22 21  1  0  0  0  0
 23 24  1  0  0  0  0
 24 16  1  0  0  0  0
 24 19  2  0  0  0  0
 25 21  1  0  0  0  0
 26 22  1  0  0  0  0
 27 23  1  0  0  0  0
 28 33  1  0  0  0  0
 28 34  1  0  0  0  0
 29 28  2  0  0  0  0
 30 31  2  0  0  0  0
 30 29  1  0  0  0  0
 31 32  1  0  0  0  0
 32 36  1  0  0  0  0
 32 33  2  0  0  0  0
 35 29  1  0  0  0  0
 38 43  1  0  0  0  0
 38 44  1  1  0  0  0
 39 37  1  1  0  0  0
 39 38  1  0  0  0  0
 40 39  1  0  0  0  0
 40 41  1  0  0  0  0
 41 42  1  0  0  0  0
 42 43  1  0  0  0  0
 42 46  1  6  0  0  0
 43 48  1  6  0  0  0
 44 45  1  0  0  0  0
 47 46  1  0  0  0  0
 48 49  1  0  0  0  0
M  END
>  <minimizedAffinity>
-6.88263893

$$$$

 OpenBabel03272503143D

 49 53  0  0  1  0  0  0  0  0999 V2000
   37.9770   27.1190   32.7530 C   0  0  0  0  0  0  0  0  0  0  0  0
   37.4660   27.1870   34.0220 C   0  0  0  0  0  0  0  0  0  0  0  0
   36.4880   28.0790   34.3790 C   0  0  0  0  0  0  0  0  0  0  0  0
   35.9820   28.9580   33.4280 C   0  0  0  0  0  0  0  0  0  0  0  0
   35.0520   29.9130   33.4750 N   0  0  0  0  0  0  0  0  0  0  0  0
   34.9620   30.4490   32.2720 C   0  0  0  0  0  0  0  0  0  0  0  0
   35.8310   29.8400   31.4550 N   0  0  0  0  0  0  0  0  0  0  0  0
   36.5040   28.8830   32.1460 C   0  0  0  0  0  0  0  0  0  0  0  0
   37.4990   27.9840   31.7610 C   0  0  0  0  0  0  0  0  0  0  0  0
   38.7310   26.4000   32.5590 H   0  0  0  0  0  0  0  0  0  0  0  0
   36.1390   28.0680   35.4030 H   0  0  0  0  0  0  0  0  0  0  0  0
   34.4960   30.1830   34.3210 H   0  0  0  0  0  0  0  0  0  0  0  0
   34.3300   31.2470   31.8970 H   0  0  0  0  0  0  0  0  0  0  0  0
   38.0030   26.2670   35.0030 C   0  0  0  0  0  0  0  0  0  0  0  0
   38.7590   26.7430   35.9260 O   0  0  0  0  0  0  0  0  0  0  0  0
   37.7770   24.8730   35.0510 N   0  0  0  0  0  0  0  0  0  0  0  0
   37.1640   24.4730   34.3020 H   0  0  0  0  0  0  0  0  0  0  0  0
   40.2640   23.7840   34.7490 F   0  0  0  0  0  0  0  0  0  0  0  0
   39.6960   23.6800   35.9830 C   0  0  0  0  0  0  0  0  0  0  0  0
   40.3670   23.0550   36.9950 C   0  0  0  0  0  0  0  0  0  0  0  0
   39.7360   22.9860   38.2110 C   0  0  0  0  0  0  0  0  0  0  0  0
   38.4930   23.5110   38.4270 C   0  0  0  0  0  0  0  0  0  0  0  0
   37.8230   24.1450   37.3820 C   0  0  0  0  0  0  0  0  0  0  0  0
   38.4440   24.2240   36.1470 C   0  0  0  0  0  0  0  0  0  0  0  0
   40.2590   22.4930   39.0210 H   0  0  0  0  0  0  0  0  0  0  0  0
   38.0670   23.4140   39.4170 H   0  0  0  0  0  0  0  0  0  0  0  0
   36.8390   24.5590   37.5600 H   0  0  0  0  0  0  0  0  0  0  0  0
   43.2420   20.6510   36.3910 C   0  0  0  0  0  0  0  0  0  0  0  0
   41.9430   21.1490   36.6740 C   0  0  0  0  0  0  0  0  0  0  0  0
   41.6970   22.5110   36.7060 C   0  0  0  0  0  0  0  0  0  0  0  0
   42.7510   23.3410   36.4520 N   0  0  0  0  0  0  0  0  0  0  0  0
   43.9810   22.8670   36.1830 C   0  0  0  0  0  0  0  0  0  0  0  0
   44.2170   21.5550   36.1540 N   0  0  0  0  0  0  0  0  0  0  0  0
   43.4010   19.5780   36.3740 H   0  0  0  0  0  0  0  0  0  0  0  0
   41.1460   20.4470   36.8680 H   0  0  0  0  0  0  0  0  0  0  0  0
   44.7310   23.6250   35.9990 H   0  0  0  0  0  0  0  0  0  0  0  0
   37.9890   27.9380   30.4910 O   0  0  0  0  0  0  0  0  0  0  0  0
   39.8360   26.5800   29.7170 C   0  0  2  0  0  3  0  0  0  0  0  0
   39.2860   27.9770   30.0600 C   0  0  1  0  0  3  0  0  0  0  0  0
   39.4960   28.8360   28.9720 O   0  0  0  0  0  0  0  0  0  0  0  0
   39.1910   28.2490   27.7490 C   0  0  0  0  0  2  0  0  0  0  0  0
   40.1550   27.1420   27.3950 C   0  0  2  0  0  3  0  0  0  0  0  0
   40.9130   26.8060   28.6760 C   0  0  1  0  0  3  0  0  0  0  0  0
   38.8630   25.7760   29.1310 O   0  0  0  0  0  0  0  0  0  0  0  0
   38.8820   24.8460   29.4710 H   0  0  0  0  0  0  0  0  0  0  0  0
   40.9730   27.4160   26.3280 O   0  0  0  0  0  0  0  0  0  0  0  0
   41.6590   28.0740   26.6400 H   0  0  0  0  0  0  0  0  0  0  0  0
   41.7800   27.8390   29.0280 O   0  0  0  0  0  0  0  0  0  0  0  0
   42.0910   27.6250   29.9510 H   0  0  0  0  0  0  0  0  0  0  0  0
  1  2  1  0  0  0  0
  2  3  2  0  0  0  0
  2 14  1  0  0  0  0
  3 11  1  0  0  0  0
  4  5  1  0  0  0  0
  4  3  1  0  0  0  0
  5 12  1  0  0  0  0
  6  5  1  0  0  0  0
  7  8  1  0  0  0  0
  7  6  2  0  0  0  0
  8  4  2  0  0  0  0
  9  8  1  0  0  0  0
  9  1  2  0  0  0  0
 10  1  1  0  0  0  0
 13  6  1  0  0  0  0
 14 16  1  0  0  0  0
 14 15  2  0  0  0  0
 16 24  1  0  0  0  0
 17 16  1  0  0  0  0
 18 19  1  0  0  0  0
 19 24  2  0  0  0  0
 19 20  1  0  0  0  0
 20 21  2  0  0  0  0
 21 22  1  0  0  0  0
 21 25  1  0  0  0  0
 22 26  1  0  0  0  0
 23 27  1  0  0  0  0
 23 22  2  0  0  0  0
 24 23  1  0  0  0  0
 28 29  1  0  0  0  0
 29 30  2  0  0  0  0
 29 35  1  0  0  0  0
 30 20  1  0  0  0  0
 31 30  1  0  0  0  0
 32 31  2  0  0  0  0
 33 32  1  0  0  0  0
 33 28  2  0  0  0  0
 34 28  1  0  0  0  0
 36 32  1  0  0  0  0
 37  9  1  0  0  0  0
 38 44  1  6  0  0  0
 38 39  1  0  0  0  0
 39 37  1  6  0  0  0
 40 39  1  0  0  0  0
 41 40  1  0  0  0  0
 42 46  1  6  0  0  0
 42 41  1  0  0  0  0
 42 43  1  0  0  0  0
 43 48  1  1  0  0  0
 43 38  1  0  0  0  0
 44 45  1  0  0  0  0
 46 47  1  0  0  0  0
 48 49  1  0  0  0  0
M  END
>  <minimizedAffinity>
-6.82282877

$$$$

 OpenBabel03272503143D

 49 53  0  0  1  0  0  0  0  0999 V2000
   34.5790   28.6520   32.5840 C   0  0  0  0  0  0  0  0  0  0  0  0
   35.6210   28.5330   31.7030 C   0  0  0  0  0  0  0  0  0  0  0  0
   36.0010   29.5500   30.8650 C   0  0  0  0  0  0  0  0  0  0  0  0
   35.3130   30.7580   30.8980 C   0  0  0  0  0  0  0  0  0  0  0  0
   35.4480   31.9000   30.2220 N   0  0  0  0  0  0  0  0  0  0  0  0
   34.5210   32.7360   30.6520 C   0  0  0  0  0  0  0  0  0  0  0  0
   33.7930   32.1320   31.6010 N   0  0  0  0  0  0  0  0  0  0  0  0
   34.2610   30.8700   31.7930 C   0  0  0  0  0  0  0  0  0  0  0  0
   33.8560   29.8490   32.6520 C   0  0  0  0  0  0  0  0  0  0  0  0
   34.3500   27.8190   33.1970 H   0  0  0  0  0  0  0  0  0  0  0  0
   36.8350   29.3740   30.1990 H   0  0  0  0  0  0  0  0  0  0  0  0
   36.1650   32.0920   29.4830 H   0  0  0  0  0  0  0  0  0  0  0  0
   34.2950   33.7560   30.3600 H   0  0  0  0  0  0  0  0  0  0  0  0
   36.3270   27.2700   31.6780 C   0  0  0  0  0  0  0  0  0  0  0  0
   36.9750   26.9190   32.7300 O   0  0  0  0  0  0  0  0  0  0  0  0
   36.3790   26.3650   30.5940 N   0  0  0  0  0  0  0  0  0  0  0  0
   35.8560   26.6410   29.7300 H   0  0  0  0  0  0  0  0  0  0  0  0
   35.2060   24.0660   31.4900 F   0  0  0  0  0  0  0  0  0  0  0  0
   36.5570   24.0370   31.3200 C   0  0  0  0  0  0  0  0  0  0  0  0
   37.2590   22.8980   31.5940 C   0  0  0  0  0  0  0  0  0  0  0  0
   38.6150   22.9390   31.4000 C   0  0  0  0  0  0  0  0  0  0  0  0
   39.2620   24.0570   30.9530 C   0  0  0  0  0  0  0  0  0  0  0  0
   38.5300   25.2110   30.6790 C   0  0  0  0  0  0  0  0  0  0  0  0
   37.1590   25.1890   30.8690 C   0  0  0  0  0  0  0  0  0  0  0  0
   39.1810   22.0410   31.6130 H   0  0  0  0  0  0  0  0  0  0  0  0
   40.3350   24.0050   30.8260 H   0  0  0  0  0  0  0  0  0  0  0  0
   39.0490   26.0930   30.3250 H   0  0  0  0  0  0  0  0  0  0  0  0
   35.2610   19.6710   31.6890 C   0  0  0  0  0  0  0  0  0  0  0  0
   35.9800   20.7930   31.1990 C   0  0  0  0  0  0  0  0  0  0  0  0
   36.5120   21.7290   32.0700 C   0  0  0  0  0  0  0  0  0  0  0  0
   36.3140   21.5220   33.4050 N   0  0  0  0  0  0  0  0  0  0  0  0
   35.6340   20.4580   33.8660 C   0  0  0  0  0  0  0  0  0  0  0  0
   35.1220   19.5570   33.0270 N   0  0  0  0  0  0  0  0  0  0  0  0
   34.8570   18.9560   30.9800 H   0  0  0  0  0  0  0  0  0  0  0  0
   36.1060   20.9080   30.1330 H   0  0  0  0  0  0  0  0  0  0  0  0
   35.5460   20.4050   34.9440 H   0  0  0  0  0  0  0  0  0  0  0  0
   32.8160   29.9950   33.5190 O   0  0  0  0  0  0  0  0  0  0  0  0
   32.7210   30.1930   35.9300 C   0  0  2  0  0  3  0  0  0  0  0  0
   32.5500   29.3160   34.6760 C   0  0  1  0  0  3  0  0  0  0  0  0
   31.2820   28.7160   34.7010 O   0  0  0  0  0  0  0  0  0  0  0  0
   30.2730   29.5950   35.0790 C   0  0  0  0  0  2  0  0  0  0  0  0
   30.3930   30.0080   36.5270 C   0  0  2  0  0  3  0  0  0  0  0  0
   31.7950   29.6040   36.9740 C   0  0  1  0  0  3  0  0  0  0  0  0
   32.3010   31.5000   35.7020 O   0  0  0  0  0  0  0  0  0  0  0  0
   32.9110   32.1710   36.1000 H   0  0  0  0  0  0  0  0  0  0  0  0
   29.3980   29.5320   37.3410 O   0  0  0  0  0  0  0  0  0  0  0  0
   29.5690   28.5570   37.4840 H   0  0  0  0  0  0  0  0  0  0  0  0
   31.9110   28.2180   37.0610 O   0  0  0  0  0  0  0  0  0  0  0  0
   32.8840   28.0370   37.1780 H   0  0  0  0  0  0  0  0  0  0  0  0
  1  9  1  0  0  0  0
  1 10  1  0  0  0  0
  2  1  2  0  0  0  0
  3  4  2  0  0  0  0
  3  2  1  0  0  0  0
  4  8  1  0  0  0  0
  5  6  1  0  0  0  0
  5  4  1  0  0  0  0
  6  7  2  0  0  0  0
  7  8  1  0  0  0  0
  8  9  2  0  0  0  0
  9 37  1  0  0  0  0
 11  3  1  0  0  0  0
 12  5  1  0  0  0  0
 13  6  1  0  0  0  0
 14  2  1  0  0  0  0
 14 15  2  0  0  0  0
 16 24  1  0  0  0  0
 16 14  1  0  0  0  0
 17 16  1  0  0  0  0
 19 18  1  0  0  0  0
 19 20  1  0  0  0  0
 20 30  1  0  0  0  0
 21 20  2  0  0  0  0
 21 25  1  0  0  0  0
 22 21  1  0  0  0  0
 23 24  1  0  0  0  0
 23 22  2  0  0  0  0
 24 19  2  0  0  0  0
 26 22  1  0  0  0  0
 27 23  1  0  0  0  0
 28 33  1  0  0  0  0
 29 28  2  0  0  0  0
 29 30  1  0  0  0  0
 30 31  2  0  0  0  0
 31 32  1  0  0  0  0
 32 36  1  0  0  0  0
 33 32  2  0  0  0  0
 34 28  1  0  0  0  0
 35 29  1  0  0  0  0
 38 44  1  6  0  0  0
 38 43  1  0  0  0  0
 39 37  1  6  0  0  0
 39 40  1  0  0  0  0
 39 38  1  0  0  0  0
 40 41  1  0  0  0  0
 41 42  1  0  0  0  0
 42 43  1  0  0  0  0
 42 46  1  1  0  0  0
 43 48  1  6  0  0  0
 44 45  1  0  0  0  0
 46 47  1  0  0  0  0
 48 49  1  0  0  0  0
M  END
>  <minimizedAffinity>
-6.77228928

$$$$
