
     RDKit          3D

 42 44  0  0  0  0  0  0  0  0999 V2000
   36.9918   31.5623   48.6698 C   0  0  1  0  0  0  0  0  0  0  0  0
   36.2255   30.9119   47.6361 C   0  0  0  0  0  0  0  0  0  0  0  0
   37.1795   30.1254   48.4754 C   0  0  2  0  0  0  0  0  0  0  0  0
   38.1514   32.4523   48.3282 C   0  0  0  0  0  0  0  0  0  0  0  0
   38.5433   33.3707   49.3357 C   0  0  0  0  0  0  0  0  0  0  0  0
   39.6075   34.1706   48.9884 C   0  0  0  0  0  0  0  0  0  0  0  0
   40.1980   34.0461   47.7616 N   0  0  0  0  0  0  0  0  0  0  0  0
   39.7873   33.1525   46.8306 C   0  0  0  0  0  0  0  0  0  0  0  0
   38.7322   32.3454   47.1493 N   0  0  0  0  0  0  0  0  0  0  0  0
   40.3897   33.0320   45.5763 N   0  0  0  0  0  0  0  0  0  0  0  0
   36.5837   29.3137   49.4546 O   0  0  0  0  0  0  0  0  0  0  0  0
   34.6170   27.6723   49.6962 O   0  0  0  0  0  0  0  0  0  0  0  0
   35.0105   28.9543   49.0380 P   0  0  1  0  0  0  0  0  0  0  0  0
   33.9594   30.1584   49.7081 O   0  0  0  0  0  0  0  0  0  0  0  0
   34.8761   28.9389   47.3656 O   0  0  0  0  0  0  0  0  0  0  0  0
   36.5401   31.8391   49.6868 H   0  0  0  0  0  0  0  0  0  0  0  0
   35.1930   31.1633   47.7848 H   0  0  0  0  0  0  0  0  0  0  0  0
   36.5438   31.1012   46.5894 H   0  0  0  0  0  0  0  0  0  0  0  0
   37.8747   29.5956   47.8534 H   0  0  0  0  0  0  0  0  0  0  0  0
   38.0846   33.4673   50.2891 H   0  0  0  0  0  0  0  0  0  0  0  0
   39.9489   34.8895   49.7173 H   0  0  0  0  0  0  0  0  0  0  0  0
   41.2740   33.5946   45.4112 H   0  0  0  0  0  0  0  0  0  0  0  0
   39.9775   32.4135   44.8459 H   0  0  0  0  0  0  0  0  0  0  0  0
   34.4220   30.5855   50.4796 H   0  0  0  0  0  0  0  0  0  0  0  0
   34.6164   26.4654   46.0905 O   0  0  0  0  0  0  0  0  0  0  0  0
   33.8953   27.6140   45.7153 C   0  0  2  0  0  0  0  0  0  0  0  0
   33.6546   28.5113   46.9046 C   0  0  1  0  0  0  0  0  0  0  0  0
   32.8686   27.9310   47.8932 O   0  0  0  0  0  0  0  0  0  0  0  0
   31.6002   27.7421   47.2981 C   0  0  0  0  0  0  0  0  0  0  0  0
   31.8079   26.5459   46.3618 C   0  0  2  0  0  0  0  0  0  0  0  0
   32.6811   25.6659   46.9985 O   0  0  0  0  0  0  0  0  0  0  0  0
   32.5768   27.1356   45.1748 C   0  0  2  0  0  0  0  0  0  0  0  0
   32.7218   26.1997   44.1659 O   0  0  0  0  0  0  0  0  0  0  0  0
   35.5280   26.5847   45.7672 H   0  0  0  0  0  0  0  0  0  0  0  0
   34.4648   28.2124   44.9841 H   0  0  0  0  0  0  0  0  0  0  0  0
   33.0710   29.3844   46.5315 H   0  0  0  0  0  0  0  0  0  0  0  0
   31.3822   28.6305   46.6526 H   0  0  0  0  0  0  0  0  0  0  0  0
   30.8011   27.5746   48.0169 H   0  0  0  0  0  0  0  0  0  0  0  0
   30.8503   26.0827   46.0554 H   0  0  0  0  0  0  0  0  0  0  0  0
   32.3724   24.7562   46.8199 H   0  0  0  0  0  0  0  0  0  0  0  0
   31.9906   28.0262   44.8448 H   0  0  0  0  0  0  0  0  0  0  0  0
   33.4603   25.5769   44.4358 H   0  0  0  0  0  0  0  0  0  0  0  0
  2  3  1  0
  2  1  1  0
  3  1  1  0
  3 11  1  0
  4  1  1  0
  4  5  2  0
  6  5  1  0
  7  6  2  0
  8  9  2  0
  8  7  1  0
  9  4  1  0
 10  8  1  0
 13 11  1  6
 13 12  2  0
 13 14  1  0
 15 13  1  0
  1 16  1  1
  2 17  1  0
  2 18  1  0
  3 19  1  6
  5 20  1  0
  6 21  1  0
 10 22  1  0
 10 23  1  0
 14 24  1  0
 25 26  1  0
 26 27  1  0
 27 28  1  0
 28 29  1  0
 29 30  1  0
 30 31  1  0
 30 32  1  0
 32 33  1  0
 32 26  1  0
 25 34  1  0
 26 35  1  6
 27 36  1  6
 29 37  1  0
 29 38  1  0
 30 39  1  6
 31 40  1  0
 32 41  1  6
 33 42  1  0
 15 27  1  0
M  ISO  7  16  13  17  13  18  13  19  13  20  14  21  14  24   3
M  END
>  <DihAtoms>  (1) 
12,14,26,25

>  <DihDeg>  (1) 
116.29663018286162

$$$$
