
     RDKit          3D

 42 44  0  0  0  0  0  0  0  0999 V2000
   36.9918   31.5623   48.6698 C   0  0  1  0  0  0  0  0  0  0  0  0
   36.2255   30.9119   47.6361 C   0  0  0  0  0  0  0  0  0  0  0  0
   37.1795   30.1254   48.4754 C   0  0  2  0  0  0  0  0  0  0  0  0
   38.1514   32.4523   48.3282 C   0  0  0  0  0  0  0  0  0  0  0  0
   38.5433   33.3707   49.3357 C   0  0  0  0  0  0  0  0  0  0  0  0
   39.6075   34.1706   48.9884 C   0  0  0  0  0  0  0  0  0  0  0  0
   40.1980   34.0461   47.7616 N   0  0  0  0  0  0  0  0  0  0  0  0
   39.7873   33.1525   46.8306 C   0  0  0  0  0  0  0  0  0  0  0  0
   38.7322   32.3454   47.1493 N   0  0  0  0  0  0  0  0  0  0  0  0
   40.3897   33.0320   45.5763 N   0  0  0  0  0  0  0  0  0  0  0  0
   36.5837   29.3137   49.4546 O   0  0  0  0  0  0  0  0  0  0  0  0
   34.6170   27.6723   49.6962 O   0  0  0  0  0  0  0  0  0  0  0  0
   35.0105   28.9543   49.0380 P   0  0  1  0  0  0  0  0  0  0  0  0
   33.9594   30.1584   49.7081 O   0  0  0  0  0  0  0  0  0  0  0  0
   34.8761   28.9389   47.3656 O   0  0  0  0  0  0  0  0  0  0  0  0
   36.5401   31.8391   49.6868 H   0  0  0  0  0  0  0  0  0  0  0  0
   35.1930   31.1633   47.7848 H   0  0  0  0  0  0  0  0  0  0  0  0
   36.5438   31.1012   46.5894 H   0  0  0  0  0  0  0  0  0  0  0  0
   37.8747   29.5956   47.8534 H   0  0  0  0  0  0  0  0  0  0  0  0
   38.0846   33.4673   50.2891 H   0  0  0  0  0  0  0  0  0  0  0  0
   39.9489   34.8895   49.7173 H   0  0  0  0  0  0  0  0  0  0  0  0
   41.2740   33.5946   45.4112 H   0  0  0  0  0  0  0  0  0  0  0  0
   39.9775   32.4135   44.8459 H   0  0  0  0  0  0  0  0  0  0  0  0
   34.4220   30.5855   50.4796 H   0  0  0  0  0  0  0  0  0  0  0  0
   33.1976   30.6689   45.9509 O   0  0  0  0  0  0  0  0  0  0  0  0
   32.7308   29.7039   46.8625 C   0  0  2  0  0  0  0  0  0  0  0  0
   33.6546   28.5113   46.9046 C   0  0  1  0  0  0  0  0  0  0  0  0
   33.7343   27.8225   45.6999 O   0  0  0  0  0  0  0  0  0  0  0  0
   32.4409   27.2928   45.4870 C   0  0  0  0  0  0  0  0  0  0  0  0
   31.6102   28.5099   45.0640 C   0  0  2  0  0  0  0  0  0  0  0  0
   32.4287   29.3195   44.2785 O   0  0  0  0  0  0  0  0  0  0  0  0
   31.3770   29.2708   46.3733 C   0  0  2  0  0  0  0  0  0  0  0  0
   30.5142   30.3352   46.1795 O   0  0  0  0  0  0  0  0  0  0  0  0
   33.5755   31.3968   46.4773 H   0  0  0  0  0  0  0  0  0  0  0  0
   32.7040   30.1132   47.8865 H   0  0  0  0  0  0  0  0  0  0  0  0
   33.2128   27.7922   47.6325 H   0  0  0  0  0  0  0  0  0  0  0  0
   32.0390   26.9476   46.4733 H   0  0  0  0  0  0  0  0  0  0  0  0
   32.4126   26.4927   44.7507 H   0  0  0  0  0  0  0  0  0  0  0  0
   30.6626   28.2192   44.5709 H   0  0  0  0  0  0  0  0  0  0  0  0
   31.8862   29.6737   43.5470 H   0  0  0  0  0  0  0  0  0  0  0  0
   30.9692   28.5209   47.0924 H   0  0  0  0  0  0  0  0  0  0  0  0
   31.0391   31.0750   45.7515 H   0  0  0  0  0  0  0  0  0  0  0  0
  2  3  1  0
  2  1  1  0
  3  1  1  0
  3 11  1  0
  4  1  1  0
  4  5  2  0
  6  5  1  0
  7  6  2  0
  8  9  2  0
  8  7  1  0
  9  4  1  0
 10  8  1  0
 13 11  1  6
 13 12  2  0
 13 14  1  0
 15 13  1  0
  1 16  1  1
  2 17  1  0
  2 18  1  0
  3 19  1  6
  5 20  1  0
  6 21  1  0
 10 22  1  0
 10 23  1  0
 14 24  1  0
 25 26  1  0
 26 27  1  0
 27 28  1  0
 28 29  1  0
 29 30  1  0
 30 31  1  0
 30 32  1  0
 32 33  1  0
 32 26  1  0
 25 34  1  0
 26 35  1  1
 27 36  1  1
 29 37  1  0
 29 38  1  0
 30 39  1  6
 31 40  1  0
 32 41  1  1
 33 42  1  0
 15 27  1  0
M  ISO  7  16  13  17  13  18  13  19  13  20  14  21  14  24   3
M  END
>  <DihAtoms>  (1) 
12,14,26,25

>  <DihDeg>  (1) 
116.29663018286162

$$$$
