
 OpenBabel03272500053D

 32 34  0  0  1  0  0  0  0  0999 V2000
   35.2670   28.9540   49.3250 C   0  0  0  0  0  0  0  0  0  0  0  0
   35.2600   30.0630   48.4590 C   0  0  0  0  0  0  0  0  0  0  0  0
   34.2030   30.2000   47.5580 C   0  0  0  0  0  0  0  0  0  0  0  0
   33.2260   29.2610   47.5550 N   0  0  0  0  0  0  0  0  0  0  0  0
   33.2480   28.2160   48.3820 C   0  0  0  0  0  0  0  0  0  0  0  0
   34.2700   28.0420   49.2850 N   0  0  0  0  0  0  0  0  0  0  0  0
   36.0640   28.8020   50.0410 H   0  0  0  0  0  0  0  0  0  0  0  0
   34.1970   31.0510   46.8930 H   0  0  0  0  0  0  0  0  0  0  0  0
   36.3410   30.9850   48.5540 N   0  0  0  0  0  0  0  0  0  0  0  0
   36.5960   31.6790   49.6840 C   0  0  0  0  0  0  0  0  0  0  0  0
   37.6700   32.5680   49.7210 C   0  0  0  0  0  0  0  0  0  0  0  0
   38.3870   32.6520   48.5560 C   0  0  0  0  0  0  0  0  0  0  0  0
   39.3590   33.4630   48.6030 O   0  0  0  0  0  0  0  0  0  0  0  0
   38.1600   31.9830   47.4310 N   0  0  0  0  0  0  0  0  0  0  0  0
   37.1080   31.1330   47.4460 C   0  0  0  0  0  0  0  0  0  0  0  0
   36.8800   30.4910   46.3850 O   0  0  0  0  0  0  0  0  0  0  0  0
   35.9670   31.5420   50.5580 H   0  0  0  0  0  0  0  0  0  0  0  0
   37.9000   33.1400   50.6130 H   0  0  0  0  0  0  0  0  0  0  0  0
   38.7540   32.1000   46.5790 H   0  0  0  0  0  0  0  0  0  0  0  0
   32.2630   27.2240   48.4170 O   0  0  0  0  0  0  0  0  0  0  0  0
   30.1260   27.6490   49.5220 C   0  0  2  0  0  0  0  0  0  0  0  0
   30.9320   27.7420   48.2680 C   0  0  2  0  0  0  0  0  0  0  0  0
   30.3350   26.9840   47.2650 O   0  0  0  0  0  0  0  0  0  0  0  0
   29.3440   27.7820   46.7000 C   0  0  0  0  0  0  0  0  0  0  0  0
   28.4450   28.3390   47.7720 C   0  0  2  0  0  0  0  0  0  0  0  0
   28.6680   27.6880   49.1150 C   0  0  1  0  0  0  0  0  0  0  0  0
   30.4410   28.7510   50.3300 O   0  0  0  0  0  0  0  0  0  0  0  0
   31.3640   29.0350   50.1000 H   0  0  0  0  0  0  0  0  0  0  0  0
   27.1360   28.0330   47.3830 O   0  0  0  0  0  0  0  0  0  0  0  0
   26.5090   28.7770   47.5560 H   0  0  0  0  0  0  0  0  0  0  0  0
   28.1800   26.3740   48.9910 O   0  0  0  0  0  0  0  0  0  0  0  0
   28.1740   25.9900   49.9160 H   0  0  0  0  0  0  0  0  0  0  0  0
  1  7  1  0  0  0  0
  2  9  1  0  0  0  0
  2  1  2  0  0  0  0
  3  2  1  0  0  0  0
  4  3  2  0  0  0  0
  4  5  1  0  0  0  0
  5 20  1  0  0  0  0
  5  6  2  0  0  0  0
  6  1  1  0  0  0  0
  8  3  1  0  0  0  0
  9 10  1  0  0  0  0
 10 11  2  0  0  0  0
 10 17  1  0  0  0  0
 11 18  1  0  0  0  0
 12 13  2  0  0  0  0
 12 11  1  0  0  0  0
 14 15  1  0  0  0  0
 14 12  1  0  0  0  0
 15  9  1  0  0  0  0
 16 15  2  0  0  0  0
 19 14  1  0  0  0  0
 21 27  1  1  0  0  0
 22 20  1  1  0  0  0
 22 21  1  0  0  0  0
 23 22  1  0  0  0  0
 24 23  1  0  0  0  0
 24 25  1  0  0  0  0
 25 29  1  6  0  0  0
 25 26  1  0  0  0  0
 26 31  1  6  0  0  0
 26 21  1  0  0  0  0
 28 27  1  0  0  0  0
 29 30  1  0  0  0  0
 31 32  1  0  0  0  0
M  END
>  <minimizedAffinity>
-6.36488152

>  <minimizedRMSD>
1.65572858

$$$$
