
 OpenBabel03272503503D

 40 42  0  0  1  0  0  0  0  0999 V2000
   33.1010   27.4340   45.8300 C   0  0  1  0  0  0  0  0  0  0  0  0
   33.9510   27.5050   47.1160 C   0  0  2  0  0  0  0  0  0  0  0  0
   33.8580   26.2470   47.6210 O   0  0  0  0  0  0  0  0  0  0  0  0
   34.0560   25.4120   46.5430 C   0  0  0  0  0  0  0  0  0  0  0  0
   33.4510   26.0560   45.3330 C   0  0  2  0  0  0  0  0  0  0  0  0
   33.4880   28.2300   45.1660 H   0  0  0  0  0  0  0  0  0  0  0  0
   34.9690   27.8390   46.7910 H   0  0  0  0  0  0  0  0  0  0  0  0
   33.4570   24.4830   46.7690 H   0  0  0  0  0  0  0  0  0  0  0  0
   35.0930   25.0640   46.4220 H   0  0  0  0  0  0  0  0  0  0  0  0
   32.5580   25.5310   44.9760 H   0  0  0  0  0  0  0  0  0  0  0  0
   31.7640   27.6220   46.1250 O   0  0  0  0  0  0  0  0  0  0  0  0
   31.4040   26.8100   46.5310 H   0  0  0  0  0  0  0  0  0  0  0  0
   33.3880   28.5110   47.8470 O   0  0  0  0  0  0  0  0  0  0  0  0
   35.3630   29.8820   46.7560 O   0  0  0  0  0  0  0  0  0  0  0  0
   34.1130   30.0120   47.6190 P   0  0  1  0  0  0  0  0  0  0  0  0
   33.0780   31.0260   46.7430 O   0  0  0  0  0  0  0  0  0  0  0  0
   32.1560   30.8070   47.0350 H   0  0  0  0  0  0  0  0  0  0  0  0
   34.4330   30.6540   49.1630 O   0  0  0  0  0  0  0  0  0  0  0  0
   35.6570   30.5190   49.7840 C   0  0  0  0  0  0  0  0  0  0  0  0
   35.9780   29.4980   50.7030 C   0  0  0  0  0  0  0  0  0  0  0  0
   37.2560   29.4920   51.2480 C   0  0  0  0  0  0  0  0  0  0  0  0
   38.1360   30.4740   50.8650 N   0  0  0  0  0  0  0  0  0  0  0  0
   37.7890   31.4430   49.9730 C   0  0  0  0  0  0  0  0  0  0  0  0
   36.5470   31.4700   49.4270 N   0  0  0  0  0  0  0  0  0  0  0  0
   35.1960   28.8130   50.9000 H   0  0  0  0  0  0  0  0  0  0  0  0
   37.4910   28.7210   51.9390 H   0  0  0  0  0  0  0  0  0  0  0  0
   38.5500   32.1750   49.7310 H   0  0  0  0  0  0  0  0  0  0  0  0
   34.3710   26.1510   44.2960 O   0  0  0  0  0  0  0  0  0  0  0  0
   33.7800   27.0240   42.1590 C   0  0  1  0  0  3  0  0  0  0  0  0
   34.2740   27.3140   43.5570 C   0  0  2  0  0  3  0  0  0  0  0  0
   35.5850   27.8300   43.4820 O   0  0  0  0  0  0  0  0  0  0  0  0
   36.4020   26.8510   42.8960 C   0  0  0  0  0  2  0  0  0  0  0  0
   36.0960   26.7720   41.4110 C   0  0  1  0  0  3  0  0  0  0  0  0
   34.8000   27.5100   41.1430 C   0  0  2  0  0  3  0  0  0  0  0  0
   33.6750   25.6370   41.9350 O   0  0  0  0  0  0  0  0  0  0  0  0
   34.2460   25.1250   42.5390 H   0  0  0  0  0  0  0  0  0  0  0  0
   37.1160   27.4030   40.6650 O   0  0  0  0  0  0  0  0  0  0  0  0
   36.7460   27.5360   39.7580 H   0  0  0  0  0  0  0  0  0  0  0  0
   35.0250   28.8780   41.2590 O   0  0  0  0  0  0  0  0  0  0  0  0
   34.1640   29.3120   41.4450 H   0  0  0  0  0  0  0  0  0  0  0  0
  1  6  1  6  0  0  0
  1 11  1  0  0  0  0
  1  2  1  0  0  0  0
  2  7  1  6  0  0  0
  2  3  1  0  0  0  0
  2 13  1  0  0  0  0
  4  8  1  0  0  0  0
  4  3  1  0  0  0  0
  5 10  1  6  0  0  0
  5  1  1  0  0  0  0
  5  4  1  0  0  0  0
  9  4  1  0  0  0  0
 11 12  1  0  0  0  0
 15 14  2  6  0  0  0
 15 13  1  0  0  0  0
 15 18  1  0  0  0  0
 16 17  1  0  0  0  0
 16 15  1  0  0  0  0
 18 19  1  0  0  0  0
 19 20  1  0  0  0  0
 20 25  1  0  0  0  0
 20 21  2  0  0  0  0
 21 26  1  0  0  0  0
 22 21  1  0  0  0  0
 23 22  2  0  0  0  0
 24 19  2  0  0  0  0
 24 23  1  0  0  0  0
 27 23  1  0  0  0  0
 28  5  1  0  0  0  0
 29 35  1  1  0  0  0
 29 30  1  0  0  0  0
 30 28  1  1  0  0  0
 31 30  1  0  0  0  0
 32 31  1  0  0  0  0
 33 37  1  6  0  0  0
 33 32  1  0  0  0  0
 34 39  1  1  0  0  0
 34 33  1  0  0  0  0
 34 29  1  0  0  0  0
 35 36  1  0  0  0  0
 38 37  1  0  0  0  0
 39 40  1  0  0  0  0
M  END
>  <minimizedAffinity>
-4.1320796

>  <minimizedRMSD>
2.84525108

$$$$
