REMARK  Name = 
REMARK  10 active torsions:
REMARK  status: ('A' for Active; 'I' for Inactive)
REMARK    1  A    between atoms: C_3  and  C_9
REMARK    2  A    between atoms: C_5  and  O_14
REMARK    3  A    between atoms: O_14  and  C_15
REMARK    4  A    between atoms: C_15  and  C_16
REMARK    5  A    between atoms: C_16  and  C_17
REMARK    6  A    between atoms: C_21  and  C_23
REMARK    7  A    between atoms: C_23  and  C_40
REMARK    8  A    between atoms: O_38  and  C_39
REMARK    9  A    between atoms: C_43  and  O_44
REMARK   10  A    between atoms: C_45  and  O_46
REMARK                            x       y       z     vdW  Elec       q    Type
REMARK                         _______ _______ _______ _____ _____    ______ ____
ROOT
ATOM      1  C   UNL     1      33.557  27.535  47.705  0.00  0.00    +0.000 C 
ATOM      2  H   UNL     1      33.788  27.374  46.617  0.00  0.00    +0.000 HD
ATOM      3  H   UNL     1      33.745  26.557  48.186  0.00  0.00    +0.000 HD
ENDROOT
BRANCH   1   4
ATOM      4  C   UNL     1      32.115  27.892  47.748  0.00  0.00    +0.000 A 
ATOM      5  C   UNL     1      31.372  27.483  48.850  0.00  0.00    +0.000 A 
ATOM      6  C   UNL     1      30.041  27.770  48.968  0.00  0.00    +0.000 A 
ATOM      7  N   UNL     1      29.439  28.458  48.003  0.00  0.00    +0.000 NA
ATOM      8  C   UNL     1      30.170  28.859  46.922  0.00  0.00    +0.000 A 
ATOM      9  N   UNL     1      31.477  28.593  46.778  0.00  0.00    +0.000 NA
ATOM     10  H   UNL     1      31.820  26.918  49.665  0.00  0.00    +0.000 HD
ATOM     11  H   UNL     1      29.475  27.442  49.836  0.00  0.00    +0.000 HD
BRANCH   8  12
ATOM     12  C   UNL     1      29.450  29.624  45.874  0.00  0.00    +0.000 C 
ATOM     13  H   UNL     1      28.575  30.145  46.294  0.00  0.00    +0.000 HD
ATOM     14  H   UNL     1      30.065  30.402  45.383  0.00  0.00    +0.000 HD
BRANCH  12  16
ATOM     15  C   UNL     1      27.468  28.942  44.510  0.00  0.00    +0.000 C 
ATOM     16  C   UNL     1      28.903  28.627  44.875  0.00  0.00    +0.000 C 
ATOM     17  O   UNL     1      29.631  28.628  43.688  0.00  0.00    +0.000 OA
ATOM     18  C   UNL     1      29.478  27.375  43.102  0.00  0.00    +0.000 C 
ATOM     19  C   UNL     1      28.085  26.825  43.286  0.00  0.00    +0.000 C 
ATOM     20  C   UNL     1      27.058  27.920  43.461  0.00  0.00    +0.000 C 
BRANCH  15  21
ATOM     21  O   UNL     1      27.446  30.232  43.964  0.00  0.00    +0.000 OA
ATOM     22  H   UNL     1      27.273  30.177  42.981  0.00  0.00    +0.000 HD
ENDBRANCH  15  21
BRANCH  19  23
ATOM     23  O   UNL     1      27.754  26.136  42.115  0.00  0.00    +0.000 OA
ATOM     24  H   UNL     1      27.811  25.139  42.243  0.00  0.00    +0.000 HD
ENDBRANCH  19  23
BRANCH  20  25
ATOM     25  O   UNL     1      25.907  27.291  43.940  0.00  0.00    +0.000 OA
ATOM     26  H   UNL     1      25.221  27.215  43.234  0.00  0.00    +0.000 HD
ENDBRANCH  20  25
ENDBRANCH  12  16
ENDBRANCH   8  12
ENDBRANCH   1   4
BRANCH   1  27
ATOM     27  C   UNL     1      34.444  28.641  48.184  0.00  0.00    +0.000 C 
ATOM     28  H   UNL     1      33.807  29.555  48.289  0.00  0.00    +0.000 HD
ATOM     29  H   UNL     1      35.236  28.919  47.436  0.00  0.00    +0.000 HD
BRANCH  27  30
ATOM     30  O   UNL     1      35.000  28.355  49.454  0.00  0.00    +0.000 OA
BRANCH  30  35
ATOM     31  C   UNL     1      37.334  30.173  51.523  0.00  0.00    +0.000 A 
ATOM     32  C   UNL     1      38.060  30.860  50.517  0.00  0.00    +0.000 A 
ATOM     33  C   UNL     1      37.699  30.653  49.200  0.00  0.00    +0.000 A 
ATOM     34  N   UNL     1      36.663  29.794  48.981  0.00  0.00    +0.000 NA
ATOM     35  C   UNL     1      35.985  29.151  49.930  0.00  0.00    +0.000 A 
ATOM     36  N   UNL     1      36.333  29.349  51.221  0.00  0.00    +0.000 NA
ATOM     37  H   UNL     1      37.668  30.380  52.530  0.00  0.00    +0.000 HD
ATOM     38  H   UNL     1      38.873  31.532  50.713  0.00  0.00    +0.000 HD
BRANCH  33  41
ATOM     39  F   UNL     1      38.937  33.265  49.014  0.00  0.00    +0.000 F 
ATOM     40  C   UNL     1      38.911  32.478  47.944  0.00  0.00    +0.000 A 
ATOM     41  C   UNL     1      38.332  31.273  48.053  0.00  0.00    +0.000 A 
ATOM     42  C   UNL     1      38.354  30.517  46.870  0.00  0.00    +0.000 A 
ATOM     43  C   UNL     1      38.922  30.986  45.715  0.00  0.00    +0.000 A 
ATOM     44  C   UNL     1      39.503  32.234  45.660  0.00  0.00    +0.000 A 
ATOM     45  C   UNL     1      39.487  32.972  46.795  0.00  0.00    +0.000 A 
ATOM     46  H   UNL     1      37.922  29.523  46.817  0.00  0.00    +0.000 HD
ATOM     47  H   UNL     1      38.928  30.382  44.808  0.00  0.00    +0.000 HD
ATOM     48  H   UNL     1      39.955  32.617  44.754  0.00  0.00    +0.000 HD
ATOM     49  H   UNL     1      39.940  33.959  46.776  0.00  0.00    +0.000 HD
ENDBRANCH  33  41
ENDBRANCH  30  35
ENDBRANCH  27  30
ENDBRANCH   1  27
TORSDOF 10
