
     RDKit          3D

 35 36  0  0  0  0  0  0  0  0999 V2000
   37.3210   30.2530   51.4001 C   0  0  0  0  0  0  0  0  0  0  0  0
   37.9747   30.7166   50.2511 C   0  0  0  0  0  0  0  0  0  0  0  0
   37.5439   30.3475   49.0046 C   0  0  0  0  0  0  0  0  0  0  0  0
   36.4588   29.5179   48.9061 N   0  0  0  0  0  0  0  0  0  0  0  0
   35.8496   29.0900   50.0379 C   0  0  0  0  0  0  0  0  0  0  0  0
   36.2715   29.4490   51.2672 N   0  0  0  0  0  0  0  0  0  0  0  0
   38.1932   30.7936   47.8202 C   0  0  0  0  0  0  0  0  0  0  0  0
   38.8001   31.9366   47.7592 C   0  0  0  0  0  0  0  0  0  0  0  0
   39.4314   32.5253   46.5574 C   0  0  0  0  0  0  0  0  0  0  0  0
   38.2547   32.3806   45.1682 S   0  0  0  0  0  0  0  0  0  0  0  0
   37.6543   30.5254   52.4057 H   0  0  0  0  0  0  0  0  0  0  0  0
   38.8216   31.3669   50.4000 H   0  0  0  0  0  0  0  0  0  0  0  0
   34.9731   28.4246   50.0562 H   0  0  0  0  0  0  0  0  0  0  0  0
   38.1921   30.1381   46.9483 H   0  0  0  0  0  0  0  0  0  0  0  0
   38.8453   32.6168   48.6261 H   0  0  0  0  0  0  0  0  0  0  0  0
   39.7666   33.5559   46.6897 H   0  0  0  0  0  0  0  0  0  0  0  0
   40.3703   31.9444   46.3154 H   0  0  0  0  0  0  0  0  0  0  0  0
   37.3109   29.4933   43.6900 O   0  0  0  0  0  0  0  0  0  0  0  0
   38.5103   29.8538   44.2976 C   0  0  2  0  0  0  0  0  0  0  0  0
   38.8916   31.2532   43.8555 C   0  0  2  0  0  0  0  0  0  0  0  0
   40.2549   31.4423   43.8297 O   0  0  0  0  0  0  0  0  0  0  0  0
   41.0089   30.4736   43.2393 C   0  0  0  0  0  0  0  0  0  0  0  0
   40.9246   29.2151   44.1006 C   0  0  1  0  0  0  0  0  0  0  0  0
   41.3160   29.4919   45.3874 O   0  0  0  0  0  0  0  0  0  0  0  0
   39.4921   28.7801   44.0231 C   0  0  2  0  0  0  0  0  0  0  0  0
   39.2035   28.1010   42.8362 O   0  0  0  0  0  0  0  0  0  0  0  0
   36.7116   29.0047   44.3246 H   0  0  0  0  0  0  0  0  0  0  0  0
   38.2549   29.9039   45.4036 H   0  0  0  0  0  0  0  0  0  0  0  0
   38.3752   31.4958   42.9316 H   0  0  0  0  0  0  0  0  0  0  0  0
   40.7070   30.2334   42.1965 H   0  0  0  0  0  0  0  0  0  0  0  0
   42.0697   30.7903   43.2352 H   0  0  0  0  0  0  0  0  0  0  0  0
   41.5428   28.3975   43.6518 H   0  0  0  0  0  0  0  0  0  0  0  0
   40.6038   29.3132   46.0624 H   0  0  0  0  0  0  0  0  0  0  0  0
   39.3732   27.9975   44.8331 H   0  0  0  0  0  0  0  0  0  0  0  0
   38.3911   27.5469   43.0389 H   0  0  0  0  0  0  0  0  0  0  0  0
  2  1  2  0
  3  2  1  0
  4  3  2  0
  4  5  1  0
  5  6  2  0
  6  1  1  0
  7  3  1  0
  8  7  2  0
  9  8  1  0
 10  9  1  0
  1 11  1  0
  2 12  1  0
  5 13  1  0
  7 14  1  0
  8 15  1  0
  9 16  1  0
  9 17  1  0
 18 19  1  0
 19 20  1  0
 20 21  1  0
 21 22  1  0
 22 23  1  0
 23 24  1  0
 23 25  1  0
 25 26  1  0
 25 19  1  0
 18 27  1  0
 19 28  1  1
 20 29  1  6
 22 30  1  0
 22 31  1  0
 23 32  1  6
 24 33  1  0
 25 34  1  1
 26 35  1  0
 10 20  1  0
M  ISO  5  11  14  12  14  13  14  16   8  17   8
M  END
>  <DihAtoms>  (1) 
8,9,19,18

>  <DihDeg>  (1) 
-65.49692074475755

$$$$
