
     RDKit          3D

 41 43  0  0  0  0  0  0  0  0999 V2000
   38.0215   30.3153   50.1940 C   0  0  0  0  0  0  0  0  0  0  0  0
   37.3968   30.5004   48.9279 C   0  0  0  0  0  0  0  0  0  0  0  0
   36.0673   30.1026   48.8101 C   0  0  0  0  0  0  0  0  0  0  0  0
   35.4269   29.5673   49.8718 N   0  0  0  0  0  0  0  0  0  0  0  0
   36.0609   29.4024   51.0822 C   0  0  0  0  0  0  0  0  0  0  0  0
   37.3597   29.7807   51.2309 N   0  0  0  0  0  0  0  0  0  0  0  0
   38.1971   31.0792   47.8942 C   0  0  0  0  0  0  0  0  0  0  0  0
   38.5299   30.2751   46.8258 C   0  0  0  0  0  0  0  0  0  0  0  0
   39.2923   30.6591   45.7386 C   0  0  0  0  0  0  0  0  0  0  0  0
   39.7764   31.9808   45.7070 C   0  0  0  0  0  0  0  0  0  0  0  0
   39.4473   32.7909   46.7727 C   0  0  0  0  0  0  0  0  0  0  0  0
   38.6861   32.3811   47.8420 C   0  0  0  0  0  0  0  0  0  0  0  0
   38.2519   33.4187   49.2290 S   0  0  0  0  0  0  0  0  0  0  0  0
   35.2864   30.2355   47.5476 C   0  0  0  0  0  0  0  0  0  0  0  0
   34.0140   30.7738   47.8288 F   0  0  0  0  0  0  0  0  0  0  0  0
   35.8510   30.9789   46.5625 F   0  0  0  0  0  0  0  0  0  0  0  0
   34.9954   28.9661   47.0337 F   0  0  0  0  0  0  0  0  0  0  0  0
   39.0546   30.6139   50.3196 H   0  0  0  0  0  0  0  0  0  0  0  0
   35.4433   28.9623   51.8586 H   0  0  0  0  0  0  0  0  0  0  0  0
   38.1878   29.2312   46.7809 H   0  0  0  0  0  0  0  0  0  0  0  0
   39.5197   29.9781   44.9281 H   0  0  0  0  0  0  0  0  0  0  0  0
   40.3734   32.3469   44.8958 H   0  0  0  0  0  0  0  0  0  0  0  0
   39.8016   33.8261   46.7911 H   0  0  0  0  0  0  0  0  0  0  0  0
   41.0793   34.3982   49.6828 O   0  0  0  0  0  0  0  0  0  0  0  0
   40.3619   34.9658   48.6291 C   0  0  1  0  0  0  0  0  0  0  0  0
   38.9289   35.0798   49.0706 C   0  0  1  0  0  0  0  0  0  0  0  0
   38.1639   35.8617   48.2166 O   0  0  0  0  0  0  0  0  0  0  0  0
   38.6034   37.1547   48.3485 C   0  0  0  0  0  0  0  0  0  0  0  0
   39.9986   37.3389   47.8684 C   0  0  1  0  0  0  0  0  0  0  0  0
   40.4688   38.5515   48.4248 O   0  0  0  0  0  0  0  0  0  0  0  0
   40.9566   36.2461   48.1444 C   0  0  2  0  0  0  0  0  0  0  0  0
   41.7533   36.0446   47.0045 O   0  0  0  0  0  0  0  0  0  0  0  0
   41.1425   33.4122   49.6428 H   0  0  0  0  0  0  0  0  0  0  0  0
   40.4153   34.2384   47.7871 H   0  0  0  0  0  0  0  0  0  0  0  0
   38.9322   35.5596   50.0752 H   0  0  0  0  0  0  0  0  0  0  0  0
   38.5102   37.5818   49.3646 H   0  0  0  0  0  0  0  0  0  0  0  0
   37.9228   37.7970   47.7165 H   0  0  0  0  0  0  0  0  0  0  0  0
   39.9552   37.5724   46.7665 H   0  0  0  0  0  0  0  0  0  0  0  0
   39.9075   38.8397   49.1707 H   0  0  0  0  0  0  0  0  0  0  0  0
   41.6766   36.5863   48.9461 H   0  0  0  0  0  0  0  0  0  0  0  0
   41.2182   36.0707   46.1787 H   0  0  0  0  0  0  0  0  0  0  0  0
  1  6  2  0
  2  1  1  0
  3  2  2  0
  3  4  1  0
  4  5  2  0
  5  6  1  0
  7  2  1  0
  8  7  2  0
  9  8  1  0
 10  9  2  0
 10 11  1  0
 11 12  2  0
 12  7  1  0
 12 13  1  0
 14 15  1  0
 14  3  1  0
 16 14  1  0
 17 14  1  0
  1 18  1  0
  5 19  1  0
  8 20  1  0
  9 21  1  0
 10 22  1  0
 11 23  1  0
 24 25  1  0
 25 26  1  0
 26 27  1  0
 27 28  1  0
 28 29  1  0
 29 30  1  0
 29 31  1  0
 31 32  1  0
 31 25  1  0
 24 33  1  0
 25 34  1  6
 26 35  1  1
 28 36  1  0
 28 37  1  0
 29 38  1  6
 30 39  1  0
 31 40  1  1
 32 41  1  0
 13 26  1  0
M  ISO  6  18  14  19  14  20  14  21  14  22  14  23  14
M  END
>  <DihAtoms>  (1) 
11,12,25,24

>  <DihDeg>  (1) 
-179.99849044044998

$$$$
