REMARK  Name = 
REMARK  8 active torsions:
REMARK  status: ('A' for Active; 'I' for Inactive)
REMARK    1  A    between atoms: C_1  and  C_4
REMARK    2  A    between atoms: C_2  and  C_11
REMARK    3  A    between atoms: C_10  and  O_15
REMARK    4  A    between atoms: C_14  and  O_16
REMARK    5  A    between atoms: O_16  and  C_32
REMARK    6  A    between atoms: O_30  and  C_31
REMARK    7  A    between atoms: C_35  and  O_36
REMARK    8  A    between atoms: C_37  and  O_38
REMARK                            x       y       z     vdW  Elec       q    Type
REMARK                         _______ _______ _______ _____ _____    ______ ____
ROOT
ATOM      1  C   UNL     1      33.965  29.071  47.380  0.00  0.00    +0.000 C 
ATOM      2  C   UNL     1      34.740  28.280  48.411  0.00  0.00    +0.000 C 
ATOM      3  O   UNL     1      33.874  28.067  49.438  0.00  0.00    +0.000 OA
ATOM      4  C   UNL     1      32.579  28.143  48.997  0.00  0.00    +0.000 C 
ATOM      5  C   UNL     1      32.606  28.389  47.502  0.00  0.00    +0.000 C 
ATOM      6  H   UNL     1      33.872  30.136  47.657  0.00  0.00    +0.000 HD
ATOM      7  H   UNL     1      35.024  27.324  47.939  0.00  0.00    +0.000 HD
ATOM      8  H   UNL     1      32.063  29.038  49.455  0.00  0.00    +0.000 HD
ATOM      9  H   UNL     1      31.960  27.270  49.241  0.00  0.00    +0.000 HD
ATOM     10  H   UNL     1      32.590  27.425  46.990  0.00  0.00    +0.000 HD
ENDROOT
BRANCH   2  12
ATOM     11  C   UNL     1      35.814  30.543  49.078  0.00  0.00    +0.000 C 
ATOM     12  C   UNL     1      35.904  29.122  48.838  0.00  0.00    +0.000 C 
ATOM     13  C   UNL     1      36.070  29.581  50.249  0.00  0.00    +0.000 C 
ATOM     14  H   UNL     1      34.891  31.134  49.304  0.00  0.00    +0.000 HD
ATOM     15  H   UNL     1      36.847  28.797  48.306  0.00  0.00    +0.000 HD
ATOM     16  H   UNL     1      37.090  29.527  50.678  0.00  0.00    +0.000 HD
ATOM     17  H   UNL     1      35.294  29.393  50.988  0.00  0.00    +0.000 HD
BRANCH  11  18
ATOM     18  C   UNL     1      37.008  31.453  48.828  0.00  0.00    +0.000 A 
ATOM     19  C   UNL     1      37.181  32.527  49.701  0.00  0.00    +0.000 A 
ATOM     20  C   UNL     1      38.270  33.346  49.409  0.00  0.00    +0.000 A 
ATOM     21  N   UNL     1      39.085  33.086  48.340  0.00  0.00    +0.000 NA
ATOM     22  C   UNL     1      38.873  32.029  47.524  0.00  0.00    +0.000 A 
ATOM     23  N   UNL     1      37.824  31.204  47.770  0.00  0.00    +0.000 NA
ATOM     24  H   UNL     1      36.544  32.721  50.527  0.00  0.00    +0.000 HD
ATOM     25  H   UNL     1      38.508  34.215  50.017  0.00  0.00    +0.000 HD
ATOM     26  H   UNL     1      39.502  31.805  46.675  0.00  0.00    +0.000 HD
ENDBRANCH  11  18
ENDBRANCH   2  12
BRANCH   1  27
ATOM     27  O   UNL     1      34.475  28.951  46.096  0.00  0.00    +0.000 OA
ATOM     28  H   UNL     1      34.282  28.038  45.788  0.00  0.00    +0.000 HD
ENDBRANCH   1  27
BRANCH   5  29
ATOM     29  O   UNL     1      31.578  29.182  47.062  0.00  0.00    +0.000 OA
BRANCH  29  31
ATOM     30  C   UNL     1      29.490  29.287  45.907  0.00  0.00    +0.000 C 
ATOM     31  C   UNL     1      30.800  28.554  46.099  0.00  0.00    +0.000 C 
ATOM     32  O   UNL     1      30.508  27.235  46.444  0.00  0.00    +0.000 OA
ATOM     33  C   UNL     1      30.249  26.533  45.264  0.00  0.00    +0.000 C 
ATOM     34  C   UNL     1      29.338  27.315  44.344  0.00  0.00    +0.000 C 
ATOM     35  C   UNL     1      28.579  28.389  45.093  0.00  0.00    +0.000 C 
BRANCH  30  36
ATOM     36  O   UNL     1      29.759  30.436  45.163  0.00  0.00    +0.000 OA
ATOM     37  H   UNL     1      29.593  30.233  44.202  0.00  0.00    +0.000 HD
ENDBRANCH  30  36
BRANCH  34  38
ATOM     38  O   UNL     1      28.397  26.424  43.832  0.00  0.00    +0.000 OA
ATOM     39  H   UNL     1      27.740  26.874  43.238  0.00  0.00    +0.000 HD
ENDBRANCH  34  38
BRANCH  35  40
ATOM     40  O   UNL     1      27.831  29.105  44.158  0.00  0.00    +0.000 OA
ATOM     41  H   UNL     1      27.577  29.994  44.548  0.00  0.00    +0.000 HD
ENDBRANCH  35  40
ENDBRANCH  29  31
ENDBRANCH   5  29
TORSDOF 8
