REMARK  Name = 
REMARK  10 active torsions:
REMARK  status: ('A' for Active; 'I' for Inactive)
REMARK    1  A    between atoms: C_1  and  C_7
REMARK    2  A    between atoms: C_6  and  C_15
REMARK    3  A    between atoms: C_7  and  O_8
REMARK    4  A    between atoms: C_7  and  C_13
REMARK    5  A    between atoms: C_16  and  C_17
REMARK    6  A    between atoms: C_17  and  S_18
REMARK    7  A    between atoms: S_18  and  C_34
REMARK    8  A    between atoms: O_32  and  C_33
REMARK    9  A    between atoms: C_37  and  O_38
REMARK   10  A    between atoms: C_39  and  O_40
REMARK                            x       y       z     vdW  Elec       q    Type
REMARK                         _______ _______ _______ _____ _____    ______ ____
ROOT
ATOM      1  C   UNL     1      37.079  30.950  49.026  0.00  0.00    +0.000 A 
ATOM      2  C   UNL     1      36.806  31.879  50.031  0.00  0.00    +0.000 A 
ATOM      3  C   UNL     1      37.423  33.124  50.063  0.00  0.00    +0.000 A 
ATOM      4  C   UNL     1      38.340  33.459  49.063  0.00  0.00    +0.000 A 
ATOM      5  C   UNL     1      38.595  32.539  48.087  0.00  0.00    +0.000 A 
ATOM      6  C   UNL     1      37.962  31.306  48.087  0.00  0.00    +0.000 A 
ATOM      7  H   UNL     1      36.085  31.601  50.805  0.00  0.00    +0.000 HD
ATOM      8  H   UNL     1      37.138  33.757  50.882  0.00  0.00    +0.000 HD
ATOM      9  H   UNL     1      38.764  34.437  49.166  0.00  0.00    +0.000 HD
ATOM     10  H   UNL     1      39.328  32.943  47.385  0.00  0.00    +0.000 HD
ENDROOT
BRANCH   1  11
ATOM     11  C   UNL     1      36.466  29.640  49.015  0.00  0.00    +0.000 C 
ATOM     12  H   UNL     1      37.007  29.057  48.174  0.00  0.00    +0.000 HD
BRANCH  11  17
ATOM     13  C   UNL     1      33.615  30.149  46.822  0.00  0.00    +0.000 A 
ATOM     14  C   UNL     1      32.955  28.933  46.843  0.00  0.00    +0.000 A 
ATOM     15  C   UNL     1      33.449  27.939  47.665  0.00  0.00    +0.000 A 
ATOM     16  N   UNL     1      34.571  28.187  48.428  0.00  0.00    +0.000 NA
ATOM     17  C   UNL     1      35.156  29.365  48.361  0.00  0.00    +0.000 A 
ATOM     18  N   UNL     1      34.687  30.345  47.569  0.00  0.00    +0.000 NA
ATOM     19  H   UNL     1      33.202  30.906  46.168  0.00  0.00    +0.000 HD
ATOM     20  H   UNL     1      32.072  28.664  46.274  0.00  0.00    +0.000 HD
ATOM     21  H   UNL     1      33.032  26.942  47.781  0.00  0.00    +0.000 HD
ENDBRANCH  11  17
BRANCH  11  22
ATOM     22  O   UNL     1      36.862  28.901  49.993  0.00  0.00    +0.000 OA
ATOM     23  H   UNL     1      36.692  29.317  50.897  0.00  0.00    +0.000 HD
ENDBRANCH  11  22
ENDBRANCH   1  11
BRANCH   6  24
ATOM     24  C   UNL     1      38.345  30.418  47.014  0.00  0.00    +0.000 C 
ATOM     25  C   UNL     1      38.825  30.837  45.837  0.00  0.00    +0.000 C 
BRANCH  25  26
ATOM     26  C   UNL     1      39.286  30.022  44.689  0.00  0.00    +0.000 C 
ATOM     27  H   UNL     1      40.350  29.673  44.812  0.00  0.00    +0.000 HD
ATOM     28  H   UNL     1      38.673  29.105  44.616  0.00  0.00    +0.000 HD
BRANCH  26  29
ATOM     29  S   UNL     1      39.173  30.990  43.181  0.00  0.00    +0.000 S 
BRANCH  29  31
ATOM     30  C   UNL     1      38.535  29.249  41.235  0.00  0.00    +0.000 C 
ATOM     31  C   UNL     1      39.688  30.119  41.706  0.00  0.00    +0.000 C 
ATOM     32  O   UNL     1      40.840  29.375  41.916  0.00  0.00    +0.000 OA
ATOM     33  C   UNL     1      41.057  28.576  40.787  0.00  0.00    +0.000 C 
ATOM     34  C   UNL     1      40.121  27.396  40.930  0.00  0.00    +0.000 C 
ATOM     35  C   UNL     1      38.790  27.780  41.535  0.00  0.00    +0.000 C 
BRANCH  30  36
ATOM     36  O   UNL     1      37.356  29.588  41.903  0.00  0.00    +0.000 OA
ATOM     37  H   UNL     1      37.355  30.517  42.246  0.00  0.00    +0.000 HD
ENDBRANCH  30  36
BRANCH  34  38
ATOM     38  O   UNL     1      39.862  26.853  39.692  0.00  0.00    +0.000 OA
ATOM     39  H   UNL     1      40.434  27.207  38.990  0.00  0.00    +0.000 HD
ENDBRANCH  34  38
BRANCH  35  40
ATOM     40  O   UNL     1      37.734  27.061  40.975  0.00  0.00    +0.000 OA
ATOM     41  H   UNL     1      37.556  27.313  40.042  0.00  0.00    +0.000 HD
ENDBRANCH  35  40
ENDBRANCH  29  31
ENDBRANCH  26  29
ENDBRANCH  25  26
ENDBRANCH   6  24
TORSDOF 10
