
 OpenBabel03272509403D

 38 40  0  0  1  0  0  0  0  0999 V2000
   36.9580   30.9000   49.0210 C   0  0  0  0  0  0  0  0  0  0  0  0
   36.6940   31.8090   50.0600 C   0  0  0  0  0  0  0  0  0  0  0  0
   37.3130   33.0490   50.1380 C   0  0  0  0  0  0  0  0  0  0  0  0
   38.2360   33.4290   49.1590 C   0  0  0  0  0  0  0  0  0  0  0  0
   38.4860   32.5250   48.1430 C   0  0  0  0  0  0  0  0  0  0  0  0
   37.8520   31.2950   48.0930 C   0  0  0  0  0  0  0  0  0  0  0  0
   35.9850   31.5530   50.8390 H   0  0  0  0  0  0  0  0  0  0  0  0
   37.0650   33.7010   50.9650 H   0  0  0  0  0  0  0  0  0  0  0  0
   38.7040   34.4020   49.2450 H   0  0  0  0  0  0  0  0  0  0  0  0
   39.2100   32.9030   47.4350 H   0  0  0  0  0  0  0  0  0  0  0  0
   36.2680   29.6390   49.0230 C   0  0  0  0  0  0  0  0  0  0  0  0
   36.7770   28.7430   49.7790 O   0  0  0  0  0  0  0  0  0  0  0  0
   33.5360   30.2300   46.7000 C   0  0  0  0  0  0  0  0  0  0  0  0
   32.8410   29.0230   46.6810 C   0  0  0  0  0  0  0  0  0  0  0  0
   33.3090   27.9850   47.4760 C   0  0  0  0  0  0  0  0  0  0  0  0
   34.4200   28.1800   48.2390 N   0  0  0  0  0  0  0  0  0  0  0  0
   35.0640   29.3360   48.2400 C   0  0  0  0  0  0  0  0  0  0  0  0
   34.6070   30.3510   47.4640 N   0  0  0  0  0  0  0  0  0  0  0  0
   33.1350   31.0110   46.0660 H   0  0  0  0  0  0  0  0  0  0  0  0
   31.9600   28.9160   46.0560 H   0  0  0  0  0  0  0  0  0  0  0  0
   32.8020   27.0290   47.4930 H   0  0  0  0  0  0  0  0  0  0  0  0
   38.2470   30.4820   46.9780 C   0  0  0  0  0  3  0  0  0  0  0  0
   38.9460   30.8360   45.9150 C   0  0  0  0  0  3  0  0  0  0  0  0
   39.4400   30.1160   44.7450 C   0  0  0  0  0  0  0  0  0  0  0  0
   40.1130   30.8060   44.1770 H   0  0  0  0  0  0  0  0  0  0  0  0
   40.0870   29.2790   45.0830 H   0  0  0  0  0  0  0  0  0  0  0  0
   37.9230   30.3830   42.7350 C   0  0  2  0  0  3  0  0  0  0  0  0
   38.3990   29.5290   43.8400 C   0  0  1  0  0  3  0  0  0  0  0  0
   38.8420   28.2940   43.3910 O   0  0  0  0  0  0  0  0  0  0  0  0
   39.9500   28.3600   42.5620 C   0  0  0  0  0  2  0  0  0  0  0  0
   39.6160   29.2660   41.3980 C   0  0  2  0  0  3  0  0  0  0  0  0
   38.1390   29.6020   41.4250 C   0  0  2  0  0  3  0  0  0  0  0  0
   38.6340   31.5650   42.5520 O   0  0  0  0  0  0  0  0  0  0  0  0
   38.0090   32.1460   42.0110 H   0  0  0  0  0  0  0  0  0  0  0  0
   39.9280   28.5930   40.2230 O   0  0  0  0  0  0  0  0  0  0  0  0
   40.8170   28.1860   40.3490 H   0  0  0  0  0  0  0  0  0  0  0  0
   37.7730   30.4130   40.3640 O   0  0  0  0  0  0  0  0  0  0  0  0
   38.3890   30.2180   39.6120 H   0  0  0  0  0  0  0  0  0  0  0  0
  1 11  1  0  0  0  0
  1  2  1  0  0  0  0
  2  3  2  0  0  0  0
  2  7  1  0  0  0  0
  3  8  1  0  0  0  0
  4  9  1  0  0  0  0
  4  3  1  0  0  0  0
  5  4  2  0  0  0  0
  6  5  1  0  0  0  0
  6  1  2  0  0  0  0
 10  5  1  0  0  0  0
 11 12  2  0  0  0  0
 13 18  1  0  0  0  0
 14 13  2  0  0  0  0
 14 15  1  0  0  0  0
 15 21  1  0  0  0  0
 15 16  2  0  0  0  0
 16 17  1  0  0  0  0
 17 11  1  0  0  0  0
 18 17  2  0  0  0  0
 19 13  1  0  0  0  0
 20 14  1  0  0  0  0
 22  6  1  0  0  0  0
 23 22  2  0  0  0  0
 24 26  1  0  0  0  0
 24 23  1  0  0  0  0
 25 24  1  0  0  0  0
 27 33  1  6  0  0  0
 27 28  1  0  0  0  0
 28 24  1  6  0  0  0
 29 28  1  0  0  0  0
 30 29  1  0  0  0  0
 31 35  1  6  0  0  0
 31 32  1  0  0  0  0
 31 30  1  0  0  0  0
 32 37  1  6  0  0  0
 32 27  1  0  0  0  0
 34 33  1  0  0  0  0
 35 36  1  0  0  0  0
 38 37  1  0  0  0  0
M  END
>  <minimizedAffinity>
-6.0365181

>  <minimizedRMSD>
1.68131697

$$$$
