
     RDKit          3D

 41 43  0  0  0  0  0  0  0  0999 V2000
   34.7890   29.5463   47.5250 S   0  0  0  0  0  0  0  0  0  0  0  0
   37.3767   29.4662   50.5284 C   0  0  0  0  0  0  0  0  0  0  0  0
   37.9878   30.7206   50.5187 C   0  0  0  0  0  0  0  0  0  0  0  0
   37.5747   31.6351   49.5300 C   0  0  0  0  0  0  0  0  0  0  0  0
   36.6187   31.2555   48.6515 N   0  0  0  0  0  0  0  0  0  0  0  0
   36.0511   30.0343   48.6923 C   0  0  0  0  0  0  0  0  0  0  0  0
   36.4179   29.1376   49.6180 N   0  0  0  0  0  0  0  0  0  0  0  0
   32.3902   28.3616   47.4599 C   0  0  2  0  0  0  0  0  0  0  0  0
   33.6226   28.4149   48.3455 C   0  0  1  0  0  0  0  0  0  0  0  0
   34.1760   27.1633   48.3669 O   0  0  0  0  0  0  0  0  0  0  0  0
   33.5686   26.3675   47.4082 C   0  0  0  0  0  0  0  0  0  0  0  0
   32.8501   27.3327   46.4574 C   0  0  1  0  0  0  0  0  0  0  0  0
   32.1327   29.5955   46.8873 O   0  0  0  0  0  0  0  0  0  0  0  0
   31.8000   26.6809   45.8378 O   0  0  0  0  0  0  0  0  0  0  0  0
   37.6202   28.6887   51.2458 H   0  0  0  0  0  0  0  0  0  0  0  0
   38.7369   30.9442   51.2487 H   0  0  0  0  0  0  0  0  0  0  0  0
   38.0430   32.6102   49.5148 H   0  0  0  0  0  0  0  0  0  0  0  0
   31.5506   27.9970   48.0805 H   0  0  0  0  0  0  0  0  0  0  0  0
   33.2949   28.8023   49.3211 H   0  0  0  0  0  0  0  0  0  0  0  0
   34.3858   25.8204   46.8862 H   0  0  0  0  0  0  0  0  0  0  0  0
   32.7906   25.7083   47.8228 H   0  0  0  0  0  0  0  0  0  0  0  0
   33.5865   27.7910   45.8015 H   0  0  0  0  0  0  0  0  0  0  0  0
   31.6105   29.5320   46.0604 H   0  0  0  0  0  0  0  0  0  0  0  0
   32.6703   28.5654   43.0126 O   0  0  0  0  0  0  0  0  0  0  0  0
   31.6987   28.1609   43.9330 C   0  0  2  0  0  0  0  0  0  0  0  0
   31.9700   26.7882   44.4579 C   0  0  2  0  0  0  0  0  0  0  0  0
   31.2643   25.7847   43.8165 O   0  0  0  0  0  0  0  0  0  0  0  0
   29.9075   26.0547   43.7074 C   0  0  0  0  0  0  0  0  0  0  0  0
   29.8198   27.1577   42.6706 C   0  0  2  0  0  0  0  0  0  0  0  0
   30.6870   26.7812   41.6259 O   0  0  0  0  0  0  0  0  0  0  0  0
   30.3606   28.3934   43.3338 C   0  0  1  0  0  0  0  0  0  0  0  0
   29.4319   28.7942   44.3133 O   0  0  0  0  0  0  0  0  0  0  0  0
   32.8486   27.8354   42.3976 H   0  0  0  0  0  0  0  0  0  0  0  0
   31.7903   28.9144   44.7702 H   0  0  0  0  0  0  0  0  0  0  0  0
   33.0404   26.5652   44.2585 H   0  0  0  0  0  0  0  0  0  0  0  0
   29.4735   26.4252   44.6616 H   0  0  0  0  0  0  0  0  0  0  0  0
   29.4034   25.1398   43.3563 H   0  0  0  0  0  0  0  0  0  0  0  0
   28.7911   27.3090   42.3063 H   0  0  0  0  0  0  0  0  0  0  0  0
   30.5232   27.3222   40.8147 H   0  0  0  0  0  0  0  0  0  0  0  0
   30.4403   29.2147   42.5667 H   0  0  0  0  0  0  0  0  0  0  0  0
   29.5055   29.7896   44.3818 H   0  0  0  0  0  0  0  0  0  0  0  0
  1  6  1  0
  3  2  2  0
  4  3  1  0
  5  6  1  0
  5  4  2  0
  6  7  2  0
  7  2  1  0
  8 13  1  0
  8  9  1  0
  9  1  1  0
  9 10  1  0
 11 10  1  0
 12 14  1  0
 12 11  1  0
 12  8  1  0
  2 15  1  0
  3 16  1  0
  4 17  1  0
  8 18  1  1
  9 19  1  1
 11 20  1  0
 11 21  1  0
 12 22  1  6
 13 23  1  0
 24 25  1  0
 25 26  1  0
 26 27  1  0
 27 28  1  0
 28 29  1  0
 29 30  1  0
 29 31  1  0
 31 32  1  0
 31 25  1  0
 24 33  1  0
 25 34  1  1
 26 35  1  1
 28 36  1  0
 28 37  1  0
 29 38  1  6
 30 39  1  0
 31 40  1  6
 32 41  1  0
 14 26  1  0
M  ISO  8  15  14  16  14  17  14  18  13  19  13  20  13  21  13  22  13
M  ISO  1  23   3
M  END
>  <DihAtoms>  (1) 
11,13,25,24

>  <DihDeg>  (1) 
-117.48005748375701

$$$$
