
 OpenBabel03272509433D

 41 43  0  0  1  0  0  0  0  0999 V2000
   37.0050   30.9070   49.1120 C   0  0  0  0  0  0  0  0  0  0  0  0
   36.6880   31.8050   50.1320 C   0  0  0  0  0  0  0  0  0  0  0  0
   37.2590   33.0710   50.1960 C   0  0  0  0  0  0  0  0  0  0  0  0
   38.1740   33.4580   49.2130 C   0  0  0  0  0  0  0  0  0  0  0  0
   38.4730   32.5680   48.2220 C   0  0  0  0  0  0  0  0  0  0  0  0
   37.8850   31.3130   48.1910 C   0  0  0  0  0  0  0  0  0  0  0  0
   35.9690   31.4860   50.8920 H   0  0  0  0  0  0  0  0  0  0  0  0
   36.9420   33.6770   51.0230 H   0  0  0  0  0  0  0  0  0  0  0  0
   38.5610   34.4490   49.3400 H   0  0  0  0  0  0  0  0  0  0  0  0
   39.1980   33.0110   47.5370 H   0  0  0  0  0  0  0  0  0  0  0  0
   36.4400   29.5760   49.0690 C   0  0  2  0  0  0  0  0  0  0  0  0
   36.9450   29.0590   48.1650 H   0  0  0  0  0  0  0  0  0  0  0  0
   33.5860   29.8920   46.8440 C   0  0  0  0  0  0  0  0  0  0  0  0
   32.8440   28.7500   47.0860 C   0  0  0  0  0  0  0  0  0  0  0  0
   33.2850   27.8840   48.0680 C   0  0  0  0  0  0  0  0  0  0  0  0
   34.4370   28.1820   48.7650 N   0  0  0  0  0  0  0  0  0  0  0  0
   35.1000   29.2840   48.4850 C   0  0  0  0  0  0  0  0  0  0  0  0
   34.6840   30.1400   47.5350 N   0  0  0  0  0  0  0  0  0  0  0  0
   33.2120   30.5490   46.0690 H   0  0  0  0  0  0  0  0  0  0  0  0
   31.9330   28.4480   46.5810 H   0  0  0  0  0  0  0  0  0  0  0  0
   32.8030   26.9560   48.3630 H   0  0  0  0  0  0  0  0  0  0  0  0
   36.9250   28.8030   49.9780 O   0  0  0  0  0  0  0  0  0  0  0  0
   36.7990   29.1650   50.9120 H   0  0  0  0  0  0  0  0  0  0  0  0
   38.3110   30.4610   47.1050 C   0  0  0  0  0  3  0  0  0  0  0  0
   38.7780   30.9200   45.9380 C   0  0  0  0  0  3  0  0  0  0  0  0
   39.2800   30.1460   44.7790 C   0  0  0  0  0  0  0  0  0  0  0  0
   40.1960   29.5410   45.0330 H   0  0  0  0  0  0  0  0  0  0  0  0
   38.5130   29.4150   44.4620 H   0  0  0  0  0  0  0  0  0  0  0  0
   39.6890   31.2680   43.4390 S   0  0  0  0  0  0  0  0  0  0  0  0
   40.2990   30.9920   40.8350 C   0  0  1  0  0  3  0  0  0  0  0  0
   40.7910   30.5770   42.2100 C   0  0  2  0  0  3  0  0  0  0  0  0
   40.8980   29.1980   42.3230 O   0  0  0  0  0  0  0  0  0  0  0  0
   41.6080   28.7230   41.2150 C   0  0  0  0  0  2  0  0  0  0  0  0
   40.6140   28.6760   40.0760 C   0  0  1  0  0  3  0  0  0  0  0  0
   39.6400   29.8300   40.1080 C   0  0  2  0  0  3  0  0  0  0  0  0
   39.3300   31.9920   40.9390 O   0  0  0  0  0  0  0  0  0  0  0  0
   39.3970   32.5160   41.7770 H   0  0  0  0  0  0  0  0  0  0  0  0
   41.2800   28.7410   38.8730 O   0  0  0  0  0  0  0  0  0  0  0  0
   42.2420   28.6430   38.9610 H   0  0  0  0  0  0  0  0  0  0  0  0
   39.3200   30.2810   38.8270 O   0  0  0  0  0  0  0  0  0  0  0  0
   40.0740   30.7300   38.3830 H   0  0  0  0  0  0  0  0  0  0  0  0
  1  2  1  0  0  0  0
  2  3  2  0  0  0  0
  2  7  1  0  0  0  0
  3  8  1  0  0  0  0
  4  9  1  0  0  0  0
  4  3  1  0  0  0  0
  5  4  2  0  0  0  0
  6  5  1  0  0  0  0
  6  1  2  0  0  0  0
 10  5  1  0  0  0  0
 11 12  1  6  0  0  0
 11  1  1  0  0  0  0
 11 22  1  0  0  0  0
 13 14  2  0  0  0  0
 13 18  1  0  0  0  0
 14 15  1  0  0  0  0
 15 21  1  0  0  0  0
 15 16  2  0  0  0  0
 17 16  1  0  0  0  0
 17 11  1  0  0  0  0
 18 17  2  0  0  0  0
 19 13  1  0  0  0  0
 20 14  1  0  0  0  0
 22 23  1  0  0  0  0
 24  6  1  0  0  0  0
 25 24  2  0  0  0  0
 26 27  1  0  0  0  0
 26 25  1  0  0  0  0
 28 26  1  0  0  0  0
 29 26  1  0  0  0  0
 30 36  1  1  0  0  0
 30 31  1  0  0  0  0
 31 32  1  0  0  0  0
 31 29  1  1  0  0  0
 33 32  1  0  0  0  0
 34 38  1  6  0  0  0
 34 35  1  0  0  0  0
 34 33  1  0  0  0  0
 35 40  1  6  0  0  0
 35 30  1  0  0  0  0
 36 37  1  0  0  0  0
 38 39  1  0  0  0  0
 41 40  1  0  0  0  0
M  END
>  <minimizedAffinity>
-5.97546148

>  <minimizedRMSD>
1.07182634

$$$$
