
 OpenBabel03272508283D

 41 44  0  0  1  0  0  0  0  0999 V2000
   33.6920   28.7950   47.1600 C   0  0  2  0  0  0  0  0  0  0  0  0
   34.3320   28.0290   48.2980 C   0  0  2  0  0  0  0  0  0  0  0  0
   33.3700   27.9190   49.2530 O   0  0  0  0  0  0  0  0  0  0  0  0
   32.1240   28.0310   48.6950 C   0  0  0  0  0  0  0  0  0  0  0  0
   32.2940   28.1870   47.1970 C   0  0  1  0  0  0  0  0  0  0  0  0
   33.6320   29.8770   47.3700 H   0  0  0  0  0  0  0  0  0  0  0  0
   34.6050   27.0350   47.9060 H   0  0  0  0  0  0  0  0  0  0  0  0
   31.6190   28.9750   49.0560 H   0  0  0  0  0  0  0  0  0  0  0  0
   31.4410   27.2040   48.9300 H   0  0  0  0  0  0  0  0  0  0  0  0
   32.2710   27.1970   46.7390 H   0  0  0  0  0  0  0  0  0  0  0  0
   35.4460   30.2670   48.9850 C   0  0  1  0  0  0  0  0  0  0  0  0
   35.4980   28.8380   48.7810 C   0  0  1  0  0  0  0  0  0  0  0  0
   35.5920   29.3230   50.1900 C   0  0  0  0  0  0  0  0  0  0  0  0
   34.5340   30.8960   49.1400 H   0  0  0  0  0  0  0  0  0  0  0  0
   36.4600   28.4670   48.3170 H   0  0  0  0  0  0  0  0  0  0  0  0
   36.5800   29.2420   50.6840 H   0  0  0  0  0  0  0  0  0  0  0  0
   34.7640   29.1810   50.8820 H   0  0  0  0  0  0  0  0  0  0  0  0
   36.6870   31.1270   48.7940 C   0  0  0  0  0  0  0  0  0  0  0  0
   36.9150   32.1310   49.7350 C   0  0  0  0  0  0  0  0  0  0  0  0
   38.0460   32.9080   49.4950 C   0  0  0  0  0  0  0  0  0  0  0  0
   38.8480   32.6760   48.4100 N   0  0  0  0  0  0  0  0  0  0  0  0
   38.5820   31.6880   47.5270 C   0  0  0  0  0  0  0  0  0  0  0  0
   37.4910   30.9050   47.7200 N   0  0  0  0  0  0  0  0  0  0  0  0
   36.2880   32.3030   50.5730 H   0  0  0  0  0  0  0  0  0  0  0  0
   38.3290   33.7220   50.1590 H   0  0  0  0  0  0  0  0  0  0  0  0
   39.2000   31.4870   46.6640 H   0  0  0  0  0  0  0  0  0  0  0  0
   34.3050   28.5750   45.9360 O   0  0  0  0  0  0  0  0  0  0  0  0
   34.0910   27.6560   45.6620 H   0  0  0  0  0  0  0  0  0  0  0  0
   31.3510   29.0010   46.6250 O   0  0  0  0  0  0  0  0  0  0  0  0
   29.4220   28.1120   45.5340 C   0  0  2  0  0  3  0  0  0  0  0  0
   30.0580   28.5440   46.8370 C   0  0  2  0  0  3  0  0  0  0  0  0
   29.2470   29.5230   47.4090 O   0  0  0  0  0  0  0  0  0  0  0  0
   28.2120   28.8760   48.0910 C   0  0  0  0  0  2  0  0  0  0  0  0
   27.6170   27.7600   47.2600 C   0  0  2  0  0  3  0  0  0  0  0  0
   27.9370   27.9290   45.7890 C   0  0  2  0  0  3  0  0  0  0  0  0
   29.9680   26.8760   45.1910 O   0  0  0  0  0  0  0  0  0  0  0  0
   29.3620   26.1610   45.5300 H   0  0  0  0  0  0  0  0  0  0  0  0
   26.2300   27.8370   47.3910 O   0  0  0  0  0  0  0  0  0  0  0  0
   25.7650   27.1500   46.8450 H   0  0  0  0  0  0  0  0  0  0  0  0
   27.4200   26.8220   45.1160 O   0  0  0  0  0  0  0  0  0  0  0  0
   27.8730   26.7340   44.2260 H   0  0  0  0  0  0  0  0  0  0  0  0
  1  5  1  0  0  0  0
  1  6  1  1  0  0  0
  1  2  1  0  0  0  0
  2  7  1  6  0  0  0
  2 12  1  0  0  0  0
  2  3  1  0  0  0  0
  4  9  1  0  0  0  0
  4  8  1  0  0  0  0
  4  3  1  0  0  0  0
  5 10  1  6  0  0  0
  5  4  1  0  0  0  0
 11 14  1  6  0  0  0
 11 13  1  0  0  0  0
 12 15  1  6  0  0  0
 12 11  1  0  0  0  0
 12 13  1  0  0  0  0
 13 16  1  0  0  0  0
 13 17  1  0  0  0  0
 18 11  1  0  0  0  0
 18 19  1  0  0  0  0
 19 24  1  0  0  0  0
 20 19  2  0  0  0  0
 20 25  1  0  0  0  0
 21 20  1  0  0  0  0
 22 23  1  0  0  0  0
 22 21  2  0  0  0  0
 23 18  2  0  0  0  0
 26 22  1  0  0  0  0
 27  1  1  0  0  0  0
 28 27  1  0  0  0  0
 29  5  1  0  0  0  0
 30 36  1  1  0  0  0
 30 35  1  0  0  0  0
 30 31  1  0  0  0  0
 31 29  1  6  0  0  0
 31 32  1  0  0  0  0
 32 33  1  0  0  0  0
 34 38  1  6  0  0  0
 34 33  1  0  0  0  0
 35 40  1  6  0  0  0
 35 34  1  0  0  0  0
 36 37  1  0  0  0  0
 39 38  1  0  0  0  0
 41 40  1  0  0  0  0
M  END
>  <minimizedAffinity>
-5.92137575

>  <minimizedRMSD>
1.95317006

$$$$
