
 OpenBabel03272508273D

 41 44  0  0  1  0  0  0  0  0999 V2000
   33.8300   28.9170   47.3040 C   0  0  2  0  0  0  0  0  0  0  0  0
   34.5660   28.1510   48.3810 C   0  0  2  0  0  0  0  0  0  0  0  0
   33.6800   28.0130   49.4040 O   0  0  0  0  0  0  0  0  0  0  0  0
   32.3940   28.1090   48.9410 C   0  0  0  0  0  0  0  0  0  0  0  0
   32.4480   28.2840   47.4370 C   0  0  1  0  0  0  0  0  0  0  0  0
   33.7660   29.9960   47.5300 H   0  0  0  0  0  0  0  0  0  0  0  0
   34.8260   27.1660   47.9580 H   0  0  0  0  0  0  0  0  0  0  0  0
   31.9000   29.0390   49.3500 H   0  0  0  0  0  0  0  0  0  0  0  0
   31.7440   27.2670   49.2160 H   0  0  0  0  0  0  0  0  0  0  0  0
   32.4090   27.2980   46.9700 H   0  0  0  0  0  0  0  0  0  0  0  0
   35.6720   30.3850   49.0930 C   0  0  1  0  0  0  0  0  0  0  0  0
   35.7500   28.9760   48.7860 C   0  0  1  0  0  0  0  0  0  0  0  0
   35.9870   29.3720   50.2060 C   0  0  0  0  0  0  0  0  0  0  0  0
   34.7620   30.9630   49.3920 H   0  0  0  0  0  0  0  0  0  0  0  0
   36.6650   28.6770   48.1930 H   0  0  0  0  0  0  0  0  0  0  0  0
   37.0270   29.3020   50.5800 H   0  0  0  0  0  0  0  0  0  0  0  0
   35.2490   29.1500   50.9740 H   0  0  0  0  0  0  0  0  0  0  0  0
   36.8520   31.3080   48.8240 C   0  0  0  0  0  0  0  0  0  0  0  0
   37.0720   32.3390   49.7370 C   0  0  0  0  0  0  0  0  0  0  0  0
   38.1450   33.1720   49.4280 C   0  0  0  0  0  0  0  0  0  0  0  0
   38.9020   32.9650   48.3050 N   0  0  0  0  0  0  0  0  0  0  0  0
   38.6460   31.9480   47.4520 C   0  0  0  0  0  0  0  0  0  0  0  0
   37.6100   31.1110   47.7130 N   0  0  0  0  0  0  0  0  0  0  0  0
   36.4810   32.4920   50.6040 H   0  0  0  0  0  0  0  0  0  0  0  0
   38.4160   34.0110   50.0630 H   0  0  0  0  0  0  0  0  0  0  0  0
   39.2280   31.7660   46.5610 H   0  0  0  0  0  0  0  0  0  0  0  0
   34.3530   28.7220   46.0340 O   0  0  0  0  0  0  0  0  0  0  0  0
   34.1350   27.8020   45.7660 H   0  0  0  0  0  0  0  0  0  0  0  0
   31.4520   29.0870   46.9460 O   0  0  0  0  0  0  0  0  0  0  0  0
   29.2040   28.3190   47.2020 C   0  0  2  0  0  3  0  0  0  0  0  0
   30.4410   28.3600   46.3310 C   0  0  2  0  0  3  0  0  0  0  0  0
   30.8290   27.0460   46.0710 O   0  0  0  0  0  0  0  0  0  0  0  0
   30.0540   26.5760   45.0070 C   0  0  0  0  0  2  0  0  0  0  0  0
   28.5960   26.9350   45.1840 C   0  0  2  0  0  3  0  0  0  0  0  0
   28.2740   27.2690   46.6270 C   0  0  2  0  0  3  0  0  0  0  0  0
   28.5820   29.5630   47.1030 O   0  0  0  0  0  0  0  0  0  0  0  0
   27.8820   29.5080   46.3960 H   0  0  0  0  0  0  0  0  0  0  0  0
   27.8440   25.8120   44.8430 O   0  0  0  0  0  0  0  0  0  0  0  0
   26.8690   25.9630   44.9650 H   0  0  0  0  0  0  0  0  0  0  0  0
   26.9370   27.6620   46.6790 O   0  0  0  0  0  0  0  0  0  0  0  0
   26.7780   28.1830   47.5220 H   0  0  0  0  0  0  0  0  0  0  0  0
  1  5  1  0  0  0  0
  1  6  1  1  0  0  0
  1  2  1  0  0  0  0
  2  7  1  6  0  0  0
  2 12  1  0  0  0  0
  2  3  1  0  0  0  0
  4  9  1  0  0  0  0
  4  8  1  0  0  0  0
  4  3  1  0  0  0  0
  5 10  1  6  0  0  0
  5  4  1  0  0  0  0
 11 14  1  1  0  0  0
 11 13  1  0  0  0  0
 12 15  1  6  0  0  0
 12 11  1  0  0  0  0
 12 13  1  0  0  0  0
 13 16  1  0  0  0  0
 13 17  1  0  0  0  0
 18 11  1  0  0  0  0
 18 19  1  0  0  0  0
 19 24  1  0  0  0  0
 20 19  2  0  0  0  0
 20 25  1  0  0  0  0
 21 20  1  0  0  0  0
 22 23  1  0  0  0  0
 22 21  2  0  0  0  0
 23 18  2  0  0  0  0
 26 22  1  0  0  0  0
 27  1  1  0  0  0  0
 28 27  1  0  0  0  0
 29  5  1  0  0  0  0
 30 36  1  6  0  0  0
 31 29  1  1  0  0  0
 31 30  1  0  0  0  0
 32 31  1  0  0  0  0
 33 34  1  0  0  0  0
 33 32  1  0  0  0  0
 34 38  1  1  0  0  0
 34 35  1  0  0  0  0
 35 40  1  6  0  0  0
 35 30  1  0  0  0  0
 37 36  1  0  0  0  0
 38 39  1  0  0  0  0
 40 41  1  0  0  0  0
M  END
>  <minimizedAffinity>
-5.56152821

>  <minimizedRMSD>
0.717906117

$$$$
