
 OpenBabel03272509583D

 49 52  0  0  1  0  0  0  0  0999 V2000
   33.3180   27.2940   48.2270 C   0  0  0  0  0  0  0  0  0  0  0  0
   33.5560   26.6670   47.3250 H   0  0  0  0  0  0  0  0  0  0  0  0
   33.3420   26.5910   49.0800 H   0  0  0  0  0  0  0  0  0  0  0  0
   31.9450   27.8120   47.9900 C   0  0  0  0  0  0  0  0  0  0  0  0
   30.9710   27.5450   48.9460 C   0  0  0  0  0  0  0  0  0  0  0  0
   29.6850   27.9850   48.8060 C   0  0  0  0  0  0  0  0  0  0  0  0
   29.3540   28.6850   47.7250 N   0  0  0  0  0  0  0  0  0  0  0  0
   30.3110   28.9460   46.7880 C   0  0  0  0  0  0  0  0  0  0  0  0
   31.5820   28.5290   46.8970 N   0  0  0  0  0  0  0  0  0  0  0  0
   31.1930   26.9760   49.8470 H   0  0  0  0  0  0  0  0  0  0  0  0
   28.9360   27.7670   49.5620 H   0  0  0  0  0  0  0  0  0  0  0  0
   29.8900   29.7320   45.6020 C   0  0  0  0  0  0  0  0  0  0  0  0
   29.7260   30.7890   45.8640 H   0  0  0  0  0  0  0  0  0  0  0  0
   30.6270   29.7300   44.7760 H   0  0  0  0  0  0  0  0  0  0  0  0
   27.9990   29.9890   43.9840 C   0  0  2  0  0  3  0  0  0  0  0  0
   28.5460   29.1990   45.1550 C   0  0  1  0  0  3  0  0  0  0  0  0
   28.6240   27.8700   44.7440 O   0  0  0  0  0  0  0  0  0  0  0  0
   27.3640   27.3040   44.9140 C   0  0  0  0  0  2  0  0  0  0  0  0
   26.2540   28.2700   44.5830 C   0  0  1  0  0  3  0  0  0  0  0  0
   26.6910   29.3220   43.5890 C   0  0  1  0  0  3  0  0  0  0  0  0
   28.9290   29.8900   42.9400 O   0  0  0  0  0  0  0  0  0  0  0  0
   28.5580   29.3090   42.2170 H   0  0  0  0  0  0  0  0  0  0  0  0
   25.2320   27.5340   43.9760 O   0  0  0  0  0  0  0  0  0  0  0  0
   24.4630   27.3770   44.6070 H   0  0  0  0  0  0  0  0  0  0  0  0
   25.7080   30.3130   43.6240 O   0  0  0  0  0  0  0  0  0  0  0  0
   25.1310   30.2730   42.8250 H   0  0  0  0  0  0  0  0  0  0  0  0
   34.3450   28.3800   48.2900 C   0  0  0  0  0  0  0  0  0  0  0  0
   34.0740   29.1390   47.5150 H   0  0  0  0  0  0  0  0  0  0  0  0
   35.3730   28.0240   48.0070 H   0  0  0  0  0  0  0  0  0  0  0  0
   34.3450   29.0300   49.5480 O   0  0  0  0  0  0  0  0  0  0  0  0
   37.1500   29.9140   51.6410 C   0  0  0  0  0  0  0  0  0  0  0  0
   37.9650   30.5710   50.6830 C   0  0  0  0  0  0  0  0  0  0  0  0
   37.4950   30.6660   49.3880 C   0  0  0  0  0  0  0  0  0  0  0  0
   36.2750   30.1110   49.1410 N   0  0  0  0  0  0  0  0  0  0  0  0
   35.5140   29.4950   50.0440 C   0  0  0  0  0  0  0  0  0  0  0  0
   35.9680   29.3980   51.3140 N   0  0  0  0  0  0  0  0  0  0  0  0
   37.5770   29.8750   52.6330 H   0  0  0  0  0  0  0  0  0  0  0  0
   38.9230   31.0000   50.9010 H   0  0  0  0  0  0  0  0  0  0  0  0
   38.7660   33.2680   49.3240 F   0  0  0  0  0  0  0  0  0  0  0  0
   38.7910   32.5030   48.2380 C   0  0  0  0  0  0  0  0  0  0  0  0
   38.1960   31.3020   48.2900 C   0  0  0  0  0  0  0  0  0  0  0  0
   38.2760   30.5700   47.0950 C   0  0  0  0  0  0  0  0  0  0  0  0
   38.9100   31.0560   45.9820 C   0  0  0  0  0  0  0  0  0  0  0  0
   39.5050   32.2990   45.9850 C   0  0  0  0  0  0  0  0  0  0  0  0
   39.4340   33.0140   47.1330 C   0  0  0  0  0  0  0  0  0  0  0  0
   37.8380   29.5820   46.9980 H   0  0  0  0  0  0  0  0  0  0  0  0
   38.9600   30.4710   45.0650 H   0  0  0  0  0  0  0  0  0  0  0  0
   40.0100   32.6960   45.1130 H   0  0  0  0  0  0  0  0  0  0  0  0
   39.8970   33.9960   47.1590 H   0  0  0  0  0  0  0  0  0  0  0  0
  1 27  1  0  0  0  0
  1  3  1  0  0  0  0
  2  1  1  0  0  0  0
  4  1  1  0  0  0  0
  4  5  1  0  0  0  0
  5 10  1  0  0  0  0
  6  5  2  0  0  0  0
  6 11  1  0  0  0  0
  7  6  1  0  0  0  0
  8  9  1  0  0  0  0
  8  7  2  0  0  0  0
  9  4  2  0  0  0  0
 12 13  1  0  0  0  0
 12  8  1  0  0  0  0
 14 12  1  0  0  0  0
 15 21  1  6  0  0  0
 15 16  1  0  0  0  0
 16 12  1  6  0  0  0
 17 18  1  0  0  0  0
 17 16  1  0  0  0  0
 19 23  1  6  0  0  0
 19 18  1  0  0  0  0
 20 25  1  1  0  0  0
 20 15  1  0  0  0  0
 20 19  1  0  0  0  0
 22 21  1  0  0  0  0
 23 24  1  0  0  0  0
 26 25  1  0  0  0  0
 27 30  1  0  0  0  0
 28 27  1  0  0  0  0
 29 27  1  0  0  0  0
 30 35  1  0  0  0  0
 31 37  1  0  0  0  0
 32 38  1  0  0  0  0
 32 31  2  0  0  0  0
 33 32  1  0  0  0  0
 34 33  2  0  0  0  0
 34 35  1  0  0  0  0
 35 36  2  0  0  0  0
 36 31  1  0  0  0  0
 40 41  1  0  0  0  0
 40 39  1  0  0  0  0
 41 33  1  0  0  0  0
 42 41  2  0  0  0  0
 43 44  2  0  0  0  0
 43 42  1  0  0  0  0
 44 45  1  0  0  0  0
 45 49  1  0  0  0  0
 45 40  2  0  0  0  0
 46 42  1  0  0  0  0
 47 43  1  0  0  0  0
 48 44  1  0  0  0  0
M  END
>  <minimizedAffinity>
-6.82149172

>  <minimizedRMSD>
1.16051269

$$$$
