
 OpenBabel03262521433D

 33 35  0  0  1  0  0  0  0  0999 V2000
   38.8750   23.0010   33.3900 C   0  0  1  0  0  0  0  0  0  0  0  0
   38.5430   21.9260   34.4340 C   0  0  2  0  0  0  0  0  0  0  0  0
   37.0830   21.8000   34.0560 C   0  0  0  0  0  0  0  0  0  0  0  0
   37.0650   21.7350   32.6740 O   0  0  0  0  0  0  0  0  0  0  0  0
   38.1930   22.3340   32.1840 C   0  0  0  0  0  0  0  0  0  0  0  0
   39.9650   23.0110   33.2850 H   0  0  0  0  0  0  0  0  0  0  0  0
   39.1510   21.0590   34.1530 H   0  0  0  0  0  0  0  0  0  0  0  0
   36.5440   22.6900   34.3790 H   0  0  0  0  0  0  0  0  0  0  0  0
   36.6810   20.8690   34.5180 H   0  0  0  0  0  0  0  0  0  0  0  0
   38.8930   21.6720   31.6500 H   0  0  0  0  0  0  0  0  0  0  0  0
   37.8350   23.1270   31.4660 H   0  0  0  0  0  0  0  0  0  0  0  0
   38.7720   22.3960   35.8070 C   0  0  0  0  0  0  0  0  0  0  0  0
   40.0240   22.2160   36.4100 C   0  0  0  0  0  0  0  0  0  0  0  0
   40.1720   22.6630   37.7270 C   0  0  0  0  0  0  0  0  0  0  0  0
   39.1020   23.2410   38.3430 N   0  0  0  0  0  0  0  0  0  0  0  0
   37.8870   23.4040   37.7260 C   0  0  0  0  0  0  0  0  0  0  0  0
   37.7400   22.9720   36.4500 N   0  0  0  0  0  0  0  0  0  0  0  0
   40.8480   21.7510   35.8860 H   0  0  0  0  0  0  0  0  0  0  0  0
   41.1070   22.5590   38.2580 H   0  0  0  0  0  0  0  0  0  0  0  0
   37.0940   23.8740   38.2920 H   0  0  0  0  0  0  0  0  0  0  0  0
   38.2620   24.1780   33.6050 O   0  0  0  0  0  0  0  0  0  0  0  0
   37.8740   26.4960   33.0500 C   0  0  1  0  0  3  0  0  0  0  0  0
   38.7750   25.2910   33.0040 C   0  0  1  0  0  3  0  0  0  0  0  0
   40.0010   25.6780   33.5910 O   0  0  0  0  0  0  0  0  0  0  0  0
   39.8010   25.9940   34.9280 C   0  0  0  0  0  2  0  0  0  0  0  0
   38.9750   27.2550   35.0880 C   0  0  1  0  0  3  0  0  0  0  0  0
   37.6300   26.9520   34.4730 C   0  0  2  0  0  3  0  0  0  0  0  0
   38.4970   27.5140   32.3300 O   0  0  0  0  0  0  0  0  0  0  0  0
   39.2140   27.1590   31.7270 H   0  0  0  0  0  0  0  0  0  0  0  0
   38.8000   27.6020   36.4100 O   0  0  0  0  0  0  0  0  0  0  0  0
   38.3650   28.5040   36.3960 H   0  0  0  0  0  0  0  0  0  0  0  0
   36.9960   25.8980   35.1420 O   0  0  0  0  0  0  0  0  0  0  0  0
   36.2910   25.4900   34.6080 H   0  0  0  0  0  0  0  0  0  0  0  0
  1  6  1  6  0  0  0
  1 21  1  0  0  0  0
  1  2  1  0  0  0  0
  2  7  1  6  0  0  0
  2 12  1  0  0  0  0
  3  8  1  0  0  0  0
  3  2  1  0  0  0  0
  3  9  1  0  0  0  0
  4  3  1  0  0  0  0
  5  4  1  0  0  0  0
  5  1  1  0  0  0  0
 10  5  1  0  0  0  0
 11  5  1  0  0  0  0
 12 13  2  0  0  0  0
 12 17  1  0  0  0  0
 13 14  1  0  0  0  0
 14 19  1  0  0  0  0
 14 15  2  0  0  0  0
 16 20  1  0  0  0  0
 16 15  1  0  0  0  0
 17 16  2  0  0  0  0
 18 13  1  0  0  0  0
 22 28  1  6  0  0  0
 22 27  1  0  0  0  0
 23 22  1  0  0  0  0
 23 24  1  0  0  0  0
 23 21  1  1  0  0  0
 24 25  1  0  0  0  0
 25 26  1  0  0  0  0
 26 30  1  1  0  0  0
 27 26  1  0  0  0  0
 27 32  1  1  0  0  0
 29 28  1  0  0  0  0
 31 30  1  0  0  0  0
 33 32  1  0  0  0  0
M  END
>  <minimizedAffinity>
-5.16269922

$$$$

 OpenBabel03262521433D

 33 35  0  0  1  0  0  0  0  0999 V2000
   38.2240   23.5110   36.6280 C   0  0  1  0  0  0  0  0  0  0  0  0
   38.7280   22.1690   36.0780 C   0  0  2  0  0  0  0  0  0  0  0  0
   40.1320   22.3040   36.6250 C   0  0  0  0  0  0  0  0  0  0  0  0
   39.9790   22.7310   37.9330 O   0  0  0  0  0  0  0  0  0  0  0  0
   38.7750   23.3690   38.0560 C   0  0  0  0  0  0  0  0  0  0  0  0
   37.1300   23.4680   36.6080 H   0  0  0  0  0  0  0  0  0  0  0  0
   38.1240   21.4090   36.5880 H   0  0  0  0  0  0  0  0  0  0  0  0
   40.6720   23.0650   36.0620 H   0  0  0  0  0  0  0  0  0  0  0  0
   40.6260   21.3060   36.5720 H   0  0  0  0  0  0  0  0  0  0  0  0
   38.0400   22.8820   38.7170 H   0  0  0  0  0  0  0  0  0  0  0  0
   39.0080   24.3900   38.4740 H   0  0  0  0  0  0  0  0  0  0  0  0
   38.6550   22.1060   34.6130 C   0  0  0  0  0  0  0  0  0  0  0  0
   39.8310   22.0820   33.8520 C   0  0  0  0  0  0  0  0  0  0  0  0
   39.6950   22.0460   32.4610 C   0  0  0  0  0  0  0  0  0  0  0  0
   38.4400   22.0370   31.9280 N   0  0  0  0  0  0  0  0  0  0  0  0
   37.3050   22.0620   32.7000 C   0  0  0  0  0  0  0  0  0  0  0  0
   37.4330   22.0970   34.0480 N   0  0  0  0  0  0  0  0  0  0  0  0
   40.8080   22.0910   34.3140 H   0  0  0  0  0  0  0  0  0  0  0  0
   40.5560   22.0260   31.8080 H   0  0  0  0  0  0  0  0  0  0  0  0
   36.3510   22.0520   32.1910 H   0  0  0  0  0  0  0  0  0  0  0  0
   38.8120   24.5830   36.0680 O   0  0  0  0  0  0  0  0  0  0  0  0
   38.8540   26.9950   35.9370 C   0  0  1  0  0  3  0  0  0  0  0  0
   38.0640   25.7130   35.9010 C   0  0  1  0  0  3  0  0  0  0  0  0
   37.3720   25.6980   34.6690 O   0  0  0  0  0  0  0  0  0  0  0  0
   38.2820   25.6530   33.6210 C   0  0  0  0  0  2  0  0  0  0  0  0
   39.0730   26.9420   33.5100 C   0  0  1  0  0  3  0  0  0  0  0  0
   39.8500   27.0660   34.7990 C   0  0  2  0  0  3  0  0  0  0  0  0
   37.9480   28.0500   35.8360 O   0  0  0  0  0  0  0  0  0  0  0  0
   37.0140   27.7590   36.0510 H   0  0  0  0  0  0  0  0  0  0  0  0
   39.9540   26.9260   32.4510 O   0  0  0  0  0  0  0  0  0  0  0  0
   40.3180   27.8570   32.3910 H   0  0  0  0  0  0  0  0  0  0  0  0
   40.7360   25.9930   34.9580 O   0  0  0  0  0  0  0  0  0  0  0  0
   41.0230   25.8820   35.8810 H   0  0  0  0  0  0  0  0  0  0  0  0
  1  6  1  6  0  0  0
  1  5  1  0  0  0  0
  2  7  1  1  0  0  0
  2  3  1  0  0  0  0
  2  1  1  0  0  0  0
  3  4  1  0  0  0  0
  4  5  1  0  0  0  0
  5 11  1  0  0  0  0
  5 10  1  0  0  0  0
  8  3  1  0  0  0  0
  9  3  1  0  0  0  0
 12  2  1  0  0  0  0
 13 18  1  0  0  0  0
 13 12  2  0  0  0  0
 14 13  1  0  0  0  0
 15 14  2  0  0  0  0
 15 16  1  0  0  0  0
 16 17  2  0  0  0  0
 17 12  1  0  0  0  0
 19 14  1  0  0  0  0
 20 16  1  0  0  0  0
 21  1  1  0  0  0  0
 22 28  1  6  0  0  0
 23 22  1  0  0  0  0
 23 21  1  6  0  0  0
 24 23  1  0  0  0  0
 25 24  1  0  0  0  0
 26 30  1  6  0  0  0
 26 25  1  0  0  0  0
 26 27  1  0  0  0  0
 27 32  1  1  0  0  0
 27 22  1  0  0  0  0
 28 29  1  0  0  0  0
 31 30  1  0  0  0  0
 32 33  1  0  0  0  0
M  END
>  <minimizedAffinity>
-4.999331

$$$$

 OpenBabel03262521433D

 33 35  0  0  1  0  0  0  0  0999 V2000
   37.9470   23.4160   36.2450 C   0  0  1  0  0  0  0  0  0  0  0  0
   38.4610   22.0410   35.7980 C   0  0  2  0  0  0  0  0  0  0  0  0
   39.8870   22.2610   36.2540 C   0  0  0  0  0  0  0  0  0  0  0  0
   39.7880   22.8070   37.5220 O   0  0  0  0  0  0  0  0  0  0  0  0
   38.5740   23.4250   37.6490 C   0  0  0  0  0  0  0  0  0  0  0  0
   36.8550   23.3450   36.2890 H   0  0  0  0  0  0  0  0  0  0  0  0
   37.9070   21.3180   36.4080 H   0  0  0  0  0  0  0  0  0  0  0  0
   40.3750   22.9780   35.5940 H   0  0  0  0  0  0  0  0  0  0  0  0
   40.4070   21.2750   36.2690 H   0  0  0  0  0  0  0  0  0  0  0  0
   37.8880   22.9840   38.3910 H   0  0  0  0  0  0  0  0  0  0  0  0
   38.7980   24.4860   37.9570 H   0  0  0  0  0  0  0  0  0  0  0  0
   38.3150   21.8370   34.3510 C   0  0  0  0  0  0  0  0  0  0  0  0
   37.0790   21.4460   33.8180 C   0  0  0  0  0  0  0  0  0  0  0  0
   37.0110   21.2450   32.4370 C   0  0  0  0  0  0  0  0  0  0  0  0
   38.1380   21.4360   31.6930 N   0  0  0  0  0  0  0  0  0  0  0  0
   39.3350   21.8180   32.2440 C   0  0  0  0  0  0  0  0  0  0  0  0
   39.4060   22.0150   33.5820 N   0  0  0  0  0  0  0  0  0  0  0  0
   36.2090   21.3050   34.4440 H   0  0  0  0  0  0  0  0  0  0  0  0
   36.0920   20.9430   31.9530 H   0  0  0  0  0  0  0  0  0  0  0  0
   40.1770   21.9460   31.5770 H   0  0  0  0  0  0  0  0  0  0  0  0
   38.4740   24.4440   35.5580 O   0  0  0  0  0  0  0  0  0  0  0  0
   39.1700   26.7520   35.7220 C   0  0  1  0  0  3  0  0  0  0  0  0
   38.0970   25.7100   35.9020 C   0  0  1  0  0  3  0  0  0  0  0  0
   36.9820   26.1420   35.1490 O   0  0  0  0  0  0  0  0  0  0  0  0
   37.3100   26.1680   33.8000 C   0  0  0  0  0  2  0  0  0  0  0  0
   38.3240   27.2520   33.4910 C   0  0  1  0  0  3  0  0  0  0  0  0
   39.5680   26.8920   34.2680 C   0  0  2  0  0  3  0  0  0  0  0  0
   38.6630   27.9630   36.1900 O   0  0  0  0  0  0  0  0  0  0  0  0
   37.8650   27.8290   36.7800 H   0  0  0  0  0  0  0  0  0  0  0  0
   38.6310   27.3150   32.1500 O   0  0  0  0  0  0  0  0  0  0  0  0
   39.1940   28.1360   32.0410 H   0  0  0  0  0  0  0  0  0  0  0  0
   40.0770   25.6540   33.8570 O   0  0  0  0  0  0  0  0  0  0  0  0
   40.6780   25.2620   34.5160 H   0  0  0  0  0  0  0  0  0  0  0  0
  1  6  1  1  0  0  0
  1  5  1  0  0  0  0
  2  1  1  0  0  0  0
  2  3  1  0  0  0  0
  2  7  1  1  0  0  0
  3  9  1  0  0  0  0
  3  4  1  0  0  0  0
  4  5  1  0  0  0  0
  5 11  1  0  0  0  0
  5 10  1  0  0  0  0
  8  3  1  0  0  0  0
 12  2  1  0  0  0  0
 13 12  1  0  0  0  0
 13 18  1  0  0  0  0
 14 13  2  0  0  0  0
 15 16  2  0  0  0  0
 15 14  1  0  0  0  0
 16 17  1  0  0  0  0
 17 12  2  0  0  0  0
 19 14  1  0  0  0  0
 20 16  1  0  0  0  0
 21  1  1  0  0  0  0
 22 23  1  0  0  0  0
 22 28  1  6  0  0  0
 23 21  1  6  0  0  0
 24 23  1  0  0  0  0
 25 24  1  0  0  0  0
 26 30  1  6  0  0  0
 26 25  1  0  0  0  0
 26 27  1  0  0  0  0
 27 32  1  6  0  0  0
 27 22  1  0  0  0  0
 28 29  1  0  0  0  0
 31 30  1  0  0  0  0
 32 33  1  0  0  0  0
M  END
>  <minimizedAffinity>
-4.99140358

$$$$

 OpenBabel03262521433D

 33 35  0  0  1  0  0  0  0  0999 V2000
   39.0960   26.3420   34.5290 C   0  0  1  0  0  0  0  0  0  0  0  0
   38.1950   26.9110   33.4250 C   0  0  2  0  0  0  0  0  0  0  0  0
   37.0230   27.2140   34.3340 C   0  0  0  0  0  0  0  0  0  0  0  0
   37.5690   27.8310   35.4460 O   0  0  0  0  0  0  0  0  0  0  0  0
   38.8780   27.4540   35.5680 C   0  0  0  0  0  0  0  0  0  0  0  0
   40.1180   26.3490   34.1350 H   0  0  0  0  0  0  0  0  0  0  0  0
   38.7170   27.8040   33.0630 H   0  0  0  0  0  0  0  0  0  0  0  0
   36.5480   26.2820   34.6400 H   0  0  0  0  0  0  0  0  0  0  0  0
   36.3220   27.8890   33.7900 H   0  0  0  0  0  0  0  0  0  0  0  0
   39.6210   28.2590   35.4470 H   0  0  0  0  0  0  0  0  0  0  0  0
   38.9820   27.0280   36.6060 H   0  0  0  0  0  0  0  0  0  0  0  0
   37.9060   25.9230   32.3780 C   0  0  0  0  0  0  0  0  0  0  0  0
   36.6010   25.4400   32.2100 C   0  0  0  0  0  0  0  0  0  0  0  0
   36.3960   24.4820   31.2120 C   0  0  0  0  0  0  0  0  0  0  0  0
   37.4640   24.0750   30.4680 N   0  0  0  0  0  0  0  0  0  0  0  0
   38.7310   24.5660   30.6570 C   0  0  0  0  0  0  0  0  0  0  0  0
   38.9350   25.4940   31.6230 N   0  0  0  0  0  0  0  0  0  0  0  0
   35.7810   25.7890   32.8210 H   0  0  0  0  0  0  0  0  0  0  0  0
   35.4170   24.0630   31.0220 H   0  0  0  0  0  0  0  0  0  0  0  0
   39.5180   24.1860   30.0210 H   0  0  0  0  0  0  0  0  0  0  0  0
   38.6460   25.1930   35.0620 O   0  0  0  0  0  0  0  0  0  0  0  0
   39.5980   23.4540   36.4410 C   0  0  1  0  0  3  0  0  0  0  0  0
   39.4930   24.1230   35.0970 C   0  0  1  0  0  3  0  0  0  0  0  0
   39.1040   23.1250   34.1750 O   0  0  0  0  0  0  0  0  0  0  0  0
   37.8400   22.6530   34.5020 C   0  0  0  0  0  2  0  0  0  0  0  0
   37.8510   21.8780   35.8050 C   0  0  1  0  0  3  0  0  0  0  0  0
   38.2730   22.8610   36.8710 C   0  0  2  0  0  3  0  0  0  0  0  0
   40.5530   22.4440   36.3340 O   0  0  0  0  0  0  0  0  0  0  0  0
   41.1390   22.5690   35.5320 H   0  0  0  0  0  0  0  0  0  0  0  0
   36.6100   21.3710   36.1240 O   0  0  0  0  0  0  0  0  0  0  0  0
   36.7580   20.7760   36.9150 H   0  0  0  0  0  0  0  0  0  0  0  0
   37.3600   23.9180   36.9710 O   0  0  0  0  0  0  0  0  0  0  0  0
   37.7400   24.6960   37.4160 H   0  0  0  0  0  0  0  0  0  0  0  0
  1  6  1  6  0  0  0
  1 21  1  0  0  0  0
  1  5  1  0  0  0  0
  2  7  1  6  0  0  0
  2  3  1  0  0  0  0
  2  1  1  0  0  0  0
  3  8  1  0  0  0  0
  3  4  1  0  0  0  0
  4  5  1  0  0  0  0
  5 11  1  0  0  0  0
  9  3  1  0  0  0  0
 10  5  1  0  0  0  0
 12  2  1  0  0  0  0
 13 12  1  0  0  0  0
 13 18  1  0  0  0  0
 14 13  2  0  0  0  0
 15 16  2  0  0  0  0
 15 14  1  0  0  0  0
 16 17  1  0  0  0  0
 17 12  2  0  0  0  0
 19 14  1  0  0  0  0
 20 16  1  0  0  0  0
 22 28  1  6  0  0  0
 22 27  1  0  0  0  0
 23 21  1  1  0  0  0
 23 22  1  0  0  0  0
 24 25  1  0  0  0  0
 24 23  1  0  0  0  0
 25 26  1  0  0  0  0
 26 30  1  1  0  0  0
 26 27  1  0  0  0  0
 27 32  1  6  0  0  0
 29 28  1  0  0  0  0
 30 31  1  0  0  0  0
 32 33  1  0  0  0  0
M  END
>  <minimizedAffinity>
-4.79801989

$$$$

 OpenBabel03262521433D

 33 35  0  0  1  0  0  0  0  0999 V2000
   38.4420   23.4160   36.2260 C   0  0  1  0  0  0  0  0  0  0  0  0
   39.4480   22.2720   36.4150 C   0  0  2  0  0  0  0  0  0  0  0  0
   39.9780   22.7610   37.7460 C   0  0  0  0  0  0  0  0  0  0  0  0
   38.8580   23.0950   38.4880 O   0  0  0  0  0  0  0  0  0  0  0  0
   37.8290   23.3870   37.6360 C   0  0  0  0  0  0  0  0  0  0  0  0
   37.7280   23.0840   35.4650 H   0  0  0  0  0  0  0  0  0  0  0  0
   38.8360   21.3650   36.4870 H   0  0  0  0  0  0  0  0  0  0  0  0
   40.5840   23.6530   37.5930 H   0  0  0  0  0  0  0  0  0  0  0  0
   40.5530   21.9320   38.2200 H   0  0  0  0  0  0  0  0  0  0  0  0
   36.9650   22.7030   37.6760 H   0  0  0  0  0  0  0  0  0  0  0  0
   37.4780   24.4200   37.9170 H   0  0  0  0  0  0  0  0  0  0  0  0
   40.4520   22.2330   35.3440 C   0  0  0  0  0  0  0  0  0  0  0  0
   41.8000   22.4780   35.6370 C   0  0  0  0  0  0  0  0  0  0  0  0
   42.7040   22.4500   34.5710 C   0  0  0  0  0  0  0  0  0  0  0  0
   42.2290   22.1890   33.3200 N   0  0  0  0  0  0  0  0  0  0  0  0
   40.9020   21.9520   33.0630 C   0  0  0  0  0  0  0  0  0  0  0  0
   40.0220   21.9790   34.0940 N   0  0  0  0  0  0  0  0  0  0  0  0
   42.1370   22.6820   36.6440 H   0  0  0  0  0  0  0  0  0  0  0  0
   43.7600   22.6290   34.7180 H   0  0  0  0  0  0  0  0  0  0  0  0
   40.6140   21.7540   32.0400 H   0  0  0  0  0  0  0  0  0  0  0  0
   39.0140   24.6210   36.0560 O   0  0  0  0  0  0  0  0  0  0  0  0
   38.9130   27.0300   35.8980 C   0  0  1  0  0  3  0  0  0  0  0  0
   38.1990   25.7040   35.8920 C   0  0  1  0  0  3  0  0  0  0  0  0
   37.4830   25.6340   34.6760 O   0  0  0  0  0  0  0  0  0  0  0  0
   38.3720   25.6300   33.6090 C   0  0  0  0  0  2  0  0  0  0  0  0
   39.0840   26.9610   33.4680 C   0  0  1  0  0  3  0  0  0  0  0  0
   39.8790   27.1450   34.7380 C   0  0  2  0  0  3  0  0  0  0  0  0
   37.9450   28.0290   35.8060 O   0  0  0  0  0  0  0  0  0  0  0  0
   37.0340   27.6870   36.0430 H   0  0  0  0  0  0  0  0  0  0  0  0
   39.9420   26.9840   32.3910 O   0  0  0  0  0  0  0  0  0  0  0  0
   40.2500   27.9340   32.3130 H   0  0  0  0  0  0  0  0  0  0  0  0
   40.8290   26.1280   34.8900 O   0  0  0  0  0  0  0  0  0  0  0  0
   41.1410   26.0440   35.8080 H   0  0  0  0  0  0  0  0  0  0  0  0
  1  6  1  6  0  0  0
  1  2  1  0  0  0  0
  1  5  1  0  0  0  0
  2  7  1  1  0  0  0
  2  3  1  0  0  0  0
  3  9  1  0  0  0  0
  3  4  1  0  0  0  0
  5 10  1  0  0  0  0
  5 11  1  0  0  0  0
  5  4  1  0  0  0  0
  8  3  1  0  0  0  0
 12 13  1  0  0  0  0
 12  2  1  0  0  0  0
 13 18  1  0  0  0  0
 14 19  1  0  0  0  0
 14 13  2  0  0  0  0
 15 14  1  0  0  0  0
 16 15  2  0  0  0  0
 16 17  1  0  0  0  0
 17 12  2  0  0  0  0
 20 16  1  0  0  0  0
 21  1  1  0  0  0  0
 22 28  1  6  0  0  0
 23 22  1  0  0  0  0
 23 21  1  6  0  0  0
 24 23  1  0  0  0  0
 25 24  1  0  0  0  0
 26 30  1  6  0  0  0
 26 25  1  0  0  0  0
 26 27  1  0  0  0  0
 27 32  1  1  0  0  0
 27 22  1  0  0  0  0
 28 29  1  0  0  0  0
 31 30  1  0  0  0  0
 32 33  1  0  0  0  0
M  END
>  <minimizedAffinity>
-4.78898239

$$$$

 OpenBabel03262521433D

 33 35  0  0  1  0  0  0  0  0999 V2000
   38.4330   24.5980   31.9560 C   0  0  1  0  0  0  0  0  0  0  0  0
   37.2030   24.2750   31.0980 C   0  0  2  0  0  0  0  0  0  0  0  0
   36.2690   25.2250   31.8170 C   0  0  0  0  0  0  0  0  0  0  0  0
   36.9770   26.4060   31.9510 O   0  0  0  0  0  0  0  0  0  0  0  0
   38.3160   26.1310   31.9170 C   0  0  0  0  0  0  0  0  0  0  0  0
   39.3070   24.2440   31.4000 H   0  0  0  0  0  0  0  0  0  0  0  0
   37.4700   24.5980   30.0850 H   0  0  0  0  0  0  0  0  0  0  0  0
   36.0390   24.8310   32.8070 H   0  0  0  0  0  0  0  0  0  0  0  0
   35.3560   25.3590   31.1910 H   0  0  0  0  0  0  0  0  0  0  0  0
   38.8690   26.5480   31.0600 H   0  0  0  0  0  0  0  0  0  0  0  0
   38.7450   26.5680   32.8630 H   0  0  0  0  0  0  0  0  0  0  0  0
   36.8150   22.8620   31.1920 C   0  0  0  0  0  0  0  0  0  0  0  0
   35.5800   22.5080   31.7510 C   0  0  0  0  0  0  0  0  0  0  0  0
   35.2800   21.1450   31.8340 C   0  0  0  0  0  0  0  0  0  0  0  0
   36.1950   20.2460   31.3730 N   0  0  0  0  0  0  0  0  0  0  0  0
   37.3980   20.6230   30.8310 C   0  0  0  0  0  0  0  0  0  0  0  0
   37.6930   21.9430   30.7480 N   0  0  0  0  0  0  0  0  0  0  0  0
   34.8810   23.2530   32.1060 H   0  0  0  0  0  0  0  0  0  0  0  0
   34.3460   20.7960   32.2530 H   0  0  0  0  0  0  0  0  0  0  0  0
   38.0640   19.8410   30.4900 H   0  0  0  0  0  0  0  0  0  0  0  0
   38.3180   24.2140   33.2400 O   0  0  0  0  0  0  0  0  0  0  0  0
   39.8720   23.9660   35.0720 C   0  0  1  0  0  3  0  0  0  0  0  0
   39.3130   23.4470   33.7740 C   0  0  1  0  0  3  0  0  0  0  0  0
   38.8740   22.1270   34.0200 O   0  0  0  0  0  0  0  0  0  0  0  0
   37.8350   22.1430   34.9410 C   0  0  0  0  0  2  0  0  0  0  0  0
   38.3110   22.5680   36.3160 C   0  0  1  0  0  3  0  0  0  0  0  0
   38.8220   23.9800   36.1630 C   0  0  2  0  0  3  0  0  0  0  0  0
   40.9240   23.1290   35.4420 O   0  0  0  0  0  0  0  0  0  0  0  0
   41.2530   22.5820   34.6700 H   0  0  0  0  0  0  0  0  0  0  0  0
   37.2980   22.5530   37.2490 O   0  0  0  0  0  0  0  0  0  0  0  0
   37.7420   22.7150   38.1320 H   0  0  0  0  0  0  0  0  0  0  0  0
   37.8010   24.8420   35.7420 O   0  0  0  0  0  0  0  0  0  0  0  0
   38.1470   25.6660   35.3550 H   0  0  0  0  0  0  0  0  0  0  0  0
  1  6  1  6  0  0  0
  1 21  1  0  0  0  0
  2  7  1  6  0  0  0
  2 12  1  0  0  0  0
  2  3  1  0  0  0  0
  2  1  1  0  0  0  0
  3  4  1  0  0  0  0
  3  8  1  0  0  0  0
  5  4  1  0  0  0  0
  5  1  1  0  0  0  0
  5 11  1  0  0  0  0
  9  3  1  0  0  0  0
 10  5  1  0  0  0  0
 12 13  1  0  0  0  0
 13 14  2  0  0  0  0
 13 18  1  0  0  0  0
 14 19  1  0  0  0  0
 15 14  1  0  0  0  0
 16 15  2  0  0  0  0
 17 16  1  0  0  0  0
 17 12  2  0  0  0  0
 20 16  1  0  0  0  0
 22 28  1  1  0  0  0
 22 27  1  0  0  0  0
 23 21  1  1  0  0  0
 23 24  1  0  0  0  0
 23 22  1  0  0  0  0
 24 25  1  0  0  0  0
 25 26  1  0  0  0  0
 26 30  1  1  0  0  0
 27 32  1  6  0  0  0
 27 26  1  0  0  0  0
 29 28  1  0  0  0  0
 30 31  1  0  0  0  0
 33 32  1  0  0  0  0
M  END
>  <minimizedAffinity>
-4.67094707

$$$$

 OpenBabel03262521433D

 33 35  0  0  1  0  0  0  0  0999 V2000
   40.2370   24.1330   33.6520 C   0  0  1  0  0  0  0  0  0  0  0  0
   40.2010   25.3700   32.7450 C   0  0  2  0  0  0  0  0  0  0  0  0
   41.1230   26.2080   33.6040 C   0  0  0  0  0  0  0  0  0  0  0  0
   42.1780   25.3750   33.9330 O   0  0  0  0  0  0  0  0  0  0  0  0
   41.7590   24.0750   33.8620 C   0  0  0  0  0  0  0  0  0  0  0  0
   39.8780   23.2920   33.0490 H   0  0  0  0  0  0  0  0  0  0  0  0
   40.6500   25.0440   31.8000 H   0  0  0  0  0  0  0  0  0  0  0  0
   40.6040   26.5050   34.5150 H   0  0  0  0  0  0  0  0  0  0  0  0
   41.4620   27.0840   33.0030 H   0  0  0  0  0  0  0  0  0  0  0  0
   42.2420   23.4580   33.0870 H   0  0  0  0  0  0  0  0  0  0  0  0
   41.9840   23.6220   34.8700 H   0  0  0  0  0  0  0  0  0  0  0  0
   38.8450   25.9170   32.6050 C   0  0  0  0  0  0  0  0  0  0  0  0
   38.5290   27.1620   33.1670 C   0  0  0  0  0  0  0  0  0  0  0  0
   37.2150   27.6170   33.0190 C   0  0  0  0  0  0  0  0  0  0  0  0
   36.3250   26.8330   32.3460 N   0  0  0  0  0  0  0  0  0  0  0  0
   36.6640   25.6180   31.8070 C   0  0  0  0  0  0  0  0  0  0  0  0
   37.9370   25.1730   31.9470 N   0  0  0  0  0  0  0  0  0  0  0  0
   39.2650   27.7520   33.6940 H   0  0  0  0  0  0  0  0  0  0  0  0
   36.8960   28.5670   33.4250 H   0  0  0  0  0  0  0  0  0  0  0  0
   35.8930   25.0640   31.2890 H   0  0  0  0  0  0  0  0  0  0  0  0
   39.6660   24.3210   34.8540 O   0  0  0  0  0  0  0  0  0  0  0  0
   38.8210   22.2780   35.8270 C   0  0  1  0  0  3  0  0  0  0  0  0
   38.5480   23.5990   35.1570 C   0  0  1  0  0  3  0  0  0  0  0  0
   37.6840   24.3180   36.0140 O   0  0  0  0  0  0  0  0  0  0  0  0
   38.3300   24.5880   37.2120 C   0  0  0  0  0  2  0  0  0  0  0  0
   38.5740   23.3250   38.0150 C   0  0  1  0  0  3  0  0  0  0  0  0
   39.4880   22.4670   37.1730 C   0  0  2  0  0  3  0  0  0  0  0  0
   37.5980   21.6310   35.9950 O   0  0  0  0  0  0  0  0  0  0  0  0
   36.8880   22.0190   35.4040 H   0  0  0  0  0  0  0  0  0  0  0  0
   39.1820   23.5820   39.2240 O   0  0  0  0  0  0  0  0  0  0  0  0
   39.1720   22.7120   39.7200 H   0  0  0  0  0  0  0  0  0  0  0  0
   40.7110   23.1090   36.9430 O   0  0  0  0  0  0  0  0  0  0  0  0
   41.1900   22.7330   36.1830 H   0  0  0  0  0  0  0  0  0  0  0  0
  1  6  1  6  0  0  0
  1  5  1  0  0  0  0
  1 21  1  0  0  0  0
  2  7  1  6  0  0  0
  2  3  1  0  0  0  0
  2  1  1  0  0  0  0
  3  4  1  0  0  0  0
  3  8  1  0  0  0  0
  5  4  1  0  0  0  0
  5 11  1  0  0  0  0
  9  3  1  0  0  0  0
 10  5  1  0  0  0  0
 12  2  1  0  0  0  0
 12 13  1  0  0  0  0
 13 18  1  0  0  0  0
 14 13  2  0  0  0  0
 14 19  1  0  0  0  0
 15 14  1  0  0  0  0
 16 17  1  0  0  0  0
 16 15  2  0  0  0  0
 17 12  2  0  0  0  0
 20 16  1  0  0  0  0
 22 28  1  1  0  0  0
 22 27  1  0  0  0  0
 23 21  1  1  0  0  0
 23 22  1  0  0  0  0
 23 24  1  0  0  0  0
 24 25  1  0  0  0  0
 25 26  1  0  0  0  0
 26 30  1  1  0  0  0
 27 32  1  6  0  0  0
 27 26  1  0  0  0  0
 29 28  1  0  0  0  0
 30 31  1  0  0  0  0
 33 32  1  0  0  0  0
M  END
>  <minimizedAffinity>
-4.65403986

$$$$

 OpenBabel03262521433D

 33 35  0  0  1  0  0  0  0  0999 V2000
   37.9730   23.5890   31.8690 C   0  0  1  0  0  0  0  0  0  0  0  0
   36.7920   22.9590   31.1190 C   0  0  2  0  0  0  0  0  0  0  0  0
   35.7630   23.9590   31.5980 C   0  0  0  0  0  0  0  0  0  0  0  0
   36.3560   25.2000   31.4440 O   0  0  0  0  0  0  0  0  0  0  0  0
   37.7160   25.0510   31.4680 C   0  0  0  0  0  0  0  0  0  0  0  0
   38.8850   23.1960   31.4070 H   0  0  0  0  0  0  0  0  0  0  0  0
   37.0450   23.0560   30.0570 H   0  0  0  0  0  0  0  0  0  0  0  0
   35.5540   23.7920   32.6550 H   0  0  0  0  0  0  0  0  0  0  0  0
   34.8520   23.8560   30.9630 H   0  0  0  0  0  0  0  0  0  0  0  0
   38.2410   25.3030   30.5330 H   0  0  0  0  0  0  0  0  0  0  0  0
   38.0880   25.7370   32.2810 H   0  0  0  0  0  0  0  0  0  0  0  0
   36.5360   21.5780   31.5480 C   0  0  0  0  0  0  0  0  0  0  0  0
   35.3170   21.2460   32.1560 C   0  0  0  0  0  0  0  0  0  0  0  0
   35.1430   19.9200   32.5630 C   0  0  0  0  0  0  0  0  0  0  0  0
   36.1570   19.0340   32.3500 N   0  0  0  0  0  0  0  0  0  0  0  0
   37.3400   19.3880   31.7520 C   0  0  0  0  0  0  0  0  0  0  0  0
   37.5130   20.6720   31.3560 N   0  0  0  0  0  0  0  0  0  0  0  0
   34.5380   21.9800   32.3060 H   0  0  0  0  0  0  0  0  0  0  0  0
   34.2300   19.5890   33.0380 H   0  0  0  0  0  0  0  0  0  0  0  0
   38.0890   18.6180   31.6240 H   0  0  0  0  0  0  0  0  0  0  0  0
   37.8740   23.5100   33.2070 O   0  0  0  0  0  0  0  0  0  0  0  0
   38.0340   24.5860   35.3640 C   0  0  1  0  0  3  0  0  0  0  0  0
   38.5510   24.4260   33.9590 C   0  0  1  0  0  3  0  0  0  0  0  0
   39.9210   24.0960   34.0660 O   0  0  0  0  0  0  0  0  0  0  0  0
   40.0590   22.8680   34.7000 C   0  0  0  0  0  2  0  0  0  0  0  0
   39.6490   22.9410   36.1570 C   0  0  1  0  0  3  0  0  0  0  0  0
   38.1840   23.3060   36.1590 C   0  0  2  0  0  3  0  0  0  0  0  0
   38.7690   25.6040   35.9700 O   0  0  0  0  0  0  0  0  0  0  0  0
   39.2410   26.1740   35.2950 H   0  0  0  0  0  0  0  0  0  0  0  0
   39.8150   21.7380   36.8080 O   0  0  0  0  0  0  0  0  0  0  0  0
   39.6460   21.9310   37.7760 H   0  0  0  0  0  0  0  0  0  0  0  0
   37.4190   22.3260   35.5130 O   0  0  0  0  0  0  0  0  0  0  0  0
   36.5460   22.6580   35.2380 H   0  0  0  0  0  0  0  0  0  0  0  0
  1  6  1  6  0  0  0
  1 21  1  0  0  0  0
  2  7  1  6  0  0  0
  2 12  1  0  0  0  0
  2  3  1  0  0  0  0
  2  1  1  0  0  0  0
  3  8  1  0  0  0  0
  4  5  1  0  0  0  0
  4  3  1  0  0  0  0
  5  1  1  0  0  0  0
  5 11  1  0  0  0  0
  9  3  1  0  0  0  0
 10  5  1  0  0  0  0
 12 13  1  0  0  0  0
 13 18  1  0  0  0  0
 13 14  2  0  0  0  0
 14 19  1  0  0  0  0
 15 14  1  0  0  0  0
 16 15  2  0  0  0  0
 17 12  2  0  0  0  0
 17 16  1  0  0  0  0
 20 16  1  0  0  0  0
 22 28  1  1  0  0  0
 22 27  1  0  0  0  0
 23 21  1  1  0  0  0
 23 24  1  0  0  0  0
 23 22  1  0  0  0  0
 24 25  1  0  0  0  0
 25 26  1  0  0  0  0
 26 27  1  0  0  0  0
 26 30  1  6  0  0  0
 27 32  1  6  0  0  0
 29 28  1  0  0  0  0
 30 31  1  0  0  0  0
 33 32  1  0  0  0  0
M  END
>  <minimizedAffinity>
-4.6321764

$$$$

 OpenBabel03262521433D

 33 35  0  0  1  0  0  0  0  0999 V2000
   39.1020   22.9750   33.6400 C   0  0  1  0  0  0  0  0  0  0  0  0
   38.5800   21.9340   34.6400 C   0  0  2  0  0  0  0  0  0  0  0  0
   37.1670   21.9060   34.0980 C   0  0  0  0  0  0  0  0  0  0  0  0
   37.3020   21.8310   32.7220 O   0  0  0  0  0  0  0  0  0  0  0  0
   38.5170   22.3470   32.3640 C   0  0  0  0  0  0  0  0  0  0  0  0
   40.1950   22.9090   33.6600 H   0  0  0  0  0  0  0  0  0  0  0  0
   39.1540   21.0240   34.4300 H   0  0  0  0  0  0  0  0  0  0  0  0
   36.6580   22.8340   34.3570 H   0  0  0  0  0  0  0  0  0  0  0  0
   36.6520   21.0080   34.5110 H   0  0  0  0  0  0  0  0  0  0  0  0
   39.2260   21.6330   31.9140 H   0  0  0  0  0  0  0  0  0  0  0  0
   38.3000   23.1560   31.6100 H   0  0  0  0  0  0  0  0  0  0  0  0
   38.6830   22.3980   36.0290 C   0  0  0  0  0  0  0  0  0  0  0  0
   37.5440   22.8620   36.7010 C   0  0  0  0  0  0  0  0  0  0  0  0
   37.7120   23.3120   38.0140 C   0  0  0  0  0  0  0  0  0  0  0  0
   38.9610   23.2770   38.5610 N   0  0  0  0  0  0  0  0  0  0  0  0
   40.0590   22.8170   37.8780 C   0  0  0  0  0  0  0  0  0  0  0  0
   39.9000   22.3800   36.6050 N   0  0  0  0  0  0  0  0  0  0  0  0
   36.5710   22.8740   36.2300 H   0  0  0  0  0  0  0  0  0  0  0  0
   36.8810   23.6840   38.5960 H   0  0  0  0  0  0  0  0  0  0  0  0
   41.0100   22.8260   38.3910 H   0  0  0  0  0  0  0  0  0  0  0  0
   38.5520   24.1930   33.7840 O   0  0  0  0  0  0  0  0  0  0  0  0
   39.2540   26.3840   33.0480 C   0  0  1  0  0  3  0  0  0  0  0  0
   39.3810   25.2490   34.0300 C   0  0  1  0  0  3  0  0  0  0  0  0
   39.1560   25.7960   35.3140 O   0  0  0  0  0  0  0  0  0  0  0  0
   37.8540   26.2720   35.3980 C   0  0  0  0  0  2  0  0  0  0  0  0
   37.6420   27.4820   34.5100 C   0  0  1  0  0  3  0  0  0  0  0  0
   37.8750   27.0070   33.0960 C   0  0  2  0  0  3  0  0  0  0  0  0
   40.2130   27.3390   33.3830 O   0  0  0  0  0  0  0  0  0  0  0  0
   40.9280   26.9570   33.9720 H   0  0  0  0  0  0  0  0  0  0  0  0
   36.3650   27.9880   34.6110 O   0  0  0  0  0  0  0  0  0  0  0  0
   36.3740   28.8480   34.0980 H   0  0  0  0  0  0  0  0  0  0  0  0
   36.9580   26.0090   32.7420 O   0  0  0  0  0  0  0  0  0  0  0  0
   37.2560   25.4850   31.9780 H   0  0  0  0  0  0  0  0  0  0  0  0
  1  6  1  6  0  0  0
  1 21  1  0  0  0  0
  1  2  1  0  0  0  0
  2  7  1  6  0  0  0
  2 12  1  0  0  0  0
  3  8  1  0  0  0  0
  3  9  1  0  0  0  0
  3  2  1  0  0  0  0
  4  3  1  0  0  0  0
  5  4  1  0  0  0  0
  5  1  1  0  0  0  0
 10  5  1  0  0  0  0
 11  5  1  0  0  0  0
 12 17  2  0  0  0  0
 12 13  1  0  0  0  0
 13 14  2  0  0  0  0
 14 15  1  0  0  0  0
 14 19  1  0  0  0  0
 16 20  1  0  0  0  0
 16 15  2  0  0  0  0
 17 16  1  0  0  0  0
 18 13  1  0  0  0  0
 22 27  1  0  0  0  0
 22 28  1  1  0  0  0
 22 23  1  0  0  0  0
 23 21  1  6  0  0  0
 23 24  1  0  0  0  0
 24 25  1  0  0  0  0
 26 30  1  6  0  0  0
 26 25  1  0  0  0  0
 27 32  1  1  0  0  0
 27 26  1  0  0  0  0
 28 29  1  0  0  0  0
 31 30  1  0  0  0  0
 33 32  1  0  0  0  0
M  END
>  <minimizedAffinity>
-4.62982845

$$$$
