
     RDKit          3D

 35 36  0  0  0  0  0  0  0  0999 V2000
   37.3210   30.2530   51.4001 C   0  0  0  0  0  0  0  0  0  0  0  0
   37.9747   30.7166   50.2511 C   0  0  0  0  0  0  0  0  0  0  0  0
   37.5439   30.3475   49.0046 C   0  0  0  0  0  0  0  0  0  0  0  0
   36.4588   29.5179   48.9061 N   0  0  0  0  0  0  0  0  0  0  0  0
   35.8496   29.0900   50.0379 C   0  0  0  0  0  0  0  0  0  0  0  0
   36.2715   29.4490   51.2672 N   0  0  0  0  0  0  0  0  0  0  0  0
   38.1932   30.7936   47.8202 C   0  0  0  0  0  0  0  0  0  0  0  0
   38.8001   31.9366   47.7592 C   0  0  0  0  0  0  0  0  0  0  0  0
   39.4314   32.5253   46.5574 C   0  0  0  0  0  0  0  0  0  0  0  0
   38.2547   32.3806   45.1682 S   0  0  0  0  0  0  0  0  0  0  0  0
   37.6543   30.5254   52.4057 H   0  0  0  0  0  0  0  0  0  0  0  0
   38.8216   31.3669   50.4000 H   0  0  0  0  0  0  0  0  0  0  0  0
   34.9731   28.4246   50.0562 H   0  0  0  0  0  0  0  0  0  0  0  0
   38.1921   30.1381   46.9483 H   0  0  0  0  0  0  0  0  0  0  0  0
   38.8453   32.6168   48.6261 H   0  0  0  0  0  0  0  0  0  0  0  0
   39.7666   33.5559   46.6897 H   0  0  0  0  0  0  0  0  0  0  0  0
   40.3703   31.9444   46.3154 H   0  0  0  0  0  0  0  0  0  0  0  0
   37.5359   31.6463   41.9500 O   0  0  0  0  0  0  0  0  0  0  0  0
   37.6743   30.8203   43.0619 C   0  0  2  0  0  0  0  0  0  0  0  0
   38.8916   31.2532   43.8555 C   0  0  2  0  0  0  0  0  0  0  0  0
   39.4854   30.2039   44.5199 O   0  0  0  0  0  0  0  0  0  0  0  0
   39.6890   29.0548   43.8174 C   0  0  0  0  0  0  0  0  0  0  0  0
   38.3256   28.4420   43.5036 C   0  0  1  0  0  0  0  0  0  0  0  0
   37.6140   28.2457   44.6615 O   0  0  0  0  0  0  0  0  0  0  0  0
   37.6571   29.4191   42.5840 C   0  0  2  0  0  0  0  0  0  0  0  0
   38.1134   29.3119   41.2674 O   0  0  0  0  0  0  0  0  0  0  0  0
   36.5778   31.8834   41.7873 H   0  0  0  0  0  0  0  0  0  0  0  0
   36.7574   31.0506   43.6922 H   0  0  0  0  0  0  0  0  0  0  0  0
   39.5552   31.8293   43.2176 H   0  0  0  0  0  0  0  0  0  0  0  0
   40.2625   29.1924   42.8749 H   0  0  0  0  0  0  0  0  0  0  0  0
   40.2288   28.3290   44.4559 H   0  0  0  0  0  0  0  0  0  0  0  0
   38.4529   27.4869   42.9348 H   0  0  0  0  0  0  0  0  0  0  0  0
   36.7502   28.7438   44.6817 H   0  0  0  0  0  0  0  0  0  0  0  0
   36.5741   29.0911   42.5358 H   0  0  0  0  0  0  0  0  0  0  0  0
   37.3804   29.6985   40.7007 H   0  0  0  0  0  0  0  0  0  0  0  0
  2  1  2  0
  3  2  1  0
  4  3  2  0
  4  5  1  0
  5  6  2  0
  6  1  1  0
  7  3  1  0
  8  7  2  0
  9  8  1  0
 10  9  1  0
  1 11  1  0
  2 12  1  0
  5 13  1  0
  7 14  1  0
  8 15  1  0
  9 16  1  0
  9 17  1  0
 18 19  1  0
 19 20  1  0
 20 21  1  0
 21 22  1  0
 22 23  1  0
 23 24  1  0
 23 25  1  0
 25 26  1  0
 25 19  1  0
 18 27  1  0
 19 28  1  1
 20 29  1  6
 22 30  1  0
 22 31  1  0
 23 32  1  6
 24 33  1  0
 25 34  1  6
 26 35  1  0
 10 20  1  0
M  ISO  5  11  14  12  14  13  14  16   8  17   8
M  END
>  <DihAtoms>  (1) 
8,9,19,18

>  <DihDeg>  (1) 
-65.49692074475755

$$$$
