
     RDKit          3D

 41 43  0  0  0  0  0  0  0  0999 V2000
   34.7890   29.5463   47.5250 S   0  0  0  0  0  0  0  0  0  0  0  0
   37.3767   29.4662   50.5284 C   0  0  0  0  0  0  0  0  0  0  0  0
   37.9878   30.7206   50.5187 C   0  0  0  0  0  0  0  0  0  0  0  0
   37.5747   31.6351   49.5300 C   0  0  0  0  0  0  0  0  0  0  0  0
   36.6187   31.2555   48.6515 N   0  0  0  0  0  0  0  0  0  0  0  0
   36.0511   30.0343   48.6923 C   0  0  0  0  0  0  0  0  0  0  0  0
   36.4179   29.1376   49.6180 N   0  0  0  0  0  0  0  0  0  0  0  0
   32.3902   28.3616   47.4599 C   0  0  2  0  0  0  0  0  0  0  0  0
   33.6226   28.4149   48.3455 C   0  0  1  0  0  0  0  0  0  0  0  0
   34.1760   27.1633   48.3669 O   0  0  0  0  0  0  0  0  0  0  0  0
   33.5686   26.3675   47.4082 C   0  0  0  0  0  0  0  0  0  0  0  0
   32.8501   27.3327   46.4574 C   0  0  1  0  0  0  0  0  0  0  0  0
   32.1327   29.5955   46.8873 O   0  0  0  0  0  0  0  0  0  0  0  0
   31.8000   26.6809   45.8378 O   0  0  0  0  0  0  0  0  0  0  0  0
   37.6202   28.6887   51.2458 H   0  0  0  0  0  0  0  0  0  0  0  0
   38.7369   30.9442   51.2487 H   0  0  0  0  0  0  0  0  0  0  0  0
   38.0430   32.6102   49.5148 H   0  0  0  0  0  0  0  0  0  0  0  0
   31.5506   27.9970   48.0805 H   0  0  0  0  0  0  0  0  0  0  0  0
   33.2949   28.8023   49.3211 H   0  0  0  0  0  0  0  0  0  0  0  0
   34.3858   25.8204   46.8862 H   0  0  0  0  0  0  0  0  0  0  0  0
   32.7906   25.7083   47.8228 H   0  0  0  0  0  0  0  0  0  0  0  0
   33.5865   27.7910   45.8015 H   0  0  0  0  0  0  0  0  0  0  0  0
   31.6105   29.5320   46.0604 H   0  0  0  0  0  0  0  0  0  0  0  0
   33.0797   28.3754   43.0482 O   0  0  0  0  0  0  0  0  0  0  0  0
   32.0515   28.2017   43.9797 C   0  0  2  0  0  0  0  0  0  0  0  0
   31.9700   26.7882   44.4579 C   0  0  2  0  0  0  0  0  0  0  0  0
   31.0205   26.0211   43.8048 O   0  0  0  0  0  0  0  0  0  0  0  0
   29.7768   26.6328   43.7362 C   0  0  0  0  0  0  0  0  0  0  0  0
   29.9585   27.7562   42.7343 C   0  0  2  0  0  0  0  0  0  0  0  0
   30.6835   27.2063   41.6585 O   0  0  0  0  0  0  0  0  0  0  0  0
   30.8085   28.7890   43.4198 C   0  0  1  0  0  0  0  0  0  0  0  0
   30.0293   29.3804   44.4325 O   0  0  0  0  0  0  0  0  0  0  0  0
   33.0551   27.6455   42.4083 H   0  0  0  0  0  0  0  0  0  0  0  0
   32.3464   28.8777   44.8359 H   0  0  0  0  0  0  0  0  0  0  0  0
   32.9441   26.3057   44.2264 H   0  0  0  0  0  0  0  0  0  0  0  0
   29.4675   27.0691   44.7109 H   0  0  0  0  0  0  0  0  0  0  0  0
   29.0494   25.8898   43.3710 H   0  0  0  0  0  0  0  0  0  0  0  0
   28.9974   28.1779   42.3993 H   0  0  0  0  0  0  0  0  0  0  0  0
   30.6511   27.7986   40.8675 H   0  0  0  0  0  0  0  0  0  0  0  0
   31.0840   29.5884   42.6750 H   0  0  0  0  0  0  0  0  0  0  0  0
   30.3567   30.3209   44.5280 H   0  0  0  0  0  0  0  0  0  0  0  0
  1  6  1  0
  3  2  2  0
  4  3  1  0
  5  6  1  0
  5  4  2  0
  6  7  2  0
  7  2  1  0
  8 13  1  0
  8  9  1  0
  9  1  1  0
  9 10  1  0
 11 10  1  0
 12 14  1  0
 12 11  1  0
 12  8  1  0
  2 15  1  0
  3 16  1  0
  4 17  1  0
  8 18  1  1
  9 19  1  1
 11 20  1  0
 11 21  1  0
 12 22  1  6
 13 23  1  0
 24 25  1  0
 25 26  1  0
 26 27  1  0
 27 28  1  0
 28 29  1  0
 29 30  1  0
 29 31  1  0
 31 32  1  0
 31 25  1  0
 24 33  1  0
 25 34  1  1
 26 35  1  1
 28 36  1  0
 28 37  1  0
 29 38  1  6
 30 39  1  0
 31 40  1  6
 32 41  1  0
 14 26  1  0
M  ISO  8  15  14  16  14  17  14  18  13  19  13  20  13  21  13  22  13
M  ISO  1  23   3
M  END
>  <DihAtoms>  (1) 
11,13,25,24

>  <DihDeg>  (1) 
-117.48005748375701

$$$$
