
     RDKit          3D

 47 50  0  0  0  0  0  0  0  0999 V2000
   35.8144   30.5429   49.0775 C   0  0  1  0  0  0  0  0  0  0  0  0
   35.9038   29.1215   48.8376 C   0  0  1  0  0  0  0  0  0  0  0  0
   36.0696   29.5810   50.2486 C   0  0  0  0  0  0  0  0  0  0  0  0
   37.0077   31.4527   48.8279 C   0  0  0  0  0  0  0  0  0  0  0  0
   37.1812   32.5273   49.7011 C   0  0  0  0  0  0  0  0  0  0  0  0
   38.2695   33.3459   49.4094 C   0  0  0  0  0  0  0  0  0  0  0  0
   39.0854   33.0859   48.3398 N   0  0  0  0  0  0  0  0  0  0  0  0
   38.8728   32.0292   47.5237 C   0  0  0  0  0  0  0  0  0  0  0  0
   37.8236   31.2037   47.7698 N   0  0  0  0  0  0  0  0  0  0  0  0
   33.9650   29.0714   47.3795 C   0  0  2  0  0  0  0  0  0  0  0  0
   34.7400   28.2797   48.4115 C   0  0  2  0  0  0  0  0  0  0  0  0
   33.8744   28.0670   49.4376 O   0  0  0  0  0  0  0  0  0  0  0  0
   32.5794   28.1431   48.9974 C   0  0  0  0  0  0  0  0  0  0  0  0
   32.6065   28.3889   47.5025 C   0  0  1  0  0  0  0  0  0  0  0  0
   34.4747   28.9511   46.0956 O   0  0  0  0  0  0  0  0  0  0  0  0
   31.5781   29.1819   47.0625 O   0  0  0  0  0  0  0  0  0  0  0  0
   34.8909   31.1342   49.3037 H   0  0  0  0  0  0  0  0  0  0  0  0
   36.8474   28.7970   48.3060 H   0  0  0  0  0  0  0  0  0  0  0  0
   37.0905   29.5274   50.6785 H   0  0  0  0  0  0  0  0  0  0  0  0
   35.2935   29.3928   50.9883 H   0  0  0  0  0  0  0  0  0  0  0  0
   36.5436   32.7207   50.5274 H   0  0  0  0  0  0  0  0  0  0  0  0
   38.5083   34.2154   50.0174 H   0  0  0  0  0  0  0  0  0  0  0  0
   39.5025   31.8046   46.6749 H   0  0  0  0  0  0  0  0  0  0  0  0
   33.8724   30.1359   47.6568 H   0  0  0  0  0  0  0  0  0  0  0  0
   35.0244   27.3242   47.9387 H   0  0  0  0  0  0  0  0  0  0  0  0
   32.0633   29.0375   49.4553 H   0  0  0  0  0  0  0  0  0  0  0  0
   31.9599   27.2697   49.2410 H   0  0  0  0  0  0  0  0  0  0  0  0
   32.5895   27.4253   46.9901 H   0  0  0  0  0  0  0  0  0  0  0  0
   34.2818   28.0378   45.7879 H   0  0  0  0  0  0  0  0  0  0  0  0
   30.4381   26.5035   47.1794 O   0  0  0  0  0  0  0  0  0  0  0  0
   31.0760   27.0658   46.0745 C   0  0  2  0  0  0  0  0  0  0  0  0
   30.7998   28.5537   46.0994 C   0  0  2  0  0  0  0  0  0  0  0  0
   31.0428   29.0584   44.8224 O   0  0  0  0  0  0  0  0  0  0  0  0
   29.9029   28.8253   44.0483 C   0  0  0  0  0  0  0  0  0  0  0  0
   29.3813   27.4189   44.2415 C   0  0  1  0  0  0  0  0  0  0  0  0
   29.0444   26.9220   42.9836 O   0  0  0  0  0  0  0  0  0  0  0  0
   30.4424   26.5044   44.8162 C   0  0  2  0  0  0  0  0  0  0  0  0
   29.8529   25.2593   45.0332 O   0  0  0  0  0  0  0  0  0  0  0  0
   29.5440   26.1725   46.8905 H   0  0  0  0  0  0  0  0  0  0  0  0
   32.1679   26.8512   46.1116 H   0  0  0  0  0  0  0  0  0  0  0  0
   29.7174   28.6796   46.2794 H   0  0  0  0  0  0  0  0  0  0  0  0
   30.2277   28.9634   42.9966 H   0  0  0  0  0  0  0  0  0  0  0  0
   29.0972   29.5638   44.2193 H   0  0  0  0  0  0  0  0  0  0  0  0
   28.4406   27.3735   44.8348 H   0  0  0  0  0  0  0  0  0  0  0  0
   28.7199   25.9840   43.0269 H   0  0  0  0  0  0  0  0  0  0  0  0
   31.2487   26.4144   44.0650 H   0  0  0  0  0  0  0  0  0  0  0  0
   30.4071   24.7398   45.6878 H   0  0  0  0  0  0  0  0  0  0  0  0
  1  3  1  0
  2  1  1  0
  2  3  1  0
  4  1  1  0
  4  5  2  0
  6  5  1  0
  7  6  2  0
  8  9  2  0
  8  7  1  0
  9  4  1  0
 10 15  1  0
 10 14  1  0
 10 11  1  0
 11  2  1  0
 11 12  1  0
 13 12  1  0
 14 16  1  0
 14 13  1  0
  1 17  1  1
  2 18  1  6
  3 19  1  0
  3 20  1  0
  5 21  1  0
  6 22  1  0
  8 23  1  0
 10 24  1  1
 11 25  1  6
 13 26  1  0
 13 27  1  0
 14 28  1  6
 15 29  1  0
 30 31  1  0
 31 32  1  0
 32 33  1  0
 33 34  1  0
 34 35  1  0
 35 36  1  0
 35 37  1  0
 37 38  1  0
 37 31  1  0
 30 39  1  0
 31 40  1  1
 32 41  1  1
 34 42  1  0
 34 43  1  0
 35 44  1  1
 36 45  1  0
 37 46  1  6
 38 47  1  0
 16 32  1  0
M  ISO  8  17  13  18  13  19  13  20  13  21  14  22  14  23  14  24  13
M  ISO  5  25  13  26  13  27  13  28  13  29   3
M  END
>  <DihAtoms>  (1) 
13,15,31,30

>  <DihDeg>  (1) 
-119.98727104714011

$$$$
