
 OpenBabel03272503513D

 40 42  0  0  1  0  0  0  0  0999 V2000
   37.2410   26.6260   34.4510 C   0  0  1  0  0  0  0  0  0  0  0  0
   37.7350   26.2020   33.0510 C   0  0  2  0  0  0  0  0  0  0  0  0
   38.7610   27.0600   32.8100 O   0  0  0  0  0  0  0  0  0  0  0  0
   39.4950   27.0800   33.9760 C   0  0  0  0  0  0  0  0  0  0  0  0
   38.5480   26.9460   35.1290 C   0  0  2  0  0  0  0  0  0  0  0  0
   36.7520   25.7330   34.8830 H   0  0  0  0  0  0  0  0  0  0  0  0
   38.0000   25.1180   33.1360 H   0  0  0  0  0  0  0  0  0  0  0  0
   39.9500   28.1110   34.0280 H   0  0  0  0  0  0  0  0  0  0  0  0
   40.3500   26.3870   33.9870 H   0  0  0  0  0  0  0  0  0  0  0  0
   38.4660   27.8650   35.7190 H   0  0  0  0  0  0  0  0  0  0  0  0
   36.3640   27.6900   34.3500 O   0  0  0  0  0  0  0  0  0  0  0  0
   36.8660   28.5070   34.1670 H   0  0  0  0  0  0  0  0  0  0  0  0
   36.6360   26.3080   32.2500 O   0  0  0  0  0  0  0  0  0  0  0  0
   34.9650   25.0440   30.6430 O   0  0  0  0  0  0  0  0  0  0  0  0
   36.3170   24.9300   31.3390 P   0  0  1  0  0  0  0  0  0  0  0  0
   37.4470   24.7920   30.0850 O   0  0  0  0  0  0  0  0  0  0  0  0
   38.3080   25.1270   30.4450 H   0  0  0  0  0  0  0  0  0  0  0  0
   36.4120   23.5980   32.3960 O   0  0  0  0  0  0  0  0  0  0  0  0
   36.1870   22.3030   31.9800 C   0  0  0  0  0  0  0  0  0  0  0  0
   35.1160   21.4980   32.4190 C   0  0  0  0  0  0  0  0  0  0  0  0
   35.0190   20.2090   31.9100 C   0  0  0  0  0  0  0  0  0  0  0  0
   35.9670   19.7880   31.0100 N   0  0  0  0  0  0  0  0  0  0  0  0
   36.9880   20.5950   30.6090 C   0  0  0  0  0  0  0  0  0  0  0  0
   37.1030   21.8580   31.0930 N   0  0  0  0  0  0  0  0  0  0  0  0
   34.4660   21.9600   33.1150 H   0  0  0  0  0  0  0  0  0  0  0  0
   34.2100   19.6090   32.2440 H   0  0  0  0  0  0  0  0  0  0  0  0
   37.6880   20.1760   29.8970 H   0  0  0  0  0  0  0  0  0  0  0  0
   38.9110   25.8970   35.9640 O   0  0  0  0  0  0  0  0  0  0  0  0
   37.6680   24.2050   37.0930 C   0  0  1  0  0  3  0  0  0  0  0  0
   38.1790   24.7410   35.7740 C   0  0  2  0  0  3  0  0  0  0  0  0
   39.0770   23.8060   35.2170 O   0  0  0  0  0  0  0  0  0  0  0  0
   40.1530   23.6590   36.1060 C   0  0  0  0  0  2  0  0  0  0  0  0
   39.6960   22.8540   37.3100 C   0  0  1  0  0  3  0  0  0  0  0  0
   38.1830   22.7910   37.3050 C   0  0  2  0  0  3  0  0  0  0  0  0
   38.1810   24.9470   38.1750 O   0  0  0  0  0  0  0  0  0  0  0  0
   39.0070   25.4110   37.9420 H   0  0  0  0  0  0  0  0  0  0  0  0
   40.1850   21.5310   37.2310 O   0  0  0  0  0  0  0  0  0  0  0  0
   39.6620   21.0100   37.8890 H   0  0  0  0  0  0  0  0  0  0  0  0
   37.7670   21.9370   36.2880 O   0  0  0  0  0  0  0  0  0  0  0  0
   36.8420   22.1720   36.0570 H   0  0  0  0  0  0  0  0  0  0  0  0
  1  6  1  1  0  0  0
  1  5  1  0  0  0  0
  2  7  1  1  0  0  0
  2  1  1  0  0  0  0
  3  2  1  0  0  0  0
  3  4  1  0  0  0  0
  4  9  1  0  0  0  0
  4  8  1  0  0  0  0
  4  5  1  0  0  0  0
  5 10  1  1  0  0  0
  5 28  1  0  0  0  0
 11  1  1  0  0  0  0
 12 11  1  0  0  0  0
 13  2  1  0  0  0  0
 15 14  2  6  0  0  0
 15 13  1  0  0  0  0
 15 18  1  0  0  0  0
 16 17  1  0  0  0  0
 16 15  1  0  0  0  0
 19 18  1  0  0  0  0
 19 20  1  0  0  0  0
 20 25  1  0  0  0  0
 21 26  1  0  0  0  0
 21 20  2  0  0  0  0
 22 21  1  0  0  0  0
 23 22  2  0  0  0  0
 23 24  1  0  0  0  0
 24 19  2  0  0  0  0
 27 23  1  0  0  0  0
 29 34  1  0  0  0  0
 29 35  1  1  0  0  0
 30 28  1  1  0  0  0
 30 29  1  0  0  0  0
 31 30  1  0  0  0  0
 31 32  1  0  0  0  0
 32 33  1  0  0  0  0
 33 37  1  6  0  0  0
 34 39  1  6  0  0  0
 34 33  1  0  0  0  0
 36 35  1  0  0  0  0
 37 38  1  0  0  0  0
 40 39  1  0  0  0  0
M  END
>  <minimizedAffinity>
-6.18399715

$$$$

 OpenBabel03272503513D

 40 42  0  0  1  0  0  0  0  0999 V2000
   38.1650   24.8740   32.0360 C   0  0  1  0  0  0  0  0  0  0  0  0
   37.2540   25.7130   32.9580 C   0  0  2  0  0  0  0  0  0  0  0  0
   36.1940   26.0100   32.1610 O   0  0  0  0  0  0  0  0  0  0  0  0
   35.8720   24.8260   31.5350 C   0  0  0  0  0  0  0  0  0  0  0  0
   37.1400   24.0710   31.2780 C   0  0  2  0  0  0  0  0  0  0  0  0
   38.7790   24.2450   32.7080 H   0  0  0  0  0  0  0  0  0  0  0  0
   37.0450   25.0690   33.8490 H   0  0  0  0  0  0  0  0  0  0  0  0
   35.4450   25.1220   30.5340 H   0  0  0  0  0  0  0  0  0  0  0  0
   35.0750   24.2520   32.0300 H   0  0  0  0  0  0  0  0  0  0  0  0
   37.3950   24.0190   30.2140 H   0  0  0  0  0  0  0  0  0  0  0  0
   38.9500   25.7000   31.2530 O   0  0  0  0  0  0  0  0  0  0  0  0
   38.4050   26.0820   30.5390 H   0  0  0  0  0  0  0  0  0  0  0  0
   38.0380   26.7550   33.3620 O   0  0  0  0  0  0  0  0  0  0  0  0
   39.8070   26.8810   35.3190 O   0  0  0  0  0  0  0  0  0  0  0  0
   38.3140   26.8000   35.0220 P   0  0  1  0  0  0  0  0  0  0  0  0
   37.6570   28.2160   35.6780 O   0  0  0  0  0  0  0  0  0  0  0  0
   36.8270   28.4030   35.1710 H   0  0  0  0  0  0  0  0  0  0  0  0
   37.5750   25.4180   35.6890 O   0  0  0  0  0  0  0  0  0  0  0  0
   38.2550   24.5280   36.4940 C   0  0  0  0  0  0  0  0  0  0  0  0
   38.0370   24.3770   37.8790 C   0  0  0  0  0  0  0  0  0  0  0  0
   38.8010   23.4360   38.5590 C   0  0  0  0  0  0  0  0  0  0  0  0
   39.7240   22.7070   37.8510 N   0  0  0  0  0  0  0  0  0  0  0  0
   39.9060   22.8810   36.5120 C   0  0  0  0  0  0  0  0  0  0  0  0
   39.1710   23.7940   35.8260 N   0  0  0  0  0  0  0  0  0  0  0  0
   37.2920   25.0090   38.2850 H   0  0  0  0  0  0  0  0  0  0  0  0
   38.6320   23.3270   39.6010 H   0  0  0  0  0  0  0  0  0  0  0  0
   40.6560   22.2610   36.0390 H   0  0  0  0  0  0  0  0  0  0  0  0
   37.0780   22.7840   31.7970 O   0  0  0  0  0  0  0  0  0  0  0  0
   35.6630   21.3640   33.0870 C   0  0  1  0  0  3  0  0  0  0  0  0
   35.8000   22.2680   31.8830 C   0  0  2  0  0  3  0  0  0  0  0  0
   35.6170   21.5010   30.7120 O   0  0  0  0  0  0  0  0  0  0  0  0
   36.6230   20.5240   30.6750 C   0  0  0  0  0  2  0  0  0  0  0  0
   36.3140   19.4530   31.7060 C   0  0  1  0  0  3  0  0  0  0  0  0
   35.2430   19.9740   32.6400 C   0  0  2  0  0  3  0  0  0  0  0  0
   36.9050   21.1820   33.7280 O   0  0  0  0  0  0  0  0  0  0  0  0
   37.6550   21.3490   33.1260 H   0  0  0  0  0  0  0  0  0  0  0  0
   35.8120   18.2930   31.0750 O   0  0  0  0  0  0  0  0  0  0  0  0
   35.4070   17.7480   31.7930 H   0  0  0  0  0  0  0  0  0  0  0  0
   34.0250   20.0000   31.9670 O   0  0  0  0  0  0  0  0  0  0  0  0
   33.4430   20.6480   32.4200 H   0  0  0  0  0  0  0  0  0  0  0  0
  1  6  1  1  0  0  0
  1  2  1  0  0  0  0
  2 13  1  0  0  0  0
  2  7  1  1  0  0  0
  3  2  1  0  0  0  0
  4  9  1  0  0  0  0
  4  3  1  0  0  0  0
  5 10  1  6  0  0  0
  5  4  1  0  0  0  0
  5 28  1  0  0  0  0
  5  1  1  0  0  0  0
  8  4  1  0  0  0  0
 11  1  1  0  0  0  0
 12 11  1  0  0  0  0
 13 15  1  0  0  0  0
 15 14  2  1  0  0  0
 15 16  1  0  0  0  0
 15 18  1  0  0  0  0
 17 16  1  0  0  0  0
 18 19  1  0  0  0  0
 19 20  1  0  0  0  0
 20 25  1  0  0  0  0
 20 21  2  0  0  0  0
 21 26  1  0  0  0  0
 22 21  1  0  0  0  0
 23 22  2  0  0  0  0
 24 19  2  0  0  0  0
 24 23  1  0  0  0  0
 27 23  1  0  0  0  0
 29 35  1  6  0  0  0
 30 28  1  6  0  0  0
 30 29  1  0  0  0  0
 31 30  1  0  0  0  0
 32 31  1  0  0  0  0
 32 33  1  0  0  0  0
 33 37  1  6  0  0  0
 33 34  1  0  0  0  0
 34 39  1  6  0  0  0
 34 29  1  0  0  0  0
 36 35  1  0  0  0  0
 37 38  1  0  0  0  0
 39 40  1  0  0  0  0
M  END
>  <minimizedAffinity>
-6.08140421

$$$$

 OpenBabel03272503513D

 40 42  0  0  1  0  0  0  0  0999 V2000
   39.3480   26.6740   32.8730 C   0  0  1  0  0  0  0  0  0  0  0  0
   37.8620   26.9520   32.5610 C   0  0  2  0  0  0  0  0  0  0  0  0
   37.4900   25.8690   31.8290 O   0  0  0  0  0  0  0  0  0  0  0  0
   38.0050   24.7840   32.5040 C   0  0  0  0  0  0  0  0  0  0  0  0
   39.3160   25.1860   33.1060 C   0  0  2  0  0  0  0  0  0  0  0  0
   39.5750   27.2390   33.7960 H   0  0  0  0  0  0  0  0  0  0  0  0
   37.3600   27.0810   33.5530 H   0  0  0  0  0  0  0  0  0  0  0  0
   38.2180   24.0100   31.7110 H   0  0  0  0  0  0  0  0  0  0  0  0
   37.2970   24.3010   33.1950 H   0  0  0  0  0  0  0  0  0  0  0  0
   40.1710   24.6970   32.6270 H   0  0  0  0  0  0  0  0  0  0  0  0
   40.1460   27.0780   31.8180 O   0  0  0  0  0  0  0  0  0  0  0  0
   40.0710   26.4320   31.0900 H   0  0  0  0  0  0  0  0  0  0  0  0
   37.8630   28.1600   31.9260 O   0  0  0  0  0  0  0  0  0  0  0  0
   36.4590   29.9160   30.5420 O   0  0  0  0  0  0  0  0  0  0  0  0
   36.4440   28.4920   31.0840 P   0  0  1  0  0  0  0  0  0  0  0  0
   36.3390   27.5010   29.7150 O   0  0  0  0  0  0  0  0  0  0  0  0
   36.7340   26.6280   29.9690 H   0  0  0  0  0  0  0  0  0  0  0  0
   35.1490   28.1980   32.1510 O   0  0  0  0  0  0  0  0  0  0  0  0
   34.7240   29.1280   33.0750 C   0  0  0  0  0  0  0  0  0  0  0  0
   35.5630   29.7580   34.0180 C   0  0  0  0  0  0  0  0  0  0  0  0
   34.9880   30.6780   34.8880 C   0  0  0  0  0  0  0  0  0  0  0  0
   33.6420   30.9240   34.7850 N   0  0  0  0  0  0  0  0  0  0  0  0
   32.8640   30.2960   33.8600 C   0  0  0  0  0  0  0  0  0  0  0  0
   33.4020   29.3940   33.0000 N   0  0  0  0  0  0  0  0  0  0  0  0
   36.5790   29.4660   33.9770 H   0  0  0  0  0  0  0  0  0  0  0  0
   35.6250   31.1480   35.5950 H   0  0  0  0  0  0  0  0  0  0  0  0
   31.8120   30.5540   33.8540 H   0  0  0  0  0  0  0  0  0  0  0  0
   39.3470   24.9260   34.4710 O   0  0  0  0  0  0  0  0  0  0  0  0
   37.6520   24.6520   36.1240 C   0  0  1  0  0  3  0  0  0  0  0  0
   38.3500   24.0780   34.9110 C   0  0  2  0  0  3  0  0  0  0  0  0
   38.9990   22.8810   35.2790 O   0  0  0  0  0  0  0  0  0  0  0  0
   39.9540   23.1920   36.2600 C   0  0  0  0  0  2  0  0  0  0  0  0
   39.2440   23.4850   37.5690 C   0  0  1  0  0  3  0  0  0  0  0  0
   37.7690   23.6820   37.2880 C   0  0  2  0  0  3  0  0  0  0  0  0
   38.2860   25.8300   36.5640 O   0  0  0  0  0  0  0  0  0  0  0  0
   39.2160   25.8770   36.2700 H   0  0  0  0  0  0  0  0  0  0  0  0
   39.3730   22.3920   38.4540 O   0  0  0  0  0  0  0  0  0  0  0  0
   38.7010   22.5360   39.1640 H   0  0  0  0  0  0  0  0  0  0  0  0
   37.1950   22.4510   36.9880 O   0  0  0  0  0  0  0  0  0  0  0  0
   36.3760   22.6170   36.4720 H   0  0  0  0  0  0  0  0  0  0  0  0
  1  5  1  0  0  0  0
  1  6  1  1  0  0  0
  2  1  1  0  0  0  0
  2  7  1  1  0  0  0
  3  4  1  0  0  0  0
  3  2  1  0  0  0  0
  4  5  1  0  0  0  0
  4  9  1  0  0  0  0
  5 10  1  6  0  0  0
  5 28  1  0  0  0  0
  8  4  1  0  0  0  0
 11  1  1  0  0  0  0
 12 11  1  0  0  0  0
 13  2  1  0  0  0  0
 15 14  2  6  0  0  0
 15 13  1  0  0  0  0
 15 18  1  0  0  0  0
 16 17  1  0  0  0  0
 16 15  1  0  0  0  0
 18 19  1  0  0  0  0
 19 20  1  0  0  0  0
 20 21  2  0  0  0  0
 21 26  1  0  0  0  0
 22 21  1  0  0  0  0
 23 22  2  0  0  0  0
 24 19  2  0  0  0  0
 24 23  1  0  0  0  0
 25 20  1  0  0  0  0
 27 23  1  0  0  0  0
 29 35  1  1  0  0  0
 29 34  1  0  0  0  0
 30 28  1  1  0  0  0
 30 31  1  0  0  0  0
 30 29  1  0  0  0  0
 31 32  1  0  0  0  0
 32 33  1  0  0  0  0
 33 37  1  1  0  0  0
 34 39  1  6  0  0  0
 34 33  1  0  0  0  0
 36 35  1  0  0  0  0
 37 38  1  0  0  0  0
 40 39  1  0  0  0  0
M  END
>  <minimizedAffinity>
-5.78301239

$$$$

 OpenBabel03272503513D

 40 42  0  0  1  0  0  0  0  0999 V2000
   37.1730   26.8010   34.8200 C   0  0  1  0  0  0  0  0  0  0  0  0
   37.6210   26.3910   33.4010 C   0  0  2  0  0  0  0  0  0  0  0  0
   38.6860   27.2010   33.1640 O   0  0  0  0  0  0  0  0  0  0  0  0
   39.4390   27.1500   34.3170 C   0  0  0  0  0  0  0  0  0  0  0  0
   38.5060   27.0340   35.4820 C   0  0  2  0  0  0  0  0  0  0  0  0
   36.6450   25.9230   35.2370 H   0  0  0  0  0  0  0  0  0  0  0  0
   37.8300   25.2930   33.4520 H   0  0  0  0  0  0  0  0  0  0  0  0
   39.9490   28.1540   34.3870 H   0  0  0  0  0  0  0  0  0  0  0  0
   40.2570   26.4140   34.2930 H   0  0  0  0  0  0  0  0  0  0  0  0
   38.4830   27.9390   36.0990 H   0  0  0  0  0  0  0  0  0  0  0  0
   36.3520   27.9120   34.7640 O   0  0  0  0  0  0  0  0  0  0  0  0
   36.8930   28.7060   34.5930 H   0  0  0  0  0  0  0  0  0  0  0  0
   36.5150   26.5770   32.6230 O   0  0  0  0  0  0  0  0  0  0  0  0
   37.4680   24.9200   30.8020 O   0  0  0  0  0  0  0  0  0  0  0  0
   36.7660   26.2590   30.9890 P   0  0  1  0  0  0  0  0  0  0  0  0
   35.2780   26.0900   30.1990 O   0  0  0  0  0  0  0  0  0  0  0  0
   34.6560   26.7300   30.6300 H   0  0  0  0  0  0  0  0  0  0  0  0
   37.6490   27.5700   30.3550 O   0  0  0  0  0  0  0  0  0  0  0  0
   37.1320   28.8460   30.2810 C   0  0  0  0  0  0  0  0  0  0  0  0
   37.6600   29.8760   29.4740 C   0  0  0  0  0  0  0  0  0  0  0  0
   37.0290   31.1140   29.5050 C   0  0  0  0  0  0  0  0  0  0  0  0
   35.9300   31.2690   30.3140 N   0  0  0  0  0  0  0  0  0  0  0  0
   35.4490   30.2510   31.0790 C   0  0  0  0  0  0  0  0  0  0  0  0
   36.0480   29.0330   31.0660 N   0  0  0  0  0  0  0  0  0  0  0  0
   38.5100   29.6060   28.9050 H   0  0  0  0  0  0  0  0  0  0  0  0
   37.4310   31.8840   28.8950 H   0  0  0  0  0  0  0  0  0  0  0  0
   34.5790   30.4670   31.6850 H   0  0  0  0  0  0  0  0  0  0  0  0
   38.8280   25.9440   36.2830 O   0  0  0  0  0  0  0  0  0  0  0  0
   37.6110   24.1520   37.2770 C   0  0  1  0  0  3  0  0  0  0  0  0
   38.1030   24.8020   36.0040 C   0  0  2  0  0  3  0  0  0  0  0  0
   39.0030   23.9250   35.3610 O   0  0  0  0  0  0  0  0  0  0  0  0
   40.0890   23.7130   36.2230 C   0  0  0  0  0  2  0  0  0  0  0  0
   39.6520   22.8060   37.3590 C   0  0  1  0  0  3  0  0  0  0  0  0
   38.1400   22.7300   37.3650 C   0  0  2  0  0  3  0  0  0  0  0  0
   38.1290   24.8050   38.4130 O   0  0  0  0  0  0  0  0  0  0  0  0
   38.9500   25.2940   38.2110 H   0  0  0  0  0  0  0  0  0  0  0  0
   40.1500   21.4990   37.1650 O   0  0  0  0  0  0  0  0  0  0  0  0
   39.6390   20.9190   37.7810 H   0  0  0  0  0  0  0  0  0  0  0  0
   37.7190   21.9610   36.2840 O   0  0  0  0  0  0  0  0  0  0  0  0
   36.7900   22.2060   36.0820 H   0  0  0  0  0  0  0  0  0  0  0  0
  1  6  1  1  0  0  0
  1  5  1  0  0  0  0
  2  7  1  6  0  0  0
  2  1  1  0  0  0  0
  3  2  1  0  0  0  0
  3  4  1  0  0  0  0
  4  8  1  0  0  0  0
  4  5  1  0  0  0  0
  5 10  1  1  0  0  0
  5 28  1  0  0  0  0
  9  4  1  0  0  0  0
 11  1  1  0  0  0  0
 12 11  1  0  0  0  0
 13  2  1  0  0  0  0
 15 14  2  6  0  0  0
 15 13  1  0  0  0  0
 16 17  1  0  0  0  0
 16 15  1  0  0  0  0
 18 15  1  0  0  0  0
 19 18  1  0  0  0  0
 19 24  1  0  0  0  0
 20 21  1  0  0  0  0
 20 19  2  0  0  0  0
 21 22  2  0  0  0  0
 22 23  1  0  0  0  0
 23 27  1  0  0  0  0
 24 23  2  0  0  0  0
 25 20  1  0  0  0  0
 26 21  1  0  0  0  0
 29 34  1  0  0  0  0
 29 35  1  1  0  0  0
 30 28  1  1  0  0  0
 30 29  1  0  0  0  0
 31 30  1  0  0  0  0
 31 32  1  0  0  0  0
 32 33  1  0  0  0  0
 33 37  1  6  0  0  0
 33 34  1  0  0  0  0
 34 39  1  6  0  0  0
 36 35  1  0  0  0  0
 37 38  1  0  0  0  0
 40 39  1  0  0  0  0
M  END
>  <minimizedAffinity>
-5.71852875

$$$$

 OpenBabel03272503513D

 40 42  0  0  1  0  0  0  0  0999 V2000
   38.4190   24.2140   31.6940 C   0  0  1  0  0  0  0  0  0  0  0  0
   36.9650   24.7290   31.7430 C   0  0  2  0  0  0  0  0  0  0  0  0
   36.2290   23.5860   31.7590 O   0  0  0  0  0  0  0  0  0  0  0  0
   36.8500   22.7730   32.6810 C   0  0  0  0  0  0  0  0  0  0  0  0
   38.3260   23.0160   32.6030 C   0  0  2  0  0  0  0  0  0  0  0  0
   39.0410   25.0210   32.1260 H   0  0  0  0  0  0  0  0  0  0  0  0
   36.9000   25.3780   32.6530 H   0  0  0  0  0  0  0  0  0  0  0  0
   36.6610   21.7180   32.3280 H   0  0  0  0  0  0  0  0  0  0  0  0
   36.4180   22.8200   33.6920 H   0  0  0  0  0  0  0  0  0  0  0  0
   38.8740   22.1650   32.1850 H   0  0  0  0  0  0  0  0  0  0  0  0
   38.7860   23.9270   30.3930 O   0  0  0  0  0  0  0  0  0  0  0  0
   38.3700   23.0880   30.1170 H   0  0  0  0  0  0  0  0  0  0  0  0
   36.8450   25.5290   30.6430 O   0  0  0  0  0  0  0  0  0  0  0  0
   38.3250   27.5880   31.3800 O   0  0  0  0  0  0  0  0  0  0  0  0
   36.9120   27.1760   30.9840 P   0  0  1  0  0  0  0  0  0  0  0  0
   36.5690   28.0690   29.5870 O   0  0  0  0  0  0  0  0  0  0  0  0
   35.8860   27.5550   29.0850 H   0  0  0  0  0  0  0  0  0  0  0  0
   35.7620   27.4820   32.2020 O   0  0  0  0  0  0  0  0  0  0  0  0
   35.6350   28.7130   32.8100 C   0  0  0  0  0  0  0  0  0  0  0  0
   35.7160   28.9280   34.2010 C   0  0  0  0  0  0  0  0  0  0  0  0
   35.5680   30.2290   34.6680 C   0  0  0  0  0  0  0  0  0  0  0  0
   35.3520   31.2310   33.7550 N   0  0  0  0  0  0  0  0  0  0  0  0
   35.2800   30.9840   32.4180 C   0  0  0  0  0  0  0  0  0  0  0  0
   35.4220   29.7220   31.9380 N   0  0  0  0  0  0  0  0  0  0  0  0
   35.8860   28.0580   34.7790 H   0  0  0  0  0  0  0  0  0  0  0  0
   35.6300   30.3840   35.7160 H   0  0  0  0  0  0  0  0  0  0  0  0
   35.1060   31.8370   31.7740 H   0  0  0  0  0  0  0  0  0  0  0  0
   38.8540   23.3320   33.8490 O   0  0  0  0  0  0  0  0  0  0  0  0
   38.0680   24.2170   35.9180 C   0  0  1  0  0  3  0  0  0  0  0  0
   37.9960   23.0960   34.9060 C   0  0  2  0  0  3  0  0  0  0  0  0
   38.4510   21.9040   35.5090 O   0  0  0  0  0  0  0  0  0  0  0  0
   39.7870   22.0980   35.8940 C   0  0  0  0  0  2  0  0  0  0  0  0
   39.8270   23.0060   37.1100 C   0  0  1  0  0  3  0  0  0  0  0  0
   38.4710   23.6590   37.2730 C   0  0  2  0  0  3  0  0  0  0  0  0
   39.0810   25.1370   35.5850 O   0  0  0  0  0  0  0  0  0  0  0  0
   39.7630   24.7390   35.0120 H   0  0  0  0  0  0  0  0  0  0  0  0
   40.0880   22.2530   38.2770 O   0  0  0  0  0  0  0  0  0  0  0  0
   39.8590   22.8420   39.0360 H   0  0  0  0  0  0  0  0  0  0  0  0
   37.5610   22.7090   37.7270 O   0  0  0  0  0  0  0  0  0  0  0  0
   36.6590   23.0180   37.4890 H   0  0  0  0  0  0  0  0  0  0  0  0
  1  2  1  0  0  0  0
  1  6  1  1  0  0  0
  1  5  1  0  0  0  0
  2  3  1  0  0  0  0
  2  7  1  1  0  0  0
  3  4  1  0  0  0  0
  4  9  1  0  0  0  0
  5 10  1  6  0  0  0
  5  4  1  0  0  0  0
  5 28  1  0  0  0  0
  8  4  1  0  0  0  0
 11  1  1  0  0  0  0
 12 11  1  0  0  0  0
 13 15  1  0  0  0  0
 13  2  1  0  0  0  0
 15 14  2  1  0  0  0
 15 18  1  0  0  0  0
 16 15  1  0  0  0  0
 17 16  1  0  0  0  0
 18 19  1  0  0  0  0
 19 20  1  0  0  0  0
 20 21  2  0  0  0  0
 20 25  1  0  0  0  0
 21 26  1  0  0  0  0
 22 21  1  0  0  0  0
 23 22  2  0  0  0  0
 24 23  1  0  0  0  0
 24 19  2  0  0  0  0
 27 23  1  0  0  0  0
 29 35  1  6  0  0  0
 29 34  1  0  0  0  0
 30 28  1  6  0  0  0
 30 31  1  0  0  0  0
 30 29  1  0  0  0  0
 31 32  1  0  0  0  0
 32 33  1  0  0  0  0
 33 34  1  0  0  0  0
 33 37  1  1  0  0  0
 34 39  1  6  0  0  0
 36 35  1  0  0  0  0
 37 38  1  0  0  0  0
 40 39  1  0  0  0  0
M  END
>  <minimizedAffinity>
-5.70344973

$$$$

 OpenBabel03272503513D

 40 42  0  0  1  0  0  0  0  0999 V2000
   37.2000   27.0030   34.8660 C   0  0  1  0  0  0  0  0  0  0  0  0
   37.4990   26.5470   33.4220 C   0  0  2  0  0  0  0  0  0  0  0  0
   38.6090   27.2580   33.0940 O   0  0  0  0  0  0  0  0  0  0  0  0
   39.4420   27.1470   34.1860 C   0  0  0  0  0  0  0  0  0  0  0  0
   38.5960   27.1200   35.4220 C   0  0  2  0  0  0  0  0  0  0  0  0
   36.6310   26.1760   35.3330 H   0  0  0  0  0  0  0  0  0  0  0  0
   37.6140   25.4350   33.4700 H   0  0  0  0  0  0  0  0  0  0  0  0
   40.0410   28.1020   34.2060 H   0  0  0  0  0  0  0  0  0  0  0  0
   40.1880   26.3410   34.1090 H   0  0  0  0  0  0  0  0  0  0  0  0
   38.7000   28.0270   36.0270 H   0  0  0  0  0  0  0  0  0  0  0  0
   36.4770   28.1810   34.8600 O   0  0  0  0  0  0  0  0  0  0  0  0
   37.0710   28.9240   34.6390 H   0  0  0  0  0  0  0  0  0  0  0  0
   36.3560   26.8250   32.7290 O   0  0  0  0  0  0  0  0  0  0  0  0
   34.8360   25.3310   31.1720 O   0  0  0  0  0  0  0  0  0  0  0  0
   36.2110   25.9800   31.2810 P   0  0  1  0  0  0  0  0  0  0  0  0
   36.2950   27.0530   29.9750 O   0  0  0  0  0  0  0  0  0  0  0  0
   36.9420   27.7600   30.2320 H   0  0  0  0  0  0  0  0  0  0  0  0
   37.4860   24.8530   31.2290 O   0  0  0  0  0  0  0  0  0  0  0  0
   38.4350   24.8530   30.2290 C   0  0  0  0  0  0  0  0  0  0  0  0
   38.8410   23.7070   29.5130 C   0  0  0  0  0  0  0  0  0  0  0  0
   39.8110   23.8640   28.5300 C   0  0  0  0  0  0  0  0  0  0  0  0
   40.3210   25.1190   28.3080 N   0  0  0  0  0  0  0  0  0  0  0  0
   39.9040   26.2020   29.0190 C   0  0  0  0  0  0  0  0  0  0  0  0
   38.9580   26.0750   29.9840 N   0  0  0  0  0  0  0  0  0  0  0  0
   38.3580   22.8100   29.7970 H   0  0  0  0  0  0  0  0  0  0  0  0
   40.1110   22.9970   27.9960 H   0  0  0  0  0  0  0  0  0  0  0  0
   40.3630   27.1520   28.7740 H   0  0  0  0  0  0  0  0  0  0  0  0
   38.8810   26.0110   36.2080 O   0  0  0  0  0  0  0  0  0  0  0  0
   37.6020   24.2410   37.1630 C   0  0  1  0  0  3  0  0  0  0  0  0
   38.1310   24.8920   35.9050 C   0  0  2  0  0  3  0  0  0  0  0  0
   39.0160   23.9980   35.2650 O   0  0  0  0  0  0  0  0  0  0  0  0
   40.0830   23.7460   36.1410 C   0  0  0  0  0  2  0  0  0  0  0  0
   39.6040   22.8390   37.2600 C   0  0  1  0  0  3  0  0  0  0  0  0
   38.0900   22.8050   37.2420 C   0  0  2  0  0  3  0  0  0  0  0  0
   38.1200   24.8670   38.3140 O   0  0  0  0  0  0  0  0  0  0  0  0
   38.9560   25.3360   38.1310 H   0  0  0  0  0  0  0  0  0  0  0  0
   40.0700   21.5210   37.0580 O   0  0  0  0  0  0  0  0  0  0  0  0
   39.5340   20.9490   37.6600 H   0  0  0  0  0  0  0  0  0  0  0  0
   37.6660   22.0590   36.1460 O   0  0  0  0  0  0  0  0  0  0  0  0
   36.7470   22.3320   35.9340 H   0  0  0  0  0  0  0  0  0  0  0  0
  1  6  1  1  0  0  0
  1  5  1  0  0  0  0
  2  7  1  6  0  0  0
  2  1  1  0  0  0  0
  3  2  1  0  0  0  0
  3  4  1  0  0  0  0
  4  8  1  0  0  0  0
  4  5  1  0  0  0  0
  5 10  1  1  0  0  0
  5 28  1  0  0  0  0
  9  4  1  0  0  0  0
 11  1  1  0  0  0  0
 12 11  1  0  0  0  0
 13  2  1  0  0  0  0
 15 14  2  6  0  0  0
 15 13  1  0  0  0  0
 16 17  1  0  0  0  0
 16 15  1  0  0  0  0
 18 15  1  0  0  0  0
 19 18  1  0  0  0  0
 20 25  1  0  0  0  0
 20 19  2  0  0  0  0
 21 20  1  0  0  0  0
 22 21  2  0  0  0  0
 22 23  1  0  0  0  0
 23 24  2  0  0  0  0
 24 19  1  0  0  0  0
 26 21  1  0  0  0  0
 27 23  1  0  0  0  0
 29 34  1  0  0  0  0
 29 35  1  1  0  0  0
 30 28  1  1  0  0  0
 30 29  1  0  0  0  0
 31 30  1  0  0  0  0
 31 32  1  0  0  0  0
 32 33  1  0  0  0  0
 33 37  1  6  0  0  0
 34 39  1  6  0  0  0
 34 33  1  0  0  0  0
 36 35  1  0  0  0  0
 37 38  1  0  0  0  0
 40 39  1  0  0  0  0
M  END
>  <minimizedAffinity>
-5.6558938

$$$$

 OpenBabel03272503513D

 40 42  0  0  1  0  0  0  0  0999 V2000
   35.9240   28.5060   32.5830 C   0  0  1  0  0  0  0  0  0  0  0  0
   36.3720   27.8970   33.9290 C   0  0  2  0  0  0  0  0  0  0  0  0
   36.5590   28.9880   34.7180 O   0  0  0  0  0  0  0  0  0  0  0  0
   35.4570   29.7850   34.4950 C   0  0  0  0  0  0  0  0  0  0  0  0
   35.0560   29.6410   33.0590 C   0  0  2  0  0  0  0  0  0  0  0  0
   35.3400   27.7170   32.0730 H   0  0  0  0  0  0  0  0  0  0  0  0
   35.5560   27.1950   34.2340 H   0  0  0  0  0  0  0  0  0  0  0  0
   35.8180   30.8440   34.6430 H   0  0  0  0  0  0  0  0  0  0  0  0
   34.6460   29.6530   35.2260 H   0  0  0  0  0  0  0  0  0  0  0  0
   35.2430   30.5480   32.4740 H   0  0  0  0  0  0  0  0  0  0  0  0
   37.0230   28.8900   31.8380 O   0  0  0  0  0  0  0  0  0  0  0  0
   37.3920   29.7150   32.2070 H   0  0  0  0  0  0  0  0  0  0  0  0
   37.4760   27.1560   33.6220 O   0  0  0  0  0  0  0  0  0  0  0  0
   39.8480   26.4690   34.5580 O   0  0  0  0  0  0  0  0  0  0  0  0
   38.3980   26.7160   34.9600 P   0  0  1  0  0  0  0  0  0  0  0  0
   38.4600   27.9960   36.0650 O   0  0  0  0  0  0  0  0  0  0  0  0
   37.5770   28.4450   36.0270 H   0  0  0  0  0  0  0  0  0  0  0  0
   37.6550   25.3480   35.6500 O   0  0  0  0  0  0  0  0  0  0  0  0
   38.3410   24.4510   36.4410 C   0  0  0  0  0  0  0  0  0  0  0  0
   38.0670   24.2160   37.8050 C   0  0  0  0  0  0  0  0  0  0  0  0
   38.8470   23.2790   38.4730 C   0  0  0  0  0  0  0  0  0  0  0  0
   39.8360   22.6330   37.7740 N   0  0  0  0  0  0  0  0  0  0  0  0
   40.0710   22.8870   36.4570 C   0  0  0  0  0  0  0  0  0  0  0  0
   39.3240   23.7980   35.7830 N   0  0  0  0  0  0  0  0  0  0  0  0
   37.2740   24.7890   38.2060 H   0  0  0  0  0  0  0  0  0  0  0  0
   38.6340   23.1070   39.4980 H   0  0  0  0  0  0  0  0  0  0  0  0
   40.8740   22.3290   35.9900 H   0  0  0  0  0  0  0  0  0  0  0  0
   33.7170   29.2880   32.9400 O   0  0  0  0  0  0  0  0  0  0  0  0
   31.5340   29.2120   33.8940 C   0  0  1  0  0  3  0  0  0  0  0  0
   32.8880   29.8850   33.8700 C   0  0  2  0  0  3  0  0  0  0  0  0
   32.7280   31.2190   33.4400 O   0  0  0  0  0  0  0  0  0  0  0  0
   32.2000   31.1940   32.1400 C   0  0  0  0  0  2  0  0  0  0  0  0
   30.7370   30.7930   32.2060 C   0  0  1  0  0  3  0  0  0  0  0  0
   30.4500   30.2300   33.5820 C   0  0  2  0  0  3  0  0  0  0  0  0
   31.4310   28.2440   32.8750 O   0  0  0  0  0  0  0  0  0  0  0  0
   32.0560   28.4130   32.1450 H   0  0  0  0  0  0  0  0  0  0  0  0
   29.9090   31.9220   32.0190 O   0  0  0  0  0  0  0  0  0  0  0  0
   29.0060   31.6490   32.3150 H   0  0  0  0  0  0  0  0  0  0  0  0
   30.4440   31.2700   34.5060 O   0  0  0  0  0  0  0  0  0  0  0  0
   30.6200   30.8870   35.3930 H   0  0  0  0  0  0  0  0  0  0  0  0
  1  6  1  6  0  0  0
  1  5  1  0  0  0  0
  1  2  1  0  0  0  0
  2  7  1  1  0  0  0
  2  3  1  0  0  0  0
  4  8  1  0  0  0  0
  4  3  1  0  0  0  0
  4  9  1  0  0  0  0
  5 10  1  6  0  0  0
  5  4  1  0  0  0  0
 11 12  1  0  0  0  0
 11  1  1  0  0  0  0
 13  2  1  0  0  0  0
 13 15  1  0  0  0  0
 15 14  2  6  0  0  0
 15 18  1  0  0  0  0
 15 16  1  0  0  0  0
 17 16  1  0  0  0  0
 18 19  1  0  0  0  0
 19 20  1  0  0  0  0
 20 25  1  0  0  0  0
 20 21  2  0  0  0  0
 21 26  1  0  0  0  0
 22 21  1  0  0  0  0
 23 22  2  0  0  0  0
 24 19  2  0  0  0  0
 24 23  1  0  0  0  0
 27 23  1  0  0  0  0
 28  5  1  0  0  0  0
 29 35  1  6  0  0  0
 30 28  1  6  0  0  0
 30 29  1  0  0  0  0
 31 30  1  0  0  0  0
 32 33  1  0  0  0  0
 32 31  1  0  0  0  0
 33 37  1  1  0  0  0
 33 34  1  0  0  0  0
 34 29  1  0  0  0  0
 34 39  1  1  0  0  0
 36 35  1  0  0  0  0
 37 38  1  0  0  0  0
 39 40  1  0  0  0  0
M  END
>  <minimizedAffinity>
-5.57643032

$$$$

 OpenBabel03272503513D

 40 42  0  0  1  0  0  0  0  0999 V2000
   37.4040   24.9740   31.3920 C   0  0  1  0  0  0  0  0  0  0  0  0
   36.4530   26.0140   32.0210 C   0  0  2  0  0  0  0  0  0  0  0  0
   35.3420   25.9320   31.2410 O   0  0  0  0  0  0  0  0  0  0  0  0
   35.1090   24.5830   31.0880 C   0  0  0  0  0  0  0  0  0  0  0  0
   36.4310   23.8820   31.0280 C   0  0  2  0  0  0  0  0  0  0  0  0
   38.0960   24.6680   32.1990 H   0  0  0  0  0  0  0  0  0  0  0  0
   36.3340   25.7110   33.0920 H   0  0  0  0  0  0  0  0  0  0  0  0
   34.6210   24.4750   30.0760 H   0  0  0  0  0  0  0  0  0  0  0  0
   34.3850   24.1630   31.8020 H   0  0  0  0  0  0  0  0  0  0  0  0
   36.6520   23.4770   30.0340 H   0  0  0  0  0  0  0  0  0  0  0  0
   38.0820   25.5260   30.3210 O   0  0  0  0  0  0  0  0  0  0  0  0
   37.4800   25.5910   29.5550 H   0  0  0  0  0  0  0  0  0  0  0  0
   37.1510   27.1860   31.9860 O   0  0  0  0  0  0  0  0  0  0  0  0
   36.7270   29.7670   31.6260 O   0  0  0  0  0  0  0  0  0  0  0  0
   36.2350   28.5400   32.3850 P   0  0  1  0  0  0  0  0  0  0  0  0
   34.6330   28.3230   31.8800 O   0  0  0  0  0  0  0  0  0  0  0  0
   34.4270   27.3620   32.0040 H   0  0  0  0  0  0  0  0  0  0  0  0
   36.3220   28.7220   34.0760 O   0  0  0  0  0  0  0  0  0  0  0  0
   35.6030   29.6820   34.7570 C   0  0  0  0  0  0  0  0  0  0  0  0
   36.1790   30.7200   35.5190 C   0  0  0  0  0  0  0  0  0  0  0  0
   35.3230   31.6150   36.1510 C   0  0  0  0  0  0  0  0  0  0  0  0
   33.9690   31.4440   35.9990 N   0  0  0  0  0  0  0  0  0  0  0  0
   33.4500   30.4290   35.2540 C   0  0  0  0  0  0  0  0  0  0  0  0
   34.2650   29.5420   34.6280 N   0  0  0  0  0  0  0  0  0  0  0  0
   37.2360   30.7230   35.5430 H   0  0  0  0  0  0  0  0  0  0  0  0
   35.7630   32.3930   36.7220 H   0  0  0  0  0  0  0  0  0  0  0  0
   32.3710   30.3730   35.1930 H   0  0  0  0  0  0  0  0  0  0  0  0
   36.5050   22.8590   31.9650 O   0  0  0  0  0  0  0  0  0  0  0  0
   35.4350   21.0700   33.1210 C   0  0  1  0  0  3  0  0  0  0  0  0
   35.4780   21.9400   31.8850 C   0  0  2  0  0  3  0  0  0  0  0  0
   35.7720   21.1320   30.7660 O   0  0  0  0  0  0  0  0  0  0  0  0
   37.0350   20.5550   30.9710 C   0  0  0  0  0  2  0  0  0  0  0  0
   36.9200   19.4660   32.0220 C   0  0  1  0  0  3  0  0  0  0  0  0
   35.5870   19.6100   32.7260 C   0  0  2  0  0  3  0  0  0  0  0  0
   36.5310   21.3350   33.9660 O   0  0  0  0  0  0  0  0  0  0  0  0
   37.2780   21.7350   33.4810 H   0  0  0  0  0  0  0  0  0  0  0  0
   36.9520   18.1910   31.4140 O   0  0  0  0  0  0  0  0  0  0  0  0
   36.6300   17.5560   32.0990 H   0  0  0  0  0  0  0  0  0  0  0  0
   34.5720   19.2050   31.8640 O   0  0  0  0  0  0  0  0  0  0  0  0
   33.7360   19.6250   32.1640 H   0  0  0  0  0  0  0  0  0  0  0  0
  1  2  1  0  0  0  0
  1  6  1  1  0  0  0
  2  7  1  1  0  0  0
  3  2  1  0  0  0  0
  4  3  1  0  0  0  0
  4  9  1  0  0  0  0
  5 10  1  6  0  0  0
  5  4  1  0  0  0  0
  5  1  1  0  0  0  0
  5 28  1  0  0  0  0
  8  4  1  0  0  0  0
 11  1  1  0  0  0  0
 12 11  1  0  0  0  0
 13  2  1  0  0  0  0
 13 15  1  0  0  0  0
 15 14  2  6  0  0  0
 15 18  1  0  0  0  0
 16 17  1  0  0  0  0
 16 15  1  0  0  0  0
 18 19  1  0  0  0  0
 19 20  1  0  0  0  0
 20 25  1  0  0  0  0
 20 21  2  0  0  0  0
 21 26  1  0  0  0  0
 22 21  1  0  0  0  0
 23 22  2  0  0  0  0
 24 19  2  0  0  0  0
 24 23  1  0  0  0  0
 27 23  1  0  0  0  0
 29 35  1  1  0  0  0
 30 28  1  1  0  0  0
 30 29  1  0  0  0  0
 31 32  1  0  0  0  0
 31 30  1  0  0  0  0
 32 33  1  0  0  0  0
 33 37  1  6  0  0  0
 33 34  1  0  0  0  0
 34 39  1  6  0  0  0
 34 29  1  0  0  0  0
 36 35  1  0  0  0  0
 37 38  1  0  0  0  0
 39 40  1  0  0  0  0
M  END
>  <minimizedAffinity>
-5.48560476

$$$$

 OpenBabel03272503513D

 40 42  0  0  1  0  0  0  0  0999 V2000
   41.2520   26.1790   34.4960 C   0  0  1  0  0  0  0  0  0  0  0  0
   40.3920   25.9190   33.2410 C   0  0  2  0  0  0  0  0  0  0  0  0
   40.9650   24.8140   32.6950 O   0  0  0  0  0  0  0  0  0  0  0  0
   41.1670   23.9540   33.7520 C   0  0  0  0  0  0  0  0  0  0  0  0
   41.5110   24.7690   34.9610 C   0  0  2  0  0  0  0  0  0  0  0  0
   40.6040   26.7390   35.1970 H   0  0  0  0  0  0  0  0  0  0  0  0
   39.3410   25.8070   33.6080 H   0  0  0  0  0  0  0  0  0  0  0  0
   42.0800   23.3510   33.4780 H   0  0  0  0  0  0  0  0  0  0  0  0
   40.3660   23.2140   33.8960 H   0  0  0  0  0  0  0  0  0  0  0  0
   42.5540   24.6460   35.2730 H   0  0  0  0  0  0  0  0  0  0  0  0
   42.3850   26.8970   34.1640 O   0  0  0  0  0  0  0  0  0  0  0  0
   43.0250   26.3060   33.7220 H   0  0  0  0  0  0  0  0  0  0  0  0
   40.4690   27.0770   32.5240 O   0  0  0  0  0  0  0  0  0  0  0  0
   39.7450   28.3310   30.3160 O   0  0  0  0  0  0  0  0  0  0  0  0
   39.4210   27.1390   31.2090 P   0  0  1  0  0  0  0  0  0  0  0  0
   39.6470   25.7790   30.2260 O   0  0  0  0  0  0  0  0  0  0  0  0
   39.8540   25.0240   30.8330 H   0  0  0  0  0  0  0  0  0  0  0  0
   37.8370   27.1850   31.8330 O   0  0  0  0  0  0  0  0  0  0  0  0
   36.9260   26.1720   31.6200 C   0  0  0  0  0  0  0  0  0  0  0  0
   35.6610   26.3490   31.0230 C   0  0  0  0  0  0  0  0  0  0  0  0
   34.8490   25.2300   30.8750 C   0  0  0  0  0  0  0  0  0  0  0  0
   35.3200   24.0170   31.3130 N   0  0  0  0  0  0  0  0  0  0  0  0
   36.5500   23.8850   31.8850 C   0  0  0  0  0  0  0  0  0  0  0  0
   37.3600   24.9630   32.0410 N   0  0  0  0  0  0  0  0  0  0  0  0
   35.4380   27.3420   30.7370 H   0  0  0  0  0  0  0  0  0  0  0  0
   33.8990   25.3700   30.4250 H   0  0  0  0  0  0  0  0  0  0  0  0
   36.8350   22.8900   32.2000 H   0  0  0  0  0  0  0  0  0  0  0  0
   40.6750   24.4680   36.0290 O   0  0  0  0  0  0  0  0  0  0  0  0
   38.3230   24.1030   35.9180 C   0  0  1  0  0  3  0  0  0  0  0  0
   39.7090   23.5230   35.7460 C   0  0  2  0  0  3  0  0  0  0  0  0
   39.8930   22.4910   36.6890 O   0  0  0  0  0  0  0  0  0  0  0  0
   39.7810   23.0510   37.9700 C   0  0  0  0  0  2  0  0  0  0  0  0
   38.3220   23.3640   38.2500 C   0  0  1  0  0  3  0  0  0  0  0  0
   37.5530   23.2930   36.9470 C   0  0  2  0  0  3  0  0  0  0  0  0
   38.3810   25.4070   36.4470 O   0  0  0  0  0  0  0  0  0  0  0  0
   39.2140   25.5700   36.9280 H   0  0  0  0  0  0  0  0  0  0  0  0
   37.7730   22.4060   39.1300 O   0  0  0  0  0  0  0  0  0  0  0  0
   36.7920   22.5150   39.0730 H   0  0  0  0  0  0  0  0  0  0  0  0
   37.4310   21.9610   36.5640 O   0  0  0  0  0  0  0  0  0  0  0  0
   37.2720   21.9400   35.5950 H   0  0  0  0  0  0  0  0  0  0  0  0
  1  5  1  0  0  0  0
  1  6  1  1  0  0  0
  2  7  1  1  0  0  0
  2  1  1  0  0  0  0
  3  2  1  0  0  0  0
  3  4  1  0  0  0  0
  4  9  1  0  0  0  0
  4  5  1  0  0  0  0
  5 10  1  1  0  0  0
  5 28  1  0  0  0  0
  8  4  1  0  0  0  0
 11  1  1  0  0  0  0
 12 11  1  0  0  0  0
 13  2  1  0  0  0  0
 15 14  2  6  0  0  0
 15 18  1  0  0  0  0
 15 13  1  0  0  0  0
 16 17  1  0  0  0  0
 16 15  1  0  0  0  0
 19 18  1  0  0  0  0
 19 24  1  0  0  0  0
 20 19  2  0  0  0  0
 21 20  1  0  0  0  0
 21 22  2  0  0  0  0
 22 23  1  0  0  0  0
 23 24  2  0  0  0  0
 23 27  1  0  0  0  0
 25 20  1  0  0  0  0
 26 21  1  0  0  0  0
 29 35  1  1  0  0  0
 29 34  1  0  0  0  0
 30 29  1  0  0  0  0
 30 28  1  1  0  0  0
 30 31  1  0  0  0  0
 31 32  1  0  0  0  0
 32 33  1  0  0  0  0
 33 37  1  1  0  0  0
 34 39  1  6  0  0  0
 34 33  1  0  0  0  0
 35 36  1  0  0  0  0
 38 37  1  0  0  0  0
 40 39  1  0  0  0  0
M  END
>  <minimizedAffinity>
-5.46229172

$$$$
