
 OpenBabel03272508093D

 27 28  0  0  1  0  0  0  0  0999 V2000
   36.7590   31.9660   47.0900 O   0  0  0  0  0  0  0  0  0  0  0  0
   36.2130   30.6200   46.7770 P   0  0  2  0  0  0  0  0  0  0  0  0
   34.5350   30.7090   46.5410 O   0  0  0  0  0  0  0  0  0  0  0  0
   34.1420   31.5620   46.8130 H   0  0  0  0  0  0  0  0  0  0  0  0
   36.5850   29.4210   47.9150 O   0  0  0  0  0  0  0  0  0  0  0  0
   37.7830   30.1110   51.3560 C   0  0  0  0  0  0  0  0  0  0  0  0
   37.8420   30.0730   49.9650 C   0  0  0  0  0  0  0  0  0  0  0  0
   36.7470   29.5540   49.2540 C   0  0  0  0  0  0  0  0  0  0  0  0
   35.6860   29.1160   49.9780 N   0  0  0  0  0  0  0  0  0  0  0  0
   35.6690   29.1710   51.3280 C   0  0  0  0  0  0  0  0  0  0  0  0
   36.7130   29.6660   52.0100 N   0  0  0  0  0  0  0  0  0  0  0  0
   38.6850   30.5300   51.7580 H   0  0  0  0  0  0  0  0  0  0  0  0
   38.6420   30.3990   49.3220 H   0  0  0  0  0  0  0  0  0  0  0  0
   34.8080   28.8140   51.8890 H   0  0  0  0  0  0  0  0  0  0  0  0
   36.8750   30.1460   45.2880 O   0  0  0  0  0  0  0  0  0  0  0  0
   38.2830   31.5780   44.1290 C   0  0  2  0  0  3  0  0  0  0  0  0
   38.2210   30.4770   45.1750 C   0  0  1  0  0  3  0  0  0  0  0  0
   38.6260   31.0330   46.3840 O   0  0  0  0  0  0  0  0  0  0  0  0
   39.9920   31.2640   46.4290 C   0  0  0  0  0  2  0  0  0  0  0  0
   40.5970   31.4450   45.0610 C   0  0  1  0  0  3  0  0  0  0  0  0
   39.6670   32.1240   44.0970 C   0  0  2  0  0  3  0  0  0  0  0  0
   37.3890   32.5750   44.4890 O   0  0  0  0  0  0  0  0  0  0  0  0
   37.4160   32.7350   45.4620 H   0  0  0  0  0  0  0  0  0  0  0  0
   41.7090   32.2850   45.1980 O   0  0  0  0  0  0  0  0  0  0  0  0
   42.2520   32.3160   44.3700 H   0  0  0  0  0  0  0  0  0  0  0  0
   39.6460   33.4850   44.2620 O   0  0  0  0  0  0  0  0  0  0  0  0
   40.2960   33.8160   44.9240 H   0  0  0  0  0  0  0  0  0  0  0  0
  2  1  2  1  0  0  0
  2  5  1  0  0  0  0
  3  2  1  0  0  0  0
  3  4  1  0  0  0  0
  5  8  1  0  0  0  0
  6 12  1  0  0  0  0
  6 11  1  0  0  0  0
  7  6  2  0  0  0  0
  8  7  1  0  0  0  0
  8  9  2  0  0  0  0
  9 10  1  0  0  0  0
 10 14  1  0  0  0  0
 10 11  2  0  0  0  0
 13  7  1  0  0  0  0
 15  2  1  0  0  0  0
 16 22  1  1  0  0  0
 16 17  1  0  0  0  0
 17 15  1  1  0  0  0
 17 18  1  0  0  0  0
 18 19  1  0  0  0  0
 20 24  1  1  0  0  0
 20 19  1  0  0  0  0
 21 16  1  0  0  0  0
 21 26  1  1  0  0  0
 21 20  1  0  0  0  0
 22 23  1  0  0  0  0
 25 24  1  0  0  0  0
 26 27  1  0  0  0  0
M  END
>  <minimizedAffinity>
-3.55454731

>  <minimizedRMSD>
2.66094303

$$$$
