
 OpenBabel03272506433D

 35 37  0  0  1  0  0  0  0  0999 V2000
   32.1780   27.8530   47.7930 C   0  0  2  0  0  0  0  0  0  0  0  0
   33.5260   27.8890   48.4930 C   0  0  1  0  0  0  0  0  0  0  0  0
   34.1410   26.6850   48.2770 O   0  0  0  0  0  0  0  0  0  0  0  0
   33.4380   25.9650   47.3230 C   0  0  0  0  0  0  0  0  0  0  0  0
   32.5340   26.9830   46.6140 C   0  0  1  0  0  0  0  0  0  0  0  0
   31.4630   27.3600   48.4780 H   0  0  0  0  0  0  0  0  0  0  0  0
   33.3300   28.1360   49.5450 H   0  0  0  0  0  0  0  0  0  0  0  0
   34.1940   25.5410   46.6240 H   0  0  0  0  0  0  0  0  0  0  0  0
   32.7670   25.2100   47.7590 H   0  0  0  0  0  0  0  0  0  0  0  0
   33.1390   27.5640   45.9210 H   0  0  0  0  0  0  0  0  0  0  0  0
   31.7730   29.1240   47.4230 O   0  0  0  0  0  0  0  0  0  0  0  0
   31.1350   29.1200   46.6780 H   0  0  0  0  0  0  0  0  0  0  0  0
   34.4940   29.1870   47.6610 S   0  0  0  0  0  0  0  0  0  0  0  0
   37.2040   29.3350   50.5520 C   0  0  0  0  0  0  0  0  0  0  0  0
   37.6920   30.6430   50.5310 C   0  0  0  0  0  0  0  0  0  0  0  0
   37.1520   31.5200   49.5700 C   0  0  0  0  0  0  0  0  0  0  0  0
   36.2000   31.0570   48.7270 N   0  0  0  0  0  0  0  0  0  0  0  0
   35.7530   29.7860   48.7790 C   0  0  0  0  0  0  0  0  0  0  0  0
   36.2420   28.9230   49.6800 N   0  0  0  0  0  0  0  0  0  0  0  0
   37.5500   28.5810   51.2520 H   0  0  0  0  0  0  0  0  0  0  0  0
   38.4460   30.9320   51.2310 H   0  0  0  0  0  0  0  0  0  0  0  0
   37.5240   32.5350   49.5450 H   0  0  0  0  0  0  0  0  0  0  0  0
   31.4380   26.3350   46.0750 O   0  0  0  0  0  0  0  0  0  0  0  0
   29.8610   27.6360   44.7910 C   0  0  2  0  0  3  0  0  0  0  0  0
   31.1620   26.9010   44.8310 C   0  0  2  0  0  3  0  0  0  0  0  0
   31.3080   25.9490   43.8370 O   0  0  0  0  0  0  0  0  0  0  0  0
   30.2190   25.0970   43.7310 C   0  0  0  0  0  2  0  0  0  0  0  0
   29.1200   25.9530   43.1330 C   0  0  1  0  0  3  0  0  0  0  0  0
   28.7020   26.9080   44.2150 C   0  0  1  0  0  3  0  0  0  0  0  0
   29.9790   28.8650   44.1360 O   0  0  0  0  0  0  0  0  0  0  0  0
   30.4940   28.7430   43.3220 H   0  0  0  0  0  0  0  0  0  0  0  0
   29.7200   26.6810   42.0860 O   0  0  0  0  0  0  0  0  0  0  0  0
   29.0360   27.0900   41.4990 H   0  0  0  0  0  0  0  0  0  0  0  0
   28.0310   26.1640   45.2040 O   0  0  0  0  0  0  0  0  0  0  0  0
   27.3590   26.7820   45.6150 H   0  0  0  0  0  0  0  0  0  0  0  0
  1  6  1  1  0  0  0
  1  2  1  0  0  0  0
  2  7  1  1  0  0  0
  3  2  1  0  0  0  0
  4  9  1  0  0  0  0
  4  3  1  0  0  0  0
  5 10  1  6  0  0  0
  5  4  1  0  0  0  0
  5  1  1  0  0  0  0
  8  4  1  0  0  0  0
 11  1  1  0  0  0  0
 12 11  1  0  0  0  0
 13  2  1  0  0  0  0
 13 18  1  0  0  0  0
 14 20  1  0  0  0  0
 15 14  1  0  0  0  0
 15 21  1  0  0  0  0
 16 15  2  0  0  0  0
 17 18  2  0  0  0  0
 17 16  1  0  0  0  0
 18 19  1  0  0  0  0
 19 14  2  0  0  0  0
 22 16  1  0  0  0  0
 23  5  1  0  0  0  0
 24 30  1  6  0  0  0
 24 25  1  0  0  0  0
 25 23  1  1  0  0  0
 26 25  1  0  0  0  0
 27 26  1  0  0  0  0
 28 32  1  6  0  0  0
 28 27  1  0  0  0  0
 28 29  1  0  0  0  0
 29 24  1  0  0  0  0
 29 34  1  1  0  0  0
 31 30  1  0  0  0  0
 33 32  1  0  0  0  0
 34 35  1  0  0  0  0
M  END
>  <minimizedAffinity>
-3.93428755

>  <minimizedRMSD>
2.93047166

$$$$
