
 OpenBabel03272506433D

 35 37  0  0  1  0  0  0  0  0999 V2000
   32.3830   28.3230   47.5460 C   0  0  2  0  0  0  0  0  0  0  0  0
   33.6770   28.3040   48.3410 C   0  0  1  0  0  0  0  0  0  0  0  0
   34.2220   27.0540   48.2210 O   0  0  0  0  0  0  0  0  0  0  0  0
   33.5420   26.3370   47.2490 C   0  0  0  0  0  0  0  0  0  0  0  0
   32.7620   27.3770   46.4330 C   0  0  1  0  0  0  0  0  0  0  0  0
   31.5890   27.9100   48.1950 H   0  0  0  0  0  0  0  0  0  0  0  0
   33.4240   28.6120   49.3650 H   0  0  0  0  0  0  0  0  0  0  0  0
   34.3150   25.8330   46.6270 H   0  0  0  0  0  0  0  0  0  0  0  0
   32.7910   25.6480   47.6660 H   0  0  0  0  0  0  0  0  0  0  0  0
   33.4520   27.8850   45.7630 H   0  0  0  0  0  0  0  0  0  0  0  0
   32.0930   29.5990   47.0930 O   0  0  0  0  0  0  0  0  0  0  0  0
   31.5110   29.6020   46.3040 H   0  0  0  0  0  0  0  0  0  0  0  0
   34.7880   29.4960   47.5290 S   0  0  0  0  0  0  0  0  0  0  0  0
   37.3750   29.4720   50.5340 C   0  0  0  0  0  0  0  0  0  0  0  0
   37.9780   30.7310   50.5090 C   0  0  0  0  0  0  0  0  0  0  0  0
   37.5590   31.6290   49.5080 C   0  0  0  0  0  0  0  0  0  0  0  0
   36.6060   31.2330   48.6330 N   0  0  0  0  0  0  0  0  0  0  0  0
   36.0460   30.0070   48.6900 C   0  0  0  0  0  0  0  0  0  0  0  0
   36.4190   29.1260   49.6280 N   0  0  0  0  0  0  0  0  0  0  0  0
   37.6230   28.7060   51.2620 H   0  0  0  0  0  0  0  0  0  0  0  0
   38.7250   30.9690   51.2360 H   0  0  0  0  0  0  0  0  0  0  0  0
   38.0210   32.6070   49.4800 H   0  0  0  0  0  0  0  0  0  0  0  0
   31.6650   26.7770   45.8420 O   0  0  0  0  0  0  0  0  0  0  0  0
   32.4730   28.0500   43.9570 C   0  0  2  0  0  3  0  0  0  0  0  0
   31.8510   26.7880   44.4600 C   0  0  2  0  0  3  0  0  0  0  0  0
   30.6710   26.4420   43.8230 O   0  0  0  0  0  0  0  0  0  0  0  0
   29.7650   27.4900   43.7460 C   0  0  0  0  0  2  0  0  0  0  0  0
   30.3620   28.4370   42.7230 C   0  0  1  0  0  3  0  0  0  0  0  0
   31.5530   29.0670   43.3890 C   0  0  1  0  0  3  0  0  0  0  0  0
   33.4800   27.7930   43.0200 O   0  0  0  0  0  0  0  0  0  0  0  0
   33.1660   27.1210   42.3930 H   0  0  0  0  0  0  0  0  0  0  0  0
   30.8050   27.6310   41.6560 O   0  0  0  0  0  0  0  0  0  0  0  0
   30.9990   28.1770   40.8540 H   0  0  0  0  0  0  0  0  0  0  0  0
   31.0750   29.9310   44.3920 O   0  0  0  0  0  0  0  0  0  0  0  0
   31.7450   30.6710   44.4700 H   0  0  0  0  0  0  0  0  0  0  0  0
  1  6  1  1  0  0  0
  1  2  1  0  0  0  0
  2  7  1  1  0  0  0
  3  2  1  0  0  0  0
  4  9  1  0  0  0  0
  4  3  1  0  0  0  0
  5 10  1  6  0  0  0
  5  4  1  0  0  0  0
  5  1  1  0  0  0  0
  8  4  1  0  0  0  0
 11  1  1  0  0  0  0
 12 11  1  0  0  0  0
 13  2  1  0  0  0  0
 13 18  1  0  0  0  0
 14 20  1  0  0  0  0
 15 14  1  0  0  0  0
 15 21  1  0  0  0  0
 16 15  2  0  0  0  0
 17 18  2  0  0  0  0
 17 16  1  0  0  0  0
 18 19  1  0  0  0  0
 19 14  2  0  0  0  0
 22 16  1  0  0  0  0
 23  5  1  0  0  0  0
 24 30  1  6  0  0  0
 24 25  1  0  0  0  0
 25 23  1  1  0  0  0
 26 25  1  0  0  0  0
 27 26  1  0  0  0  0
 28 32  1  6  0  0  0
 28 29  1  0  0  0  0
 28 27  1  0  0  0  0
 29 24  1  0  0  0  0
 29 34  1  1  0  0  0
 31 30  1  0  0  0  0
 33 32  1  0  0  0  0
 34 35  1  0  0  0  0
M  END
>  <minimizedAffinity>
-3.81807804

>  <minimizedRMSD>
0.455780268

$$$$
