
     RDKit          3D

 28 29  0  0  0  0  0  0  0  0999 V2000
   37.3302   30.2348   51.4218 C   0  0  0  0  0  0  0  0  0  0  0  0
   38.0855   30.7423   50.3499 C   0  0  0  0  0  0  0  0  0  0  0  0
   37.6996   30.3744   49.0476 C   0  0  0  0  0  0  0  0  0  0  0  0
   36.6063   29.5398   48.8952 N   0  0  0  0  0  0  0  0  0  0  0  0
   35.9232   29.0865   49.9611 C   0  0  0  0  0  0  0  0  0  0  0  0
   36.2770   29.4273   51.2155 N   0  0  0  0  0  0  0  0  0  0  0  0
   34.8702   28.2699   49.5981 O   0  0  0  0  0  0  0  0  0  0  0  0
   37.5627   30.4709   52.4535 H   0  0  0  0  0  0  0  0  0  0  0  0
   38.9229   31.3862   50.5453 H   0  0  0  0  0  0  0  0  0  0  0  0
   38.2434   30.7359   48.2084 H   0  0  0  0  0  0  0  0  0  0  0  0
   33.5946   30.0065   51.0635 O   0  0  0  0  0  0  0  0  0  0  0  0
   33.3035   28.6761   51.4308 C   0  0  2  0  0  0  0  0  0  0  0  0
   34.0149   27.6812   50.5719 C   0  0  1  0  0  0  0  0  0  0  0  0
   33.1754   26.7694   49.9537 O   0  0  0  0  0  0  0  0  0  0  0  0
   32.1276   27.3378   49.2615 C   0  0  0  0  0  0  0  0  0  0  0  0
   31.1994   28.1433   50.1418 C   0  0  2  0  0  0  0  0  0  0  0  0
   30.8279   29.3335   49.4900 O   0  0  0  0  0  0  0  0  0  0  0  0
   31.7966   28.4580   51.4682 C   0  0  2  0  0  0  0  0  0  0  0  0
   31.1853   29.6146   51.9454 O   0  0  0  0  0  0  0  0  0  0  0  0
   33.8535   30.0743   50.1110 H   0  0  0  0  0  0  0  0  0  0  0  0
   33.6435   28.5952   52.4894 H   0  0  0  0  0  0  0  0  0  0  0  0
   34.7061   27.0504   51.2062 H   0  0  0  0  0  0  0  0  0  0  0  0
   31.5174   26.4794   48.8817 H   0  0  0  0  0  0  0  0  0  0  0  0
   32.4211   27.9291   48.3760 H   0  0  0  0  0  0  0  0  0  0  0  0
   30.2271   27.6125   50.3450 H   0  0  0  0  0  0  0  0  0  0  0  0
   31.6530   29.7491   49.1443 H   0  0  0  0  0  0  0  0  0  0  0  0
   31.6376   27.5760   52.1485 H   0  0  0  0  0  0  0  0  0  0  0  0
   31.7560   30.4072   51.8220 H   0  0  0  0  0  0  0  0  0  0  0  0
  2  1  2  0
  3  2  1  0
  4  3  2  0
  4  5  1  0
  5  6  2  0
  6  1  1  0
  7  5  1  0
  1  8  1  0
  2  9  1  0
  3 10  1  0
 11 12  1  0
 12 13  1  0
 13 14  1  0
 14 15  1  0
 15 16  1  0
 16 17  1  0
 16 18  1  0
 18 19  1  0
 18 12  1  0
 11 20  1  0
 12 21  1  1
 13 22  1  1
 15 23  1  0
 15 24  1  0
 16 25  1  1
 17 26  1  0
 18 27  1  1
 19 28  1  0
  7 13  1  0
M  ISO  3   8  14   9  14  10  14
M  END
>  <DihAtoms>  (1) 
4,6,12,11

>  <DihDeg>  (1) 
119.74823588195196

$$$$
