
 OpenBabel03272504573D

 36 38  0  0  1  0  0  0  0  0999 V2000
   36.3850   29.1840   49.8130 C   0  0  1  0  0  0  0  0  0  0  0  0
   35.2980   29.2770   50.7560 C   0  0  0  0  0  0  0  0  0  0  0  0
   35.0240   28.9770   49.3180 C   0  0  2  0  0  0  0  0  0  0  0  0
   37.0540   28.2560   49.7370 H   0  0  0  0  0  0  0  0  0  0  0  0
   35.5240   28.6320   51.5830 H   0  0  0  0  0  0  0  0  0  0  0  0
   35.0240   30.2970   51.0980 H   0  0  0  0  0  0  0  0  0  0  0  0
   34.3190   29.6790   48.9170 H   0  0  0  0  0  0  0  0  0  0  0  0
   37.1020   30.4140   49.3370 C   0  0  0  0  0  0  0  0  0  0  0  0
   36.8090   31.6110   50.0410 C   0  0  0  0  0  0  0  0  0  0  0  0
   37.4840   32.7180   49.5790 C   0  0  0  0  0  0  0  0  0  0  0  0
   38.3500   32.6130   48.5270 N   0  0  0  0  0  0  0  0  0  0  0  0
   38.5970   31.4470   47.8860 C   0  0  0  0  0  0  0  0  0  0  0  0
   37.9410   30.3310   48.3240 N   0  0  0  0  0  0  0  0  0  0  0  0
   39.4790   31.3450   46.8070 N   0  0  0  0  0  0  0  0  0  0  0  0
   36.1370   31.6920   50.8590 H   0  0  0  0  0  0  0  0  0  0  0  0
   37.3000   33.6560   50.0770 H   0  0  0  0  0  0  0  0  0  0  0  0
   40.0520   32.2060   46.5710 H   0  0  0  0  0  0  0  0  0  0  0  0
   39.5590   30.4560   46.2680 H   0  0  0  0  0  0  0  0  0  0  0  0
   34.6950   27.6400   49.0390 O   0  0  0  0  0  0  0  0  0  0  0  0
   32.8620   26.1940   47.9570 O   0  0  0  0  0  0  0  0  0  0  0  0
   33.4540   27.5650   47.9290 P   0  0  1  0  0  0  0  0  0  0  0  0
   32.1800   28.6270   48.4330 O   0  0  0  0  0  0  0  0  0  0  0  0
   32.2630   28.7740   49.4150 H   0  0  0  0  0  0  0  0  0  0  0  0
   34.0320   28.0340   46.4260 O   0  0  0  0  0  0  0  0  0  0  0  0
   32.1430   28.3250   45.0900 C   0  0  2  0  0  0  0  0  0  0  0  0
   33.2790   29.0050   45.8120 C   0  0  1  0  0  0  0  0  0  0  0  0
   32.8690   30.0100   46.6810 O   0  0  0  0  0  0  0  0  0  0  0  0
   32.2940   31.0040   45.8560 C   0  0  0  0  0  0  0  0  0  0  0  0
   30.9400   30.4080   45.4510 C   0  0  1  0  0  0  0  0  0  0  0  0
   31.3010   29.3580   44.3940 C   0  0  2  0  0  0  0  0  0  0  0  0
   31.2950   27.6620   45.9980 O   0  0  0  0  0  0  0  0  0  0  0  0
   31.4820   26.7090   45.9150 H   0  0  0  0  0  0  0  0  0  0  0  0
   30.4480   29.7080   46.5500 O   0  0  0  0  0  0  0  0  0  0  0  0
   29.4840   29.8640   46.5980 H   0  0  0  0  0  0  0  0  0  0  0  0
   30.1610   28.8220   43.8220 O   0  0  0  0  0  0  0  0  0  0  0  0
   29.7840   28.1550   44.4690 H   0  0  0  0  0  0  0  0  0  0  0  0
  1  4  1  1  0  0  0
  1  2  1  0  0  0  0
  2  6  1  0  0  0  0
  2  5  1  0  0  0  0
  3  7  1  6  0  0  0
  3  1  1  0  0  0  0
  3  2  1  0  0  0  0
  8  1  1  0  0  0  0
  8  9  1  0  0  0  0
  9 15  1  0  0  0  0
 10  9  2  0  0  0  0
 10 16  1  0  0  0  0
 11 10  1  0  0  0  0
 12 13  1  0  0  0  0
 12 11  2  0  0  0  0
 13  8  2  0  0  0  0
 14 12  1  0  0  0  0
 17 14  1  0  0  0  0
 18 14  1  0  0  0  0
 19  3  1  0  0  0  0
 21 20  2  6  0  0  0
 21 22  1  0  0  0  0
 21 19  1  0  0  0  0
 22 23  1  0  0  0  0
 24 21  1  0  0  0  0
 25 26  1  0  0  0  0
 25 31  1  1  0  0  0
 26 24  1  1  0  0  0
 26 27  1  0  0  0  0
 28 27  1  0  0  0  0
 29 28  1  0  0  0  0
 29 33  1  1  0  0  0
 30 35  1  1  0  0  0
 30 25  1  0  0  0  0
 30 29  1  0  0  0  0
 32 31  1  0  0  0  0
 33 34  1  0  0  0  0
 35 36  1  0  0  0  0
M  END
>  <minimizedAffinity>
-5.67940617

>  <minimizedRMSD>
2.82169819

$$$$
