
 OpenBabel03272509433D

 41 43  0  0  1  0  0  0  0  0999 V2000
   37.0840   31.0420   49.0070 C   0  0  0  0  0  0  0  0  0  0  0  0
   36.6530   31.8730   50.0420 C   0  0  0  0  0  0  0  0  0  0  0  0
   37.1710   33.1520   50.2170 C   0  0  0  0  0  0  0  0  0  0  0  0
   38.1470   33.6210   49.3330 C   0  0  0  0  0  0  0  0  0  0  0  0
   38.5560   32.7950   48.3260 C   0  0  0  0  0  0  0  0  0  0  0  0
   38.0190   31.5260   48.1820 C   0  0  0  0  0  0  0  0  0  0  0  0
   35.8880   31.4910   50.7230 H   0  0  0  0  0  0  0  0  0  0  0  0
   36.7670   33.7010   51.0460 H   0  0  0  0  0  0  0  0  0  0  0  0
   38.4860   34.6150   49.5420 H   0  0  0  0  0  0  0  0  0  0  0  0
   39.3170   33.2990   47.7260 H   0  0  0  0  0  0  0  0  0  0  0  0
   36.5730   29.6980   48.8490 C   0  0  2  0  0  0  0  0  0  0  0  0
   37.1110   29.2750   47.9160 H   0  0  0  0  0  0  0  0  0  0  0  0
   33.7920   30.0040   46.5320 C   0  0  0  0  0  0  0  0  0  0  0  0
   33.0470   28.8590   46.7510 C   0  0  0  0  0  0  0  0  0  0  0  0
   33.4590   27.9950   47.7460 C   0  0  0  0  0  0  0  0  0  0  0  0
   34.5860   28.2970   48.4810 N   0  0  0  0  0  0  0  0  0  0  0  0
   35.2550   29.4020   48.2220 C   0  0  0  0  0  0  0  0  0  0  0  0
   34.8660   30.2560   47.2590 N   0  0  0  0  0  0  0  0  0  0  0  0
   33.4420   30.6600   45.7460 H   0  0  0  0  0  0  0  0  0  0  0  0
   32.1540   28.5540   46.2160 H   0  0  0  0  0  0  0  0  0  0  0  0
   32.9700   27.0650   48.0260 H   0  0  0  0  0  0  0  0  0  0  0  0
   37.0770   28.8750   49.7020 O   0  0  0  0  0  0  0  0  0  0  0  0
   36.9250   29.1560   50.6600 H   0  0  0  0  0  0  0  0  0  0  0  0
   38.5620   30.7480   47.0930 C   0  0  0  0  0  3  0  0  0  0  0  0
   39.4270   31.2300   46.1930 C   0  0  0  0  0  3  0  0  0  0  0  0
   40.0770   30.5180   45.0690 C   0  0  0  0  0  0  0  0  0  0  0  0
   40.6050   31.2220   44.3640 H   0  0  0  0  0  0  0  0  0  0  0  0
   40.8580   29.8410   45.4610 H   0  0  0  0  0  0  0  0  0  0  0  0
   38.8410   29.6030   44.1420 S   0  0  0  0  0  0  0  0  0  0  0  0
   40.0440   28.9040   41.8430 C   0  0  1  0  0  3  0  0  0  0  0  0
   38.9460   29.8120   42.3690 C   0  0  2  0  0  3  0  0  0  0  0  0
   39.1580   31.1340   42.0100 O   0  0  0  0  0  0  0  0  0  0  0  0
   39.4260   31.1790   40.6380 C   0  0  0  0  0  2  0  0  0  0  0  0
   40.8770   30.7770   40.4870 C   0  0  1  0  0  3  0  0  0  0  0  0
   41.2850   29.6970   41.4610 C   0  0  2  0  0  3  0  0  0  0  0  0
   40.4440   27.9940   42.8240 O   0  0  0  0  0  0  0  0  0  0  0  0
   39.7460   27.8210   43.5040 H   0  0  0  0  0  0  0  0  0  0  0  0
   41.0950   30.2830   39.2210 O   0  0  0  0  0  0  0  0  0  0  0  0
   40.3460   30.4280   38.6180 H   0  0  0  0  0  0  0  0  0  0  0  0
   42.1870   28.7950   40.8970 O   0  0  0  0  0  0  0  0  0  0  0  0
   41.7760   28.2310   40.2070 H   0  0  0  0  0  0  0  0  0  0  0  0
  1  2  1  0  0  0  0
  2  3  2  0  0  0  0
  2  7  1  0  0  0  0
  3  8  1  0  0  0  0
  4  9  1  0  0  0  0
  4  3  1  0  0  0  0
  5  4  2  0  0  0  0
  6  5  1  0  0  0  0
  6  1  2  0  0  0  0
 10  5  1  0  0  0  0
 11 12  1  6  0  0  0
 11  1  1  0  0  0  0
 11 22  1  0  0  0  0
 13 14  2  0  0  0  0
 13 18  1  0  0  0  0
 14 15  1  0  0  0  0
 15 21  1  0  0  0  0
 15 16  2  0  0  0  0
 17 16  1  0  0  0  0
 17 11  1  0  0  0  0
 18 17  2  0  0  0  0
 19 13  1  0  0  0  0
 20 14  1  0  0  0  0
 22 23  1  0  0  0  0
 24  6  1  0  0  0  0
 25 24  2  0  0  0  0
 26 28  1  0  0  0  0
 26 25  1  0  0  0  0
 27 26  1  0  0  0  0
 29 26  1  0  0  0  0
 30 31  1  0  0  0  0
 30 36  1  1  0  0  0
 31 29  1  1  0  0  0
 32 31  1  0  0  0  0
 33 32  1  0  0  0  0
 34 38  1  6  0  0  0
 34 33  1  0  0  0  0
 34 35  1  0  0  0  0
 35 40  1  6  0  0  0
 35 30  1  0  0  0  0
 36 37  1  0  0  0  0
 39 38  1  0  0  0  0
 41 40  1  0  0  0  0
M  END
>  <minimizedAffinity>
-6.24387741

>  <minimizedRMSD>
1.2016325

$$$$
