
 OpenBabel03272502303D

 27 28  0  0  1  0  0  0  0  0999 V2000
   39.3960   31.9610   46.1890 C   0  0  0  0  0  0  0  0  0  0  0  0
   40.0710   32.8140   46.2940 H   0  0  0  0  0  0  0  0  0  0  0  0
   40.0340   31.1420   45.7430 H   0  0  0  0  0  0  0  0  0  0  0  0
   37.9460   30.5420   47.6050 C   0  0  0  0  0  3  0  0  0  0  0  0
   38.8260   31.4830   47.4670 C   0  0  0  0  0  3  0  0  0  0  0  0
   37.4100   30.2590   51.2790 C   0  0  0  0  0  0  0  0  0  0  0  0
   37.9700   30.6150   50.0460 C   0  0  0  0  0  0  0  0  0  0  0  0
   37.3950   30.2060   48.8730 C   0  0  0  0  0  0  0  0  0  0  0  0
   36.2590   29.4430   48.9310 N   0  0  0  0  0  0  0  0  0  0  0  0
   35.7430   29.1190   50.1420 C   0  0  0  0  0  0  0  0  0  0  0  0
   36.3070   29.5180   51.2990 N   0  0  0  0  0  0  0  0  0  0  0  0
   37.8580   30.5650   52.2290 H   0  0  0  0  0  0  0  0  0  0  0  0
   38.8650   31.2160   50.0710 H   0  0  0  0  0  0  0  0  0  0  0  0
   34.8350   28.5140   50.2860 H   0  0  0  0  0  0  0  0  0  0  0  0
   38.0160   32.3390   45.0550 S   0  0  0  0  0  0  0  0  0  0  0  0
   38.2360   29.9410   43.8680 C   0  0  2  0  0  3  0  0  0  0  0  0
   38.1640   31.4030   43.4720 C   0  0  2  0  0  3  0  0  0  0  0  0
   39.3260   31.8460   42.8840 O   0  0  0  0  0  0  0  0  0  0  0  0
   39.8750   31.0610   41.9160 C   0  0  0  0  0  2  0  0  0  0  0  0
   40.3750   29.7760   42.5740 C   0  0  2  0  0  3  0  0  0  0  0  0
   39.1420   29.0830   43.0710 C   0  0  2  0  0  3  0  0  0  0  0  0
   36.9610   29.3850   43.7990 O   0  0  0  0  0  0  0  0  0  0  0  0
   36.7900   28.7690   44.5670 H   0  0  0  0  0  0  0  0  0  0  0  0
   41.2520   30.0710   43.5880 O   0  0  0  0  0  0  0  0  0  0  0  0
   40.9510   29.7350   44.4780 H   0  0  0  0  0  0  0  0  0  0  0  0
   38.4610   28.4080   42.0540 O   0  0  0  0  0  0  0  0  0  0  0  0
   37.9190   27.7040   42.5200 H   0  0  0  0  0  0  0  0  0  0  0  0
  1  2  1  0  0  0  0
  1  5  1  0  0  0  0
  3  1  1  0  0  0  0
  4  8  1  0  0  0  0
  5  4  2  0  0  0  0
  6 11  1  0  0  0  0
  6 12  1  0  0  0  0
  7 13  1  0  0  0  0
  7  6  2  0  0  0  0
  8  9  2  0  0  0  0
  8  7  1  0  0  0  0
  9 10  1  0  0  0  0
 10 14  1  0  0  0  0
 10 11  2  0  0  0  0
 15  1  1  0  0  0  0
 16 22  1  6  0  0  0
 17 16  1  0  0  0  0
 17 15  1  1  0  0  0
 18 17  1  0  0  0  0
 19 20  1  0  0  0  0
 19 18  1  0  0  0  0
 20 21  1  0  0  0  0
 20 24  1  1  0  0  0
 21 26  1  6  0  0  0
 21 16  1  0  0  0  0
 22 23  1  0  0  0  0
 24 25  1  0  0  0  0
 26 27  1  0  0  0  0
M  END
>  <minimizedAffinity>
-5.25015259

>  <minimizedRMSD>
0.932325602

$$$$
